data_Molecule from HDF5

_cell_length_a		16.220236
_cell_length_b		16.259528
_cell_length_c		16.373167
_cell_angle_alpha	89.578980
_cell_angle_beta	90.451804
_cell_angle_gamma	89.650815
_symmetry_space_group_name_H-M	'P 1'
_symmetry_Int_Tables_number		1

loop_
	_symmetry_equiv_pos_as_xyz
	x,y,z

loop_
	_atom_site_label
	_atom_site_type_symbol
	_atom_site_fract_x
	_atom_site_fract_y
	_atom_site_fract_z
	H0	H	0.396124	0.842321	0.707988
	H1	H	0.598071	0.167340	0.705323
	H2	H	0.597176	0.841564	0.274772
	H3	H	0.392007	0.165952	0.270937
	H4	H	0.709186	0.407895	0.825312
	H5	H	0.714856	0.601615	0.152221
	H6	H	0.278458	0.607198	0.827828
	H7	H	0.284541	0.404935	0.153423
	H8	H	0.833175	0.720281	0.387306
	H9	H	0.161601	0.713562	0.588486
	H10	H	0.832392	0.289221	0.588581
	H11	H	0.160839	0.287065	0.394623
	H12	H	0.833859	0.401344	0.706082
	H13	H	0.160639	0.600179	0.706273
	H14	H	0.834666	0.606356	0.270020
	H15	H	0.161002	0.401454	0.276518
	H16	H	0.395089	0.723403	0.827234
	H17	H	0.598373	0.718474	0.152784
	H18	H	0.597749	0.287935	0.826645
	H19	H	0.399721	0.285925	0.151796
	H20	H	0.709656	0.839894	0.392993
	H21	H	0.712007	0.166861	0.588995
	H22	H	0.285075	0.838998	0.588045
	H23	H	0.279567	0.166825	0.389606
	H24	H	0.898043	0.339831	0.206530
	H25	H	0.099040	0.665377	0.207151
	H26	H	0.098379	0.339036	0.777927
	H27	H	0.894124	0.664884	0.770077
	H28	H	0.210749	0.904528	0.327133
	H29	H	0.212109	0.099054	0.653291
	H30	H	0.778188	0.104981	0.328213
	H31	H	0.781422	0.902352	0.653463
	H32	H	0.333848	0.221546	0.888884
	H33	H	0.662914	0.212911	0.086228
	H34	H	0.332255	0.791127	0.086766
	H35	H	0.660442	0.790016	0.892025
	H36	H	0.331865	0.905585	0.202862
	H37	H	0.658860	0.103759	0.207722
	H38	H	0.333057	0.108228	0.772099
	H39	H	0.659299	0.903955	0.774921
	H40	H	0.894533	0.221463	0.328726
	H41	H	0.094196	0.214034	0.654704
	H42	H	0.096340	0.786742	0.327537
	H43	H	0.897940	0.784604	0.652746
	H44	H	0.213533	0.340198	0.893803
	H45	H	0.210090	0.667941	0.088059
	H46	H	0.785615	0.338218	0.087565
	H47	H	0.782437	0.666824	0.889581
	H48	H	0.403098	0.120435	0.581038
	H49	H	0.590649	0.889946	0.574188
	H50	H	0.579860	0.119477	0.392615
	H51	H	0.407742	0.887458	0.394915
	H52	H	0.601171	0.407942	0.107256
	H53	H	0.587964	0.606542	0.872393
	H54	H	0.401523	0.590435	0.103610
	H55	H	0.407742	0.418778	0.877235
	H56	H	0.109763	0.587880	0.404518
	H57	H	0.880873	0.591792	0.581052
	H58	H	0.113549	0.411767	0.589199
	H59	H	0.879567	0.412621	0.393704
	H60	H	0.115879	0.402334	0.587279
	H61	H	0.880281	0.595468	0.580683
	H62	H	0.115520	0.591070	0.387909
	H63	H	0.880768	0.411185	0.398223
	H64	H	0.413737	0.599389	0.103489
	H65	H	0.595791	0.594639	0.872773
	H66	H	0.588898	0.416342	0.101360
	H67	H	0.408261	0.410238	0.875362
	H68	H	0.583614	0.117329	0.404059
	H69	H	0.594381	0.884481	0.590830
	H70	H	0.403837	0.120162	0.579407
	H71	H	0.402614	0.887677	0.399268
	H72	H	0.912792	0.615397	0.076185
	H73	H	0.094045	0.385784	0.085455
	H74	H	0.081875	0.621830	0.883577
	H75	H	0.897235	0.381876	0.890843
	H76	H	0.080481	0.903562	0.603318
	H77	H	0.088902	0.097885	0.373647
	H78	H	0.906037	0.096231	0.605470
	H79	H	0.904940	0.919459	0.378450
	H80	H	0.618366	0.099453	0.883693
	H81	H	0.380651	0.102704	0.073163
	H82	H	0.610230	0.919361	0.083973
	H83	H	0.379934	0.906856	0.904141
	H84	H	0.616860	0.908600	0.091946
	H85	H	0.381855	0.088614	0.079033
	H86	H	0.614006	0.105063	0.906024
	H87	H	0.383772	0.924520	0.900176
	H88	H	0.901606	0.097959	0.608079
	H89	H	0.087356	0.094871	0.375320
	H90	H	0.098845	0.900102	0.610228
	H91	H	0.907883	0.905786	0.375317
	H92	H	0.078386	0.614066	0.905276
	H93	H	0.087802	0.386758	0.086143
	H94	H	0.897914	0.619563	0.075949
	H95	H	0.912346	0.387367	0.892848
	H96	H	0.402948	0.120673	0.579760
	H97	H	0.577505	0.890872	0.587316
	H98	H	0.591598	0.121774	0.396200
	H99	H	0.401884	0.885114	0.393473
	H100	H	0.587626	0.400959	0.105489
	H101	H	0.582637	0.594313	0.877882
	H102	H	0.400288	0.604560	0.109001
	H103	H	0.401069	0.414712	0.873839
	H104	H	0.115759	0.603882	0.400454
	H105	H	0.882045	0.593380	0.577880
	H106	H	0.112124	0.408207	0.579658
	H107	H	0.882006	0.415734	0.396953
	H108	H	0.906252	0.621177	0.088710
	H109	H	0.090839	0.388134	0.081054
	H110	H	0.099224	0.622580	0.898799
	H111	H	0.902137	0.387642	0.905101
	H112	H	0.094392	0.918074	0.603409
	H113	H	0.085135	0.097746	0.375331
	H114	H	0.901888	0.093125	0.605969
	H115	H	0.894850	0.911794	0.373012
	H116	H	0.609634	0.083085	0.898043
	H117	H	0.376693	0.099976	0.087407
	H118	H	0.612397	0.906231	0.077658
	H119	H	0.376794	0.913483	0.886953
	C120	C	0.374999	0.012514	0.610080
	C121	C	0.617422	0.995942	0.612030
	C122	C	0.615974	0.012098	0.369118
	C123	C	0.373586	0.994477	0.366692
	C124	C	0.620155	0.381151	-0.002901
	C125	C	0.619141	0.626386	0.981528
	C126	C	0.374945	0.627610	-0.001711
	C127	C	0.377282	0.383756	0.982380
	C128	C	0.005712	0.624921	0.366945
	C129	C	0.988998	0.622309	0.610250
	C130	C	0.005570	0.379757	0.613243
	C131	C	0.988864	0.382645	0.369256
	C132	C	0.876758	0.510837	0.110205
	C133	C	0.119576	0.494927	0.112480
	C134	C	0.117465	0.511395	0.868935
	C135	C	0.874658	0.493877	0.866582
	C136	C	0.118808	0.879853	0.497927
	C137	C	0.116690	0.123837	0.482509
	C138	C	0.873187	0.126044	0.499313
	C139	C	0.874231	0.881500	0.482682
	C140	C	0.506000	0.127014	0.866265
	C141	C	0.488255	0.125006	0.110017
	C142	C	0.504796	0.882937	0.112048
	C143	C	0.488042	0.884638	0.868601
	C144	C	0.376772	0.890417	0.668325
	C145	C	0.617310	0.118352	0.667207
	C146	C	0.616046	0.890046	0.313172
	C147	C	0.373105	0.117412	0.309831
	C148	C	0.673369	0.385535	0.874402
	C149	C	0.676235	0.622659	0.103547
	C150	C	0.317575	0.626693	0.876147
	C151	C	0.322789	0.384992	0.104696
	C152	C	0.882628	0.682306	0.367351
	C153	C	0.112409	0.676682	0.608775
	C154	C	0.881610	0.326065	0.609565
	C155	C	0.112074	0.325536	0.373429
	C156	C	0.882515	0.381918	0.668140
	C157	C	0.111891	0.620067	0.667089
	C158	C	0.883329	0.625659	0.308910
	C159	C	0.112281	0.382569	0.314971
	C160	C	0.375698	0.684446	0.875726
	C161	C	0.618464	0.681103	0.103787
	C162	C	0.617500	0.326057	0.875040
	C163	C	0.380087	0.325917	0.103939
	C164	C	0.672100	0.889049	0.372092
	C165	C	0.674037	0.118236	0.609418
	C166	C	0.321666	0.888672	0.608375
	C167	C	0.316989	0.117457	0.368551
	C168	C	0.878528	0.388136	0.167212
	C169	C	0.118157	0.617070	0.168328
	C170	C	0.117508	0.388118	0.815419
	C171	C	0.875194	0.616420	0.809315
	C172	C	0.173162	0.883532	0.375760
	C173	C	0.173338	0.119897	0.605068
	C174	C	0.816764	0.124732	0.376861
	C175	C	0.819689	0.882765	0.605082
	C176	C	0.382637	0.183578	0.868174
	C177	C	0.612807	0.177285	0.107322
	C178	C	0.381261	0.828431	0.108042
	C179	C	0.611349	0.828183	0.871418
	C180	C	0.381191	0.885194	0.165979
	C181	C	0.610916	0.123018	0.167714
	C182	C	0.382249	0.126909	0.810405
	C183	C	0.610773	0.885167	0.813484
	C184	C	0.874508	0.182643	0.377116
	C185	C	0.114966	0.177301	0.605641
	C186	C	0.116133	0.825059	0.375972
	C187	C	0.877506	0.824196	0.604601
	C188	C	0.175274	0.388959	0.872605
	C189	C	0.173455	0.618422	0.109125
	C190	C	0.822765	0.387309	0.107888
	C191	C	0.819396	0.617450	0.868389
	C192	C	0.396758	0.098301	0.586917
	C193	C	0.594327	0.910494	0.590310
	C194	C	0.592056	0.097479	0.391352
	C195	C	0.397281	0.908798	0.389469
	C196	C	0.598735	0.402322	0.082627
	C197	C	0.595626	0.604849	0.896343
	C198	C	0.398353	0.604749	0.083258
	C199	C	0.399345	0.407641	0.897481
	C200	C	0.091360	0.601122	0.390588
	C201	C	0.903241	0.600064	0.586711
	C202	C	0.091661	0.401313	0.591776
	C203	C	0.903054	0.406139	0.390134
	C204	C	0.899202	0.596609	0.087095
	C205	C	0.097371	0.408969	0.090710
	C206	C	0.093549	0.597261	0.889761
	C207	C	0.897211	0.407791	0.889600
	C208	C	0.097413	0.901004	0.583498
	C209	C	0.093908	0.103161	0.397126
	C210	C	0.896326	0.102769	0.584662
	C211	C	0.896162	0.905354	0.397504
	C212	C	0.591790	0.102917	0.889100
	C213	C	0.402011	0.103238	0.086856
	C214	C	0.590864	0.905006	0.090871
	C215	C	0.402342	0.908036	0.890734
	Zn216	Zn	0.495770	0.005374	0.739471
	Zn217	Zn	0.495705	0.004414	0.239104
	Zn218	Zn	0.748113	0.503000	-0.010959
	Zn219	Zn	0.246454	0.504739	-0.009357
	Zn220	Zn	-0.003359	0.751650	0.489642
	Zn221	Zn	-0.004001	0.253741	0.491085
	Zn222	Zn	-0.002858	0.501912	0.739717
	Zn223	Zn	-0.002127	0.502928	0.239409
	Zn224	Zn	0.496918	0.755794	-0.009737
	Zn225	Zn	0.498413	0.252701	-0.011256
	Zn226	Zn	0.744602	0.003552	0.490748
	Zn227	Zn	0.246347	0.002664	0.489383
	N228	N	0.409123	0.968308	0.669470
	N229	N	0.582790	0.041344	0.669021
	N230	N	0.581593	0.967569	0.311485
	N231	N	0.407629	0.039933	0.308460
	N232	N	0.675180	0.419182	0.951249
	N233	N	0.676734	0.589424	0.026556
	N234	N	0.317039	0.591950	0.953048
	N235	N	0.321057	0.420550	0.028204
	N236	N	0.959704	0.681855	0.402890
	N237	N	0.034816	0.678204	0.574032
	N238	N	0.958890	0.324944	0.575781
	N239	N	0.034343	0.325095	0.406235
	N240	N	0.960537	0.414724	0.670287
	N241	N	0.034165	0.586866	0.668028
	N242	N	0.960811	0.590673	0.308558
	N243	N	0.034817	0.417530	0.312443
	N244	N	0.410484	0.685314	0.952629
	N245	N	0.583476	0.683457	0.026881
	N246	N	0.585334	0.323217	0.952453
	N247	N	0.413127	0.324976	0.026702
	N248	N	0.672398	0.966085	0.405980
	N249	N	0.674178	0.041003	0.575834
	N250	N	0.320566	0.965567	0.572717
	N251	N	0.317263	0.040121	0.403364
	N252	N	0.911314	0.465884	0.168732
	N253	N	0.085568	0.539163	0.170683
	N254	N	0.082354	0.465325	0.812973
	N255	N	0.908692	0.538498	0.808080
	N256	N	0.174969	0.916859	0.452622
	N257	N	0.174500	0.087518	0.527690
	N258	N	0.815937	0.090078	0.453830
	N259	N	0.817744	0.917816	0.528206
	N260	N	0.460361	0.184010	0.902138
	N261	N	0.535453	0.178720	0.072234
	N262	N	0.459048	0.826709	0.075205
	N263	N	0.533987	0.827849	0.905232
	N264	N	0.458962	0.918441	0.168464
	N265	N	0.532302	0.091494	0.169600
	N266	N	0.460024	0.092419	0.809216
	N267	N	0.533150	0.919558	0.811793
	N268	N	0.908752	0.183526	0.454258
	N269	N	0.080240	0.179859	0.528570
	N270	N	0.082964	0.822625	0.452980
	N271	N	0.910479	0.823144	0.527433
	N272	N	0.175343	0.466703	0.905211
	N273	N	0.174585	0.541270	0.075270
	N274	N	0.821216	0.464828	0.073390
	N275	N	0.818863	0.540238	0.903231
	O276	O	0.086058	0.038338	-0.043613
	H277	H	0.083544	0.032288	-0.047100
	H278	H	0.079643	0.049413	-0.034162
	O279	O	0.569692	0.541877	0.521438
	H280	H	0.573931	0.541542	0.527738
	H281	H	0.558569	0.537700	0.519510
	O282	O	0.437799	0.599373	0.465754
	H283	H	0.443162	0.596380	0.462609
	H284	H	0.432848	0.594210	0.475795
	O285	O	0.050584	0.970621	1.077671
	H286	H	0.041630	0.959726	1.081751
	H287	H	0.058023	0.978654	1.077485
	O288	O	0.403066	0.552363	0.522260
	H289	H	0.397757	0.550361	0.522929
	H290	H	0.393157	0.552258	0.520124
	O291	O	0.467636	0.595854	1.431624
	H292	H	0.463538	0.598479	1.432377
	H293	H	0.468768	0.584682	1.427257
	O294	O	0.954356	1.007773	1.018610
	H295	H	0.953368	1.003892	1.016612
	H296	H	0.957201	0.993749	1.014505
	O297	O	0.995925	-0.052454	1.080579
	H298	H	1.001904	-0.057999	1.086972
	H299	H	0.999269	-0.045027	1.080261
	O300	O	0.463283	0.418079	0.450604
	H301	H	0.463553	0.421798	0.442050
	H302	H	0.481220	0.422378	0.450672
	O303	O	0.989390	-0.030478	-0.035225
	H304	H	0.986050	-0.036966	-0.049927
	H305	H	0.986902	-0.029186	-0.027704
	O306	O	-0.052513	0.954648	1.011263
	H307	H	-0.050840	0.955034	1.011996
	H308	H	-0.060635	0.955765	1.009319
	O309	O	0.605986	0.526676	0.529524
	H310	H	0.604592	0.528335	0.542310
	H311	H	0.609496	0.518886	0.534041
	O312	O	1.502697	0.441515	1.489919
	H313	H	1.507705	0.439998	1.497017
	H314	H	1.503891	0.446226	1.492828
	O315	O	0.416507	0.621711	0.409455
	H316	H	0.424986	0.624771	0.406918
	H317	H	0.411886	0.634643	0.411196
	O318	O	0.552567	0.505914	0.591422
	H319	H	0.540543	0.494503	0.590892
	H320	H	0.539577	0.500363	0.594367
	O321	O	0.977851	0.965169	0.954950
	H322	H	0.977718	0.961845	0.947800
	H323	H	0.971320	0.966983	0.953593
	O324	O	0.435061	0.460338	0.454527
	H325	H	0.433643	0.458991	0.436334
	H326	H	0.432193	0.466015	0.456007
	O327	O	0.610864	0.423571	0.343150
	H328	H	0.608826	0.434926	0.338958
	H329	H	0.617837	0.428942	0.346449
	O330	O	0.957367	0.001850	1.012584
	H331	H	0.954333	0.000796	1.017685
	H332	H	0.955768	0.004078	1.015297
	O333	O	1.037691	0.966449	-0.030179
	H334	H	1.028876	0.968785	-0.037794
	H335	H	1.044026	0.959856	-0.035632
	O336	O	0.472029	0.507329	0.534525
	H337	H	0.459540	0.507783	0.531195
	H338	H	0.470130	0.504836	0.535382
	O339	O	0.593105	0.463627	0.430158
	H340	H	0.596216	0.475642	0.427589
	H341	H	0.603334	0.477755	0.432133
	O342	O	0.034095	1.004041	0.010052
	H343	H	0.037685	1.009916	0.008612
	H344	H	0.042934	1.003218	0.006516
	O345	O	-0.013020	0.079814	0.013473
	H346	H	-0.014884	0.075956	0.017161
	H347	H	-0.011278	0.081265	0.008281
	O348	O	0.468657	0.397650	0.535071
	H349	H	0.473288	0.395017	0.541699
	H350	H	0.481535	0.389766	0.539588
	O351	O	0.553921	0.513930	0.524906
	H352	H	0.550405	0.518485	0.512352
	H353	H	0.543797	0.513406	0.536941
	O354	O	0.429284	0.549736	0.512623
	H355	H	0.414042	0.536541	0.513578
	H356	H	0.437500	0.540515	0.510658
	O357	O	0.428919	0.551477	0.611352
	H358	H	0.425196	0.553633	0.601212
	H359	H	0.423255	0.545109	0.614148
	O360	O	-0.100783	-0.078464	0.060953
	H361	H	-0.093698	-0.072146	0.065837
	H362	H	-0.112560	-0.079564	0.068926
	O363	O	0.489296	0.471097	0.461685
	H364	H	0.487413	0.465166	0.468433
	H365	H	0.499398	0.481339	0.466804
	O366	O	-0.012905	-0.057445	1.004874
	H367	H	-0.012563	-0.057563	1.010738
	H368	H	-0.010069	-0.064081	0.994493
	O369	O	0.669563	0.386871	0.467376
	H370	H	0.675107	0.386444	0.461623
	H371	H	0.681105	0.383403	0.456385
