data_Molecule from HDF5

_cell_length_a		16.618887
_cell_length_b		16.579638
_cell_length_c		16.616347
_cell_angle_alpha	90.015129
_cell_angle_beta	90.068588
_cell_angle_gamma	89.996060
_symmetry_space_group_name_H-M	'P 1'
_symmetry_Int_Tables_number		1

loop_
	_symmetry_equiv_pos_as_xyz
	x,y,z

loop_
	_atom_site_label
	_atom_site_type_symbol
	_atom_site_fract_x
	_atom_site_fract_y
	_atom_site_fract_z
	H0	H	0.386905	0.842492	0.679100
	H1	H	0.599681	0.152466	0.680815
	H2	H	0.597338	0.842921	0.235432
	H3	H	0.387303	0.155060	0.236906
	H4	H	0.713573	0.392418	0.801789
	H5	H	0.712823	0.602565	0.114126
	H6	H	0.271117	0.601720	0.801314
	H7	H	0.268307	0.390349	0.111882
	H8	H	0.836040	0.719400	0.350867
	H9	H	0.145967	0.720612	0.564537
	H10	H	0.837610	0.274094	0.564455
	H11	H	0.147877	0.275527	0.352636
	H12	H	0.836367	0.391516	0.679066
	H13	H	0.145948	0.605000	0.680537
	H14	H	0.837175	0.602958	0.234702
	H15	H	0.146073	0.388132	0.233396
	H16	H	0.388351	0.717276	0.800974
	H17	H	0.595378	0.718242	0.113743
	H18	H	0.598077	0.275885	0.802051
	H19	H	0.384482	0.273914	0.111801
	H20	H	0.716214	0.844539	0.349624
	H21	H	0.713451	0.154499	0.563192
	H22	H	0.270362	0.842254	0.563073
	H23	H	0.271128	0.154132	0.353257
	H24	H	0.885869	0.340312	0.179246
	H25	H	0.099077	0.651475	0.181821
	H26	H	0.095297	0.342325	0.737094
	H27	H	0.890316	0.655507	0.740705
	H28	H	0.212598	0.892531	0.301789
	H29	H	0.214577	0.103628	0.611651
	H30	H	0.770459	0.106133	0.300154
	H31	H	0.770753	0.894674	0.611858
	H32	H	0.337158	0.219231	0.851663
	H33	H	0.648542	0.220783	0.063620
	H34	H	0.335214	0.779711	0.058686
	H35	H	0.649169	0.778034	0.854139
	H36	H	0.335391	0.896045	0.174615
	H37	H	0.649361	0.102657	0.177369
	H38	H	0.337201	0.102658	0.735944
	H39	H	0.648371	0.892270	0.735946
	H40	H	0.886576	0.221546	0.301509
	H41	H	0.097377	0.219065	0.612668
	H42	H	0.094876	0.778048	0.301072
	H43	H	0.886158	0.778015	0.612052
	H44	H	0.210954	0.341733	0.853897
	H45	H	0.214408	0.652508	0.065396
	H46	H	0.769291	0.341043	0.063255
	H47	H	0.776206	0.656309	0.858975
	H48	H	0.396243	0.112014	0.545613
	H49	H	0.576139	0.890299	0.540837
	H50	H	0.583414	0.111299	0.368249
	H51	H	0.404299	0.885007	0.363678
	H52	H	0.579424	0.408333	0.068239
	H53	H	0.591338	0.588810	0.842157
	H54	H	0.400774	0.585738	0.069084
	H55	H	0.403989	0.411221	0.847058
	H56	H	0.104170	0.589361	0.368001
	H57	H	0.877942	0.591798	0.548807
	H58	H	0.104049	0.408428	0.548407
	H59	H	0.882062	0.412529	0.368601
	H60	H	0.103703	0.409115	0.547100
	H61	H	0.879816	0.587291	0.544786
	H62	H	0.100933	0.587410	0.374566
	H63	H	0.879791	0.407414	0.369366
	H64	H	0.405250	0.588276	0.068875
	H65	H	0.580624	0.581844	0.847735
	H66	H	0.582083	0.409738	0.069312
	H67	H	0.404392	0.410924	0.847688
	H68	H	0.579761	0.111256	0.365419
	H69	H	0.585326	0.886286	0.542110
	H70	H	0.406549	0.111155	0.552202
	H71	H	0.403967	0.887515	0.369610
	H72	H	0.907261	0.608068	0.051929
	H73	H	0.079633	0.386137	0.044001
	H74	H	0.076379	0.607777	0.873652
	H75	H	0.905371	0.386360	0.867736
	H76	H	0.080201	0.903995	0.570349
	H77	H	0.082194	0.089918	0.343601
	H78	H	0.908927	0.084864	0.565059
	H79	H	0.905057	0.913182	0.346572
	H80	H	0.603723	0.084259	0.869634
	H81	H	0.386529	0.078255	0.040055
	H82	H	0.604556	0.910536	0.050121
	H83	H	0.379927	0.905454	0.866878
	H84	H	0.606425	0.904904	0.048224
	H85	H	0.378233	0.084790	0.057050
	H86	H	0.604202	0.086529	0.868437
	H87	H	0.381512	0.908984	0.868420
	H88	H	0.902136	0.091481	0.569131
	H89	H	0.083161	0.082814	0.345869
	H90	H	0.085773	0.910324	0.570736
	H91	H	0.905537	0.905493	0.344487
	H92	H	0.087271	0.611994	0.870945
	H93	H	0.079227	0.386144	0.045340
	H94	H	0.903267	0.606206	0.040796
	H95	H	0.900499	0.384857	0.871032
	H96	H	0.405967	0.106661	0.540666
	H97	H	0.578818	0.886343	0.549915
	H98	H	0.579754	0.109000	0.369306
	H99	H	0.398442	0.884825	0.366734
	H100	H	0.579819	0.411871	0.067655
	H101	H	0.579176	0.594874	0.844270
	H102	H	0.401320	0.590564	0.071273
	H103	H	0.403877	0.410656	0.847140
	H104	H	0.101926	0.582099	0.369162
	H105	H	0.878518	0.585508	0.550873
	H106	H	0.103775	0.409940	0.548576
	H107	H	0.882471	0.410030	0.373232
	H108	H	0.896371	0.611013	0.049032
	H109	H	0.078788	0.387054	0.044851
	H110	H	0.078570	0.611611	0.862350
	H111	H	0.900847	0.383399	0.864730
	H112	H	0.078579	0.912094	0.567314
	H113	H	0.076526	0.086304	0.347398
	H114	H	0.899393	0.081513	0.567972
	H115	H	0.898577	0.909641	0.342529
	H116	H	0.603354	0.086717	0.870860
	H117	H	0.379834	0.096760	0.040886
	H118	H	0.603930	0.909291	0.044100
	H119	H	0.380158	0.909440	0.864776
	C120	C	0.370713	0.006766	0.578498
	C121	C	0.613146	0.990015	0.577403
	C122	C	0.613801	0.007827	0.334821
	C123	C	0.370478	0.989682	0.335402
	C124	C	0.612972	0.377119	-0.034347
	C125	C	0.614266	0.619613	0.948804
	C126	C	0.370601	0.619294	-0.033832
	C127	C	0.370657	0.376902	0.949510
	C128	C	-0.000257	0.618600	0.336893
	C129	C	0.981885	0.619947	0.579812
	C130	C	0.000715	0.376409	0.579909
	C131	C	0.984068	0.376987	0.337705
	C132	C	0.870326	0.505093	0.079372
	C133	C	0.112501	0.488600	0.078560
	C134	C	0.112549	0.507106	0.836501
	C135	C	0.871116	0.489154	0.837339
	C136	C	0.113150	0.876574	0.466182
	C137	C	0.113222	0.118746	0.448565
	C138	C	0.870676	0.119777	0.464767
	C139	C	0.870355	0.877662	0.447815
	C140	C	0.500711	0.118508	0.836860
	C141	C	0.484368	0.119931	0.078766
	C142	C	0.501143	0.877027	0.078354
	C143	C	0.484157	0.876474	0.835608
	C144	C	0.368607	0.889183	0.638693
	C145	C	0.616839	0.106492	0.639670
	C146	C	0.616197	0.890049	0.275016
	C147	C	0.368405	0.107509	0.276212
	C148	C	0.673376	0.374422	0.848494
	C149	C	0.673161	0.621180	0.066898
	C150	C	0.310930	0.620637	0.848266
	C151	C	0.309350	0.372987	0.065598
	C152	C	0.882985	0.679126	0.333126
	C153	C	0.099138	0.680445	0.582687
	C154	C	0.884122	0.315040	0.582185
	C155	C	0.100977	0.315637	0.334475
	C156	C	0.883408	0.373401	0.639334
	C157	C	0.099065	0.623118	0.640568
	C158	C	0.883381	0.621410	0.275075
	C159	C	0.100005	0.371778	0.275314
	C160	C	0.369374	0.677842	0.847990
	C161	C	0.614901	0.678631	0.066965
	C162	C	0.615830	0.316584	0.848623
	C163	C	0.367246	0.315070	0.065438
	C164	C	0.675373	0.890905	0.331491
	C165	C	0.673521	0.107291	0.581091
	C166	C	0.310751	0.889082	0.581007
	C167	C	0.310852	0.107176	0.334163
	C168	C	0.867963	0.387336	0.139131
	C169	C	0.116364	0.605173	0.140741
	C170	C	0.114343	0.389301	0.776712
	C171	C	0.871080	0.608412	0.780054
	C172	C	0.172359	0.874302	0.348519
	C173	C	0.174114	0.121539	0.565374
	C174	C	0.810349	0.123689	0.347473
	C175	C	0.810502	0.875994	0.564995
	C176	C	0.383943	0.178957	0.833778
	C177	C	0.601548	0.180621	0.081415
	C178	C	0.382743	0.818713	0.078357
	C179	C	0.601980	0.817214	0.834557
	C180	C	0.382660	0.876612	0.136004
	C181	C	0.602154	0.121783	0.138091
	C182	C	0.383887	0.120966	0.776267
	C183	C	0.601571	0.874244	0.776161
	C184	C	0.868576	0.180853	0.347929
	C185	C	0.116007	0.178848	0.565871
	C186	C	0.114240	0.817074	0.348465
	C187	C	0.868072	0.818110	0.565237
	C188	C	0.171714	0.389043	0.834871
	C189	C	0.173893	0.605519	0.082882
	C190	C	0.809802	0.387594	0.081565
	C191	C	0.814077	0.608609	0.838493
	C192	C	0.395732	0.088444	0.553409
	C193	C	0.587343	0.908666	0.551477
	C194	C	0.588146	0.089372	0.360402
	C195	C	0.395141	0.907208	0.359851
	C196	C	0.587589	0.402630	0.047268
	C197	C	0.590595	0.595519	0.866386
	C198	C	0.395173	0.595095	0.048296
	C199	C	0.396670	0.403424	0.868178
	C200	C	0.081238	0.593215	0.363099
	C201	C	0.900264	0.595225	0.555108
	C202	C	0.082542	0.401975	0.555001
	C203	C	0.902752	0.402786	0.363351
	C204	C	0.895247	0.586988	0.054490
	C205	C	0.086418	0.407738	0.052132
	C206	C	0.087866	0.589263	0.861798
	C207	C	0.895209	0.406532	0.860978
	C208	C	0.088727	0.901644	0.548198
	C209	C	0.087882	0.093596	0.366936
	C210	C	0.896148	0.093466	0.546292
	C211	C	0.895699	0.902480	0.365810
	C212	C	0.582395	0.093027	0.862456
	C213	C	0.402872	0.094017	0.053241
	C214	C	0.583565	0.901343	0.054378
	C215	C	0.401834	0.900925	0.859829
	Zn216	Zn	0.492987	-0.002127	0.706678
	Zn217	Zn	0.491805	-0.001142	0.206871
	Zn218	Zn	0.742197	0.497493	-0.042151
	Zn219	Zn	0.241492	0.497800	-0.042323
	Zn220	Zn	-0.008700	0.748276	0.457740
	Zn221	Zn	-0.007403	0.247727	0.457879
	Zn222	Zn	-0.009244	0.498300	0.708038
	Zn223	Zn	-0.008116	0.496620	0.208174
	Zn224	Zn	0.492597	0.747876	-0.043164
	Zn225	Zn	0.492446	0.247940	-0.043028
	Zn226	Zn	0.741890	-0.000677	0.456614
	Zn227	Zn	0.241896	-0.002362	0.456939
	N228	N	0.405250	0.963377	0.637456
	N229	N	0.579709	0.032557	0.637344
	N230	N	0.578689	0.963797	0.276960
	N231	N	0.404948	0.033243	0.276889
	N232	N	0.671856	0.411517	0.922492
	N233	N	0.673038	0.585365	-0.007617
	N234	N	0.311438	0.584963	0.922849
	N235	N	0.311371	0.410831	-0.007758
	N236	N	0.956475	0.677504	0.370849
	N237	N	0.025353	0.679085	0.545732
	N238	N	0.958280	0.316755	0.545847
	N239	N	0.027831	0.318697	0.372736
	N240	N	0.956999	0.410911	0.638026
	N241	N	0.025274	0.585952	0.638956
	N242	N	0.957330	0.584577	0.277113
	N243	N	0.026407	0.409242	0.277253
	N244	N	0.405855	0.677213	0.922187
	N245	N	0.578965	0.677825	-0.007410
	N246	N	0.578985	0.318286	0.922435
	N247	N	0.404714	0.317516	-0.007979
	N248	N	0.674146	0.965149	0.367986
	N249	N	0.671369	0.034053	0.542923
	N250	N	0.311831	0.963139	0.544276
	N251	N	0.311939	0.032707	0.370152
	N252	N	0.904595	0.461504	0.138235
	N253	N	0.078612	0.531646	0.138108
	N254	N	0.078673	0.464004	0.777273
	N255	N	0.905581	0.533136	0.779000
	N256	N	0.172248	0.910113	0.422975
	N257	N	0.172521	0.084757	0.491469
	N258	N	0.811347	0.086557	0.421485
	N259	N	0.811722	0.912024	0.490684
	N260	N	0.457833	0.177615	0.870592
	N261	N	0.526999	0.180117	0.045555
	N262	N	0.457532	0.818671	0.043197
	N263	N	0.527738	0.818251	0.870754
	N264	N	0.457473	0.911926	0.136388
	N265	N	0.528084	0.085185	0.136891
	N266	N	0.457674	0.084136	0.777854
	N267	N	0.527242	0.910287	0.776580
	N268	N	0.905266	0.178673	0.421933
	N269	N	0.078825	0.177388	0.492228
	N270	N	0.078127	0.818164	0.422764
	N271	N	0.904454	0.818731	0.491158
	N272	N	0.170823	0.463377	0.871386
	N273	N	0.171856	0.532171	0.044800
	N274	N	0.810896	0.462036	0.045350
	N275	N	0.813715	0.533426	0.873137
	O276	O	0.029298	0.795950	-0.006960
	H277	H	0.035941	0.799207	-0.025550
	H278	H	0.021384	0.797555	-0.019211
	O279	O	0.459200	0.518400	0.447221
	H280	H	0.456432	0.536852	0.452759
	H281	H	0.472525	0.522305	0.440218
	O282	O	1.082944	0.065144	0.963003
	H283	H	1.081768	0.069720	0.966651
	H284	H	1.079450	0.063832	0.963214
	O285	O	0.417524	0.435329	0.627616
	H286	H	0.404731	0.444560	0.631617
	H287	H	0.430004	0.435078	0.615395
	O288	O	0.406704	0.720937	0.490086
	H289	H	0.405218	0.717632	0.505411
	H290	H	0.377360	0.734736	0.487533
	O291	O	-0.212665	-0.172349	0.164335
	H292	H	-0.187863	-0.164936	0.162263
	H293	H	-0.207385	-0.152502	0.171597
	O294	O	1.207835	0.035583	1.098535
	H295	H	1.207123	0.044549	1.089657
	H296	H	1.210267	0.032879	1.102482
	O297	O	0.003853	1.133903	0.952089
	H298	H	0.023774	1.134185	0.954662
	H299	H	0.008071	1.136840	0.930338
	O300	O	-0.201880	-0.011904	1.165839
	H301	H	-0.184723	0.011454	1.157528
	H302	H	-0.225030	-0.007252	1.189117
	O303	O	0.304400	0.429534	0.437515
	H304	H	0.303298	0.430756	0.430560
	H305	H	0.304581	0.416310	0.416372
	O306	O	0.302036	0.674342	0.639891
	H307	H	0.295105	0.653294	0.612377
	H308	H	0.334029	0.658261	0.634543
	O309	O	1.011435	0.011400	0.909308
	H310	H	1.011188	0.010344	0.898069
	H311	H	1.002026	0.005309	0.911605
	O312	O	0.573378	0.574856	0.289655
	H313	H	0.579943	0.592673	0.288713
	H314	H	0.592579	0.570009	0.288851
	O315	O	1.466610	1.475956	1.391655
	H316	H	1.473831	1.482736	1.403289
	H317	H	1.468647	1.487178	1.382695
	O318	O	0.695331	0.342309	0.257440
	H319	H	0.689779	0.349884	0.266628
	H320	H	0.680853	0.332029	0.237846
	O321	O	0.570614	1.612783	0.478273
	H322	H	0.579707	1.616741	0.486220
	H323	H	0.569276	1.606535	0.493462
	O324	O	1.273986	1.511665	0.259440
	H325	H	1.263400	1.543016	0.253228
	H326	H	1.267096	1.532088	0.253334
	O327	O	-0.094809	0.073833	1.103460
	H328	H	-0.079218	0.079240	1.097926
	H329	H	-0.089542	0.096739	1.096934
	O330	O	0.813093	0.014368	0.748910
	H331	H	0.813176	0.011120	0.748030
	H332	H	0.805224	0.013005	0.750421
	O333	O	0.440859	0.442078	0.231205
	H334	H	0.442972	0.464958	0.224431
	H335	H	0.431173	0.458670	0.233229
	O336	O	1.178070	0.184632	-0.229860
	H337	H	1.153170	0.175793	-0.223667
	H338	H	1.206595	0.216358	-0.260969
	O339	O	0.815347	-0.804342	0.934274
	H340	H	0.815904	-0.791101	0.933990
	H341	H	0.817199	-0.792739	0.919552
	O342	O	-0.534894	0.633856	0.673176
	H343	H	-0.504937	0.645144	0.674356
	H344	H	-0.537451	0.623054	0.675396
	O345	O	-0.476849	1.279417	1.236911
	H346	H	-0.496846	1.313134	1.239507
	H347	H	-0.477350	1.254114	1.198864
	O348	O	0.212825	-0.218977	0.176669
	H349	H	0.188112	-0.203316	0.150120
	H350	H	0.216062	-0.196369	0.164564
	O351	O	0.658237	0.587438	0.451338
	H352	H	0.649386	0.615109	0.451910
	H353	H	0.655650	0.592573	0.450989
	O354	O	-0.504086	0.284996	1.667978
	H355	H	-0.514214	0.260292	1.682520
	H356	H	-0.540497	0.299059	1.668526
	O357	O	-0.027445	0.165985	-0.218756
	H358	H	-0.049831	0.161185	-0.225649
	H359	H	-0.040137	0.181953	-0.234965
	O360	O	0.713372	0.538418	0.676052
	H361	H	0.712015	0.522383	0.677346
	H362	H	0.722773	0.532125	0.683399
	O363	O	0.289084	0.293877	0.499550
	H364	H	0.295008	0.289390	0.477292
	H365	H	0.287424	0.305977	0.483302
	O366	O	0.593728	0.414967	0.347610
	H367	H	0.589570	0.424722	0.354461
	H368	H	0.596747	0.413887	0.347075
	O369	O	0.788306	0.206050	-0.221461
	H370	H	0.767611	0.210849	-0.234086
	H371	H	0.771802	0.191406	-0.215627
	O372	O	0.481602	0.715987	0.240792
	H373	H	0.492884	0.723800	0.225963
	H374	H	0.500494	0.721464	0.257066
	O375	O	0.568453	-0.552727	0.679567
	H376	H	0.561161	-0.550184	0.680917
	H377	H	0.564247	-0.572903	0.666791
	O378	O	1.205076	0.779708	0.922777
	H379	H	1.206586	0.785046	0.903495
	H380	H	1.230461	0.766298	0.916302
	O381	O	0.192816	1.195059	1.158188
	H382	H	0.199838	1.209283	1.175588
	H383	H	0.198006	1.171884	1.143086
	O384	O	1.049653	-0.133279	0.972742
	H385	H	1.041361	-0.136290	0.964658
	H386	H	1.061400	-0.113620	0.970814
	O387	O	1.119097	0.903404	0.083564
	H388	H	1.100419	0.910859	0.078322
	H389	H	1.127946	0.909017	0.072926
	O390	O	0.488311	0.279775	0.426510
	H391	H	0.501536	0.288190	0.418164
	H392	H	0.496332	0.279601	0.430019
	O393	O	0.688955	0.331589	0.621797
	H394	H	0.685650	0.333617	0.605834
	H395	H	0.670254	0.338480	0.610732
	O396	O	-0.334601	0.651709	1.275837
	H397	H	-0.315526	0.667490	1.264438
	H398	H	-0.344995	0.653600	1.289050
	O399	O	0.202606	-0.039936	0.741146
	H400	H	0.194844	-0.031660	0.741870
	H401	H	0.217510	-0.035057	0.716928
	O402	O	0.272401	0.474640	0.658822
	H403	H	0.271578	0.482571	0.649870
	H404	H	0.260772	0.483004	0.661859
	O405	O	1.105870	0.086887	0.981907
	H406	H	1.110451	0.088673	0.991664
	H407	H	1.113628	0.091714	0.990849
	O408	O	0.682155	0.461942	0.507174
	H409	H	0.688917	0.469852	0.490354
	H410	H	0.682595	0.460997	0.493246
	O411	O	0.281929	0.546565	0.523379
	H412	H	0.282947	0.559776	0.508917
	H413	H	0.278187	0.534794	0.509855
	O414	O	0.889842	0.137664	0.128075
	H415	H	0.897158	0.149588	0.121768
	H416	H	0.890987	0.147913	0.115828
	O417	O	0.029461	1.037330	0.913069
	H418	H	0.043934	1.038502	0.910639
	H419	H	0.036964	1.045639	0.912951
	O420	O	-0.222785	0.973455	0.945710
	H421	H	-0.227106	0.955376	0.975681
	H422	H	-0.222513	0.973326	0.956390
	O423	O	-0.190091	-0.187112	0.771650
	H424	H	-0.171006	-0.174655	0.778128
	H425	H	-0.174897	-0.164894	0.786989
	O426	O	0.198824	0.788514	0.747657
	H427	H	0.226963	0.764693	0.716634
	H428	H	0.195033	0.817450	0.755594
	O429	O	0.514187	0.669271	0.396169
	H430	H	0.523148	0.673396	0.398455
	H431	H	0.511070	0.676823	0.423071
	O432	O	0.499302	0.269934	0.477564
	H433	H	0.504100	0.271817	0.469150
	H434	H	0.501167	0.261760	0.487619
	O435	O	-0.217706	0.784630	-0.005218
	H436	H	-0.230385	0.764635	-0.003151
	H437	H	-0.215211	0.784553	0.010775
	O438	O	0.010324	-0.210278	-0.255785
	H439	H	0.031841	-0.222872	-0.269141
	H440	H	0.030419	-0.211545	-0.249615
	O441	O	0.066167	-0.045423	0.131994
	H442	H	0.050649	-0.036609	0.125698
	H443	H	0.055984	-0.063029	0.132058
	O444	O	0.709411	0.720652	0.486362
	H445	H	0.708547	0.721077	0.509085
	H446	H	0.732232	0.740790	0.504132
	O447	O	0.278154	1.291560	1.666796
	H448	H	0.280516	1.335426	1.667149
	H449	H	0.285382	1.287862	1.619754
	O450	O	0.310998	1.310184	1.283402
	H451	H	0.326567	1.315816	1.288352
	H452	H	0.326525	1.328992	1.292066
	O453	O	0.774160	1.005764	0.918588
	H454	H	0.769368	1.012141	0.921211
	H455	H	0.773809	1.012003	0.927253
	O456	O	-0.035850	-0.031401	0.767748
	H457	H	-0.025301	-0.026674	0.769332
	H458	H	-0.022310	-0.047990	0.764238
	O459	O	0.713446	0.280360	0.429182
	H460	H	0.730637	0.256193	0.421920
	H461	H	0.708191	0.284272	0.409270
	O462	O	0.932624	-0.213090	1.170723
	H463	H	0.940022	-0.228854	1.164477
	H464	H	0.941117	-0.229805	1.169365
	O465	O	1.686873	0.492296	0.252709
	H466	H	1.694129	0.479280	0.246535
	H467	H	1.695839	0.488206	0.249246
	O468	O	0.705081	0.711439	0.671720
	H469	H	0.711245	0.699549	0.686928
	H470	H	0.725039	0.706499	0.687873
	O471	O	1.037873	0.036922	0.807224
	H472	H	1.040620	0.054136	0.810314
	H473	H	1.027283	0.039649	0.826315
	O474	O	0.026220	1.205437	0.160417
	H475	H	0.041352	1.213523	0.148127
	H476	H	0.034043	1.225242	0.172687
	O477	O	0.269983	0.716573	1.406599
	H478	H	0.280583	0.710041	1.369054
	H479	H	0.243277	0.747213	1.391905
	O480	O	1.026677	0.213210	-0.011308
	H481	H	1.022065	0.224460	-0.032263
	H482	H	1.050842	0.203396	-0.034086
	O483	O	0.159016	0.960458	-0.084163
	H484	H	0.138445	0.971980	-0.090146
	H485	H	0.156152	0.989931	-0.095448
	O486	O	1.520766	-0.327208	1.653468
	H487	H	1.528680	-0.336228	1.656129
	H488	H	1.532055	-0.319326	1.669161
	O489	O	1.307298	0.666761	0.267583
	H490	H	1.350187	0.676211	0.262601
	H491	H	1.295148	0.696113	0.242880
