data_Molecule from HDF5

_cell_length_a		16.330726
_cell_length_b		16.389988
_cell_length_c		16.257693
_cell_angle_alpha	90.116856
_cell_angle_beta	90.152740
_cell_angle_gamma	90.244517
_symmetry_space_group_name_H-M	'P 1'
_symmetry_Int_Tables_number		1

loop_
	_symmetry_equiv_pos_as_xyz
	x,y,z

loop_
	_atom_site_label
	_atom_site_type_symbol
	_atom_site_fract_x
	_atom_site_fract_y
	_atom_site_fract_z
	H0	H	0.401760	0.833877	0.714535
	H1	H	0.602528	0.158303	0.722730
	H2	H	0.603008	0.835685	0.283784
	H3	H	0.397853	0.157311	0.282327
	H4	H	0.714174	0.394255	0.840047
	H5	H	0.715219	0.597401	0.165164
	H6	H	0.283195	0.591987	0.838808
	H7	H	0.280086	0.391785	0.164808
	H8	H	0.837410	0.717309	0.401572
	H9	H	0.160649	0.717052	0.607939
	H10	H	0.838723	0.276776	0.608384
	H11	H	0.159047	0.280139	0.400025
	H12	H	0.835154	0.398857	0.718100
	H13	H	0.159749	0.599699	0.722132
	H14	H	0.837036	0.601745	0.285090
	H15	H	0.159409	0.396444	0.284631
	H16	H	0.394918	0.711123	0.839389
	H17	H	0.602154	0.715514	0.163656
	H18	H	0.597839	0.279193	0.839720
	H19	H	0.395904	0.276925	0.164725
	H20	H	0.718163	0.836000	0.402007
	H21	H	0.717099	0.159894	0.604505
	H22	H	0.278081	0.839012	0.606802
	H23	H	0.281020	0.158917	0.398057
	H24	H	0.896097	0.337513	0.223264
	H25	H	0.100642	0.659562	0.219810
	H26	H	0.095491	0.335597	0.785359
	H27	H	0.897216	0.659978	0.788948
	H28	H	0.214798	0.899075	0.340738
	H29	H	0.219073	0.103462	0.665482
	H30	H	0.781566	0.099558	0.341163
	H31	H	0.786203	0.900477	0.666810
	H32	H	0.336870	0.211140	0.897917
	H33	H	0.659026	0.215912	0.106399
	H34	H	0.337125	0.777093	0.103572
	H35	H	0.660576	0.779050	0.902085
	H36	H	0.337752	0.892393	0.221007
	H37	H	0.661284	0.097435	0.219359
	H38	H	0.336869	0.092009	0.786702
	H39	H	0.662694	0.897449	0.788836
	H40	H	0.895050	0.217216	0.341709
	H41	H	0.102172	0.217822	0.665599
	H42	H	0.102697	0.779646	0.342785
	H43	H	0.899981	0.784435	0.667084
	H44	H	0.211567	0.333365	0.901239
	H45	H	0.220414	0.656358	0.106177
	H46	H	0.780045	0.334897	0.105616
	H47	H	0.779197	0.657582	0.902349
	H48	H	0.412484	0.110594	0.590912
	H49	H	0.591268	0.882254	0.596439
	H50	H	0.589894	0.109753	0.413294
	H51	H	0.412951	0.885883	0.413039
	H52	H	0.588945	0.399839	0.119471
	H53	H	0.586211	0.577797	0.890305
	H54	H	0.414066	0.583613	0.114334
	H55	H	0.408208	0.404178	0.888060
	H56	H	0.111503	0.585989	0.412998
	H57	H	0.881060	0.593317	0.600951
	H58	H	0.111954	0.408470	0.589991
	H59	H	0.886773	0.407490	0.421958
	H60	H	0.112065	0.413446	0.596237
	H61	H	0.882243	0.597392	0.593526
	H62	H	0.115283	0.593127	0.410983
	H63	H	0.885931	0.415112	0.412424
	H64	H	0.408350	0.591467	0.119534
	H65	H	0.581743	0.593102	0.886688
	H66	H	0.591968	0.407563	0.118097
	H67	H	0.406311	0.398361	0.885653
	H68	H	0.591877	0.109990	0.412742
	H69	H	0.594002	0.883154	0.592474
	H70	H	0.404574	0.113969	0.594753
	H71	H	0.405529	0.884552	0.417996
	H72	H	0.896805	0.613571	0.091401
	H73	H	0.088988	0.384079	0.090397
	H74	H	0.087825	0.607124	0.921977
	H75	H	0.899112	0.380467	0.910375
	H76	H	0.089842	0.914028	0.617615
	H77	H	0.086404	0.090559	0.389637
	H78	H	0.913942	0.091134	0.617310
	H79	H	0.907931	0.915845	0.390620
	H80	H	0.615133	0.089968	0.912051
	H81	H	0.384617	0.082363	0.095050
	H82	H	0.613461	0.905918	0.093202
	H83	H	0.380107	0.898866	0.900660
	H84	H	0.614396	0.902808	0.094032
	H85	H	0.382690	0.088270	0.091954
	H86	H	0.613474	0.087257	0.916815
	H87	H	0.382761	0.896123	0.914676
	H88	H	0.906942	0.091801	0.620693
	H89	H	0.092306	0.092366	0.386736
	H90	H	0.085595	0.904746	0.619250
	H91	H	0.917767	0.902533	0.388795
	H92	H	0.099445	0.613851	0.912963
	H93	H	0.090219	0.380603	0.098078
	H94	H	0.910063	0.613333	0.103172
	H95	H	0.908660	0.381184	0.904129
	H96	H	0.413168	0.113636	0.600200
	H97	H	0.596495	0.881447	0.596337
	H98	H	0.590253	0.110773	0.411130
	H99	H	0.404865	0.882134	0.408897
	H100	H	0.584450	0.405870	0.116774
	H101	H	0.596959	0.587882	0.883656
	H102	H	0.403800	0.581505	0.117373
	H103	H	0.401832	0.403792	0.886066
	H104	H	0.112433	0.591642	0.418135
	H105	H	0.884270	0.589174	0.594274
	H106	H	0.115224	0.405462	0.597616
	H107	H	0.881278	0.403690	0.411204
	H108	H	0.912586	0.606746	0.086539
	H109	H	0.083057	0.383682	0.096233
	H110	H	0.085316	0.611841	0.906824
	H111	H	0.908435	0.384909	0.914870
	H112	H	0.095454	0.906747	0.621667
	H113	H	0.090829	0.086247	0.388903
	H114	H	0.909457	0.085377	0.617326
	H115	H	0.901515	0.901486	0.384244
	H116	H	0.613285	0.084259	0.912032
	H117	H	0.386457	0.083766	0.088695
	H118	H	0.613751	0.903476	0.090442
	H119	H	0.385509	0.909159	0.909087
	C120	C	0.379239	0.005940	0.624211
	C121	C	0.623414	0.989087	0.625607
	C122	C	0.621369	0.004633	0.381709
	C123	C	0.377593	0.989735	0.381559
	C124	C	0.618661	0.374356	0.011130
	C125	C	0.619009	0.616950	0.993968
	C126	C	0.377552	0.615268	0.010033
	C127	C	0.375541	0.372049	0.993944
	C128	C	0.006499	0.620741	0.382974
	C129	C	0.989792	0.622187	0.626536
	C130	C	0.006305	0.377909	0.625025
	C131	C	0.990456	0.377763	0.382618
	C132	C	0.876101	0.505385	0.124822
	C133	C	0.119680	0.488873	0.125215
	C134	C	0.118924	0.504385	0.882533
	C135	C	0.875337	0.488834	0.881030
	C136	C	0.120641	0.877933	0.512536
	C137	C	0.121072	0.120989	0.495332
	C138	C	0.878388	0.120039	0.511695
	C139	C	0.879009	0.877523	0.495054
	C140	C	0.507144	0.116322	0.882004
	C141	C	0.490573	0.116747	0.123495
	C142	C	0.507198	0.873553	0.123627
	C143	C	0.490331	0.872858	0.879629
	C144	C	0.380773	0.883432	0.678181
	C145	C	0.622036	0.110377	0.683315
	C146	C	0.621925	0.883738	0.323241
	C147	C	0.377988	0.109674	0.321851
	C148	C	0.676082	0.374642	0.888797
	C149	C	0.676406	0.616907	0.116382
	C150	C	0.320767	0.612961	0.887683
	C151	C	0.318387	0.372196	0.115920
	C152	C	0.885532	0.678164	0.382466
	C153	C	0.111809	0.678733	0.627220
	C154	C	0.885964	0.317956	0.625931
	C155	C	0.111167	0.319665	0.381292
	C156	C	0.884184	0.378628	0.680798
	C157	C	0.111445	0.620292	0.683939
	C158	C	0.885304	0.620663	0.324415
	C159	C	0.111280	0.377623	0.323992
	C160	C	0.376644	0.672140	0.888109
	C161	C	0.620177	0.675534	0.115521
	C162	C	0.617963	0.317450	0.888640
	C163	C	0.375947	0.314973	0.115952
	C164	C	0.679459	0.884061	0.381830
	C165	C	0.679299	0.111169	0.624878
	C166	C	0.319285	0.885948	0.624407
	C167	C	0.320454	0.110593	0.380012
	C168	C	0.875947	0.385134	0.184022
	C169	C	0.120397	0.610697	0.181733
	C170	C	0.115734	0.383413	0.824480
	C171	C	0.876759	0.610801	0.826081
	C172	C	0.176935	0.878828	0.389929
	C173	C	0.179689	0.121998	0.616965
	C174	C	0.820104	0.119608	0.389868
	C175	C	0.823586	0.879697	0.618000
	C176	C	0.385381	0.172410	0.880196
	C177	C	0.611118	0.176251	0.124997
	C178	C	0.385471	0.816027	0.123183
	C179	C	0.612386	0.817356	0.882049
	C180	C	0.385969	0.873316	0.181754
	C181	C	0.612274	0.117004	0.181191
	C182	C	0.385429	0.113297	0.824540
	C183	C	0.613324	0.876067	0.825518
	C184	C	0.876655	0.178123	0.390065
	C185	C	0.121666	0.179232	0.616932
	C186	C	0.120863	0.819419	0.390824
	C187	C	0.880138	0.821938	0.618068
	C188	C	0.173867	0.382450	0.882085
	C189	C	0.179774	0.609125	0.125026
	C190	C	0.818466	0.383814	0.125216
	C191	C	0.818368	0.609830	0.882860
	C192	C	0.403092	0.090758	0.601697
	C193	C	0.600828	0.904383	0.601946
	C194	C	0.597595	0.088492	0.405544
	C195	C	0.400906	0.905765	0.406188
	C196	C	0.595241	0.397535	0.096037
	C197	C	0.595127	0.593169	0.909011
	C198	C	0.401646	0.592178	0.095190
	C199	C	0.398707	0.395112	0.908800
	C200	C	0.090983	0.597043	0.407096
	C201	C	0.904544	0.599760	0.603012
	C202	C	0.091191	0.402216	0.601485
	C203	C	0.906391	0.401930	0.407772
	C204	C	0.899619	0.589343	0.100644
	C205	C	0.094881	0.404755	0.101782
	C206	C	0.097024	0.589014	0.906948
	C207	C	0.898517	0.404041	0.903377
	C208	C	0.097210	0.901532	0.597439
	C209	C	0.096959	0.096698	0.410408
	C210	C	0.902963	0.096416	0.596596
	C211	C	0.902230	0.899909	0.409993
	C212	C	0.591892	0.093765	0.906460
	C213	C	0.406455	0.091855	0.099039
	C214	C	0.591812	0.897261	0.099659
	C215	C	0.404903	0.894884	0.901675
	Zn216	Zn	0.500591	-0.004019	0.752978
	Zn217	Zn	0.499297	-0.004081	0.252406
	Zn218	Zn	0.747247	0.495979	0.002499
	Zn219	Zn	0.248640	0.494580	0.002889
	Zn220	Zn	-0.000866	0.749447	0.504473
	Zn221	Zn	-0.000788	0.248754	0.503500
	Zn222	Zn	-0.002718	0.498807	0.753379
	Zn223	Zn	-0.002196	0.498999	0.254509
	Zn224	Zn	0.498224	0.744858	0.001481
	Zn225	Zn	0.497505	0.245354	0.002260
	Zn226	Zn	0.750829	-0.001902	0.503481
	Zn227	Zn	0.249434	-0.000320	0.503635
	N228	N	0.417511	0.959125	0.678157
	N229	N	0.588172	0.033336	0.684166
	N230	N	0.586530	0.959668	0.322984
	N231	N	0.413122	0.033597	0.322986
	N232	N	0.676609	0.409437	0.965921
	N233	N	0.675857	0.581175	0.039773
	N234	N	0.321147	0.578251	0.964598
	N235	N	0.317928	0.406918	0.039016
	N236	N	0.961927	0.678223	0.418006
	N237	N	0.035178	0.679849	0.592044
	N238	N	0.962991	0.317602	0.591781
	N239	N	0.035015	0.319552	0.416987
	N240	N	0.960065	0.415249	0.680030
	N241	N	0.034480	0.586164	0.683955
	N242	N	0.961796	0.585587	0.324440
	N243	N	0.035117	0.413061	0.324822
	N244	N	0.411238	0.673691	0.965277
	N245	N	0.585227	0.675744	0.038434
	N246	N	0.582952	0.317053	0.965529
	N247	N	0.410577	0.314616	0.039021
	N248	N	0.679110	0.960150	0.417474
	N249	N	0.680099	0.034980	0.589609
	N250	N	0.318263	0.963142	0.591631
	N251	N	0.320177	0.034998	0.416537
	N252	N	0.910994	0.461576	0.183846
	N253	N	0.083726	0.535064	0.181975
	N254	N	0.082438	0.460437	0.824540
	N255	N	0.911593	0.534580	0.825124
	N256	N	0.176912	0.914497	0.466480
	N257	N	0.179519	0.086651	0.540138
	N258	N	0.821243	0.084123	0.466477
	N259	N	0.822601	0.913582	0.540810
	N260	N	0.462181	0.174416	0.915193
	N261	N	0.534431	0.176358	0.090060
	N262	N	0.461888	0.815812	0.087911
	N263	N	0.534869	0.815146	0.914891
	N264	N	0.462742	0.908185	0.182194
	N265	N	0.536283	0.080620	0.180243
	N266	N	0.462156	0.079047	0.825525
	N267	N	0.536345	0.909619	0.823814
	N268	N	0.912201	0.178453	0.466879
	N269	N	0.085845	0.178543	0.540330
	N270	N	0.086604	0.818767	0.468033
	N271	N	0.914056	0.820400	0.540639
	N272	N	0.175805	0.458511	0.917531
	N273	N	0.179659	0.532281	0.090739
	N274	N	0.818477	0.459530	0.089040
	N275	N	0.817312	0.532853	0.916140
	O276	O	0.099264	0.058609	-0.138185
	H277	H	0.103429	0.061776	-0.130718
	H278	H	0.105545	0.056562	-0.131248
	O279	O	0.439263	0.678884	0.467842
	H280	H	0.438527	0.676996	0.461590
	H281	H	0.415696	0.684716	0.477632
	O282	O	2.032473	1.152550	1.008061
	H283	H	2.039876	1.154809	1.004699
	H284	H	2.018854	1.158341	1.009109
	O285	O	-0.319926	0.525773	0.591402
	H286	H	-0.308836	0.528944	0.592789
	H287	H	-0.322188	0.527343	0.580131
	O288	O	0.393450	0.447209	0.566461
	H289	H	0.391699	0.444553	0.569791
	H290	H	0.405163	0.453720	0.564381
	O291	O	0.607528	0.325907	0.401652
	H292	H	0.620354	0.328327	0.417373
	H293	H	0.607337	0.331665	0.391816
	O294	O	1.046316	0.890825	0.852370
	H295	H	1.059304	0.884972	0.842513
	H296	H	1.030021	0.886633	0.850577
	O297	O	0.087922	-0.006324	-0.046840
	H298	H	0.091382	-0.005215	-0.044464
	H299	H	0.081916	-0.004673	-0.041843
	O300	O	0.552921	0.608615	0.631878
	H301	H	0.555927	0.610874	0.634587
	H302	H	0.563634	0.606776	0.634552
	O303	O	-0.084694	0.916077	0.952637
	H304	H	-0.071306	0.922679	0.953518
	H305	H	-0.092570	0.916807	0.957567
	O306	O	0.316340	0.542871	0.317166
	H307	H	0.325305	0.565841	0.317071
	H308	H	0.299760	0.537686	0.293772
	O309	O	1.550210	0.634476	-0.602002
	H310	H	1.550483	0.638973	-0.612870
	H311	H	1.558922	0.633710	-0.601390
	O312	O	0.009228	0.028560	1.185317
	H313	H	0.014936	0.027616	1.199154
	H314	H	-0.007613	0.027147	1.168611
	O315	O	-0.041115	1.082827	-0.017540
	H316	H	-0.040313	1.083805	-0.023460
	H317	H	-0.051254	1.074489	-0.023567
	O318	O	0.421331	0.574134	0.508790
	H319	H	0.400837	0.574458	0.505153
	H320	H	0.418212	0.569059	0.511877
	O321	O	0.541309	0.496198	0.366106
	H322	H	0.540537	0.504000	0.370619
	H323	H	0.544340	0.487386	0.364523
	O324	O	0.621915	0.380163	0.505103
	H325	H	0.626649	0.391432	0.516738
	H326	H	0.625593	0.381338	0.501920
	O327	O	0.619470	0.469330	0.615506
	H328	H	0.625156	0.468655	0.610681
	H329	H	0.609224	0.480713	0.627376
	O330	O	0.600877	0.578343	0.469435
	H331	H	0.602403	0.575167	0.464931
	H332	H	0.592084	0.575955	0.480091
	O333	O	0.086158	0.925419	1.096669
	H334	H	0.085179	0.933865	1.096266
	H335	H	0.093722	0.929091	1.095603
	O336	O	1.015544	1.051911	1.088687
	H337	H	1.017794	1.062688	1.078629
	H338	H	1.022375	1.049629	1.100295
	O339	O	0.323802	0.481140	0.549262
	H340	H	0.329023	0.464233	0.544410
	H341	H	0.322980	0.481818	0.563724
	O342	O	0.926913	0.077057	-0.071298
	H343	H	0.933576	0.081790	-0.071742
	H344	H	0.924601	0.081020	-0.065179
	O345	O	0.368426	0.393516	0.553879
	H346	H	0.369958	0.397826	0.544573
	H347	H	0.362436	0.383101	0.549203
	O348	O	1.020439	0.933989	0.920837
	H349	H	1.019919	0.954828	0.928129
	H350	H	1.018841	0.924007	0.932026
	O351	O	0.908535	0.912619	0.074975
	H352	H	0.894166	0.920488	0.078086
	H353	H	0.923203	0.889292	0.058004
	O354	O	0.536403	0.665010	0.594852
	H355	H	0.536158	0.665620	0.601791
	H356	H	0.540692	0.670880	0.593904
	O357	O	-0.026659	0.036681	0.098416
	H358	H	-0.014143	0.035563	0.097603
	H359	H	-0.031265	0.015135	0.103027
	O360	O	-0.044224	0.174489	0.000780
	H361	H	-0.052940	0.164220	-0.003452
	H362	H	-0.045548	0.164287	0.002964
	O363	O	0.621425	0.465592	0.477876
	H364	H	0.626495	0.456509	0.472639
	H365	H	0.611882	0.440211	0.477042
	O366	O	0.053059	-0.018247	-0.054496
	H367	H	0.039485	-0.015467	-0.067168
	H368	H	0.044683	-0.016614	-0.054711
	O369	O	0.371472	0.675570	0.343838
	H370	H	0.372262	0.685978	0.342862
	H371	H	0.377101	0.685246	0.350533
	O372	O	0.553321	0.422461	0.439543
	H373	H	0.562641	0.419703	0.431931
	H374	H	0.556355	0.420465	0.431448
	O375	O	0.363903	0.435731	0.661320
	H376	H	0.378856	0.410910	0.659398
	H377	H	0.358002	0.431323	0.679414
	O378	O	0.445388	0.400795	0.438596
	H379	H	0.435395	0.407364	0.437117
	H380	H	0.446651	0.408010	0.441190
	O381	O	0.455632	0.502720	0.335238
	H382	H	0.451368	0.505642	0.337536
	H383	H	0.449990	0.494043	0.329128
	O384	O	0.065177	1.069284	-0.071840
	H385	H	0.070883	1.058264	-0.055228
	H386	H	0.073614	1.082419	-0.069145
	O387	O	0.955466	-0.025963	1.051075
	H388	H	0.970988	-0.019007	1.068273
	H389	H	0.944792	-0.028369	1.050919
	O390	O	-0.066992	0.883130	0.086194
	H391	H	-0.059449	0.868749	0.087273
	H392	H	-0.053805	0.879665	0.064653
	O393	O	0.946606	0.826857	0.075444
	H394	H	0.952686	0.827331	0.058013
	H395	H	0.939116	0.822279	0.070584
	O396	O	0.547574	0.422676	0.630241
	H397	H	0.539514	0.420448	0.632742
	H398	H	0.563843	0.428232	0.622221
	O399	O	0.142746	1.037234	1.043439
	H400	H	0.145600	1.043638	1.042967
	H401	H	0.125160	1.046173	1.051116
	O402	O	1.002834	1.017401	1.008551
	H403	H	1.010009	1.031733	1.004944
	H404	H	1.001817	1.023231	1.010074
	O405	O	0.371764	0.351046	0.612352
	H406	H	0.392476	0.353424	0.604076
	H407	H	0.360000	0.342639	0.600222
