data_Molecule from HDF5

_cell_length_a		16.356521
_cell_length_b		16.346039
_cell_length_c		16.230915
_cell_angle_alpha	90.008002
_cell_angle_beta	90.047374
_cell_angle_gamma	90.097130
_symmetry_space_group_name_H-M	'P 1'
_symmetry_Int_Tables_number		1

loop_
	_symmetry_equiv_pos_as_xyz
	x,y,z

loop_
	_atom_site_label
	_atom_site_type_symbol
	_atom_site_fract_x
	_atom_site_fract_y
	_atom_site_fract_z
	H0	H	0.403252	0.838642	0.706184
	H1	H	0.599147	0.164229	0.706703
	H2	H	0.599170	0.838765	0.276806
	H3	H	0.404060	0.165693	0.277846
	H4	H	0.714481	0.404222	0.828265
	H5	H	0.717338	0.601580	0.156264
	H6	H	0.287328	0.600624	0.827957
	H7	H	0.284568	0.401082	0.155490
	H8	H	0.838103	0.716698	0.394033
	H9	H	0.163628	0.718590	0.592597
	H10	H	0.839192	0.285348	0.592257
	H11	H	0.164061	0.286315	0.392259
	H12	H	0.837712	0.405458	0.705028
	H13	H	0.164202	0.599798	0.706845
	H14	H	0.838394	0.600123	0.277717
	H15	H	0.164060	0.404143	0.277414
	H16	H	0.403431	0.715824	0.828276
	H17	H	0.601667	0.717780	0.155524
	H18	H	0.600717	0.286662	0.829255
	H19	H	0.402381	0.287610	0.156548
	H20	H	0.716516	0.838837	0.392546
	H21	H	0.717019	0.163991	0.591402
	H22	H	0.283954	0.840492	0.593390
	H23	H	0.286422	0.165010	0.392659
	H24	H	0.904102	0.338939	0.206305
	H25	H	0.100312	0.665437	0.207863
	H26	H	0.098746	0.338945	0.777928
	H27	H	0.903206	0.665053	0.778029
	H28	H	0.215649	0.902930	0.328091
	H29	H	0.215906	0.100396	0.656018
	H30	H	0.786894	0.100928	0.328385
	H31	H	0.787039	0.902744	0.655963
	H32	H	0.338517	0.217857	0.892556
	H33	H	0.662988	0.218513	0.092980
	H34	H	0.339077	0.784737	0.093003
	H35	H	0.663996	0.787598	0.892424
	H36	H	0.337513	0.904753	0.205891
	H37	H	0.664580	0.100710	0.206361
	H38	H	0.338195	0.099848	0.777336
	H39	H	0.663961	0.905155	0.778385
	H40	H	0.903284	0.216046	0.328402
	H41	H	0.100636	0.216068	0.656046
	H42	H	0.100086	0.786768	0.328387
	H43	H	0.901820	0.787939	0.655859
	H44	H	0.215831	0.338584	0.892846
	H45	H	0.219262	0.664169	0.094282
	H46	H	0.785087	0.339521	0.092782
	H47	H	0.785983	0.664367	0.892455
	H48	H	0.407896	0.118083	0.585296
	H49	H	0.594889	0.885610	0.584553
	H50	H	0.595918	0.117186	0.401884
	H51	H	0.397103	0.884745	0.403256
	H52	H	0.595614	0.415202	0.108366
	H53	H	0.603881	0.595457	0.873099
	H54	H	0.405859	0.588755	0.108029
	H55	H	0.414730	0.411919	0.878370
	H56	H	0.115939	0.591001	0.398932
	H57	H	0.885063	0.588949	0.591136
	H58	H	0.118455	0.407913	0.588022
	H59	H	0.885715	0.407458	0.402713
	H60	H	0.117968	0.406821	0.584035
	H61	H	0.882286	0.603361	0.587525
	H62	H	0.118848	0.598421	0.397024
	H63	H	0.886977	0.410435	0.400209
	H64	H	0.416117	0.590639	0.106149
	H65	H	0.591459	0.586729	0.879435
	H66	H	0.589168	0.407823	0.108530
	H67	H	0.407820	0.401376	0.873929
	H68	H	0.597649	0.119007	0.398271
	H69	H	0.594503	0.885793	0.585002
	H70	H	0.409529	0.118498	0.584898
	H71	H	0.410560	0.884007	0.389058
	H72	H	0.914105	0.618427	0.093670
	H73	H	0.096313	0.386367	0.085653
	H74	H	0.096820	0.616904	0.902225
	H75	H	0.906730	0.384911	0.895253
	H76	H	0.096185	0.905652	0.611040
	H77	H	0.099258	0.087591	0.376021
	H78	H	0.907461	0.095223	0.609313
	H79	H	0.910500	0.904663	0.374488
	H80	H	0.615680	0.100321	0.906996
	H81	H	0.387081	0.093559	0.079911
	H82	H	0.617608	0.912425	0.090304
	H83	H	0.383143	0.912436	0.888456
	H84	H	0.618662	0.902563	0.083971
	H85	H	0.385183	0.091852	0.089481
	H86	H	0.614146	0.088260	0.901466
	H87	H	0.382433	0.896175	0.902012
	H88	H	0.908565	0.091175	0.607840
	H89	H	0.085979	0.095186	0.377997
	H90	H	0.097520	0.913976	0.607563
	H91	H	0.903151	0.910862	0.373725
	H92	H	0.096717	0.618727	0.897331
	H93	H	0.090457	0.387717	0.085988
	H94	H	0.912047	0.613852	0.075188
	H95	H	0.909489	0.386897	0.900654
	H96	H	0.408376	0.116877	0.584018
	H97	H	0.594244	0.885453	0.584393
	H98	H	0.593421	0.117555	0.398551
	H99	H	0.415442	0.891021	0.406461
	H100	H	0.598068	0.406179	0.110942
	H101	H	0.589059	0.602108	0.875437
	H102	H	0.409287	0.598685	0.110038
	H103	H	0.402240	0.413768	0.875283
	H104	H	0.115546	0.596764	0.404614
	H105	H	0.888278	0.594102	0.577466
	H106	H	0.117069	0.410449	0.585151
	H107	H	0.884891	0.407086	0.398882
	H108	H	0.897491	0.621452	0.084799
	H109	H	0.093254	0.388594	0.080855
	H110	H	0.092428	0.617407	0.899573
	H111	H	0.903891	0.384754	0.901052
	H112	H	0.088968	0.909972	0.607426
	H113	H	0.098680	0.102799	0.371424
	H114	H	0.912435	0.094781	0.608423
	H115	H	0.911437	0.913924	0.377332
	H116	H	0.619594	0.098362	0.893647
	H117	H	0.383480	0.100829	0.085417
	H118	H	0.613739	0.912003	0.079277
	H119	H	0.390476	0.914869	0.908567
	C120	C	0.379813	0.010485	0.613915
	C121	C	0.623395	0.992933	0.613895
	C122	C	0.623319	0.009932	0.370587
	C123	C	0.379570	0.994066	0.370547
	C124	C	0.622761	0.380951	0.001016
	C125	C	0.623871	0.624099	0.983669
	C126	C	0.381021	0.622401	0.000507
	C127	C	0.379550	0.380382	0.984140
	C128	C	0.009514	0.623851	0.371081
	C129	C	0.992826	0.624061	0.613904
	C130	C	0.009829	0.379804	0.614379
	C131	C	0.993125	0.380095	0.370980
	C132	C	0.879416	0.510445	0.113785
	C133	C	0.122888	0.494557	0.113907
	C134	C	0.123295	0.510009	0.870713
	C135	C	0.879061	0.493603	0.870978
	C136	C	0.122865	0.880804	0.500436
	C137	C	0.123316	0.123548	0.483575
	C138	C	0.880519	0.123042	0.500410
	C139	C	0.879834	0.880974	0.483805
	C140	C	0.508907	0.123856	0.871090
	C141	C	0.492625	0.123986	0.114103
	C142	C	0.509308	0.880030	0.113824
	C143	C	0.493069	0.880117	0.870684
	C144	C	0.382069	0.887824	0.669265
	C145	C	0.620094	0.115603	0.668822
	C146	C	0.620084	0.887445	0.314721
	C147	C	0.383021	0.116941	0.315567
	C148	C	0.677291	0.383303	0.877475
	C149	C	0.678893	0.621523	0.107376
	C150	C	0.325048	0.621175	0.877030
	C151	C	0.323595	0.381812	0.107006
	C152	C	0.886964	0.679268	0.372861
	C153	C	0.115111	0.680010	0.612333
	C154	C	0.887563	0.323956	0.612424
	C155	C	0.115559	0.324710	0.372162
	C156	C	0.886850	0.383583	0.668464
	C157	C	0.115476	0.621206	0.669291
	C158	C	0.886875	0.621154	0.315514
	C159	C	0.115552	0.383040	0.315149
	C160	C	0.383035	0.678064	0.877194
	C161	C	0.621812	0.679527	0.106898
	C162	C	0.620586	0.325104	0.877985
	C163	C	0.381907	0.325311	0.107612
	C164	C	0.678395	0.887405	0.372122
	C165	C	0.678811	0.115573	0.611876
	C166	C	0.323406	0.888424	0.612413
	C167	C	0.324567	0.116613	0.372394
	C168	C	0.882559	0.387748	0.169111
	C169	C	0.121116	0.616628	0.170029
	C170	C	0.119478	0.387450	0.815929
	C171	C	0.882333	0.616215	0.815741
	C172	C	0.177656	0.882867	0.377072
	C173	C	0.178313	0.121048	0.606965
	C174	C	0.825038	0.121115	0.377329
	C175	C	0.824993	0.883012	0.607030
	C176	C	0.386916	0.179675	0.872466
	C177	C	0.614853	0.179978	0.112919
	C178	C	0.387569	0.823321	0.112871
	C179	C	0.615228	0.825199	0.872371
	C180	C	0.386832	0.882547	0.169366
	C181	C	0.615483	0.121282	0.169320
	C182	C	0.386820	0.120814	0.815346
	C183	C	0.615350	0.883743	0.815842
	C184	C	0.882781	0.178475	0.377497
	C185	C	0.121067	0.178614	0.606947
	C186	C	0.120584	0.824743	0.377418
	C187	C	0.882376	0.826023	0.606939
	C188	C	0.178148	0.387506	0.872842
	C189	C	0.180249	0.616093	0.113438
	C190	C	0.823641	0.387997	0.112463
	C191	C	0.824116	0.615915	0.872761
	C192	C	0.402143	0.095918	0.591359
	C193	C	0.601270	0.907633	0.591159
	C194	C	0.601984	0.095692	0.392975
	C195	C	0.401256	0.908698	0.393093
	C196	C	0.600695	0.403229	0.087007
	C197	C	0.601509	0.601392	0.898031
	C198	C	0.403777	0.599383	0.085909
	C199	C	0.401739	0.402431	0.898147
	C200	C	0.094675	0.601892	0.393619
	C201	C	0.907418	0.602045	0.591935
	C202	C	0.095614	0.401848	0.592321
	C203	C	0.907858	0.402014	0.393800
	C204	C	0.901296	0.595891	0.091115
	C205	C	0.100086	0.409513	0.090802
	C206	C	0.101692	0.595779	0.893229
	C207	C	0.900437	0.407813	0.892686
	C208	C	0.100758	0.903189	0.586554
	C209	C	0.101238	0.101528	0.397401
	C210	C	0.902837	0.100368	0.586290
	C211	C	0.901907	0.903294	0.397611
	C212	C	0.594387	0.102065	0.893827
	C213	C	0.407332	0.101891	0.091591
	C214	C	0.594645	0.902421	0.091371
	C215	C	0.407349	0.901468	0.893259
	Zn216	Zn	0.501216	0.001495	0.742433
	Zn217	Zn	0.501047	0.002404	0.242000
	Zn218	Zn	0.750786	0.501838	-0.007538
	Zn219	Zn	0.251940	0.502052	-0.007845
	Zn220	Zn	0.000663	0.752903	0.492104
	Zn221	Zn	0.001940	0.251762	0.492267
	Zn222	Zn	0.001169	0.501738	0.742665
	Zn223	Zn	0.000915	0.502300	0.242820
	Zn224	Zn	0.501766	0.751168	-0.007989
	Zn225	Zn	0.501143	0.252761	-0.007116
	Zn226	Zn	0.751899	0.001421	0.492154
	Zn227	Zn	0.251237	0.002125	0.491796
	N228	N	0.416535	0.964574	0.670052
	N229	N	0.586520	0.038419	0.670242
	N230	N	0.586361	0.964651	0.313780
	N231	N	0.416417	0.039736	0.314050
	N232	N	0.678721	0.417365	0.954907
	N233	N	0.680381	0.587910	0.029683
	N234	N	0.323569	0.587079	0.954660
	N235	N	0.322215	0.415512	0.029385
	N236	N	0.964016	0.681023	0.406748
	N237	N	0.037936	0.682015	0.578677
	N238	N	0.965116	0.321450	0.579625
	N239	N	0.038529	0.322646	0.406097
	N240	N	0.963834	0.417553	0.669646
	N241	N	0.038565	0.586852	0.670272
	N242	N	0.964005	0.587726	0.314118
	N243	N	0.038484	0.417017	0.314409
	N244	N	0.416850	0.678991	0.954837
	N245	N	0.588093	0.681035	0.029274
	N246	N	0.587303	0.323534	0.955866
	N247	N	0.416067	0.324255	0.030174
	N248	N	0.680403	0.964524	0.406129
	N249	N	0.680892	0.038236	0.578326
	N250	N	0.321639	0.965683	0.578877
	N251	N	0.322515	0.039345	0.405999
	N252	N	0.916563	0.464904	0.170192
	N253	N	0.086103	0.540066	0.170441
	N254	N	0.086193	0.464688	0.814588
	N255	N	0.916009	0.539095	0.814441
	N256	N	0.179220	0.916875	0.454655
	N257	N	0.179830	0.087480	0.529227
	N258	N	0.823637	0.087011	0.454767
	N259	N	0.823485	0.916656	0.529471
	N260	N	0.463924	0.181657	0.906431
	N261	N	0.537604	0.181708	0.079185
	N262	N	0.464742	0.821677	0.079104
	N263	N	0.538029	0.822902	0.905819
	N264	N	0.463455	0.917410	0.169806
	N265	N	0.538497	0.087173	0.170100
	N266	N	0.463816	0.086912	0.814414
	N267	N	0.538330	0.917293	0.814713
	N268	N	0.916636	0.179709	0.455156
	N269	N	0.087580	0.180270	0.529254
	N270	N	0.087413	0.823189	0.455264
	N271	N	0.915929	0.824869	0.529200
	N272	N	0.180345	0.464912	0.906318
	N273	N	0.181301	0.539103	0.079108
	N274	N	0.821870	0.465150	0.078869
	N275	N	0.821938	0.538685	0.906246
	O276	O	1.928564	0.014976	0.972380
	H277	H	1.928942	0.014358	0.979016
	H278	H	1.926001	0.018288	0.967779
	O279	O	0.049940	0.003695	0.017746
	H280	H	0.055197	0.001385	0.015829
	H281	H	0.044780	0.019831	0.024696
	O282	O	0.029668	0.013708	0.953697
	H283	H	0.026672	0.016489	0.955703
	H284	H	0.019545	0.007432	0.960553
	O285	O	0.441784	0.519543	0.463042
	H286	H	0.439164	0.518617	0.465892
	H287	H	0.442194	0.527089	0.470251
	O288	O	0.427979	0.501597	0.474010
	H289	H	0.421389	0.490641	0.480150
	H290	H	0.424173	0.507452	0.478259
	O291	O	-0.056582	0.960141	1.006787
	H292	H	-0.055285	0.959672	1.005905
	H293	H	-0.057146	0.953430	1.004643
	O294	O	0.011088	-0.059428	0.010625
	H295	H	0.017744	-0.055758	0.011590
	H296	H	0.010401	-0.065723	0.009954
	O297	O	0.423034	0.487234	0.438294
	H298	H	0.431783	0.486605	0.442283
	H299	H	0.420173	0.482789	0.439122
	O300	O	-0.037897	0.986360	0.949258
	H301	H	-0.037516	0.986098	0.947236
	H302	H	-0.038877	0.985514	0.950921
	O303	O	0.416888	0.518641	0.420508
	H304	H	0.420796	0.514649	0.418487
	H305	H	0.418916	0.518203	0.425324
	O306	O	0.023252	-0.011644	0.980524
	H307	H	0.031966	0.002341	0.984080
	H308	H	0.023199	-0.008964	0.968438
	O309	O	1.028290	1.015750	1.006750
	H310	H	1.022334	1.017753	1.003921
	H311	H	1.022793	1.020488	1.001834
	O312	O	0.454875	0.486985	0.503412
	H313	H	0.450882	0.489912	0.500239
	H314	H	0.454136	0.490009	0.498941
	O315	O	0.418093	0.495367	0.435868
	H316	H	0.415775	0.506526	0.423926
	H317	H	0.412715	0.492315	0.425537
	O318	O	-0.084824	0.981707	-0.014898
	H319	H	-0.084426	0.981087	-0.013727
	H320	H	-0.091394	0.972733	-0.031529
	O321	O	0.980615	0.926213	-0.004143
	H322	H	0.989586	0.919177	0.000497
	H323	H	0.988214	0.918539	-0.006650
