data_Molecule from HDF5

_cell_length_a		16.557299
_cell_length_b		16.606525
_cell_length_c		16.522408
_cell_angle_alpha	89.935685
_cell_angle_beta	89.894066
_cell_angle_gamma	90.094003
_symmetry_space_group_name_H-M	'P 1'
_symmetry_Int_Tables_number		1

loop_
	_symmetry_equiv_pos_as_xyz
	x,y,z

loop_
	_atom_site_label
	_atom_site_type_symbol
	_atom_site_fract_x
	_atom_site_fract_y
	_atom_site_fract_z
	H0	H	0.389544	0.856901	0.721372
	H1	H	0.595780	0.170689	0.721051
	H2	H	0.597244	0.857092	0.280764
	H3	H	0.389289	0.170060	0.281098
	H4	H	0.716549	0.406905	0.846992
	H5	H	0.711371	0.616789	0.162040
	H6	H	0.275092	0.616385	0.844246
	H7	H	0.270976	0.409287	0.158381
	H8	H	0.835301	0.734752	0.396879
	H9	H	0.149099	0.734236	0.606426
	H10	H	0.835455	0.293068	0.605407
	H11	H	0.149920	0.293494	0.397202
	H12	H	0.834802	0.409481	0.721612
	H13	H	0.149125	0.618076	0.723482
	H14	H	0.833860	0.615725	0.283990
	H15	H	0.149166	0.410888	0.281543
	H16	H	0.393273	0.731111	0.844096
	H17	H	0.596530	0.733930	0.161075
	H18	H	0.604014	0.287262	0.848712
	H19	H	0.386642	0.291998	0.158415
	H20	H	0.714004	0.857109	0.396794
	H21	H	0.713377	0.170039	0.605032
	H22	H	0.272979	0.856693	0.605759
	H23	H	0.269897	0.168094	0.394858
	H24	H	0.887012	0.357541	0.224662
	H25	H	0.096371	0.670571	0.223198
	H26	H	0.097517	0.355678	0.782090
	H27	H	0.888256	0.669075	0.780238
	H28	H	0.216268	0.907307	0.345786
	H29	H	0.214324	0.118205	0.660070
	H30	H	0.772529	0.118489	0.345122
	H31	H	0.773065	0.909415	0.660142
	H32	H	0.336284	0.239299	0.893470
	H33	H	0.646867	0.238066	0.108438
	H34	H	0.334690	0.793005	0.108534
	H35	H	0.648025	0.792778	0.896580
	H36	H	0.335015	0.909882	0.223158
	H37	H	0.648288	0.119596	0.223342
	H38	H	0.335515	0.122337	0.778288
	H39	H	0.648162	0.910061	0.780548
	H40	H	0.889077	0.233682	0.344860
	H41	H	0.100644	0.236363	0.658963
	H42	H	0.100691	0.790490	0.345692
	H43	H	0.888546	0.793105	0.659889
	H44	H	0.216562	0.357931	0.895250
	H45	H	0.213732	0.670853	0.107628
	H46	H	0.769708	0.358023	0.108988
	H47	H	0.773576	0.670798	0.898957
	H48	H	0.403486	0.126823	0.592113
	H49	H	0.582163	0.902836	0.588209
	H50	H	0.582599	0.127174	0.407483
	H51	H	0.404286	0.901495	0.412683
	H52	H	0.584512	0.433215	0.113892
	H53	H	0.582281	0.603991	0.891849
	H54	H	0.399404	0.606429	0.117506
	H55	H	0.401427	0.430308	0.890625
	H56	H	0.102800	0.599687	0.416820
	H57	H	0.883484	0.591953	0.591818
	H58	H	0.106845	0.422038	0.592664
	H59	H	0.878826	0.421668	0.410844
	H60	H	0.104460	0.423371	0.589235
	H61	H	0.876513	0.606966	0.599444
	H62	H	0.104262	0.600805	0.408782
	H63	H	0.879907	0.419470	0.416289
	H64	H	0.401597	0.601803	0.116065
	H65	H	0.583261	0.607371	0.889879
	H66	H	0.570972	0.427161	0.110222
	H67	H	0.410259	0.428836	0.892794
	H68	H	0.577503	0.122924	0.415913
	H69	H	0.585609	0.900260	0.593592
	H70	H	0.404658	0.125069	0.589605
	H71	H	0.405760	0.902074	0.413782
	H72	H	0.899212	0.627257	0.094178
	H73	H	0.082186	0.403915	0.086026
	H74	H	0.082498	0.624427	0.913759
	H75	H	0.903268	0.402521	0.916581
	H76	H	0.083008	0.920694	0.615457
	H77	H	0.080201	0.101606	0.391870
	H78	H	0.900600	0.106954	0.616883
	H79	H	0.899685	0.924123	0.388072
	H80	H	0.599527	0.100481	0.919520
	H81	H	0.377471	0.108825	0.091588
	H82	H	0.605111	0.917698	0.086347
	H83	H	0.381690	0.929358	0.912419
	H84	H	0.601371	0.930670	0.090074
	H85	H	0.383667	0.099934	0.082288
	H86	H	0.601446	0.097996	0.910156
	H87	H	0.377174	0.921664	0.909666
	H88	H	0.901120	0.097464	0.614098
	H89	H	0.081089	0.102683	0.391036
	H90	H	0.083372	0.926577	0.613411
	H91	H	0.905086	0.926616	0.391102
	H92	H	0.083111	0.625042	0.911067
	H93	H	0.085949	0.400172	0.093662
	H94	H	0.905183	0.624852	0.094403
	H95	H	0.901366	0.400371	0.913004
	H96	H	0.401260	0.126578	0.589512
	H97	H	0.578608	0.901493	0.593659
	H98	H	0.588139	0.125621	0.416494
	H99	H	0.403708	0.901818	0.414234
	H100	H	0.581485	0.418890	0.116762
	H101	H	0.585748	0.604278	0.890303
	H102	H	0.404550	0.606377	0.115905
	H103	H	0.405070	0.421855	0.888744
	H104	H	0.105356	0.607431	0.413722
	H105	H	0.881721	0.607578	0.581852
	H106	H	0.104903	0.426056	0.592397
	H107	H	0.881245	0.425384	0.415162
	H108	H	0.901551	0.624645	0.089347
	H109	H	0.077184	0.403403	0.093455
	H110	H	0.080582	0.623865	0.911055
	H111	H	0.905692	0.402057	0.912544
	H112	H	0.078044	0.923725	0.612948
	H113	H	0.082036	0.101175	0.391966
	H114	H	0.909038	0.103039	0.612928
	H115	H	0.905168	0.920776	0.389620
	H116	H	0.604246	0.106454	0.913190
	H117	H	0.380520	0.095434	0.095830
	H118	H	0.607859	0.922209	0.099181
	H119	H	0.380584	0.921865	0.918607
	C120	C	0.371052	0.022540	0.623299
	C121	C	0.613882	1.005135	0.623094
	C122	C	0.614963	0.022197	0.380132
	C123	C	0.372057	1.005055	0.381213
	C124	C	0.613201	0.392804	0.010982
	C125	C	0.614621	0.636278	0.995010
	C126	C	0.372006	0.635150	0.011358
	C127	C	0.372212	0.393698	0.993836
	C128	C	0.000308	0.634882	0.381140
	C129	C	0.984183	0.634392	0.623269
	C130	C	0.001509	0.391767	0.623490
	C131	C	0.983847	0.391335	0.381139
	C132	C	0.870341	0.522064	0.124778
	C133	C	0.113245	0.506227	0.123006
	C134	C	0.114837	0.521480	0.879956
	C135	C	0.871328	0.504778	0.881694
	C136	C	0.114072	0.891811	0.510319
	C137	C	0.114525	0.134700	0.494624
	C138	C	0.872074	0.134475	0.510609
	C139	C	0.871350	0.891989	0.493822
	C140	C	0.499735	0.136323	0.879897
	C141	C	0.483787	0.134355	0.122696
	C142	C	0.500706	0.891971	0.124106
	C143	C	0.483490	0.892940	0.881476
	C144	C	0.370296	0.904174	0.682129
	C145	C	0.614776	0.123491	0.681463
	C146	C	0.616212	0.904311	0.320476
	C147	C	0.370113	0.122753	0.320948
	C148	C	0.676151	0.388780	0.894077
	C149	C	0.672327	0.635978	0.114269
	C150	C	0.314685	0.635348	0.891741
	C151	C	0.311184	0.390702	0.111551
	C152	C	0.882301	0.694554	0.379087
	C153	C	0.102091	0.694215	0.625077
	C154	C	0.882783	0.332667	0.624530
	C155	C	0.102567	0.333195	0.378896
	C156	C	0.882448	0.390487	0.682294
	C157	C	0.102058	0.636180	0.683033
	C158	C	0.881514	0.635274	0.322889
	C159	C	0.102319	0.391375	0.321385
	C160	C	0.373178	0.692398	0.891664
	C161	C	0.615152	0.694358	0.113815
	C162	C	0.619473	0.329799	0.894656
	C163	C	0.368817	0.332849	0.111521
	C164	C	0.674074	0.904211	0.378321
	C165	C	0.673415	0.123184	0.624127
	C166	C	0.312415	0.903963	0.624573
	C167	C	0.311174	0.121999	0.377847
	C168	C	0.868353	0.404296	0.184602
	C169	C	0.114760	0.623760	0.183023
	C170	C	0.116537	0.403205	0.821004
	C171	C	0.869637	0.622436	0.820837
	C172	C	0.175608	0.889186	0.392630
	C173	C	0.174884	0.137080	0.612607
	C174	C	0.812793	0.136344	0.392231
	C175	C	0.812586	0.891011	0.612736
	C176	C	0.383079	0.198358	0.875813
	C177	C	0.600585	0.196564	0.126064
	C178	C	0.382097	0.832688	0.126535
	C179	C	0.601245	0.832969	0.878465
	C180	C	0.382260	0.890926	0.183648
	C181	C	0.601260	0.137990	0.183395
	C182	C	0.382756	0.140232	0.818271
	C183	C	0.601293	0.891051	0.820744
	C184	C	0.870539	0.193928	0.392273
	C185	C	0.118056	0.195697	0.612149
	C186	C	0.118083	0.831124	0.392618
	C187	C	0.869776	0.832870	0.612524
	C188	C	0.175707	0.404463	0.877496
	C189	C	0.173346	0.623811	0.125464
	C190	C	0.810177	0.404645	0.127092
	C191	C	0.812663	0.623091	0.879898
	C192	C	0.395783	0.104766	0.597716
	C193	C	0.589298	0.922931	0.598667
	C194	C	0.589883	0.103896	0.405893
	C195	C	0.397245	0.923155	0.406465
	C196	C	0.586593	0.418995	0.092237
	C197	C	0.590709	0.612055	0.911996
	C198	C	0.395128	0.611583	0.094759
	C199	C	0.398382	0.419527	0.911962
	C200	C	0.082649	0.609999	0.406219
	C201	C	0.901937	0.609354	0.598150
	C202	C	0.084034	0.416814	0.598650
	C203	C	0.901443	0.415476	0.406748
	C204	C	0.895092	0.604327	0.099959
	C205	C	0.088741	0.423908	0.098055
	C206	C	0.089439	0.603220	0.904877
	C207	C	0.896197	0.423016	0.906911
	C208	C	0.088647	0.916637	0.592367
	C209	C	0.088503	0.109019	0.412962
	C210	C	0.896657	0.109490	0.593051
	C211	C	0.896324	0.916691	0.411039
	C212	C	0.580852	0.109302	0.906707
	C213	C	0.401761	0.108615	0.097079
	C214	C	0.583211	0.916415	0.098890
	C215	C	0.401448	0.917387	0.906517
	Zn216	Zn	0.491793	0.014160	0.752205
	Zn217	Zn	0.492654	0.013615	0.252082
	Zn218	Zn	0.741911	0.513955	0.003469
	Zn219	Zn	0.243151	0.514240	0.002216
	Zn220	Zn	-0.007290	0.763714	0.501788
	Zn221	Zn	-0.006608	0.262951	0.502533
	Zn222	Zn	-0.007002	0.512347	0.751907
	Zn223	Zn	-0.008143	0.513514	0.253093
	Zn224	Zn	0.492469	0.763975	0.003476
	Zn225	Zn	0.491732	0.263947	0.002111
	Zn226	Zn	0.743327	0.013121	0.501873
	Zn227	Zn	0.242419	0.013317	0.502319
	N228	N	0.405570	0.979226	0.681811
	N229	N	0.578497	0.049153	0.680945
	N230	N	0.580282	0.978847	0.321448
	N231	N	0.407291	0.049040	0.323157
	N232	N	0.672210	0.427625	0.967266
	N233	N	0.672288	0.600738	0.039088
	N234	N	0.313666	0.600717	0.967289
	N235	N	0.313267	0.427939	0.037317
	N236	N	0.957527	0.694807	0.414128
	N237	N	0.027558	0.693295	0.588594
	N238	N	0.957780	0.333309	0.588699
	N239	N	0.027916	0.332836	0.415113
	N240	N	0.957409	0.426154	0.681988
	N241	N	0.027635	0.599692	0.682072
	N242	N	0.956028	0.599117	0.323785
	N243	N	0.027209	0.426450	0.322334
	N244	N	0.407810	0.692569	0.967191
	N245	N	0.580080	0.694644	0.038563
	N246	N	0.580748	0.332307	0.968095
	N247	N	0.405753	0.334471	0.037068
	N248	N	0.673654	0.978526	0.414639
	N249	N	0.673254	0.048415	0.588724
	N250	N	0.312604	0.978661	0.588919
	N251	N	0.312066	0.047756	0.414456
	N252	N	0.905141	0.478384	0.183093
	N253	N	0.077966	0.549611	0.181553
	N254	N	0.079329	0.477042	0.822245
	N255	N	0.905519	0.547855	0.821747
	N256	N	0.173299	0.926353	0.466755
	N257	N	0.172753	0.099710	0.538539
	N258	N	0.813491	0.099889	0.466873
	N259	N	0.813327	0.926835	0.537719
	N260	N	0.457135	0.196218	0.913260
	N261	N	0.526427	0.194341	0.089072
	N262	N	0.456958	0.833199	0.090146
	N263	N	0.527094	0.834009	0.915782
	N264	N	0.457086	0.926780	0.182510
	N265	N	0.527726	0.099867	0.181248
	N266	N	0.456527	0.102472	0.820526
	N267	N	0.527239	0.927880	0.822620
	N268	N	0.906886	0.192846	0.466884
	N269	N	0.081326	0.194391	0.537709
	N270	N	0.080714	0.832524	0.466836
	N271	N	0.905640	0.833222	0.537456
	N272	N	0.174752	0.478970	0.913516
	N273	N	0.172674	0.549479	0.089037
	N274	N	0.811433	0.478825	0.090566
	N275	N	0.813368	0.548965	0.916789
	O276	O	1.303053	0.688053	-0.330020
	H277	H	1.316233	0.670675	-0.347198
	H278	H	1.315118	0.665101	-0.345182
	O279	O	-0.222681	-0.012839	1.216391
	H280	H	-0.243570	-0.021603	1.243894
	H281	H	-0.214566	-0.036859	1.210948
	O282	O	0.271169	0.536858	0.570526
	H283	H	0.268138	0.524091	0.561168
	H284	H	0.289174	0.532540	0.556401
	O285	O	0.092343	-0.062180	1.004587
	H286	H	0.088861	-0.065159	1.001838
	H287	H	0.099770	-0.052524	0.990814
	O288	O	0.773937	-0.199022	1.042074
	H289	H	0.770282	-0.189026	1.037973
	H290	H	0.758343	-0.222217	1.029634
	O291	O	0.028808	0.216549	1.212604
	H292	H	0.038986	0.213546	1.215669
	H293	H	0.041285	0.227138	1.227548
	O294	O	-0.050578	-0.008063	-0.103858
	H295	H	-0.043458	-0.004754	-0.096638
	H296	H	-0.045510	0.003474	-0.095916
	O297	O	0.633694	0.558698	0.298586
	H298	H	0.634141	0.562039	0.289014
	H299	H	0.631014	0.543420	0.295242
	O300	O	0.311745	0.330279	-0.322350
	H301	H	0.355664	0.327753	-0.313125
	H302	H	0.307030	0.354849	-0.320168
	O303	O	-0.125465	0.223473	-0.202029
	H304	H	-0.129444	0.217299	-0.171760
	H305	H	-0.113038	0.236142	-0.221567
	O306	O	1.089369	-0.043094	-0.070030
	H307	H	1.074472	-0.044701	-0.074115
	H308	H	1.093683	-0.048043	-0.071571
	O309	O	0.543891	0.566810	0.386195
	H310	H	0.564332	0.558487	0.384092
	H311	H	0.543917	0.559822	0.384883
	O312	O	0.603304	0.317483	0.621463
	H313	H	0.607701	0.314491	0.618495
	H314	H	0.594727	0.328162	0.628526
	O315	O	0.711540	0.549907	0.723528
	H316	H	0.709782	0.591379	0.721273
	H317	H	0.742226	0.558284	0.749203
	O318	O	1.300105	0.699770	0.309603
	H319	H	1.316491	0.714104	0.319719
	H320	H	1.300521	0.717388	0.327671
	O321	O	0.511480	0.648544	0.557976
	H322	H	0.506537	0.644404	0.542437
	H323	H	0.531160	0.633535	0.566036
	O324	O	1.204679	0.138423	1.065693
	H325	H	1.193877	0.139268	1.076206
	H326	H	1.221847	0.153092	1.074369
	O327	O	0.973687	0.793505	1.005175
	H328	H	0.961816	0.787717	1.020088
	H329	H	0.991010	0.798949	1.005922
	O330	O	0.306860	0.404745	0.449806
	H331	H	0.289332	0.390462	0.451195
	H332	H	0.323128	0.416336	0.450406
	O333	O	0.284105	0.707985	0.485080
	H334	H	0.288439	0.693813	0.494791
	H335	H	0.271407	0.720001	0.488334
	O336	O	0.547383	0.323566	0.346324
	H337	H	0.542616	0.321449	0.351252
	H338	H	0.544861	0.302961	0.346090
	O339	O	0.694680	0.716891	0.706566
	H340	H	0.652533	0.723451	0.700985
	H341	H	0.716265	0.748004	0.724444
	O342	O	-0.041961	1.156194	0.037914
	H343	H	-0.042624	1.144440	0.049354
	H344	H	-0.052337	1.160746	0.042551
	O345	O	0.214739	-0.211076	-0.032623
	H346	H	0.244166	-0.234605	-0.028421
	H347	H	0.211608	-0.203819	-0.062810
	O348	O	0.500842	0.442870	0.535109
	H349	H	0.507554	0.449080	0.533410
	H350	H	0.514719	0.454181	0.542328
	O351	O	-0.005842	0.052596	1.205066
	H352	H	-0.001437	0.054040	1.208851
	H353	H	-0.009217	0.049866	1.197965
	O354	O	0.855016	0.141714	1.085967
	H355	H	0.855700	0.145400	1.091187
	H356	H	0.863092	0.128866	1.088847
	O357	O	0.673514	0.423861	0.573920
	H358	H	0.677920	0.410834	0.560256
	H359	H	0.682854	0.416472	0.582861
	O360	O	0.281383	0.538193	0.284742
	H361	H	0.283290	0.567648	0.279164
	H362	H	0.264968	0.561374	0.270359
	O363	O	0.791500	0.815455	0.202072
	H364	H	0.812396	0.814547	0.187857
	H365	H	0.800604	0.808577	0.195552
	O366	O	0.783752	0.131544	0.790911
	H367	H	0.792327	0.132427	0.784751
	H368	H	0.773292	0.118250	0.784032
	O369	O	0.100392	0.054130	0.862377
	H370	H	0.109548	0.051864	0.872337
	H371	H	0.104569	0.053199	0.861470
	O372	O	0.024621	1.025249	0.991262
	H373	H	0.020689	1.038095	0.997452
	H374	H	0.015421	1.013574	0.989289
	O375	O	1.121302	0.041724	-0.002720
	H376	H	1.114085	0.037036	0.003276
	H377	H	1.126376	0.051511	0.011972
	O378	O	0.644899	0.311734	0.342625
	H379	H	0.644568	0.294146	0.324600
	H380	H	0.643319	0.304098	0.348051
	O381	O	-0.012985	0.994771	0.206204
	H382	H	-0.015478	0.992486	0.195495
	H383	H	-0.014038	0.994653	0.205626
	O384	O	0.634569	0.479349	0.627123
	H385	H	0.635681	0.474944	0.628135
	H386	H	0.656715	0.480097	0.648269
	O387	O	0.203309	0.800695	0.796088
	H388	H	0.207787	0.836968	0.804504
	H389	H	0.233065	0.773352	0.765680
	O390	O	0.526803	0.713875	0.697165
	H391	H	0.513286	0.713264	0.701609
	H392	H	0.510472	0.707235	0.691775
	O393	O	1.212275	-0.022655	-0.217800
	H394	H	1.215559	-0.009308	-0.212798
	H395	H	1.228408	-0.017695	-0.234235
	O396	O	0.703768	0.732584	0.531292
	H397	H	0.727207	0.749447	0.538681
	H398	H	0.710375	0.718287	0.539723
	O399	O	0.432160	0.724828	0.533966
	H400	H	0.451398	0.717699	0.505383
	H401	H	0.441140	0.735085	0.531434
	O402	O	0.954005	-0.147038	0.879457
	H403	H	0.967558	-0.153153	0.910618
	H404	H	0.984506	-0.156804	0.854618
	O405	O	0.700663	0.396764	0.474601
	H406	H	0.700858	0.394921	0.486110
	H407	H	0.713510	0.380215	0.464333
	O408	O	1.153873	0.984341	1.094698
	H409	H	1.141963	0.986445	1.104771
	H410	H	1.163325	0.993298	1.080408
	O411	O	1.201111	1.184099	0.214159
	H412	H	1.233793	1.212049	0.243900
	H413	H	1.187850	1.190920	0.184554
	O414	O	-0.096730	0.099203	-0.122845
	H415	H	-0.093988	0.097235	-0.127449
	H416	H	-0.087910	0.092175	-0.128290
	O417	O	0.503524	0.622805	0.294032
	H418	H	0.520903	0.601381	0.293248
	H419	H	0.519826	0.639861	0.289509
	O420	O	1.001441	0.232568	0.858056
	H421	H	1.010439	0.238838	0.856522
	H422	H	0.988295	0.230142	0.861427
	O423	O	0.956074	0.793921	0.222286
	H424	H	0.968962	0.799904	0.233865
	H425	H	0.969971	0.785716	0.239813
	O426	O	0.277713	0.364571	0.492857
	H427	H	0.271428	0.345591	0.508131
	H428	H	0.276329	0.377012	0.484006
	O429	O	0.304255	0.485396	0.701121
	H430	H	0.280451	0.482346	0.710380
	H431	H	0.313899	0.486980	0.690632
	O432	O	0.854420	0.077118	0.993867
	H433	H	0.862075	0.078389	0.999308
	H434	H	0.853127	0.064711	1.000704
	O435	O	0.577147	0.586475	0.404376
	H436	H	0.578999	0.588806	0.383863
	H437	H	0.576130	0.584338	0.410070
	O438	O	0.307265	0.328350	0.313836
	H439	H	0.320024	0.360619	0.325407
	H440	H	0.330851	0.330131	0.336451
	O441	O	0.763721	0.239852	0.228400
	H442	H	0.775483	0.237040	0.218680
	H443	H	0.771231	0.223180	0.210475
	O444	O	0.463889	0.498131	0.333937
	H445	H	0.456922	0.507841	0.334670
	H446	H	0.471146	0.486369	0.327035
	O447	O	0.690608	0.584946	0.435951
	H448	H	0.702685	0.604874	0.441286
	H449	H	0.701937	0.563311	0.449001
	O450	O	1.021067	0.158048	0.050777
	H451	H	1.023263	0.161854	0.049610
	H452	H	1.019638	0.146403	0.039313
	O453	O	0.467670	0.301505	0.717213
	H454	H	0.475774	0.284233	0.735032
	H455	H	0.491062	0.313183	0.719874
	O456	O	0.138922	1.029648	1.221189
	H457	H	0.144521	1.039671	1.223630
	H458	H	0.145658	1.054920	1.224990
	O459	O	0.501675	0.514098	0.724001
	H460	H	0.527607	0.510154	0.728431
	H461	H	0.491466	0.498100	0.728166
	O462	O	0.775679	1.077076	-0.052815
	H463	H	0.774348	1.084685	-0.061666
	H464	H	0.773751	1.077697	-0.053184
	O465	O	0.466375	0.290902	0.481528
	H466	H	0.431968	0.281917	0.487043
	H467	H	0.485848	0.292637	0.501960
	O468	O	-0.179071	0.855934	-0.183152
	H469	H	-0.171845	0.873268	-0.166259
	H470	H	-0.158303	0.867860	-0.166456
	O471	O	0.499714	0.569871	0.463028
	H472	H	0.515434	0.570048	0.460296
	H473	H	0.500909	0.567795	0.454327
	O474	O	0.966431	1.064045	-0.072556
	H475	H	0.974679	1.061435	-0.070616
	H476	H	0.965172	1.063253	-0.073623
	O477	O	0.034619	-0.190694	0.789610
	H478	H	0.068266	-0.178436	0.792154
	H479	H	0.052500	-0.215811	0.766225
