data_Molecule from HDF5

_cell_length_a		16.420923
_cell_length_b		16.302184
_cell_length_c		16.248754
_cell_angle_alpha	90.013865
_cell_angle_beta	89.987339
_cell_angle_gamma	89.884175
_symmetry_space_group_name_H-M	'P 1'
_symmetry_Int_Tables_number		1

loop_
	_symmetry_equiv_pos_as_xyz
	x,y,z

loop_
	_atom_site_label
	_atom_site_type_symbol
	_atom_site_fract_x
	_atom_site_fract_y
	_atom_site_fract_z
	H0	H	0.410186	0.841531	0.717940
	H1	H	0.602920	0.170024	0.719242
	H2	H	0.603332	0.842615	0.291880
	H3	H	0.408349	0.171041	0.292441
	H4	H	0.721711	0.406301	0.841595
	H5	H	0.721699	0.605070	0.168167
	H6	H	0.290857	0.606445	0.842060
	H7	H	0.291830	0.405999	0.168467
	H8	H	0.843605	0.721256	0.407035
	H9	H	0.168860	0.720958	0.603988
	H10	H	0.843661	0.290290	0.604836
	H11	H	0.168139	0.289348	0.404792
	H12	H	0.842733	0.409507	0.719714
	H13	H	0.168227	0.604694	0.721049
	H14	H	0.842905	0.604123	0.290817
	H15	H	0.168653	0.406963	0.289680
	H16	H	0.408206	0.720245	0.841270
	H17	H	0.604274	0.718845	0.169343
	H18	H	0.603060	0.293636	0.840378
	H19	H	0.409102	0.292124	0.169463
	H20	H	0.722772	0.844003	0.404679
	H21	H	0.722042	0.168770	0.606013
	H22	H	0.291343	0.842857	0.604776
	H23	H	0.289755	0.169498	0.406216
	H24	H	0.910267	0.341784	0.218277
	H25	H	0.102346	0.670048	0.217459
	H26	H	0.103718	0.342472	0.790768
	H27	H	0.909559	0.670188	0.793042
	H28	H	0.220323	0.908354	0.341258
	H29	H	0.221698	0.105191	0.669441
	H30	H	0.790149	0.106968	0.342639
	H31	H	0.791309	0.906395	0.668724
	H32	H	0.343864	0.221890	0.906526
	H33	H	0.669554	0.220869	0.103698
	H34	H	0.344166	0.791209	0.104773
	H35	H	0.668986	0.789482	0.905855
	H36	H	0.343782	0.909791	0.219384
	H37	H	0.669146	0.104139	0.220188
	H38	H	0.343378	0.103312	0.791239
	H39	H	0.669563	0.906897	0.790146
	H40	H	0.908764	0.219624	0.340919
	H41	H	0.104599	0.220725	0.669639
	H42	H	0.104315	0.792636	0.340647
	H43	H	0.910318	0.793799	0.668922
	H44	H	0.221480	0.342312	0.905474
	H45	H	0.222831	0.668107	0.105514
	H46	H	0.790715	0.343120	0.105475
	H47	H	0.790401	0.668174	0.905433
	H48	H	0.420313	0.121846	0.605695
	H49	H	0.598372	0.889921	0.598324
	H50	H	0.602272	0.122215	0.418575
	H51	H	0.417955	0.891925	0.411776
	H52	H	0.596234	0.413171	0.120289
	H53	H	0.597579	0.606704	0.886480
	H54	H	0.419163	0.599276	0.120005
	H55	H	0.414988	0.410458	0.887673
	H56	H	0.123731	0.610543	0.412535
	H57	H	0.893917	0.596479	0.592843
	H58	H	0.120249	0.411759	0.595283
	H59	H	0.889071	0.405651	0.413371
	H60	H	0.120183	0.416251	0.598145
	H61	H	0.889460	0.597217	0.606413
	H62	H	0.116778	0.593815	0.420572
	H63	H	0.894554	0.417142	0.418236
	H64	H	0.410423	0.602738	0.123665
	H65	H	0.607249	0.593707	0.887118
	H66	H	0.601869	0.410837	0.123021
	H67	H	0.410467	0.415778	0.888816
	H68	H	0.602344	0.124582	0.408034
	H69	H	0.600542	0.891165	0.594958
	H70	H	0.413547	0.119136	0.587955
	H71	H	0.411343	0.891173	0.416615
	H72	H	0.909919	0.623824	0.101086
	H73	H	0.097092	0.389255	0.103787
	H74	H	0.098627	0.618521	0.923742
	H75	H	0.907880	0.387512	0.913183
	H76	H	0.099232	0.904013	0.623980
	H77	H	0.094682	0.101991	0.389226
	H78	H	0.911682	0.096457	0.621573
	H79	H	0.906920	0.922429	0.389256
	H80	H	0.621362	0.098574	0.910600
	H81	H	0.392393	0.105085	0.093317
	H82	H	0.620709	0.922935	0.104586
	H83	H	0.392152	0.907875	0.919704
	H84	H	0.626441	0.901711	0.105347
	H85	H	0.393275	0.093794	0.098211
	H86	H	0.622507	0.100984	0.911710
	H87	H	0.394642	0.920704	0.912601
	H88	H	0.916149	0.098641	0.621641
	H89	H	0.105421	0.099010	0.387392
	H90	H	0.108134	0.918218	0.622806
	H91	H	0.923095	0.913822	0.390677
	H92	H	0.108225	0.625368	0.910569
	H93	H	0.097314	0.392493	0.092008
	H94	H	0.916411	0.621213	0.098719
	H95	H	0.916809	0.389257	0.908192
	H96	H	0.402491	0.125731	0.601511
	H97	H	0.602633	0.890052	0.598622
	H98	H	0.593793	0.120921	0.413144
	H99	H	0.410593	0.889021	0.408651
	H100	H	0.601355	0.417338	0.121065
	H101	H	0.592300	0.592646	0.892880
	H102	H	0.411745	0.592988	0.120662
	H103	H	0.416721	0.416619	0.890330
	H104	H	0.122532	0.594219	0.401578
	H105	H	0.888769	0.608545	0.598178
	H106	H	0.122186	0.411485	0.600034
	H107	H	0.890684	0.416550	0.405226
	H108	H	0.910567	0.621466	0.093776
	H109	H	0.107422	0.387072	0.096865
	H110	H	0.091912	0.620978	0.907282
	H111	H	0.916208	0.391642	0.917970
	H112	H	0.091982	0.918280	0.618280
	H113	H	0.098512	0.092195	0.392002
	H114	H	0.912271	0.101369	0.623379
	H115	H	0.908104	0.904947	0.383715
	H116	H	0.620468	0.098901	0.913303
	H117	H	0.388617	0.102914	0.105064
	H118	H	0.618371	0.910788	0.086773
	H119	H	0.388640	0.909043	0.905418
	C120	C	0.384703	0.014049	0.626732
	C121	C	0.628213	0.998103	0.626590
	C122	C	0.627865	0.014602	0.384215
	C123	C	0.384638	0.998568	0.383714
	C124	C	0.628422	0.384476	0.013367
	C125	C	0.627566	0.626630	0.996819
	C126	C	0.385139	0.627345	0.013372
	C127	C	0.385368	0.384860	0.996951
	C128	C	0.013922	0.628128	0.383061
	C129	C	0.998052	0.628727	0.627731
	C130	C	0.013686	0.384700	0.626731
	C131	C	0.998425	0.384146	0.383126
	C132	C	0.884595	0.514186	0.126815
	C133	C	0.128348	0.497631	0.126445
	C134	C	0.128155	0.514088	0.884053
	C135	C	0.885129	0.497394	0.884447
	C136	C	0.127959	0.884738	0.513177
	C137	C	0.128045	0.127267	0.497755
	C138	C	0.884833	0.127506	0.513593
	C139	C	0.884843	0.885585	0.496400
	C140	C	0.514003	0.128066	0.883272
	C141	C	0.498776	0.128397	0.127041
	C142	C	0.514681	0.884254	0.127565
	C143	C	0.498872	0.883959	0.883607
	C144	C	0.388711	0.890683	0.680986
	C145	C	0.624512	0.121257	0.681631
	C146	C	0.624218	0.891455	0.329405
	C147	C	0.387137	0.121798	0.329267
	C148	C	0.683515	0.386359	0.890269
	C149	C	0.683267	0.625159	0.119602
	C150	C	0.329096	0.626098	0.890728
	C151	C	0.329952	0.386231	0.119719
	C152	C	0.891784	0.682983	0.386182
	C153	C	0.120096	0.683508	0.624853
	C154	C	0.891726	0.329265	0.624616
	C155	C	0.119892	0.327767	0.384796
	C156	C	0.891417	0.388195	0.681864
	C157	C	0.119939	0.625525	0.682948
	C158	C	0.891630	0.624950	0.328320
	C159	C	0.120088	0.386226	0.327370
	C160	C	0.387574	0.682743	0.890346
	C161	C	0.624843	0.681589	0.120191
	C162	C	0.624913	0.329885	0.889856
	C163	C	0.388072	0.329423	0.119953
	C164	C	0.683596	0.892210	0.385368
	C165	C	0.683629	0.120498	0.625532
	C166	C	0.329551	0.891367	0.624935
	C167	C	0.328490	0.121130	0.386179
	C168	C	0.888540	0.390786	0.181054
	C169	C	0.124142	0.620954	0.180651
	C170	C	0.125100	0.391131	0.828342
	C171	C	0.888451	0.621020	0.830052
	C172	C	0.182943	0.887360	0.390096
	C173	C	0.183143	0.125161	0.620839
	C174	C	0.829304	0.126040	0.390835
	C175	C	0.829827	0.886972	0.619824
	C176	C	0.392166	0.183442	0.886119
	C177	C	0.620986	0.183064	0.124486
	C178	C	0.392598	0.829061	0.125198
	C179	C	0.620641	0.827851	0.885689
	C180	C	0.392502	0.887840	0.182398
	C181	C	0.620741	0.125030	0.182297
	C182	C	0.391966	0.124658	0.828657
	C183	C	0.620988	0.886446	0.828172
	C184	C	0.887942	0.182367	0.390170
	C185	C	0.125223	0.182686	0.620624
	C186	C	0.125135	0.830008	0.389912
	C187	C	0.888458	0.830647	0.620079
	C188	C	0.183703	0.391264	0.885130
	C189	C	0.183955	0.619968	0.125074
	C190	C	0.829389	0.391454	0.124966
	C191	C	0.829171	0.620105	0.885788
	C192	C	0.405951	0.100074	0.604784
	C193	C	0.606742	0.912484	0.604065
	C194	C	0.605938	0.100425	0.406762
	C195	C	0.406892	0.912719	0.406044
	C196	C	0.606420	0.407297	0.099400
	C197	C	0.605449	0.604155	0.910982
	C198	C	0.407276	0.604843	0.099273
	C199	C	0.407587	0.407718	0.911041
	C200	C	0.099149	0.605961	0.405211
	C201	C	0.912684	0.607136	0.605661
	C202	C	0.098780	0.406621	0.604350
	C203	C	0.913254	0.406569	0.405604
	C204	C	0.905984	0.599988	0.104518
	C205	C	0.106952	0.411808	0.104027
	C206	C	0.106170	0.599387	0.907178
	C207	C	0.907173	0.411726	0.906627
	C208	C	0.106091	0.906897	0.599259
	C209	C	0.106073	0.104416	0.411795
	C210	C	0.906881	0.105393	0.599807
	C211	C	0.906437	0.907366	0.410360
	C212	C	0.599348	0.105884	0.905145
	C213	C	0.413486	0.106972	0.105185
	C214	C	0.599777	0.905593	0.105438
	C215	C	0.413870	0.906108	0.906042
	Zn216	Zn	0.506440	0.005924	0.754261
	Zn217	Zn	0.506563	0.006834	0.256011
	Zn218	Zn	0.756546	0.505697	0.004771
	Zn219	Zn	0.256991	0.505593	0.005166
	Zn220	Zn	0.006100	0.757208	0.504598
	Zn221	Zn	0.005989	0.255547	0.505313
	Zn222	Zn	0.006175	0.506309	0.756424
	Zn223	Zn	0.006232	0.505961	0.254199
	Zn224	Zn	0.506494	0.755124	0.005542
	Zn225	Zn	0.506749	0.256934	0.005343
	Zn226	Zn	0.756634	0.006351	0.505359
	Zn227	Zn	0.256398	0.005823	0.505822
	N228	N	0.422216	0.967981	0.682118
	N229	N	0.590606	0.044147	0.682364
	N230	N	0.590084	0.968659	0.328820
	N231	N	0.421234	0.044641	0.327803
	N232	N	0.685811	0.419402	0.968175
	N233	N	0.684961	0.591518	0.041902
	N234	N	0.327481	0.592388	0.968303
	N235	N	0.328266	0.420044	0.042213
	N236	N	0.968633	0.684938	0.419546
	N237	N	0.043163	0.685489	0.591067
	N238	N	0.968676	0.326991	0.591198
	N239	N	0.043174	0.326473	0.418784
	N240	N	0.968154	0.422116	0.683221
	N241	N	0.043049	0.592310	0.684788
	N242	N	0.968782	0.591614	0.326161
	N243	N	0.043497	0.420627	0.326304
	N244	N	0.421764	0.683439	0.967619
	N245	N	0.590895	0.682668	0.042764
	N246	N	0.591281	0.328733	0.967442
	N247	N	0.421840	0.328516	0.042533
	N248	N	0.685766	0.969685	0.418793
	N249	N	0.685845	0.043061	0.591915
	N250	N	0.326960	0.969138	0.592114
	N251	N	0.326754	0.043418	0.419210
	N252	N	0.921928	0.467964	0.182337
	N253	N	0.090603	0.543754	0.181632
	N254	N	0.091309	0.468476	0.827604
	N255	N	0.922483	0.543819	0.829175
	N256	N	0.184837	0.920738	0.467869
	N257	N	0.184900	0.091391	0.543268
	N258	N	0.827178	0.092967	0.468658
	N259	N	0.827402	0.920216	0.541927
	N260	N	0.469154	0.185375	0.919411
	N261	N	0.544262	0.185167	0.090581
	N262	N	0.469562	0.826655	0.091641
	N263	N	0.543927	0.826543	0.919686
	N264	N	0.469274	0.921441	0.183852
	N265	N	0.543851	0.091709	0.183745
	N266	N	0.468839	0.091000	0.826815
	N267	N	0.544231	0.920495	0.826605
	N268	N	0.921793	0.183290	0.467642
	N269	N	0.091348	0.183781	0.543183
	N270	N	0.091842	0.828241	0.467480
	N271	N	0.922121	0.829544	0.542652
	N272	N	0.185976	0.468689	0.918843
	N273	N	0.186740	0.542253	0.092126
	N274	N	0.826698	0.469262	0.091950
	N275	N	0.827187	0.542450	0.919033
	O276	O	0.417818	0.462523	0.488797
	H277	H	0.417720	0.447600	0.484823
	H278	H	0.417696	0.466183	0.489670
	O279	O	0.065565	-0.005784	-0.054185
	H280	H	0.064275	-0.001507	-0.052351
	H281	H	0.065939	-0.004611	-0.059321
	O282	O	0.452875	0.489304	0.451760
	H283	H	0.454208	0.498915	0.449594
	H284	H	0.453329	0.487377	0.456995
	O285	O	0.428326	0.511516	0.487733
	H286	H	0.427598	0.521433	0.481363
	H287	H	0.433335	0.512420	0.483364
	O288	O	1.062551	-0.003250	-0.018368
	H289	H	1.067289	-0.005800	-0.010286
	H290	H	1.055960	-0.000481	-0.008762
	O291	O	-0.588102	0.490980	-0.559727
	H292	H	-0.592662	0.508957	-0.559520
	H293	H	-0.594300	0.502239	-0.557370
	O294	O	0.464677	0.471836	0.516111
	H295	H	0.469724	0.456029	0.503998
	H296	H	0.458623	0.463622	0.523389
	O297	O	0.069407	0.984291	0.001429
	H298	H	0.071638	0.988775	-0.010121
	H299	H	0.073641	0.983450	-0.000475
	O300	O	1.088013	0.003058	0.950644
	H301	H	1.093801	-0.000061	0.939407
	H302	H	1.084758	-0.005579	0.955451
	O303	O	0.444022	0.526535	0.489737
	H304	H	0.443275	0.529455	0.493832
	H305	H	0.444340	0.516527	0.498296
	O306	O	0.055748	0.998628	0.959618
	H307	H	0.049759	0.997791	0.959530
	H308	H	0.065054	1.001004	0.964764
	O309	O	0.429947	0.516287	0.444896
	H310	H	0.425300	0.526703	0.438939
	H311	H	0.426267	0.506805	0.445867
