data_Molecule from HDF5

_cell_length_a		16.337621
_cell_length_b		16.303888
_cell_length_c		16.351347
_cell_angle_alpha	89.955270
_cell_angle_beta	89.959717
_cell_angle_gamma	90.009302
_symmetry_space_group_name_H-M	'P 1'
_symmetry_Int_Tables_number		1

loop_
	_symmetry_equiv_pos_as_xyz
	x,y,z

loop_
	_atom_site_label
	_atom_site_type_symbol
	_atom_site_fract_x
	_atom_site_fract_y
	_atom_site_fract_z
	H0	H	0.400826	0.836443	0.715060
	H1	H	0.597928	0.163087	0.713786
	H2	H	0.597806	0.836360	0.285381
	H3	H	0.402115	0.163490	0.285301
	H4	H	0.714905	0.402779	0.836741
	H5	H	0.714899	0.598521	0.163221
	H6	H	0.286730	0.596860	0.836579
	H7	H	0.286635	0.402435	0.164248
	H8	H	0.836793	0.713922	0.402641
	H9	H	0.163789	0.714219	0.598142
	H10	H	0.836466	0.286041	0.598085
	H11	H	0.163078	0.286078	0.402865
	H12	H	0.836982	0.402012	0.714676
	H13	H	0.162992	0.597758	0.714726
	H14	H	0.837131	0.597859	0.285684
	H15	H	0.162605	0.401287	0.285155
	H16	H	0.403147	0.713392	0.836420
	H17	H	0.596824	0.714169	0.163232
	H18	H	0.596554	0.287078	0.836756
	H19	H	0.402480	0.285511	0.163221
	H20	H	0.713496	0.836388	0.402382
	H21	H	0.712447	0.163407	0.596280
	H22	H	0.285793	0.836579	0.597809
	H23	H	0.287794	0.164399	0.403504
	H24	H	0.902296	0.335997	0.213887
	H25	H	0.098275	0.663518	0.214858
	H26	H	0.098690	0.336107	0.785552
	H27	H	0.903151	0.664399	0.786530
	H28	H	0.216085	0.901157	0.337096
	H29	H	0.214036	0.097257	0.663132
	H30	H	0.785495	0.098186	0.336748
	H31	H	0.785435	0.902717	0.662947
	H32	H	0.335957	0.213659	0.902811
	H33	H	0.663397	0.212572	0.095962
	H34	H	0.336517	0.788503	0.094826
	H35	H	0.664183	0.787205	0.902626
	H36	H	0.337595	0.901003	0.214966
	H37	H	0.663327	0.098271	0.213883
	H38	H	0.336900	0.098366	0.785411
	H39	H	0.663109	0.901650	0.784127
	H40	H	0.902808	0.213877	0.336678
	H41	H	0.097403	0.213521	0.663300
	H42	H	0.098034	0.786226	0.336476
	H43	H	0.902505	0.786082	0.662555
	H44	H	0.213987	0.335978	0.903782
	H45	H	0.213387	0.663770	0.097551
	H46	H	0.785832	0.336412	0.098243
	H47	H	0.786894	0.663675	0.902070
	H48	H	0.403813	0.117313	0.593335
	H49	H	0.592819	0.881225	0.599741
	H50	H	0.586337	0.114994	0.402950
	H51	H	0.403448	0.883712	0.411138
	H52	H	0.598133	0.405821	0.116428
	H53	H	0.587107	0.591629	0.886721
	H54	H	0.409065	0.588507	0.113915
	H55	H	0.401167	0.413659	0.886024
	H56	H	0.114619	0.590327	0.408348
	H57	H	0.882869	0.595031	0.596683
	H58	H	0.116083	0.401893	0.590217
	H59	H	0.882795	0.406064	0.405106
	H60	H	0.114081	0.410854	0.589887
	H61	H	0.884608	0.595898	0.590184
	H62	H	0.116649	0.592588	0.404005
	H63	H	0.883844	0.405334	0.408524
	H64	H	0.409123	0.600702	0.117130
	H65	H	0.595677	0.600667	0.881529
	H66	H	0.592295	0.409660	0.114771
	H67	H	0.414556	0.406295	0.886405
	H68	H	0.594031	0.114215	0.413754
	H69	H	0.587967	0.885194	0.591302
	H70	H	0.408677	0.116655	0.596338
	H71	H	0.405237	0.881957	0.401045
	H72	H	0.912068	0.612654	0.088238
	H73	H	0.083678	0.385879	0.095459
	H74	H	0.098207	0.618804	0.898459
	H75	H	0.919009	0.385647	0.900534
	H76	H	0.094169	0.905359	0.615553
	H77	H	0.094992	0.093837	0.383959
	H78	H	0.906224	0.101936	0.618276
	H79	H	0.913908	0.897233	0.383053
	H80	H	0.616420	0.088055	0.900744
	H81	H	0.384304	0.096109	0.088309
	H82	H	0.619158	0.904104	0.099994
	H83	H	0.383509	0.902525	0.905384
	H84	H	0.616228	0.902589	0.087726
	H85	H	0.385245	0.086351	0.094921
	H86	H	0.617841	0.101044	0.904314
	H87	H	0.385665	0.907697	0.910246
	H88	H	0.897098	0.088924	0.616925
	H89	H	0.093750	0.092568	0.383725
	H90	H	0.094107	0.908037	0.615452
	H91	H	0.893929	0.905416	0.379464
	H92	H	0.084576	0.613715	0.906228
	H93	H	0.097123	0.386036	0.084575
	H94	H	0.899395	0.618109	0.091241
	H95	H	0.905760	0.387272	0.920238
	H96	H	0.408602	0.114972	0.591081
	H97	H	0.597810	0.882225	0.590098
	H98	H	0.598635	0.119327	0.402701
	H99	H	0.412431	0.885431	0.407388
	H100	H	0.591554	0.402682	0.116447
	H101	H	0.599951	0.587972	0.884435
	H102	H	0.398726	0.593867	0.118375
	H103	H	0.402235	0.399622	0.881323
	H104	H	0.116556	0.595453	0.408818
	H105	H	0.885672	0.589320	0.592855
	H106	H	0.117048	0.407415	0.598145
	H107	H	0.884510	0.408304	0.406731
	H108	H	0.909156	0.617507	0.100645
	H109	H	0.098784	0.379272	0.100323
	H110	H	0.098869	0.615022	0.914447
	H111	H	0.896033	0.379408	0.899913
	H112	H	0.092127	0.906318	0.615167
	H113	H	0.093541	0.094337	0.383730
	H114	H	0.912637	0.088297	0.613018
	H115	H	0.909567	0.918149	0.388068
	H116	H	0.613969	0.092402	0.913835
	H117	H	0.380986	0.096839	0.099077
	H118	H	0.614659	0.913742	0.093597
	H119	H	0.383798	0.909812	0.902797
	C120	C	0.378496	0.008250	0.621712
	C121	C	0.621007	0.991061	0.621271
	C122	C	0.621082	0.008333	0.378217
	C123	C	0.378636	0.992112	0.378470
	C124	C	0.621900	0.378361	0.008264
	C125	C	0.621768	0.621614	0.992097
	C126	C	0.378057	0.621946	0.008292
	C127	C	0.377653	0.378191	0.992172
	C128	C	0.008343	0.621543	0.378620
	C129	C	0.992016	0.621924	0.621929
	C130	C	0.008022	0.378297	0.621326
	C131	C	0.991456	0.378125	0.378487
	C132	C	0.878532	0.508059	0.121763
	C133	C	0.121431	0.491687	0.121543
	C134	C	0.121814	0.507773	0.878310
	C135	C	0.878718	0.492182	0.878500
	C136	C	0.121954	0.878171	0.507794
	C137	C	0.121784	0.121774	0.491724
	C138	C	0.877728	0.121344	0.507989
	C139	C	0.877714	0.878812	0.491422
	C140	C	0.508062	0.121731	0.878485
	C141	C	0.491764	0.121238	0.121628
	C142	C	0.508583	0.878885	0.121399
	C143	C	0.492204	0.878487	0.877929
	C144	C	0.381116	0.885086	0.676572
	C145	C	0.618437	0.114322	0.676022
	C146	C	0.618464	0.885160	0.323280
	C147	C	0.381189	0.114751	0.323203
	C148	C	0.676546	0.381831	0.885390
	C149	C	0.676629	0.618788	0.114637
	C150	C	0.323920	0.618169	0.885331
	C151	C	0.323936	0.381498	0.115284
	C152	C	0.885552	0.676207	0.381916
	C153	C	0.114801	0.676673	0.618954
	C154	C	0.885225	0.323740	0.618401
	C155	C	0.114232	0.323686	0.381719
	C156	C	0.885477	0.381305	0.676409
	C157	C	0.114718	0.618768	0.676647
	C158	C	0.885602	0.618505	0.323942
	C159	C	0.114129	0.380980	0.323480
	C160	C	0.381978	0.675842	0.885095
	C161	C	0.618276	0.676381	0.114757
	C162	C	0.618169	0.324121	0.885349
	C163	C	0.381563	0.323416	0.114905
	C164	C	0.675515	0.885051	0.381623
	C165	C	0.675237	0.114549	0.617750
	C166	C	0.323973	0.885169	0.618300
	C167	C	0.324678	0.115358	0.382088
	C168	C	0.881230	0.385121	0.176629
	C169	C	0.118484	0.614792	0.176503
	C170	C	0.119269	0.384860	0.823789
	C171	C	0.881893	0.615037	0.823646
	C172	C	0.177139	0.881136	0.385264
	C173	C	0.176375	0.118519	0.614395
	C174	C	0.823260	0.118701	0.385296
	C175	C	0.823213	0.881957	0.614225
	C176	C	0.384947	0.176124	0.881670
	C177	C	0.614648	0.175371	0.117405
	C178	C	0.385519	0.824828	0.117236
	C179	C	0.615209	0.824259	0.881339
	C180	C	0.385828	0.881178	0.176227
	C181	C	0.614598	0.118505	0.175873
	C182	C	0.385277	0.118699	0.823589
	C183	C	0.614972	0.881507	0.823052
	C184	C	0.881656	0.176045	0.385311
	C185	C	0.118409	0.176183	0.614592
	C186	C	0.118881	0.823707	0.385034
	C187	C	0.881034	0.823864	0.614010
	C188	C	0.176618	0.384706	0.882231
	C189	C	0.175847	0.615078	0.118395
	C190	C	0.823731	0.384983	0.118754
	C191	C	0.824230	0.615128	0.881254
	C192	C	0.400522	0.094236	0.599839
	C193	C	0.599394	0.905274	0.599980
	C194	C	0.599250	0.094118	0.399942
	C195	C	0.400562	0.905846	0.400178
	C196	C	0.600364	0.399803	0.094017
	C197	C	0.600382	0.599872	0.906384
	C198	C	0.399439	0.600619	0.094217
	C199	C	0.399555	0.400161	0.906648
	C200	C	0.094030	0.599425	0.400541
	C201	C	0.906389	0.599809	0.599883
	C202	C	0.093738	0.400306	0.599216
	C203	C	0.905889	0.400157	0.400313
	C204	C	0.900649	0.593974	0.100005
	C205	C	0.099525	0.405954	0.100008
	C206	C	0.100155	0.593658	0.899903
	C207	C	0.900444	0.406022	0.900469
	C208	C	0.100001	0.900131	0.593396
	C209	C	0.100333	0.099940	0.406010
	C210	C	0.899084	0.099532	0.593925
	C211	C	0.899334	0.900406	0.405608
	C212	C	0.593903	0.100284	0.899933
	C213	C	0.405655	0.099380	0.100366
	C214	C	0.594503	0.900542	0.100059
	C215	C	0.406513	0.900394	0.899687
	Zn216	Zn	0.500052	0.000047	0.749743
	Zn217	Zn	0.500027	-0.000109	0.250066
	Zn218	Zn	0.750755	0.499918	0.000202
	Zn219	Zn	0.249739	0.500085	0.000731
	Zn220	Zn	0.000280	0.750162	0.499932
	Zn221	Zn	-0.000275	0.249712	0.500113
	Zn222	Zn	0.000101	0.499884	0.750001
	Zn223	Zn	-0.000220	0.499721	0.250342
	Zn224	Zn	0.500460	0.750406	-0.000187
	Zn225	Zn	0.499521	0.249698	-0.000011
	Zn226	Zn	0.748869	0.000156	0.499951
	Zn227	Zn	0.250714	0.000339	0.499911
	N228	N	0.414051	0.962791	0.679054
	N229	N	0.585192	0.036727	0.678299
	N230	N	0.585171	0.962660	0.321145
	N231	N	0.414183	0.037068	0.321187
	N232	N	0.678821	0.414860	0.962736
	N233	N	0.678775	0.585348	0.037292
	N234	N	0.321614	0.585289	0.962807
	N235	N	0.321616	0.414834	0.038145
	N236	N	0.962872	0.678041	0.415197
	N237	N	0.037449	0.678815	0.585718
	N238	N	0.962478	0.321917	0.584794
	N239	N	0.037030	0.321942	0.415127
	N240	N	0.962823	0.414752	0.678173
	N241	N	0.037343	0.585469	0.678430
	N242	N	0.963004	0.585111	0.321928
	N243	N	0.036840	0.414414	0.321615
	N244	N	0.415169	0.678155	0.962508
	N245	N	0.585022	0.678219	0.037578
	N246	N	0.584907	0.321942	0.962724
	N247	N	0.414525	0.321311	0.037457
	N248	N	0.677442	0.962542	0.414773
	N249	N	0.676845	0.037145	0.584474
	N250	N	0.322249	0.962710	0.584989
	N251	N	0.323008	0.037884	0.415565
	N252	N	0.914543	0.462591	0.178658
	N253	N	0.085433	0.537134	0.178748
	N254	N	0.085994	0.462400	0.821296
	N255	N	0.915205	0.537496	0.822026
	N256	N	0.179263	0.914386	0.462596
	N257	N	0.178476	0.085395	0.537040
	N258	N	0.820869	0.085416	0.462622
	N259	N	0.821075	0.915257	0.536861
	N260	N	0.462136	0.178009	0.915042
	N261	N	0.537250	0.177005	0.084243
	N262	N	0.462950	0.823245	0.083984
	N263	N	0.537878	0.822556	0.914920
	N264	N	0.463176	0.914317	0.178688
	N265	N	0.536949	0.085739	0.178691
	N266	N	0.462736	0.085429	0.821602
	N267	N	0.537512	0.914389	0.820808
	N268	N	0.914851	0.177647	0.462628
	N269	N	0.085036	0.178102	0.537381
	N270	N	0.085138	0.822186	0.462121
	N271	N	0.914439	0.822018	0.536857
	N272	N	0.178371	0.462164	0.915397
	N273	N	0.177771	0.537612	0.085131
	N274	N	0.821902	0.462512	0.085498
	N275	N	0.822181	0.537617	0.914656
