data_Molecule from HDF5

_cell_length_a		16.261922
_cell_length_b		16.335935
_cell_length_c		16.387075
_cell_angle_alpha	90.034318
_cell_angle_beta	90.039477
_cell_angle_gamma	89.810614
_symmetry_space_group_name_H-M	'P 1'
_symmetry_Int_Tables_number		1

loop_
	_symmetry_equiv_pos_as_xyz
	x,y,z

loop_
	_atom_site_label
	_atom_site_type_symbol
	_atom_site_fract_x
	_atom_site_fract_y
	_atom_site_fract_z
	H0	H	0.403189	0.836322	0.720427
	H1	H	0.601466	0.162132	0.719682
	H2	H	0.602392	0.835541	0.289429
	H3	H	0.402478	0.160948	0.288605
	H4	H	0.717528	0.399551	0.841680
	H5	H	0.716179	0.595144	0.167718
	H6	H	0.287217	0.595565	0.840919
	H7	H	0.289289	0.401445	0.168448
	H8	H	0.839402	0.713597	0.405590
	H9	H	0.167747	0.711630	0.602378
	H10	H	0.838334	0.286193	0.601454
	H11	H	0.166857	0.285042	0.406780
	H12	H	0.839079	0.401902	0.717373
	H13	H	0.167387	0.596159	0.719187
	H14	H	0.838833	0.597318	0.290370
	H15	H	0.166072	0.399736	0.290143
	H16	H	0.403224	0.714090	0.841444
	H17	H	0.600256	0.711889	0.167030
	H18	H	0.600612	0.283273	0.841826
	H19	H	0.403903	0.283078	0.166974
	H20	H	0.718330	0.835637	0.406277
	H21	H	0.716685	0.162701	0.602028
	H22	H	0.290674	0.834752	0.600179
	H23	H	0.289234	0.161690	0.407675
	H24	H	0.904386	0.335480	0.218867
	H25	H	0.100544	0.661208	0.220303
	H26	H	0.101681	0.334832	0.789336
	H27	H	0.902247	0.661627	0.788312
	H28	H	0.216662	0.901477	0.340640
	H29	H	0.217908	0.095910	0.666544
	H30	H	0.788347	0.096242	0.341513
	H31	H	0.789464	0.901650	0.667572
	H32	H	0.338970	0.212949	0.906580
	H33	H	0.666527	0.212622	0.102125
	H34	H	0.338481	0.785262	0.102081
	H35	H	0.666661	0.782733	0.906780
	H36	H	0.339078	0.901049	0.218773
	H37	H	0.666848	0.096537	0.217976
	H38	H	0.339411	0.097959	0.789562
	H39	H	0.667176	0.899051	0.790187
	H40	H	0.904033	0.213568	0.341287
	H41	H	0.102443	0.213215	0.667078
	H42	H	0.101547	0.783242	0.341880
	H43	H	0.906321	0.784867	0.667175
	H44	H	0.214882	0.333671	0.909394
	H45	H	0.215319	0.662024	0.102652
	H46	H	0.790536	0.334325	0.100572
	H47	H	0.788077	0.661898	0.907709
	H48	H	0.411872	0.112785	0.593118
	H49	H	0.598820	0.882315	0.599576
	H50	H	0.602557	0.116213	0.413764
	H51	H	0.415594	0.885355	0.415310
	H52	H	0.593102	0.401428	0.119985
	H53	H	0.602066	0.585458	0.889201
	H54	H	0.407555	0.593517	0.119807
	H55	H	0.404500	0.406333	0.889078
	H56	H	0.118097	0.589407	0.415385
	H57	H	0.884706	0.604911	0.592617
	H58	H	0.120445	0.404479	0.602174
	H59	H	0.893617	0.423536	0.420448
	H60	H	0.120263	0.400945	0.594870
	H61	H	0.892563	0.582353	0.588226
	H62	H	0.118048	0.587873	0.408023
	H63	H	0.879332	0.406233	0.390626
	H64	H	0.408461	0.591859	0.119100
	H65	H	0.587702	0.588695	0.891564
	H66	H	0.599409	0.404079	0.121175
	H67	H	0.411932	0.407877	0.890405
	H68	H	0.594533	0.116362	0.402712
	H69	H	0.592681	0.883774	0.599409
	H70	H	0.405252	0.116164	0.598516
	H71	H	0.403675	0.880620	0.412030
	H72	H	0.906520	0.613585	0.093234
	H73	H	0.109064	0.378453	0.097844
	H74	H	0.099427	0.616402	0.906472
	H75	H	0.910196	0.381791	0.908713
	H76	H	0.098388	0.904053	0.621434
	H77	H	0.085953	0.090477	0.391972
	H78	H	0.910365	0.087485	0.618115
	H79	H	0.912450	0.906052	0.389490
	H80	H	0.619722	0.089635	0.909289
	H81	H	0.383278	0.097836	0.100696
	H82	H	0.617753	0.906143	0.092777
	H83	H	0.387659	0.902652	0.916559
	H84	H	0.619379	0.907247	0.101928
	H85	H	0.388987	0.091727	0.088037
	H86	H	0.619905	0.094355	0.911103
	H87	H	0.389618	0.913157	0.911931
	H88	H	0.914668	0.096379	0.619251
	H89	H	0.098831	0.101631	0.384662
	H90	H	0.097019	0.906205	0.618650
	H91	H	0.909627	0.902640	0.387523
	H92	H	0.087794	0.612716	0.908729
	H93	H	0.090495	0.380164	0.110845
	H94	H	0.905780	0.616595	0.102780
	H95	H	0.911759	0.383563	0.910326
	H96	H	0.413493	0.114533	0.602286
	H97	H	0.596265	0.884576	0.593618
	H98	H	0.589396	0.111496	0.414199
	H99	H	0.413548	0.880425	0.402786
	H100	H	0.594542	0.407791	0.118714
	H101	H	0.596933	0.598867	0.886053
	H102	H	0.409369	0.593256	0.119508
	H103	H	0.409883	0.401089	0.888618
	H104	H	0.121384	0.594137	0.410817
	H105	H	0.883950	0.588283	0.610426
	H106	H	0.117664	0.409022	0.595346
	H107	H	0.884117	0.387823	0.422463
	H108	H	0.914820	0.613674	0.098844
	H109	H	0.089339	0.387330	0.088876
	H110	H	0.096040	0.611757	0.918617
	H111	H	0.909101	0.382667	0.911093
	H112	H	0.095520	0.903830	0.620244
	H113	H	0.103102	0.084291	0.388642
	H114	H	0.905249	0.094839	0.622184
	H115	H	0.908223	0.907433	0.388530
	H116	H	0.618485	0.090478	0.913607
	H117	H	0.387810	0.083267	0.100850
	H118	H	0.620762	0.899104	0.098136
	H119	H	0.384228	0.904593	0.905575
	C120	C	0.381644	0.006918	0.626112
	C121	C	0.624595	0.991010	0.626015
	C122	C	0.624761	0.006874	0.382176
	C123	C	0.381864	0.989936	0.382387
	C124	C	0.624332	0.376408	0.012387
	C125	C	0.624154	0.619692	0.996172
	C126	C	0.380038	0.620869	0.012068
	C127	C	0.380397	0.376682	0.996836
	C128	C	0.010881	0.619492	0.382922
	C129	C	0.995421	0.619918	0.625831
	C130	C	0.011021	0.377349	0.625430
	C131	C	0.994077	0.377071	0.383023
	C132	C	0.881358	0.506252	0.125745
	C133	C	0.123982	0.490057	0.127002
	C134	C	0.123346	0.505931	0.883016
	C135	C	0.881146	0.490371	0.882098
	C136	C	0.125141	0.876538	0.512327
	C137	C	0.124625	0.120593	0.495771
	C138	C	0.881350	0.120809	0.512415
	C139	C	0.881901	0.877456	0.496330
	C140	C	0.511030	0.119962	0.883077
	C141	C	0.494634	0.119784	0.125456
	C142	C	0.510902	0.876918	0.125516
	C143	C	0.495319	0.877101	0.882937
	C144	C	0.383886	0.884536	0.681307
	C145	C	0.622249	0.113599	0.681547
	C146	C	0.622710	0.884155	0.327474
	C147	C	0.383002	0.112509	0.327082
	C148	C	0.679200	0.379250	0.890036
	C149	C	0.678698	0.616263	0.118973
	C150	C	0.325046	0.617064	0.889642
	C151	C	0.325963	0.379991	0.119315
	C152	C	0.888028	0.675309	0.385376
	C153	C	0.118738	0.674097	0.623190
	C154	C	0.887577	0.323152	0.622423
	C155	C	0.117578	0.322121	0.385774
	C156	C	0.887922	0.380673	0.679985
	C157	C	0.118538	0.616793	0.681242
	C158	C	0.887825	0.617783	0.327730
	C159	C	0.117177	0.379173	0.327731
	C160	C	0.382556	0.675808	0.889757
	C161	C	0.621220	0.674284	0.118742
	C162	C	0.621087	0.321509	0.890047
	C163	C	0.383397	0.321632	0.118908
	C164	C	0.680311	0.884305	0.385487
	C165	C	0.679341	0.113878	0.623020
	C166	C	0.327561	0.883874	0.621981
	C167	C	0.326532	0.112926	0.386048
	C168	C	0.884079	0.383837	0.180598
	C169	C	0.121203	0.612783	0.182198
	C170	C	0.121747	0.383232	0.827735
	C171	C	0.882620	0.613035	0.826839
	C172	C	0.179697	0.879867	0.389721
	C173	C	0.179634	0.116648	0.618361
	C174	C	0.826392	0.117212	0.389831
	C175	C	0.826994	0.880724	0.618710
	C176	C	0.387811	0.175007	0.885950
	C177	C	0.617852	0.174820	0.122862
	C178	C	0.387650	0.822513	0.122827
	C179	C	0.618081	0.821165	0.886255
	C180	C	0.387776	0.880376	0.180542
	C181	C	0.617865	0.117373	0.180498
	C182	C	0.387968	0.117708	0.827956
	C183	C	0.618294	0.878623	0.828033
	C184	C	0.883456	0.175785	0.389934
	C185	C	0.122278	0.175076	0.618383
	C186	C	0.122432	0.821486	0.390089
	C187	C	0.885047	0.822642	0.618677
	C188	C	0.178351	0.382703	0.886743
	C189	C	0.178070	0.613249	0.123491
	C190	C	0.827321	0.383401	0.121916
	C191	C	0.825991	0.613290	0.886156
	C192	C	0.403746	0.092369	0.604352
	C193	C	0.602495	0.905533	0.603900
	C194	C	0.602094	0.092548	0.403802
	C195	C	0.404217	0.904298	0.403744
	C196	C	0.602252	0.398142	0.097833
	C197	C	0.602124	0.597661	0.911121
	C198	C	0.402113	0.599295	0.097436
	C199	C	0.402346	0.398647	0.911282
	C200	C	0.096953	0.597129	0.405048
	C201	C	0.909378	0.598346	0.603631
	C202	C	0.097106	0.398610	0.603753
	C203	C	0.907947	0.399427	0.404695
	C204	C	0.902807	0.592505	0.104529
	C205	C	0.102631	0.404167	0.105614
	C206	C	0.101088	0.591204	0.904746
	C207	C	0.903757	0.404845	0.903518
	C208	C	0.103268	0.898263	0.597963
	C209	C	0.102525	0.098670	0.410531
	C210	C	0.903552	0.099169	0.597778
	C211	C	0.903797	0.898996	0.410622
	C212	C	0.597268	0.097901	0.904914
	C213	C	0.408817	0.097561	0.103134
	C214	C	0.597127	0.898010	0.103919
	C215	C	0.409243	0.899969	0.904838
	Zn216	Zn	0.503571	-0.001135	0.754744
	Zn217	Zn	0.503226	-0.001443	0.253355
	Zn218	Zn	0.752981	0.498168	0.004678
	Zn219	Zn	0.251391	0.498025	0.004918
	Zn220	Zn	0.003392	0.748099	0.504071
	Zn221	Zn	0.002960	0.249240	0.504494
	Zn222	Zn	0.002895	0.498639	0.753496
	Zn223	Zn	0.002081	0.498264	0.254767
	Zn224	Zn	0.502727	0.748589	0.004148
	Zn225	Zn	0.502602	0.247977	0.004565
	Zn226	Zn	0.753081	-0.000921	0.504488
	Zn227	Zn	0.253407	-0.001487	0.503839
	N228	N	0.416723	0.961992	0.683957
	N229	N	0.588969	0.036289	0.683449
	N230	N	0.588655	0.961305	0.325455
	N231	N	0.417079	0.035254	0.324970
	N232	N	0.681335	0.412545	0.967130
	N233	N	0.680762	0.583142	0.041888
	N234	N	0.323076	0.583828	0.966730
	N235	N	0.324316	0.413762	0.042418
	N236	N	0.965631	0.676473	0.418887
	N237	N	0.041036	0.676443	0.589615
	N238	N	0.965283	0.320902	0.589318
	N239	N	0.040140	0.320742	0.419316
	N240	N	0.965580	0.413666	0.681896
	N241	N	0.040845	0.583947	0.682847
	N242	N	0.965227	0.583567	0.326365
	N243	N	0.039339	0.412795	0.325923
	N244	N	0.415838	0.678329	0.966886
	N245	N	0.587845	0.676414	0.041488
	N246	N	0.587654	0.319710	0.967160
	N247	N	0.416647	0.319430	0.041717
	N248	N	0.681343	0.961568	0.419017
	N249	N	0.680790	0.036885	0.589017
	N250	N	0.326072	0.960966	0.588260
	N251	N	0.325532	0.035717	0.419500
	N252	N	0.916781	0.461387	0.183094
	N253	N	0.088404	0.535291	0.184404
	N254	N	0.088217	0.460642	0.825420
	N255	N	0.916128	0.535561	0.824220
	N256	N	0.181512	0.913305	0.466896
	N257	N	0.181254	0.083357	0.541261
	N258	N	0.824796	0.083882	0.466937
	N259	N	0.825062	0.914030	0.541526
	N260	N	0.465334	0.176173	0.919803
	N261	N	0.540435	0.176173	0.089199
	N262	N	0.465188	0.820371	0.089450
	N263	N	0.540415	0.820191	0.919568
	N264	N	0.465426	0.913497	0.182198
	N265	N	0.540342	0.083799	0.182122
	N266	N	0.465710	0.084225	0.826182
	N267	N	0.540865	0.912732	0.826149
	N268	N	0.917250	0.177780	0.466907
	N269	N	0.088810	0.177519	0.541253
	N270	N	0.089534	0.819207	0.467361
	N271	N	0.918378	0.820605	0.541541
	N272	N	0.179471	0.459788	0.920522
	N273	N	0.179785	0.536093	0.089862
	N274	N	0.825866	0.460542	0.088423
	N275	N	0.824982	0.536160	0.919751
	O276	O	0.020722	-0.039372	0.929761
	H277	H	0.024141	-0.041282	0.933639
	H278	H	0.017077	-0.047117	0.932638
	O279	O	0.558252	0.578075	0.484653
	H280	H	0.548243	0.583188	0.481451
	H281	H	0.550625	0.583288	0.481209
	O282	O	0.552721	0.578456	0.504456
	H283	H	0.563358	0.575146	0.498736
	H284	H	0.559553	0.585965	0.507003
	O285	O	0.542083	0.572341	0.504702
	H286	H	0.534535	0.575439	0.500983
	H287	H	0.546724	0.570050	0.508443
	O288	O	0.018174	0.927068	-0.062790
	H289	H	0.016788	0.923341	-0.073470
	H290	H	0.022141	0.914312	-0.062307
	O291	O	0.018178	0.903195	0.898192
	H292	H	0.019150	0.903841	0.891511
	H293	H	0.017630	0.905266	0.891157
	O294	O	0.504701	0.580723	0.497355
	H295	H	0.514618	0.577014	0.497517
	H296	H	0.506835	0.581707	0.504305
	O297	O	1.018739	-0.060357	-0.112039
	H298	H	1.018876	-0.053799	-0.110036
	H299	H	1.018720	-0.053651	-0.110009
