data_Molecule from HDF5

_cell_length_a		16.315722
_cell_length_b		16.205846
_cell_length_c		16.440170
_cell_angle_alpha	89.964383
_cell_angle_beta	90.089895
_cell_angle_gamma	90.008111
_symmetry_space_group_name_H-M	'P 1'
_symmetry_Int_Tables_number		1

loop_
	_symmetry_equiv_pos_as_xyz
	x,y,z

loop_
	_atom_site_label
	_atom_site_type_symbol
	_atom_site_fract_x
	_atom_site_fract_y
	_atom_site_fract_z
	H0	H	0.392122	0.833699	0.723939
	H1	H	0.598193	0.156773	0.722978
	H2	H	0.599250	0.832376	0.287299
	H3	H	0.396452	0.158501	0.290278
	H4	H	0.715791	0.391219	0.845972
	H5	H	0.715322	0.597058	0.166773
	H6	H	0.277122	0.596159	0.845738
	H7	H	0.278053	0.391177	0.166711
	H8	H	0.833418	0.710185	0.406268
	H9	H	0.159636	0.709769	0.606340
	H10	H	0.833671	0.278717	0.603759
	H11	H	0.160176	0.279372	0.408241
	H12	H	0.835562	0.390057	0.725094
	H13	H	0.159088	0.594615	0.724039
	H14	H	0.835334	0.597479	0.286505
	H15	H	0.157575	0.389556	0.287118
	H16	H	0.394696	0.711474	0.844705
	H17	H	0.597790	0.712800	0.167049
	H18	H	0.597276	0.276573	0.845364
	H19	H	0.396603	0.277516	0.167971
	H20	H	0.712494	0.831517	0.404568
	H21	H	0.713515	0.156294	0.607023
	H22	H	0.280782	0.831924	0.605355
	H23	H	0.282099	0.159269	0.406223
	H24	H	0.894407	0.331223	0.223407
	H25	H	0.099762	0.656079	0.225247
	H26	H	0.100100	0.331753	0.788853
	H27	H	0.893107	0.655742	0.788098
	H28	H	0.213337	0.894471	0.344503
	H29	H	0.213731	0.096013	0.666697
	H30	H	0.776681	0.096944	0.345841
	H31	H	0.777897	0.890680	0.666291
	H32	H	0.333302	0.210596	0.906798
	H33	H	0.659143	0.209023	0.104237
	H34	H	0.333320	0.778761	0.104945
	H35	H	0.658368	0.779134	0.905887
	H36	H	0.334535	0.891798	0.223849
	H37	H	0.657677	0.097629	0.224540
	H38	H	0.335119	0.100620	0.786146
	H39	H	0.656472	0.890735	0.786164
	H40	H	0.895073	0.212056	0.344878
	H41	H	0.096230	0.209727	0.667547
	H42	H	0.097219	0.776240	0.344384
	H43	H	0.896823	0.777346	0.667854
	H44	H	0.210908	0.329742	0.908468
	H45	H	0.212486	0.657610	0.107764
	H46	H	0.778834	0.331587	0.108018
	H47	H	0.780793	0.656786	0.905986
	H48	H	0.403453	0.111370	0.595149
	H49	H	0.574623	0.882090	0.595933
	H50	H	0.588290	0.109686	0.417978
	H51	H	0.401048	0.878224	0.417210
	H52	H	0.591855	0.396021	0.123296
	H53	H	0.584037	0.584441	0.893366
	H54	H	0.402359	0.585354	0.120595
	H55	H	0.406359	0.404217	0.893232
	H56	H	0.110633	0.584506	0.416084
	H57	H	0.878720	0.585448	0.606799
	H58	H	0.113190	0.398597	0.597897
	H59	H	0.882834	0.404305	0.417261
	H60	H	0.111275	0.404588	0.597392
	H61	H	0.881310	0.590418	0.592970
	H62	H	0.111051	0.582594	0.415078
	H63	H	0.881723	0.406126	0.411972
	H64	H	0.407008	0.584120	0.119029
	H65	H	0.589239	0.590121	0.890098
	H66	H	0.592840	0.410989	0.119026
	H67	H	0.403424	0.400400	0.890788
	H68	H	0.587569	0.111349	0.411923
	H69	H	0.592183	0.879252	0.586590
	H70	H	0.403834	0.112778	0.599187
	H71	H	0.403830	0.876493	0.408551
	H72	H	0.913400	0.606977	0.095200
	H73	H	0.078802	0.382819	0.092781
	H74	H	0.087395	0.610480	0.915858
	H75	H	0.912304	0.380443	0.917861
	H76	H	0.091758	0.902314	0.620682
	H77	H	0.092117	0.079778	0.392625
	H78	H	0.909967	0.084810	0.617469
	H79	H	0.907257	0.898414	0.391429
	H80	H	0.609524	0.073378	0.908097
	H81	H	0.377973	0.084606	0.106560
	H82	H	0.612830	0.902547	0.100742
	H83	H	0.378848	0.905815	0.906220
	H84	H	0.609976	0.903399	0.094005
	H85	H	0.380114	0.092322	0.095552
	H86	H	0.615884	0.094137	0.907868
	H87	H	0.379221	0.896932	0.917207
	H88	H	0.901751	0.089636	0.622798
	H89	H	0.082098	0.088020	0.392566
	H90	H	0.087660	0.905971	0.618901
	H91	H	0.899569	0.902321	0.390226
	H92	H	0.086598	0.609547	0.914479
	H93	H	0.096607	0.376804	0.092164
	H94	H	0.901602	0.609431	0.093159
	H95	H	0.901622	0.377741	0.920158
	H96	H	0.407700	0.110896	0.597615
	H97	H	0.589539	0.874384	0.605806
	H98	H	0.582319	0.109338	0.414873
	H99	H	0.409874	0.881552	0.414630
	H100	H	0.579458	0.403038	0.117563
	H101	H	0.592132	0.582848	0.892002
	H102	H	0.405671	0.588009	0.120866
	H103	H	0.401203	0.404335	0.891983
	H104	H	0.112108	0.584725	0.414236
	H105	H	0.885003	0.576509	0.596062
	H106	H	0.113165	0.402881	0.602864
	H107	H	0.880186	0.399748	0.413527
	H108	H	0.906348	0.611941	0.103675
	H109	H	0.086832	0.374512	0.108737
	H110	H	0.086715	0.610145	0.915203
	H111	H	0.905359	0.375512	0.909816
	H112	H	0.086692	0.900235	0.619681
	H113	H	0.093555	0.092157	0.387433
	H114	H	0.900994	0.079891	0.619170
	H115	H	0.905947	0.907172	0.393688
	H116	H	0.606735	0.084684	0.925600
	H117	H	0.383841	0.079377	0.094954
	H118	H	0.609913	0.909015	0.098538
	H119	H	0.384068	0.910862	0.918472
	C120	C	0.374740	0.004015	0.627145
	C121	C	0.616763	0.985573	0.627046
	C122	C	0.616795	0.002676	0.384593
	C123	C	0.375283	0.986696	0.384444
	C124	C	0.618125	0.372726	0.014188
	C125	C	0.618448	0.616551	0.997988
	C126	C	0.374416	0.616010	0.014421
	C127	C	0.373982	0.372332	0.998017
	C128	C	0.004326	0.614865	0.384723
	C129	C	0.988746	0.614790	0.628237
	C130	C	0.005317	0.371936	0.628344
	C131	C	0.988342	0.372593	0.384787
	C132	C	0.875810	0.502218	0.127685
	C133	C	0.118202	0.485650	0.128699
	C134	C	0.117261	0.502368	0.885743
	C135	C	0.875782	0.485091	0.885387
	C136	C	0.118765	0.872729	0.513575
	C137	C	0.118920	0.116327	0.497279
	C138	C	0.874267	0.115527	0.514082
	C139	C	0.874013	0.871434	0.497677
	C140	C	0.504100	0.115652	0.884164
	C141	C	0.487726	0.115841	0.128340
	C142	C	0.504283	0.873418	0.127653
	C143	C	0.487323	0.873567	0.883852
	C144	C	0.373630	0.881925	0.684694
	C145	C	0.617522	0.107851	0.684399
	C146	C	0.618009	0.880849	0.326444
	C147	C	0.376513	0.109695	0.328278
	C148	C	0.676292	0.372049	0.893656
	C149	C	0.676141	0.616438	0.118838
	C150	C	0.316276	0.615650	0.893779
	C151	C	0.317377	0.372423	0.119000
	C152	C	0.882483	0.672409	0.385693
	C153	C	0.111003	0.671296	0.626439
	C154	C	0.882608	0.316052	0.624997
	C155	C	0.110939	0.316595	0.387104
	C156	C	0.883710	0.371245	0.685528
	C157	C	0.110602	0.614508	0.685354
	C158	C	0.883262	0.615827	0.326487
	C159	C	0.109760	0.371619	0.327174
	C160	C	0.374732	0.673146	0.893074
	C161	C	0.617613	0.673975	0.118964
	C162	C	0.617430	0.314981	0.893353
	C163	C	0.376156	0.315508	0.119372
	C164	C	0.674308	0.880393	0.384744
	C165	C	0.674878	0.107667	0.626804
	C166	C	0.318179	0.881153	0.625732
	C167	C	0.319509	0.109924	0.385865
	C168	C	0.875162	0.380030	0.184767
	C169	C	0.118806	0.607546	0.186376
	C170	C	0.118394	0.379934	0.828391
	C171	C	0.874697	0.607243	0.827425
	C172	C	0.175157	0.874065	0.392688
	C173	C	0.175083	0.115304	0.618712
	C174	C	0.816202	0.115977	0.393629
	C175	C	0.816844	0.871327	0.618375
	C176	C	0.382184	0.172883	0.886050
	C177	C	0.610254	0.171427	0.125562
	C178	C	0.382541	0.816369	0.125843
	C179	C	0.609351	0.816643	0.885251
	C180	C	0.382940	0.872801	0.184999
	C181	C	0.609425	0.115901	0.185372
	C182	C	0.383004	0.118028	0.826120
	C183	C	0.608365	0.872608	0.825955
	C184	C	0.875375	0.173095	0.393157
	C185	C	0.116536	0.171911	0.619231
	C186	C	0.117154	0.815490	0.392545
	C187	C	0.876275	0.814963	0.619140
	C188	C	0.173712	0.379018	0.887757
	C189	C	0.174839	0.608285	0.127740
	C190	C	0.817859	0.380284	0.127253
	C191	C	0.818504	0.607709	0.885764
	C192	C	0.398257	0.089634	0.604134
	C193	C	0.592414	0.900499	0.603169
	C194	C	0.593120	0.087944	0.407996
	C195	C	0.398239	0.900910	0.406952
	C196	C	0.594898	0.396537	0.098142
	C197	C	0.595236	0.592761	0.913885
	C198	C	0.398267	0.592766	0.098361
	C199	C	0.396938	0.396000	0.913765
	C200	C	0.089186	0.590807	0.408259
	C201	C	0.903751	0.590989	0.605300
	C202	C	0.090329	0.395301	0.606048
	C203	C	0.903537	0.396346	0.407612
	C204	C	0.900018	0.587602	0.104213
	C205	C	0.094244	0.400174	0.104966
	C206	C	0.093786	0.587723	0.908576
	C207	C	0.899649	0.399967	0.909000
	C208	C	0.095600	0.896060	0.597782
	C209	C	0.095991	0.093400	0.412887
	C210	C	0.897600	0.091733	0.598057
	C211	C	0.897151	0.895592	0.413506
	C212	C	0.588617	0.091092	0.907100
	C213	C	0.402728	0.092309	0.105633
	C214	C	0.589066	0.897843	0.104515
	C215	C	0.402632	0.897608	0.907297
	Zn216	Zn	0.495464	-0.005068	0.755142
	Zn217	Zn	0.496381	-0.005470	0.256750
	Zn218	Zn	0.747899	0.494306	0.006207
	Zn219	Zn	0.245004	0.494223	0.006554
	Zn220	Zn	-0.003462	0.743712	0.506283
	Zn221	Zn	-0.002968	0.244125	0.505904
	Zn222	Zn	-0.003148	0.493642	0.757289
	Zn223	Zn	-0.003293	0.493664	0.255850
	Zn224	Zn	0.495995	0.745293	0.005417
	Zn225	Zn	0.496403	0.243452	0.005896
	Zn226	Zn	0.744715	-0.006632	0.505868
	Zn227	Zn	0.247873	-0.004568	0.505645
	N228	N	0.408202	0.959219	0.685524
	N229	N	0.582185	0.030810	0.684704
	N230	N	0.583028	0.957852	0.326386
	N231	N	0.410348	0.031946	0.327054
	N232	N	0.676887	0.407346	0.969741
	N233	N	0.677032	0.581567	0.042619
	N234	N	0.315851	0.581132	0.970095
	N235	N	0.315905	0.407006	0.042765
	N236	N	0.958837	0.671770	0.421216
	N237	N	0.034226	0.671715	0.591766
	N238	N	0.959325	0.316095	0.590468
	N239	N	0.034562	0.317062	0.422357
	N240	N	0.960992	0.404925	0.687961
	N241	N	0.033455	0.579989	0.686449
	N242	N	0.960172	0.581082	0.325731
	N243	N	0.032510	0.405758	0.325635
	N244	N	0.410361	0.673437	0.968938
	N245	N	0.582519	0.674234	0.042877
	N246	N	0.582034	0.315349	0.969140
	N247	N	0.410744	0.315247	0.042955
	N248	N	0.673601	0.957176	0.420366
	N249	N	0.674534	0.030626	0.591946
	N250	N	0.318760	0.958187	0.590679
	N251	N	0.318758	0.032433	0.420028
	N252	N	0.910713	0.456883	0.184882
	N253	N	0.083992	0.530147	0.186660
	N254	N	0.083848	0.457250	0.827138
	N255	N	0.909350	0.529886	0.826827
	N256	N	0.176292	0.908737	0.468986
	N257	N	0.176640	0.081423	0.542074
	N258	N	0.815253	0.080991	0.469653
	N259	N	0.815475	0.905957	0.542001
	N260	N	0.458514	0.171526	0.921570
	N261	N	0.533655	0.171777	0.090960
	N262	N	0.458952	0.816757	0.090937
	N263	N	0.533016	0.817084	0.920497
	N264	N	0.459913	0.907542	0.186414
	N265	N	0.532031	0.082251	0.187241
	N266	N	0.459865	0.083244	0.824552
	N267	N	0.531270	0.907032	0.824747
	N268	N	0.910835	0.172993	0.469129
	N269	N	0.082247	0.172703	0.542842
	N270	N	0.082704	0.814623	0.468724
	N271	N	0.910998	0.814906	0.542966
	N272	N	0.173162	0.456252	0.922739
	N273	N	0.174599	0.531319	0.092672
	N274	N	0.818027	0.457571	0.092445
	N275	N	0.819201	0.530967	0.921264
	O276	O	-0.025985	-0.022464	0.066620
	H277	H	-0.019328	-0.016243	0.065531
	H278	H	-0.016832	-0.018228	0.062678
	O279	O	0.317986	0.627613	0.458992
	H280	H	0.330550	0.636841	0.451210
	H281	H	0.308073	0.625538	0.467698
	O282	O	2.011240	0.830236	0.896844
	H283	H	2.000695	0.826258	0.911008
	H284	H	1.999488	0.829814	0.896526
	O285	O	-0.589206	0.403777	0.522161
	H286	H	-0.585898	0.407131	0.524356
	H287	H	-0.593502	0.418224	0.515372
	O288	O	0.418488	0.457638	0.435186
	H289	H	0.422877	0.455682	0.428277
	H290	H	0.408237	0.457739	0.440108
	O291	O	0.473612	0.486306	0.431907
	H292	H	0.479974	0.486624	0.434273
	H293	H	0.487446	0.485530	0.432511
	O294	O	1.024639	0.986040	0.963711
	H295	H	1.025397	0.988466	0.965126
	H296	H	1.037180	0.981180	0.959963
	O297	O	0.092337	0.104343	0.043222
	H298	H	0.095296	0.105181	0.040476
	H299	H	0.080603	0.105177	0.052334
	O300	O	0.364318	0.431564	0.423784
	H301	H	0.357462	0.444102	0.426204
	H302	H	0.347685	0.442108	0.416225
	O303	O	-0.117519	0.958224	0.983836
	H304	H	-0.106955	0.954668	0.990079
	H305	H	-0.113420	0.971078	0.991671
	O306	O	0.570819	0.560711	0.419215
	H307	H	0.575318	0.563617	0.420763
	H308	H	0.566330	0.560038	0.418209
	O309	O	1.503143	0.554162	-0.559879
	H310	H	1.492153	0.554290	-0.569582
	H311	H	1.504879	0.560560	-0.562661
	O312	O	-0.091508	0.045492	1.119780
	H313	H	-0.083616	0.047551	1.097121
	H314	H	-0.081880	0.037445	1.118170
	O315	O	-0.094441	0.963853	-0.063214
	H316	H	-0.101491	0.960239	-0.052753
	H317	H	-0.091103	0.970135	-0.063730
	O318	O	0.649296	0.371195	0.483267
	H319	H	0.634054	0.370776	0.491032
	H320	H	0.665586	0.353558	0.476015
	O321	O	0.377995	0.659001	0.346068
	H322	H	0.378331	0.662870	0.350034
	H323	H	0.392571	0.668777	0.350918
	O324	O	0.550019	0.499401	0.336449
	H325	H	0.543521	0.503268	0.332247
	H326	H	0.561978	0.485097	0.336448
	O327	O	0.600718	0.511520	0.387687
	H328	H	0.596787	0.502332	0.376949
	H329	H	0.603631	0.500877	0.376043
	O330	O	0.371853	0.530417	0.571748
	H331	H	0.374039	0.523563	0.579342
	H332	H	0.375922	0.538430	0.560182
	O333	O	0.056637	0.921858	0.925193
	H334	H	0.046939	0.919942	0.920259
	H335	H	0.059201	0.902896	0.927718
	O336	O	1.031161	1.056068	0.946571
	H337	H	1.023237	1.060234	0.938016
	H338	H	1.029790	1.063919	0.936899
	O339	O	0.529416	0.525103	0.618186
	H340	H	0.532145	0.538956	0.628863
	H341	H	0.535060	0.515539	0.619172
	O342	O	0.934258	-0.024153	0.149813
	H343	H	0.927006	-0.030190	0.158581
	H344	H	0.930522	-0.031274	0.138436
	O345	O	0.515706	0.585780	0.505464
	H346	H	0.509229	0.586950	0.506222
	H347	H	0.519897	0.588087	0.498853
	O348	O	0.849419	1.061339	0.848117
	H349	H	0.850393	1.056774	0.856240
	H350	H	0.839296	1.060117	0.839124
	O351	O	1.025163	0.975107	-0.030287
	H352	H	1.028377	0.989834	-0.032063
	H353	H	1.009637	0.970041	-0.025362
	O354	O	0.510891	0.480015	0.424788
	H355	H	0.516663	0.481739	0.424728
	H356	H	0.517248	0.476875	0.409239
	O357	O	0.151743	-0.015859	0.034851
	H358	H	0.136698	-0.032393	0.033372
	H359	H	0.160444	-0.005626	0.038006
	O360	O	0.051910	0.069068	0.136521
	H361	H	0.059608	0.065145	0.132662
	H362	H	0.047576	0.080737	0.121639
	O363	O	0.972684	0.863230	0.132258
	H364	H	0.977749	0.868921	0.145011
	H365	H	0.973440	0.870357	0.128861
	O366	O	-0.057360	0.074110	-0.069279
	H367	H	-0.063835	0.073497	-0.067021
	H368	H	-0.055331	0.073258	-0.066299
	O369	O	0.638758	0.446869	0.548563
	H370	H	0.649295	0.456622	0.549008
	H371	H	0.626087	0.439193	0.548297
	O372	O	0.461972	0.510573	0.663594
	H373	H	0.469185	0.510538	0.655865
	H374	H	0.469847	0.505358	0.673004
	O375	O	0.561397	0.429376	0.614919
	H376	H	0.560030	0.414078	0.614061
	H377	H	0.557374	0.433531	0.602820
	O378	O	0.556802	0.553103	0.668047
	H379	H	0.553209	0.528357	0.676255
	H380	H	0.555806	0.568666	0.661688
	O381	O	0.465086	0.498267	0.560256
	H382	H	0.455440	0.508116	0.563135
	H383	H	0.475510	0.505050	0.572137
	O384	O	-0.191563	0.957184	0.024554
	H385	H	-0.200050	0.956908	0.035707
	H386	H	-0.195813	0.962538	0.035593
	O387	O	1.053464	-0.075167	0.876985
	H388	H	1.055664	-0.071055	0.873118
	H389	H	1.044235	-0.064204	0.875398
	O390	O	0.050624	1.046843	0.097274
	H391	H	0.064613	1.040188	0.098678
	H392	H	0.050589	1.042080	0.100882
	O393	O	1.041667	0.987925	0.061455
	H394	H	1.042614	0.990366	0.058449
	H395	H	1.051275	0.990480	0.056857
	O396	O	0.577461	0.469150	0.659048
	H397	H	0.577617	0.459639	0.657747
	H398	H	0.580183	0.472127	0.663992
	O399	O	0.036871	1.127251	0.993522
	H400	H	0.039052	1.125785	0.987413
	H401	H	0.039043	1.126366	0.971148
	O402	O	1.010668	1.010936	0.940723
	H403	H	1.019160	1.008289	0.937927
	H404	H	1.023436	1.006043	0.942663
	O405	O	0.559103	0.449999	0.573451
	H406	H	0.549297	0.450655	0.570927
	H407	H	0.562228	0.447587	0.582428
