data_Molecule from HDF5

_cell_length_a		16.462884
_cell_length_b		16.197883
_cell_length_c		16.209074
_cell_angle_alpha	90.230915
_cell_angle_beta	90.061016
_cell_angle_gamma	90.244906
_symmetry_space_group_name_H-M	'P 1'
_symmetry_Int_Tables_number		1

loop_
	_symmetry_equiv_pos_as_xyz
	x,y,z

loop_
	_atom_site_label
	_atom_site_type_symbol
	_atom_site_fract_x
	_atom_site_fract_y
	_atom_site_fract_z
	H0	H	0.406011	0.833517	0.702102
	H1	H	0.600633	0.163660	0.704044
	H2	H	0.600193	0.834510	0.276682
	H3	H	0.407946	0.163758	0.277797
	H4	H	0.719446	0.397620	0.826966
	H5	H	0.721635	0.601807	0.153158
	H6	H	0.289559	0.597336	0.825849
	H7	H	0.286476	0.396523	0.152650
	H8	H	0.841659	0.712213	0.391723
	H9	H	0.166012	0.716266	0.590141
	H10	H	0.841471	0.282836	0.588051
	H11	H	0.164367	0.281274	0.388889
	H12	H	0.841450	0.400539	0.704250
	H13	H	0.166187	0.599275	0.707061
	H14	H	0.842096	0.597005	0.274410
	H15	H	0.165162	0.399614	0.273629
	H16	H	0.407256	0.710167	0.825545
	H17	H	0.602751	0.713003	0.154454
	H18	H	0.599295	0.286122	0.825075
	H19	H	0.405990	0.285753	0.154728
	H20	H	0.717926	0.835727	0.389715
	H21	H	0.720006	0.162428	0.593332
	H22	H	0.286769	0.835627	0.591445
	H23	H	0.286940	0.161596	0.388224
	H24	H	0.905857	0.334053	0.201914
	H25	H	0.102816	0.663572	0.203290
	H26	H	0.099216	0.333310	0.776772
	H27	H	0.908039	0.663880	0.778289
	H28	H	0.220620	0.894639	0.328485
	H29	H	0.221368	0.102458	0.652884
	H30	H	0.787328	0.099039	0.327390
	H31	H	0.786895	0.898383	0.653707
	H32	H	0.342128	0.214013	0.889181
	H33	H	0.665774	0.215321	0.089071
	H34	H	0.341952	0.782080	0.088295
	H35	H	0.666791	0.784171	0.891930
	H36	H	0.341693	0.898412	0.206370
	H37	H	0.665678	0.098329	0.205100
	H38	H	0.341652	0.095423	0.774641
	H39	H	0.665956	0.899441	0.773247
	H40	H	0.905334	0.210481	0.325609
	H41	H	0.100672	0.212075	0.654825
	H42	H	0.097600	0.788126	0.324926
	H43	H	0.906808	0.786229	0.655355
	H44	H	0.221047	0.335897	0.885422
	H45	H	0.220611	0.661909	0.090962
	H46	H	0.786703	0.336005	0.090381
	H47	H	0.788689	0.662512	0.890145
	H48	H	0.409586	0.117768	0.588487
	H49	H	0.593855	0.881038	0.586801
	H50	H	0.604352	0.116756	0.402839
	H51	H	0.413834	0.883589	0.400505
	H52	H	0.599530	0.406853	0.107599
	H53	H	0.601788	0.580889	0.874969
	H54	H	0.414164	0.593186	0.106962
	H55	H	0.408412	0.411893	0.874927
	H56	H	0.119345	0.593502	0.394439
	H57	H	0.889562	0.595262	0.580146
	H58	H	0.117708	0.411427	0.584268
	H59	H	0.890346	0.407929	0.399263
	H60	H	0.120215	0.401500	0.585880
	H61	H	0.891461	0.586707	0.582420
	H62	H	0.119460	0.595735	0.397562
	H63	H	0.887305	0.405840	0.391137
	H64	H	0.406857	0.590493	0.108466
	H65	H	0.589128	0.590395	0.875518
	H66	H	0.596414	0.409939	0.106328
	H67	H	0.415603	0.402927	0.873614
	H68	H	0.597760	0.118907	0.391256
	H69	H	0.593204	0.884772	0.576120
	H70	H	0.417310	0.112962	0.580688
	H71	H	0.406895	0.881247	0.401416
	H72	H	0.911038	0.614995	0.076924
	H73	H	0.094325	0.379718	0.086767
	H74	H	0.102636	0.617473	0.896714
	H75	H	0.906803	0.380298	0.896770
	H76	H	0.084713	0.919480	0.600330
	H77	H	0.098177	0.085082	0.374237
	H78	H	0.911586	0.095962	0.609440
	H79	H	0.911032	0.899229	0.372374
	H80	H	0.623072	0.106300	0.897641
	H81	H	0.386588	0.092331	0.089695
	H82	H	0.618088	0.903950	0.081436
	H83	H	0.387733	0.903852	0.890420
	H84	H	0.617823	0.909170	0.082900
	H85	H	0.388739	0.096464	0.080019
	H86	H	0.613203	0.086122	0.908800
	H87	H	0.388845	0.899184	0.899759
	H88	H	0.904858	0.087960	0.608083
	H89	H	0.092475	0.087770	0.375277
	H90	H	0.092255	0.890965	0.611775
	H91	H	0.902261	0.906078	0.371153
	H92	H	0.093565	0.615579	0.896704
	H93	H	0.090843	0.385110	0.075927
	H94	H	0.907735	0.617585	0.084510
	H95	H	0.911763	0.382589	0.896207
	H96	H	0.406162	0.115830	0.577300
	H97	H	0.603367	0.880643	0.579562
	H98	H	0.590765	0.113907	0.401475
	H99	H	0.410627	0.881554	0.394770
	H100	H	0.595149	0.405692	0.107153
	H101	H	0.602448	0.596367	0.870275
	H102	H	0.412077	0.585511	0.104629
	H103	H	0.405010	0.401948	0.870496
	H104	H	0.118983	0.591602	0.397638
	H105	H	0.887726	0.592470	0.588883
	H106	H	0.117138	0.405419	0.576305
	H107	H	0.887612	0.399960	0.398130
	H108	H	0.916079	0.614713	0.083855
	H109	H	0.102235	0.381292	0.077540
	H110	H	0.098990	0.613576	0.904064
	H111	H	0.909820	0.382802	0.900458
	H112	H	0.113638	0.914286	0.611174
	H113	H	0.097448	0.091164	0.372768
	H114	H	0.914525	0.086697	0.604918
	H115	H	0.912264	0.910325	0.375838
	H116	H	0.620277	0.085103	0.885110
	H117	H	0.390504	0.086213	0.082341
	H118	H	0.619788	0.905547	0.086600
	H119	H	0.391834	0.909439	0.899095
	C120	C	0.382632	0.006910	0.611021
	C121	C	0.625391	0.990538	0.611159
	C122	C	0.625210	0.007889	0.369216
	C123	C	0.381889	0.990442	0.369154
	C124	C	0.625112	0.377913	-0.001457
	C125	C	0.626259	0.619647	0.981644
	C126	C	0.382815	0.618621	-0.001614
	C127	C	0.381478	0.376616	0.981325
	C128	C	0.012092	0.621062	0.368057
	C129	C	0.996380	0.621214	0.612831
	C130	C	0.011714	0.376909	0.611392
	C131	C	0.994983	0.376003	0.367031
	C132	C	0.882378	0.507557	0.110967
	C133	C	0.125340	0.490236	0.110345
	C134	C	0.125811	0.507034	0.868917
	C135	C	0.881887	0.490210	0.869062
	C136	C	0.124865	0.878175	0.499429
	C137	C	0.124967	0.119100	0.481999
	C138	C	0.882016	0.118895	0.498659
	C139	C	0.881146	0.876955	0.481822
	C140	C	0.511910	0.120352	0.867954
	C141	C	0.495450	0.121254	0.112595
	C142	C	0.511987	0.876222	0.112756
	C143	C	0.496246	0.875666	0.867180
	C144	C	0.385230	0.883158	0.665420
	C145	C	0.621913	0.114362	0.666880
	C146	C	0.621558	0.883917	0.313882
	C147	C	0.386057	0.114083	0.314334
	C148	C	0.680745	0.378367	0.875545
	C149	C	0.682707	0.620518	0.104499
	C150	C	0.327731	0.616976	0.874821
	C151	C	0.325135	0.377291	0.104104
	C152	C	0.890162	0.674960	0.371026
	C153	C	0.117616	0.677915	0.610827
	C154	C	0.889858	0.321113	0.608617
	C155	C	0.116384	0.319938	0.368776
	C156	C	0.889788	0.379606	0.666436
	C157	C	0.117876	0.619652	0.668862
	C158	C	0.890523	0.617718	0.312272
	C159	C	0.116667	0.378297	0.311098
	C160	C	0.386314	0.672941	0.874443
	C161	C	0.623647	0.675800	0.105095
	C162	C	0.621031	0.323035	0.874604
	C163	C	0.384610	0.322287	0.105122
	C164	C	0.679964	0.884473	0.370033
	C165	C	0.681595	0.113589	0.612038
	C166	C	0.325918	0.884143	0.610322
	C167	C	0.326093	0.113045	0.369513
	C168	C	0.884760	0.383662	0.165404
	C169	C	0.122972	0.614050	0.165663
	C170	C	0.121499	0.382987	0.813365
	C171	C	0.886152	0.614282	0.814749
	C172	C	0.181147	0.877156	0.376442
	C173	C	0.181806	0.120368	0.604439
	C174	C	0.826094	0.118158	0.375911
	C175	C	0.825531	0.878610	0.605110
	C176	C	0.390382	0.175761	0.869459
	C177	C	0.617483	0.176657	0.109282
	C178	C	0.390334	0.820442	0.109551
	C179	C	0.618051	0.821080	0.870305
	C180	C	0.390322	0.878132	0.168319
	C181	C	0.617443	0.118672	0.167186
	C182	C	0.390040	0.116825	0.812423
	C183	C	0.617701	0.878478	0.811530
	C184	C	0.884651	0.173576	0.375075
	C185	C	0.122111	0.175288	0.605278
	C186	C	0.120322	0.823807	0.374957
	C187	C	0.885236	0.823128	0.606023
	C188	C	0.181672	0.384160	0.867813
	C189	C	0.181859	0.613269	0.109932
	C190	C	0.825623	0.384654	0.109780
	C191	C	0.827047	0.613712	0.870509
	C192	C	0.404739	0.093288	0.588702
	C193	C	0.603306	0.904389	0.587629
	C194	C	0.603765	0.094214	0.391869
	C195	C	0.403978	0.904219	0.392114
	C196	C	0.603389	0.400674	0.084727
	C197	C	0.604035	0.596216	0.895777
	C198	C	0.404534	0.596386	0.084399
	C199	C	0.403215	0.398903	0.895285
	C200	C	0.097166	0.599720	0.390031
	C201	C	0.911535	0.598337	0.590373
	C202	C	0.096518	0.399418	0.588676
	C203	C	0.910488	0.398148	0.389542
	C204	C	0.904951	0.593584	0.088339
	C205	C	0.102534	0.404283	0.086905
	C206	C	0.104601	0.593219	0.892333
	C207	C	0.903039	0.404027	0.891281
	C208	C	0.103248	0.901446	0.585382
	C209	C	0.102496	0.095017	0.396148
	C210	C	0.903983	0.096658	0.585100
	C211	C	0.902273	0.898847	0.395497
	C212	C	0.596794	0.098923	0.890583
	C213	C	0.410509	0.098419	0.090362
	C214	C	0.596702	0.899451	0.090458
	C215	C	0.411359	0.897528	0.889828
	Zn216	Zn	0.504035	-0.001463	0.738776
	Zn217	Zn	0.503855	-0.001054	0.241673
	Zn218	Zn	0.753878	0.499274	-0.009946
	Zn219	Zn	0.254041	0.498306	-0.010151
	Zn220	Zn	0.003853	0.750450	0.490408
	Zn221	Zn	0.003443	0.246685	0.489774
	Zn222	Zn	0.003924	0.498662	0.741689
	Zn223	Zn	0.004105	0.498999	0.238501
	Zn224	Zn	0.504439	0.746519	-0.009973
	Zn225	Zn	0.503595	0.249728	-0.009871
	Zn226	Zn	0.753566	-0.000644	0.490323
	Zn227	Zn	0.253746	-0.001605	0.490514
	N228	N	0.419845	0.960618	0.665855
	N229	N	0.587723	0.036690	0.666481
	N230	N	0.588271	0.961572	0.313315
	N231	N	0.419979	0.036651	0.314004
	N232	N	0.683205	0.412058	0.953694
	N233	N	0.684507	0.586278	0.026773
	N234	N	0.325417	0.583882	0.952796
	N235	N	0.323020	0.410420	0.026053
	N236	N	0.966674	0.677224	0.404966
	N237	N	0.040941	0.679017	0.576865
	N238	N	0.966615	0.319330	0.575166
	N239	N	0.039910	0.318207	0.402911
	N240	N	0.966433	0.413837	0.668100
	N241	N	0.041492	0.585064	0.670202
	N242	N	0.967461	0.584842	0.310461
	N243	N	0.040263	0.412227	0.309656
	N244	N	0.419939	0.674139	0.952120
	N245	N	0.589179	0.675156	0.027783
	N246	N	0.587213	0.322663	0.952045
	N247	N	0.419072	0.321826	0.027933
	N248	N	0.682539	0.962616	0.403650
	N249	N	0.683788	0.035740	0.577910
	N250	N	0.324012	0.962278	0.577309
	N251	N	0.323432	0.034942	0.402738
	N252	N	0.919270	0.461134	0.166429
	N253	N	0.088450	0.536554	0.165952
	N254	N	0.087425	0.460321	0.814054
	N255	N	0.919761	0.536630	0.813879
	N256	N	0.184318	0.910268	0.454754
	N257	N	0.183892	0.086260	0.526573
	N258	N	0.824344	0.084905	0.453874
	N259	N	0.822930	0.911524	0.526970
	N260	N	0.467013	0.177952	0.903339
	N261	N	0.540644	0.178359	0.076119
	N262	N	0.466899	0.819034	0.075737
	N263	N	0.541458	0.819245	0.904252
	N264	N	0.467072	0.912104	0.170258
	N265	N	0.540520	0.084997	0.169619
	N266	N	0.466576	0.083234	0.811336
	N267	N	0.540980	0.911797	0.809693
	N268	N	0.918824	0.174171	0.452544
	N269	N	0.087502	0.174649	0.527984
	N270	N	0.085943	0.824400	0.452259
	N271	N	0.918964	0.822052	0.528528
	N272	N	0.184541	0.462183	0.901625
	N273	N	0.183467	0.535297	0.076116
	N274	N	0.824038	0.462684	0.076573
	N275	N	0.824425	0.535619	0.903680
	O276	O	0.967498	0.926694	-0.040137
	H277	H	0.966308	0.931862	-0.036303
	H278	H	0.964804	0.929711	-0.032394
	O279	O	-0.073571	0.063852	0.991950
	H280	H	-0.066720	0.062253	1.003099
	H281	H	-0.082938	0.071035	1.004992
	O282	O	0.067713	0.056849	-0.017131
	H283	H	0.067743	0.064914	-0.014581
	H284	H	0.070156	0.077057	-0.023664
	O285	O	0.484147	0.584732	0.452321
	H286	H	0.475446	0.587531	0.460075
	H287	H	0.485582	0.587142	0.447696
	O288	O	0.030592	-0.001772	0.119311
	H289	H	0.031961	-0.001230	0.123584
	H290	H	0.032902	-0.010403	0.119853
	O291	O	0.058193	1.104560	0.065254
	H292	H	0.060002	1.101518	0.064578
	H293	H	0.058885	1.110503	0.067845
	O294	O	-0.013506	1.028613	0.075563
	H295	H	-0.014854	1.022340	0.072932
	H296	H	0.000411	1.026180	0.078117
	O297	O	0.524666	0.542244	0.521258
	H298	H	0.527592	0.549637	0.523514
	H299	H	0.534867	0.539680	0.520507
	O300	O	0.530290	0.480175	0.503936
	H301	H	0.522810	0.477628	0.509835
	H302	H	0.536197	0.482873	0.502871
	O303	O	1.037808	0.101451	1.024965
	H304	H	1.037423	0.089524	1.025576
	H305	H	1.039733	0.105572	1.036280
	O306	O	0.088225	0.988945	1.012394
	H307	H	0.093807	0.989571	1.012682
	H308	H	0.083571	0.997897	1.007144
	O309	O	0.007088	0.927872	1.011539
	H310	H	0.019649	0.923226	1.005665
	H311	H	0.015257	0.933327	1.012973
	O312	O	0.071153	-0.062766	0.904749
	H313	H	0.071862	-0.062244	0.902485
	H314	H	0.066637	-0.055452	0.894722
	O315	O	0.491965	0.519068	0.518548
	H316	H	0.488394	0.523691	0.523565
	H317	H	0.503550	0.528157	0.519587
	O318	O	0.043447	0.013786	0.889474
	H319	H	0.047693	0.023205	0.885183
	H320	H	0.037739	0.005528	0.890985
	O321	O	0.509784	0.530548	0.479467
	H322	H	0.502654	0.525212	0.481598
	H323	H	0.508314	0.529743	0.478005
	O324	O	1.028461	0.035709	1.018349
	H325	H	1.025915	0.020758	1.005772
	H326	H	1.032471	0.034573	1.017131
	O327	O	1.115064	0.945638	0.927584
	H328	H	1.105741	0.934055	0.923360
	H329	H	1.100954	0.953543	0.932030
	O330	O	0.464089	0.499573	0.546897
	H331	H	0.466555	0.494404	0.543831
	H332	H	0.459796	0.493830	0.549330
	O333	O	0.057445	-0.020935	0.991613
	H334	H	0.057228	-0.016908	0.980058
	H335	H	0.059279	-0.031646	0.997376
	O336	O	0.482519	0.568549	0.484231
	H337	H	0.481922	0.577685	0.485439
	H338	H	0.476377	0.572504	0.478121
	O339	O	0.447368	0.507929	0.559832
	H340	H	0.449145	0.511208	0.553118
	H341	H	0.458643	0.503581	0.553099
	O342	O	0.544199	0.564738	0.514881
	H343	H	0.547499	0.566296	0.505554
	H344	H	0.537727	0.557083	0.518903
	O345	O	0.487940	0.465555	0.546528
	H346	H	0.483784	0.469078	0.549980
	H347	H	0.480117	0.468188	0.554526
