data_Molecule from HDF5

_cell_length_a		16.428541
_cell_length_b		16.326129
_cell_length_c		16.527085
_cell_angle_alpha	90.043000
_cell_angle_beta	90.011626
_cell_angle_gamma	89.807164
_symmetry_space_group_name_H-M	'P 1'
_symmetry_Int_Tables_number		1

loop_
	_symmetry_equiv_pos_as_xyz
	x,y,z

loop_
	_atom_site_label
	_atom_site_type_symbol
	_atom_site_fract_x
	_atom_site_fract_y
	_atom_site_fract_z
	H0	H	0.382416	0.867567	0.714900
	H1	H	0.599115	0.182251	0.708673
	H2	H	0.600932	0.865224	0.264597
	H3	H	0.387461	0.182808	0.268491
	H4	H	0.720370	0.410726	0.830992
	H5	H	0.719455	0.630124	0.143120
	H6	H	0.271135	0.630767	0.830656
	H7	H	0.274721	0.419374	0.146393
	H8	H	0.835027	0.743565	0.382042
	H9	H	0.153499	0.742265	0.590306
	H10	H	0.835413	0.302137	0.591210
	H11	H	0.154787	0.303959	0.387827
	H12	H	0.838619	0.410438	0.713238
	H13	H	0.153377	0.626711	0.707389
	H14	H	0.836955	0.629414	0.263823
	H15	H	0.154531	0.417100	0.268370
	H16	H	0.387196	0.746632	0.831506
	H17	H	0.601413	0.745185	0.144749
	H18	H	0.601001	0.297828	0.830906
	H19	H	0.393515	0.305196	0.147637
	H20	H	0.715198	0.863944	0.381711
	H21	H	0.716058	0.181388	0.595013
	H22	H	0.271097	0.864337	0.595647
	H23	H	0.272657	0.182661	0.384322
	H24	H	0.894337	0.362820	0.205296
	H25	H	0.103424	0.681528	0.209676
	H26	H	0.099706	0.362359	0.767627
	H27	H	0.886105	0.679947	0.763115
	H28	H	0.217644	0.915653	0.330437
	H29	H	0.215552	0.128765	0.644480
	H30	H	0.772565	0.127539	0.329180
	H31	H	0.768814	0.914285	0.643747
	H32	H	0.333909	0.243044	0.887405
	H33	H	0.653333	0.241419	0.091596
	H34	H	0.334338	0.804304	0.090064
	H35	H	0.652135	0.800495	0.881734
	H36	H	0.334362	0.918114	0.208809
	H37	H	0.650747	0.130126	0.211932
	H38	H	0.335201	0.131086	0.766279
	H39	H	0.650073	0.913967	0.762198
	H40	H	0.889694	0.243557	0.329001
	H41	H	0.096668	0.243075	0.645496
	H42	H	0.098913	0.802130	0.328474
	H43	H	0.886198	0.798221	0.643529
	H44	H	0.214666	0.362360	0.884955
	H45	H	0.214067	0.683186	0.090658
	H46	H	0.776433	0.362794	0.091061
	H47	H	0.769315	0.679911	0.877746
	H48	H	0.403479	0.137512	0.576517
	H49	H	0.576245	0.912413	0.572782
	H50	H	0.582474	0.137810	0.398619
	H51	H	0.405070	0.908367	0.397345
	H52	H	0.581797	0.433123	0.099071
	H53	H	0.575023	0.603583	0.880617
	H54	H	0.412701	0.606360	0.095211
	H55	H	0.406667	0.431092	0.875183
	H56	H	0.107308	0.609717	0.394286
	H57	H	0.881014	0.612388	0.576014
	H58	H	0.106050	0.433921	0.573410
	H59	H	0.881427	0.432863	0.397435
	H60	H	0.108193	0.436181	0.580005
	H61	H	0.883804	0.607925	0.571226
	H62	H	0.109221	0.614383	0.397697
	H63	H	0.881445	0.436862	0.393239
	H64	H	0.405957	0.622855	0.104003
	H65	H	0.579145	0.619521	0.874062
	H66	H	0.588599	0.430305	0.101741
	H67	H	0.401314	0.434126	0.873934
	H68	H	0.581687	0.137263	0.398640
	H69	H	0.582788	0.910965	0.571292
	H70	H	0.405175	0.136219	0.576043
	H71	H	0.406854	0.909896	0.399022
	H72	H	0.909304	0.635804	0.073848
	H73	H	0.087490	0.408956	0.075012
	H74	H	0.079142	0.636989	0.892792
	H75	H	0.911320	0.409181	0.893861
	H76	H	0.092200	0.936751	0.601540
	H77	H	0.082855	0.118185	0.372424
	H78	H	0.903212	0.110000	0.599341
	H79	H	0.907168	0.933514	0.375921
	H80	H	0.605420	0.106291	0.897651
	H81	H	0.379561	0.111385	0.080932
	H82	H	0.603689	0.940356	0.075664
	H83	H	0.380114	0.934215	0.898007
	H84	H	0.608120	0.935407	0.082083
	H85	H	0.378853	0.116141	0.079342
	H86	H	0.608403	0.112080	0.894751
	H87	H	0.382975	0.936817	0.903315
	H88	H	0.905474	0.112907	0.599067
	H89	H	0.088702	0.108569	0.373768
	H90	H	0.075713	0.940440	0.594421
	H91	H	0.902262	0.932957	0.374216
	H92	H	0.079666	0.633635	0.902432
	H93	H	0.088502	0.406474	0.081010
	H94	H	0.907266	0.635306	0.074924
	H95	H	0.912028	0.412385	0.904872
	H96	H	0.403309	0.135495	0.574481
	H97	H	0.580110	0.909268	0.577349
	H98	H	0.582106	0.137536	0.399371
	H99	H	0.404232	0.909249	0.400490
	H100	H	0.587837	0.437368	0.098746
	H101	H	0.591161	0.606461	0.874184
	H102	H	0.394488	0.606877	0.102414
	H103	H	0.405615	0.436939	0.876739
	H104	H	0.105980	0.609645	0.400145
	H105	H	0.882747	0.605447	0.577563
	H106	H	0.109176	0.429094	0.578293
	H107	H	0.878939	0.431626	0.391916
	H108	H	0.908583	0.636139	0.076156
	H109	H	0.082554	0.408352	0.079156
	H110	H	0.088063	0.638400	0.898131
	H111	H	0.902643	0.407360	0.901209
	H112	H	0.079253	0.924341	0.601507
	H113	H	0.077802	0.109334	0.376513
	H114	H	0.902533	0.112883	0.601232
	H115	H	0.903681	0.937569	0.376197
	H116	H	0.606017	0.112655	0.901555
	H117	H	0.381207	0.112126	0.076501
	H118	H	0.606904	0.931824	0.074028
	H119	H	0.382658	0.940397	0.898010
	C120	C	0.370583	0.032273	0.610029
	C121	C	0.613292	1.015207	0.607673
	C122	C	0.614984	0.032269	0.366042
	C123	C	0.372434	1.014384	0.367157
	C124	C	0.617752	0.399968	-0.004101
	C125	C	0.615917	0.643802	0.979232
	C126	C	0.371680	0.645313	-0.003255
	C127	C	0.373724	0.402336	0.980146
	C128	C	0.002976	0.644147	0.364913
	C129	C	0.986560	0.642395	0.607447
	C130	C	0.003000	0.400449	0.608998
	C131	C	0.986364	0.401807	0.365187
	C132	C	0.876103	0.530817	0.107156
	C133	C	0.117544	0.513841	0.109477
	C134	C	0.115195	0.530834	0.866509
	C135	C	0.873426	0.513454	0.865535
	C136	C	0.115386	0.901092	0.495439
	C137	C	0.114851	0.143993	0.478780
	C138	C	0.871670	0.144443	0.495656
	C139	C	0.871025	0.900727	0.478748
	C140	C	0.502212	0.144336	0.866394
	C141	C	0.484841	0.144887	0.110526
	C142	C	0.501995	0.902467	0.109631
	C143	C	0.485162	0.901954	0.866002
	C144	C	0.366028	0.914367	0.673135
	C145	C	0.617024	0.134320	0.668975
	C146	C	0.618752	0.912738	0.304931
	C147	C	0.369766	0.134735	0.308186
	C148	C	0.679279	0.394540	0.878237
	C149	C	0.678401	0.648067	0.096335
	C150	C	0.311071	0.648671	0.878298
	C151	C	0.314402	0.400841	0.099091
	C152	C	0.883100	0.703807	0.363342
	C153	C	0.105975	0.702322	0.608653
	C154	C	0.883398	0.340941	0.610517
	C155	C	0.106614	0.342748	0.367089
	C156	C	0.885124	0.395245	0.671195
	C157	C	0.105620	0.645293	0.667547
	C158	C	0.884114	0.647116	0.304331
	C159	C	0.106664	0.399144	0.307786
	C160	C	0.368770	0.706531	0.878739
	C161	C	0.619356	0.705200	0.097144
	C162	C	0.619678	0.338131	0.877933
	C163	C	0.373506	0.343840	0.099692
	C164	C	0.675495	0.912083	0.363277
	C165	C	0.675304	0.133818	0.612273
	C166	C	0.310311	0.912817	0.613627
	C167	C	0.312141	0.134584	0.365662
	C168	C	0.874939	0.410508	0.166050
	C169	C	0.120458	0.633954	0.169399
	C170	C	0.117799	0.410262	0.807477
	C171	C	0.868549	0.632348	0.803563
	C172	C	0.176914	0.897667	0.377313
	C173	C	0.174967	0.146557	0.597431
	C174	C	0.812286	0.146496	0.376711
	C175	C	0.809758	0.897006	0.596628
	C176	C	0.381930	0.204085	0.866831
	C177	C	0.605112	0.203053	0.111179
	C178	C	0.382072	0.843228	0.110115
	C179	C	0.604324	0.840369	0.863095
	C180	C	0.382282	0.899904	0.169129
	C181	C	0.603826	0.147315	0.170887
	C182	C	0.382500	0.148252	0.806829
	C183	C	0.603374	0.897045	0.803838
	C184	C	0.870822	0.203868	0.376491
	C185	C	0.115996	0.203528	0.597863
	C186	C	0.117710	0.841201	0.376322
	C187	C	0.868223	0.838910	0.596629
	C188	C	0.175230	0.410446	0.865520
	C189	C	0.175770	0.634648	0.110062
	C190	C	0.816568	0.410623	0.108971
	C191	C	0.810252	0.632267	0.860735
	C192	C	0.396643	0.114951	0.583377
	C193	C	0.587068	0.932504	0.581241
	C194	C	0.589587	0.115794	0.391582
	C195	C	0.398036	0.931021	0.391826
	C196	C	0.593063	0.426294	0.078397
	C197	C	0.589234	0.617257	0.897367
	C198	C	0.397107	0.619398	0.079138
	C199	C	0.397721	0.426909	0.896837
	C200	C	0.085950	0.618452	0.390144
	C201	C	0.904003	0.616269	0.582383
	C202	C	0.086237	0.425728	0.584386
	C203	C	0.902642	0.426502	0.387765
	C204	C	0.901107	0.614077	0.082165
	C205	C	0.092992	0.429935	0.085400
	C206	C	0.089724	0.614377	0.890865
	C207	C	0.900648	0.431013	0.892358
	C208	C	0.089721	0.926520	0.577543
	C209	C	0.090249	0.119050	0.395891
	C210	C	0.896454	0.119203	0.578320
	C211	C	0.896984	0.927186	0.396845
	C212	C	0.584975	0.117999	0.890798
	C213	C	0.401607	0.120355	0.085931
	C214	C	0.584661	0.928343	0.084628
	C215	C	0.403286	0.929014	0.892401
	Zn216	Zn	0.493598	0.023785	0.736836
	Zn217	Zn	0.493038	0.023312	0.238931
	Zn218	Zn	0.746333	0.522457	-0.012758
	Zn219	Zn	0.243625	0.523491	-0.012151
	Zn220	Zn	-0.006232	0.772261	0.486508
	Zn221	Zn	-0.006205	0.273227	0.487135
	Zn222	Zn	-0.005410	0.521580	0.737064
	Zn223	Zn	-0.003954	0.522872	0.236363
	Zn224	Zn	0.493806	0.773493	-0.011864
	Zn225	Zn	0.494429	0.272506	-0.011385
	Zn226	Zn	0.742111	0.023599	0.487487
	Zn227	Zn	0.243504	0.022600	0.487532
	N228	N	0.402735	0.989788	0.671030
	N229	N	0.578896	0.059509	0.666119
	N230	N	0.581883	0.988372	0.306463
	N231	N	0.406461	0.059019	0.308860
	N232	N	0.678018	0.432414	0.952536
	N233	N	0.676745	0.610916	0.021740
	N234	N	0.312676	0.611293	0.952917
	N235	N	0.314047	0.436292	0.023586
	N236	N	0.958007	0.702067	0.400167
	N237	N	0.030666	0.700949	0.572263
	N238	N	0.957598	0.344138	0.572456
	N239	N	0.030704	0.344000	0.401892
	N240	N	0.960577	0.431642	0.670247
	N241	N	0.030360	0.608793	0.667067
	N242	N	0.959868	0.610945	0.305033
	N243	N	0.030983	0.435094	0.306420
	N244	N	0.405751	0.704419	0.953277
	N245	N	0.581244	0.702785	0.023099
	N246	N	0.582070	0.341358	0.952180
	N247	N	0.409377	0.344579	0.024540
	N248	N	0.673283	0.987467	0.400512
	N249	N	0.673114	0.058721	0.574778
	N250	N	0.313071	0.987186	0.574812
	N251	N	0.313574	0.058661	0.401584
	N252	N	0.911073	0.486139	0.165178
	N253	N	0.084910	0.557726	0.169190
	N254	N	0.081202	0.486178	0.807780
	N255	N	0.906970	0.557427	0.806296
	N256	N	0.176137	0.933730	0.452429
	N257	N	0.173994	0.110024	0.522412
	N258	N	0.812589	0.110541	0.451790
	N259	N	0.811218	0.934561	0.522273
	N260	N	0.457230	0.202066	0.902873
	N261	N	0.530164	0.201504	0.074354
	N262	N	0.457300	0.844763	0.073857
	N263	N	0.529796	0.843277	0.900947
	N264	N	0.458010	0.935749	0.169200
	N265	N	0.527886	0.111975	0.170799
	N266	N	0.458300	0.112040	0.806444
	N267	N	0.528267	0.934421	0.805186
	N268	N	0.906851	0.203040	0.451670
	N269	N	0.079119	0.201678	0.523298
	N270	N	0.080195	0.842985	0.450645
	N271	N	0.905585	0.841238	0.522292
	N272	N	0.173849	0.486422	0.901430
	N273	N	0.174239	0.559014	0.073845
	N274	N	0.817301	0.486462	0.073055
	N275	N	0.813126	0.557124	0.898286
	O276	O	0.557447	0.477709	0.554722
	H277	H	0.571478	0.471981	0.548798
	H278	H	0.541704	0.469717	0.534493
	O279	O	0.698175	0.729625	0.510084
	H280	H	0.725670	0.749849	0.505180
	H281	H	0.681628	0.721041	0.480642
	O282	O	0.293540	0.729035	0.469520
	H283	H	0.335892	0.739977	0.495639
	H284	H	0.268645	0.752282	0.473073
	O285	O	1.382236	1.527338	0.301163
	H286	H	1.389378	1.533568	0.278687
	H287	H	1.391570	1.525949	0.318570
	O288	O	1.001697	-0.194782	0.790859
	H289	H	1.038135	-0.190249	0.802390
	H290	H	1.018985	-0.223981	0.766103
	O291	O	0.301500	0.391166	0.376678
	H292	H	0.289823	0.393920	0.391032
	H293	H	0.317137	0.397056	0.384745
	O294	O	0.981601	1.032656	1.065963
	H295	H	0.993488	1.042727	1.067846
	H296	H	0.969444	1.049250	1.061968
	O297	O	0.473477	0.737211	0.274005
	H298	H	0.451368	0.746129	0.260163
	H299	H	0.441418	0.746080	0.267363
	O300	O	-0.598193	-0.266629	-0.424206
	H301	H	-0.569559	-0.276935	-0.427445
	H302	H	-0.575776	-0.264829	-0.410899
	O303	O	0.518032	0.321395	1.286451
	H304	H	0.501991	0.323871	1.282330
	H305	H	0.508856	0.312902	1.292792
	O306	O	-0.181271	-0.153065	1.112650
	H307	H	-0.194567	-0.116767	1.105094
	H308	H	-0.199339	-0.171290	1.104299
	O309	O	0.801496	-0.068080	0.167059
	H310	H	0.777430	-0.046151	0.171808
	H311	H	0.790985	-0.071123	0.143682
	O312	O	0.710420	0.541583	0.702948
	H313	H	0.727665	0.533561	0.736654
	H314	H	0.690871	0.518107	0.713808
	O315	O	0.666676	0.700821	0.668512
	H316	H	0.683686	0.648264	0.679069
	H317	H	0.677402	0.709883	0.615521
	O318	O	0.828852	-0.809273	-0.175916
	H319	H	0.829867	-0.849465	-0.184156
	H320	H	0.859560	-0.814123	-0.190754
	O321	O	0.456360	0.335563	0.648988
	H322	H	0.425787	0.339960	0.654049
	H323	H	0.468827	0.317297	0.667404
	O324	O	0.853451	0.170886	0.974110
	H325	H	0.843884	0.180223	0.950143
	H326	H	0.858588	0.177596	0.945872
	O327	O	0.194882	1.118720	0.910875
	H328	H	0.193493	1.099512	0.941231
	H329	H	0.200238	1.133788	0.921160
	O330	O	0.077198	0.815533	0.962020
	H331	H	0.082594	0.813847	0.963617
	H332	H	0.090195	0.807215	0.970289
	O333	O	0.708962	0.311805	-0.536436
	H334	H	0.729005	0.286211	-0.533970
	H335	H	0.712699	0.325844	-0.538515
	O336	O	0.876245	0.843116	-0.006169
	H337	H	0.878957	0.839727	-0.005670
	H338	H	0.874866	0.823485	-0.020731
	O339	O	0.150515	1.152706	1.184073
	H340	H	0.133673	1.142014	1.189160
	H341	H	0.138317	1.165725	1.201272
	O342	O	0.646954	0.516453	0.433168
	H343	H	0.647955	0.505795	0.421464
	H344	H	0.653052	0.528351	0.457026
	O345	O	0.171274	-0.009165	1.052224
	H346	H	0.153967	-0.005331	1.062503
	H347	H	0.171768	-0.005942	1.083632
	O348	O	0.489122	0.527669	0.287853
	H349	H	0.523224	0.535305	0.281592
	H350	H	0.489499	0.529638	0.295736
	O351	O	0.880237	0.064193	-0.003436
	H352	H	0.889235	0.072243	-0.014617
	H353	H	0.864827	0.063616	-0.024356
	O354	O	0.285353	0.540375	1.450451
	H355	H	0.284193	0.539030	1.454966
	H356	H	0.280959	0.549352	1.453593
	O357	O	0.034974	0.131287	-0.066468
	H358	H	0.055172	0.125726	-0.061348
	H359	H	0.033188	0.127573	-0.060549
	O360	O	0.827001	0.055469	1.118552
	H361	H	0.822525	0.041818	1.112374
	H362	H	0.820710	0.072933	1.097145
	O363	O	1.155014	-0.150126	-0.177293
	H364	H	1.155475	-0.148040	-0.135489
	H365	H	1.170636	-0.127945	-0.179350
	O366	O	-0.007028	0.010942	0.794081
	H367	H	0.017409	0.033530	0.784842
	H368	H	0.014987	-0.010341	0.802598
	O369	O	0.871205	-0.005423	0.851987
	H370	H	0.890432	-0.020987	0.849187
	H371	H	0.885165	-0.010524	0.838306
	O372	O	0.702516	0.504616	0.272044
	H373	H	0.707083	0.466570	0.267846
	H374	H	0.712205	0.495126	0.267761
	O375	O	-0.208260	0.021770	0.800218
	H376	H	-0.208525	0.012448	0.780319
	H377	H	-0.185473	0.002261	0.796821
	O378	O	0.530862	0.491042	0.696883
	H379	H	0.535932	0.489832	0.685493
	H380	H	0.519413	0.476004	0.700003
	O381	O	0.005679	0.993085	0.135449
	H382	H	-0.011786	0.965178	0.149578
	H383	H	-0.011341	0.993425	0.123897
	O384	O	0.494799	0.390939	0.542320
	H385	H	0.484064	0.385855	0.558452
	H386	H	0.475365	0.399521	0.527100
	O387	O	1.170737	-0.015020	1.036355
	H388	H	1.176541	-0.020145	1.063239
	H389	H	1.162721	-0.010737	1.056749
	O390	O	1.008705	0.961419	0.115814
	H391	H	0.997155	0.948657	0.105658
	H392	H	0.999843	0.976516	0.120606
	O393	O	0.954850	0.195280	1.179105
	H394	H	0.944141	0.186684	1.161383
	H395	H	0.949278	0.187388	1.180475
	O396	O	0.314867	0.704570	0.308178
	H397	H	0.300931	0.714506	0.359014
	H398	H	0.304407	0.653316	0.297691
	O399	O	0.430772	0.406593	0.499363
	H400	H	0.425961	0.410651	0.497326
	H401	H	0.436537	0.405214	0.530075
	O402	O	1.111409	1.206050	0.045532
	H403	H	1.107523	1.205559	0.061778
	H404	H	1.112379	1.216395	0.060661
	O405	O	-0.488422	-0.259128	0.704709
	H406	H	-0.438055	-0.271742	0.688390
	H407	H	-0.479967	-0.221498	0.741834
	O408	O	0.563165	0.537704	0.614426
	H409	H	0.569148	0.560668	0.608698
	H410	H	0.576013	0.538770	0.632482
	O411	O	0.535929	0.710939	1.441254
	H412	H	0.543599	0.697608	1.438503
	H413	H	0.525610	0.710562	1.409495
	O414	O	0.354454	0.385596	0.675644
	H415	H	0.343391	0.371349	0.665759
	H416	H	0.340413	0.412470	0.675312
	O417	O	0.015902	1.150737	0.787509
	H418	H	0.047335	1.144682	0.794685
	H419	H	0.023942	1.165469	0.781227
	O420	O	0.682314	1.339498	1.294699
	H421	H	0.653610	1.331805	1.310350
	H422	H	0.676199	1.318851	1.295406
	O423	O	0.043374	1.210689	-0.059295
	H424	H	0.042287	1.200847	-0.057238
	H425	H	0.041588	1.213130	-0.051513
	O426	O	0.965651	-0.171108	0.200318
	H427	H	0.952674	-0.172694	0.212683
	H428	H	0.936117	-0.185468	0.208711
	O429	O	0.686065	0.607449	0.395420
	H430	H	0.685207	0.590958	0.413723
	H431	H	0.679167	0.605233	0.377618
	O432	O	0.372702	0.437910	0.476698
	H433	H	0.374307	0.449450	0.478385
	H434	H	0.373486	0.440388	0.483236
	O435	O	0.199405	-0.005239	-0.149686
	H436	H	0.218611	-0.009450	-0.142660
	H437	H	0.215794	0.004026	-0.134990
	O438	O	-0.611287	1.364902	0.552894
	H439	H	-0.614583	1.375056	0.560600
	H440	H	-0.603467	1.376529	0.538824
	O441	O	0.317222	0.520614	0.640763
	H442	H	0.320222	0.536079	0.653315
	H443	H	0.338711	0.536833	0.652098
