data_Molecule from HDF5

_cell_length_a		16.239214
_cell_length_b		16.310915
_cell_length_c		16.304081
_cell_angle_alpha	89.775501
_cell_angle_beta	90.050543
_cell_angle_gamma	90.049406
_symmetry_space_group_name_H-M	'P 1'
_symmetry_Int_Tables_number		1

loop_
	_symmetry_equiv_pos_as_xyz
	x,y,z

loop_
	_atom_site_label
	_atom_site_type_symbol
	_atom_site_fract_x
	_atom_site_fract_y
	_atom_site_fract_z
	H0	H	0.397544	0.841368	0.715721
	H1	H	0.599060	0.166079	0.714509
	H2	H	0.597291	0.839815	0.284464
	H3	H	0.398176	0.166454	0.282088
	H4	H	0.713558	0.406381	0.836344
	H5	H	0.714454	0.602990	0.162799
	H6	H	0.284068	0.603947	0.836367
	H7	H	0.284131	0.404564	0.162541
	H8	H	0.834953	0.718476	0.399568
	H9	H	0.163139	0.717758	0.598407
	H10	H	0.836246	0.285586	0.602342
	H11	H	0.162431	0.288357	0.401388
	H12	H	0.836430	0.401660	0.717249
	H13	H	0.162530	0.602242	0.714341
	H14	H	0.835863	0.604431	0.282611
	H15	H	0.162504	0.403991	0.284586
	H16	H	0.398479	0.719838	0.836464
	H17	H	0.598558	0.718504	0.161996
	H18	H	0.598960	0.288203	0.836540
	H19	H	0.399109	0.286910	0.161808
	H20	H	0.713416	0.840416	0.401725
	H21	H	0.713679	0.166268	0.598731
	H22	H	0.284977	0.839222	0.596696
	H23	H	0.283101	0.166769	0.398858
	H24	H	0.897831	0.341312	0.217511
	H25	H	0.100322	0.667163	0.214970
	H26	H	0.100376	0.341455	0.784108
	H27	H	0.898773	0.666084	0.782906
	H28	H	0.212217	0.905165	0.335238
	H29	H	0.213655	0.101417	0.662073
	H30	H	0.781850	0.104157	0.337242
	H31	H	0.782264	0.902308	0.663717
	H32	H	0.335564	0.220320	0.897932
	H33	H	0.661718	0.218407	0.098468
	H34	H	0.334998	0.787585	0.098630
	H35	H	0.662350	0.788858	0.899267
	H36	H	0.334524	0.903813	0.213046
	H37	H	0.660981	0.104388	0.215054
	H38	H	0.333672	0.102480	0.785089
	H39	H	0.661504	0.904471	0.783020
	H40	H	0.894949	0.223302	0.338691
	H41	H	0.100428	0.219478	0.661890
	H42	H	0.096679	0.789425	0.335733
	H43	H	0.897075	0.783890	0.662124
	H44	H	0.214557	0.341232	0.900654
	H45	H	0.215634	0.667285	0.098114
	H46	H	0.782815	0.340025	0.100896
	H47	H	0.783411	0.666382	0.899043
	H48	H	0.399670	0.121137	0.590393
	H49	H	0.591174	0.885788	0.597902
	H50	H	0.586770	0.118022	0.408012
	H51	H	0.402533	0.886024	0.405273
	H52	H	0.593216	0.411359	0.115688
	H53	H	0.580508	0.605353	0.883430
	H54	H	0.408765	0.598480	0.115949
	H55	H	0.406639	0.403996	0.880964
	H56	H	0.119520	0.599820	0.397344
	H57	H	0.887574	0.583963	0.585824
	H58	H	0.111374	0.410563	0.580739
	H59	H	0.882527	0.406559	0.411903
	H60	H	0.114555	0.421315	0.598092
	H61	H	0.880191	0.594405	0.603325
	H62	H	0.115978	0.603452	0.413984
	H63	H	0.885290	0.418841	0.412199
	H64	H	0.404869	0.595380	0.116365
	H65	H	0.603423	0.600768	0.878126
	H66	H	0.588820	0.410395	0.114541
	H67	H	0.400220	0.416514	0.882689
	H68	H	0.591527	0.119116	0.407912
	H69	H	0.582731	0.889701	0.591169
	H70	H	0.406605	0.120816	0.596730
	H71	H	0.405379	0.887092	0.403648
	H72	H	0.907508	0.620753	0.096768
	H73	H	0.095988	0.387564	0.091273
	H74	H	0.091538	0.618071	0.913180
	H75	H	0.906724	0.386290	0.903365
	H76	H	0.091025	0.911354	0.614182
	H77	H	0.095377	0.100349	0.380933
	H78	H	0.906570	0.096342	0.615699
	H79	H	0.898870	0.903864	0.380892
	H80	H	0.614355	0.091592	0.901455
	H81	H	0.380296	0.088523	0.100576
	H82	H	0.616987	0.915871	0.101803
	H83	H	0.379856	0.905093	0.905146
	H84	H	0.617197	0.900556	0.088505
	H85	H	0.377991	0.107028	0.090220
	H86	H	0.616615	0.101739	0.905412
	H87	H	0.384075	0.911896	0.912155
	H88	H	0.905309	0.091958	0.615688
	H89	H	0.089406	0.088664	0.385345
	H90	H	0.088951	0.908647	0.615333
	H91	H	0.902493	0.922290	0.386927
	H92	H	0.097667	0.623128	0.902971
	H93	H	0.088446	0.387962	0.097922
	H94	H	0.912360	0.616998	0.088153
	H95	H	0.910497	0.389410	0.909549
	H96	H	0.407590	0.118142	0.588146
	H97	H	0.593038	0.888145	0.586479
	H98	H	0.589246	0.119703	0.403629
	H99	H	0.404876	0.888532	0.406738
	H100	H	0.591504	0.406846	0.116839
	H101	H	0.589188	0.583801	0.888069
	H102	H	0.409246	0.593760	0.114326
	H103	H	0.414069	0.414743	0.886599
	H104	H	0.112175	0.587769	0.407961
	H105	H	0.881471	0.604820	0.584082
	H106	H	0.120047	0.401038	0.597392
	H107	H	0.880963	0.413469	0.401660
	H108	H	0.902060	0.619592	0.087414
	H109	H	0.087772	0.390949	0.087828
	H110	H	0.084765	0.620028	0.901422
	H111	H	0.902376	0.387840	0.910203
	H112	H	0.093344	0.908352	0.615919
	H113	H	0.082038	0.100001	0.384297
	H114	H	0.909651	0.093702	0.614300
	H115	H	0.916824	0.908835	0.387204
	H116	H	0.612962	0.094004	0.912279
	H117	H	0.387152	0.090319	0.079903
	H118	H	0.609553	0.919012	0.082796
	H119	H	0.382112	0.915100	0.901588
	C120	C	0.376049	0.012025	0.620422
	C121	C	0.618887	0.995230	0.620936
	C122	C	0.619204	0.011326	0.377838
	C123	C	0.375596	0.995198	0.376377
	C124	C	0.620517	0.381479	0.008114
	C125	C	0.620916	0.625754	0.990783
	C126	C	0.377891	0.625398	0.007738
	C127	C	0.377594	0.382084	0.990829
	C128	C	0.007613	0.625961	0.377326
	C129	C	0.990868	0.624157	0.620509
	C130	C	0.007486	0.381507	0.621866
	C131	C	0.990657	0.383011	0.379281
	C132	C	0.877559	0.511438	0.121156
	C133	C	0.120844	0.496107	0.121309
	C134	C	0.120643	0.512535	0.877761
	C135	C	0.877161	0.495071	0.877999
	C136	C	0.119891	0.881245	0.507516
	C137	C	0.119154	0.125186	0.490877
	C138	C	0.876890	0.124976	0.508247
	C139	C	0.876199	0.880901	0.491992
	C140	C	0.506670	0.125346	0.877027
	C141	C	0.489476	0.124659	0.120110
	C142	C	0.506736	0.882090	0.120197
	C143	C	0.490035	0.882230	0.877700
	C144	C	0.377823	0.889519	0.676841
	C145	C	0.618659	0.117396	0.676776
	C146	C	0.617336	0.888800	0.322484
	C147	C	0.377828	0.117713	0.320259
	C148	C	0.676112	0.384856	0.885228
	C149	C	0.676522	0.623048	0.113722
	C150	C	0.322181	0.623765	0.885115
	C151	C	0.322079	0.384172	0.113759
	C152	C	0.884369	0.681212	0.379303
	C153	C	0.113920	0.679876	0.618569
	C154	C	0.885020	0.324411	0.621667
	C155	C	0.113641	0.326672	0.380854
	C156	C	0.885156	0.382027	0.678971
	C157	C	0.113778	0.622619	0.676216
	C158	C	0.884584	0.624458	0.321173
	C159	C	0.113670	0.384264	0.323007
	C160	C	0.379031	0.681689	0.885274
	C161	C	0.618965	0.680731	0.113371
	C162	C	0.618983	0.326371	0.885091
	C163	C	0.379042	0.325737	0.113462
	C164	C	0.675230	0.888943	0.380457
	C165	C	0.675460	0.117628	0.618865
	C166	C	0.321937	0.888584	0.617486
	C167	C	0.320656	0.118045	0.378216
	C168	C	0.878167	0.389587	0.178781
	C169	C	0.119940	0.618491	0.176915
	C170	C	0.119311	0.389872	0.822823
	C171	C	0.878442	0.617405	0.821012
	C172	C	0.174819	0.884283	0.384515
	C173	C	0.175603	0.122331	0.613326
	C174	C	0.820049	0.124284	0.386030
	C175	C	0.820105	0.881847	0.614655
	C176	C	0.384011	0.181922	0.878010
	C177	C	0.612753	0.180446	0.118437
	C178	C	0.383827	0.825712	0.118541
	C179	C	0.613193	0.826657	0.879092
	C180	C	0.383576	0.883491	0.175526
	C181	C	0.612549	0.123433	0.176234
	C182	C	0.383425	0.123316	0.821744
	C183	C	0.612784	0.884089	0.821096
	C184	C	0.876306	0.183263	0.386670
	C185	C	0.119265	0.180975	0.613310
	C186	C	0.117717	0.826327	0.384765
	C187	C	0.877306	0.823202	0.613855
	C188	C	0.176179	0.389861	0.880634
	C189	C	0.177291	0.618652	0.118873
	C190	C	0.820816	0.389146	0.120808
	C191	C	0.821197	0.617590	0.879052
	C192	C	0.398166	0.097787	0.598281
	C193	C	0.595641	0.909945	0.598139
	C194	C	0.596174	0.096883	0.400061
	C195	C	0.397690	0.909337	0.398753
	C196	C	0.597849	0.403231	0.093473
	C197	C	0.597900	0.603196	0.905371
	C198	C	0.400817	0.602593	0.093440
	C199	C	0.400390	0.404992	0.905609
	C200	C	0.093712	0.603488	0.399861
	C201	C	0.905026	0.601058	0.597692
	C202	C	0.093089	0.404450	0.598816
	C203	C	0.905263	0.406068	0.401957
	C204	C	0.900546	0.596794	0.097656
	C205	C	0.097636	0.410976	0.099034
	C206	C	0.098010	0.598088	0.899456
	C207	C	0.899754	0.409860	0.901166
	C208	C	0.097695	0.903051	0.593046
	C209	C	0.095713	0.102979	0.405619
	C210	C	0.900419	0.101172	0.593313
	C211	C	0.899216	0.904837	0.406985
	C212	C	0.592445	0.102614	0.899847
	C213	C	0.404025	0.102001	0.096924
	C214	C	0.592327	0.905088	0.097567
	C215	C	0.404119	0.904286	0.899887
	Zn216	Zn	0.497559	0.004139	0.748858
	Zn217	Zn	0.497894	0.003383	0.248372
	Zn218	Zn	0.748879	0.503296	-0.000013
	Zn219	Zn	0.249182	0.504388	-0.000584
	Zn220	Zn	-0.000969	0.752653	0.499733
	Zn221	Zn	-0.001628	0.253958	0.500216
	Zn222	Zn	-0.000719	0.503584	0.749720
	Zn223	Zn	-0.001081	0.504082	0.249831
	Zn224	Zn	0.498766	0.753783	-0.000676
	Zn225	Zn	0.498834	0.252643	-0.001264
	Zn226	Zn	0.747842	0.003659	0.500223
	Zn227	Zn	0.247750	0.003614	0.498470
	N228	N	0.410796	0.967185	0.678619
	N229	N	0.584008	0.040340	0.678099
	N230	N	0.583195	0.966105	0.320793
	N231	N	0.410984	0.040088	0.318829
	N232	N	0.677191	0.418170	0.962528
	N233	N	0.678001	0.589570	0.036285
	N234	N	0.321393	0.589517	0.962268
	N235	N	0.320924	0.418407	0.036501
	N236	N	0.962113	0.682281	0.413275
	N237	N	0.036282	0.681139	0.584848
	N238	N	0.962060	0.323917	0.586915
	N239	N	0.036307	0.325734	0.415054
	N240	N	0.962392	0.416890	0.679158
	N241	N	0.036208	0.588553	0.677343
	N242	N	0.962227	0.591032	0.319688
	N243	N	0.036238	0.418541	0.321984
	N244	N	0.413092	0.682565	0.962559
	N245	N	0.585396	0.682665	0.035920
	N246	N	0.585214	0.323973	0.962501
	N247	N	0.412689	0.324065	0.036068
	N248	N	0.676539	0.966142	0.413965
	N249	N	0.675858	0.040492	0.584937
	N250	N	0.320624	0.965829	0.583134
	N251	N	0.319246	0.040767	0.412503
	N252	N	0.912669	0.466675	0.178983
	N253	N	0.085438	0.541344	0.178474
	N254	N	0.085470	0.467165	0.820829
	N255	N	0.912527	0.540177	0.820025
	N256	N	0.176190	0.917955	0.461686
	N257	N	0.175554	0.088193	0.536325
	N258	N	0.820405	0.088484	0.462638
	N259	N	0.819062	0.916934	0.537785
	N260	N	0.461763	0.183571	0.911384
	N261	N	0.535313	0.181240	0.083999
	N262	N	0.461467	0.824776	0.084835
	N263	N	0.535961	0.825388	0.913601
	N264	N	0.460903	0.917824	0.176838
	N265	N	0.534920	0.089600	0.177508
	N266	N	0.460797	0.088926	0.820972
	N267	N	0.535327	0.917979	0.820127
	N268	N	0.910905	0.183680	0.463686
	N269	N	0.084934	0.182916	0.536110
	N270	N	0.084274	0.824361	0.462232
	N271	N	0.911353	0.822499	0.536645
	N272	N	0.177188	0.467079	0.914182
	N273	N	0.178004	0.541559	0.085039
	N274	N	0.820312	0.466024	0.085724
	N275	N	0.820179	0.540636	0.913777
	O276	O	0.539768	0.497630	0.539870
	H277	H	0.546016	0.495018	0.529075
	H278	H	0.541960	0.490850	0.542453
	O279	O	0.474128	0.541577	0.392337
	H280	H	0.474176	0.542001	0.390453
	H281	H	0.459448	0.549380	0.382467
	O282	O	1.036145	0.906569	0.018986
	H283	H	1.037071	0.903279	0.024484
	H284	H	1.043538	0.908369	0.006834
	O285	O	1.013830	0.093771	0.911322
	H286	H	1.015838	0.084862	0.913717
	H287	H	0.997667	0.099703	0.917224
	O288	O	0.556354	0.482190	0.584914
	H289	H	0.550273	0.485023	0.588388
	H290	H	0.567567	0.489259	0.583513
	O291	O	0.524828	0.617464	0.442184
	H292	H	0.532627	0.634105	0.440259
	H293	H	0.517361	0.609756	0.449585
	O294	O	0.532645	0.557733	0.574884
	H295	H	0.519164	0.556993	0.573214
	H296	H	0.536600	0.554176	0.578013
	O297	O	0.079591	-0.014453	0.918110
	H298	H	0.088298	-0.010503	0.917851
	H299	H	0.076318	0.000096	0.905250
	O300	O	1.032972	0.127973	0.988301
	H301	H	1.028651	0.124137	0.984436
	H302	H	1.037235	0.126744	0.984475
	O303	O	0.958912	0.977469	0.130300
	H304	H	0.948348	0.961000	0.122053
	H305	H	0.955596	0.979428	0.129607
	O306	O	0.089809	1.087204	1.005192
	H307	H	0.096421	1.091273	1.005701
	H308	H	0.083145	1.078722	1.008427
	O309	O	0.590374	0.508528	0.580176
	H310	H	0.591220	0.514475	0.575669
	H311	H	0.598199	0.494159	0.575390
	O312	O	-0.000963	-0.041550	0.016009
	H313	H	0.000614	-0.031757	0.014754
	H314	H	-0.001489	-0.050983	0.016875
	O315	O	1.053524	0.006745	0.109173
	H316	H	1.064322	0.012077	0.109350
	H317	H	1.043972	0.018524	0.110969
	O318	O	1.009083	0.984294	1.148609
	H319	H	1.015076	0.982063	1.131048
	H320	H	1.034808	0.973110	1.153097
	O321	O	-0.437176	-0.469110	0.461171
	H322	H	-0.434664	-0.468896	0.453939
	H323	H	-0.435780	-0.467589	0.458557
	O324	O	0.513723	0.522317	0.575658
	H325	H	0.516755	0.526127	0.581281
	H326	H	0.514810	0.524051	0.579307
	O327	O	-0.097941	-0.237187	0.067371
	H328	H	-0.100430	-0.232848	0.067644
	H329	H	-0.104069	-0.229332	0.061517
	O330	O	0.482862	0.551350	0.486184
	H331	H	0.487473	0.544571	0.493643
	H332	H	0.479156	0.554044	0.485915
	O333	O	0.033165	0.999358	1.005184
	H334	H	0.019779	0.990274	1.002697
	H335	H	0.045909	1.005992	1.012065
	O336	O	-0.004743	-0.125839	0.040317
	H337	H	0.006862	-0.124567	0.037802
	H338	H	0.003051	-0.132224	0.039610
	O339	O	0.495918	0.504895	0.579185
	H340	H	0.491953	0.501992	0.580620
	H341	H	0.496217	0.501180	0.581484
	O342	O	1.033466	0.987810	1.094024
	H343	H	1.044724	0.995184	1.096787
	H344	H	1.019804	0.982330	1.102137
	O345	O	1.112455	1.067476	0.047760
	H346	H	1.104810	1.061518	0.035733
	H347	H	1.117486	1.058156	0.051439
	O348	O	0.438358	0.439474	0.434839
	H349	H	0.422546	0.437915	0.437449
	H350	H	0.434227	0.444238	0.444696
	O351	O	0.488026	0.507535	0.456846
	H352	H	0.489554	0.514013	0.461480
	H353	H	0.487429	0.503885	0.456089
	O354	O	0.537484	0.436541	0.530702
	H355	H	0.524532	0.434374	0.537457
	H356	H	0.538548	0.436815	0.526586
	O357	O	0.885683	0.028181	1.019438
	H358	H	0.876147	0.029894	1.028752
	H359	H	0.886618	0.027799	1.025316
	O360	O	0.420618	0.415369	0.514927
	H361	H	0.418468	0.405289	0.523167
	H362	H	0.427301	0.411199	0.524290
	O363	O	0.944218	1.029901	-0.038667
	H364	H	0.949129	1.024118	-0.030419
	H365	H	0.938523	1.041592	-0.035386
	O366	O	0.888543	1.008545	0.957377
	H367	H	0.871288	1.016928	0.966254
	H368	H	0.889309	1.020412	0.960454
	O369	O	0.919565	0.082377	0.920689
	H370	H	0.911239	0.084979	0.943122
	H371	H	0.908244	0.088939	0.911149
	O372	O	-0.128484	-0.014650	0.001628
	H373	H	-0.137822	-0.015158	-0.008835
	H374	H	-0.120599	-0.010627	-0.003527
	O375	O	0.903220	0.071275	-0.004043
	H376	H	0.894845	0.068680	0.012127
	H377	H	0.898573	0.060874	0.006888
	O378	O	0.468466	0.506865	0.497800
	H379	H	0.469117	0.508507	0.482163
	H380	H	0.469867	0.512324	0.494732
	O381	O	0.440578	0.439531	0.503788
	H382	H	0.444530	0.451314	0.501062
	H383	H	0.440337	0.437466	0.513477
