data_Molecule from HDF5

_cell_length_a		16.296710
_cell_length_b		16.300604
_cell_length_c		16.387681
_cell_angle_alpha	89.773324
_cell_angle_beta	89.879539
_cell_angle_gamma	90.104997
_symmetry_space_group_name_H-M	'P 1'
_symmetry_Int_Tables_number		1

loop_
	_symmetry_equiv_pos_as_xyz
	x,y,z

loop_
	_atom_site_label
	_atom_site_type_symbol
	_atom_site_fract_x
	_atom_site_fract_y
	_atom_site_fract_z
	H0	H	0.408935	0.835761	0.718940
	H1	H	0.607489	0.162333	0.715636
	H2	H	0.607715	0.836011	0.286555
	H3	H	0.409730	0.162234	0.286649
	H4	H	0.723714	0.402563	0.839516
	H5	H	0.723353	0.596507	0.165703
	H6	H	0.294422	0.599043	0.839592
	H7	H	0.293535	0.400086	0.164948
	H8	H	0.843795	0.713006	0.404245
	H9	H	0.172415	0.711917	0.598193
	H10	H	0.845320	0.283271	0.601264
	H11	H	0.172391	0.286983	0.405686
	H12	H	0.846071	0.398140	0.719272
	H13	H	0.172458	0.597332	0.715553
	H14	H	0.844716	0.597422	0.287191
	H15	H	0.172371	0.401323	0.288527
	H16	H	0.410660	0.714101	0.839297
	H17	H	0.608401	0.714674	0.165370
	H18	H	0.607575	0.285086	0.839502
	H19	H	0.411147	0.284492	0.165588
	H20	H	0.721687	0.834412	0.404948
	H21	H	0.723147	0.162221	0.598198
	H22	H	0.293902	0.835059	0.602248
	H23	H	0.295568	0.162799	0.404841
	H24	H	0.909445	0.335333	0.218127
	H25	H	0.106879	0.662876	0.216961
	H26	H	0.108148	0.335489	0.788064
	H27	H	0.910180	0.661912	0.786387
	H28	H	0.224980	0.900865	0.339751
	H29	H	0.222303	0.095792	0.665610
	H30	H	0.795013	0.095958	0.338783
	H31	H	0.793117	0.898389	0.664606
	H32	H	0.345177	0.214279	0.904740
	H33	H	0.672720	0.211917	0.097713
	H34	H	0.344553	0.784157	0.101018
	H35	H	0.672148	0.786374	0.904762
	H36	H	0.345029	0.898601	0.219080
	H37	H	0.672090	0.097603	0.215696
	H38	H	0.344836	0.098814	0.787534
	H39	H	0.671866	0.901754	0.787827
	H40	H	0.910787	0.213787	0.339550
	H41	H	0.106876	0.213173	0.665116
	H42	H	0.107222	0.784356	0.339121
	H43	H	0.910128	0.783368	0.665128
	H44	H	0.221836	0.335026	0.907067
	H45	H	0.221858	0.663864	0.098553
	H46	H	0.794194	0.335330	0.101603
	H47	H	0.795909	0.663003	0.904580
	H48	H	0.423861	0.111199	0.591900
	H49	H	0.598418	0.882523	0.597517
	H50	H	0.607034	0.116462	0.409267
	H51	H	0.413831	0.882072	0.408915
	H52	H	0.602956	0.397434	0.120411
	H53	H	0.598700	0.588851	0.889784
	H54	H	0.421738	0.597537	0.117584
	H55	H	0.418791	0.402152	0.886536
	H56	H	0.122512	0.586217	0.407827
	H57	H	0.893284	0.595698	0.586417
	H58	H	0.127085	0.395556	0.593820
	H59	H	0.892628	0.404541	0.411987
	H60	H	0.120174	0.412559	0.586736
	H61	H	0.895435	0.580068	0.596628
	H62	H	0.125602	0.595295	0.404879
	H63	H	0.892422	0.408556	0.407080
	H64	H	0.407975	0.593873	0.120444
	H65	H	0.600504	0.599214	0.887104
	H66	H	0.608777	0.409299	0.118763
	H67	H	0.411017	0.406806	0.885217
	H68	H	0.600442	0.115167	0.403700
	H69	H	0.600913	0.882960	0.593824
	H70	H	0.408374	0.115433	0.589996
	H71	H	0.418677	0.883677	0.408080
	H72	H	0.927609	0.610548	0.090314
	H73	H	0.089889	0.388729	0.092192
	H74	H	0.101596	0.614096	0.909994
	H75	H	0.917753	0.382784	0.908419
	H76	H	0.101029	0.910725	0.615168
	H77	H	0.102109	0.087209	0.388410
	H78	H	0.925153	0.089059	0.613978
	H79	H	0.912100	0.909256	0.386998
	H80	H	0.624172	0.094217	0.910276
	H81	H	0.391503	0.092654	0.096104
	H82	H	0.619600	0.916467	0.089273
	H83	H	0.390688	0.902705	0.909049
	H84	H	0.626946	0.908119	0.105804
	H85	H	0.392597	0.091102	0.094698
	H86	H	0.624151	0.089886	0.907608
	H87	H	0.393766	0.907279	0.913619
	H88	H	0.912637	0.099958	0.620914
	H89	H	0.098226	0.095372	0.387211
	H90	H	0.096248	0.900892	0.616312
	H91	H	0.919991	0.905711	0.387997
	H92	H	0.105251	0.615932	0.906798
	H93	H	0.112627	0.382453	0.087967
	H94	H	0.906575	0.615331	0.088534
	H95	H	0.916315	0.383669	0.912335
	H96	H	0.415434	0.117433	0.604804
	H97	H	0.602947	0.881220	0.598041
	H98	H	0.599469	0.113978	0.411846
	H99	H	0.416750	0.884132	0.413266
	H100	H	0.596337	0.407562	0.115279
	H101	H	0.608456	0.591725	0.886220
	H102	H	0.417256	0.584459	0.114778
	H103	H	0.418172	0.411465	0.889340
	H104	H	0.122775	0.593393	0.414332
	H105	H	0.888134	0.596137	0.604529
	H106	H	0.126025	0.411610	0.605460
	H107	H	0.890063	0.402660	0.406609
	H108	H	0.916680	0.618677	0.107624
	H109	H	0.102928	0.379560	0.109628
	H110	H	0.099901	0.616013	0.905414
	H111	H	0.914124	0.381299	0.909377
	H112	H	0.106432	0.902250	0.619667
	H113	H	0.107032	0.094464	0.385248
	H114	H	0.908575	0.083336	0.616828
	H115	H	0.913623	0.900604	0.384589
	H116	H	0.625430	0.094125	0.905568
	H117	H	0.392894	0.090469	0.096888
	H118	H	0.624891	0.896902	0.089619
	H119	H	0.392610	0.910044	0.907279
	C120	C	0.386741	0.006896	0.624575
	C121	C	0.629929	0.990188	0.623926
	C122	C	0.630255	0.006673	0.380364
	C123	C	0.387786	0.991296	0.381361
	C124	C	0.630975	0.377080	0.010692
	C125	C	0.631101	0.621337	0.994629
	C126	C	0.387074	0.621256	0.010243
	C127	C	0.387621	0.377959	0.994654
	C128	C	0.015856	0.620379	0.380451
	C129	C	1.000162	0.619639	0.623384
	C130	C	0.016979	0.377009	0.624487
	C131	C	1.000287	0.377692	0.380946
	C132	C	0.887849	0.506928	0.124167
	C133	C	0.130290	0.491467	0.124503
	C134	C	0.130901	0.507234	0.880166
	C135	C	0.887982	0.490733	0.881302
	C136	C	0.130368	0.876560	0.510011
	C137	C	0.130873	0.120708	0.494305
	C138	C	0.887390	0.119648	0.509942
	C139	C	0.886592	0.876292	0.493843
	C140	C	0.516668	0.121335	0.880352
	C141	C	0.500251	0.120108	0.123442
	C142	C	0.516100	0.877504	0.124425
	C143	C	0.500282	0.878383	0.881360
	C144	C	0.388862	0.884295	0.680475
	C145	C	0.627840	0.113563	0.677901
	C146	C	0.628092	0.884553	0.324682
	C147	C	0.389596	0.113730	0.325299
	C148	C	0.686042	0.380902	0.888077
	C149	C	0.685650	0.617724	0.117198
	C150	C	0.332359	0.618943	0.888030
	C151	C	0.332059	0.379913	0.116880
	C152	C	0.892735	0.675190	0.383594
	C153	C	0.123468	0.674663	0.619667
	C154	C	0.893923	0.321331	0.622020
	C155	C	0.123454	0.323806	0.384393
	C156	C	0.894442	0.378169	0.680525
	C157	C	0.123441	0.617728	0.678118
	C158	C	0.893179	0.618092	0.325301
	C159	C	0.123341	0.380492	0.326048
	C160	C	0.390151	0.676466	0.888041
	C161	C	0.628032	0.675936	0.117069
	C162	C	0.628359	0.322583	0.888206
	C163	C	0.390432	0.322569	0.117019
	C164	C	0.684405	0.883589	0.383893
	C165	C	0.685114	0.113422	0.619521
	C166	C	0.331622	0.883991	0.622448
	C167	C	0.332698	0.113935	0.383747
	C168	C	0.889633	0.384054	0.179496
	C169	C	0.127415	0.614387	0.178901
	C170	C	0.128732	0.384447	0.825665
	C171	C	0.890314	0.613503	0.825332
	C172	C	0.186230	0.879960	0.387930
	C173	C	0.184978	0.117192	0.616854
	C174	C	0.832789	0.116893	0.387497
	C175	C	0.831242	0.878424	0.616257
	C176	C	0.393660	0.176300	0.883934
	C177	C	0.623685	0.174516	0.119380
	C178	C	0.393253	0.822182	0.121818
	C179	C	0.623359	0.824049	0.884186
	C180	C	0.393731	0.879025	0.180543
	C181	C	0.623307	0.118058	0.178066
	C182	C	0.393553	0.119188	0.825645
	C183	C	0.623165	0.881231	0.826045
	C184	C	0.890294	0.175372	0.387876
	C185	C	0.127812	0.175626	0.616619
	C186	C	0.127625	0.822524	0.387515
	C187	C	0.889106	0.820895	0.616402
	C188	C	0.185137	0.384162	0.884611
	C189	C	0.184639	0.614783	0.120411
	C190	C	0.832236	0.384026	0.121757
	C191	C	0.833467	0.614077	0.884090
	C192	C	0.409184	0.092685	0.602060
	C193	C	0.607311	0.904399	0.602781
	C194	C	0.608456	0.093000	0.401808
	C195	C	0.409947	0.905359	0.403723
	C196	C	0.609165	0.398515	0.096027
	C197	C	0.609039	0.599644	0.909629
	C198	C	0.409054	0.598654	0.095698
	C199	C	0.409405	0.400373	0.909149
	C200	C	0.101513	0.598263	0.402459
	C201	C	0.914588	0.597270	0.602027
	C202	C	0.102233	0.399720	0.601911
	C203	C	0.913953	0.399225	0.402236
	C204	C	0.910356	0.592718	0.101815
	C205	C	0.108359	0.405732	0.102831
	C206	C	0.108971	0.593232	0.901349
	C207	C	0.909625	0.404647	0.903629
	C208	C	0.107949	0.898190	0.594930
	C209	C	0.109016	0.098995	0.408940
	C210	C	0.909213	0.097298	0.595199
	C211	C	0.908777	0.898617	0.408545
	C212	C	0.602248	0.099092	0.901488
	C213	C	0.414347	0.097798	0.102234
	C214	C	0.601765	0.900526	0.101602
	C215	C	0.414475	0.900261	0.903540
	Zn216	Zn	0.508233	-0.000744	0.752694
	Zn217	Zn	0.508366	-0.000524	0.252315
	Zn218	Zn	0.759972	0.499202	0.002948
	Zn219	Zn	0.258697	0.499730	0.002477
	Zn220	Zn	0.007724	0.748045	0.501931
	Zn221	Zn	0.008769	0.249058	0.502523
	Zn222	Zn	0.008816	0.498750	0.752441
	Zn223	Zn	0.008413	0.498930	0.252720
	Zn224	Zn	0.508483	0.749701	0.002503
	Zn225	Zn	0.508560	0.248838	0.002425
	Zn226	Zn	0.758407	-0.002051	0.502099
	Zn227	Zn	0.259528	-0.001166	0.502812
	N228	N	0.422398	0.961789	0.682038
	N229	N	0.594356	0.035984	0.680923
	N230	N	0.594955	0.962137	0.322849
	N231	N	0.423161	0.036397	0.323702
	N232	N	0.687809	0.414167	0.965123
	N233	N	0.687812	0.584472	0.040227
	N234	N	0.330622	0.585008	0.965079
	N235	N	0.330330	0.413861	0.039988
	N236	N	0.970076	0.676712	0.417118
	N237	N	0.045995	0.676125	0.586500
	N238	N	0.971102	0.320428	0.587677
	N239	N	0.045902	0.321937	0.417926
	N240	N	0.971761	0.411811	0.682273
	N241	N	0.045920	0.584077	0.680448
	N242	N	0.970761	0.584970	0.323020
	N243	N	0.045690	0.413308	0.323947
	N244	N	0.423469	0.677886	0.965087
	N245	N	0.594941	0.678457	0.039893
	N246	N	0.594913	0.320240	0.965283
	N247	N	0.424281	0.321367	0.040014
	N248	N	0.686011	0.960738	0.417649
	N249	N	0.686515	0.035790	0.586828
	N250	N	0.330231	0.961303	0.588483
	N251	N	0.331553	0.036607	0.417818
	N252	N	0.923464	0.461324	0.181055
	N253	N	0.094614	0.536647	0.181703
	N254	N	0.095589	0.461996	0.822823
	N255	N	0.923635	0.535975	0.823742
	N256	N	0.187761	0.913125	0.464909
	N257	N	0.186895	0.083720	0.539987
	N258	N	0.830984	0.082887	0.464314
	N259	N	0.829678	0.912161	0.539202
	N260	N	0.471079	0.177768	0.917073
	N261	N	0.546276	0.175944	0.086279
	N262	N	0.470504	0.821000	0.087702
	N263	N	0.545922	0.822372	0.917985
	N264	N	0.471239	0.912576	0.182223
	N265	N	0.545635	0.084586	0.180519
	N266	N	0.470940	0.085677	0.823133
	N267	N	0.545760	0.914503	0.824440
	N268	N	0.923453	0.177343	0.465072
	N269	N	0.094625	0.177693	0.539394
	N270	N	0.093817	0.819971	0.464503
	N271	N	0.923131	0.819717	0.539559
	N272	N	0.186643	0.461509	0.917687
	N273	N	0.186433	0.537411	0.087182
	N274	N	0.830705	0.461656	0.088289
	N275	N	0.831945	0.536698	0.918137
	O276	O	-0.081573	-0.006013	1.005054
	H277	H	-0.091062	-0.001521	1.012628
	H278	H	-0.083212	-0.013044	0.995564
	O279	O	0.380752	0.515160	0.464998
	H280	H	0.377367	0.517126	0.460830
	H281	H	0.385506	0.503254	0.469703
	O282	O	0.391030	0.536655	0.490981
	H283	H	0.393213	0.542304	0.482807
	H284	H	0.375142	0.535647	0.487636
	O285	O	0.402620	0.488172	0.488533
	H286	H	0.404463	0.480276	0.494024
	H287	H	0.402287	0.492470	0.493957
	O288	O	-0.026604	0.924006	0.017164
	H289	H	-0.028053	0.917621	0.012977
	H290	H	-0.023214	0.921642	0.010848
	O291	O	-0.055422	1.018905	0.977725
	H292	H	-0.062332	1.020183	0.980030
	H293	H	-0.058134	1.024334	0.986467
	O294	O	0.415261	0.502088	0.511602
	H295	H	0.413660	0.511622	0.516065
	H296	H	0.412778	0.505303	0.505282
	O297	O	0.917741	-0.009730	-0.027014
	H298	H	0.917084	-0.013673	-0.031807
	H299	H	0.920026	0.004404	-0.022544
