data_Molecule from HDF5

_cell_length_a		16.195253
_cell_length_b		16.229002
_cell_length_c		16.441508
_cell_angle_alpha	90.023723
_cell_angle_beta	90.044974
_cell_angle_gamma	89.911225
_symmetry_space_group_name_H-M	'P 1'
_symmetry_Int_Tables_number		1

loop_
	_symmetry_equiv_pos_as_xyz
	x,y,z

loop_
	_atom_site_label
	_atom_site_type_symbol
	_atom_site_fract_x
	_atom_site_fract_y
	_atom_site_fract_z
	H0	H	0.388790	0.847809	0.720389
	H1	H	0.593898	0.172338	0.719577
	H2	H	0.596235	0.847128	0.285197
	H3	H	0.389922	0.171795	0.284158
	H4	H	0.708355	0.409286	0.840544
	H5	H	0.708775	0.608305	0.163969
	H6	H	0.276109	0.610330	0.841344
	H7	H	0.274949	0.408789	0.162818
	H8	H	0.827356	0.724471	0.404031
	H9	H	0.156028	0.726305	0.601117
	H10	H	0.826917	0.297882	0.598860
	H11	H	0.155580	0.294853	0.401993
	H12	H	0.829311	0.408657	0.719200
	H13	H	0.154926	0.615595	0.721444
	H14	H	0.829503	0.613409	0.284046
	H15	H	0.155850	0.409413	0.285355
	H16	H	0.391462	0.726780	0.841883
	H17	H	0.592469	0.724738	0.164815
	H18	H	0.592964	0.291904	0.840939
	H19	H	0.391312	0.292746	0.163648
	H20	H	0.707408	0.846369	0.405512
	H21	H	0.703311	0.174906	0.598748
	H22	H	0.278631	0.846076	0.600829
	H23	H	0.279595	0.174181	0.405561
	H24	H	0.891822	0.347761	0.218296
	H25	H	0.095222	0.673528	0.219132
	H26	H	0.094596	0.348013	0.783771
	H27	H	0.889232	0.673257	0.784831
	H28	H	0.209430	0.909325	0.340809
	H29	H	0.208627	0.110132	0.664151
	H30	H	0.774757	0.110330	0.340701
	H31	H	0.776065	0.911801	0.664950
	H32	H	0.328399	0.224761	0.903489
	H33	H	0.656474	0.223076	0.100751
	H34	H	0.328085	0.795320	0.099717
	H35	H	0.656701	0.793665	0.903249
	H36	H	0.330339	0.904502	0.220701
	H37	H	0.655574	0.110061	0.218775
	H38	H	0.329834	0.113869	0.783518
	H39	H	0.655456	0.907394	0.785104
	H40	H	0.890282	0.226709	0.340564
	H41	H	0.092152	0.227918	0.663426
	H42	H	0.091878	0.793906	0.340410
	H43	H	0.889515	0.792424	0.663562
	H44	H	0.207622	0.346002	0.902224
	H45	H	0.206621	0.674201	0.100300
	H46	H	0.781503	0.345196	0.098084
	H47	H	0.776655	0.673939	0.902884
	H48	H	0.400102	0.127980	0.600763
	H49	H	0.597518	0.890474	0.590804
	H50	H	0.575819	0.124291	0.407283
	H51	H	0.410177	0.895424	0.408834
	H52	H	0.589064	0.409972	0.119840
	H53	H	0.581738	0.606094	0.886941
	H54	H	0.399883	0.606705	0.119181
	H55	H	0.399667	0.415732	0.886862
	H56	H	0.109157	0.603608	0.407628
	H57	H	0.877231	0.596114	0.595883
	H58	H	0.110840	0.411486	0.594059
	H59	H	0.874386	0.415738	0.407986
	H60	H	0.104713	0.423853	0.585161
	H61	H	0.874795	0.605048	0.598403
	H62	H	0.108765	0.603634	0.412231
	H63	H	0.876111	0.422145	0.410893
	H64	H	0.396742	0.598700	0.117728
	H65	H	0.589606	0.601573	0.885793
	H66	H	0.590093	0.421278	0.117325
	H67	H	0.400269	0.417840	0.887537
	H68	H	0.585364	0.124790	0.414882
	H69	H	0.578190	0.890553	0.608575
	H70	H	0.406444	0.124592	0.594295
	H71	H	0.398743	0.894808	0.417013
	H72	H	0.906356	0.626014	0.097858
	H73	H	0.093478	0.392925	0.088241
	H74	H	0.084411	0.626803	0.910915
	H75	H	0.894196	0.394657	0.917783
	H76	H	0.083614	0.919414	0.616174
	H77	H	0.088167	0.101134	0.386792
	H78	H	0.906246	0.100130	0.613542
	H79	H	0.896259	0.924923	0.389176
	H80	H	0.609482	0.101462	0.908731
	H81	H	0.374481	0.102503	0.093638
	H82	H	0.613297	0.910987	0.102243
	H83	H	0.376714	0.917942	0.909448
	H84	H	0.607927	0.912792	0.085845
	H85	H	0.377263	0.098694	0.091775
	H86	H	0.607377	0.099772	0.912907
	H87	H	0.376631	0.918412	0.911499
	H88	H	0.899318	0.113507	0.619721
	H89	H	0.082262	0.101167	0.388669
	H90	H	0.083385	0.918495	0.616005
	H91	H	0.906609	0.918088	0.390069
	H92	H	0.081529	0.626048	0.909120
	H93	H	0.081931	0.391479	0.106464
	H94	H	0.901047	0.625699	0.087858
	H95	H	0.898114	0.390177	0.897750
	H96	H	0.397318	0.127073	0.591674
	H97	H	0.574103	0.899041	0.584988
	H98	H	0.586820	0.129749	0.403799
	H99	H	0.397948	0.890135	0.403964
	H100	H	0.580012	0.416086	0.115372
	H101	H	0.582734	0.597737	0.889881
	H102	H	0.404773	0.600414	0.116287
	H103	H	0.401183	0.415210	0.887853
	H104	H	0.108157	0.599583	0.409813
	H105	H	0.877009	0.602831	0.589376
	H106	H	0.108541	0.426232	0.601384
	H107	H	0.875293	0.421054	0.404367
	H108	H	0.895347	0.629094	0.097266
	H109	H	0.072668	0.399172	0.088866
	H110	H	0.082554	0.625115	0.911993
	H111	H	0.913571	0.397781	0.909907
	H112	H	0.085236	0.918341	0.616722
	H113	H	0.084680	0.107130	0.386747
	H114	H	0.891455	0.099758	0.618915
	H115	H	0.895057	0.913451	0.385469
	H116	H	0.607685	0.096368	0.909408
	H117	H	0.375698	0.098451	0.096419
	H118	H	0.606847	0.926525	0.097716
	H119	H	0.376709	0.920328	0.909717
	C120	C	0.371176	0.018487	0.624330
	C121	C	0.612858	1.001503	0.623917
	C122	C	0.613031	0.018438	0.380841
	C123	C	0.371503	1.000827	0.380281
	C124	C	0.615148	0.387020	0.010609
	C125	C	0.614406	0.631323	0.994268
	C126	C	0.370619	0.631518	0.011231
	C127	C	0.370531	0.387313	0.994018
	C128	C	0.000463	0.632298	0.380527
	C129	C	0.984259	0.632380	0.624356
	C130	C	0.000080	0.390270	0.622935
	C131	C	0.983298	0.389768	0.379299
	C132	C	0.871907	0.518656	0.123114
	C133	C	0.113493	0.502168	0.123723
	C134	C	0.113376	0.518492	0.880559
	C135	C	0.870616	0.501876	0.879509
	C136	C	0.113750	0.888788	0.510070
	C137	C	0.114639	0.132903	0.493783
	C138	C	0.869233	0.133382	0.510744
	C139	C	0.869523	0.888812	0.494587
	C140	C	0.500514	0.130106	0.880858
	C141	C	0.483945	0.130084	0.123528
	C142	C	0.501205	0.887059	0.123816
	C143	C	0.484193	0.888152	0.880746
	C144	C	0.370385	0.896303	0.681328
	C145	C	0.612238	0.124031	0.680382
	C146	C	0.614397	0.895619	0.324447
	C147	C	0.371318	0.123462	0.323532
	C148	C	0.670843	0.388713	0.889068
	C149	C	0.670760	0.629237	0.115784
	C150	C	0.314323	0.630183	0.889649
	C151	C	0.313827	0.389126	0.115091
	C152	C	0.876899	0.687591	0.382783
	C153	C	0.107020	0.688544	0.621781
	C154	C	0.876677	0.334472	0.620533
	C155	C	0.106687	0.333091	0.381594
	C156	C	0.877833	0.389767	0.680410
	C157	C	0.106452	0.633378	0.681608
	C158	C	0.878115	0.632324	0.323108
	C159	C	0.106712	0.389884	0.323429
	C160	C	0.371545	0.688174	0.889927
	C161	C	0.612832	0.687008	0.116154
	C162	C	0.613073	0.330775	0.888965
	C163	C	0.371138	0.330810	0.115311
	C164	C	0.669850	0.895340	0.383914
	C165	C	0.667078	0.125388	0.620742
	C166	C	0.315510	0.895286	0.621870
	C167	C	0.316154	0.124533	0.383489
	C168	C	0.872652	0.396263	0.179419
	C169	C	0.113850	0.624760	0.180253
	C170	C	0.113906	0.396405	0.822893
	C171	C	0.869983	0.624332	0.823015
	C172	C	0.170799	0.889515	0.389015
	C173	C	0.170499	0.130703	0.615668
	C174	C	0.812905	0.130803	0.389096
	C175	C	0.813291	0.890585	0.616204
	C176	C	0.377336	0.186579	0.883039
	C177	C	0.607262	0.185590	0.121175
	C178	C	0.377605	0.831962	0.121163
	C179	C	0.607538	0.831884	0.882868
	C180	C	0.378592	0.886709	0.180987
	C181	C	0.606713	0.129307	0.179842
	C182	C	0.378190	0.131358	0.823407
	C183	C	0.606991	0.888162	0.824061
	C184	C	0.870353	0.188704	0.388912
	C185	C	0.112493	0.189252	0.615266
	C186	C	0.111981	0.832305	0.388753
	C187	C	0.870233	0.831736	0.615575
	C188	C	0.170125	0.395388	0.881853
	C189	C	0.169740	0.625009	0.121350
	C190	C	0.817853	0.394877	0.119456
	C191	C	0.814374	0.624841	0.882181
	C192	C	0.394466	0.104404	0.601963
	C193	C	0.589929	0.915462	0.601379
	C194	C	0.589492	0.103938	0.402408
	C195	C	0.395326	0.915485	0.403137
	C196	C	0.592762	0.409118	0.095469
	C197	C	0.591401	0.608490	0.909597
	C198	C	0.393806	0.608741	0.095896
	C199	C	0.393623	0.409592	0.909402
	C200	C	0.086371	0.609120	0.403239
	C201	C	0.898420	0.608353	0.601321
	C202	C	0.085768	0.413659	0.600150
	C203	C	0.897444	0.412832	0.401501
	C204	C	0.894334	0.604581	0.100982
	C205	C	0.089843	0.416661	0.101042
	C206	C	0.089601	0.603791	0.903733
	C207	C	0.894712	0.416321	0.901958
	C208	C	0.090682	0.912067	0.594500
	C209	C	0.091807	0.110059	0.409380
	C210	C	0.892266	0.111024	0.595486
	C211	C	0.892532	0.911895	0.410142
	C212	C	0.585843	0.106102	0.903742
	C213	C	0.397981	0.106662	0.100611
	C214	C	0.587205	0.910038	0.101701
	C215	C	0.398718	0.911863	0.903482
	Zn216	Zn	0.492117	0.009642	0.752141
	Zn217	Zn	0.492713	0.008884	0.251472
	Zn218	Zn	0.743570	0.509805	0.002047
	Zn219	Zn	0.241713	0.509860	0.001888
	Zn220	Zn	-0.008397	0.759712	0.502415
	Zn221	Zn	-0.008265	0.262210	0.501128
	Zn222	Zn	-0.007643	0.511169	0.751819
	Zn223	Zn	-0.007448	0.511088	0.251732
	Zn224	Zn	0.492539	0.759585	0.002791
	Zn225	Zn	0.492528	0.258389	0.002530
	Zn226	Zn	0.740690	0.010953	0.502874
	Zn227	Zn	0.244002	0.009623	0.502686
	N228	N	0.404010	0.974045	0.683102
	N229	N	0.579480	0.045713	0.682521
	N230	N	0.579536	0.972916	0.322503
	N231	N	0.404726	0.045580	0.321191
	N232	N	0.672109	0.423050	0.965587
	N233	N	0.671971	0.595455	0.039017
	N234	N	0.313562	0.595536	0.966046
	N235	N	0.313268	0.423556	0.038694
	N236	N	0.954117	0.687986	0.417418
	N237	N	0.029779	0.687977	0.586997
	N238	N	0.953724	0.334603	0.585547
	N239	N	0.028897	0.332626	0.415416
	N240	N	0.955634	0.423776	0.681986
	N241	N	0.028798	0.599296	0.683123
	N242	N	0.956072	0.598603	0.321706
	N243	N	0.029092	0.424359	0.322094
	N244	N	0.405784	0.689043	0.966417
	N245	N	0.578782	0.688534	0.039428
	N246	N	0.579116	0.329463	0.965566
	N247	N	0.405715	0.329528	0.038990
	N248	N	0.669362	0.972592	0.418290
	N249	N	0.667534	0.048252	0.586385
	N250	N	0.315897	0.972435	0.587150
	N251	N	0.316074	0.047409	0.418147
	N252	N	0.905618	0.474304	0.181717
	N253	N	0.079528	0.547301	0.181685
	N254	N	0.079524	0.473857	0.821840
	N255	N	0.904598	0.546929	0.821381
	N256	N	0.171973	0.923962	0.465509
	N257	N	0.171971	0.096333	0.539307
	N258	N	0.811942	0.097014	0.465968
	N259	N	0.813019	0.925673	0.540066
	N260	N	0.454475	0.186124	0.918088
	N261	N	0.529748	0.186115	0.086933
	N262	N	0.454757	0.832224	0.086328
	N263	N	0.530302	0.831630	0.917453
	N264	N	0.456558	0.920372	0.182778
	N265	N	0.528830	0.095574	0.181316
	N266	N	0.455769	0.096788	0.822039
	N267	N	0.529149	0.922354	0.822311
	N268	N	0.904815	0.190369	0.465295
	N269	N	0.078537	0.190785	0.538525
	N270	N	0.077243	0.831733	0.465092
	N271	N	0.904217	0.830312	0.538964
	N272	N	0.169718	0.472279	0.917191
	N273	N	0.169617	0.547805	0.086727
	N274	N	0.817080	0.472103	0.085209
	N275	N	0.814658	0.547600	0.916494
	O276	O	1.067707	0.124990	1.132881
	H277	H	1.073667	0.127721	1.144846
	H278	H	1.073596	0.125341	1.118285
	O279	O	0.469679	0.420413	0.381597
	H280	H	0.478027	0.421074	0.370841
	H281	H	0.481748	0.419839	0.389718
	O282	O	0.579710	0.532765	0.543946
	H283	H	0.575976	0.524481	0.564682
	H284	H	0.578479	0.535049	0.546754
	O285	O	0.398516	0.500673	0.518785
	H286	H	0.396193	0.489511	0.512250
	H287	H	0.397038	0.506586	0.517161
	O288	O	0.410047	0.507991	0.506706
	H289	H	0.411016	0.507281	0.500260
	H290	H	0.409021	0.510186	0.520663
	O291	O	0.001998	0.022436	1.158885
	H292	H	-0.003791	0.024500	1.165345
	H293	H	0.014895	0.024759	1.160655
	O294	O	0.982986	1.046478	-0.071318
	H295	H	0.993499	1.039623	-0.065741
	H296	H	0.982011	1.042296	-0.070843
	O297	O	1.075213	0.973006	-0.072685
	H298	H	1.076590	0.971266	-0.075571
	H299	H	1.077694	0.967111	-0.079503
	O300	O	0.440542	0.492856	0.534999
	H301	H	0.439420	0.488321	0.522221
	H302	H	0.438096	0.499796	0.530686
	O303	O	0.491726	0.521961	0.453908
	H304	H	0.487810	0.513426	0.461501
	H305	H	0.487216	0.514523	0.451819
	O306	O	0.483424	0.473216	0.485222
	H307	H	0.479191	0.474771	0.473158
	H308	H	0.485930	0.478341	0.488386
	O309	O	0.569076	0.577866	0.575408
	H310	H	0.576442	0.575133	0.584607
	H311	H	0.575364	0.583820	0.577062
	O312	O	0.946837	1.075505	1.086568
	H313	H	0.953306	1.086591	1.098278
	H314	H	0.953769	1.075425	1.083416
	O315	O	0.443581	0.485482	0.584495
	H316	H	0.448390	0.488735	0.583696
	H317	H	0.455692	0.479231	0.579889
	O318	O	0.373880	0.595666	0.614322
	H319	H	0.370822	0.605517	0.618040
	H320	H	0.393606	0.586149	0.630453
	O321	O	0.528200	0.635613	0.592577
	H322	H	0.533588	0.630328	0.598939
	H323	H	0.526624	0.649787	0.585630
	O324	O	-0.047877	0.898064	0.958328
	H325	H	-0.045737	0.899843	0.957431
	H326	H	-0.044677	0.894006	0.959408
	O327	O	0.010907	0.940808	1.107903
	H328	H	0.005484	0.942116	1.104989
	H329	H	-0.001985	0.928493	1.109625
	O330	O	0.077863	-0.086354	-0.128760
	H331	H	0.083545	-0.080617	-0.134898
	H332	H	0.074323	-0.075156	-0.112384
	O333	O	0.572386	0.612093	0.477306
	H334	H	0.555923	0.613414	0.463035
	H335	H	0.566875	0.603636	0.469686
	O336	O	-0.025238	0.002793	-0.054667
	H337	H	-0.019073	-0.005712	-0.060993
	H338	H	-0.025332	0.017822	-0.055924
	O339	O	0.060189	0.064249	0.064465
	H340	H	0.055559	0.070793	0.074590
	H341	H	0.052893	0.054501	0.062552
	O342	O	0.447399	0.396862	0.568440
	H343	H	0.427783	0.387019	0.568155
	H344	H	0.456474	0.387473	0.554167
	O345	O	-0.010642	1.040493	1.077087
	H346	H	-0.016060	1.041437	1.069687
	H347	H	-0.003292	1.036653	1.072043
	O348	O	0.937332	0.067650	-0.149493
	H349	H	0.956130	0.080027	-0.165247
	H350	H	0.937666	0.057020	-0.149554
	O351	O	0.538839	0.446003	0.413346
	H352	H	0.534509	0.448004	0.415549
	H353	H	0.535096	0.447443	0.416969
	O354	O	0.027772	0.945519	-0.046599
	H355	H	0.016792	0.938316	-0.067060
	H356	H	0.041955	0.948656	-0.033024
	O357	O	0.996695	0.083179	-0.133264
	H358	H	0.995246	0.073318	-0.132818
	H359	H	0.995556	0.079914	-0.130013
	O360	O	0.974094	0.094111	0.928270
	H361	H	0.970857	0.100529	0.933921
	H362	H	0.964944	0.090771	0.934800
	O363	O	0.656603	0.553336	0.481927
	H364	H	0.654092	0.556279	0.469451
	H365	H	0.668743	0.557594	0.481564
	O366	O	0.598649	0.395806	0.530146
	H367	H	0.603342	0.392377	0.528264
	H368	H	0.598518	0.399230	0.527259
	O369	O	0.895244	-0.039509	0.033533
	H370	H	0.900331	-0.038439	0.026834
	H371	H	0.892098	-0.037139	0.026262
	O372	O	0.450329	0.419621	0.466653
	H373	H	0.446735	0.428997	0.466041
	H374	H	0.446639	0.426155	0.463985
	O375	O	0.948629	-0.050599	1.031980
	H376	H	0.942638	-0.044453	1.031602
	H377	H	0.950621	-0.047241	1.026838
	O378	O	-0.004951	1.078748	0.064783
	H379	H	0.005122	1.084232	0.057677
	H380	H	0.001808	1.076460	0.060148
	O381	O	0.480310	0.552206	0.455470
	H382	H	0.485010	0.563471	0.465514
	H383	H	0.486467	0.549254	0.465620
	O384	O	1.021569	0.916068	0.063311
	H385	H	1.012701	0.903166	0.063397
	H386	H	1.022407	0.916585	0.056554
	O387	O	1.142741	-0.043000	0.931734
	H388	H	1.150706	-0.041710	0.931535
	H389	H	1.136555	-0.036201	0.938466
	O390	O	0.973781	1.051444	0.118717
	H391	H	0.964722	1.053150	0.127523
	H392	H	0.973112	1.052938	0.121803
	O393	O	0.345431	0.544440	0.437143
	H394	H	0.359329	0.547470	0.447743
	H395	H	0.326264	0.541705	0.428817
