data_Molecule from HDF5

_cell_length_a		16.407590
_cell_length_b		16.402020
_cell_length_c		16.463356
_cell_angle_alpha	89.909962
_cell_angle_beta	90.200170
_cell_angle_gamma	90.108020
_symmetry_space_group_name_H-M	'P 1'
_symmetry_Int_Tables_number		1

loop_
	_symmetry_equiv_pos_as_xyz
	x,y,z

loop_
	_atom_site_label
	_atom_site_type_symbol
	_atom_site_fract_x
	_atom_site_fract_y
	_atom_site_fract_z
	H0	H	0.389237	0.845746	0.724626
	H1	H	0.603974	0.161118	0.722746
	H2	H	0.604412	0.844613	0.279374
	H3	H	0.393651	0.161930	0.280979
	H4	H	0.722158	0.397757	0.844746
	H5	H	0.722005	0.609055	0.160499
	H6	H	0.273292	0.610912	0.845762
	H7	H	0.279530	0.398014	0.162241
	H8	H	0.839397	0.724074	0.396056
	H9	H	0.156793	0.726222	0.609270
	H10	H	0.841305	0.278202	0.610668
	H11	H	0.156825	0.282798	0.398792
	H12	H	0.841559	0.394182	0.726286
	H13	H	0.157870	0.608430	0.723086
	H14	H	0.840727	0.608557	0.279990
	H15	H	0.157371	0.398063	0.283953
	H16	H	0.391827	0.725052	0.843363
	H17	H	0.607144	0.726246	0.160071
	H18	H	0.605004	0.281742	0.844553
	H19	H	0.394915	0.281376	0.161087
	H20	H	0.719698	0.844747	0.394997
	H21	H	0.719192	0.161279	0.605545
	H22	H	0.278017	0.844005	0.604974
	H23	H	0.275968	0.161224	0.392908
	H24	H	0.892673	0.344529	0.225117
	H25	H	0.104333	0.661722	0.224166
	H26	H	0.106887	0.344961	0.779942
	H27	H	0.891401	0.660383	0.778975
	H28	H	0.217402	0.898464	0.342404
	H29	H	0.222400	0.108496	0.658859
	H30	H	0.777738	0.106466	0.341777
	H31	H	0.775420	0.895631	0.659636
	H32	H	0.340333	0.224378	0.896433
	H33	H	0.657593	0.224184	0.108890
	H34	H	0.339678	0.780974	0.106235
	H35	H	0.657702	0.783892	0.897651
	H36	H	0.338980	0.897704	0.221064
	H37	H	0.656898	0.108594	0.224027
	H38	H	0.339660	0.109546	0.779482
	H39	H	0.656112	0.896781	0.779614
	H40	H	0.893317	0.224127	0.342946
	H41	H	0.104020	0.222324	0.660842
	H42	H	0.101298	0.782218	0.343522
	H43	H	0.892619	0.781610	0.659950
	H44	H	0.218924	0.343237	0.898605
	H45	H	0.218858	0.662455	0.107210
	H46	H	0.776765	0.344478	0.109485
	H47	H	0.779423	0.662201	0.898286
	H48	H	0.418947	0.111841	0.586450
	H49	H	0.590654	0.888654	0.587887
	H50	H	0.590014	0.117027	0.413142
	H51	H	0.415045	0.891060	0.409978
	H52	H	0.596086	0.419323	0.115462
	H53	H	0.591145	0.590225	0.889760
	H54	H	0.412127	0.593225	0.114258
	H55	H	0.407347	0.414633	0.889257
	H56	H	0.112012	0.587289	0.409507
	H57	H	0.884725	0.594154	0.590406
	H58	H	0.111729	0.416343	0.592874
	H59	H	0.885960	0.414005	0.416349
	H60	H	0.111968	0.411989	0.592331
	H61	H	0.886841	0.588787	0.588719
	H62	H	0.114476	0.599331	0.413305
	H63	H	0.885489	0.416275	0.411840
	H64	H	0.409027	0.593548	0.115325
	H65	H	0.585385	0.592275	0.891526
	H66	H	0.580994	0.418690	0.110903
	H67	H	0.409896	0.414995	0.890340
	H68	H	0.585495	0.117145	0.408114
	H69	H	0.584377	0.888007	0.596066
	H70	H	0.403620	0.116556	0.583266
	H71	H	0.405522	0.890257	0.418038
	H72	H	0.909803	0.616314	0.091770
	H73	H	0.089996	0.390411	0.087869
	H74	H	0.083127	0.613406	0.916514
	H75	H	0.906088	0.388950	0.917500
	H76	H	0.088745	0.913958	0.615002
	H77	H	0.089207	0.094695	0.387192
	H78	H	0.909697	0.090047	0.613471
	H79	H	0.903664	0.910722	0.387138
	H80	H	0.611767	0.095896	0.914750
	H81	H	0.385730	0.092940	0.087157
	H82	H	0.612327	0.910365	0.090129
	H83	H	0.381901	0.918719	0.900173
	H84	H	0.609369	0.917620	0.088684
	H85	H	0.385571	0.089903	0.092559
	H86	H	0.609297	0.088350	0.915167
	H87	H	0.382634	0.902178	0.918045
	H88	H	0.908220	0.091830	0.614561
	H89	H	0.087413	0.089591	0.389579
	H90	H	0.087547	0.918378	0.613605
	H91	H	0.907738	0.919030	0.390237
	H92	H	0.089017	0.615428	0.916345
	H93	H	0.094607	0.386135	0.097820
	H94	H	0.912381	0.616003	0.093707
	H95	H	0.913018	0.388610	0.909050
	H96	H	0.410099	0.118963	0.597770
	H97	H	0.581124	0.892610	0.587440
	H98	H	0.583957	0.114819	0.414722
	H99	H	0.404236	0.886814	0.406045
	H100	H	0.587937	0.406153	0.117722
	H101	H	0.588980	0.596129	0.888892
	H102	H	0.410177	0.590663	0.114967
	H103	H	0.409335	0.412720	0.889322
	H104	H	0.108634	0.591410	0.420802
	H105	H	0.885558	0.590376	0.595137
	H106	H	0.110554	0.414608	0.589247
	H107	H	0.883741	0.411167	0.412554
	H108	H	0.912499	0.615460	0.090875
	H109	H	0.082847	0.389684	0.097558
	H110	H	0.086017	0.615660	0.910795
	H111	H	0.916453	0.392869	0.917694
	H112	H	0.084422	0.914577	0.613950
	H113	H	0.083738	0.094500	0.389082
	H114	H	0.907314	0.089924	0.614090
	H115	H	0.912809	0.911516	0.389469
	H116	H	0.612920	0.091056	0.908320
	H117	H	0.383141	0.095924	0.092811
	H118	H	0.612534	0.916086	0.096043
	H119	H	0.391612	0.924293	0.922235
	C120	C	0.377080	0.011714	0.622324
	C121	C	0.618435	0.994388	0.622418
	C122	C	0.618965	0.011476	0.379553
	C123	C	0.376098	0.994379	0.379047
	C124	C	0.621100	0.381902	0.010807
	C125	C	0.621323	0.625091	0.994461
	C126	C	0.377263	0.624946	0.010490
	C127	C	0.377578	0.381890	0.994674
	C128	C	0.006906	0.624549	0.381536
	C129	C	0.990428	0.624207	0.623703
	C130	C	0.007316	0.380453	0.624857
	C131	C	0.989358	0.381597	0.381870
	C132	C	0.878517	0.511156	0.124416
	C133	C	0.121079	0.493970	0.125878
	C134	C	0.119569	0.510526	0.881758
	C135	C	0.878444	0.494353	0.881285
	C136	C	0.118525	0.882893	0.509837
	C137	C	0.120194	0.124761	0.492943
	C138	C	0.876438	0.123724	0.509282
	C139	C	0.875751	0.881157	0.493300
	C140	C	0.506814	0.124402	0.880157
	C141	C	0.490247	0.124520	0.123087
	C142	C	0.506780	0.881540	0.123504
	C143	C	0.489784	0.882279	0.880562
	C144	C	0.372375	0.892944	0.683781
	C145	C	0.621912	0.113684	0.682501
	C146	C	0.622080	0.892354	0.319116
	C147	C	0.374379	0.113915	0.319671
	C148	C	0.681803	0.379410	0.891957
	C149	C	0.681799	0.627106	0.113100
	C150	C	0.314983	0.628216	0.892292
	C151	C	0.318844	0.379654	0.114236
	C152	C	0.887336	0.684034	0.378640
	C153	C	0.109430	0.685323	0.626885
	C154	C	0.888730	0.318874	0.628209
	C155	C	0.109310	0.322447	0.380491
	C156	C	0.888734	0.376844	0.685751
	C157	C	0.109798	0.626907	0.683976
	C158	C	0.887822	0.626676	0.320614
	C159	C	0.109483	0.379977	0.323323
	C160	C	0.373904	0.685183	0.891375
	C161	C	0.624452	0.685617	0.112686
	C162	C	0.623598	0.321797	0.891761
	C163	C	0.376655	0.321770	0.113891
	C164	C	0.679448	0.892156	0.376946
	C165	C	0.679056	0.113873	0.623980
	C166	C	0.316762	0.892236	0.624226
	C167	C	0.315711	0.113271	0.375599
	C168	C	0.875065	0.391906	0.184779
	C169	C	0.122599	0.613986	0.184767
	C170	C	0.123316	0.392023	0.820832
	C171	C	0.874482	0.613249	0.820024
	C172	C	0.177693	0.880464	0.390204
	C173	C	0.181757	0.127012	0.611800
	C174	C	0.816971	0.125599	0.389821
	C175	C	0.815462	0.878122	0.612045
	C176	C	0.387679	0.184650	0.877905
	C177	C	0.609751	0.184167	0.126286
	C178	C	0.387314	0.821422	0.124790
	C179	C	0.609646	0.823115	0.878962
	C180	C	0.386827	0.879607	0.181947
	C181	C	0.609411	0.126502	0.183719
	C182	C	0.387465	0.127640	0.819465
	C183	C	0.608636	0.879324	0.819941
	C184	C	0.875050	0.183628	0.390242
	C185	C	0.122359	0.183417	0.612786
	C186	C	0.119997	0.822494	0.390775
	C187	C	0.873914	0.821088	0.612300
	C188	C	0.179579	0.391249	0.880065
	C189	C	0.179800	0.614317	0.126627
	C190	C	0.817554	0.391887	0.126897
	C191	C	0.818644	0.614094	0.879465
	C192	C	0.403316	0.094272	0.596727
	C193	C	0.592706	0.911321	0.597533
	C194	C	0.593804	0.094429	0.404799
	C195	C	0.401240	0.910999	0.404099
	C196	C	0.595710	0.407261	0.093278
	C197	C	0.595623	0.600030	0.911454
	C198	C	0.403212	0.599845	0.093315
	C199	C	0.401928	0.406968	0.911498
	C200	C	0.090127	0.599707	0.407207
	C201	C	0.907165	0.598526	0.598527
	C202	C	0.089969	0.406772	0.599013
	C203	C	0.906435	0.406569	0.406630
	C204	C	0.904198	0.594196	0.099350
	C205	C	0.096444	0.410553	0.101490
	C206	C	0.093538	0.593353	0.907321
	C207	C	0.904471	0.411611	0.907079
	C208	C	0.093967	0.908304	0.592595
	C209	C	0.094369	0.100075	0.410178
	C210	C	0.901449	0.098084	0.592407
	C211	C	0.901021	0.906673	0.410352
	C212	C	0.589630	0.098961	0.905450
	C213	C	0.406551	0.099953	0.098040
	C214	C	0.589858	0.907136	0.098700
	C215	C	0.406933	0.907719	0.906078
	Zn216	Zn	0.497893	0.003121	0.751671
	Zn217	Zn	0.497577	0.003167	0.251564
	Zn218	Zn	0.750354	0.503008	0.002766
	Zn219	Zn	0.248393	0.503076	0.002997
	Zn220	Zn	-0.001919	0.753069	0.502662
	Zn221	Zn	-0.001755	0.253149	0.502250
	Zn222	Zn	-0.000913	0.502851	0.752295
	Zn223	Zn	-0.001070	0.502473	0.253628
	Zn224	Zn	0.498809	0.753642	0.001726
	Zn225	Zn	0.499312	0.252795	0.001848
	Zn226	Zn	0.747127	0.002327	0.501103
	Zn227	Zn	0.248789	0.003233	0.500689
	N228	N	0.409405	0.968120	0.682630
	N229	N	0.585073	0.038430	0.681694
	N230	N	0.585193	0.967574	0.320534
	N231	N	0.411160	0.038793	0.321650
	N232	N	0.680509	0.415931	0.966920
	N233	N	0.679942	0.590195	0.038292
	N234	N	0.317050	0.591448	0.967153
	N235	N	0.319350	0.416359	0.039082
	N236	N	0.962438	0.682699	0.415897
	N237	N	0.033985	0.683982	0.590452
	N238	N	0.963571	0.320978	0.591138
	N239	N	0.033801	0.323455	0.416328
	N240	N	0.963600	0.414525	0.683668
	N241	N	0.034718	0.589642	0.682137
	N242	N	0.963248	0.590256	0.322378
	N243	N	0.033939	0.416140	0.323810
	N244	N	0.412000	0.683257	0.965983
	N245	N	0.587384	0.684539	0.037713
	N246	N	0.586595	0.323039	0.966561
	N247	N	0.412506	0.322912	0.038521
	N248	N	0.677548	0.967134	0.413855
	N249	N	0.677124	0.038643	0.587418
	N250	N	0.319563	0.967053	0.586546
	N251	N	0.316450	0.037748	0.411860
	N252	N	0.912310	0.466952	0.183270
	N253	N	0.086828	0.538122	0.184551
	N254	N	0.086737	0.467398	0.821770
	N255	N	0.910889	0.537723	0.820862
	N256	N	0.177134	0.917204	0.465203
	N257	N	0.180608	0.091386	0.536356
	N258	N	0.817795	0.089213	0.464949
	N259	N	0.816427	0.914706	0.536800
	N260	N	0.462831	0.182915	0.914759
	N261	N	0.534488	0.183116	0.089285
	N262	N	0.462955	0.822416	0.089349
	N263	N	0.534754	0.824649	0.915812
	N264	N	0.462214	0.916219	0.181373
	N265	N	0.533963	0.090043	0.181820
	N266	N	0.462602	0.090788	0.820631
	N267	N	0.532858	0.915151	0.820544
	N268	N	0.911258	0.182644	0.465741
	N269	N	0.084992	0.182300	0.537863
	N270	N	0.083891	0.823839	0.466047
	N271	N	0.910605	0.822853	0.537472
	N272	N	0.177041	0.466016	0.917451
	N273	N	0.179043	0.538694	0.090751
	N274	N	0.819528	0.467081	0.090048
	N275	N	0.820926	0.539158	0.916791
	O276	O	0.368547	0.482874	0.515472
	H277	H	0.370231	0.490479	0.499864
	H278	H	0.366496	0.467045	0.515447
	O279	O	0.451870	0.454339	0.317512
	H280	H	0.451515	0.442039	0.324182
	H281	H	0.447076	0.477447	0.308228
	O282	O	0.474128	0.450414	0.497531
	H283	H	0.469990	0.454930	0.511611
	H284	H	0.453350	0.447983	0.495536
	O285	O	1.185207	1.148741	0.191410
	H286	H	1.185081	1.139104	0.190424
	H287	H	1.157610	1.144219	0.196070
	O288	O	0.707889	0.717981	0.524840
	H289	H	0.717265	0.724848	0.551151
	H290	H	0.718050	0.730416	0.553298
	O291	O	0.498529	0.650493	0.442942
	H292	H	0.505419	0.649188	0.458226
	H293	H	0.506046	0.656341	0.446606
	O294	O	0.935367	0.824093	1.057322
	H295	H	0.922576	0.827138	1.048853
	H296	H	0.916168	0.832660	1.056665
	O297	O	0.301711	0.495473	0.680813
	H298	H	0.301751	0.480225	0.685503
	H299	H	0.285584	0.485075	0.687150
	O300	O	-0.125377	-0.127137	-0.032458
	H301	H	-0.131216	-0.125410	-0.039858
	H302	H	-0.119342	-0.124148	-0.047287
	O303	O	0.467243	0.303253	0.699182
	H304	H	0.477616	0.299409	0.696721
	H305	H	0.484999	0.297129	0.705530
	O306	O	-0.008215	-0.058619	1.016805
	H307	H	-0.009013	-0.053582	1.004815
	H308	H	-0.021566	-0.064598	1.019493
	O309	O	1.201514	0.162273	0.022103
	H310	H	1.210323	0.155399	0.042912
	H311	H	1.219352	0.163436	0.021004
	O312	O	0.488505	0.658008	0.710471
	H313	H	0.470514	0.660315	0.722817
	H314	H	0.472992	0.669495	0.682317
	O315	O	0.286252	0.528100	0.291873
	H316	H	0.276313	0.532948	0.301966
	H317	H	0.271798	0.541885	0.273538
	O318	O	0.318753	-0.669496	0.658496
	H319	H	0.320942	-0.655970	0.636961
	H320	H	0.355786	-0.684274	0.664048
	O321	O	0.382016	0.619080	0.531590
	H322	H	0.378203	0.612436	0.526573
	H323	H	0.375506	0.614920	0.513817
	O324	O	0.844979	0.078919	0.832425
	H325	H	0.842371	0.090838	0.854357
	H326	H	0.870032	0.097370	0.828554
	O327	O	0.187467	0.815509	0.894405
	H328	H	0.185537	0.799105	0.897295
	H329	H	0.191767	0.827598	0.902898
	O330	O	0.056759	0.979683	0.968455
	H331	H	0.054348	0.974428	0.963526
	H332	H	0.060353	0.981836	0.974903
	O333	O	0.627566	0.585263	-0.555551
	H334	H	0.635688	0.594718	-0.539000
	H335	H	0.615663	0.598616	-0.551455
	O336	O	0.920105	0.919616	0.142117
	H337	H	0.926851	0.928383	0.131317
	H338	H	0.915312	0.926376	0.139393
	O339	O	-0.203673	1.155226	1.016403
	H340	H	-0.214791	1.180111	1.011566
	H341	H	-0.184044	1.159238	1.027920
	O342	O	0.628211	0.371256	0.583221
	H343	H	0.628208	0.363444	0.566260
	H344	H	0.631246	0.381769	0.573070
	O345	O	-0.019584	-0.060424	1.198076
	H346	H	-0.037087	-0.071188	1.198401
	H347	H	-0.035465	-0.069640	1.203458
	O348	O	0.308568	0.695494	0.329426
	H349	H	0.333145	0.707406	0.339592
	H350	H	0.311509	0.683179	0.320815
	O351	O	0.938014	1.160690	-0.048412
	H352	H	0.959209	1.147117	-0.045979
	H353	H	0.952971	1.177079	-0.072401
	O354	O	0.479223	0.706044	1.348625
	H355	H	0.480524	0.714419	1.326221
	H356	H	0.491915	0.698884	1.356519
	O357	O	-0.007352	0.140975	0.178354
	H358	H	-0.011229	0.153589	0.179765
	H359	H	0.003087	0.130771	0.177803
	O360	O	0.679911	0.348690	0.636513
	H361	H	0.668342	0.369995	0.619596
	H362	H	0.685310	0.333283	0.618806
	O363	O	0.903988	0.077465	-0.156010
	H364	H	0.882680	0.088002	-0.159403
	H365	H	0.917192	0.095240	-0.152359
	O366	O	-0.020337	0.094919	1.063339
	H367	H	-0.017512	0.076812	1.074420
	H368	H	-0.034463	0.088485	1.047963
	O369	O	0.927777	0.069247	1.029356
	H370	H	0.929154	0.072187	1.020096
	H371	H	0.928808	0.091398	1.036986
	O372	O	0.431188	0.418303	0.476406
	H373	H	0.434016	0.434476	0.467757
	H374	H	0.442870	0.385297	0.472785
	O375	O	0.053249	-0.106701	1.086364
	H376	H	0.051058	-0.107281	1.084357
	H377	H	0.054325	-0.091640	1.082105
	O378	O	0.600776	0.368940	0.314186
	H379	H	0.570137	0.376934	0.303977
	H380	H	0.602156	0.395000	0.304412
	O381	O	0.194489	0.973299	0.145611
	H382	H	0.196340	0.969447	0.169168
	H383	H	0.186059	0.975688	0.141398
	O384	O	0.566800	0.702398	0.593819
	H385	H	0.559539	0.697007	0.588218
	H386	H	0.564666	0.701470	0.608671
	O387	O	0.686446	0.647707	0.685506
	H388	H	0.683643	0.624740	0.703204
	H389	H	0.664230	0.633734	0.684579
	O390	O	0.887567	0.919809	-0.012524
	H391	H	0.902078	0.925046	-0.017015
	H392	H	0.869162	0.928322	-0.028498
	O393	O	1.181934	-0.021570	0.999432
	H394	H	1.186779	-0.032240	1.007971
	H395	H	1.182233	-0.019398	0.999911
	O396	O	0.493223	0.291354	0.476364
	H397	H	0.508863	0.285748	0.478175
	H398	H	0.490114	0.293957	0.490276
	O399	O	0.699958	0.300883	0.412990
	H400	H	0.697345	0.305702	0.379143
	H401	H	0.709010	0.294118	0.396118
	O402	O	0.981947	0.814037	-0.002967
	H403	H	0.962507	0.807288	0.004276
	H404	H	0.958880	0.803347	-0.009345
	O405	O	0.086273	-0.168151	-0.202990
	H406	H	0.100047	-0.174156	-0.214540
	H407	H	0.076410	-0.177229	-0.199266
	O408	O	0.687727	0.493343	0.299125
	H409	H	0.683742	0.505635	0.306296
	H410	H	0.703209	0.508283	0.297469
	O411	O	0.921088	0.982142	1.144770
	H412	H	0.907256	1.000247	1.151544
	H413	H	0.909604	0.979826	1.136514
	O414	O	0.615560	0.505121	0.502480
	H415	H	0.616805	0.507232	0.514572
	H416	H	0.604406	0.513072	0.502557
	O417	O	-0.086658	1.028925	0.819206
	H418	H	-0.057538	1.023470	0.816133
	H419	H	-0.116058	1.027082	0.815285
	O420	O	0.440104	1.574830	1.614484
	H421	H	0.432098	1.568592	1.621184
	H422	H	0.441798	1.599644	1.601189
	O423	O	-0.091194	1.202681	-0.135706
	H424	H	-0.089578	1.204580	-0.157257
	H425	H	-0.077189	1.192742	-0.153021
	O426	O	1.060352	0.122925	-0.078772
	H427	H	1.073300	0.122497	-0.081506
	H428	H	1.082432	0.117059	-0.091025
	O429	O	0.665171	0.484911	0.703781
	H430	H	0.667447	0.485183	0.712181
	H431	H	0.669605	0.477161	0.690398
	O432	O	0.514673	0.518908	0.370302
	H433	H	0.517054	0.519016	0.359278
	H434	H	0.507816	0.501144	0.384694
	O435	O	0.137392	0.050328	-0.204426
	H436	H	0.161916	0.041739	-0.207968
	H437	H	0.139480	0.038608	-0.199724
	O438	O	-0.691623	1.293352	0.493884
	H439	H	-0.698861	1.298973	0.515790
	H440	H	-0.688890	1.276943	0.497396
	O441	O	0.381640	0.626753	0.475925
	H442	H	0.368488	0.635363	0.471779
	H443	H	0.381664	0.618191	0.452368
