data_Molecule from HDF5

_cell_length_a		16.450511
_cell_length_b		16.441435
_cell_length_c		16.495564
_cell_angle_alpha	90.093901
_cell_angle_beta	89.854132
_cell_angle_gamma	89.995892
_symmetry_space_group_name_H-M	'P 1'
_symmetry_Int_Tables_number		1

loop_
	_symmetry_equiv_pos_as_xyz
	x,y,z

loop_
	_atom_site_label
	_atom_site_type_symbol
	_atom_site_fract_x
	_atom_site_fract_y
	_atom_site_fract_z
	H0	H	0.411364	0.855034	0.725386
	H1	H	0.625875	0.170222	0.732113
	H2	H	0.625662	0.856660	0.280956
	H3	H	0.407335	0.169097	0.280100
	H4	H	0.740818	0.403263	0.849982
	H5	H	0.739186	0.620426	0.162893
	H6	H	0.294922	0.618083	0.848786
	H7	H	0.292813	0.407046	0.162813
	H8	H	0.858454	0.737245	0.397782
	H9	H	0.172276	0.738379	0.613158
	H10	H	0.858482	0.290167	0.614187
	H11	H	0.173207	0.292246	0.399307
	H12	H	0.859493	0.405082	0.731098
	H13	H	0.172379	0.623115	0.729356
	H14	H	0.858954	0.621992	0.281013
	H15	H	0.173368	0.407862	0.283688
	H16	H	0.412049	0.733342	0.848717
	H17	H	0.621997	0.735651	0.163755
	H18	H	0.623887	0.288460	0.849949
	H19	H	0.408670	0.290909	0.162694
	H20	H	0.740113	0.855984	0.398499
	H21	H	0.740713	0.170189	0.614781
	H22	H	0.294263	0.856100	0.611161
	H23	H	0.291237	0.169953	0.396540
	H24	H	0.906820	0.356497	0.230424
	H25	H	0.121321	0.671251	0.227169
	H26	H	0.127623	0.356686	0.778608
	H27	H	0.911180	0.670539	0.784677
	H28	H	0.238424	0.909587	0.348524
	H29	H	0.238000	0.121391	0.663496
	H30	H	0.791384	0.122105	0.349813
	H31	H	0.796441	0.910420	0.663981
	H32	H	0.357054	0.234283	0.900782
	H33	H	0.673276	0.237180	0.112776
	H34	H	0.357416	0.793848	0.109532
	H35	H	0.673449	0.791534	0.900392
	H36	H	0.358616	0.906491	0.228388
	H37	H	0.673181	0.122497	0.230367
	H38	H	0.357654	0.119460	0.784993
	H39	H	0.674100	0.908936	0.785000
	H40	H	0.909290	0.236394	0.348135
	H41	H	0.121581	0.237305	0.663442
	H42	H	0.121420	0.793025	0.347787
	H43	H	0.909465	0.791281	0.662081
	H44	H	0.239723	0.354769	0.897600
	H45	H	0.235263	0.672233	0.108531
	H46	H	0.790876	0.355997	0.115636
	H47	H	0.793858	0.669493	0.900381
	H48	H	0.423331	0.128990	0.598045
	H49	H	0.606746	0.901082	0.593127
	H50	H	0.607793	0.126106	0.421048
	H51	H	0.422574	0.900300	0.420528
	H52	H	0.608203	0.424522	0.120816
	H53	H	0.598202	0.603118	0.895503
	H54	H	0.424859	0.601292	0.119462
	H55	H	0.429037	0.425901	0.894051
	H56	H	0.129077	0.595068	0.407387
	H57	H	0.902514	0.599807	0.599532
	H58	H	0.126651	0.428661	0.592715
	H59	H	0.901316	0.421373	0.417320
	H60	H	0.128602	0.424622	0.594078
	H61	H	0.902488	0.605773	0.592722
	H62	H	0.131060	0.613017	0.417002
	H63	H	0.904157	0.427421	0.421387
	H64	H	0.427609	0.601898	0.119313
	H65	H	0.609000	0.607431	0.890324
	H66	H	0.602394	0.433412	0.115246
	H67	H	0.429009	0.420531	0.892941
	H68	H	0.600507	0.125838	0.413723
	H69	H	0.605257	0.900127	0.597695
	H70	H	0.434440	0.125187	0.597099
	H71	H	0.429888	0.899626	0.411793
	H72	H	0.930850	0.623729	0.091414
	H73	H	0.106202	0.398383	0.098283
	H74	H	0.102098	0.623715	0.917369
	H75	H	0.933843	0.402662	0.921711
	H76	H	0.095384	0.926182	0.615409
	H77	H	0.100984	0.102840	0.395533
	H78	H	0.930322	0.101866	0.616179
	H79	H	0.927930	0.924219	0.392341
	H80	H	0.628247	0.100819	0.917525
	H81	H	0.403659	0.097952	0.099278
	H82	H	0.628905	0.922445	0.089838
	H83	H	0.401200	0.921729	0.914583
	H84	H	0.628052	0.929408	0.094880
	H85	H	0.403087	0.105901	0.092235
	H86	H	0.627897	0.100505	0.919446
	H87	H	0.401728	0.922534	0.916476
	H88	H	0.927802	0.104567	0.618507
	H89	H	0.106704	0.106577	0.392283
	H90	H	0.107597	0.917915	0.622382
	H91	H	0.926927	0.926155	0.392273
	H92	H	0.108221	0.624258	0.919702
	H93	H	0.100475	0.401747	0.094434
	H94	H	0.925190	0.625247	0.092534
	H95	H	0.926507	0.400134	0.920330
	H96	H	0.427412	0.125139	0.587785
	H97	H	0.602048	0.902041	0.594351
	H98	H	0.598789	0.121413	0.422622
	H99	H	0.432499	0.904029	0.421560
	H100	H	0.597293	0.422606	0.117216
	H101	H	0.608639	0.595072	0.894799
	H102	H	0.424977	0.604160	0.119960
	H103	H	0.424620	0.423498	0.891760
	H104	H	0.121826	0.597201	0.426403
	H105	H	0.906208	0.597212	0.591418
	H106	H	0.127256	0.424814	0.589410
	H107	H	0.902261	0.428208	0.413911
	H108	H	0.929353	0.625443	0.096455
	H109	H	0.107362	0.400510	0.091009
	H110	H	0.106360	0.626889	0.914206
	H111	H	0.931908	0.399643	0.914828
	H112	H	0.109603	0.932643	0.617487
	H113	H	0.107180	0.099211	0.394436
	H114	H	0.926767	0.100469	0.617760
	H115	H	0.928965	0.926035	0.393441
	H116	H	0.627293	0.099246	0.917630
	H117	H	0.407966	0.096537	0.089344
	H118	H	0.631162	0.922135	0.097702
	H119	H	0.401663	0.923698	0.914478
	C120	C	0.395492	0.022081	0.626686
	C121	C	0.637690	1.005170	0.628223
	C122	C	0.637594	0.021522	0.384648
	C123	C	0.394714	1.004665	0.384176
	C124	C	0.636898	0.391825	0.014569
	C125	C	0.638014	0.634802	0.997591
	C126	C	0.394526	0.633954	0.014994
	C127	C	0.394098	0.390978	0.996985
	C128	C	0.024012	0.635183	0.383613
	C129	C	1.007479	0.635236	0.627293
	C130	C	0.024098	0.392311	0.626821
	C131	C	1.006787	0.392556	0.384177
	C132	C	0.894160	0.521135	0.127469
	C133	C	0.137226	0.504885	0.126673
	C134	C	0.139080	0.521209	0.883048
	C135	C	0.896722	0.504545	0.885695
	C136	C	0.136951	0.892861	0.514325
	C137	C	0.137745	0.136160	0.497775
	C138	C	0.894307	0.135676	0.514101
	C139	C	0.894631	0.892705	0.496577
	C140	C	0.523671	0.133918	0.884944
	C141	C	0.508145	0.134648	0.127756
	C142	C	0.524668	0.892467	0.126631
	C143	C	0.506713	0.891026	0.883703
	C144	C	0.392641	0.902929	0.686202
	C145	C	0.642255	0.122998	0.690769
	C146	C	0.643006	0.903678	0.322075
	C147	C	0.390120	0.122291	0.321401
	C148	C	0.699722	0.386287	0.897195
	C149	C	0.698675	0.638017	0.115796
	C150	C	0.335018	0.636230	0.895932
	C151	C	0.333222	0.388937	0.115545
	C152	C	0.905736	0.697008	0.379893
	C153	C	0.125209	0.697642	0.630805
	C154	C	0.905692	0.330744	0.631403
	C155	C	0.125640	0.331948	0.381226
	C156	C	0.906153	0.388175	0.689481
	C157	C	0.125101	0.639976	0.688724
	C158	C	0.905925	0.639392	0.321901
	C159	C	0.125738	0.389818	0.323721
	C160	C	0.393013	0.693773	0.896069
	C161	C	0.640398	0.695659	0.116166
	C162	C	0.641395	0.328983	0.897140
	C163	C	0.390965	0.331080	0.115652
	C164	C	0.699976	0.903467	0.380681
	C165	C	0.699638	0.123167	0.632365
	C166	C	0.334277	0.903496	0.629272
	C167	C	0.332464	0.122784	0.379598
	C168	C	0.889983	0.403271	0.189167
	C169	C	0.139332	0.623776	0.186664
	C170	C	0.144186	0.403683	0.820022
	C171	C	0.893378	0.623238	0.825160
	C172	C	0.197616	0.891042	0.395645
	C173	C	0.198045	0.139226	0.616152
	C174	C	0.832101	0.139542	0.396598
	C175	C	0.835614	0.891295	0.616142
	C176	C	0.404839	0.194564	0.882763
	C177	C	0.626050	0.196610	0.131042
	C178	C	0.405056	0.833211	0.128349
	C179	C	0.626231	0.831887	0.882194
	C180	C	0.405808	0.889543	0.187541
	C181	C	0.625859	0.139635	0.189811
	C182	C	0.405096	0.137386	0.824642
	C183	C	0.626496	0.890249	0.824826
	C184	C	0.891067	0.196407	0.395740
	C185	C	0.139935	0.196984	0.616121
	C186	C	0.139515	0.833019	0.395221
	C187	C	0.891791	0.831959	0.615061
	C188	C	0.200354	0.402661	0.879293
	C189	C	0.196254	0.624303	0.127794
	C190	C	0.832274	0.403001	0.131718
	C191	C	0.835026	0.622645	0.882680
	C192	C	0.421336	0.104952	0.601568
	C193	C	0.612028	0.922628	0.602380
	C194	C	0.610353	0.103133	0.411384
	C195	C	0.420925	0.922751	0.410399
	C196	C	0.610148	0.418977	0.096256
	C197	C	0.612697	0.609278	0.915273
	C198	C	0.418790	0.609476	0.097831
	C199	C	0.419973	0.416116	0.914473
	C200	C	0.105889	0.609113	0.409474
	C201	C	0.925115	0.608748	0.601637
	C202	C	0.106260	0.418618	0.599887
	C203	C	0.924158	0.418385	0.410180
	C204	C	0.920693	0.603363	0.101103
	C205	C	0.111971	0.421724	0.101695
	C206	C	0.113039	0.603479	0.909483
	C207	C	0.923186	0.422312	0.911591
	C208	C	0.111466	0.918277	0.596942
	C209	C	0.112326	0.110371	0.415366
	C210	C	0.920846	0.109734	0.596051
	C211	C	0.920433	0.918283	0.414104
	C212	C	0.606116	0.107744	0.910775
	C213	C	0.426073	0.107638	0.101353
	C214	C	0.607779	0.917504	0.101457
	C215	C	0.423347	0.915432	0.908171
	Zn216	Zn	0.515377	0.013782	0.755994
	Zn217	Zn	0.516709	0.012576	0.255931
	Zn218	Zn	0.766409	0.512187	0.006053
	Zn219	Zn	0.266072	0.512756	0.005534
	Zn220	Zn	0.015577	0.763629	0.505199
	Zn221	Zn	0.015430	0.264612	0.505747
	Zn222	Zn	0.016630	0.512729	0.755631
	Zn223	Zn	0.015215	0.513071	0.255243
	Zn224	Zn	0.515584	0.763169	0.006275
	Zn225	Zn	0.515656	0.262856	0.006007
	Zn226	Zn	0.765919	0.013688	0.505865
	Zn227	Zn	0.266478	0.014325	0.506577
	N228	N	0.429663	0.977726	0.684863
	N229	N	0.604469	0.048521	0.688220
	N230	N	0.604902	0.977952	0.324474
	N231	N	0.428227	0.048111	0.324278
	N232	N	0.697044	0.424778	0.971204
	N233	N	0.697355	0.600960	0.041122
	N234	N	0.335832	0.599934	0.970721
	N235	N	0.334975	0.425274	0.040732
	N236	N	0.979917	0.694459	0.417650
	N237	N	0.050757	0.694926	0.593251
	N238	N	0.979998	0.333331	0.593134
	N239	N	0.050535	0.333354	0.418022
	N240	N	0.980957	0.425470	0.686831
	N241	N	0.050889	0.601821	0.686549
	N242	N	0.980386	0.601493	0.324004
	N243	N	0.050718	0.426375	0.325220
	N244	N	0.429376	0.692575	0.971068
	N245	N	0.603460	0.694048	0.041468
	N246	N	0.602955	0.332506	0.971088
	N247	N	0.427989	0.332219	0.040906
	N248	N	0.696690	0.977834	0.418934
	N249	N	0.697027	0.049020	0.594047
	N250	N	0.335864	0.978800	0.593038
	N251	N	0.335084	0.048599	0.418010
	N252	N	0.927848	0.477622	0.186531
	N253	N	0.103306	0.548378	0.186052
	N254	N	0.107045	0.478527	0.822026
	N255	N	0.931281	0.548854	0.827145
	N256	N	0.196206	0.927353	0.470615
	N257	N	0.196960	0.102209	0.541406
	N258	N	0.833993	0.102728	0.471256
	N259	N	0.837267	0.928154	0.541329
	N260	N	0.479830	0.192636	0.919451
	N261	N	0.551714	0.193687	0.093411
	N262	N	0.479999	0.834781	0.091289
	N263	N	0.550763	0.832184	0.918063
	N264	N	0.481254	0.925550	0.186460
	N265	N	0.551299	0.101892	0.187950
	N266	N	0.480063	0.100575	0.825751
	N267	N	0.551011	0.926080	0.825538
	N268	N	0.928745	0.194312	0.470016
	N269	N	0.103541	0.195446	0.541290
	N270	N	0.102582	0.834145	0.470082
	N271	N	0.927455	0.832536	0.539616
	N272	N	0.197424	0.476791	0.917815
	N273	N	0.194805	0.549292	0.091024
	N274	N	0.834807	0.477454	0.094019
	N275	N	0.837015	0.547871	0.919644
	O276	O	0.525467	0.721547	0.648675
	H277	H	0.547321	0.735910	0.666258
	H278	H	0.534917	0.722309	0.644062
	O279	O	0.915387	-0.015013	0.889051
	H280	H	0.913968	-0.019563	0.887513
	H281	H	0.916505	-0.005477	0.903169
	O282	O	0.307854	0.536513	0.299366
	H283	H	0.306329	0.519559	0.306317
	H284	H	0.305313	0.521152	0.296970
	O285	O	0.720440	0.464431	0.540870
	H286	H	0.719033	0.464381	0.549485
	H287	H	0.731926	0.434324	0.545395
	O288	O	1.212949	0.983059	0.124480
	H289	H	1.204633	0.975854	0.125167
	H290	H	1.212967	0.980982	0.104634
	O291	O	0.561821	0.452397	0.656337
	H292	H	0.564758	0.450163	0.655279
	H293	H	0.560337	0.478099	0.658312
	O294	O	-0.183774	0.037895	1.006332
	H295	H	-0.173986	0.044520	1.012279
	H296	H	-0.204195	0.037764	1.007346
	O297	O	0.332214	0.689152	0.566823
	H298	H	0.322320	0.700372	0.562479
	H299	H	0.342342	0.682366	0.544944
	O300	O	0.892249	0.797525	0.991653
	H301	H	0.908976	0.793187	1.003954
	H302	H	0.881014	0.784041	0.982576
	O303	O	0.301114	0.292014	0.529127
	H304	H	0.286843	0.270031	0.547477
	H305	H	0.299473	0.283716	0.552424
	O306	O	0.375657	0.705459	0.440463
	H307	H	0.375688	0.689581	0.432434
	H308	H	0.376070	0.703242	0.441298
	O309	O	0.567264	0.716608	0.438763
	H310	H	0.585569	0.716862	0.448254
	H311	H	0.554046	0.718323	0.444800
	O312	O	0.017845	1.021641	1.086619
	H313	H	0.017946	1.010144	1.085234
	H314	H	0.026563	1.028638	1.085507
	O315	O	0.659648	0.530541	0.304341
	H316	H	0.660380	0.550447	0.285165
	H317	H	0.643946	0.543208	0.311485
	O318	O	1.407181	-0.403295	-0.476447
	H319	H	1.414327	-0.400584	-0.483561
	H320	H	1.394354	-0.413073	-0.480721
	O321	O	0.018606	0.040382	-0.110271
	H322	H	0.018003	0.053487	-0.107017
	H323	H	0.001227	0.059977	-0.114284
	O324	O	0.517136	0.626565	0.584179
	H325	H	0.504145	0.629801	0.590637
	H326	H	0.518690	0.638834	0.605987
	O327	O	0.698443	0.337707	0.332978
	H328	H	0.679983	0.359405	0.317805
	H329	H	0.674161	0.356708	0.318896
	O330	O	0.084277	0.939882	0.139880
	H331	H	0.083369	0.938130	0.141416
	H332	H	0.100900	0.940904	0.137089
	O333	O	0.476540	0.531617	0.701373
	H334	H	0.480106	0.511323	0.705445
	H335	H	0.466698	0.540953	0.688123
	O336	O	-1.096751	-0.008981	1.008573
	H337	H	-1.103751	-0.009276	1.014484
	H338	H	-1.088715	0.014310	1.002272
	O339	O	0.034312	1.227123	1.212469
	H340	H	0.049317	1.224292	1.223481
	H341	H	0.054073	1.242968	1.224802
	O342	O	0.198405	0.828314	0.848311
	H343	H	0.206181	0.848018	0.838003
	H344	H	0.213585	0.828267	0.863169
	O345	O	1.225770	1.113583	-0.080422
	H346	H	1.231003	1.116758	-0.079279
	H347	H	1.229949	1.112578	-0.099689
	O348	O	0.489968	0.725407	0.291240
	H349	H	0.487058	0.737768	0.288610
	H350	H	0.478023	0.737625	0.290109
	O351	O	0.512505	0.295698	0.684572
	H352	H	0.536609	0.290598	0.677374
	H353	H	0.526711	0.289192	0.696407
	O354	O	-0.183517	0.998148	0.166228
	H355	H	-0.165526	1.008353	0.163177
	H356	H	-0.202093	0.991607	0.184410
	O357	O	-0.363491	-0.364777	1.287416
	H358	H	-0.379876	-0.367042	1.276138
	H359	H	-0.356134	-0.384599	1.302161
	O360	O	0.723707	0.557557	0.394980
	H361	H	0.710048	0.550863	0.379535
	H362	H	0.721205	0.542182	0.410950
	O363	O	0.133177	-0.161745	0.999743
	H364	H	0.126930	-0.147067	0.991806
	H365	H	0.141777	-0.162390	0.991038
	O366	O	0.043079	0.169471	-0.187376
	H367	H	0.035871	0.170563	-0.189713
	H368	H	0.043462	0.179176	-0.196002
	O369	O	0.453984	0.593783	0.591231
	H370	H	0.461919	0.618339	0.577194
	H371	H	0.448267	0.591946	0.584706
	O372	O	0.903439	0.069451	1.170725
	H373	H	0.905616	0.079490	1.159374
	H374	H	0.917892	0.059454	1.165772
	O375	O	0.308124	0.495148	0.715741
	H376	H	0.283066	0.486062	0.730853
	H377	H	0.301448	0.513426	0.696891
	O378	O	0.550361	0.300106	0.379840
	H379	H	0.542237	0.290731	0.381264
	H380	H	0.554323	0.287109	0.387304
	O381	O	0.338656	0.334984	0.683425
	H382	H	0.341191	0.371580	0.697151
	H383	H	0.377746	0.323527	0.683164
	O384	O	0.262526	0.755575	0.198429
	H385	H	0.266331	0.747406	0.206708
	H386	H	0.246325	0.734576	0.187700
	O387	O	0.206868	0.210234	1.107225
	H388	H	0.222896	0.198244	1.120121
	H389	H	0.219655	0.212880	1.103304
	O390	O	0.174026	-0.041097	-0.085161
	H391	H	0.163243	-0.023732	-0.085817
	H392	H	0.173100	-0.032782	-0.093001
	O393	O	1.216631	1.119349	1.206683
	H394	H	1.212750	1.100260	1.215070
	H395	H	1.235535	1.110595	1.215425
	O396	O	0.732784	-0.704724	0.487148
	H397	H	0.731485	-0.701664	0.445949
	H398	H	0.758634	-0.728749	0.468829
	O399	O	0.545032	-0.575384	0.605184
	H400	H	0.559171	-0.574042	0.598522
	H401	H	0.560014	-0.567245	0.600478
	O402	O	0.838835	1.173339	0.827220
	H403	H	0.827322	1.170720	0.857864
	H404	H	0.858197	1.169710	0.827627
	O405	O	0.970613	1.189013	0.051221
	H406	H	0.972745	1.187211	0.043884
	H407	H	0.978753	1.193235	0.080782
	O408	O	1.040638	-0.196449	-0.189968
	H409	H	1.054320	-0.209402	-0.206878
	H410	H	1.062279	-0.185759	-0.194341
	O411	O	1.069760	1.148372	-0.090293
	H412	H	1.060011	1.161483	-0.087689
	H413	H	1.078766	1.137712	-0.105588
	O414	O	-0.188383	-0.031428	0.002926
	H415	H	-0.180245	-0.054786	-0.000600
	H416	H	-0.209434	-0.048039	0.019647
	O417	O	0.719841	0.530232	0.704643
	H418	H	0.719397	0.524571	0.715241
	H419	H	0.712489	0.560191	0.706863
	O420	O	-0.094803	-0.182579	0.192617
	H421	H	-0.094011	-0.171422	0.201704
	H422	H	-0.095737	-0.184087	0.184130
	O423	O	0.393604	0.353893	0.357182
	H424	H	0.423098	0.366397	0.375856
	H425	H	0.379808	0.354598	0.378569
	O426	O	0.732231	0.731538	0.538691
	H427	H	0.756171	0.742902	0.543114
	H428	H	0.746731	0.717969	0.522318
	O429	O	0.400546	0.364781	0.447339
	H430	H	0.411680	0.364711	0.466812
	H431	H	0.413543	0.361638	0.462027
	O432	O	0.505002	0.415761	0.321550
	H433	H	0.501432	0.404422	0.329327
	H434	H	0.510753	0.404036	0.317864
	O435	O	0.416149	0.432894	0.550435
	H436	H	0.409414	0.449180	0.562216
	H437	H	0.419448	0.421370	0.566847
	O438	O	0.047529	0.086273	-0.135506
	H439	H	0.031759	0.074853	-0.125883
	H440	H	0.055629	0.084256	-0.125275
	O441	O	0.859392	-0.170884	-0.148436
	H442	H	0.875536	-0.177794	-0.142903
	H443	H	0.865303	-0.155413	-0.140103
	O444	O	0.065556	0.866096	1.182925
	H445	H	0.051617	0.871397	1.166266
	H446	H	0.057975	0.871765	1.201146
	O447	O	-0.104506	1.227509	-0.110950
	H448	H	-0.118173	1.212996	-0.091691
	H449	H	-0.122892	1.260253	-0.124680
	O450	O	0.712683	0.696902	0.701246
	H451	H	0.717033	0.715703	0.725399
	H452	H	0.717339	0.692839	0.661776
	O453	O	0.382277	0.649056	0.469716
	H454	H	0.368560	0.668539	0.475235
	H455	H	0.393979	0.641029	0.460628
