data_Molecule from HDF5

_cell_length_a		16.196137
_cell_length_b		16.418765
_cell_length_c		16.349442
_cell_angle_alpha	90.077513
_cell_angle_beta	90.108179
_cell_angle_gamma	89.872484
_symmetry_space_group_name_H-M	'P 1'
_symmetry_Int_Tables_number		1

loop_
	_symmetry_equiv_pos_as_xyz
	x,y,z

loop_
	_atom_site_label
	_atom_site_type_symbol
	_atom_site_fract_x
	_atom_site_fract_y
	_atom_site_fract_z
	H0	H	0.399104	0.841352	0.723082
	H1	H	0.604829	0.162901	0.719685
	H2	H	0.605565	0.841189	0.282597
	H3	H	0.400536	0.162668	0.285316
	H4	H	0.717307	0.401296	0.839184
	H5	H	0.719377	0.601330	0.164114
	H6	H	0.286433	0.601714	0.838637
	H7	H	0.286582	0.403892	0.164071
	H8	H	0.839904	0.717512	0.396329
	H9	H	0.164533	0.717605	0.604516
	H10	H	0.839194	0.284409	0.599010
	H11	H	0.165341	0.281092	0.397099
	H12	H	0.839777	0.396252	0.717410
	H13	H	0.165708	0.597858	0.716498
	H14	H	0.839129	0.598969	0.283096
	H15	H	0.165611	0.396188	0.282438
	H16	H	0.399052	0.720834	0.840704
	H17	H	0.605599	0.720940	0.163557
	H18	H	0.604494	0.282304	0.840817
	H19	H	0.398689	0.284170	0.163400
	H20	H	0.718214	0.838832	0.401767
	H21	H	0.718072	0.162951	0.600139
	H22	H	0.283875	0.839504	0.604538
	H23	H	0.283902	0.162560	0.401098
	H24	H	0.900461	0.338717	0.217168
	H25	H	0.106151	0.660307	0.220641
	H26	H	0.102726	0.338887	0.785150
	H27	H	0.896684	0.660084	0.779200
	H28	H	0.219094	0.899578	0.338961
	H29	H	0.216177	0.098614	0.663899
	H30	H	0.787776	0.097304	0.338038
	H31	H	0.788062	0.901533	0.664006
	H32	H	0.338544	0.219304	0.900114
	H33	H	0.664889	0.218984	0.104518
	H34	H	0.339445	0.784827	0.104557
	H35	H	0.665050	0.783903	0.900477
	H36	H	0.339312	0.901467	0.219032
	H37	H	0.665697	0.102964	0.219702
	H38	H	0.339721	0.105518	0.783028
	H39	H	0.667080	0.903067	0.788521
	H40	H	0.900185	0.216960	0.338892
	H41	H	0.105782	0.219038	0.661859
	H42	H	0.107157	0.779318	0.339897
	H43	H	0.899410	0.780380	0.661039
	H44	H	0.220885	0.340330	0.898924
	H45	H	0.216342	0.662991	0.099373
	H46	H	0.785820	0.339080	0.099782
	H47	H	0.785787	0.662708	0.900796
	H48	H	0.421406	0.111898	0.594759
	H49	H	0.592784	0.886638	0.594828
	H50	H	0.590230	0.115403	0.408405
	H51	H	0.419150	0.888155	0.406791
	H52	H	0.596209	0.411423	0.116920
	H53	H	0.594243	0.597142	0.884973
	H54	H	0.418733	0.595545	0.114444
	H55	H	0.411632	0.414934	0.888807
	H56	H	0.116819	0.585945	0.412075
	H57	H	0.884534	0.596193	0.590052
	H58	H	0.122520	0.400871	0.597200
	H59	H	0.887708	0.412319	0.407475
	H60	H	0.116736	0.406715	0.582818
	H61	H	0.889832	0.587909	0.582346
	H62	H	0.119009	0.589486	0.407181
	H63	H	0.884242	0.404690	0.404119
	H64	H	0.405647	0.601102	0.119696
	H65	H	0.593889	0.589523	0.888647
	H66	H	0.590603	0.410169	0.115445
	H67	H	0.417409	0.407502	0.888430
	H68	H	0.595029	0.114664	0.415006
	H69	H	0.596185	0.885716	0.594956
	H70	H	0.406257	0.112671	0.583397
	H71	H	0.410769	0.889284	0.417894
	H72	H	0.916109	0.614277	0.094058
	H73	H	0.100055	0.382210	0.097476
	H74	H	0.089700	0.614267	0.909295
	H75	H	0.906262	0.386586	0.913137
	H76	H	0.081690	0.910872	0.611707
	H77	H	0.095558	0.090147	0.385121
	H78	H	0.914686	0.095841	0.615668
	H79	H	0.915929	0.910660	0.388588
	H80	H	0.617651	0.089967	0.907494
	H81	H	0.386689	0.094054	0.092547
	H82	H	0.618941	0.900479	0.085698
	H83	H	0.387265	0.916229	0.908531
	H84	H	0.613399	0.922046	0.087581
	H85	H	0.386820	0.092835	0.093501
	H86	H	0.619603	0.098306	0.911970
	H87	H	0.385564	0.907165	0.910925
	H88	H	0.908127	0.095225	0.617548
	H89	H	0.089548	0.090134	0.387640
	H90	H	0.093456	0.897634	0.618546
	H91	H	0.911579	0.902850	0.383950
	H92	H	0.095976	0.616074	0.909437
	H93	H	0.086472	0.388140	0.093591
	H94	H	0.910934	0.613618	0.089450
	H95	H	0.908678	0.384007	0.902695
	H96	H	0.404937	0.118795	0.601029
	H97	H	0.594683	0.886281	0.598583
	H98	H	0.598090	0.117778	0.407974
	H99	H	0.406718	0.884302	0.405710
	H100	H	0.594682	0.406251	0.118186
	H101	H	0.587281	0.595011	0.888964
	H102	H	0.406418	0.586918	0.115829
	H103	H	0.408891	0.407220	0.884990
	H104	H	0.117199	0.591642	0.413430
	H105	H	0.886400	0.584295	0.594223
	H106	H	0.117349	0.416666	0.596378
	H107	H	0.887502	0.405545	0.412657
	H108	H	0.910248	0.615335	0.096197
	H109	H	0.097273	0.386932	0.083131
	H110	H	0.092450	0.616561	0.904169
	H111	H	0.916313	0.388212	0.909297
	H112	H	0.099977	0.914634	0.615705
	H113	H	0.091795	0.095221	0.384306
	H114	H	0.911126	0.089890	0.615471
	H115	H	0.906672	0.910949	0.384926
	H116	H	0.615391	0.090988	0.916540
	H117	H	0.385589	0.094342	0.094400
	H118	H	0.621357	0.911226	0.105080
	H119	H	0.389153	0.913263	0.917747
	C120	C	0.380289	0.008707	0.623916
	C121	C	0.624456	0.992862	0.624153
	C122	C	0.624168	0.009721	0.380155
	C123	C	0.380909	0.993196	0.380139
	C124	C	0.623996	0.379167	0.010139
	C125	C	0.623265	0.623778	0.993889
	C126	C	0.380186	0.623985	0.009577
	C127	C	0.381221	0.380639	0.993845
	C128	C	0.010753	0.619730	0.379222
	C129	C	0.993890	0.619904	0.620736
	C130	C	0.010996	0.378007	0.621722
	C131	C	0.994207	0.377429	0.378135
	C132	C	0.881772	0.508092	0.122214
	C133	C	0.124155	0.492158	0.121927
	C134	C	0.123543	0.509178	0.878201
	C135	C	0.879578	0.492216	0.877785
	C136	C	0.123475	0.877554	0.508836
	C137	C	0.123331	0.121938	0.492433
	C138	C	0.881015	0.122347	0.509032
	C139	C	0.880502	0.877744	0.492439
	C140	C	0.510148	0.123642	0.881014
	C141	C	0.493999	0.123454	0.123816
	C142	C	0.510510	0.880924	0.123440
	C143	C	0.494608	0.881410	0.881720
	C144	C	0.380147	0.888922	0.683151
	C145	C	0.624091	0.114583	0.680589
	C146	C	0.624179	0.888603	0.322323
	C147	C	0.380651	0.114451	0.323665
	C148	C	0.679531	0.380953	0.887851
	C149	C	0.680887	0.621952	0.115559
	C150	C	0.324065	0.622313	0.887622
	C151	C	0.324257	0.383080	0.115473
	C152	C	0.888300	0.677836	0.377828
	C153	C	0.116095	0.677925	0.622350
	C154	C	0.888164	0.321868	0.619843
	C155	C	0.116450	0.319583	0.377912
	C156	C	0.888595	0.377836	0.678503
	C157	C	0.116799	0.618575	0.678145
	C158	C	0.887923	0.619195	0.321389
	C159	C	0.116593	0.377075	0.320715
	C160	C	0.379964	0.681934	0.888803
	C161	C	0.624467	0.681446	0.115361
	C162	C	0.623612	0.321513	0.888903
	C163	C	0.380457	0.323764	0.115312
	C164	C	0.680602	0.887641	0.381332
	C165	C	0.680577	0.114554	0.621250
	C166	C	0.322858	0.887937	0.623888
	C167	C	0.322719	0.114234	0.381380
	C168	C	0.881437	0.387013	0.178568
	C169	C	0.124681	0.612563	0.181080
	C170	C	0.123169	0.387464	0.822636
	C171	C	0.878430	0.612520	0.819143
	C172	C	0.181212	0.878857	0.387603
	C173	C	0.178883	0.119513	0.614970
	C174	C	0.824842	0.119168	0.386817
	C175	C	0.825046	0.880208	0.614848
	C176	C	0.387574	0.180770	0.880924
	C177	C	0.616370	0.180296	0.123738
	C178	C	0.388213	0.823628	0.123650
	C179	C	0.616585	0.823345	0.881701
	C180	C	0.387976	0.882078	0.180218
	C181	C	0.616589	0.122678	0.181060
	C182	C	0.388052	0.124327	0.822493
	C183	C	0.617700	0.882589	0.825935
	C184	C	0.880986	0.178499	0.387151
	C185	C	0.123818	0.179290	0.613882
	C186	C	0.125099	0.819397	0.387818
	C187	C	0.880609	0.820148	0.613355
	C188	C	0.181649	0.388257	0.879420
	C189	C	0.179260	0.614177	0.120360
	C190	C	0.824547	0.387193	0.119976
	C191	C	0.823180	0.613936	0.879607
	C192	C	0.404030	0.092821	0.599967
	C193	C	0.601214	0.908243	0.602329
	C194	C	0.601162	0.093946	0.403509
	C195	C	0.405148	0.909150	0.403307
	C196	C	0.600761	0.402454	0.094778
	C197	C	0.598849	0.600754	0.909613
	C198	C	0.403517	0.601188	0.094720
	C199	C	0.405704	0.403159	0.909294
	C200	C	0.095585	0.595847	0.403794
	C201	C	0.909046	0.596289	0.596165
	C202	C	0.096695	0.401440	0.598858
	C203	C	0.908637	0.400890	0.401503
	C204	C	0.905297	0.592570	0.099651
	C205	C	0.101072	0.407788	0.098301
	C206	C	0.099638	0.593644	0.900861
	C207	C	0.903521	0.408184	0.901300
	C208	C	0.098860	0.900920	0.593356
	C209	C	0.099474	0.098554	0.407709
	C210	C	0.904523	0.100076	0.594264
	C211	C	0.904396	0.901172	0.407674
	C212	C	0.595310	0.099896	0.904994
	C213	C	0.408409	0.100523	0.100353
	C214	C	0.595912	0.904522	0.099550
	C215	C	0.409248	0.905491	0.905400
	Zn216	Zn	0.503004	0.002350	0.753265
	Zn217	Zn	0.502469	0.001897	0.251460
	Zn218	Zn	0.752018	0.501448	0.001278
	Zn219	Zn	0.251975	0.501822	0.000432
	Zn220	Zn	0.002150	0.748664	0.499904
	Zn221	Zn	0.002661	0.250786	0.500297
	Zn222	Zn	0.001895	0.499560	0.749450
	Zn223	Zn	0.003378	0.499054	0.250781
	Zn224	Zn	0.501682	0.752714	0.002414
	Zn225	Zn	0.501942	0.251479	0.002428
	Zn226	Zn	0.752909	0.000262	0.501583
	Zn227	Zn	0.251243	0.000412	0.501207
	N228	N	0.415193	0.965228	0.683314
	N229	N	0.590068	0.037915	0.682767
	N230	N	0.589920	0.965360	0.321336
	N231	N	0.416066	0.038380	0.322736
	N232	N	0.679852	0.416175	0.964119
	N233	N	0.680399	0.586872	0.039186
	N234	N	0.323986	0.587359	0.963968
	N235	N	0.324663	0.417502	0.038860
	N236	N	0.965602	0.678497	0.412960
	N237	N	0.038711	0.678927	0.587560
	N238	N	0.965370	0.321990	0.585209
	N239	N	0.039367	0.319795	0.412979
	N240	N	0.966141	0.411845	0.679979
	N241	N	0.039803	0.583283	0.677363
	N242	N	0.965106	0.584048	0.321913
	N243	N	0.039536	0.412292	0.320675
	N244	N	0.414016	0.683126	0.965947
	N245	N	0.589255	0.682662	0.038716
	N246	N	0.589818	0.320288	0.966056
	N247	N	0.415090	0.321894	0.038439
	N248	N	0.680766	0.963638	0.416721
	N249	N	0.681231	0.037990	0.587184
	N250	N	0.323049	0.963342	0.587814
	N251	N	0.322883	0.037908	0.415959
	N252	N	0.916349	0.463127	0.179890
	N253	N	0.091214	0.535504	0.182129
	N254	N	0.087772	0.463501	0.821611
	N255	N	0.912702	0.535654	0.817720
	N256	N	0.180629	0.914035	0.464043
	N257	N	0.178603	0.084451	0.538493
	N258	N	0.824619	0.085179	0.463528
	N259	N	0.825043	0.915419	0.538535
	N260	N	0.464510	0.180464	0.916639
	N261	N	0.539121	0.180888	0.088691
	N262	N	0.465459	0.822750	0.089063
	N263	N	0.538926	0.822546	0.915523
	N264	N	0.465218	0.916885	0.180148
	N265	N	0.539481	0.088032	0.181160
	N266	N	0.465384	0.089642	0.822336
	N267	N	0.540782	0.918256	0.825986
	N268	N	0.915309	0.180362	0.464318
	N269	N	0.089944	0.181021	0.536781
	N270	N	0.090051	0.818466	0.464250
	N271	N	0.914037	0.818409	0.536028
	N272	N	0.182452	0.465213	0.912912
	N273	N	0.179125	0.538435	0.084518
	N274	N	0.824751	0.463546	0.085605
	N275	N	0.823389	0.538184	0.914919
	O276	O	0.101725	0.181596	0.006688
	H277	H	0.119542	0.191433	0.010811
	H278	H	0.085169	0.179639	0.033978
	O279	O	0.415845	0.387012	0.523881
	H280	H	0.417931	0.396138	0.523950
	H281	H	0.411509	0.387547	0.529605
	O282	O	1.855338	0.813199	0.848702
	H283	H	1.856192	0.820082	0.852200
	H284	H	1.841106	0.811082	0.842537
	O285	O	-0.438662	0.417064	0.560495
	H286	H	-0.434876	0.411911	0.569254
	H287	H	-0.455803	0.421963	0.552461
	O288	O	0.456049	0.523282	0.405094
	H289	H	0.464260	0.518016	0.411952
	H290	H	0.457170	0.520309	0.411429
	O291	O	0.619486	0.492735	0.392758
	H292	H	0.618672	0.478666	0.396070
	H293	H	0.617985	0.498737	0.392107
	O294	O	0.979715	0.979229	1.034571
	H295	H	0.968991	0.979179	1.033093
	H296	H	0.990401	0.976540	1.041990
	O297	O	-0.034749	0.050860	-0.123587
	H298	H	-0.037460	0.050724	-0.128585
	H299	H	-0.037602	0.058066	-0.131971
	O300	O	0.613852	0.455791	0.493371
	H301	H	0.616380	0.447141	0.500096
	H302	H	0.616838	0.456445	0.497741
	O303	O	0.005725	0.937858	1.059986
	H304	H	-0.007668	0.943492	1.045315
	H305	H	0.013086	0.934142	1.049549
	O306	O	0.559830	0.638989	0.636221
	H307	H	0.567125	0.660599	0.640338
	H308	H	0.585092	0.641481	0.647593
	O309	O	0.976825	0.035506	0.024531
	H310	H	0.984187	0.036498	0.025948
	H311	H	0.980492	0.046149	0.038706
	O312	O	0.123214	-0.026522	0.953532
	H313	H	0.130513	-0.018056	0.954648
	H314	H	0.128389	-0.022801	0.965028
	O315	O	0.055596	0.879107	-0.132242
	H316	H	0.065169	0.886678	-0.124412
	H317	H	0.053336	0.881772	-0.145394
	O318	O	0.617796	0.491619	0.437605
	H319	H	0.621228	0.480798	0.436710
	H320	H	0.622395	0.500597	0.438600
	O321	O	0.504998	0.571801	0.550601
	H322	H	0.501958	0.563075	0.547800
	H323	H	0.509304	0.571550	0.542153
	O324	O	0.535016	0.408902	0.474997
	H325	H	0.528133	0.408875	0.488668
	H326	H	0.533213	0.395071	0.469455
	O327	O	0.374710	0.497964	0.480570
	H328	H	0.385365	0.493641	0.479632
	H329	H	0.373476	0.499768	0.476697
	O330	O	0.445717	0.596664	0.502981
	H331	H	0.437429	0.599433	0.511381
	H332	H	0.442928	0.580413	0.498478
	O333	O	-0.102297	0.915802	1.083398
	H334	H	-0.098528	0.911851	1.071959
	H335	H	-0.102526	0.927320	1.086235
	O336	O	0.984136	0.949725	0.879901
	H337	H	0.993533	0.969681	0.876197
	H338	H	1.003882	0.953673	0.880058
	O339	O	0.556849	0.431825	0.445868
	H340	H	0.555441	0.438798	0.447790
	H341	H	0.567072	0.430844	0.450620
	O342	O	1.110658	-0.110345	0.099175
	H343	H	1.116056	-0.119489	0.093249
	H344	H	1.103442	-0.114009	0.105637
	O345	O	0.641827	0.607372	0.470949
	H346	H	0.648942	0.611013	0.463867
	H347	H	0.642976	0.602207	0.464482
	O348	O	0.986428	1.036465	0.877912
	H349	H	0.977832	1.042652	0.870192
	H350	H	0.995662	1.038154	0.867852
	O351	O	1.119575	1.052185	0.090495
	H352	H	1.107011	1.061079	0.092142
	H353	H	1.137227	1.049711	0.094944
	O354	O	0.549990	0.446865	0.695266
	H355	H	0.552182	0.456673	0.707361
	H356	H	0.536639	0.448501	0.694319
	O357	O	-0.026064	0.039968	0.112121
	H358	H	-0.024028	0.021878	0.115380
	H359	H	-0.044587	0.035513	0.109849
	O360	O	-0.031043	0.144419	-0.002468
	H361	H	-0.023981	0.140383	-0.005212
	H362	H	-0.035742	0.141576	-0.013395
	O363	O	0.421045	0.571784	0.313576
	H364	H	0.409647	0.574135	0.314084
	H365	H	0.423675	0.584768	0.293787
	O366	O	-0.058849	-0.033845	0.026072
	H367	H	-0.065968	-0.035017	0.025912
	H368	H	-0.065487	-0.039824	0.016871
	O369	O	0.535306	0.548033	0.553369
	H370	H	0.531000	0.559981	0.563428
	H371	H	0.519292	0.536377	0.549249
	O372	O	0.331337	0.615164	0.428744
	H373	H	0.334886	0.630154	0.434836
	H374	H	0.346582	0.614289	0.428522
	O375	O	0.438745	0.464162	0.597795
	H376	H	0.429236	0.481238	0.584535
	H377	H	0.442922	0.470105	0.600176
	O378	O	0.509713	0.673872	0.508087
	H379	H	0.501319	0.664412	0.501997
	H380	H	0.513056	0.677551	0.503069
	O381	O	0.433709	0.412334	0.514357
	H382	H	0.437348	0.412575	0.502759
	H383	H	0.440983	0.407395	0.513239
	O384	O	0.028178	1.088953	0.142786
	H385	H	0.021397	1.077442	0.140179
	H386	H	0.020928	1.070801	0.146144
	O387	O	0.984948	-0.049589	1.124195
	H388	H	0.986440	-0.059920	1.125096
	H389	H	0.975939	-0.051824	1.117773
	O390	O	-0.070929	0.868622	0.002591
	H391	H	-0.069336	0.860795	-0.010378
	H392	H	-0.061499	0.880495	-0.008534
	O393	O	0.991392	1.060014	0.066078
	H394	H	0.985755	1.060328	0.063636
	H395	H	0.985407	1.056414	0.083651
	O396	O	0.443587	0.343693	0.521389
	H397	H	0.450447	0.321382	0.519120
	H398	H	0.434149	0.349378	0.524602
	O399	O	-0.035720	1.108459	0.851309
	H400	H	-0.040332	1.113145	0.846923
	H401	H	-0.027999	1.105240	0.866098
	O402	O	1.037446	0.958412	0.803077
	H403	H	1.043575	0.953334	0.794275
	H404	H	1.054179	0.968243	0.807549
	O405	O	0.356241	0.468938	0.578130
	H406	H	0.355052	0.464411	0.579269
	H407	H	0.363067	0.472543	0.579374
