data_Molecule from HDF5

_cell_length_a		16.255010
_cell_length_b		16.343424
_cell_length_c		16.281914
_cell_angle_alpha	89.522736
_cell_angle_beta	90.264223
_cell_angle_gamma	90.097305
_symmetry_space_group_name_H-M	'P 1'
_symmetry_Int_Tables_number		1

loop_
	_symmetry_equiv_pos_as_xyz
	x,y,z

loop_
	_atom_site_label
	_atom_site_type_symbol
	_atom_site_fract_x
	_atom_site_fract_y
	_atom_site_fract_z
	H0	H	0.408277	0.839920	0.706657
	H1	H	0.607730	0.166085	0.704677
	H2	H	0.605379	0.839824	0.276735
	H3	H	0.409433	0.165416	0.274652
	H4	H	0.720492	0.406621	0.827343
	H5	H	0.722994	0.600349	0.155431
	H6	H	0.292089	0.601368	0.828042
	H7	H	0.294070	0.402067	0.155767
	H8	H	0.843375	0.718487	0.390482
	H9	H	0.169990	0.716229	0.591194
	H10	H	0.843191	0.285593	0.591975
	H11	H	0.170176	0.289530	0.394480
	H12	H	0.842385	0.402779	0.706169
	H13	H	0.170435	0.599553	0.705847
	H14	H	0.843366	0.602436	0.275213
	H15	H	0.171163	0.406408	0.280901
	H16	H	0.405746	0.719797	0.828163
	H17	H	0.606293	0.715906	0.155245
	H18	H	0.606084	0.290082	0.827336
	H19	H	0.407084	0.284349	0.153737
	H20	H	0.722484	0.839474	0.393780
	H21	H	0.723721	0.165488	0.587442
	H22	H	0.292985	0.839634	0.589431
	H23	H	0.291504	0.164916	0.388159
	H24	H	0.907325	0.339686	0.208332
	H25	H	0.107307	0.666085	0.206021
	H26	H	0.105426	0.338577	0.778810
	H27	H	0.907183	0.665006	0.773968
	H28	H	0.219288	0.906184	0.326741
	H29	H	0.223626	0.099816	0.653797
	H30	H	0.793885	0.101502	0.327100
	H31	H	0.792816	0.901198	0.654649
	H32	H	0.343402	0.219082	0.888746
	H33	H	0.670539	0.218691	0.089836
	H34	H	0.343744	0.785755	0.091312
	H35	H	0.670125	0.787400	0.891871
	H36	H	0.343255	0.903603	0.204807
	H37	H	0.671557	0.101699	0.204866
	H38	H	0.343767	0.103080	0.773233
	H39	H	0.671021	0.905051	0.777621
	H40	H	0.906893	0.220518	0.328842
	H41	H	0.108463	0.216985	0.654868
	H42	H	0.106106	0.788277	0.328230
	H43	H	0.908292	0.785664	0.654177
	H44	H	0.220821	0.338786	0.896251
	H45	H	0.224230	0.665057	0.091096
	H46	H	0.792226	0.339564	0.090736
	H47	H	0.792050	0.665713	0.890127
	H48	H	0.419221	0.117847	0.582665
	H49	H	0.601077	0.886585	0.584385
	H50	H	0.601166	0.118872	0.394775
	H51	H	0.415560	0.886244	0.397208
	H52	H	0.604435	0.413989	0.107219
	H53	H	0.599034	0.609819	0.871567
	H54	H	0.416616	0.586480	0.105012
	H55	H	0.409678	0.405223	0.871913
	H56	H	0.121770	0.597650	0.406253
	H57	H	0.888343	0.595984	0.587562
	H58	H	0.124247	0.408043	0.592453
	H59	H	0.887577	0.409968	0.391534
	H60	H	0.122912	0.404837	0.582372
	H61	H	0.889817	0.598131	0.579725
	H62	H	0.122779	0.590537	0.396581
	H63	H	0.888665	0.404530	0.403865
	H64	H	0.421482	0.599924	0.108051
	H65	H	0.609972	0.590521	0.874106
	H66	H	0.592864	0.409993	0.104756
	H67	H	0.408715	0.417226	0.876141
	H68	H	0.600769	0.118210	0.397339
	H69	H	0.598751	0.887398	0.586218
	H70	H	0.415170	0.117625	0.577417
	H71	H	0.413305	0.886861	0.399224
	H72	H	0.911503	0.617691	0.080009
	H73	H	0.104738	0.387031	0.083314
	H74	H	0.095097	0.618228	0.893040
	H75	H	0.916815	0.388430	0.902501
	H76	H	0.106527	0.913207	0.608141
	H77	H	0.092801	0.092753	0.377998
	H78	H	0.914451	0.094369	0.607792
	H79	H	0.914310	0.902558	0.372310
	H80	H	0.623090	0.095081	0.898564
	H81	H	0.390599	0.088524	0.089421
	H82	H	0.624747	0.907600	0.087066
	H83	H	0.387381	0.901877	0.896573
	H84	H	0.623078	0.907447	0.080192
	H85	H	0.387936	0.103681	0.083265
	H86	H	0.624022	0.098243	0.895903
	H87	H	0.394515	0.913913	0.908323
	H88	H	0.915880	0.093350	0.606634
	H89	H	0.096069	0.105891	0.373326
	H90	H	0.093889	0.911048	0.604470
	H91	H	0.907420	0.916164	0.374997
	H92	H	0.097262	0.614949	0.903133
	H93	H	0.100863	0.384929	0.093185
	H94	H	0.914577	0.619918	0.087695
	H95	H	0.908646	0.385654	0.901059
	H96	H	0.413280	0.119625	0.582524
	H97	H	0.599087	0.887684	0.583481
	H98	H	0.603032	0.118582	0.396707
	H99	H	0.411999	0.885952	0.396694
	H100	H	0.601038	0.402158	0.109829
	H101	H	0.588283	0.591078	0.879640
	H102	H	0.406926	0.597111	0.111074
	H103	H	0.420153	0.411433	0.876841
	H104	H	0.126409	0.601953	0.395391
	H105	H	0.891282	0.590423	0.582836
	H106	H	0.121413	0.414445	0.584965
	H107	H	0.892657	0.417271	0.401773
	H108	H	0.920129	0.616006	0.081971
	H109	H	0.094501	0.388931	0.085983
	H110	H	0.104786	0.618755	0.897121
	H111	H	0.914311	0.385568	0.894601
	H112	H	0.101209	0.901787	0.609294
	H113	H	0.106305	0.095538	0.373113
	H114	H	0.916295	0.095125	0.608572
	H115	H	0.922936	0.913726	0.378891
	H116	H	0.622750	0.098382	0.899344
	H117	H	0.394630	0.092013	0.073056
	H118	H	0.621669	0.913222	0.083351
	H119	H	0.390900	0.918314	0.890993
	C120	C	0.386493	0.011071	0.611119
	C121	C	0.629467	0.994514	0.612737
	C122	C	0.629498	0.010699	0.368694
	C123	C	0.385290	0.994192	0.368365
	C124	C	0.628099	0.381416	-0.000960
	C125	C	0.628375	0.624770	0.983375
	C126	C	0.385285	0.624092	0.000106
	C127	C	0.385064	0.381070	0.982952
	C128	C	0.015510	0.625301	0.369695
	C129	C	0.997810	0.623214	0.612614
	C130	C	0.015010	0.380066	0.614421
	C131	C	0.998030	0.382874	0.371601
	C132	C	0.885611	0.510635	0.112865
	C133	C	0.129099	0.494672	0.114729
	C134	C	0.127977	0.509901	0.870556
	C135	C	0.884658	0.494167	0.869446
	C136	C	0.128496	0.881024	0.499181
	C137	C	0.128399	0.125246	0.483012
	C138	C	0.886201	0.124002	0.499731
	C139	C	0.886054	0.881013	0.483104
	C140	C	0.515340	0.126046	0.868214
	C141	C	0.499207	0.123835	0.110916
	C142	C	0.515499	0.880391	0.112782
	C143	C	0.498838	0.881949	0.870106
	C144	C	0.388232	0.888528	0.667997
	C145	C	0.628099	0.117250	0.667212
	C146	C	0.626515	0.888274	0.314442
	C147	C	0.388288	0.116577	0.312416
	C148	C	0.682997	0.385481	0.876278
	C149	C	0.685039	0.621336	0.106316
	C150	C	0.329670	0.622361	0.876870
	C151	C	0.331038	0.382223	0.106441
	C152	C	0.892318	0.680494	0.370815
	C153	C	0.121231	0.678535	0.611347
	C154	C	0.891853	0.324128	0.611973
	C155	C	0.121490	0.327724	0.374508
	C156	C	0.891223	0.382461	0.668538
	C157	C	0.121482	0.620346	0.668063
	C158	C	0.892329	0.622936	0.313426
	C159	C	0.121884	0.385612	0.317754
	C160	C	0.386178	0.681165	0.876980
	C161	C	0.626940	0.678627	0.106457
	C162	C	0.625768	0.327661	0.876200
	C163	C	0.387176	0.323759	0.105686
	C164	C	0.684378	0.888141	0.372449
	C165	C	0.685661	0.116955	0.609129
	C166	C	0.331000	0.888256	0.609862
	C167	C	0.330025	0.116538	0.369065
	C168	C	0.887328	0.388303	0.169697
	C169	C	0.127689	0.617183	0.168931
	C170	C	0.125466	0.387192	0.816723
	C171	C	0.886902	0.616485	0.812347
	C172	C	0.182523	0.884755	0.376076
	C173	C	0.185496	0.121316	0.605083
	C174	C	0.831013	0.122178	0.376332
	C175	C	0.830583	0.881604	0.605845
	C176	C	0.392415	0.181431	0.869197
	C177	C	0.621962	0.179994	0.109768
	C178	C	0.392560	0.823968	0.111450
	C179	C	0.621500	0.826042	0.872034
	C180	C	0.392248	0.882414	0.167795
	C181	C	0.622517	0.121687	0.166595
	C182	C	0.392555	0.123878	0.811537
	C183	C	0.621993	0.884557	0.815315
	C184	C	0.887499	0.180959	0.377054
	C185	C	0.127956	0.179352	0.605736
	C186	C	0.125710	0.826388	0.376780
	C187	C	0.887890	0.824161	0.605676
	C188	C	0.182967	0.387297	0.875055
	C189	C	0.185501	0.616751	0.111319
	C190	C	0.829716	0.388253	0.111589
	C191	C	0.829585	0.616765	0.870167
	C192	C	0.409144	0.096165	0.587699
	C193	C	0.606484	0.909331	0.591063
	C194	C	0.607950	0.096334	0.389943
	C195	C	0.407245	0.908485	0.391117
	C196	C	0.605869	0.402566	0.085121
	C197	C	0.605762	0.603501	0.897250
	C198	C	0.408194	0.601334	0.085712
	C199	C	0.406535	0.404482	0.897169
	C200	C	0.101373	0.603181	0.392591
	C201	C	0.912050	0.601411	0.589964
	C202	C	0.100580	0.402549	0.592878
	C203	C	0.912080	0.404383	0.392846
	C204	C	0.908517	0.595959	0.089711
	C205	C	0.106493	0.409001	0.093651
	C206	C	0.105503	0.595321	0.891724
	C207	C	0.906987	0.408640	0.892564
	C208	C	0.106900	0.902600	0.585378
	C209	C	0.105255	0.104109	0.396903
	C210	C	0.908940	0.100942	0.585573
	C211	C	0.908303	0.904024	0.397509
	C212	C	0.601163	0.103774	0.891241
	C213	C	0.413375	0.101240	0.088420
	C214	C	0.600995	0.902814	0.090144
	C215	C	0.413104	0.904740	0.892271
	Zn216	Zn	0.507305	0.003242	0.741031
	Zn217	Zn	0.507258	0.002315	0.240021
	Zn218	Zn	0.756642	0.502819	-0.008636
	Zn219	Zn	0.256888	0.502272	-0.007703
	Zn220	Zn	0.006889	0.752451	0.491513
	Zn221	Zn	0.006355	0.253512	0.491957
	Zn222	Zn	0.006279	0.501709	0.741280
	Zn223	Zn	0.007293	0.503036	0.242446
	Zn224	Zn	0.506545	0.752780	-0.008225
	Zn225	Zn	0.506708	0.253558	-0.009599
	Zn226	Zn	0.758376	0.002183	0.490961
	Zn227	Zn	0.257051	0.002378	0.489879
	N228	N	0.421999	0.965778	0.668914
	N229	N	0.593972	0.040124	0.669690
	N230	N	0.593360	0.965581	0.311892
	N231	N	0.422061	0.039528	0.311889
	N232	N	0.684252	0.418473	0.953656
	N233	N	0.686143	0.588597	0.028541
	N234	N	0.328785	0.587872	0.954050
	N235	N	0.329764	0.417556	0.029339
	N236	N	0.969922	0.682233	0.404821
	N237	N	0.043606	0.680333	0.577498
	N238	N	0.969735	0.322244	0.579347
	N239	N	0.043521	0.325749	0.407299
	N240	N	0.968650	0.416560	0.670391
	N241	N	0.043964	0.586437	0.669018
	N242	N	0.969884	0.589373	0.312583
	N243	N	0.044398	0.419196	0.315828
	N244	N	0.420188	0.682338	0.954618
	N245	N	0.592625	0.680872	0.029216
	N246	N	0.592347	0.325066	0.953737
	N247	N	0.419834	0.322716	0.027837
	N248	N	0.686401	0.965387	0.405360
	N249	N	0.686589	0.039784	0.575933
	N250	N	0.329598	0.965322	0.575089
	N251	N	0.327849	0.039246	0.402984
	N252	N	0.921436	0.465480	0.170796
	N253	N	0.093156	0.540269	0.171022
	N254	N	0.091913	0.464417	0.813694
	N255	N	0.920502	0.539240	0.811771
	N256	N	0.184204	0.918276	0.453356
	N257	N	0.185804	0.088115	0.527694
	N258	N	0.830032	0.087480	0.453720
	N259	N	0.829255	0.916164	0.528608
	N260	N	0.469828	0.182845	0.903790
	N261	N	0.544473	0.181327	0.075935
	N262	N	0.470118	0.822686	0.077948
	N263	N	0.543858	0.824247	0.905518
	N264	N	0.469559	0.916707	0.169085
	N265	N	0.544938	0.087461	0.167793
	N266	N	0.469983	0.090198	0.810634
	N267	N	0.544642	0.918620	0.814053
	N268	N	0.920975	0.182138	0.454745
	N269	N	0.093080	0.181725	0.528546
	N270	N	0.092904	0.824031	0.454416
	N271	N	0.921941	0.823796	0.528444
	N272	N	0.184374	0.464520	0.907777
	N273	N	0.186382	0.539624	0.078231
	N274	N	0.828770	0.465306	0.076969
	N275	N	0.828252	0.539879	0.905186
	O276	O	1.048572	0.975343	-0.025708
	H277	H	1.051086	0.977988	-0.029559
	H278	H	1.055726	0.964736	-0.016189
	O279	O	0.061801	-0.063734	0.982983
	H280	H	0.061588	-0.054811	0.987728
	H281	H	0.070986	-0.067178	0.987360
	O282	O	0.084144	-0.081613	-0.053947
	H283	H	0.062842	-0.083468	-0.060290
	H284	H	0.081865	-0.078720	-0.053877
	O285	O	0.479430	0.489741	0.536900
	H286	H	0.476668	0.486125	0.543830
	H287	H	0.479593	0.489737	0.539301
	O288	O	0.027930	0.029708	-0.120696
	H289	H	0.030806	0.034018	-0.125253
	H290	H	0.032975	0.024906	-0.126268
	O291	O	0.005290	0.852477	0.077195
	H292	H	0.010534	0.845186	0.083467
	H293	H	0.000594	0.852534	0.067622
	O294	O	0.022374	1.025080	-0.053314
	H295	H	0.007240	1.016913	-0.058635
	H296	H	0.029985	1.028374	-0.044883
	O297	O	0.546502	0.508134	0.531594
	H298	H	0.541170	0.503689	0.529022
	H299	H	0.548188	0.503905	0.526461
	O300	O	0.482022	0.499495	0.454415
	H301	H	0.475369	0.497678	0.451746
	H302	H	0.482412	0.509109	0.454867
	O303	O	0.868494	-0.015150	0.922596
	H304	H	0.864235	-0.006415	0.925312
	H305	H	0.857554	-0.018724	0.919237
	O306	O	-0.002415	0.964332	1.034096
	H307	H	-0.015788	0.969822	1.042411
	H308	H	-0.013026	0.953299	1.037748
	O309	O	0.061349	1.063291	1.049663
	H310	H	0.065832	1.052633	1.052067
	H311	H	0.058991	1.058052	1.046028
	O312	O	-0.080497	0.033567	1.055721
	H313	H	-0.091874	0.028701	1.058928
	H314	H	-0.071393	0.038005	1.064568
	O315	O	0.464463	0.479799	0.478125
	H316	H	0.464539	0.483715	0.488550
	H317	H	0.446484	0.468462	0.481606
	O318	O	-0.040876	0.050526	1.019179
	H319	H	-0.041109	0.054466	1.021743
	H320	H	-0.034940	0.055438	1.018824
	O321	O	0.530643	0.447679	0.552054
	H322	H	0.534419	0.446849	0.548848
	H323	H	0.534203	0.448426	0.548539
	O324	O	1.056160	0.049011	0.973188
	H325	H	1.059181	0.048260	0.970274
	H326	H	1.050691	0.037107	0.976600
	O327	O	0.946356	0.963427	1.027677
	H328	H	0.946661	0.964217	1.007951
	H329	H	0.954267	0.953605	1.038070
	O330	O	0.489502	0.503208	0.515935
	H331	H	0.482646	0.504971	0.524306
	H332	H	0.506165	0.501146	0.512551
	O333	O	0.031919	-0.049464	1.024427
	H334	H	0.020656	-0.044075	1.020070
	H335	H	0.034109	-0.046890	1.022467
	O336	O	0.953799	0.074220	0.960977
	H337	H	0.961846	0.073144	0.961607
	H338	H	0.951055	0.065183	0.964424
	O339	O	0.494908	0.472278	0.515483
	H340	H	0.496149	0.473042	0.514966
	H341	H	0.495986	0.476125	0.504368
	O342	O	-0.037496	0.997395	-0.008988
	H343	H	-0.037491	0.997157	-0.015218
	H344	H	-0.032932	1.004808	-0.003234
	O345	O	0.465088	0.485966	0.474782
	H346	H	0.460535	0.481217	0.476397
	H347	H	0.464043	0.483983	0.482970
