data_Molecule from HDF5

_cell_length_a		16.323048
_cell_length_b		16.314476
_cell_length_c		16.201103
_cell_angle_alpha	90.471824
_cell_angle_beta	90.317569
_cell_angle_gamma	90.379607
_symmetry_space_group_name_H-M	'P 1'
_symmetry_Int_Tables_number		1

loop_
	_symmetry_equiv_pos_as_xyz
	x,y,z

loop_
	_atom_site_label
	_atom_site_type_symbol
	_atom_site_fract_x
	_atom_site_fract_y
	_atom_site_fract_z
	H0	H	0.406124	0.835623	0.719322
	H1	H	0.605298	0.162667	0.723841
	H2	H	0.600243	0.836224	0.290681
	H3	H	0.408568	0.163303	0.295520
	H4	H	0.718168	0.398322	0.842034
	H5	H	0.723415	0.602465	0.170154
	H6	H	0.288710	0.597151	0.843206
	H7	H	0.290466	0.400915	0.171074
	H8	H	0.841515	0.712826	0.403963
	H9	H	0.167746	0.716086	0.607912
	H10	H	0.842363	0.281932	0.603691
	H11	H	0.167524	0.282033	0.404043
	H12	H	0.841866	0.398481	0.719540
	H13	H	0.168557	0.598009	0.720938
	H14	H	0.841582	0.593697	0.290430
	H15	H	0.168781	0.400781	0.292519
	H16	H	0.405201	0.712045	0.842500
	H17	H	0.606059	0.717150	0.170196
	H18	H	0.602741	0.281241	0.843887
	H19	H	0.405938	0.286825	0.171822
	H20	H	0.718558	0.835972	0.405302
	H21	H	0.723893	0.160907	0.610886
	H22	H	0.287480	0.836424	0.605897
	H23	H	0.289206	0.161488	0.406804
	H24	H	0.905314	0.335317	0.217291
	H25	H	0.105103	0.661009	0.222911
	H26	H	0.100350	0.335351	0.790886
	H27	H	0.908736	0.663273	0.791382
	H28	H	0.218448	0.897553	0.342169
	H29	H	0.221663	0.100859	0.669912
	H30	H	0.788835	0.095262	0.343387
	H31	H	0.789428	0.898945	0.671540
	H32	H	0.341172	0.212749	0.907879
	H33	H	0.666835	0.217956	0.109906
	H34	H	0.342163	0.782661	0.105771
	H35	H	0.666546	0.782014	0.905356
	H36	H	0.340067	0.902270	0.217523
	H37	H	0.666661	0.100926	0.224644
	H38	H	0.341331	0.095929	0.791924
	H39	H	0.667624	0.898928	0.790149
	H40	H	0.905470	0.209244	0.341785
	H41	H	0.106312	0.216391	0.669269
	H42	H	0.100565	0.783993	0.341700
	H43	H	0.906726	0.784839	0.671415
	H44	H	0.219143	0.335521	0.905787
	H45	H	0.221959	0.661593	0.109127
	H46	H	0.787528	0.337463	0.103888
	H47	H	0.788113	0.662528	0.903043
	H48	H	0.413820	0.113893	0.595755
	H49	H	0.597337	0.882403	0.602795
	H50	H	0.599918	0.117867	0.407550
	H51	H	0.406891	0.883089	0.414933
	H52	H	0.600590	0.405738	0.125128
	H53	H	0.597135	0.590009	0.891050
	H54	H	0.411679	0.580234	0.121095
	H55	H	0.401456	0.405007	0.886777
	H56	H	0.120959	0.596104	0.418238
	H57	H	0.890049	0.589138	0.596234
	H58	H	0.121273	0.412250	0.604275
	H59	H	0.888428	0.406810	0.408114
	H60	H	0.122739	0.399728	0.598416
	H61	H	0.888048	0.591326	0.599803
	H62	H	0.119011	0.588321	0.415889
	H63	H	0.887556	0.398074	0.410777
	H64	H	0.424550	0.597547	0.121478
	H65	H	0.595429	0.590383	0.890302
	H66	H	0.600726	0.415623	0.122530
	H67	H	0.416258	0.414289	0.894025
	H68	H	0.589653	0.111016	0.420265
	H69	H	0.592054	0.884461	0.597030
	H70	H	0.408975	0.116747	0.599757
	H71	H	0.408258	0.880203	0.407902
	H72	H	0.907409	0.617080	0.097849
	H73	H	0.096052	0.383310	0.096498
	H74	H	0.096741	0.614673	0.914299
	H75	H	0.906696	0.380875	0.905161
	H76	H	0.090968	0.901945	0.623526
	H77	H	0.101823	0.099514	0.385047
	H78	H	0.918206	0.085915	0.620253
	H79	H	0.907380	0.903671	0.388853
	H80	H	0.619749	0.093964	0.920927
	H81	H	0.389834	0.084783	0.103053
	H82	H	0.621551	0.905379	0.100786
	H83	H	0.393501	0.917077	0.916318
	H84	H	0.619529	0.908203	0.095850
	H85	H	0.383795	0.099674	0.107999
	H86	H	0.618602	0.088200	0.916668
	H87	H	0.384803	0.902097	0.900269
	H88	H	0.917100	0.097790	0.624286
	H89	H	0.103401	0.080749	0.390004
	H90	H	0.105683	0.905518	0.626519
	H91	H	0.910047	0.907931	0.391355
	H92	H	0.099555	0.614887	0.917259
	H93	H	0.100835	0.381969	0.096190
	H94	H	0.919953	0.615999	0.104568
	H95	H	0.918430	0.386631	0.912411
	H96	H	0.415328	0.114678	0.602102
	H97	H	0.599633	0.883017	0.594798
	H98	H	0.605680	0.115407	0.423993
	H99	H	0.413446	0.883537	0.411330
	H100	H	0.592670	0.410140	0.121818
	H101	H	0.596899	0.590978	0.889628
	H102	H	0.404650	0.599046	0.128802
	H103	H	0.418124	0.396028	0.889461
	H104	H	0.122069	0.594018	0.409805
	H105	H	0.889070	0.593078	0.595744
	H106	H	0.117745	0.409863	0.591141
	H107	H	0.891265	0.404779	0.416448
	H108	H	0.919153	0.611131	0.091524
	H109	H	0.098357	0.381169	0.100124
	H110	H	0.100769	0.615602	0.913273
	H111	H	0.906461	0.385148	0.919726
	H112	H	0.096034	0.916322	0.620192
	H113	H	0.086938	0.089478	0.391949
	H114	H	0.907046	0.089446	0.625179
	H115	H	0.913565	0.902047	0.391386
	H116	H	0.621950	0.094371	0.913671
	H117	H	0.388550	0.097213	0.091909
	H118	H	0.620568	0.911544	0.100809
	H119	H	0.388653	0.894718	0.921590
	C120	C	0.383426	0.007291	0.627620
	C121	C	0.626771	0.990697	0.629026
	C122	C	0.625968	0.007300	0.386343
	C123	C	0.382059	0.990450	0.384167
	C124	C	0.625914	0.379481	0.014860
	C125	C	0.627042	0.621412	0.997922
	C126	C	0.384051	0.620337	0.015522
	C127	C	0.383061	0.377448	0.998705
	C128	C	0.012623	0.619792	0.384857
	C129	C	0.996635	0.620824	0.627489
	C130	C	0.013344	0.377365	0.626776
	C131	C	0.996799	0.375425	0.382942
	C132	C	0.884915	0.507342	0.126351
	C133	C	0.127830	0.489866	0.128530
	C134	C	0.126542	0.507210	0.885078
	C135	C	0.882359	0.491615	0.883004
	C136	C	0.125136	0.878117	0.514915
	C137	C	0.127111	0.120620	0.497113
	C138	C	0.884040	0.118831	0.514763
	C139	C	0.882138	0.876221	0.498844
	C140	C	0.512717	0.120694	0.886749
	C141	C	0.495478	0.123349	0.130581
	C142	C	0.512616	0.878735	0.127376
	C143	C	0.496450	0.876531	0.883956
	C144	C	0.385601	0.884641	0.682076
	C145	C	0.625514	0.113532	0.685854
	C146	C	0.622244	0.884907	0.328758
	C147	C	0.386420	0.113936	0.331510
	C148	C	0.680209	0.379176	0.891275
	C149	C	0.684751	0.621886	0.121038
	C150	C	0.327396	0.617595	0.891892
	C151	C	0.327921	0.380425	0.121981
	C152	C	0.890307	0.674828	0.385025
	C153	C	0.119224	0.677638	0.627239
	C154	C	0.890884	0.320678	0.624387
	C155	C	0.118927	0.320005	0.384596
	C156	C	0.890688	0.378469	0.681905
	C157	C	0.119570	0.618886	0.683463
	C158	C	0.890211	0.615367	0.328472
	C159	C	0.119364	0.379078	0.328707
	C160	C	0.385551	0.674621	0.891613
	C161	C	0.626418	0.678838	0.121229
	C162	C	0.622840	0.321163	0.892193
	C163	C	0.385405	0.323721	0.122511
	C164	C	0.680844	0.884716	0.385932
	C165	C	0.684411	0.112638	0.629587
	C166	C	0.326831	0.884760	0.625390
	C167	C	0.327431	0.113063	0.387326
	C168	C	0.885491	0.384580	0.180471
	C169	C	0.125898	0.612347	0.185291
	C170	C	0.121969	0.384045	0.829084
	C171	C	0.886625	0.614401	0.828531
	C172	C	0.179765	0.878831	0.390945
	C173	C	0.183664	0.120543	0.620655
	C174	C	0.827530	0.115677	0.391885
	C175	C	0.827306	0.878423	0.622442
	C176	C	0.389966	0.175098	0.887776
	C177	C	0.618093	0.179791	0.129770
	C178	C	0.390365	0.821809	0.125178
	C179	C	0.618438	0.820721	0.885453
	C180	C	0.389412	0.881204	0.181126
	C181	C	0.618012	0.121341	0.186441
	C182	C	0.390063	0.116867	0.830409
	C183	C	0.618953	0.879142	0.828612
	C184	C	0.885411	0.172470	0.391202
	C185	C	0.126171	0.177902	0.620344
	C186	C	0.121493	0.822109	0.390801
	C187	C	0.885352	0.821641	0.622299
	C188	C	0.180828	0.384285	0.886313
	C189	C	0.183873	0.612499	0.128516
	C190	C	0.826799	0.385641	0.124066
	C191	C	0.826944	0.613897	0.884202
	C192	C	0.406127	0.093080	0.605684
	C193	C	0.603322	0.905440	0.605114
	C194	C	0.604804	0.092763	0.410289
	C195	C	0.403281	0.904575	0.405274
	C196	C	0.604243	0.403429	0.100873
	C197	C	0.603510	0.597371	0.912435
	C198	C	0.406904	0.598681	0.101347
	C199	C	0.405367	0.398911	0.912640
	C200	C	0.098513	0.598838	0.407884
	C201	C	0.911275	0.597842	0.604206
	C202	C	0.098527	0.400573	0.604466
	C203	C	0.911100	0.396912	0.405184
	C204	C	0.908551	0.592730	0.104400
	C205	C	0.105076	0.404247	0.104566
	C206	C	0.105325	0.592954	0.908154
	C207	C	0.904107	0.406069	0.905758
	C208	C	0.103957	0.901057	0.601060
	C209	C	0.104155	0.096877	0.411311
	C210	C	0.907265	0.097503	0.600933
	C211	C	0.903866	0.898217	0.412773
	C212	C	0.598034	0.098827	0.910280
	C213	C	0.409594	0.100716	0.107449
	C214	C	0.598371	0.901650	0.105536
	C215	C	0.411202	0.898234	0.906206
	Zn216	Zn	0.505300	-0.000677	0.756860
	Zn217	Zn	0.504167	-0.000184	0.256660
	Zn218	Zn	0.754985	0.500486	0.005204
	Zn219	Zn	0.255850	0.498978	0.007055
	Zn220	Zn	0.004510	0.749496	0.507106
	Zn221	Zn	0.005222	0.247834	0.504999
	Zn222	Zn	0.004774	0.499405	0.755303
	Zn223	Zn	0.005343	0.497499	0.255593
	Zn224	Zn	0.504987	0.748847	0.006436
	Zn225	Zn	0.504135	0.250207	0.008262
	Zn226	Zn	0.755550	-0.001937	0.507664
	Zn227	Zn	0.254416	-0.001292	0.506096
	N228	N	0.420023	0.961906	0.683695
	N229	N	0.590250	0.036724	0.685706
	N230	N	0.588819	0.962031	0.328985
	N231	N	0.419754	0.036764	0.329481
	N232	N	0.682210	0.414693	0.968529
	N233	N	0.685139	0.586805	0.043498
	N234	N	0.326140	0.584690	0.969736
	N235	N	0.326423	0.413242	0.044084
	N236	N	0.967512	0.677630	0.419614
	N237	N	0.041939	0.678896	0.593064
	N238	N	0.968055	0.319715	0.590841
	N239	N	0.041541	0.317605	0.417705
	N240	N	0.967816	0.413267	0.683491
	N241	N	0.042411	0.584228	0.683700
	N242	N	0.967328	0.582022	0.328251
	N243	N	0.042368	0.412909	0.327864
	N244	N	0.419840	0.676571	0.969413
	N245	N	0.591326	0.678703	0.043898
	N246	N	0.589548	0.321259	0.970037
	N247	N	0.419188	0.321829	0.044878
	N248	N	0.683243	0.961734	0.421154
	N249	N	0.685287	0.035250	0.595056
	N250	N	0.325496	0.962170	0.592252
	N251	N	0.324703	0.035230	0.419462
	N252	N	0.920923	0.461427	0.181870
	N253	N	0.091783	0.535006	0.185445
	N254	N	0.089148	0.461521	0.828060
	N255	N	0.920336	0.537224	0.827546
	N256	N	0.182192	0.913127	0.468976
	N257	N	0.184273	0.085482	0.543083
	N258	N	0.826455	0.083245	0.469914
	N259	N	0.825086	0.911400	0.544561
	N260	N	0.467174	0.177505	0.922198
	N261	N	0.540770	0.180999	0.095614
	N262	N	0.467988	0.820227	0.092546
	N263	N	0.541292	0.818763	0.919000
	N264	N	0.466518	0.916031	0.182514
	N265	N	0.540861	0.087043	0.186890
	N266	N	0.467365	0.083567	0.829645
	N267	N	0.542036	0.913002	0.827501
	N268	N	0.919953	0.174504	0.468802
	N269	N	0.091899	0.178244	0.542583
	N270	N	0.088398	0.821507	0.468722
	N271	N	0.918651	0.820110	0.544426
	N272	N	0.183789	0.461932	0.920294
	N273	N	0.185073	0.535400	0.093851
	N274	N	0.826194	0.463001	0.091160
	N275	N	0.824074	0.536373	0.917002
	O276	O	0.009216	0.005805	-0.024428
	H277	H	0.009446	0.005757	-0.020932
	H278	H	0.005466	0.011054	-0.030508
	O279	O	0.527614	0.611852	0.481477
	H280	H	0.521436	0.605507	0.476457
	H281	H	0.527148	0.602754	0.483891
	O282	O	0.430883	0.478126	0.547887
	H283	H	0.432251	0.480219	0.550571
	H284	H	0.429606	0.469374	0.553013
	O285	O	1.044847	0.002820	0.994564
	H286	H	1.045289	0.007697	0.998196
	H287	H	1.037211	0.000403	0.992864
	O288	O	1.006822	-0.021886	0.024584
	H289	H	1.012505	-0.021338	0.024252
	H290	H	0.998702	-0.016121	0.012322
	O291	O	0.468064	0.472583	0.440201
	H292	H	0.467692	0.474049	0.448839
	H293	H	0.472641	0.464369	0.448154
	O294	O	1.467743	0.446643	0.608589
	H295	H	1.463754	0.452876	0.601374
	H296	H	1.462085	0.447378	0.609347
	O297	O	-0.051397	0.009700	0.007333
	H298	H	-0.059985	0.003724	0.017192
	H299	H	-0.057506	0.000128	0.014728
	O300	O	0.554223	0.482230	0.437089
	H301	H	0.557457	0.480739	0.443688
	H302	H	0.553843	0.482029	0.446123
	O303	O	0.501646	0.426332	0.530903
	H304	H	0.502777	0.426549	0.526595
	H305	H	0.506491	0.426055	0.530177
	O306	O	0.945499	0.004766	-0.012223
	H307	H	0.942734	0.010780	-0.008402
	H308	H	0.940312	0.011414	-0.019481
	O309	O	0.013703	0.014271	1.005283
	H310	H	0.008509	0.017616	1.009271
	H311	H	0.018336	0.010525	1.012131
	O312	O	0.894031	1.025118	0.995636
	H313	H	0.893085	1.026641	0.990944
	H314	H	0.890908	1.031052	1.000308
	O315	O	0.631093	0.554483	0.672799
	H316	H	0.629525	0.568600	0.672063
	H317	H	0.646415	0.559074	0.686047
	O318	O	0.551605	0.549860	0.502551
	H319	H	0.550979	0.553496	0.498799
	H320	H	0.551944	0.545022	0.501242
	O321	O	0.057293	1.002416	1.021498
	H322	H	0.058435	0.999629	1.012441
	H323	H	0.066157	0.997197	1.017163
	O324	O	0.499697	0.491955	0.518111
	H325	H	0.500698	0.486459	0.516962
	H326	H	0.505429	0.489788	0.519006
	O327	O	0.918136	1.063256	0.031999
	H328	H	0.926790	1.066360	0.045820
	H329	H	0.913883	1.057263	0.031277
	O330	O	0.572893	0.576231	0.560500
	H331	H	0.567923	0.580671	0.548040
	H332	H	0.565036	0.569199	0.558270
	O333	O	0.621525	0.506259	0.448508
	H334	H	0.611657	0.493043	0.445158
	H335	H	0.625144	0.520255	0.449935
	O336	O	0.496026	0.393914	0.562184
	H337	H	0.501968	0.401569	0.560265
	H338	H	0.498317	0.404851	0.570377
	O339	O	0.951512	0.940838	0.061241
	H340	H	0.960692	0.952593	0.057613
	H341	H	0.959037	0.936162	0.059572
	O342	O	0.586406	0.483259	0.455022
	H343	H	0.591163	0.476836	0.448978
	H344	H	0.592199	0.487312	0.452424
	O345	O	0.411822	0.526124	0.557166
	H346	H	0.402199	0.532699	0.558262
	H347	H	0.408368	0.522892	0.554092
	O348	O	-0.003196	-0.032879	0.017681
	H349	H	0.007448	-0.033350	0.024552
	H350	H	-0.009857	-0.031617	0.018154
	O351	O	-0.560273	0.444668	0.471776
	H352	H	-0.549669	0.441638	0.474255
	H353	H	-0.562027	0.444997	0.472289
	O354	O	0.576668	0.469057	0.505632
	H355	H	0.577287	0.466071	0.512431
	H356	H	0.562802	0.461191	0.499455
	O357	O	-0.499146	1.540722	0.558021
	H358	H	-0.488322	1.543698	0.556432
	H359	H	-0.493445	1.545617	0.561748
