data_Molecule from HDF5

_cell_length_a		16.375564
_cell_length_b		16.503904
_cell_length_c		16.499884
_cell_angle_alpha	89.968061
_cell_angle_beta	90.173416
_cell_angle_gamma	89.980622
_symmetry_space_group_name_H-M	'P 1'
_symmetry_Int_Tables_number		1

loop_
	_symmetry_equiv_pos_as_xyz
	x,y,z

loop_
	_atom_site_label
	_atom_site_type_symbol
	_atom_site_fract_x
	_atom_site_fract_y
	_atom_site_fract_z
	H0	H	0.405792	0.855798	0.729708
	H1	H	0.628438	0.165093	0.733076
	H2	H	0.623286	0.856112	0.279619
	H3	H	0.403979	0.167346	0.278736
	H4	H	0.738865	0.401042	0.848207
	H5	H	0.737099	0.615089	0.161222
	H6	H	0.290482	0.617951	0.847478
	H7	H	0.292250	0.404417	0.161035
	H8	H	0.857451	0.732494	0.394795
	H9	H	0.171312	0.735343	0.613204
	H10	H	0.857964	0.286067	0.612965
	H11	H	0.170656	0.284236	0.393296
	H12	H	0.857332	0.400763	0.727953
	H13	H	0.170983	0.621233	0.730259
	H14	H	0.857746	0.616951	0.279594
	H15	H	0.172441	0.401373	0.280383
	H16	H	0.402922	0.737246	0.848895
	H17	H	0.622894	0.732973	0.161114
	H18	H	0.624415	0.285026	0.848528
	H19	H	0.404282	0.284777	0.159461
	H20	H	0.737230	0.855153	0.397891
	H21	H	0.741561	0.166518	0.615250
	H22	H	0.290840	0.854316	0.612200
	H23	H	0.288181	0.167101	0.395031
	H24	H	0.904175	0.354214	0.229131
	H25	H	0.124110	0.665747	0.229067
	H26	H	0.124318	0.354942	0.778137
	H27	H	0.901778	0.664826	0.777035
	H28	H	0.236613	0.905316	0.347225
	H29	H	0.238677	0.119158	0.660719
	H30	H	0.789985	0.119194	0.347615
	H31	H	0.791354	0.903790	0.660460
	H32	H	0.357920	0.236207	0.892329
	H33	H	0.671589	0.236019	0.112840
	H34	H	0.356663	0.789455	0.111194
	H35	H	0.670820	0.786135	0.896287
	H36	H	0.357618	0.904986	0.226859
	H37	H	0.671734	0.121792	0.229463
	H38	H	0.357784	0.118724	0.779284
	H39	H	0.671776	0.902307	0.781091
	H40	H	0.903638	0.236700	0.348519
	H41	H	0.126159	0.237924	0.659226
	H42	H	0.121500	0.787760	0.347295
	H43	H	0.904780	0.784916	0.658988
	H44	H	0.237931	0.353126	0.896214
	H45	H	0.237799	0.667417	0.110897
	H46	H	0.789585	0.353318	0.112656
	H47	H	0.787625	0.665111	0.895004
	H48	H	0.429703	0.121939	0.589381
	H49	H	0.607318	0.900805	0.586048
	H50	H	0.600432	0.123752	0.414203
	H51	H	0.427898	0.901777	0.419790
	H52	H	0.602728	0.422335	0.117053
	H53	H	0.597563	0.595914	0.894182
	H54	H	0.431564	0.597242	0.114002
	H55	H	0.430652	0.422658	0.892706
	H56	H	0.127638	0.594823	0.414282
	H57	H	0.900630	0.601384	0.590430
	H58	H	0.126379	0.423120	0.587750
	H59	H	0.902082	0.420735	0.420669
	H60	H	0.124300	0.428550	0.589060
	H61	H	0.904172	0.596001	0.586630
	H62	H	0.129427	0.601148	0.414515
	H63	H	0.904823	0.428680	0.416060
	H64	H	0.426370	0.606224	0.118665
	H65	H	0.598531	0.601848	0.891795
	H66	H	0.601286	0.424876	0.114326
	H67	H	0.425672	0.421217	0.891550
	H68	H	0.600693	0.123248	0.418252
	H69	H	0.604567	0.896031	0.599381
	H70	H	0.426594	0.122633	0.590770
	H71	H	0.424099	0.897960	0.414836
	H72	H	0.926497	0.623875	0.099532
	H73	H	0.105795	0.398437	0.086905
	H74	H	0.101372	0.622341	0.914103
	H75	H	0.932887	0.400798	0.917680
	H76	H	0.099155	0.919919	0.616910
	H77	H	0.100640	0.099787	0.392830
	H78	H	0.924788	0.094227	0.615279
	H79	H	0.928558	0.922086	0.392473
	H80	H	0.626878	0.103600	0.924182
	H81	H	0.403008	0.096884	0.089156
	H82	H	0.627527	0.925197	0.092860
	H83	H	0.402007	0.922088	0.919781
	H84	H	0.629555	0.921454	0.095360
	H85	H	0.402066	0.097702	0.092324
	H86	H	0.623539	0.090459	0.920872
	H87	H	0.403888	0.927817	0.918613
	H88	H	0.935586	0.095863	0.612090
	H89	H	0.100825	0.096746	0.392971
	H90	H	0.104693	0.920761	0.617417
	H91	H	0.926011	0.920247	0.390989
	H92	H	0.099126	0.621125	0.917483
	H93	H	0.105029	0.396165	0.096526
	H94	H	0.935752	0.617011	0.088401
	H95	H	0.924080	0.397796	0.919595
	H96	H	0.429397	0.122287	0.592820
	H97	H	0.594522	0.902727	0.591839
	H98	H	0.603740	0.125109	0.416161
	H99	H	0.430573	0.900654	0.413200
	H100	H	0.599350	0.422225	0.115568
	H101	H	0.603681	0.597478	0.891873
	H102	H	0.420793	0.596234	0.116995
	H103	H	0.427027	0.426111	0.893352
	H104	H	0.126845	0.598295	0.419298
	H105	H	0.902324	0.594567	0.593639
	H106	H	0.126917	0.425332	0.593054
	H107	H	0.899920	0.421771	0.411733
	H108	H	0.920744	0.621453	0.085140
	H109	H	0.096537	0.400112	0.092189
	H110	H	0.103518	0.621411	0.917596
	H111	H	0.927946	0.397438	0.911036
	H112	H	0.101135	0.924794	0.615144
	H113	H	0.098480	0.097786	0.394248
	H114	H	0.929684	0.104326	0.617797
	H115	H	0.925618	0.923686	0.391864
	H116	H	0.629791	0.099152	0.911677
	H117	H	0.402148	0.099949	0.089489
	H118	H	0.627667	0.920990	0.090606
	H119	H	0.400853	0.924439	0.914197
	C120	C	0.394008	0.019149	0.625232
	C121	C	0.637466	1.002524	0.626850
	C122	C	0.635512	0.020609	0.382856
	C123	C	0.392505	1.002852	0.381845
	C124	C	0.635209	0.389058	0.012443
	C125	C	0.635091	0.631690	0.995839
	C126	C	0.392195	0.633298	0.013151
	C127	C	0.393379	0.389223	0.995390
	C128	C	0.023691	0.631260	0.382170
	C129	C	1.005824	0.632062	0.625188
	C130	C	0.022671	0.390386	0.624371
	C131	C	1.006099	0.388558	0.381816
	C132	C	0.893582	0.517493	0.124684
	C133	C	0.136206	0.501700	0.125614
	C134	C	0.135949	0.518821	0.882035
	C135	C	0.892575	0.501309	0.882176
	C136	C	0.135698	0.888949	0.512823
	C137	C	0.135676	0.132928	0.495655
	C138	C	0.894342	0.132424	0.512072
	C139	C	0.892625	0.888712	0.494979
	C140	C	0.523116	0.132193	0.883339
	C141	C	0.506410	0.132445	0.124763
	C142	C	0.523754	0.889752	0.125980
	C143	C	0.505948	0.890144	0.883548
	C144	C	0.388916	0.902213	0.688125
	C145	C	0.644317	0.118794	0.690935
	C146	C	0.640369	0.903093	0.320642
	C147	C	0.387201	0.120357	0.319510
	C148	C	0.698229	0.384113	0.895122
	C149	C	0.697043	0.634045	0.113774
	C150	C	0.330494	0.636392	0.894997
	C151	C	0.332061	0.385935	0.113542
	C152	C	0.904868	0.692038	0.377837
	C153	C	0.123913	0.694680	0.630430
	C154	C	0.905044	0.327127	0.629437
	C155	C	0.123801	0.325667	0.377158
	C156	C	0.904763	0.384683	0.686858
	C157	C	0.123704	0.637674	0.688776
	C158	C	0.905091	0.634565	0.320286
	C159	C	0.124578	0.384031	0.320351
	C160	C	0.386550	0.695867	0.895688
	C161	C	0.640101	0.692718	0.113674
	C162	C	0.640947	0.326286	0.895350
	C163	C	0.388171	0.326464	0.112888
	C164	C	0.697160	0.902592	0.379761
	C165	C	0.701011	0.119374	0.632188
	C166	C	0.331418	0.901737	0.629719
	C167	C	0.329375	0.120194	0.377617
	C168	C	0.888335	0.400798	0.187621
	C169	C	0.141216	0.619045	0.188032
	C170	C	0.141041	0.401514	0.819508
	C171	C	0.886006	0.618285	0.819020
	C172	C	0.196513	0.886712	0.394594
	C173	C	0.198746	0.137225	0.613191
	C174	C	0.830990	0.136679	0.394925
	C175	C	0.831579	0.885662	0.613078
	C176	C	0.405264	0.194899	0.876464
	C177	C	0.624476	0.195040	0.129874
	C178	C	0.404768	0.829146	0.129162
	C179	C	0.623691	0.826973	0.878865
	C180	C	0.404981	0.886976	0.186693
	C181	C	0.624339	0.138002	0.188044
	C182	C	0.405263	0.136662	0.819581
	C183	C	0.624183	0.885025	0.821508
	C184	C	0.887871	0.195245	0.395146
	C185	C	0.142468	0.196432	0.612411
	C186	C	0.139387	0.828043	0.394527
	C187	C	0.888028	0.826279	0.612367
	C188	C	0.197868	0.400815	0.878368
	C189	C	0.197791	0.619791	0.129055
	C190	C	0.831136	0.400170	0.129119
	C191	C	0.828686	0.618180	0.877505
	C192	C	0.421056	0.100946	0.598613
	C193	C	0.609984	0.921050	0.600021
	C194	C	0.609181	0.102447	0.408720
	C195	C	0.419795	0.921492	0.408428
	C196	C	0.608609	0.415448	0.094187
	C197	C	0.607765	0.605915	0.913798
	C198	C	0.418719	0.607482	0.094987
	C199	C	0.420116	0.415578	0.913770
	C200	C	0.106362	0.605488	0.408516
	C201	C	0.923754	0.605175	0.598062
	C202	C	0.104449	0.417667	0.597685
	C203	C	0.923946	0.415730	0.408394
	C204	C	0.920101	0.599463	0.098310
	C205	C	0.109780	0.419727	0.099511
	C206	C	0.108933	0.600383	0.908572
	C207	C	0.920234	0.420064	0.908690
	C208	C	0.109343	0.914445	0.594905
	C209	C	0.107784	0.105931	0.414465
	C210	C	0.922276	0.105920	0.593768
	C211	C	0.919130	0.914556	0.413134
	C212	C	0.605243	0.105309	0.910915
	C213	C	0.423951	0.105719	0.097918
	C214	C	0.606689	0.915122	0.100190
	C215	C	0.423759	0.916999	0.909906
	Zn216	Zn	0.515366	0.011274	0.754703
	Zn217	Zn	0.514493	0.012299	0.253406
	Zn218	Zn	0.764119	0.509441	0.004263
	Zn219	Zn	0.264605	0.510421	0.004056
	Zn220	Zn	0.014336	0.759939	0.502973
	Zn221	Zn	0.014332	0.261771	0.504170
	Zn222	Zn	0.014230	0.510424	0.753479
	Zn223	Zn	0.014739	0.509702	0.254037
	Zn224	Zn	0.514299	0.761401	0.004593
	Zn225	Zn	0.514258	0.260570	0.003653
	Zn226	Zn	0.765060	0.011919	0.504425
	Zn227	Zn	0.264211	0.011137	0.504514
	N228	N	0.427113	0.976240	0.685467
	N229	N	0.605542	0.045064	0.688037
	N230	N	0.603045	0.977639	0.322177
	N231	N	0.425684	0.046397	0.322022
	N232	N	0.694920	0.422453	0.969057
	N233	N	0.694551	0.597100	0.039181
	N234	N	0.333850	0.598140	0.968787
	N235	N	0.335143	0.424099	0.039632
	N236	N	0.979562	0.689915	0.415842
	N237	N	0.049700	0.691258	0.591569
	N238	N	0.979360	0.330575	0.591193
	N239	N	0.048937	0.328299	0.414521
	N240	N	0.979048	0.423382	0.683821
	N241	N	0.049241	0.599340	0.685750
	N242	N	0.980237	0.597533	0.322666
	N243	N	0.050091	0.422204	0.323120
	N244	N	0.424133	0.694285	0.970334
	N245	N	0.602453	0.691543	0.039058
	N246	N	0.602551	0.329232	0.969145
	N247	N	0.425390	0.328125	0.038278
	N248	N	0.694558	0.976688	0.417467
	N249	N	0.696755	0.046004	0.593027
	N250	N	0.334509	0.975649	0.591402
	N251	N	0.332302	0.046121	0.415584
	N252	N	0.926819	0.474798	0.184687
	N253	N	0.103860	0.544635	0.186058
	N254	N	0.103423	0.476008	0.821489
	N255	N	0.925112	0.544636	0.821708
	N256	N	0.194484	0.923625	0.469133
	N257	N	0.194737	0.098387	0.539609
	N258	N	0.835008	0.098302	0.468668
	N259	N	0.834210	0.923646	0.539117
	N260	N	0.479708	0.192315	0.915032
	N261	N	0.550027	0.191751	0.091193
	N262	N	0.479741	0.830943	0.091960
	N263	N	0.549139	0.829950	0.916622
	N264	N	0.480147	0.923669	0.185180
	N265	N	0.549837	0.099826	0.184910
	N266	N	0.479764	0.098311	0.823680
	N267	N	0.549881	0.923665	0.824266
	N268	N	0.926521	0.192682	0.469156
	N269	N	0.104358	0.194248	0.538143
	N270	N	0.102507	0.829106	0.469282
	N271	N	0.925109	0.827890	0.537766
	N272	N	0.194996	0.474810	0.916449
	N273	N	0.194898	0.545692	0.090914
	N274	N	0.834558	0.473708	0.090289
	N275	N	0.832888	0.544576	0.916219
	O276	O	0.483355	0.616887	0.683035
	H277	H	0.471798	0.606131	0.694345
	H278	H	0.475020	0.585859	0.681652
	O279	O	0.803459	-0.201416	1.026370
	H280	H	0.774958	-0.221103	1.023891
	H281	H	0.815230	-0.200376	1.019582
	O282	O	0.534582	0.294498	0.292145
	H283	H	0.532474	0.275502	0.281465
	H284	H	0.538701	0.300471	0.287013
	O285	O	0.499830	0.670777	0.522007
	H286	H	0.494292	0.687118	0.542602
	H287	H	0.504072	0.668875	0.518229
	O288	O	1.224516	1.028605	0.209372
	H289	H	1.230403	1.045336	0.219915
	H290	H	1.213923	1.014850	0.223194
	O291	O	0.723421	0.299607	0.487564
	H292	H	0.727981	0.293710	0.467381
	H293	H	0.740443	0.296925	0.492579
	O294	O	0.061292	-0.045218	1.215349
	H295	H	0.060998	-0.044717	1.216206
	H296	H	0.031212	-0.040649	1.213513
	O297	O	0.294662	0.729860	0.482718
	H298	H	0.270899	0.751937	0.464673
	H299	H	0.291703	0.729226	0.444569
	O300	O	1.123197	1.023537	1.018464
	H301	H	1.127377	1.045467	1.010764
	H302	H	1.105565	1.027341	1.009823
	O303	O	0.351315	0.468688	0.413747
	H304	H	0.346942	0.477398	0.405220
	H305	H	0.358223	0.465569	0.408913
	O306	O	0.559921	0.342218	0.724371
	H307	H	0.564739	0.319957	0.751669
	H308	H	0.528446	0.350098	0.707484
	O309	O	0.501514	0.466047	0.290733
	H310	H	0.512068	0.467069	0.299639
	H311	H	0.504707	0.470630	0.295198
	O312	O	-0.127081	1.129280	1.062755
	H313	H	-0.135270	1.150278	1.055565
	H314	H	-0.115511	1.122956	1.081091
	O315	O	0.692297	0.336601	0.330088
	H316	H	0.658996	0.331908	0.333963
	H317	H	0.702286	0.365977	0.339361
	O318	O	0.962211	-0.204970	-0.051929
	H319	H	0.953031	-0.208126	-0.059214
	H320	H	0.981864	-0.191777	-0.040283
	O321	O	-0.076713	-0.080374	-0.198746
	H322	H	-0.064597	-0.109574	-0.202417
	H323	H	-0.081547	-0.079560	-0.178414
	O324	O	0.667963	0.481330	0.601231
	H325	H	0.649042	0.475930	0.594512
	H326	H	0.661671	0.497751	0.608708
	O327	O	0.301207	0.297218	0.521164
	H328	H	0.296083	0.276291	0.511444
	H329	H	0.292273	0.299190	0.517948
	O330	O	-0.193155	1.050751	-0.091228
	H331	H	-0.213823	1.056008	-0.109250
	H332	H	-0.177884	1.026351	-0.081432
	O333	O	0.724654	0.562001	0.481122
	H334	H	0.721347	0.580239	0.500590
	H335	H	0.716861	0.569488	0.483099
	O336	O	-0.889235	-0.132897	0.995378
	H337	H	-0.895849	-0.124700	0.965247
	H338	H	-0.870225	-0.129107	0.991973
	O339	O	0.035313	1.225601	1.218888
	H340	H	0.016600	1.218133	1.227949
	H341	H	0.024333	1.238172	1.238285
	O342	O	0.086921	0.808773	1.137639
	H343	H	0.102885	0.811489	1.113640
	H344	H	0.081544	0.833630	1.124893
	O345	O	1.029675	0.793019	-0.209990
	H346	H	1.036193	0.759409	-0.239811
	H347	H	1.053638	0.795567	-0.185284
	O348	O	0.456281	0.297580	0.443669
	H349	H	0.474732	0.298820	0.451091
	H350	H	0.453642	0.300254	0.439889
	O351	O	0.541882	0.552483	0.625538
	H352	H	0.549789	0.547791	0.623737
	H353	H	0.535154	0.535243	0.622501
	O354	O	-0.112144	0.963216	-0.076129
	H355	H	-0.121065	0.969830	-0.062620
	H356	H	-0.121162	0.928695	-0.066837
	O357	O	-0.168976	-0.166268	1.188669
	H358	H	-0.138998	-0.187334	1.205038
	H359	H	-0.162623	-0.179767	1.152456
	O360	O	0.327452	0.700268	0.322617
	H361	H	0.381623	0.708062	0.311410
	H362	H	0.310582	0.673991	0.301113
	O363	O	0.218632	-0.134316	1.015413
	H364	H	0.227241	-0.109386	1.035671
	H365	H	0.239903	-0.144100	1.019685
	O366	O	0.156768	0.028984	-0.206445
	H367	H	0.145697	0.063434	-0.212622
	H368	H	0.141768	0.022394	-0.209693
	O369	O	0.529701	0.525999	0.359489
	H370	H	0.527384	0.547311	0.363997
	H371	H	0.542067	0.538153	0.358712
	O372	O	1.133496	0.023904	0.834808
	H373	H	1.114905	0.033400	0.826215
	H374	H	1.125721	0.038118	0.827356
	O375	O	0.348980	0.338473	0.675932
	H376	H	0.356450	0.363865	0.689105
	H377	H	0.342546	0.332892	0.627697
	O378	O	0.659269	0.702677	0.693791
	H379	H	0.634945	0.687491	0.693457
	H380	H	0.645781	0.693704	0.706307
	O381	O	0.301714	0.514196	0.578502
	H382	H	0.299252	0.525670	0.575902
	H383	H	0.286669	0.514398	0.583106
	O384	O	0.305849	0.534423	0.293941
	H385	H	0.283086	0.529007	0.290776
	H386	H	0.312314	0.526984	0.281314
	O387	O	0.231401	0.209859	1.012787
	H388	H	0.226623	0.186667	1.038505
	H389	H	0.266079	0.235830	1.016717
	O390	O	0.003473	0.227247	0.009804
	H391	H	0.032001	0.228252	0.018214
	H392	H	0.017107	0.221842	0.006851
	O393	O	1.195268	1.189561	1.179502
	H394	H	1.153123	1.202227	1.182968
	H395	H	1.194479	1.161413	1.178145
	O396	O	0.618263	-0.294386	0.385088
	H397	H	0.624985	-0.302986	0.406520
	H398	H	0.609865	-0.294521	0.414250
	O399	O	0.727338	-0.273385	0.565848
	H400	H	0.756806	-0.239642	0.577303
	H401	H	0.710873	-0.287836	0.607090
	O402	O	0.844357	1.183881	0.827421
	H403	H	0.833294	1.135438	0.818133
	H404	H	0.837932	1.195967	0.870110
	O405	O	1.002560	1.216567	-0.211166
	H406	H	0.982083	1.231276	-0.219468
	H407	H	0.978360	1.220274	-0.213679
	O408	O	1.022287	-0.195408	0.157143
	H409	H	1.052922	-0.207918	0.122292
	H410	H	1.022890	-0.199951	0.174748
	O411	O	0.806026	1.222516	-0.016899
	H412	H	0.819276	1.227345	-0.004003
	H413	H	0.799173	1.251343	-0.013329
	O414	O	-0.201349	-0.006690	0.224594
	H415	H	-0.225968	-0.024855	0.249400
	H416	H	-0.200850	-0.045176	0.220159
	O417	O	0.508604	0.491779	0.540954
	H418	H	0.499987	0.494068	0.558203
	H419	H	0.509985	0.509632	0.538144
	O420	O	-0.045677	0.076739	0.213992
	H421	H	-0.084305	0.059707	0.226063
	H422	H	-0.041531	0.079414	0.186356
	O423	O	0.440074	0.688103	0.601110
	H424	H	0.414614	0.688333	0.603365
	H425	H	0.434969	0.694590	0.632920
	O426	O	0.681029	0.574081	0.659511
	H427	H	0.670104	0.560174	0.659394
	H428	H	0.699603	0.564490	0.680039
	O429	O	0.589645	0.333628	0.614797
	H430	H	0.628606	0.334612	0.598677
	H431	H	0.572067	0.334148	0.631176
	O432	O	0.709223	0.500392	0.330635
	H433	H	0.706867	0.511246	0.347506
	H434	H	0.712268	0.498507	0.335355
	O435	O	0.484255	0.721425	0.353084
	H436	H	0.491647	0.736440	0.340031
	H437	H	0.495079	0.727147	0.372198
	O438	O	-0.194361	-0.031334	-0.114999
	H439	H	-0.208157	-0.029717	-0.116652
	H440	H	-0.196981	-0.019326	-0.104516
	O441	O	1.142826	0.162427	-0.061974
	H442	H	1.154917	0.154810	-0.068262
	H443	H	1.139404	0.180692	-0.077008
	O444	O	0.190483	0.828170	0.825054
	H445	H	0.182349	0.851587	0.818391
	H446	H	0.202893	0.848871	0.847837
	O447	O	0.137779	1.016661	0.025143
	H448	H	0.136327	1.016763	0.020661
	H449	H	0.135903	1.025788	0.033822
	O450	O	0.334023	0.525223	0.716052
	H451	H	0.315074	0.526185	0.713572
	H452	H	0.337549	0.502578	0.714862
	O453	O	0.532335	0.429366	0.576547
	H454	H	0.525823	0.427819	0.570809
	H455	H	0.531268	0.422686	0.576814
