data_Molecule from HDF5

_cell_length_a		16.165513
_cell_length_b		16.416735
_cell_length_c		16.399297
_cell_angle_alpha	90.003992
_cell_angle_beta	90.541272
_cell_angle_gamma	90.121148
_symmetry_space_group_name_H-M	'P 1'
_symmetry_Int_Tables_number		1

loop_
	_symmetry_equiv_pos_as_xyz
	x,y,z

loop_
	_atom_site_label
	_atom_site_type_symbol
	_atom_site_fract_x
	_atom_site_fract_y
	_atom_site_fract_z
	H0	H	0.398492	0.835875	0.716511
	H1	H	0.605784	0.157453	0.718522
	H2	H	0.603010	0.836637	0.279394
	H3	H	0.396652	0.157239	0.278345
	H4	H	0.712851	0.396680	0.835566
	H5	H	0.717852	0.596569	0.159033
	H6	H	0.280111	0.594562	0.835909
	H7	H	0.285248	0.396333	0.160566
	H8	H	0.836627	0.714428	0.395355
	H9	H	0.162401	0.714495	0.602229
	H10	H	0.836940	0.279540	0.596380
	H11	H	0.163770	0.282366	0.397540
	H12	H	0.835541	0.395704	0.710728
	H13	H	0.161601	0.598574	0.716919
	H14	H	0.836282	0.598380	0.279212
	H15	H	0.163939	0.398422	0.283868
	H16	H	0.392564	0.716056	0.837206
	H17	H	0.604974	0.716410	0.157877
	H18	H	0.600314	0.276152	0.837822
	H19	H	0.395279	0.276393	0.158254
	H20	H	0.715069	0.834342	0.400856
	H21	H	0.717955	0.159094	0.598635
	H22	H	0.283277	0.835253	0.598553
	H23	H	0.284763	0.159442	0.398716
	H24	H	0.895707	0.336380	0.216186
	H25	H	0.103137	0.656882	0.216531
	H26	H	0.100132	0.335842	0.779261
	H27	H	0.893607	0.656913	0.777053
	H28	H	0.213269	0.900222	0.336020
	H29	H	0.217575	0.095274	0.661067
	H30	H	0.782970	0.095321	0.336331
	H31	H	0.785613	0.897599	0.661229
	H32	H	0.335068	0.210377	0.896024
	H33	H	0.661108	0.214872	0.102481
	H34	H	0.334950	0.780105	0.097090
	H35	H	0.662113	0.778210	0.897205
	H36	H	0.336020	0.895208	0.214180
	H37	H	0.663089	0.096895	0.214115
	H38	H	0.336594	0.096084	0.780020
	H39	H	0.664043	0.895627	0.785129
	H40	H	0.897645	0.213699	0.336569
	H41	H	0.105584	0.216362	0.659435
	H42	H	0.103143	0.778429	0.337843
	H43	H	0.895946	0.776664	0.658724
	H44	H	0.211410	0.333042	0.900818
	H45	H	0.216778	0.657441	0.098487
	H46	H	0.783031	0.334858	0.096638
	H47	H	0.781789	0.658604	0.897455
	H48	H	0.408453	0.114084	0.598252
	H49	H	0.589934	0.883783	0.591885
	H50	H	0.590993	0.112070	0.402617
	H51	H	0.411434	0.883704	0.407212
	H52	H	0.590643	0.399284	0.114154
	H53	H	0.602282	0.592893	0.877562
	H54	H	0.405749	0.582545	0.110997
	H55	H	0.396946	0.399900	0.879098
	H56	H	0.113008	0.587369	0.414383
	H57	H	0.882264	0.590071	0.586361
	H58	H	0.115586	0.408245	0.591536
	H59	H	0.884492	0.411341	0.401818
	H60	H	0.116828	0.405360	0.591104
	H61	H	0.884440	0.586543	0.583975
	H62	H	0.115946	0.583747	0.403544
	H63	H	0.880413	0.399787	0.402296
	H64	H	0.417818	0.587406	0.109014
	H65	H	0.584896	0.573932	0.889773
	H66	H	0.594615	0.408855	0.111973
	H67	H	0.406739	0.410658	0.885950
	H68	H	0.587763	0.109759	0.408135
	H69	H	0.594118	0.882580	0.589813
	H70	H	0.419698	0.108485	0.589840
	H71	H	0.403831	0.881516	0.407454
	H72	H	0.905454	0.610404	0.081806
	H73	H	0.087280	0.382441	0.093460
	H74	H	0.092160	0.610536	0.909399
	H75	H	0.907197	0.382307	0.905564
	H76	H	0.091979	0.909364	0.611937
	H77	H	0.092785	0.093186	0.382135
	H78	H	0.909731	0.087171	0.612768
	H79	H	0.908136	0.904422	0.384434
	H80	H	0.614626	0.093184	0.917630
	H81	H	0.383260	0.087252	0.084653
	H82	H	0.619799	0.899912	0.098756
	H83	H	0.383597	0.905696	0.907143
	H84	H	0.613804	0.900879	0.079318
	H85	H	0.382460	0.083880	0.091339
	H86	H	0.613659	0.079081	0.909609
	H87	H	0.384374	0.906783	0.906986
	H88	H	0.915083	0.089833	0.611366
	H89	H	0.092579	0.088399	0.383747
	H90	H	0.087415	0.903588	0.612055
	H91	H	0.907957	0.905746	0.384026
	H92	H	0.088062	0.611081	0.904177
	H93	H	0.091379	0.380978	0.089718
	H94	H	0.905591	0.614430	0.095491
	H95	H	0.903642	0.381330	0.903410
	H96	H	0.405575	0.110630	0.583971
	H97	H	0.592922	0.880785	0.594458
	H98	H	0.594319	0.111971	0.408190
	H99	H	0.408018	0.881900	0.401420
	H100	H	0.583660	0.407201	0.109986
	H101	H	0.575324	0.599423	0.883844
	H102	H	0.407831	0.595328	0.114332
	H103	H	0.412393	0.395896	0.883158
	H104	H	0.118071	0.594955	0.406674
	H105	H	0.883614	0.585589	0.588957
	H106	H	0.115883	0.406907	0.589284
	H107	H	0.885529	0.404927	0.412684
	H108	H	0.917672	0.608573	0.090343
	H109	H	0.092527	0.379906	0.095171
	H110	H	0.085802	0.608639	0.909690
	H111	H	0.907202	0.381553	0.901851
	H112	H	0.095151	0.903017	0.614575
	H113	H	0.089186	0.091238	0.384905
	H114	H	0.910694	0.092876	0.614669
	H115	H	0.908594	0.905466	0.385102
	H116	H	0.618818	0.092540	0.902283
	H117	H	0.380950	0.091156	0.089742
	H118	H	0.611444	0.917187	0.091139
	H119	H	0.382672	0.906632	0.905621
	C120	C	0.380141	0.004613	0.620215
	C121	C	0.623259	0.988899	0.621694
	C122	C	0.621275	0.004858	0.377155
	C123	C	0.377816	0.988959	0.375787
	C124	C	0.619482	0.374773	0.005940
	C125	C	0.620035	0.618880	0.989370
	C126	C	0.377583	0.618138	0.005424
	C127	C	0.376368	0.373253	0.989496
	C128	C	0.007879	0.618871	0.376919
	C129	C	0.990406	0.618426	0.619015
	C130	C	0.008024	0.376173	0.618800
	C131	C	0.991575	0.376246	0.376619
	C132	C	0.878499	0.505023	0.119110
	C133	C	0.121849	0.487495	0.121976
	C134	C	0.118752	0.503795	0.877750
	C135	C	0.875908	0.488290	0.874232
	C136	C	0.121336	0.875832	0.506406
	C137	C	0.123042	0.120583	0.490048
	C138	C	0.879761	0.118838	0.506330
	C139	C	0.878415	0.875483	0.490881
	C140	C	0.508049	0.117795	0.877945
	C141	C	0.490299	0.117428	0.119232
	C142	C	0.507175	0.875462	0.119002
	C143	C	0.491488	0.875856	0.877503
	C144	C	0.379638	0.883776	0.677455
	C145	C	0.624719	0.109472	0.679556
	C146	C	0.621863	0.884132	0.319335
	C147	C	0.377759	0.109528	0.318010
	C148	C	0.675206	0.375864	0.884197
	C149	C	0.679312	0.617742	0.110623
	C150	C	0.318855	0.615580	0.884273
	C151	C	0.322243	0.375869	0.111713
	C152	C	0.885198	0.675701	0.376260
	C153	C	0.113396	0.675718	0.620804
	C154	C	0.885609	0.318527	0.616413
	C155	C	0.114777	0.320231	0.377916
	C156	C	0.884743	0.376241	0.673468
	C157	C	0.112855	0.618411	0.678367
	C158	C	0.885152	0.618002	0.318515
	C159	C	0.114955	0.377873	0.321323
	C160	C	0.374934	0.675864	0.884834
	C161	C	0.622930	0.677124	0.109855
	C162	C	0.619200	0.316121	0.885439
	C163	C	0.376871	0.315974	0.110510
	C164	C	0.677503	0.883067	0.379793
	C165	C	0.680360	0.110308	0.619673
	C166	C	0.322158	0.883603	0.618637
	C167	C	0.322175	0.110750	0.377956
	C168	C	0.877124	0.384421	0.176870
	C169	C	0.122150	0.608850	0.178028
	C170	C	0.118588	0.383217	0.819706
	C171	C	0.875179	0.609144	0.816781
	C172	C	0.176170	0.878792	0.384733
	C173	C	0.179778	0.116984	0.612311
	C174	C	0.821555	0.116233	0.384831
	C175	C	0.823119	0.877232	0.612696
	C176	C	0.384393	0.172717	0.876870
	C177	C	0.612694	0.175108	0.120207
	C178	C	0.384022	0.818532	0.117396
	C179	C	0.613786	0.817841	0.878375
	C180	C	0.384421	0.875774	0.175512
	C181	C	0.613702	0.116461	0.176060
	C182	C	0.385392	0.116137	0.819012
	C183	C	0.614807	0.876288	0.822658
	C184	C	0.878747	0.175058	0.384896
	C185	C	0.124041	0.177204	0.611352
	C186	C	0.121351	0.818266	0.385761
	C187	C	0.878160	0.817031	0.611200
	C188	C	0.174106	0.381841	0.879970
	C189	C	0.178762	0.608932	0.119296
	C190	C	0.820930	0.383688	0.117225
	C191	C	0.819273	0.609911	0.876372
	C192	C	0.404295	0.089218	0.597438
	C193	C	0.599243	0.904378	0.598842
	C194	C	0.597897	0.089235	0.399786
	C195	C	0.401009	0.904340	0.398810
	C196	C	0.596560	0.398152	0.090176
	C197	C	0.594879	0.595454	0.905439
	C198	C	0.403138	0.595075	0.089689
	C199	C	0.398904	0.395691	0.904684
	C200	C	0.093373	0.595600	0.401143
	C201	C	0.905492	0.594367	0.593957
	C202	C	0.093883	0.400083	0.597105
	C203	C	0.905858	0.398768	0.398950
	C204	C	0.902583	0.589373	0.096061
	C205	C	0.097414	0.403068	0.099409
	C206	C	0.095295	0.588170	0.900889
	C207	C	0.899143	0.403630	0.897049
	C208	C	0.098293	0.898709	0.590782
	C209	C	0.098598	0.097805	0.405564
	C210	C	0.904463	0.096496	0.590910
	C211	C	0.901344	0.898496	0.406507
	C212	C	0.593594	0.094911	0.902641
	C213	C	0.404464	0.094056	0.095500
	C214	C	0.592813	0.898994	0.096372
	C215	C	0.405775	0.899442	0.899926
	Zn216	Zn	0.501540	-0.003033	0.750245
	Zn217	Zn	0.499660	-0.003346	0.247445
	Zn218	Zn	0.748704	0.496316	-0.002845
	Zn219	Zn	0.248575	0.494955	-0.001264
	Zn220	Zn	-0.000227	0.746501	0.498287
	Zn221	Zn	0.000965	0.248966	0.497706
	Zn222	Zn	-0.001872	0.496965	0.746963
	Zn223	Zn	-0.000345	0.497051	0.249526
	Zn224	Zn	0.498824	0.748302	-0.002610
	Zn225	Zn	0.497739	0.245394	-0.001673
	Zn226	Zn	0.750486	-0.003068	0.499264
	Zn227	Zn	0.250536	-0.002522	0.498709
	N228	N	0.414985	0.960187	0.678324
	N229	N	0.590020	0.033018	0.681002
	N230	N	0.587581	0.960660	0.317687
	N231	N	0.411648	0.032755	0.316661
	N232	N	0.675609	0.411688	0.959959
	N233	N	0.677780	0.582214	0.034841
	N234	N	0.320411	0.580297	0.960348
	N235	N	0.321662	0.410669	0.035469
	N236	N	0.962539	0.676360	0.411604
	N237	N	0.036262	0.675916	0.584550
	N238	N	0.963394	0.318468	0.583306
	N239	N	0.037178	0.318944	0.411406
	N240	N	0.961968	0.411415	0.675144
	N241	N	0.035516	0.583499	0.677406
	N242	N	0.962548	0.583453	0.318852
	N243	N	0.037252	0.411857	0.320126
	N244	N	0.410870	0.677418	0.961202
	N245	N	0.586968	0.678063	0.033508
	N246	N	0.585256	0.315319	0.962087
	N247	N	0.409772	0.314031	0.033422
	N248	N	0.677210	0.959108	0.415096
	N249	N	0.679762	0.034182	0.584731
	N250	N	0.322580	0.959736	0.583642
	N251	N	0.321987	0.034661	0.413120
	N252	N	0.912167	0.460972	0.178243
	N253	N	0.087368	0.532360	0.179645
	N254	N	0.084911	0.460101	0.818108
	N255	N	0.909225	0.532435	0.815128
	N256	N	0.176433	0.913795	0.460819
	N257	N	0.179345	0.082508	0.535868
	N258	N	0.822145	0.081861	0.461286
	N259	N	0.823099	0.912821	0.536902
	N260	N	0.461610	0.173811	0.912777
	N261	N	0.534957	0.175909	0.085427
	N262	N	0.461482	0.818137	0.083385
	N263	N	0.535936	0.817407	0.911530
	N264	N	0.462055	0.910192	0.176807
	N265	N	0.536520	0.081378	0.175598
	N266	N	0.463526	0.082877	0.819337
	N267	N	0.537667	0.911617	0.821876
	N268	N	0.914242	0.176715	0.461360
	N269	N	0.089474	0.179404	0.534342
	N270	N	0.087701	0.816414	0.462471
	N271	N	0.912076	0.815963	0.534504
	N272	N	0.174105	0.457672	0.915596
	N273	N	0.178880	0.532365	0.085417
	N274	N	0.821640	0.459659	0.081845
	N275	N	0.819421	0.533671	0.911295
	O276	O	-0.137979	0.063472	0.009406
	H277	H	-0.147429	0.067927	0.011553
	H278	H	-0.150624	0.069197	0.007194
	O279	O	0.404465	0.458869	0.332665
	H280	H	0.404886	0.460002	0.321732
	H281	H	0.402028	0.461629	0.340998
	O282	O	1.522096	0.508208	0.376603
	H283	H	1.490322	0.506619	0.380370
	H284	H	1.527163	0.530838	0.362326
	O285	O	-0.084111	0.820047	0.035160
	H286	H	-0.105612	0.820489	0.042281
	H287	H	-0.084517	0.809791	0.040206
	O288	O	0.653315	0.517137	0.509361
	H289	H	0.651022	0.523032	0.505949
	H290	H	0.661026	0.522687	0.505148
	O291	O	0.331504	0.411153	0.606891
	H292	H	0.331988	0.404783	0.596066
	H293	H	0.348941	0.413591	0.615915
	O294	O	1.081179	0.933577	0.914922
	H295	H	1.089572	0.929462	0.928932
	H296	H	1.080013	0.937342	0.901941
	O297	O	0.023153	-0.012810	0.174971
	H298	H	0.020709	0.000012	0.181295
	H299	H	0.033529	-0.021056	0.184578
	O300	O	0.550095	0.603667	0.362438
	H301	H	0.528658	0.609353	0.365001
	H302	H	0.543431	0.616170	0.351785
	O303	O	0.039749	0.976761	1.002147
	H304	H	0.039443	0.973893	1.014132
	H305	H	0.040256	0.978097	1.010142
	O306	O	0.619554	0.590393	0.680687
	H307	H	0.608082	0.609578	0.672501
	H308	H	0.634702	0.584716	0.688194
	O309	O	0.978343	0.117866	-0.101892
	H310	H	0.980373	0.116145	-0.101800
	H311	H	0.979534	0.121062	-0.113391
	O312	O	-0.139336	-0.012889	0.970136
	H313	H	-0.146777	-0.002781	0.975381
	H314	H	-0.135901	-0.017553	0.969575
	O315	O	0.422419	0.636382	0.528448
	H316	H	0.420286	0.629047	0.531092
	H317	H	0.419858	0.631530	0.540212
	O318	O	0.504288	0.572126	0.569944
	H319	H	0.515279	0.572707	0.572570
	H320	H	0.493884	0.558865	0.562591
	O321	O	0.556686	0.365127	0.312685
	H322	H	0.557338	0.368421	0.309504
	H323	H	0.574069	0.358685	0.323689
	O324	O	0.324059	0.634786	0.342646
	H325	H	0.319515	0.636250	0.364537
	H326	H	0.318886	0.614626	0.350508
	O327	O	-0.021139	1.019899	1.118595
	H328	H	-0.023281	1.003133	1.122384
	H329	H	-0.021762	1.027527	1.118775
	O330	O	0.481948	0.511155	0.586376
	H331	H	0.490735	0.509174	0.579599
	H332	H	0.483229	0.511747	0.586936
	O333	O	0.005934	1.057144	1.125698
	H334	H	0.002989	1.056425	1.141780
	H335	H	0.029934	1.063620	1.130603
	O336	O	0.963553	0.902237	0.981773
	H337	H	0.960907	0.897925	0.981218
	H338	H	0.955603	0.886336	0.985977
	O339	O	0.582286	0.624934	0.630101
	H340	H	0.592686	0.627648	0.627187
	H341	H	0.578992	0.618402	0.638737
	O342	O	0.918713	0.133570	-0.127693
	H343	H	0.920490	0.131691	-0.139612
	H344	H	0.923141	0.133381	-0.126016
	O345	O	0.441026	0.614794	0.480736
	H346	H	0.432391	0.616887	0.495584
	H347	H	0.446154	0.615800	0.490562
	O348	O	1.021645	1.056922	1.111717
	H349	H	1.034554	1.065719	1.107708
	H350	H	1.026513	1.050061	1.098021
	O351	O	1.010151	0.995946	-0.061707
	H352	H	1.010534	1.008869	-0.068187
	H353	H	0.999700	0.983590	-0.068240
	O354	O	0.585188	0.459243	0.490903
	H355	H	0.582048	0.458901	0.475078
	H356	H	0.574544	0.455264	0.490810
	O357	O	0.097477	0.019964	0.077307
	H358	H	0.094528	0.029441	0.086460
	H359	H	0.093873	0.009611	0.058023
	O360	O	0.022902	0.029732	0.049930
	H361	H	0.006521	0.033122	0.037269
	H362	H	0.022374	0.035923	0.052284
	O363	O	0.518461	0.551872	0.502807
	H364	H	0.512199	0.558108	0.509102
	H365	H	0.519076	0.559280	0.494663
	O366	O	0.378556	0.412126	0.388488
	H367	H	0.364163	0.414997	0.377012
	H368	H	0.396497	0.404497	0.385221
	O369	O	0.462076	0.507040	0.557698
	H370	H	0.474521	0.504763	0.556074
	H371	H	0.452043	0.503952	0.558295
	O372	O	0.569814	0.459604	0.451797
	H373	H	0.580325	0.467383	0.440098
	H374	H	0.557757	0.459051	0.448957
	O375	O	0.644201	0.464818	0.524108
	H376	H	0.644461	0.470291	0.527904
	H377	H	0.651747	0.473564	0.517594
	O378	O	0.532244	0.399039	0.615983
	H379	H	0.532028	0.400154	0.602669
	H380	H	0.543993	0.404318	0.629939
	O381	O	0.554750	0.312727	0.548993
	H382	H	0.566452	0.317327	0.558539
	H383	H	0.548775	0.310378	0.544709
	O384	O	0.131094	0.932964	-0.116662
	H385	H	0.123170	0.925907	-0.108192
	H386	H	0.140365	0.945005	-0.112546
	O387	O	0.959950	-0.045380	0.935129
	H388	H	0.957721	-0.044852	0.934037
	H389	H	0.969121	-0.043046	0.947178
	O390	O	-0.010044	1.100404	-0.091846
	H391	H	-0.009890	1.094142	-0.096466
	H392	H	-0.015585	1.100625	-0.096055
	O393	O	0.951379	0.911352	-0.178357
	H394	H	0.959040	0.918405	-0.176714
	H395	H	0.961321	0.900130	-0.184095
	O396	O	0.340697	0.479186	0.537524
	H397	H	0.334904	0.485787	0.542277
	H398	H	0.330935	0.465717	0.532892
	O399	O	0.110109	0.994306	1.096152
	H400	H	0.103837	0.996202	1.096849
	H401	H	0.097807	0.989802	1.091315
	O402	O	0.976239	0.965113	1.033527
	H403	H	0.981000	0.975769	1.031460
	H404	H	0.979426	0.966021	1.032840
	O405	O	0.450443	0.498361	0.466950
	H406	H	0.457906	0.483495	0.480186
	H407	H	0.451533	0.497627	0.466261
