data_Molecule from HDF5

_cell_length_a		16.345014
_cell_length_b		16.296730
_cell_length_c		16.284725
_cell_angle_alpha	90.046223
_cell_angle_beta	89.987752
_cell_angle_gamma	89.927848
_symmetry_space_group_name_H-M	'P 1'
_symmetry_Int_Tables_number		1

loop_
	_symmetry_equiv_pos_as_xyz
	x,y,z

loop_
	_atom_site_label
	_atom_site_type_symbol
	_atom_site_fract_x
	_atom_site_fract_y
	_atom_site_fract_z
	H0	H	0.404743	0.840171	0.699926
	H1	H	0.602011	0.167273	0.703029
	H2	H	0.600214	0.840778	0.272476
	H3	H	0.402390	0.167501	0.271485
	H4	H	0.718221	0.404046	0.823950
	H5	H	0.717391	0.603658	0.150778
	H6	H	0.287122	0.604510	0.824330
	H7	H	0.286899	0.403784	0.150779
	H8	H	0.838811	0.719475	0.388082
	H9	H	0.165286	0.720164	0.587056
	H10	H	0.838885	0.291124	0.586828
	H11	H	0.165357	0.289204	0.389026
	H12	H	0.839853	0.407532	0.702148
	H13	H	0.165702	0.603553	0.702896
	H14	H	0.840531	0.605072	0.269613
	H15	H	0.166236	0.405727	0.272988
	H16	H	0.403890	0.718489	0.823261
	H17	H	0.600402	0.719620	0.150525
	H18	H	0.600970	0.289555	0.823349
	H19	H	0.404882	0.289787	0.150756
	H20	H	0.718423	0.841604	0.386643
	H21	H	0.716927	0.167534	0.586714
	H22	H	0.287231	0.841442	0.585456
	H23	H	0.286468	0.167840	0.387621
	H24	H	0.905312	0.341254	0.201336
	H25	H	0.102959	0.668126	0.203427
	H26	H	0.101933	0.341523	0.771932
	H27	H	0.905262	0.669035	0.774367
	H28	H	0.216524	0.905660	0.323905
	H29	H	0.218019	0.104379	0.650821
	H30	H	0.785721	0.105291	0.323927
	H31	H	0.786505	0.905946	0.650364
	H32	H	0.339372	0.220965	0.886198
	H33	H	0.665161	0.218376	0.085121
	H34	H	0.338432	0.789345	0.084549
	H35	H	0.664760	0.787810	0.886831
	H36	H	0.338903	0.904299	0.202565
	H37	H	0.664945	0.103283	0.201707
	H38	H	0.339057	0.102719	0.771233
	H39	H	0.664776	0.905348	0.771658
	H40	H	0.902821	0.220537	0.323673
	H41	H	0.098978	0.217871	0.651754
	H42	H	0.101799	0.789231	0.324227
	H43	H	0.903794	0.790929	0.650675
	H44	H	0.218961	0.342134	0.887375
	H45	H	0.218009	0.668390	0.086440
	H46	H	0.788772	0.340848	0.086584
	H47	H	0.787073	0.667678	0.888481
	H48	H	0.406343	0.120622	0.578597
	H49	H	0.600481	0.886650	0.579342
	H50	H	0.591350	0.122094	0.383256
	H51	H	0.413301	0.889539	0.392765
	H52	H	0.592655	0.403429	0.105027
	H53	H	0.593072	0.603366	0.869332
	H54	H	0.414634	0.594342	0.100988
	H55	H	0.406615	0.413545	0.870760
	H56	H	0.116644	0.595734	0.396689
	H57	H	0.884281	0.608754	0.577107
	H58	H	0.119885	0.404784	0.577932
	H59	H	0.887308	0.407130	0.399926
	H60	H	0.115691	0.416004	0.576177
	H61	H	0.890810	0.590234	0.573594
	H62	H	0.118640	0.597983	0.392382
	H63	H	0.889753	0.419420	0.395325
	H64	H	0.410473	0.603011	0.105100
	H65	H	0.603260	0.594943	0.869677
	H66	H	0.603958	0.413167	0.105087
	H67	H	0.412434	0.415187	0.872610
	H68	H	0.585332	0.114844	0.402062
	H69	H	0.590833	0.888647	0.582522
	H70	H	0.412002	0.120832	0.581855
	H71	H	0.406740	0.888940	0.399153
	H72	H	0.909761	0.620372	0.078106
	H73	H	0.094080	0.389046	0.081140
	H74	H	0.094788	0.622577	0.888606
	H75	H	0.909728	0.389246	0.899553
	H76	H	0.093634	0.910328	0.604200
	H77	H	0.099048	0.098812	0.369919
	H78	H	0.906846	0.097062	0.603399
	H79	H	0.910498	0.911090	0.371146
	H80	H	0.619800	0.100379	0.889420
	H81	H	0.384218	0.095089	0.087061
	H82	H	0.616122	0.907859	0.072201
	H83	H	0.388612	0.911948	0.901336
	H84	H	0.615261	0.918474	0.079606
	H85	H	0.385067	0.105211	0.075564
	H86	H	0.616339	0.098655	0.900366
	H87	H	0.386625	0.917240	0.888367
	H88	H	0.910440	0.096636	0.602059
	H89	H	0.093674	0.092796	0.372854
	H90	H	0.097503	0.913055	0.603862
	H91	H	0.908698	0.913100	0.370675
	H92	H	0.090225	0.617997	0.898493
	H93	H	0.095562	0.390053	0.077422
	H94	H	0.910029	0.621128	0.079478
	H95	H	0.906670	0.386648	0.891452
	H96	H	0.411256	0.118794	0.575752
	H97	H	0.593803	0.890877	0.573185
	H98	H	0.604943	0.122268	0.398930
	H99	H	0.404986	0.886853	0.390359
	H100	H	0.590939	0.417696	0.100062
	H101	H	0.591183	0.590850	0.874373
	H102	H	0.404455	0.595219	0.104007
	H103	H	0.410820	0.409699	0.871153
	H104	H	0.117797	0.600936	0.396914
	H105	H	0.884410	0.595129	0.592267
	H106	H	0.120382	0.412704	0.587014
	H107	H	0.884175	0.410348	0.387005
	H108	H	0.911243	0.619785	0.078548
	H109	H	0.098240	0.388470	0.080720
	H110	H	0.101762	0.622167	0.897855
	H111	H	0.914788	0.389732	0.892239
	H112	H	0.093873	0.914486	0.602000
	H113	H	0.090600	0.101032	0.371690
	H114	H	0.909343	0.100110	0.603612
	H115	H	0.911064	0.914168	0.372325
	H116	H	0.615692	0.090435	0.893409
	H117	H	0.389800	0.090908	0.073132
	H118	H	0.619578	0.907682	0.084445
	H119	H	0.383523	0.903753	0.890821
	C120	C	0.381278	0.012426	0.607380
	C121	C	0.623677	0.996352	0.607895
	C122	C	0.623378	0.012280	0.365233
	C123	C	0.379787	0.996240	0.364970
	C124	C	0.624517	0.382741	-0.004878
	C125	C	0.624088	0.625472	0.979041
	C126	C	0.381295	0.625847	-0.004666
	C127	C	0.381000	0.383276	0.979459
	C128	C	0.010334	0.626953	0.365781
	C129	C	0.994393	0.626630	0.609437
	C130	C	0.010742	0.383361	0.608932
	C131	C	0.994638	0.383380	0.365437
	C132	C	0.881290	0.512686	0.108631
	C133	C	0.124822	0.496740	0.108743
	C134	C	0.124329	0.513059	0.866077
	C135	C	0.881490	0.496659	0.866191
	C136	C	0.123546	0.883284	0.495465
	C137	C	0.123264	0.126184	0.479359
	C138	C	0.879902	0.126807	0.495310
	C139	C	0.880607	0.883747	0.479074
	C140	C	0.509872	0.125807	0.864869
	C141	C	0.493759	0.125903	0.108106
	C142	C	0.509616	0.882285	0.107908
	C143	C	0.493727	0.882414	0.864641
	C144	C	0.383897	0.889223	0.662649
	C145	C	0.621757	0.118687	0.664495
	C146	C	0.621275	0.889789	0.309725
	C147	C	0.382156	0.118894	0.309550
	C148	C	0.680280	0.384351	0.872643
	C149	C	0.679005	0.623595	0.102091
	C150	C	0.325535	0.624104	0.872718
	C151	C	0.325602	0.384567	0.102072
	C152	C	0.887884	0.682299	0.367205
	C153	C	0.116687	0.682022	0.607248
	C154	C	0.887956	0.328552	0.606921
	C155	C	0.117077	0.327377	0.367995
	C156	C	0.888324	0.386151	0.664581
	C157	C	0.117086	0.624056	0.664790
	C158	C	0.888470	0.625090	0.308850
	C159	C	0.117395	0.385825	0.310785
	C160	C	0.383749	0.680630	0.872151
	C161	C	0.621069	0.681297	0.101872
	C162	C	0.621922	0.327455	0.872211
	C163	C	0.383805	0.327550	0.102011
	C164	C	0.679722	0.890219	0.366655
	C165	C	0.678820	0.119019	0.606593
	C166	C	0.325504	0.889725	0.605795
	C167	C	0.324309	0.119090	0.367186
	C168	C	0.884502	0.390009	0.163791
	C169	C	0.123170	0.619589	0.165034
	C170	C	0.122154	0.390125	0.810298
	C171	C	0.884234	0.619819	0.811643
	C172	C	0.178827	0.885154	0.372669
	C173	C	0.179354	0.124193	0.602171
	C174	C	0.824100	0.125200	0.372566
	C175	C	0.824967	0.886030	0.601761
	C176	C	0.387855	0.182161	0.866585
	C177	C	0.616301	0.180911	0.105818
	C178	C	0.387160	0.826861	0.105591
	C179	C	0.616264	0.826222	0.866653
	C180	C	0.387205	0.884419	0.163608
	C181	C	0.616300	0.123369	0.163650
	C182	C	0.387612	0.123595	0.809215
	C183	C	0.616237	0.884470	0.809424
	C184	C	0.882450	0.182354	0.372422
	C185	C	0.120738	0.180900	0.602768
	C186	C	0.121471	0.827469	0.372938
	C187	C	0.882971	0.828556	0.601906
	C188	C	0.180443	0.390566	0.867428
	C189	C	0.180360	0.619673	0.107157
	C190	C	0.826273	0.389949	0.106968
	C191	C	0.825687	0.619144	0.868571
	C192	C	0.403306	0.097910	0.585142
	C193	C	0.601421	0.910795	0.584865
	C194	C	0.600509	0.097806	0.387939
	C195	C	0.401856	0.910635	0.387506
	C196	C	0.602321	0.404964	0.081122
	C197	C	0.602230	0.603067	0.893238
	C198	C	0.403369	0.603811	0.081283
	C199	C	0.403302	0.406033	0.893668
	C200	C	0.095585	0.604745	0.388568
	C201	C	0.908686	0.604521	0.587597
	C202	C	0.096487	0.404916	0.586789
	C203	C	0.909201	0.405848	0.387571
	C204	C	0.903706	0.598383	0.085520
	C205	C	0.102663	0.411384	0.086173
	C206	C	0.102162	0.598604	0.888449
	C207	C	0.903875	0.410731	0.887970
	C208	C	0.101439	0.905907	0.581283
	C209	C	0.100932	0.104065	0.393667
	C210	C	0.902233	0.104490	0.580877
	C211	C	0.903140	0.906265	0.393339
	C212	C	0.595201	0.103154	0.887752
	C213	C	0.408465	0.103756	0.085428
	C214	C	0.594804	0.904825	0.085433
	C215	C	0.408449	0.904581	0.886818
	Zn216	Zn	0.501819	0.004343	0.736099
	Zn217	Zn	0.501477	0.004199	0.236476
	Zn218	Zn	0.752891	0.504134	-0.012604
	Zn219	Zn	0.253040	0.504944	-0.012477
	Zn220	Zn	0.002169	0.755338	0.487855
	Zn221	Zn	0.002045	0.255250	0.487362
	Zn222	Zn	0.002645	0.504852	0.737560
	Zn223	Zn	0.002782	0.505042	0.236736
	Zn224	Zn	0.502079	0.754036	-0.013536
	Zn225	Zn	0.502270	0.254692	-0.013046
	Zn226	Zn	0.752075	0.005168	0.486876
	Zn227	Zn	0.251574	0.004641	0.487169
	N228	N	0.417768	0.966538	0.663752
	N229	N	0.588067	0.041326	0.665423
	N230	N	0.586832	0.966911	0.308671
	N231	N	0.415637	0.041578	0.307897
	N232	N	0.681636	0.418073	0.950371
	N233	N	0.680998	0.589738	0.024669
	N234	N	0.324298	0.590476	0.950202
	N235	N	0.323775	0.418479	0.024806
	N236	N	0.964590	0.683457	0.402089
	N237	N	0.039368	0.683759	0.573726
	N238	N	0.965127	0.326723	0.573030
	N239	N	0.039846	0.325698	0.401356
	N240	N	0.965601	0.419517	0.665870
	N241	N	0.040010	0.590208	0.666347
	N242	N	0.965529	0.591243	0.307870
	N243	N	0.040221	0.419768	0.309105
	N244	N	0.417696	0.681833	0.949435
	N245	N	0.587656	0.682685	0.024298
	N246	N	0.587878	0.326189	0.949445
	N247	N	0.417249	0.326375	0.024431
	N248	N	0.681127	0.967555	0.400421
	N249	N	0.680220	0.041991	0.572214
	N250	N	0.323517	0.967086	0.572284
	N251	N	0.322828	0.041822	0.401124
	N252	N	0.918080	0.467400	0.164814
	N253	N	0.089160	0.542414	0.166177
	N254	N	0.087911	0.467330	0.809302
	N255	N	0.918428	0.542532	0.810247
	N256	N	0.180051	0.919457	0.449850
	N257	N	0.181027	0.090863	0.524439
	N258	N	0.822692	0.091173	0.449940
	N259	N	0.823463	0.919760	0.524143
	N260	N	0.465144	0.183727	0.900371
	N261	N	0.539242	0.182302	0.071831
	N262	N	0.464134	0.825776	0.071532
	N263	N	0.539290	0.824929	0.900590
	N264	N	0.464418	0.918010	0.165448
	N265	N	0.539055	0.089879	0.165270
	N266	N	0.464468	0.089305	0.808212
	N267	N	0.539204	0.918502	0.807985
	N268	N	0.916252	0.183751	0.449756
	N269	N	0.086239	0.182079	0.525574
	N270	N	0.087763	0.826587	0.450431
	N271	N	0.917042	0.827411	0.524852
	N272	N	0.181719	0.467701	0.901352
	N273	N	0.181584	0.542409	0.072967
	N274	N	0.824333	0.467292	0.073249
	N275	N	0.823939	0.541525	0.901643
	O276	O	1.948983	-0.006627	1.082935
	H277	H	1.948360	-0.013510	1.085860
	H278	H	1.952200	-0.009927	1.084190
	O279	O	-0.028048	0.062633	-0.021094
	H280	H	-0.035580	0.062764	-0.020064
	H281	H	-0.032173	0.064933	-0.028365
	O282	O	-0.037383	-0.015870	0.990361
	H283	H	-0.038705	-0.018319	0.991388
	H284	H	-0.044292	-0.003393	0.998514
	O285	O	0.526810	0.423455	0.504400
	H286	H	0.523287	0.431051	0.501827
	H287	H	0.532006	0.413103	0.510637
	O288	O	0.505491	0.432714	0.463987
	H289	H	0.508948	0.438876	0.460653
	H290	H	0.513041	0.426185	0.459112
	O291	O	0.011832	0.997510	1.040379
	H292	H	0.007464	1.009786	1.043430
	H293	H	0.024436	0.997951	1.046521
	O294	O	0.020430	0.042080	0.024061
	H295	H	0.023001	0.049774	0.015379
	H296	H	0.019344	0.042152	0.018893
	O297	O	-0.063629	0.017929	0.998951
	H298	H	-0.063360	0.021527	1.003266
	H299	H	-0.067592	0.021926	1.001355
	O300	O	-0.018685	0.967158	0.921341
	H301	H	-0.018406	0.966040	0.925781
	H302	H	-0.018469	0.960775	0.929196
	O303	O	0.464273	0.461752	0.477224
	H304	H	0.458476	0.462908	0.477567
	H305	H	0.456881	0.455031	0.470357
	O306	O	-0.036763	-0.011629	1.035249
	H307	H	-0.030512	-0.005968	1.040537
	H308	H	-0.032177	-0.011110	1.036411
	O309	O	1.013083	1.013005	1.011869
	H310	H	1.013119	1.012426	1.013359
	H311	H	1.001334	1.016979	1.000191
	O312	O	0.514200	0.444374	0.482786
	H313	H	0.509887	0.438190	0.486767
	H314	H	0.520285	0.432080	0.483604
	O315	O	0.488782	0.495543	0.419316
	H316	H	0.487830	0.500351	0.416915
	H317	H	0.493646	0.501740	0.419707
	O318	O	-0.018513	1.072574	0.011358
	H319	H	-0.023155	1.063434	0.000575
	H320	H	-0.013274	1.057759	0.010295
	O321	O	1.019403	1.045407	-0.028098
	H322	H	1.023663	1.045177	-0.028844
	H323	H	1.016560	1.041637	-0.031563
