data_Molecule from HDF5

_cell_length_a		16.397309
_cell_length_b		16.178694
_cell_length_c		16.290695
_cell_angle_alpha	89.697736
_cell_angle_beta	89.711422
_cell_angle_gamma	90.616359
_symmetry_space_group_name_H-M	'P 1'
_symmetry_Int_Tables_number		1

loop_
	_symmetry_equiv_pos_as_xyz
	x,y,z

loop_
	_atom_site_label
	_atom_site_type_symbol
	_atom_site_fract_x
	_atom_site_fract_y
	_atom_site_fract_z
	H0	H	0.391723	0.849367	0.727931
	H1	H	0.595809	0.176851	0.722714
	H2	H	0.593139	0.848909	0.295383
	H3	H	0.398754	0.177014	0.294238
	H4	H	0.712389	0.413801	0.848132
	H5	H	0.713770	0.617321	0.172799
	H6	H	0.279440	0.615148	0.848880
	H7	H	0.275111	0.407254	0.172670
	H8	H	0.833258	0.727394	0.409795
	H9	H	0.157548	0.731283	0.609528
	H10	H	0.834335	0.293210	0.611940
	H11	H	0.158474	0.300428	0.412375
	H12	H	0.833798	0.408901	0.728757
	H13	H	0.157645	0.614831	0.726066
	H14	H	0.833474	0.611479	0.294333
	H15	H	0.156271	0.411413	0.291517
	H16	H	0.398970	0.726369	0.846956
	H17	H	0.594007	0.728393	0.174450
	H18	H	0.594440	0.300968	0.846341
	H19	H	0.394199	0.294631	0.173228
	H20	H	0.708903	0.848180	0.408827
	H21	H	0.714408	0.174860	0.609340
	H22	H	0.276305	0.849829	0.611481
	H23	H	0.280933	0.176839	0.406765
	H24	H	0.893012	0.349114	0.227558
	H25	H	0.095181	0.677670	0.224915
	H26	H	0.092810	0.347752	0.797092
	H27	H	0.897186	0.676387	0.793858
	H28	H	0.212021	0.911906	0.346770
	H29	H	0.214260	0.115847	0.671024
	H30	H	0.782164	0.113241	0.346349
	H31	H	0.775786	0.907850	0.670893
	H32	H	0.332764	0.226790	0.910893
	H33	H	0.657525	0.230948	0.108571
	H34	H	0.333321	0.794771	0.111019
	H35	H	0.657612	0.801282	0.911456
	H36	H	0.333439	0.909299	0.229127
	H37	H	0.657140	0.115763	0.226226
	H38	H	0.334312	0.114781	0.791552
	H39	H	0.655460	0.913167	0.791183
	H40	H	0.899690	0.227560	0.347055
	H41	H	0.095923	0.226390	0.673382
	H42	H	0.093643	0.798587	0.346827
	H43	H	0.895284	0.796038	0.673158
	H44	H	0.210849	0.349329	0.910257
	H45	H	0.213861	0.676436	0.111604
	H46	H	0.774649	0.350372	0.114110
	H47	H	0.782687	0.677518	0.910311
	H48	H	0.395628	0.131955	0.599064
	H49	H	0.581317	0.897585	0.599893
	H50	H	0.587883	0.127941	0.419326
	H51	H	0.398261	0.891884	0.410478
	H52	H	0.586386	0.423342	0.125807
	H53	H	0.575104	0.595172	0.903108
	H54	H	0.408907	0.603438	0.125491
	H55	H	0.407580	0.420891	0.896049
	H56	H	0.110294	0.602265	0.415330
	H57	H	0.880764	0.596925	0.607530
	H58	H	0.114525	0.416947	0.611287
	H59	H	0.882589	0.425659	0.422514
	H60	H	0.110339	0.416132	0.598160
	H61	H	0.878166	0.607274	0.606335
	H62	H	0.111346	0.609024	0.417538
	H63	H	0.879282	0.419646	0.413893
	H64	H	0.399965	0.606813	0.128885
	H65	H	0.585600	0.626535	0.890213
	H66	H	0.583846	0.423465	0.124872
	H67	H	0.398757	0.415842	0.891780
	H68	H	0.593237	0.130078	0.418495
	H69	H	0.587806	0.895572	0.599835
	H70	H	0.407841	0.130435	0.608823
	H71	H	0.411798	0.900025	0.421374
	H72	H	0.906968	0.630658	0.108742
	H73	H	0.087292	0.396834	0.102890
	H74	H	0.083436	0.629080	0.913891
	H75	H	0.899422	0.394957	0.917840
	H76	H	0.087172	0.922798	0.624855
	H77	H	0.099952	0.104124	0.390984
	H78	H	0.906911	0.103532	0.625107
	H79	H	0.910273	0.921090	0.395850
	H80	H	0.609859	0.106193	0.916491
	H81	H	0.380837	0.092336	0.113918
	H82	H	0.608975	0.923643	0.100900
	H83	H	0.382280	0.923784	0.924224
	H84	H	0.610437	0.923463	0.105917
	H85	H	0.375959	0.116470	0.105640
	H86	H	0.610941	0.106995	0.913663
	H87	H	0.379188	0.922295	0.914969
	H88	H	0.898264	0.102700	0.627083
	H89	H	0.083281	0.097803	0.398413
	H90	H	0.086237	0.922327	0.625316
	H91	H	0.899524	0.911526	0.390047
	H92	H	0.086255	0.625934	0.925295
	H93	H	0.083217	0.397017	0.103820
	H94	H	0.908355	0.627007	0.097153
	H95	H	0.904396	0.397583	0.920224
	H96	H	0.409118	0.126185	0.594136
	H97	H	0.583697	0.894685	0.605346
	H98	H	0.589522	0.130830	0.414525
	H99	H	0.394767	0.896263	0.428315
	H100	H	0.584913	0.421288	0.125935
	H101	H	0.608650	0.599161	0.891796
	H102	H	0.401523	0.597890	0.125028
	H103	H	0.397923	0.425995	0.895639
	H104	H	0.107909	0.604094	0.422176
	H105	H	0.883425	0.601304	0.597875
	H106	H	0.108569	0.427970	0.605315
	H107	H	0.880467	0.414864	0.423910
	H108	H	0.897911	0.632032	0.101202
	H109	H	0.084781	0.397589	0.100338
	H110	H	0.095891	0.631175	0.917886
	H111	H	0.899340	0.396686	0.923971
	H112	H	0.086850	0.922475	0.625424
	H113	H	0.084973	0.115383	0.392021
	H114	H	0.902746	0.095781	0.624037
	H115	H	0.896541	0.926715	0.393124
	H116	H	0.611029	0.109292	0.916593
	H117	H	0.386387	0.098721	0.089167
	H118	H	0.610884	0.918842	0.103187
	H119	H	0.378109	0.914891	0.921005
	C120	C	0.373198	0.021591	0.631388
	C121	C	0.615850	1.003965	0.630514
	C122	C	0.617788	0.021255	0.387964
	C123	C	0.373823	1.004422	0.389356
	C124	C	0.615100	0.393692	0.017989
	C125	C	0.618577	0.636625	1.002493
	C126	C	0.374699	0.633060	0.019247
	C127	C	0.371961	0.390058	1.002102
	C128	C	0.003411	0.634155	0.388865
	C129	C	0.987661	0.633750	0.632380
	C130	C	0.004171	0.389548	0.634099
	C131	C	0.987143	0.390882	0.389792
	C132	C	0.873435	0.521700	0.132782
	C133	C	0.115996	0.505089	0.132003
	C134	C	0.116910	0.520831	0.889557
	C135	C	0.873664	0.504563	0.890018
	C136	C	0.116100	0.892491	0.517730
	C137	C	0.118537	0.134993	0.501291
	C138	C	0.874724	0.132144	0.518128
	C139	C	0.872253	0.889309	0.500787
	C140	C	0.503601	0.136035	0.886745
	C141	C	0.487635	0.134072	0.131807
	C142	C	0.503450	0.890663	0.133453
	C143	C	0.486574	0.891938	0.889600
	C144	C	0.372765	0.898323	0.689021
	C145	C	0.615725	0.127262	0.685497
	C146	C	0.614302	0.897903	0.332653
	C147	C	0.377580	0.127993	0.332388
	C148	C	0.673003	0.394594	0.896187
	C149	C	0.674671	0.636250	0.124676
	C150	C	0.318558	0.633393	0.897011
	C151	C	0.314518	0.389001	0.124211
	C152	C	0.881621	0.689353	0.390156
	C153	C	0.109186	0.692102	0.629833
	C154	C	0.882565	0.331599	0.632534
	C155	C	0.109646	0.337058	0.391525
	C156	C	0.882337	0.389192	0.690667
	C157	C	0.109271	0.634300	0.688000
	C158	C	0.881717	0.631941	0.332559
	C159	C	0.108508	0.392375	0.331531
	C160	C	0.377477	0.689416	0.896185
	C161	C	0.615221	0.691549	0.125258
	C162	C	0.614346	0.338375	0.895463
	C163	C	0.373507	0.332694	0.124462
	C164	C	0.671938	0.897640	0.389080
	C165	C	0.674545	0.126399	0.628890
	C166	C	0.315121	0.898614	0.631384
	C167	C	0.319141	0.127700	0.388609
	C168	C	0.873413	0.398298	0.189458
	C169	C	0.115228	0.628410	0.187406
	C170	C	0.113848	0.397190	0.834361
	C171	C	0.876621	0.627542	0.832452
	C172	C	0.173176	0.892762	0.395602
	C173	C	0.174935	0.134295	0.623225
	C174	C	0.819913	0.132587	0.395378
	C175	C	0.814940	0.889033	0.622728
	C176	C	0.381672	0.190161	0.889701
	C177	C	0.609102	0.192228	0.129291
	C178	C	0.381652	0.833163	0.131839
	C179	C	0.608693	0.837902	0.890804
	C180	C	0.381875	0.890054	0.190656
	C181	C	0.609148	0.134650	0.187653
	C182	C	0.382238	0.134155	0.830490
	C183	C	0.607790	0.893658	0.831164
	C184	C	0.878357	0.189730	0.395780
	C185	C	0.115911	0.189369	0.624269
	C186	C	0.114061	0.836544	0.395213
	C187	C	0.874276	0.833473	0.623736
	C188	C	0.172363	0.398035	0.890862
	C189	C	0.174398	0.627745	0.131321
	C190	C	0.814366	0.399105	0.133167
	C191	C	0.819635	0.628316	0.890444
	C192	C	0.397211	0.107234	0.607655
	C193	C	0.591545	0.918018	0.608037
	C194	C	0.596409	0.107269	0.410710
	C195	C	0.395445	0.918418	0.413097
	C196	C	0.591864	0.416332	0.103412
	C197	C	0.596494	0.613661	0.917223
	C198	C	0.396873	0.609429	0.104381
	C199	C	0.394819	0.413999	0.916778
	C200	C	0.087783	0.611615	0.411535
	C201	C	0.902876	0.609090	0.610298
	C202	C	0.089060	0.413394	0.611669
	C203	C	0.902828	0.413489	0.413163
	C204	C	0.897505	0.607682	0.109333
	C205	C	0.091965	0.419304	0.109115
	C206	C	0.094817	0.606587	0.912284
	C207	C	0.894915	0.418558	0.913910
	C208	C	0.093308	0.915710	0.603022
	C209	C	0.096114	0.112457	0.415930
	C210	C	0.896376	0.107816	0.603350
	C211	C	0.895228	0.912921	0.415187
	C212	C	0.588664	0.113871	0.908974
	C213	C	0.403095	0.109578	0.109541
	C214	C	0.588197	0.915039	0.110082
	C215	C	0.401806	0.913922	0.913161
	Zn216	Zn	0.494502	0.013073	0.759702
	Zn217	Zn	0.495571	0.013012	0.261884
	Zn218	Zn	0.745245	0.514108	0.011113
	Zn219	Zn	0.244989	0.513038	0.011029
	Zn220	Zn	-0.004936	0.762904	0.509852
	Zn221	Zn	-0.003444	0.261510	0.511090
	Zn222	Zn	-0.004476	0.512035	0.762222
	Zn223	Zn	-0.004795	0.512680	0.260617
	Zn224	Zn	0.495291	0.762780	0.010681
	Zn225	Zn	0.495321	0.263357	0.009672
	Zn226	Zn	0.744848	0.011223	0.508932
	Zn227	Zn	0.245492	0.013993	0.509590
	N228	N	0.408218	0.975814	0.689144
	N229	N	0.579557	0.050052	0.686409
	N230	N	0.581147	0.975741	0.331810
	N231	N	0.410799	0.050227	0.332539
	N232	N	0.673556	0.428502	0.973408
	N233	N	0.676979	0.602677	0.047291
	N234	N	0.316646	0.599124	0.974518
	N235	N	0.313210	0.423784	0.047089
	N236	N	0.958026	0.690824	0.424472
	N237	N	0.032430	0.691903	0.596161
	N238	N	0.959331	0.331598	0.598267
	N239	N	0.033260	0.335905	0.426991
	N240	N	0.958956	0.424524	0.691733
	N241	N	0.032744	0.598669	0.689631
	N242	N	0.958324	0.598386	0.331433
	N243	N	0.031535	0.425081	0.330145
	N244	N	0.411940	0.689430	0.972976
	N245	N	0.581188	0.692052	0.048314
	N246	N	0.578736	0.337826	0.972185
	N247	N	0.408383	0.333000	0.047490
	N248	N	0.674340	0.975398	0.422678
	N249	N	0.674632	0.048586	0.595523
	N250	N	0.315473	0.976070	0.596149
	N251	N	0.316844	0.049960	0.423248
	N252	N	0.909390	0.475468	0.189188
	N253	N	0.079787	0.550991	0.187996
	N254	N	0.080178	0.474632	0.833481
	N255	N	0.909525	0.549682	0.832237
	N256	N	0.174665	0.926766	0.472783
	N257	N	0.176777	0.101312	0.545744
	N258	N	0.817578	0.097494	0.472357
	N259	N	0.813418	0.922683	0.545115
	N260	N	0.458207	0.191392	0.923888
	N261	N	0.532663	0.191765	0.095177
	N262	N	0.458070	0.833581	0.096869
	N263	N	0.532407	0.836826	0.926426
	N264	N	0.458681	0.924950	0.191917
	N265	N	0.532527	0.099099	0.189353
	N266	N	0.459203	0.101292	0.828495
	N267	N	0.530763	0.926459	0.830151
	N268	N	0.911788	0.189552	0.473122
	N269	N	0.081464	0.189920	0.547494
	N270	N	0.079348	0.836139	0.472217
	N271	N	0.909034	0.833353	0.546717
	N272	N	0.174639	0.475966	0.924366
	N273	N	0.175080	0.549984	0.097834
	N274	N	0.814174	0.476935	0.098688
	N275	N	0.817537	0.550707	0.925468
	O276	O	1.003731	-0.076523	0.889146
	H277	H	1.012172	-0.068532	0.889449
	H278	H	1.003262	-0.077788	0.890748
	O279	O	0.022983	1.037139	-0.005528
	H280	H	0.024841	1.054180	-0.005249
	H281	H	0.027498	1.037077	0.001248
	O282	O	0.554891	0.634342	0.537363
	H283	H	0.557203	0.629035	0.539016
	H284	H	0.565778	0.628467	0.546216
	O285	O	0.444667	0.529181	0.538876
	H286	H	0.452744	0.540773	0.526125
	H287	H	0.453459	0.526371	0.551130
	O288	O	0.452456	0.487502	0.384452
	H289	H	0.458326	0.482006	0.388531
	H290	H	0.451070	0.480256	0.391649
	O291	O	-0.116836	0.087641	1.114731
	H292	H	-0.120253	0.079851	1.124296
	H293	H	-0.113150	0.086172	1.117650
	O294	O	1.524791	0.422967	-0.518058
	H295	H	1.523765	0.423529	-0.532278
	H296	H	1.511609	0.428492	-0.511313
	O297	O	1.121420	0.982115	-0.094832
	H298	H	1.126692	0.988738	-0.088516
	H299	H	1.115771	0.989954	-0.089358
	O300	O	0.419076	0.470139	0.538659
	H301	H	0.408820	0.485559	0.530350
	H302	H	0.420657	0.480508	0.544663
	O303	O	0.490159	0.601824	0.595973
	H304	H	0.487656	0.592937	0.610761
	H305	H	0.508287	0.611649	0.590880
	O306	O	0.370675	0.553185	0.410269
	H307	H	0.359732	0.550615	0.408730
	H308	H	0.366997	0.572304	0.408737
	O309	O	0.573035	0.505037	0.641382
	H310	H	0.579023	0.495164	0.635232
	H311	H	0.569739	0.503986	0.654219
	O312	O	1.043007	1.100705	1.065441
	H313	H	1.038708	1.101163	1.064945
	H314	H	1.059114	1.086599	1.055494
	O315	O	0.499307	0.431186	0.475800
	H316	H	0.492702	0.426103	0.467898
	H317	H	0.504624	0.429787	0.472393
	O318	O	0.477405	0.568340	0.625795
	H319	H	0.489765	0.575805	0.615290
	H320	H	0.482999	0.563477	0.633830
	O321	O	0.484055	0.576816	0.439771
	H322	H	0.492811	0.579816	0.434350
	H323	H	0.482490	0.566355	0.437091
	O324	O	0.080831	1.140968	1.019437
	H325	H	0.080614	1.142931	1.016399
	H326	H	0.088347	1.149046	1.032684
	O327	O	-0.020343	1.033502	1.070747
	H328	H	-0.018204	1.028357	1.064269
	H329	H	-0.017986	1.022434	1.076697
	O330	O	-0.012892	0.108443	0.037457
	H331	H	-0.008919	0.103604	0.040678
	H332	H	-0.006332	0.107714	0.041913
	O333	O	0.554570	0.440505	0.470344
	H334	H	0.569808	0.440318	0.472431
	H335	H	0.547016	0.427316	0.476382
	O336	O	0.007488	-0.004620	-0.007506
	H337	H	-0.003565	-0.018829	-0.019324
	H338	H	-0.000030	0.002048	-0.016372
	O339	O	0.077287	-0.089119	-0.072169
	H340	H	0.087735	-0.090053	-0.070728
	H341	H	0.076839	-0.076281	-0.068073
	O342	O	0.548779	0.566967	0.534028
	H343	H	0.549356	0.567331	0.546086
	H344	H	0.553393	0.556040	0.533799
	O345	O	0.158526	0.954861	1.074221
	H346	H	0.161304	0.963622	1.083159
	H347	H	0.159310	0.958881	1.072420
	O348	O	0.924778	0.014516	-0.078332
	H349	H	0.922633	0.008940	-0.076781
	H350	H	0.919734	0.007380	-0.083562
	O351	O	0.542909	0.461522	0.624216
	H352	H	0.543560	0.451992	0.624839
	H353	H	0.541393	0.449697	0.620554
	O354	O	-0.075939	0.979112	0.017671
	H355	H	-0.066759	0.997206	0.008686
	H356	H	-0.065837	0.973912	0.020180
	O357	O	0.978459	-0.054860	-0.075120
	H358	H	0.983345	-0.062493	-0.083272
	H359	H	0.975956	-0.054342	-0.078034
	O360	O	0.926410	-0.026896	1.140606
	H361	H	0.929728	-0.024981	1.150321
	H362	H	0.918645	-0.028365	1.134188
	O363	O	0.384670	0.422541	0.469286
	H364	H	0.380687	0.420623	0.465804
	H365	H	0.385266	0.437416	0.471378
	O366	O	0.500312	0.413194	0.585362
	H367	H	0.505582	0.405842	0.578183
	H368	H	0.494768	0.422840	0.587098
	O369	O	0.955248	0.010214	0.010796
	H370	H	0.942581	0.003534	0.007314
	H371	H	0.944171	0.020507	0.009424
	O372	O	0.521701	0.526271	0.491402
	H373	H	0.529497	0.521420	0.492355
	H374	H	0.521209	0.542285	0.496278
	O375	O	0.991144	0.043244	0.979074
	H376	H	0.992595	0.043105	0.976066
	H377	H	0.984894	0.048397	0.969820
	O378	O	-0.037884	0.913278	0.048209
	H379	H	-0.021011	0.918657	0.059131
	H380	H	-0.046320	0.904095	0.043073
	O381	O	0.580495	0.571044	0.531792
	H382	H	0.591011	0.583542	0.538372
	H383	H	0.568961	0.567566	0.539663
	O384	O	0.965941	0.902335	0.081897
	H385	H	0.965183	0.893686	0.067431
	H386	H	0.960580	0.882882	0.083361
	O387	O	0.371753	-0.420501	0.411066
	H388	H	0.359963	-0.419255	0.402494
	H389	H	0.375835	-0.402863	0.418972
	O390	O	1.011223	1.163071	-0.029955
	H391	H	0.995301	1.166971	-0.031099
	H392	H	1.005836	1.177418	-0.026883
	O393	O	0.575096	0.474501	0.491249
	H394	H	0.571643	0.469803	0.480484
	H395	H	0.564601	0.474664	0.486596
