data_Molecule from HDF5

_cell_length_a		16.422108
_cell_length_b		16.516270
_cell_length_c		16.473631
_cell_angle_alpha	89.992037
_cell_angle_beta	89.886898
_cell_angle_gamma	89.948891
_symmetry_space_group_name_H-M	'P 1'
_symmetry_Int_Tables_number		1

loop_
	_symmetry_equiv_pos_as_xyz
	x,y,z

loop_
	_atom_site_label
	_atom_site_type_symbol
	_atom_site_fract_x
	_atom_site_fract_y
	_atom_site_fract_z
	H0	H	0.411110	0.861719	0.728772
	H1	H	0.620352	0.177358	0.728238
	H2	H	0.620022	0.860034	0.287604
	H3	H	0.408853	0.175897	0.284170
	H4	H	0.737407	0.416337	0.849369
	H5	H	0.735640	0.625338	0.166170
	H6	H	0.294347	0.624934	0.848791
	H7	H	0.295014	0.415539	0.165175
	H8	H	0.856091	0.739929	0.403963
	H9	H	0.173325	0.741069	0.614342
	H10	H	0.856488	0.298034	0.614969
	H11	H	0.172519	0.297158	0.401130
	H12	H	0.857022	0.414012	0.730250
	H13	H	0.173665	0.624262	0.729152
	H14	H	0.856992	0.625928	0.286478
	H15	H	0.173446	0.414739	0.286976
	H16	H	0.410623	0.740573	0.848834
	H17	H	0.621217	0.741271	0.164986
	H18	H	0.623918	0.297271	0.849231
	H19	H	0.409336	0.297527	0.164219
	H20	H	0.735481	0.860366	0.404356
	H21	H	0.734767	0.177867	0.610772
	H22	H	0.295083	0.861579	0.613268
	H23	H	0.294311	0.177372	0.402371
	H24	H	0.910448	0.362999	0.228924
	H25	H	0.124907	0.675388	0.231610
	H26	H	0.124123	0.364294	0.782355
	H27	H	0.906444	0.675873	0.782662
	H28	H	0.239743	0.911834	0.351922
	H29	H	0.236970	0.125091	0.665489
	H30	H	0.791726	0.126817	0.350384
	H31	H	0.793109	0.913451	0.664757
	H32	H	0.358055	0.242541	0.899372
	H33	H	0.672124	0.240476	0.111784
	H34	H	0.357977	0.795809	0.114191
	H35	H	0.673571	0.796885	0.900667
	H36	H	0.358749	0.908692	0.232288
	H37	H	0.673339	0.123486	0.226097
	H38	H	0.357705	0.124930	0.785358
	H39	H	0.674530	0.914344	0.786344
	H40	H	0.905620	0.245198	0.351914
	H41	H	0.120801	0.241045	0.665717
	H42	H	0.123922	0.795619	0.351625
	H43	H	0.907853	0.796783	0.664531
	H44	H	0.240521	0.363306	0.897908
	H45	H	0.237765	0.676763	0.112334
	H46	H	0.794160	0.363360	0.113304
	H47	H	0.792338	0.676815	0.900502
	H48	H	0.425226	0.131585	0.595183
	H49	H	0.602385	0.908009	0.593586
	H50	H	0.601578	0.131096	0.415713
	H51	H	0.430625	0.908633	0.418495
	H52	H	0.607935	0.431729	0.121019
	H53	H	0.605531	0.607096	0.895249
	H54	H	0.425592	0.607556	0.120191
	H55	H	0.431238	0.429783	0.895772
	H56	H	0.131598	0.613498	0.414352
	H57	H	0.900854	0.608893	0.599480
	H58	H	0.128032	0.431386	0.597945
	H59	H	0.899596	0.422091	0.421315
	H60	H	0.128395	0.428123	0.594124
	H61	H	0.902820	0.610203	0.591864
	H62	H	0.126795	0.610508	0.426402
	H63	H	0.906683	0.437635	0.426435
	H64	H	0.427006	0.607432	0.119124
	H65	H	0.601788	0.608081	0.895783
	H66	H	0.600321	0.433090	0.117118
	H67	H	0.426124	0.428566	0.892215
	H68	H	0.604852	0.130866	0.419304
	H69	H	0.608510	0.905763	0.596461
	H70	H	0.426664	0.132886	0.598719
	H71	H	0.429027	0.908908	0.422640
	H72	H	0.927825	0.632128	0.097071
	H73	H	0.107458	0.405384	0.099154
	H74	H	0.098810	0.629213	0.921412
	H75	H	0.930993	0.406606	0.913164
	H76	H	0.104646	0.933661	0.619657
	H77	H	0.098256	0.108312	0.397477
	H78	H	0.926016	0.107328	0.620053
	H79	H	0.925118	0.933648	0.394651
	H80	H	0.629894	0.108953	0.914316
	H81	H	0.400621	0.102191	0.102522
	H82	H	0.627225	0.930367	0.093480
	H83	H	0.402216	0.931770	0.914407
	H84	H	0.627389	0.932116	0.096174
	H85	H	0.399130	0.115666	0.094613
	H86	H	0.628563	0.111691	0.920411
	H87	H	0.401704	0.925156	0.919109
	H88	H	0.926894	0.108586	0.619614
	H89	H	0.105361	0.112631	0.393420
	H90	H	0.099966	0.929695	0.620423
	H91	H	0.931791	0.930364	0.396868
	H92	H	0.107818	0.631595	0.921901
	H93	H	0.100820	0.408372	0.098041
	H94	H	0.924821	0.633422	0.095076
	H95	H	0.931713	0.412382	0.925120
	H96	H	0.429298	0.130928	0.596075
	H97	H	0.603013	0.906135	0.600681
	H98	H	0.606246	0.132551	0.414355
	H99	H	0.426503	0.906846	0.419461
	H100	H	0.601872	0.425277	0.120669
	H101	H	0.604677	0.610441	0.894161
	H102	H	0.426537	0.609212	0.119461
	H103	H	0.427669	0.434335	0.895147
	H104	H	0.126469	0.601376	0.416651
	H105	H	0.904736	0.602851	0.594929
	H106	H	0.126340	0.432320	0.593306
	H107	H	0.900418	0.435234	0.410035
	H108	H	0.924934	0.634382	0.098884
	H109	H	0.105309	0.408363	0.092359
	H110	H	0.103198	0.632622	0.914058
	H111	H	0.919949	0.406776	0.921020
	H112	H	0.105175	0.928091	0.622247
	H113	H	0.106088	0.104156	0.396166
	H114	H	0.925568	0.109032	0.620253
	H115	H	0.926444	0.926235	0.393135
	H116	H	0.627102	0.105430	0.919000
	H117	H	0.406038	0.103894	0.087414
	H118	H	0.628803	0.928670	0.095907
	H119	H	0.404237	0.932408	0.922252
	C120	C	0.394698	0.027612	0.629175
	C121	C	0.636532	1.011189	0.628611
	C122	C	0.637157	0.027228	0.384835
	C123	C	0.394686	1.011451	0.386482
	C124	C	0.637090	0.397966	0.015644
	C125	C	0.636743	0.641136	0.999169
	C126	C	0.393914	0.640910	0.015378
	C127	C	0.394699	0.398398	0.998370
	C128	C	0.023807	0.641552	0.386116
	C129	C	1.006917	0.640117	0.628748
	C130	C	0.023260	0.398160	0.628763
	C131	C	1.006539	0.398420	0.386509
	C132	C	0.894353	0.528961	0.129083
	C133	C	0.137292	0.511039	0.128865
	C134	C	0.137020	0.527801	0.885529
	C135	C	0.893914	0.511739	0.886354
	C136	C	0.137247	0.897501	0.517102
	C137	C	0.135833	0.140681	0.499837
	C138	C	0.892785	0.141792	0.516238
	C139	C	0.894576	0.897965	0.498798
	C140	C	0.524387	0.141445	0.884895
	C141	C	0.506264	0.139343	0.127068
	C142	C	0.523921	0.897105	0.128623
	C143	C	0.507502	0.897859	0.886263
	C144	C	0.392399	0.909054	0.689339
	C145	C	0.638400	0.130009	0.688299
	C146	C	0.638751	0.907984	0.326478
	C147	C	0.390783	0.128963	0.324678
	C148	C	0.697669	0.396916	0.896759
	C149	C	0.696283	0.643257	0.118329
	C150	C	0.334227	0.643166	0.896306
	C151	C	0.334548	0.396614	0.117388
	C152	C	0.904312	0.701118	0.384748
	C153	C	0.125972	0.700759	0.632110
	C154	C	0.904252	0.337908	0.632784
	C155	C	0.125137	0.337631	0.383714
	C156	C	0.904421	0.395555	0.690248
	C157	C	0.126089	0.642711	0.689314
	C158	C	0.904689	0.644205	0.326163
	C159	C	0.125730	0.395988	0.326446
	C160	C	0.392015	0.700791	0.896430
	C161	C	0.638965	0.701059	0.117983
	C162	C	0.640897	0.337828	0.896816
	C163	C	0.391337	0.337775	0.116888
	C164	C	0.696249	0.908165	0.384743
	C165	C	0.695717	0.130073	0.629850
	C166	C	0.334631	0.909056	0.631681
	C167	C	0.333755	0.129544	0.383657
	C168	C	0.892030	0.410487	0.189171
	C169	C	0.141318	0.628924	0.189983
	C170	C	0.141454	0.410766	0.823249
	C171	C	0.889441	0.629195	0.824105
	C172	C	0.198977	0.894255	0.398898
	C173	C	0.196493	0.143091	0.618283
	C174	C	0.831765	0.145180	0.397826
	C175	C	0.833362	0.895604	0.617481
	C176	C	0.405436	0.202167	0.881631
	C177	C	0.625020	0.200115	0.129932
	C178	C	0.405394	0.835889	0.132226
	C179	C	0.626481	0.837576	0.883205
	C180	C	0.405872	0.892180	0.191211
	C181	C	0.625563	0.141563	0.186584
	C182	C	0.405097	0.143471	0.824923
	C183	C	0.626998	0.896116	0.826280
	C184	C	0.888273	0.204202	0.398746
	C185	C	0.138734	0.200946	0.618414
	C186	C	0.141452	0.836211	0.398969
	C187	C	0.890569	0.837283	0.617302
	C188	C	0.199421	0.410472	0.880846
	C189	C	0.197938	0.629364	0.131033
	C190	C	0.834262	0.410452	0.131451
	C191	C	0.832214	0.629588	0.882474
	C192	C	0.419841	0.110115	0.603915
	C193	C	0.611880	0.928228	0.603913
	C194	C	0.611681	0.110019	0.409391
	C195	C	0.421098	0.929419	0.412603
	C196	C	0.610922	0.423041	0.098146
	C197	C	0.611318	0.615714	0.916683
	C198	C	0.419146	0.615414	0.098025
	C199	C	0.420596	0.423704	0.915775
	C200	C	0.106583	0.615853	0.411682
	C201	C	0.924539	0.614505	0.603046
	C202	C	0.105883	0.423406	0.602712
	C203	C	0.923796	0.424285	0.411849
	C204	C	0.918834	0.611584	0.104245
	C205	C	0.111924	0.428857	0.103647
	C206	C	0.110728	0.609761	0.911647
	C207	C	0.920190	0.429929	0.912490
	C208	C	0.110779	0.923103	0.599219
	C209	C	0.110453	0.115621	0.417268
	C210	C	0.918691	0.115812	0.598424
	C211	C	0.920473	0.922978	0.416300
	C212	C	0.606978	0.115922	0.910374
	C213	C	0.423637	0.114471	0.102078
	C214	C	0.606208	0.922848	0.102686
	C215	C	0.424308	0.922729	0.911409
	Zn216	Zn	0.515788	0.018815	0.757642
	Zn217	Zn	0.515081	0.018919	0.256257
	Zn218	Zn	0.764915	0.520522	0.007974
	Zn219	Zn	0.265459	0.519559	0.006432
	Zn220	Zn	0.015559	0.768829	0.508229
	Zn221	Zn	0.014460	0.269836	0.508118
	Zn222	Zn	0.014819	0.519324	0.757305
	Zn223	Zn	0.015825	0.520291	0.257957
	Zn224	Zn	0.515690	0.769201	0.007023
	Zn225	Zn	0.515422	0.269270	0.006448
	Zn226	Zn	0.765820	0.019179	0.507081
	Zn227	Zn	0.265545	0.019456	0.508401
	N228	N	0.428626	0.983958	0.688150
	N229	N	0.602502	0.054933	0.687690
	N230	N	0.602921	0.983385	0.326104
	N231	N	0.427571	0.054283	0.326079
	N232	N	0.695741	0.433217	0.971719
	N233	N	0.695090	0.606832	0.043366
	N234	N	0.335164	0.606669	0.971308
	N235	N	0.336260	0.433305	0.042535
	N236	N	0.979651	0.699779	0.421002
	N237	N	0.050952	0.699513	0.595379
	N238	N	0.979162	0.339314	0.595527
	N239	N	0.049826	0.338800	0.420062
	N240	N	0.979630	0.431990	0.688309
	N241	N	0.051117	0.605798	0.687556
	N242	N	0.980267	0.608237	0.326645
	N243	N	0.050875	0.433218	0.328068
	N244	N	0.428148	0.699766	0.971687
	N245	N	0.602716	0.699913	0.042843
	N246	N	0.603809	0.338364	0.971842
	N247	N	0.427757	0.338577	0.041690
	N248	N	0.695461	0.983410	0.420177
	N249	N	0.694776	0.055128	0.593543
	N250	N	0.335396	0.984033	0.595387
	N251	N	0.335955	0.055211	0.421230
	N252	N	0.928402	0.485271	0.188044
	N253	N	0.104200	0.554414	0.188826
	N254	N	0.103269	0.484736	0.826031
	N255	N	0.927192	0.554927	0.826305
	N256	N	0.196467	0.931690	0.473384
	N257	N	0.194948	0.106267	0.543512
	N258	N	0.834390	0.107229	0.471868
	N259	N	0.835636	0.932597	0.542753
	N260	N	0.480622	0.201024	0.918274
	N261	N	0.549999	0.198712	0.093298
	N262	N	0.479821	0.838580	0.094205
	N263	N	0.551238	0.838518	0.919731
	N264	N	0.480577	0.929648	0.189134
	N265	N	0.550806	0.104431	0.185209
	N266	N	0.480084	0.106665	0.826675
	N267	N	0.551924	0.932919	0.828178
	N268	N	0.925541	0.202240	0.473375
	N269	N	0.101751	0.199698	0.543753
	N270	N	0.103820	0.837983	0.473443
	N271	N	0.928234	0.838774	0.542720
	N272	N	0.196642	0.484290	0.919072
	N273	N	0.195572	0.555029	0.093557
	N274	N	0.835298	0.485259	0.094874
	N275	N	0.835158	0.555649	0.920751
	O276	O	0.726507	0.468968	0.299138
	H277	H	0.743635	0.457621	0.277637
	H278	H	0.723790	0.432900	0.308349
	O279	O	1.160387	-0.148249	0.873127
	H280	H	1.160969	-0.122870	0.868978
	H281	H	1.159130	-0.144490	0.898285
	O282	O	0.633837	0.321629	0.431879
	H283	H	0.620990	0.321128	0.416486
	H284	H	0.632855	0.308990	0.447297
	O285	O	0.563198	0.710999	0.482234
	H286	H	0.562738	0.704431	0.480074
	H287	H	0.551827	0.704088	0.485039
	O288	O	0.835907	1.174918	0.130171
	H289	H	0.839644	1.157681	0.118352
	H290	H	0.854640	1.163631	0.137567
	O291	O	0.316811	0.578015	0.314055
	H292	H	0.311674	0.564805	0.292147
	H293	H	0.327555	0.552012	0.325241
	O294	O	0.045148	0.107443	0.843784
	H295	H	0.044256	0.112035	0.840481
	H296	H	0.045980	0.103920	0.851280
	O297	O	0.381690	0.668057	0.330616
	H298	H	0.393185	0.639852	0.325822
	H299	H	0.407539	0.651911	0.322560
	O300	O	1.038295	1.043943	1.017735
	H301	H	1.023761	1.041672	1.031491
	H302	H	1.051754	1.047320	1.026970
	O303	O	0.394151	0.516119	0.602152
	H304	H	0.397897	0.527141	0.603250
	H305	H	0.394302	0.526669	0.590591
	O306	O	0.627018	0.382005	0.515890
	H307	H	0.636520	0.369249	0.525334
	H308	H	0.616431	0.393349	0.514548
	O309	O	0.633180	0.403819	0.556384
	H310	H	0.630539	0.404813	0.573108
	H311	H	0.632439	0.407560	0.561158
	O312	O	-0.348010	0.708683	0.527572
	H313	H	-0.351183	0.705390	0.519879
	H314	H	-0.352491	0.712988	0.517632
	O315	O	0.953097	0.231892	0.796667
	H316	H	0.957089	0.249614	0.784282
	H317	H	0.964434	0.231554	0.811096
	O318	O	1.537140	-0.405349	-0.619111
	H319	H	1.541050	-0.408276	-0.643907
	H320	H	1.536946	-0.417859	-0.617110
	O321	O	-0.136166	0.029520	0.225222
	H322	H	-0.134943	0.001425	0.222672
	H323	H	-0.136712	0.033266	0.243233
	O324	O	0.353121	0.535660	0.697267
	H325	H	0.342301	0.552284	0.690690
	H326	H	0.356771	0.558223	0.690032
	O327	O	0.503812	0.399134	0.720175
	H328	H	0.475175	0.407041	0.722521
	H329	H	0.506409	0.398238	0.733913
	O330	O	0.010591	0.823893	0.221617
	H331	H	0.012070	0.796776	0.236402
	H332	H	0.014615	0.828716	0.213985
	O333	O	0.307417	0.733637	0.486869
	H334	H	0.296057	0.747349	0.466378
	H335	H	0.298550	0.738912	0.451606
	O336	O	-0.939932	-0.076032	1.160288
	H337	H	-0.928984	-0.088211	1.165766
	H338	H	-0.937930	-0.088151	1.168150
	O339	O	-0.151144	0.853697	1.089691
	H340	H	-0.151340	0.864161	1.074665
	H341	H	-0.145417	0.844296	1.079999
	O342	O	0.143037	1.007189	0.937730
	H343	H	0.139659	1.000608	0.942949
	H344	H	0.137162	1.009641	0.920285
	O345	O	1.027930	1.053202	0.229168
	H346	H	1.036162	1.052098	0.226449
	H347	H	1.031579	1.045715	0.237280
	O348	O	0.535963	0.373069	0.307298
	H349	H	0.538337	0.372591	0.311389
	H350	H	0.545268	0.362178	0.310726
	O351	O	0.308806	0.430038	0.555231
	H352	H	0.313390	0.457536	0.564902
	H353	H	0.304467	0.408038	0.575724
	O354	O	0.177272	1.096360	-0.079690
	H355	H	0.157739	1.091404	-0.082883
	H356	H	0.169389	1.112393	-0.065000
	O357	O	-0.401329	-0.539120	1.679812
	H358	H	-0.424674	-0.533673	1.685369
	H359	H	-0.415589	-0.544030	1.679270
	O360	O	0.428519	0.356387	0.473452
	H361	H	0.419907	0.347807	0.480332
	H362	H	0.430408	0.343610	0.492555
	O363	O	-0.137911	0.274443	1.158531
	H364	H	-0.145671	0.274525	1.172922
	H365	H	-0.122320	0.255863	1.135973
	O366	O	-0.094025	-0.051758	-0.002438
	H367	H	-0.098603	-0.044042	0.009492
	H368	H	-0.101138	-0.057652	-0.001903
	O369	O	1.198797	0.192998	1.025733
	H370	H	1.213017	0.210685	1.038507
	H371	H	1.189843	0.199306	1.044088
	O372	O	0.821627	0.048477	0.824653
	H373	H	0.795725	0.054898	0.802369
	H374	H	0.837721	0.046706	0.839879
	O375	O	0.715914	0.650067	0.699976
	H376	H	0.716341	0.628311	0.691958
	H377	H	0.725454	0.642718	0.693656
	O378	O	0.354643	0.429109	0.386604
	H379	H	0.360503	0.442629	0.398307
	H380	H	0.359855	0.435839	0.386184
	O381	O	0.462113	0.668421	0.409627
	H382	H	0.479766	0.676833	0.408967
	H383	H	0.463772	0.675204	0.403785
	O384	O	0.229338	0.910560	-0.153024
	H385	H	0.237548	0.935872	-0.156207
	H386	H	0.242588	0.913557	-0.155040
	O387	O	-0.140578	0.227667	0.981588
	H388	H	-0.145158	0.222257	0.978806
	H389	H	-0.139117	0.241045	0.989021
	O390	O	0.012005	-0.003252	-0.125217
	H391	H	0.004626	-0.003948	-0.122845
	H392	H	0.018676	-0.013630	-0.139049
	O393	O	1.202405	0.885022	1.050828
	H394	H	1.205020	0.887865	1.051018
	H395	H	1.203353	0.869285	1.042316
	O396	O	0.864629	-0.061938	-0.004312
	H397	H	0.870396	-0.054881	-0.001144
	H398	H	0.872583	-0.062138	-0.011015
	O399	O	0.320764	-0.678072	0.626846
	H400	H	0.325840	-0.648591	0.653261
	H401	H	0.318387	-0.690755	0.627959
	O402	O	0.842095	0.930067	1.146761
	H403	H	0.857104	0.915329	1.128359
	H404	H	0.837006	0.913661	1.156368
	O405	O	1.047717	1.034819	-0.124991
	H406	H	1.041318	1.018679	-0.122684
	H407	H	1.046618	1.039943	-0.122413
	O408	O	0.866636	-0.096010	-0.039621
	H409	H	0.862423	-0.109843	-0.041011
	H410	H	0.867198	-0.088544	-0.043296
	O411	O	0.960767	1.150721	-0.039087
	H412	H	0.956799	1.164575	-0.032606
	H413	H	0.949596	1.143834	-0.033133
	O414	O	0.034640	-0.195631	-0.204549
	H415	H	0.048141	-0.218825	-0.223647
	H416	H	0.054428	-0.187566	-0.200327
	O417	O	0.444745	0.487302	0.339811
	H418	H	0.451710	0.472314	0.354705
	H419	H	0.458828	0.480085	0.349522
	O420	O	-0.166918	0.164434	-0.168185
	H421	H	-0.143080	0.172853	-0.173690
	H422	H	-0.172513	0.153406	-0.162401
	O423	O	0.039237	0.231401	0.221150
	H424	H	0.047631	0.251030	0.239124
	H425	H	0.036592	0.218996	0.230300
	O426	O	0.549132	0.718970	0.700652
	H427	H	0.576753	0.713770	0.706350
	H428	H	0.564010	0.731576	0.690227
	O429	O	0.641892	0.629956	0.428679
	H430	H	0.646097	0.618855	0.439755
	H431	H	0.641231	0.620745	0.419688
	O432	O	0.535689	0.350162	0.599976
	H433	H	0.529625	0.344260	0.608888
	H434	H	0.554717	0.343100	0.606066
	O435	O	0.462306	0.632876	0.627506
	H436	H	0.475586	0.640162	0.620381
	H437	H	0.462062	0.650111	0.605486
	O438	O	0.229539	0.045136	0.182867
	H439	H	0.246589	0.050662	0.185448
	H440	H	0.239911	0.032318	0.160267
	O441	O	1.212440	-0.051853	0.095257
	H442	H	1.218578	-0.040187	0.080100
	H443	H	1.214477	-0.057359	0.093241
	O444	O	0.033760	0.806995	1.082722
	H445	H	0.024235	0.809153	1.071512
	H446	H	0.050450	0.810652	1.079980
	O447	O	0.200461	1.206313	0.189222
	H448	H	0.213879	1.181436	0.199327
	H449	H	0.176418	1.212462	0.179287
	O450	O	0.573680	0.412593	0.446535
	H451	H	0.579444	0.437048	0.454980
	H452	H	0.579973	0.407835	0.465698
	O453	O	0.692084	0.544485	0.644381
	H454	H	0.691850	0.534464	0.653807
	H455	H	0.682948	0.547931	0.645910
