data_Molecule from HDF5

_cell_length_a		16.724080
_cell_length_b		16.662068
_cell_length_c		16.607650
_cell_angle_alpha	90.026437
_cell_angle_beta	89.937544
_cell_angle_gamma	89.889407
_symmetry_space_group_name_H-M	'P 1'
_symmetry_Int_Tables_number		1

loop_
	_symmetry_equiv_pos_as_xyz
	x,y,z

loop_
	_atom_site_label
	_atom_site_type_symbol
	_atom_site_fract_x
	_atom_site_fract_y
	_atom_site_fract_z
	H0	H	0.368276	0.827813	0.697841
	H1	H	0.576468	0.137936	0.697199
	H2	H	0.579855	0.828040	0.254789
	H3	H	0.371232	0.138023	0.258196
	H4	H	0.692577	0.378816	0.820988
	H5	H	0.692859	0.586949	0.132071
	H6	H	0.251565	0.588321	0.822240
	H7	H	0.254387	0.379314	0.133361
	H8	H	0.820182	0.707350	0.369783
	H9	H	0.127992	0.704544	0.582731
	H10	H	0.818906	0.261204	0.583241
	H11	H	0.125131	0.258819	0.368231
	H12	H	0.818775	0.378116	0.698001
	H13	H	0.128024	0.587790	0.698447
	H14	H	0.820619	0.591456	0.253270
	H15	H	0.125052	0.375012	0.251664
	H16	H	0.365841	0.705650	0.822686
	H17	H	0.576910	0.703462	0.132253
	H18	H	0.575841	0.263789	0.820199
	H19	H	0.372623	0.265713	0.134634
	H20	H	0.698046	0.829091	0.369409
	H21	H	0.695274	0.136060	0.584002
	H22	H	0.252334	0.827763	0.581354
	H23	H	0.253033	0.137261	0.371512
	H24	H	0.869960	0.328170	0.197591
	H25	H	0.077832	0.638605	0.197356
	H26	H	0.075991	0.326686	0.757343
	H27	H	0.871827	0.638682	0.759177
	H28	H	0.194976	0.877169	0.320986
	H29	H	0.192002	0.086343	0.632380
	H30	H	0.753113	0.086595	0.321474
	H31	H	0.752737	0.877960	0.632497
	H32	H	0.315889	0.198768	0.878622
	H33	H	0.630564	0.199041	0.078619
	H34	H	0.317865	0.762636	0.081315
	H35	H	0.626128	0.759220	0.869262
	H36	H	0.318137	0.878444	0.198057
	H37	H	0.630188	0.082802	0.194752
	H38	H	0.315046	0.082127	0.762704
	H39	H	0.626613	0.877597	0.754869
	H40	H	0.870942	0.200758	0.319520
	H41	H	0.075732	0.202325	0.632021
	H42	H	0.080279	0.760436	0.321983
	H43	H	0.870096	0.763093	0.632713
	H44	H	0.194353	0.327102	0.871066
	H45	H	0.197793	0.635837	0.084839
	H46	H	0.752158	0.327998	0.083109
	H47	H	0.753972	0.638530	0.873836
	H48	H	0.376704	0.096608	0.564906
	H49	H	0.558792	0.873393	0.563847
	H50	H	0.566919	0.094981	0.388743
	H51	H	0.386198	0.870947	0.385031
	H52	H	0.568411	0.391589	0.091301
	H53	H	0.555935	0.567534	0.868593
	H54	H	0.382695	0.568258	0.088017
	H55	H	0.389409	0.397885	0.869300
	H56	H	0.084210	0.569902	0.387597
	H57	H	0.864174	0.572683	0.562098
	H58	H	0.083150	0.387935	0.558949
	H59	H	0.864880	0.400329	0.391984
	H60	H	0.081893	0.400804	0.566069
	H61	H	0.863259	0.569937	0.569439
	H62	H	0.083512	0.573068	0.388670
	H63	H	0.860338	0.396256	0.381674
	H64	H	0.387962	0.569079	0.086332
	H65	H	0.561863	0.577927	0.862920
	H66	H	0.563317	0.392850	0.088849
	H67	H	0.385778	0.380355	0.862618
	H68	H	0.561074	0.093468	0.383432
	H69	H	0.564386	0.871888	0.562726
	H70	H	0.380939	0.096119	0.573624
	H71	H	0.386503	0.872236	0.391843
	H72	H	0.890247	0.592378	0.064717
	H73	H	0.057757	0.377074	0.055976
	H74	H	0.068541	0.594725	0.888044
	H75	H	0.886368	0.369382	0.881460
	H76	H	0.060748	0.895200	0.586940
	H77	H	0.066035	0.072641	0.362456
	H78	H	0.890319	0.072901	0.586965
	H79	H	0.890518	0.892145	0.365982
	H80	H	0.585795	0.079477	0.889270
	H81	H	0.362349	0.076216	0.065102
	H82	H	0.583582	0.893655	0.066637
	H83	H	0.359998	0.896407	0.880189
	H84	H	0.584279	0.890836	0.065580
	H85	H	0.363188	0.070364	0.070293
	H86	H	0.582884	0.068784	0.887804
	H87	H	0.359896	0.885401	0.891621
	H88	H	0.880773	0.078166	0.591389
	H89	H	0.063334	0.070077	0.364076
	H90	H	0.062867	0.893322	0.588616
	H91	H	0.880977	0.894813	0.364524
	H92	H	0.061212	0.594074	0.883758
	H93	H	0.070053	0.370289	0.063161
	H94	H	0.876995	0.594182	0.058206
	H95	H	0.882781	0.372701	0.892367
	H96	H	0.385146	0.091894	0.566037
	H97	H	0.561734	0.871205	0.568104
	H98	H	0.560617	0.090736	0.391288
	H99	H	0.380497	0.869857	0.388940
	H100	H	0.564306	0.387412	0.091454
	H101	H	0.568214	0.566535	0.864689
	H102	H	0.385014	0.573631	0.088420
	H103	H	0.372103	0.393810	0.862473
	H104	H	0.082870	0.569890	0.390045
	H105	H	0.861280	0.577042	0.567668
	H106	H	0.087442	0.389092	0.573114
	H107	H	0.861269	0.388877	0.391417
	H108	H	0.879190	0.597840	0.072148
	H109	H	0.056508	0.372046	0.071130
	H110	H	0.061456	0.592265	0.891945
	H111	H	0.875324	0.366905	0.884837
	H112	H	0.063665	0.896224	0.587308
	H113	H	0.062175	0.073993	0.363140
	H114	H	0.880196	0.066856	0.587633
	H115	H	0.887649	0.901378	0.367989
	H116	H	0.587746	0.073567	0.879363
	H117	H	0.359365	0.076568	0.071927
	H118	H	0.583299	0.893186	0.063834
	H119	H	0.365989	0.899327	0.894692
	C120	C	0.350140	-0.008379	0.598983
	C121	C	0.593353	0.974366	0.597435
	C122	C	0.595367	-0.009146	0.355323
	C123	C	0.352785	0.973746	0.356187
	C124	C	0.595662	0.360163	-0.013716
	C125	C	0.593735	0.603187	0.968297
	C126	C	0.352359	0.603061	-0.014859
	C127	C	0.352264	0.360875	0.968841
	C128	C	-0.017974	0.604866	0.355462
	C129	C	0.965328	0.604722	0.598590
	C130	C	-0.018351	0.361117	0.598078
	C131	C	0.964019	0.362290	0.355484
	C132	C	0.851180	0.491891	0.097712
	C133	C	0.094439	0.475126	0.097224
	C134	C	0.094845	0.490819	0.855825
	C135	C	0.851345	0.473476	0.855423
	C136	C	0.095140	0.861860	0.485009
	C137	C	0.094491	0.104081	0.466942
	C138	C	0.851989	0.104097	0.485557
	C139	C	0.853434	0.862953	0.468714
	C140	C	0.481403	0.103729	0.856242
	C141	C	0.465309	0.103831	0.098843
	C142	C	0.481139	0.861330	0.097612
	C143	C	0.463874	0.861060	0.855329
	C144	C	0.349235	0.874467	0.658056
	C145	C	0.595217	0.091038	0.657467
	C146	C	0.598364	0.874334	0.294872
	C147	C	0.351938	0.091021	0.297349
	C148	C	0.653252	0.359787	0.867851
	C149	C	0.653256	0.605692	0.085321
	C150	C	0.291746	0.606211	0.868745
	C151	C	0.294361	0.360879	0.086790
	C152	C	0.866386	0.666457	0.351890
	C153	C	0.081740	0.664184	0.600713
	C154	C	0.865505	0.301367	0.600927
	C155	C	0.079319	0.300001	0.350923
	C156	C	0.865193	0.359685	0.658047
	C157	C	0.081567	0.606222	0.658322
	C158	C	0.866584	0.608981	0.293864
	C159	C	0.079391	0.357856	0.293266
	C160	C	0.348641	0.664452	0.868878
	C161	C	0.595496	0.663301	0.085478
	C162	C	0.595382	0.302632	0.867606
	C163	C	0.352944	0.304200	0.087234
	C164	C	0.656534	0.874742	0.352023
	C165	C	0.654221	0.090261	0.601224
	C166	C	0.291665	0.874604	0.600281
	C167	C	0.293217	0.090816	0.353752
	C168	C	0.850693	0.374831	0.157632
	C169	C	0.096739	0.591687	0.157414
	C170	C	0.095540	0.373515	0.796549
	C171	C	0.851919	0.591621	0.798069
	C172	C	0.155037	0.859050	0.367865
	C173	C	0.152633	0.105619	0.585061
	C174	C	0.792888	0.105345	0.368057
	C175	C	0.793175	0.860087	0.585773
	C176	C	0.362927	0.160033	0.858429
	C177	C	0.583430	0.160318	0.097988
	C178	C	0.364389	0.802549	0.099647
	C179	C	0.579617	0.799870	0.851460
	C180	C	0.364653	0.860049	0.157700
	C181	C	0.583252	0.102595	0.155810
	C182	C	0.362659	0.102235	0.800707
	C183	C	0.580065	0.858477	0.794548
	C184	C	0.851533	0.161801	0.367034
	C185	C	0.094761	0.162937	0.585015
	C186	C	0.098203	0.800758	0.368441
	C187	C	0.851318	0.802910	0.585807
	C188	C	0.154163	0.373779	0.853314
	C189	C	0.156111	0.590451	0.101396
	C190	C	0.792358	0.374591	0.100563
	C191	C	0.793633	0.591426	0.855236
	C192	C	0.374100	0.073761	0.575117
	C193	C	0.568573	0.893254	0.571998
	C194	C	0.570116	0.071992	0.380717
	C195	C	0.377202	0.892166	0.381313
	C196	C	0.572103	0.383793	0.068856
	C197	C	0.569058	0.577900	0.886594
	C198	C	0.378026	0.577533	0.066565
	C199	C	0.375679	0.384171	0.886232
	C200	C	0.062615	0.578424	0.381558
	C201	C	0.883988	0.580154	0.573413
	C202	C	0.063014	0.385595	0.573113
	C203	C	0.883334	0.388022	0.381217
	C204	C	0.875260	0.573553	0.072249
	C205	C	0.068769	0.394221	0.070976
	C206	C	0.070641	0.572367	0.880720
	C207	C	0.874985	0.391060	0.879271
	C208	C	0.069681	0.887652	0.566453
	C209	C	0.070752	0.079370	0.384701
	C210	C	0.876687	0.079653	0.567484
	C211	C	0.879118	0.888727	0.387248
	C212	C	0.564021	0.080607	0.878778
	C213	C	0.383098	0.081087	0.075758
	C214	C	0.562556	0.885705	0.072356
	C215	C	0.383029	0.886615	0.881268
	Zn216	Zn	0.472237	-0.017194	0.727072
	Zn217	Zn	0.473772	-0.018142	0.227450
	Zn218	Zn	0.722647	0.482474	-0.023214
	Zn219	Zn	0.223767	0.482127	-0.023210
	Zn220	Zn	-0.025978	0.733385	0.477087
	Zn221	Zn	-0.027317	0.232384	0.475679
	Zn222	Zn	-0.026410	0.482887	0.726918
	Zn223	Zn	-0.027082	0.483390	0.226218
	Zn224	Zn	0.472679	0.731886	-0.023182
	Zn225	Zn	0.473562	0.233028	-0.022704
	Zn226	Zn	0.723478	-0.017544	0.477174
	Zn227	Zn	0.222846	-0.017069	0.476098
	N228	N	0.384871	0.948516	0.657515
	N229	N	0.557977	0.017860	0.655439
	N230	N	0.560882	0.947443	0.296836
	N231	N	0.388266	0.017169	0.298665
	N232	N	0.653919	0.394656	0.942794
	N233	N	0.652342	0.569022	0.011370
	N234	N	0.293704	0.568852	0.942252
	N235	N	0.293571	0.395333	0.011977
	N236	N	0.939400	0.664271	0.389350
	N237	N	0.008268	0.663566	0.564415
	N238	N	0.939050	0.301955	0.564235
	N239	N	0.006540	0.302496	0.388997
	N240	N	0.938596	0.396107	0.656658
	N241	N	0.008148	0.569736	0.657063
	N242	N	0.939742	0.571593	0.295608
	N243	N	0.006675	0.395931	0.295886
	N244	N	0.385656	0.662469	0.942348
	N245	N	0.559296	0.662032	0.011440
	N246	N	0.560463	0.302361	0.942465
	N247	N	0.387926	0.303811	0.012679
	N248	N	0.654974	0.948326	0.388928
	N249	N	0.653239	0.016716	0.564420
	N250	N	0.291811	0.948819	0.564367
	N251	N	0.293648	0.016945	0.389871
	N252	N	0.886632	0.448786	0.155915
	N253	N	0.059257	0.518795	0.155221
	N254	N	0.059280	0.447199	0.797840
	N255	N	0.887049	0.517173	0.797949
	N256	N	0.153386	0.896075	0.441535
	N257	N	0.152985	0.070040	0.510450
	N258	N	0.792608	0.070465	0.442953
	N259	N	0.794301	0.896740	0.511785
	N260	N	0.437895	0.161387	0.891959
	N261	N	0.508983	0.161660	0.063572
	N262	N	0.438073	0.802875	0.063326
	N263	N	0.506259	0.801099	0.888423
	N264	N	0.438514	0.895781	0.156770
	N265	N	0.508726	0.068324	0.156764
	N266	N	0.437504	0.068189	0.798971
	N267	N	0.507000	0.895985	0.796830
	N268	N	0.887208	0.161520	0.441370
	N269	N	0.059717	0.162579	0.510309
	N270	N	0.061430	0.802348	0.442413
	N271	N	0.888144	0.804590	0.511962
	N272	N	0.154070	0.447796	0.889447
	N273	N	0.154886	0.516735	0.064841
	N274	N	0.792346	0.448531	0.064130
	N275	N	0.792781	0.516706	0.889840
	O276	O	0.087017	1.002634	-0.037224
	H277	H	0.090540	1.014681	-0.021738
	H278	H	0.088752	0.999242	-0.043748
	O279	O	0.620532	0.602004	0.326701
	H280	H	0.620580	0.585504	0.323527
	H281	H	0.617998	0.614401	0.322258
	O282	O	1.197344	-0.217349	0.967464
	H283	H	1.199438	-0.217686	0.935929
	H284	H	1.206177	-0.237366	0.957590
	O285	O	0.315246	0.474693	0.268268
	H286	H	0.314637	0.468758	0.283704
	H287	H	0.336330	0.476382	0.259882
	O288	O	0.517196	0.530450	0.508814
	H289	H	0.506823	0.546967	0.510566
	H290	H	0.520824	0.528875	0.516784
	O291	O	1.258152	0.620317	0.602840
	H292	H	1.280592	0.604839	0.590746
	H293	H	1.257736	0.599981	0.598806
	O294	O	0.986338	0.068161	0.851939
	H295	H	0.983888	0.071880	0.844538
	H296	H	0.987940	0.052326	0.853771
	O297	O	1.065651	0.923337	-0.073434
	H298	H	1.065313	0.924958	-0.085082
	H299	H	1.067933	0.927020	-0.071533
	O300	O	-0.129054	-0.154554	1.101483
	H301	H	-0.130044	-0.162011	1.072526
	H302	H	-0.133842	-0.134044	1.096890
	O303	O	0.388226	0.691259	0.537493
	H304	H	0.387921	0.686502	0.518375
	H305	H	0.406022	0.688873	0.538947
	O306	O	0.428336	0.549486	0.444497
	H307	H	0.434877	0.550087	0.428045
	H308	H	0.433116	0.553647	0.449129
	O309	O	0.496800	0.698821	0.695915
	H310	H	0.509585	0.700905	0.708357
	H311	H	0.499450	0.694762	0.705833
	O312	O	0.262295	0.267185	0.684853
	H313	H	0.228416	0.236518	0.714362
	H314	H	0.260074	0.278306	0.650522
	O315	O	1.539452	1.488838	1.593713
	H316	H	1.541781	1.495745	1.598816
	H317	H	1.538452	1.480992	1.594048
	O318	O	0.701597	0.257395	0.442773
	H319	H	0.731237	0.225314	0.444148
	H320	H	0.671214	0.254516	0.449147
	O321	O	-0.087532	0.764612	0.920077
	H322	H	-0.068507	0.758289	0.915973
	H323	H	-0.074983	0.772835	0.927594
	O324	O	1.032687	0.921959	0.204231
	H325	H	1.034181	0.915813	0.194402
	H326	H	1.023004	0.902424	0.204665
	O327	O	0.254299	-0.271565	0.709019
	H328	H	0.277860	-0.295252	0.688837
	H329	H	0.262384	-0.248331	0.697338
	O330	O	0.690464	0.699360	0.620634
	H331	H	0.695804	0.698533	0.608662
	H332	H	0.681488	0.686400	0.629796
	O333	O	0.696782	0.453742	0.258055
	H334	H	0.692467	0.453911	0.236536
	H335	H	0.710215	0.430426	0.252135
	O336	O	0.253256	0.699989	0.443537
	H337	H	0.270606	0.687347	0.450328
	H338	H	0.223994	0.729507	0.443911
	O339	O	1.156609	-0.199910	1.160135
	H340	H	1.150138	-0.209600	1.157521
	H341	H	1.154313	-0.188338	1.132474
	O342	O	0.677577	0.445187	-0.374703
	H343	H	0.669261	0.451349	-0.374721
	H344	H	0.686307	0.435398	-0.392886
	O345	O	0.185343	0.922428	0.761704
	H346	H	0.196953	0.925482	0.757600
	H347	H	0.179607	0.937918	0.752052
	O348	O	0.644666	0.541532	0.665871
	H349	H	0.638296	0.519216	0.662948
	H350	H	0.660163	0.541643	0.677184
	O351	O	0.685531	1.273465	0.264162
	H352	H	0.695380	1.283205	0.301238
	H353	H	0.718384	1.241200	0.234527
	O354	O	0.442760	-0.476381	0.707771
	H355	H	0.434348	-0.477983	0.693401
	H356	H	0.440760	-0.472008	0.709892
	O357	O	1.187149	0.015596	1.188338
	H358	H	1.183941	-0.001557	1.193816
	H359	H	1.198730	-0.002299	1.195119
	O360	O	0.738434	0.916836	0.922889
	H361	H	0.735865	0.916663	0.890976
	H362	H	0.741673	0.930534	0.928563
	O363	O	0.078481	-0.208615	-0.214187
	H364	H	0.095809	-0.215431	-0.220978
	H365	H	0.098585	-0.215153	-0.221370
	O366	O	0.700674	0.447261	0.467992
	H367	H	0.708924	0.433238	0.455614
	H368	H	0.694779	0.461712	0.461361
	O369	O	0.605483	0.497709	0.413601
	H370	H	0.610266	0.487122	0.411779
	H371	H	0.608167	0.494699	0.420486
	O372	O	0.757880	0.767271	0.017078
	H373	H	0.742301	0.754067	0.002672
	H374	H	0.761684	0.779748	-0.005805
	O375	O	1.509460	0.255266	0.249715
	H376	H	1.528050	0.235349	0.236355
	H377	H	1.541467	0.252151	0.239038
	O378	O	0.236693	0.414409	0.431061
	H379	H	0.232472	0.424330	0.430281
	H380	H	0.247615	0.410399	0.438790
	O381	O	-0.081424	0.789262	0.802803
	H382	H	-0.074685	0.798716	0.815118
	H383	H	-0.056758	0.782701	0.806134
	O384	O	0.752302	0.199898	0.941809
	H385	H	0.774231	0.195492	0.931919
	H386	H	0.724064	0.232717	0.938930
	O387	O	1.316457	0.540471	0.315982
	H388	H	1.335493	0.528307	0.308080
	H389	H	1.299678	0.537004	0.294712
	O390	O	0.266729	0.690717	0.268673
	H391	H	0.259712	0.679539	0.303073
	H392	H	0.256166	0.689576	0.251330
	O393	O	0.247645	0.455865	0.696119
	H394	H	0.235039	0.434973	0.711270
	H395	H	0.247231	0.438496	0.707063
	O396	O	-0.000204	1.030973	0.771641
	H397	H	-0.014664	1.032458	0.771652
	H398	H	-0.022758	1.025508	0.768586
	O399	O	-0.217657	0.026917	1.025890
	H400	H	-0.227116	0.021688	1.006954
	H401	H	-0.220643	0.027012	1.020784
	O402	O	0.700586	0.636755	0.476336
	H403	H	0.703871	0.647290	0.478400
	H404	H	0.709519	0.647906	0.454239
	O405	O	0.786115	0.171195	1.168210
	H406	H	0.808309	0.155201	1.152350
	H407	H	0.804901	0.151455	1.150496
	O408	O	-0.294528	0.250083	-0.293828
	H409	H	-0.301751	0.275794	-0.314385
	H410	H	-0.314555	0.261500	-0.291425
	O411	O	0.967532	0.962903	0.763808
	H412	H	0.955582	0.955930	0.770460
	H413	H	0.948418	0.944499	0.759403
	O414	O	1.127310	-0.035371	1.045071
	H415	H	1.136594	-0.044088	1.033282
	H416	H	1.125206	-0.034691	1.043441
	O417	O	0.411703	0.358248	0.319533
	H418	H	0.416342	0.356949	0.335881
	H419	H	0.434731	0.349723	0.309382
	O420	O	0.408991	0.455046	0.492104
	H421	H	0.416456	0.453236	0.496428
	H422	H	0.414568	0.474597	0.472033
	O423	O	0.192015	0.211661	1.006023
	H424	H	0.227240	0.244983	1.015617
	H425	H	0.186028	0.190877	1.047854
	O426	O	0.472685	0.368482	0.564884
	H427	H	0.471585	0.381818	0.570979
	H428	H	0.466000	0.360221	0.569308
	O429	O	0.771413	1.133734	0.768666
	H430	H	0.742082	1.159596	0.736356
	H431	H	0.788348	1.139389	0.777646
	O432	O	-0.086691	1.003418	0.966372
	H433	H	-0.088540	1.005869	0.966900
	H434	H	-0.075014	1.001600	0.959771
	O435	O	1.160293	1.037623	0.903663
	H436	H	1.144189	1.047788	0.902486
	H437	H	1.174499	1.036732	0.921178
	O438	O	0.437624	-0.747770	0.707025
	H439	H	0.408187	-0.752068	0.701526
	H440	H	0.422940	-0.776562	0.733620
	O441	O	-0.426079	0.275051	-0.435083
	H442	H	-0.447437	0.279145	-0.447775
	H443	H	-0.437602	0.280020	-0.441427
	O444	O	0.246541	0.261296	0.512488
	H445	H	0.262410	0.277708	0.507369
	H446	H	0.215514	0.224950	0.508720
	O447	O	-0.274939	1.729428	0.226231
	H448	H	-0.274395	1.723737	0.238241
	H449	H	-0.269619	1.737726	0.190232
	O450	O	-0.492813	0.695839	1.422987
	H451	H	-0.485153	0.688630	1.421836
	H452	H	-0.489615	0.697021	1.419355
	O453	O	0.335564	0.468170	0.581280
	H454	H	0.337497	0.472401	0.574459
	H455	H	0.334799	0.451815	0.562114
	O456	O	0.954930	0.089286	1.046446
	H457	H	0.948623	0.089223	1.033997
	H458	H	0.954217	0.072441	1.049774
	O459	O	0.940611	1.198741	-0.238980
	H460	H	0.936352	1.213198	-0.256844
	H461	H	0.936953	1.211942	-0.223962
	O462	O	0.274240	0.285989	0.283960
	H463	H	0.288080	0.298287	0.301321
	H464	H	0.293111	0.310031	0.296879
	O465	O	0.929099	0.038101	0.199455
	H466	H	0.937018	0.028946	0.195724
	H467	H	0.925870	0.037021	0.205905
	O468	O	0.433414	0.254468	0.469563
	H469	H	0.424370	0.257481	0.465614
	H470	H	0.422512	0.263763	0.480942
	O471	O	1.015285	0.747353	1.036313
	H472	H	1.026549	0.753385	1.028195
	H473	H	1.003717	0.741310	1.063695
	O474	O	-0.046230	0.215504	0.986717
	H475	H	-0.032349	0.213014	1.002108
	H476	H	-0.029158	0.218678	0.988067
	O477	O	0.746452	0.760673	0.750499
	H478	H	0.717153	0.732721	0.732937
	H479	H	0.777694	0.770759	0.774610
	O480	O	0.160970	0.169690	0.782982
	H481	H	0.151441	0.149320	0.808856
	H482	H	0.134185	0.151298	0.793995
	O483	O	0.547333	0.547548	0.276648
	H484	H	0.541360	0.557151	0.270095
	H485	H	0.556283	0.565761	0.279301
	O486	O	1.172421	0.188060	1.179402
	H487	H	1.202673	0.209786	1.210484
	H488	H	1.165354	0.151733	1.187158
	O489	O	0.764228	0.962626	0.188397
	H490	H	0.771810	0.965826	0.193059
	H491	H	0.750114	0.952557	0.181001
	O492	O	-0.247364	0.026660	-0.161528
	H493	H	-0.238594	0.046777	-0.160877
	H494	H	-0.259361	0.036727	-0.178741
	O495	O	0.004609	1.196755	1.185222
	H496	H	0.020808	1.201206	1.187996
	H497	H	0.012349	1.204321	1.196501
	O498	O	0.943433	0.764613	1.197712
	H499	H	0.932081	0.743042	1.217084
	H500	H	0.915819	0.763296	1.196137
	O501	O	0.441711	0.704588	0.255981
	H502	H	0.420792	0.708375	0.252297
	H503	H	0.428231	0.725602	0.244685
