data_Molecule from HDF5

_cell_length_a		16.325521
_cell_length_b		16.364085
_cell_length_c		16.185691
_cell_angle_alpha	90.273297
_cell_angle_beta	89.773978
_cell_angle_gamma	90.074037
_symmetry_space_group_name_H-M	'P 1'
_symmetry_Int_Tables_number		1

loop_
	_symmetry_equiv_pos_as_xyz
	x,y,z

loop_
	_atom_site_label
	_atom_site_type_symbol
	_atom_site_fract_x
	_atom_site_fract_y
	_atom_site_fract_z
	H0	H	0.403235	0.837338	0.709466
	H1	H	0.602808	0.162428	0.707657
	H2	H	0.603317	0.837644	0.276454
	H3	H	0.407181	0.162974	0.280627
	H4	H	0.719249	0.396412	0.830894
	H5	H	0.716981	0.599488	0.156916
	H6	H	0.288324	0.597131	0.829412
	H7	H	0.286318	0.400398	0.158590
	H8	H	0.843213	0.717271	0.389439
	H9	H	0.164875	0.717607	0.595910
	H10	H	0.842450	0.278887	0.594822
	H11	H	0.166171	0.281696	0.390063
	H12	H	0.840870	0.396981	0.708886
	H13	H	0.166793	0.596796	0.708221
	H14	H	0.840179	0.595284	0.280427
	H15	H	0.165754	0.398556	0.275021
	H16	H	0.402485	0.714750	0.829698
	H17	H	0.603079	0.716296	0.157018
	H18	H	0.604347	0.281514	0.831187
	H19	H	0.400916	0.284502	0.158516
	H20	H	0.720248	0.836896	0.389826
	H21	H	0.722966	0.159961	0.595454
	H22	H	0.286807	0.837177	0.593237
	H23	H	0.287592	0.161299	0.392398
	H24	H	0.902151	0.336389	0.208106
	H25	H	0.102225	0.660429	0.210591
	H26	H	0.102252	0.334887	0.776908
	H27	H	0.902786	0.660091	0.776827
	H28	H	0.220912	0.897473	0.328558
	H29	H	0.218393	0.099039	0.656118
	H30	H	0.788598	0.096961	0.329071
	H31	H	0.786359	0.896979	0.655806
	H32	H	0.340403	0.214681	0.895986
	H33	H	0.664571	0.219213	0.097291
	H34	H	0.341166	0.784413	0.095326
	H35	H	0.665242	0.780432	0.889080
	H36	H	0.340853	0.902669	0.209353
	H37	H	0.666915	0.099038	0.207699
	H38	H	0.340356	0.100690	0.778538
	H39	H	0.666303	0.899788	0.776201
	H40	H	0.902930	0.213477	0.329486
	H41	H	0.104419	0.215055	0.655149
	H42	H	0.105840	0.781321	0.328971
	H43	H	0.902440	0.782399	0.656014
	H44	H	0.221203	0.335854	0.890487
	H45	H	0.219523	0.660300	0.096562
	H46	H	0.783437	0.337347	0.094947
	H47	H	0.786491	0.660783	0.892811
	H48	H	0.408789	0.113202	0.580251
	H49	H	0.594393	0.888211	0.574157
	H50	H	0.591188	0.115211	0.392757
	H51	H	0.404958	0.879836	0.395216
	H52	H	0.592744	0.409138	0.110496
	H53	H	0.591186	0.587858	0.878864
	H54	H	0.398113	0.588248	0.113090
	H55	H	0.416919	0.408615	0.880369
	H56	H	0.122329	0.597371	0.399523
	H57	H	0.887388	0.590642	0.587486
	H58	H	0.115758	0.407839	0.574203
	H59	H	0.886877	0.410198	0.394489
	H60	H	0.118832	0.412474	0.589742
	H61	H	0.888305	0.591989	0.582472
	H62	H	0.116741	0.588578	0.409483
	H63	H	0.884602	0.394767	0.399430
	H64	H	0.419118	0.584826	0.104698
	H65	H	0.594061	0.594300	0.875177
	H66	H	0.593064	0.409648	0.110887
	H67	H	0.411491	0.401357	0.876775
	H68	H	0.595268	0.110992	0.412012
	H69	H	0.603172	0.880710	0.586759
	H70	H	0.406173	0.117591	0.589734
	H71	H	0.421240	0.886588	0.397300
	H72	H	0.919868	0.608458	0.078171
	H73	H	0.096143	0.385378	0.073541
	H74	H	0.097353	0.612902	0.901834
	H75	H	0.908445	0.382759	0.900952
	H76	H	0.087844	0.902407	0.608395
	H77	H	0.086345	0.078698	0.381702
	H78	H	0.905714	0.090844	0.611393
	H79	H	0.908692	0.908973	0.375182
	H80	H	0.617299	0.090713	0.906326
	H81	H	0.386255	0.093006	0.091448
	H82	H	0.621380	0.903685	0.087525
	H83	H	0.385255	0.902504	0.895362
	H84	H	0.619351	0.905629	0.079699
	H85	H	0.387514	0.096218	0.084765
	H86	H	0.618503	0.089988	0.899770
	H87	H	0.389734	0.902759	0.912078
	H88	H	0.915056	0.081827	0.605980
	H89	H	0.092641	0.105664	0.371362
	H90	H	0.102853	0.906283	0.610994
	H91	H	0.916746	0.908007	0.378058
	H92	H	0.095316	0.612343	0.900402
	H93	H	0.102879	0.379639	0.088555
	H94	H	0.896733	0.616356	0.080013
	H95	H	0.912186	0.384129	0.901432
	H96	H	0.416142	0.113628	0.588064
	H97	H	0.587116	0.884153	0.589219
	H98	H	0.609644	0.119021	0.399746
	H99	H	0.409765	0.886294	0.410387
	H100	H	0.591997	0.409486	0.110229
	H101	H	0.598436	0.587715	0.875997
	H102	H	0.412731	0.605239	0.113698
	H103	H	0.407753	0.409822	0.877518
	H104	H	0.119652	0.583951	0.395349
	H105	H	0.889497	0.586987	0.584257
	H106	H	0.122206	0.396931	0.585685
	H107	H	0.891385	0.405146	0.410168
	H108	H	0.911720	0.617778	0.100107
	H109	H	0.086555	0.384436	0.087538
	H110	H	0.094737	0.612197	0.902800
	H111	H	0.909953	0.383547	0.904782
	H112	H	0.094007	0.916991	0.604866
	H113	H	0.113169	0.084931	0.371719
	H114	H	0.918288	0.094788	0.608606
	H115	H	0.912997	0.900696	0.374557
	H116	H	0.619243	0.095799	0.902681
	H117	H	0.389014	0.088930	0.085607
	H118	H	0.618160	0.911521	0.085852
	H119	H	0.391348	0.917153	0.902275
	C120	C	0.380884	0.007966	0.615708
	C121	C	0.625308	0.990710	0.614232
	C122	C	0.627031	0.007821	0.371092
	C123	C	0.383238	0.991504	0.372069
	C124	C	0.623160	0.378052	0.002620
	C125	C	0.623512	0.620299	0.984997
	C126	C	0.380986	0.621476	0.002260
	C127	C	0.381658	0.377867	0.986452
	C128	C	0.012071	0.618870	0.371974
	C129	C	0.995461	0.619808	0.614976
	C130	C	0.011989	0.375634	0.613900
	C131	C	0.995053	0.374912	0.370740
	C132	C	0.879837	0.507308	0.115171
	C133	C	0.124385	0.490323	0.114125
	C134	C	0.125615	0.505777	0.871074
	C135	C	0.881213	0.490309	0.872068
	C136	C	0.125317	0.877527	0.500422
	C137	C	0.126143	0.119646	0.483222
	C138	C	0.883337	0.118345	0.500682
	C139	C	0.882380	0.876491	0.484047
	C140	C	0.511129	0.121483	0.873300
	C141	C	0.494672	0.122448	0.116634
	C142	C	0.512251	0.878404	0.114736
	C143	C	0.495534	0.877490	0.871945
	C144	C	0.382960	0.885975	0.671419
	C145	C	0.623594	0.113301	0.670226
	C146	C	0.623968	0.885896	0.314498
	C147	C	0.386386	0.114201	0.317779
	C148	C	0.680358	0.377742	0.879683
	C149	C	0.679028	0.619572	0.108131
	C150	C	0.325844	0.618257	0.878543
	C151	C	0.325020	0.380361	0.109716
	C152	C	0.890860	0.676853	0.371743
	C153	C	0.116833	0.677921	0.614914
	C154	C	0.890558	0.318080	0.614103
	C155	C	0.117488	0.319571	0.370706
	C156	C	0.889722	0.376779	0.670874
	C157	C	0.117764	0.617963	0.670836
	C158	C	0.889369	0.616648	0.317124
	C159	C	0.117336	0.378002	0.313619
	C160	C	0.382377	0.677024	0.878751
	C161	C	0.621894	0.677078	0.108108
	C162	C	0.623336	0.320222	0.880059
	C163	C	0.381695	0.322479	0.109653
	C164	C	0.682148	0.885559	0.370917
	C165	C	0.683282	0.112063	0.614182
	C166	C	0.324738	0.885928	0.613921
	C167	C	0.326743	0.113239	0.373389
	C168	C	0.881611	0.385011	0.170559
	C169	C	0.122296	0.612084	0.171724
	C170	C	0.123296	0.383594	0.814765
	C171	C	0.882900	0.611721	0.815277
	C172	C	0.182607	0.877671	0.377621
	C173	C	0.181372	0.119207	0.606689
	C174	C	0.827146	0.117026	0.377922
	C175	C	0.824947	0.877355	0.606792
	C176	C	0.389010	0.176899	0.875131
	C177	C	0.616454	0.180070	0.116208
	C178	C	0.389815	0.822601	0.114641
	C179	C	0.617025	0.819860	0.870602
	C180	C	0.389603	0.881674	0.171226
	C181	C	0.617905	0.119892	0.170714
	C182	C	0.388979	0.119728	0.817201
	C183	C	0.617595	0.878952	0.814195
	C184	C	0.884344	0.174474	0.377907
	C185	C	0.124786	0.176910	0.606273
	C186	C	0.125492	0.819638	0.377890
	C187	C	0.883040	0.820469	0.606999
	C188	C	0.182250	0.384114	0.871591
	C189	C	0.180819	0.611985	0.115048
	C190	C	0.822569	0.385662	0.114181
	C191	C	0.824945	0.612137	0.873060
	C192	C	0.403569	0.092869	0.592738
	C193	C	0.601734	0.906241	0.590370
	C194	C	0.605025	0.093090	0.394744
	C195	C	0.405465	0.906210	0.394328
	C196	C	0.599616	0.402427	0.088222
	C197	C	0.601054	0.596908	0.899183
	C198	C	0.403400	0.599319	0.088054
	C199	C	0.405091	0.400097	0.900466
	C200	C	0.097301	0.596379	0.394655
	C201	C	0.910404	0.596541	0.591851
	C202	C	0.096957	0.399043	0.590201
	C203	C	0.909857	0.396781	0.394423
	C204	C	0.902799	0.592325	0.092662
	C205	C	0.101870	0.405270	0.090189
	C206	C	0.102584	0.590609	0.894872
	C207	C	0.903730	0.405558	0.895367
	C208	C	0.101625	0.901478	0.585939
	C209	C	0.103934	0.096555	0.397257
	C210	C	0.906261	0.095702	0.586501
	C211	C	0.905882	0.899252	0.398236
	C212	C	0.596262	0.098787	0.896239
	C213	C	0.409578	0.099566	0.093993
	C214	C	0.597588	0.900480	0.091326
	C215	C	0.410691	0.900762	0.896272
	Zn216	Zn	0.503377	0.000168	0.744282
	Zn217	Zn	0.505022	0.000280	0.243524
	Zn218	Zn	0.751355	0.498928	-0.006607
	Zn219	Zn	0.253744	0.498455	-0.006201
	Zn220	Zn	0.004047	0.748660	0.492355
	Zn221	Zn	0.004158	0.246505	0.492201
	Zn222	Zn	0.003327	0.497471	0.743155
	Zn223	Zn	0.002415	0.498121	0.242995
	Zn224	Zn	0.503106	0.749075	-0.006770
	Zn225	Zn	0.502964	0.249998	-0.004503
	Zn226	Zn	0.754523	-0.002353	0.492513
	Zn227	Zn	0.253577	-0.001249	0.492545
	N228	N	0.417027	0.962845	0.672686
	N229	N	0.588012	0.037109	0.670337
	N230	N	0.590523	0.962961	0.314288
	N231	N	0.420810	0.037517	0.316824
	N232	N	0.680421	0.413060	0.957045
	N233	N	0.680141	0.584853	0.030641
	N234	N	0.324343	0.584757	0.956369
	N235	N	0.324909	0.414017	0.032006
	N236	N	0.968243	0.678357	0.405162
	N237	N	0.039832	0.679135	0.580978
	N238	N	0.967567	0.317224	0.579519
	N239	N	0.040396	0.317453	0.405316
	N240	N	0.966225	0.412000	0.670850
	N241	N	0.041125	0.582700	0.671087
	N242	N	0.965575	0.580880	0.317481
	N243	N	0.040149	0.411529	0.313250
	N244	N	0.415612	0.679390	0.956718
	N245	N	0.588483	0.677924	0.030291
	N246	N	0.588464	0.320622	0.957567
	N247	N	0.416113	0.320639	0.031921
	N248	N	0.683994	0.962477	0.405272
	N249	N	0.684557	0.034764	0.580198
	N250	N	0.323200	0.962860	0.580149
	N251	N	0.325021	0.035972	0.406723
	N252	N	0.916584	0.461519	0.171237
	N253	N	0.087858	0.535301	0.171254
	N254	N	0.088896	0.460135	0.814428
	N255	N	0.917341	0.535107	0.814800
	N256	N	0.182764	0.912685	0.454921
	N257	N	0.182342	0.084273	0.529284
	N258	N	0.826503	0.082822	0.455296
	N259	N	0.824377	0.911329	0.529267
	N260	N	0.465943	0.178262	0.909210
	N261	N	0.539030	0.181545	0.083061
	N262	N	0.466902	0.820563	0.080117
	N263	N	0.540161	0.818892	0.905727
	N264	N	0.466830	0.915555	0.171482
	N265	N	0.541317	0.084779	0.171250
	N266	N	0.466229	0.086100	0.815765
	N267	N	0.541031	0.914210	0.814991
	N268	N	0.918738	0.175315	0.455416
	N269	N	0.091225	0.177318	0.528568
	N270	N	0.090565	0.819403	0.455439
	N271	N	0.917835	0.819569	0.529542
	N272	N	0.183647	0.461212	0.906065
	N273	N	0.182083	0.535318	0.079908
	N274	N	0.821422	0.462670	0.080422
	N275	N	0.823585	0.535518	0.907629
	O276	O	1.045152	-0.070928	0.930866
	H277	H	1.041341	-0.075556	0.936551
	H278	H	1.040437	-0.073464	0.926611
	O279	O	0.565426	0.473803	0.360081
	H280	H	0.561403	0.479871	0.357192
	H281	H	0.582827	0.482521	0.362694
	O282	O	0.477129	0.566741	0.386855
	H283	H	0.470351	0.568472	0.384109
	H284	H	0.472638	0.570368	0.380197
	O285	O	0.434622	0.508511	0.375424
	H286	H	0.435170	0.509332	0.373485
	H287	H	0.437748	0.511652	0.363283
	O288	O	0.598670	0.466768	0.463290
	H289	H	0.603458	0.458497	0.466207
	H290	H	0.595693	0.461038	0.456331
	O291	O	0.089297	-0.034935	0.842645
	H292	H	0.102641	-0.049252	0.838246
	H293	H	0.097312	-0.044761	0.821879
	O294	O	1.046362	1.029389	0.029076
	H295	H	1.028282	1.034907	0.035324
	H296	H	1.054683	1.022738	0.029733
	O297	O	0.934753	1.093169	-0.021736
	H298	H	0.950701	1.104860	-0.020190
	H299	H	0.932162	1.092831	-0.010675
	O300	O	0.408873	0.629543	0.587216
	H301	H	0.407315	0.629032	0.581938
	H302	H	0.412794	0.627371	0.589805
	O303	O	0.521425	0.445322	0.508409
	H304	H	0.525769	0.445779	0.498646
	H305	H	0.514962	0.437554	0.504043
	O306	O	0.149273	0.888766	0.996264
	H307	H	0.141968	0.884570	0.986950
	H308	H	0.161285	0.896528	0.985399
	O309	O	0.648044	0.482214	0.581967
	H310	H	0.637584	0.473208	0.583166
	H311	H	0.647306	0.480503	0.586092
	O312	O	1.094061	1.117374	1.054413
	H313	H	1.096321	1.117260	1.039661
	H314	H	1.094410	1.105093	1.054985
	O315	O	0.955109	1.002404	0.119817
	H316	H	0.953578	1.013495	0.106082
	H317	H	0.968568	0.997436	0.134248
	O318	O	0.878723	-0.068008	1.126342
	H319	H	0.880256	-0.065549	1.140355
	H320	H	0.875591	-0.072178	1.132284
	O321	O	0.467966	0.398043	0.654087
	H322	H	0.469176	0.401654	0.665455
	H323	H	0.464543	0.408882	0.652738
	O324	O	-0.038818	1.013765	0.948960
	H325	H	-0.046972	1.006040	0.952378
	H326	H	-0.039643	1.020426	0.951154
	O327	O	0.146304	1.105601	1.106133
	H328	H	0.162492	1.095882	1.108284
	H329	H	0.159019	1.101493	1.105538
	O330	O	-0.551887	-0.537056	-0.442227
	H331	H	-0.566336	-0.538457	-0.446198
	H332	H	-0.548644	-0.551731	-0.429079
	O333	O	0.541210	0.607890	0.497658
	H334	H	0.537964	0.601773	0.510658
	H335	H	0.536350	0.614574	0.500203
	O336	O	-0.105904	-0.072206	0.041108
	H337	H	-0.104479	-0.068910	0.058206
	H338	H	-0.102745	-0.055258	0.043929
	O339	O	0.029892	0.036453	-0.115231
	H340	H	0.035191	0.035679	-0.137064
	H341	H	0.011944	0.052002	-0.109757
	O342	O	0.464304	0.430158	0.469547
	H343	H	0.462144	0.430105	0.462196
	H344	H	0.475848	0.422016	0.467773
	O345	O	-0.035266	0.998044	1.013196
	H346	H	-0.042310	1.001214	0.998510
	H347	H	-0.038137	0.995100	1.006339
	O348	O	0.522010	0.578208	0.482380
	H349	H	0.515134	0.562193	0.474931
	H350	H	0.531976	0.590716	0.491122
	O351	O	0.467051	0.500082	0.423098
	H352	H	0.467374	0.504418	0.411725
	H353	H	0.475948	0.495189	0.430106
	O354	O	-0.427009	1.571242	0.380993
	H355	H	-0.432420	1.575600	0.384347
	H356	H	-0.433220	1.575932	0.396937
	O357	O	0.426837	0.409553	0.541938
	H358	H	0.438185	0.403139	0.543632
	H359	H	0.425577	0.405588	0.544240
	O360	O	1.079657	-0.033365	0.939813
	H361	H	1.073322	-0.029624	0.939494
	H362	H	1.087344	-0.028783	0.946560
	O363	O	0.467419	0.584132	0.546040
	H364	H	0.465102	0.591700	0.552945
	H365	H	0.469125	0.581744	0.533548
	O366	O	0.496096	0.423768	0.497124
	H367	H	0.502211	0.427407	0.493960
	H368	H	0.495615	0.414610	0.487117
	O369	O	0.961162	-0.132101	-0.003128
	H370	H	0.955165	-0.157665	0.002312
	H371	H	0.960083	-0.121828	-0.009442
	O372	O	0.505796	0.506778	0.616306
	H373	H	0.503659	0.515567	0.606541
	H374	H	0.489278	0.513184	0.626326
	O375	O	0.868095	-0.026014	0.859517
	H376	H	0.858877	-0.010786	0.864124
	H377	H	0.857414	-0.025087	0.853458
	O378	O	0.076884	1.010984	-0.033207
	H379	H	0.069733	0.999766	-0.034206
	H380	H	0.087076	1.006359	-0.046044
	O381	O	-0.137739	1.028487	1.029405
	H382	H	-0.131074	1.035678	1.034820
	H383	H	-0.154936	1.033864	1.031874
	O384	O	0.825151	1.200829	-0.179432
	H385	H	0.839038	1.199091	-0.174426
	H386	H	0.826350	1.205155	-0.178728
	O387	O	1.053311	-0.054929	0.933753
	H388	H	1.052998	-0.077252	0.934170
	H389	H	1.054127	-0.048367	0.939930
	O390	O	1.085179	0.955414	-0.080373
	H391	H	1.080335	0.946359	-0.086113
	H392	H	1.093687	0.954017	-0.082422
	O393	O	0.606811	0.552508	0.596832
	H394	H	0.601081	0.561258	0.606420
	H395	H	0.610160	0.544459	0.604002
