data_Molecule from HDF5

_cell_length_a		16.366729
_cell_length_b		16.301312
_cell_length_c		16.302535
_cell_angle_alpha	89.969826
_cell_angle_beta	90.058607
_cell_angle_gamma	89.881914
_symmetry_space_group_name_H-M	'P 1'
_symmetry_Int_Tables_number		1

loop_
	_symmetry_equiv_pos_as_xyz
	x,y,z

loop_
	_atom_site_label
	_atom_site_type_symbol
	_atom_site_fract_x
	_atom_site_fract_y
	_atom_site_fract_z
	H0	H	0.407021	0.827841	0.709730
	H1	H	0.600712	0.155706	0.708992
	H2	H	0.601862	0.827845	0.281598
	H3	H	0.405752	0.155178	0.280946
	H4	H	0.721543	0.392346	0.832271
	H5	H	0.718639	0.589103	0.159247
	H6	H	0.288637	0.591598	0.832826
	H7	H	0.291796	0.393759	0.159526
	H8	H	0.841947	0.705404	0.397810
	H9	H	0.167072	0.706454	0.595102
	H10	H	0.840509	0.277498	0.594259
	H11	H	0.167646	0.276267	0.398894
	H12	H	0.842114	0.392846	0.712468
	H13	H	0.167649	0.588853	0.710044
	H14	H	0.842452	0.589447	0.281804
	H15	H	0.167826	0.392627	0.281697
	H16	H	0.407093	0.705445	0.832186
	H17	H	0.602603	0.705280	0.159029
	H18	H	0.602492	0.277653	0.831362
	H19	H	0.408421	0.277790	0.159084
	H20	H	0.719400	0.827984	0.397320
	H21	H	0.719409	0.155310	0.594219
	H22	H	0.290817	0.827417	0.593875
	H23	H	0.290008	0.154945	0.397710
	H24	H	0.908869	0.328068	0.209325
	H25	H	0.103440	0.654890	0.211098
	H26	H	0.103539	0.327430	0.782886
	H27	H	0.906030	0.655040	0.780010
	H28	H	0.218370	0.892444	0.331967
	H29	H	0.219182	0.088708	0.659449
	H30	H	0.790594	0.089238	0.331706
	H31	H	0.788929	0.891714	0.658572
	H32	H	0.341598	0.206944	0.896742
	H33	H	0.667734	0.205388	0.094278
	H34	H	0.341392	0.777907	0.092616
	H35	H	0.667412	0.776511	0.897140
	H36	H	0.341010	0.894350	0.208836
	H37	H	0.667134	0.089407	0.210728
	H38	H	0.341191	0.089108	0.781196
	H39	H	0.667561	0.893223	0.781075
	H40	H	0.905894	0.205755	0.332561
	H41	H	0.102425	0.204453	0.660016
	H42	H	0.102083	0.776519	0.332605
	H43	H	0.906630	0.777022	0.659574
	H44	H	0.220255	0.328637	0.899004
	H45	H	0.219422	0.655165	0.095060
	H46	H	0.790979	0.328720	0.094714
	H47	H	0.789204	0.655612	0.895696
	H48	H	0.411822	0.107496	0.591084
	H49	H	0.592616	0.879305	0.583888
	H50	H	0.596336	0.107441	0.401984
	H51	H	0.411973	0.878613	0.412288
	H52	H	0.593397	0.401450	0.109106
	H53	H	0.592752	0.579922	0.882293
	H54	H	0.409578	0.589043	0.114085
	H55	H	0.404449	0.402902	0.878419
	H56	H	0.123619	0.587853	0.399933
	H57	H	0.886793	0.584472	0.594427
	H58	H	0.118596	0.404082	0.593552
	H59	H	0.890463	0.405551	0.400945
	H60	H	0.123072	0.391063	0.594413
	H61	H	0.888624	0.589193	0.584218
	H62	H	0.120534	0.586609	0.407776
	H63	H	0.886394	0.393549	0.396881
	H64	H	0.409112	0.581562	0.111497
	H65	H	0.596017	0.592192	0.877942
	H66	H	0.599226	0.390108	0.113352
	H67	H	0.417972	0.403926	0.883319
	H68	H	0.597402	0.106612	0.404392
	H69	H	0.605806	0.874201	0.585421
	H70	H	0.412098	0.106937	0.585876
	H71	H	0.401772	0.871445	0.398433
	H72	H	0.906586	0.609459	0.088467
	H73	H	0.093695	0.374755	0.098351
	H74	H	0.097346	0.609170	0.896959
	H75	H	0.918963	0.379107	0.906157
	H76	H	0.100375	0.902130	0.611261
	H77	H	0.101474	0.080902	0.379428
	H78	H	0.907502	0.087049	0.614093
	H79	H	0.915031	0.890227	0.378381
	H80	H	0.619596	0.085255	0.903621
	H81	H	0.389349	0.084610	0.088367
	H82	H	0.621050	0.896187	0.090756
	H83	H	0.386307	0.898025	0.894783
	H84	H	0.620048	0.896968	0.086832
	H85	H	0.388229	0.085091	0.089075
	H86	H	0.619846	0.083057	0.901636
	H87	H	0.388162	0.892625	0.906102
	H88	H	0.910164	0.077830	0.610900
	H89	H	0.092844	0.082016	0.382114
	H90	H	0.093804	0.897497	0.611035
	H91	H	0.902934	0.899235	0.377460
	H92	H	0.093150	0.605582	0.906006
	H93	H	0.094112	0.379167	0.079993
	H94	H	0.913241	0.608920	0.093959
	H95	H	0.908259	0.376877	0.908750
	H96	H	0.407568	0.108487	0.588296
	H97	H	0.596879	0.873802	0.596171
	H98	H	0.598591	0.108002	0.402978
	H99	H	0.419461	0.875415	0.395653
	H100	H	0.605900	0.401307	0.112202
	H101	H	0.604831	0.582230	0.877624
	H102	H	0.416309	0.585158	0.110895
	H103	H	0.412985	0.391805	0.877707
	H104	H	0.119861	0.580029	0.402120
	H105	H	0.890733	0.578055	0.586162
	H106	H	0.118323	0.395626	0.582161
	H107	H	0.890147	0.395482	0.409465
	H108	H	0.914389	0.606378	0.085039
	H109	H	0.109944	0.372992	0.088528
	H110	H	0.102595	0.609096	0.905921
	H111	H	0.911751	0.375099	0.898233
	H112	H	0.100479	0.894810	0.613775
	H113	H	0.097829	0.089252	0.377831
	H114	H	0.916259	0.085088	0.610879
	H115	H	0.916010	0.904902	0.383491
	H116	H	0.620976	0.085175	0.900811
	H117	H	0.388696	0.085320	0.088017
	H118	H	0.620317	0.899908	0.089612
	H119	H	0.391659	0.904457	0.904337
	C120	C	0.383001	-0.000577	0.616702
	C121	C	0.626440	0.983839	0.617362
	C122	C	0.625817	-0.000555	0.374445
	C123	C	0.382582	0.983254	0.373710
	C124	C	0.627408	0.369490	0.003509
	C125	C	0.626199	0.613084	0.987156
	C126	C	0.383061	0.613533	0.004178
	C127	C	0.383938	0.370684	0.987741
	C128	C	0.013250	0.612815	0.374842
	C129	C	0.996543	0.612552	0.616993
	C130	C	0.012435	0.368919	0.618489
	C131	C	0.996634	0.369751	0.374473
	C132	C	0.883502	0.500392	0.117797
	C133	C	0.127305	0.483321	0.118173
	C134	C	0.126367	0.499906	0.875032
	C135	C	0.883801	0.484195	0.874768
	C136	C	0.126084	0.869663	0.504039
	C137	C	0.125740	0.112312	0.487864
	C138	C	0.882767	0.112669	0.503972
	C139	C	0.882862	0.869585	0.487650
	C140	C	0.512500	0.113252	0.873876
	C141	C	0.496641	0.113108	0.116896
	C142	C	0.512554	0.869590	0.116986
	C143	C	0.496367	0.869826	0.873472
	C144	C	0.386294	0.876328	0.671634
	C145	C	0.622571	0.106831	0.671898
	C146	C	0.622951	0.876420	0.319509
	C147	C	0.385138	0.106307	0.318859
	C148	C	0.682978	0.372013	0.880843
	C149	C	0.681245	0.610337	0.110207
	C150	C	0.327250	0.611604	0.881481
	C151	C	0.329571	0.373233	0.110657
	C152	C	0.890670	0.667768	0.377369
	C153	C	0.118713	0.667906	0.615002
	C154	C	0.889427	0.314693	0.615277
	C155	C	0.119178	0.314542	0.377970
	C156	C	0.889940	0.372200	0.673811
	C157	C	0.119108	0.609592	0.672143
	C158	C	0.891049	0.610207	0.319661
	C159	C	0.119381	0.372257	0.319934
	C160	C	0.385808	0.668333	0.881087
	C161	C	0.623567	0.667771	0.110107
	C162	C	0.624334	0.314918	0.880354
	C163	C	0.387238	0.315539	0.110503
	C164	C	0.681190	0.876549	0.376905
	C165	C	0.681382	0.106586	0.614836
	C166	C	0.328715	0.876256	0.614109
	C167	C	0.327318	0.106068	0.376399
	C168	C	0.887684	0.377030	0.171962
	C169	C	0.123818	0.606240	0.172976
	C170	C	0.123942	0.376600	0.820418
	C171	C	0.885415	0.606416	0.818243
	C172	C	0.180906	0.871897	0.381020
	C173	C	0.180789	0.109125	0.610924
	C174	C	0.827494	0.110323	0.381041
	C175	C	0.827609	0.871976	0.610418
	C176	C	0.389936	0.168714	0.876154
	C177	C	0.619064	0.167793	0.114634
	C178	C	0.389924	0.815454	0.113610
	C179	C	0.618893	0.814664	0.876578
	C180	C	0.389954	0.873157	0.171563
	C181	C	0.618823	0.110204	0.172660
	C182	C	0.389879	0.110363	0.818926
	C183	C	0.618934	0.872565	0.818980
	C184	C	0.885384	0.167697	0.381232
	C185	C	0.122820	0.166675	0.611233
	C186	C	0.122889	0.814620	0.381102
	C187	C	0.885784	0.814757	0.610746
	C188	C	0.181811	0.377061	0.878104
	C189	C	0.181813	0.606251	0.115625
	C190	C	0.828921	0.377509	0.115131
	C191	C	0.827546	0.606738	0.875710
	C192	C	0.404473	0.085403	0.594985
	C193	C	0.604729	0.897868	0.595184
	C194	C	0.603789	0.085237	0.396727
	C195	C	0.404708	0.897470	0.395514
	C196	C	0.605791	0.391168	0.089265
	C197	C	0.604362	0.591189	0.901466
	C198	C	0.405213	0.591726	0.090060
	C199	C	0.405648	0.393023	0.901857
	C200	C	0.099204	0.591080	0.396890
	C201	C	0.910898	0.590386	0.594727
	C202	C	0.097829	0.390485	0.596462
	C203	C	0.911152	0.391852	0.395864
	C204	C	0.905024	0.586344	0.095608
	C205	C	0.105432	0.397652	0.095891
	C206	C	0.104118	0.585632	0.896587
	C207	C	0.906362	0.398984	0.897775
	C208	C	0.104542	0.891663	0.589878
	C209	C	0.103707	0.090547	0.401978
	C210	C	0.904900	0.089997	0.589708
	C211	C	0.904944	0.891705	0.401852
	C212	C	0.598021	0.091098	0.895665
	C213	C	0.410916	0.091453	0.094935
	C214	C	0.598411	0.891298	0.095398
	C215	C	0.410765	0.891826	0.895268
	Zn216	Zn	0.503956	-0.008759	0.745245
	Zn217	Zn	0.504123	-0.008460	0.245349
	Zn218	Zn	0.755105	0.492285	-0.004319
	Zn219	Zn	0.255232	0.492238	-0.003817
	Zn220	Zn	0.004392	0.741560	0.496033
	Zn221	Zn	0.004137	0.240775	0.495954
	Zn222	Zn	0.004794	0.491546	0.746138
	Zn223	Zn	0.005436	0.491796	0.246070
	Zn224	Zn	0.504761	0.741401	-0.004439
	Zn225	Zn	0.504783	0.241576	-0.004669
	Zn226	Zn	0.754859	-0.008524	0.495697
	Zn227	Zn	0.254540	-0.008942	0.495407
	N228	N	0.419445	0.953825	0.673149
	N229	N	0.589300	0.029369	0.673548
	N230	N	0.589177	0.953704	0.318001
	N231	N	0.418784	0.028968	0.317015
	N232	N	0.685115	0.405155	0.958475
	N233	N	0.682905	0.576911	0.032869
	N234	N	0.325409	0.578472	0.959110
	N235	N	0.327554	0.406975	0.033259
	N236	N	0.967703	0.669136	0.411282
	N237	N	0.041599	0.669495	0.581401
	N238	N	0.966607	0.312671	0.581724
	N239	N	0.042046	0.313056	0.411290
	N240	N	0.967207	0.405073	0.675931
	N241	N	0.041921	0.575917	0.673652
	N242	N	0.968239	0.576878	0.318133
	N243	N	0.042169	0.405745	0.317643
	N244	N	0.420090	0.669354	0.958225
	N245	N	0.590040	0.669621	0.032680
	N246	N	0.590491	0.313277	0.957443
	N247	N	0.420240	0.313891	0.033001
	N248	N	0.683086	0.954064	0.410374
	N249	N	0.683761	0.029036	0.581579
	N250	N	0.326301	0.953700	0.580777
	N251	N	0.325704	0.028643	0.409913
	N252	N	0.920857	0.454521	0.173614
	N253	N	0.090663	0.528802	0.174482
	N254	N	0.090013	0.453996	0.818364
	N255	N	0.919940	0.529469	0.817738
	N256	N	0.182987	0.905462	0.458552
	N257	N	0.182678	0.076075	0.533249
	N258	N	0.825934	0.076629	0.458487
	N259	N	0.825598	0.905207	0.532910
	N260	N	0.467250	0.170644	0.909467
	N261	N	0.542112	0.169562	0.080589
	N262	N	0.467209	0.813161	0.080590
	N263	N	0.541756	0.813119	0.909929
	N264	N	0.467174	0.906324	0.173373
	N265	N	0.541780	0.076824	0.173939
	N266	N	0.466945	0.076682	0.817250
	N267	N	0.541703	0.905950	0.816773
	N268	N	0.918748	0.169318	0.458653
	N269	N	0.089342	0.168751	0.533772
	N270	N	0.089613	0.813043	0.458499
	N271	N	0.919455	0.813366	0.533449
	N272	N	0.183509	0.454539	0.911170
	N273	N	0.183739	0.528948	0.081899
	N274	N	0.826434	0.455159	0.081921
	N275	N	0.826453	0.529732	0.910236
	O276	O	0.940672	0.046741	0.954531
	H277	H	0.934180	0.051539	0.957135
	H278	H	0.955545	0.048451	0.964691
	O279	O	-0.057562	1.049698	0.931546
	H280	H	-0.069175	1.040554	0.932277
	H281	H	-0.058723	1.055294	0.930837
	O282	O	0.946356	1.074535	-0.046184
	H283	H	0.946499	1.068359	-0.052474
	H284	H	0.950492	1.082821	-0.050885
	O285	O	-0.032349	1.072714	0.945054
	H286	H	-0.030421	1.065367	0.934724
	H287	H	-0.042621	1.083092	0.938380
