data_Molecule from HDF5

_cell_length_a		16.264302
_cell_length_b		16.485266
_cell_length_c		16.460494
_cell_angle_alpha	89.941157
_cell_angle_beta	89.991875
_cell_angle_gamma	89.741469
_symmetry_space_group_name_H-M	'P 1'
_symmetry_Int_Tables_number		1

loop_
	_symmetry_equiv_pos_as_xyz
	x,y,z

loop_
	_atom_site_label
	_atom_site_type_symbol
	_atom_site_fract_x
	_atom_site_fract_y
	_atom_site_fract_z
	H0	H	0.389191	0.833698	0.715206
	H1	H	0.597042	0.151647	0.712145
	H2	H	0.603646	0.833339	0.270818
	H3	H	0.391637	0.150691	0.273177
	H4	H	0.716072	0.388274	0.833036
	H5	H	0.714331	0.591820	0.153075
	H6	H	0.280203	0.590460	0.832557
	H7	H	0.275021	0.387155	0.152033
	H8	H	0.835308	0.710861	0.388196
	H9	H	0.157345	0.708525	0.594298
	H10	H	0.835746	0.272833	0.597988
	H11	H	0.155651	0.268816	0.386940
	H12	H	0.835338	0.389065	0.711536
	H13	H	0.158405	0.590933	0.708937
	H14	H	0.836266	0.596457	0.272131
	H15	H	0.157037	0.385387	0.272670
	H16	H	0.388664	0.713649	0.836316
	H17	H	0.602396	0.712213	0.151078
	H18	H	0.602156	0.270165	0.834262
	H19	H	0.392220	0.271837	0.153015
	H20	H	0.714665	0.831507	0.392218
	H21	H	0.711157	0.152496	0.593849
	H22	H	0.278987	0.831288	0.593687
	H23	H	0.277035	0.151640	0.391437
	H24	H	0.887592	0.334896	0.218653
	H25	H	0.104175	0.648097	0.216582
	H26	H	0.106745	0.334400	0.767677
	H27	H	0.888153	0.648322	0.769968
	H28	H	0.217148	0.886705	0.333565
	H29	H	0.217415	0.094854	0.651226
	H30	H	0.773858	0.097440	0.334323
	H31	H	0.777769	0.890571	0.652974
	H32	H	0.335348	0.214237	0.887573
	H33	H	0.655783	0.212488	0.099727
	H34	H	0.336871	0.769683	0.100868
	H35	H	0.654897	0.769279	0.887739
	H36	H	0.336758	0.887299	0.214727
	H37	H	0.655401	0.097564	0.214954
	H38	H	0.334694	0.097897	0.773342
	H39	H	0.655036	0.885931	0.772689
	H40	H	0.885817	0.217366	0.335831
	H41	H	0.106157	0.215959	0.648639
	H42	H	0.103731	0.767142	0.335076
	H43	H	0.889478	0.769774	0.650474
	H44	H	0.217922	0.332362	0.888642
	H45	H	0.216234	0.649565	0.097422
	H46	H	0.775539	0.332615	0.098142
	H47	H	0.774974	0.649359	0.889102
	H48	H	0.407418	0.105375	0.586271
	H49	H	0.587296	0.876773	0.589891
	H50	H	0.592421	0.105650	0.406508
	H51	H	0.400686	0.878144	0.408217
	H52	H	0.586376	0.396984	0.107931
	H53	H	0.581646	0.584645	0.879139
	H54	H	0.403313	0.586350	0.109697
	H55	H	0.409580	0.411075	0.884674
	H56	H	0.112430	0.578769	0.398961
	H57	H	0.884287	0.578568	0.577292
	H58	H	0.111944	0.397963	0.579516
	H59	H	0.882689	0.401108	0.408378
	H60	H	0.107917	0.405428	0.576654
	H61	H	0.880259	0.578552	0.588546
	H62	H	0.111787	0.585432	0.406390
	H63	H	0.885124	0.409168	0.406615
	H64	H	0.403377	0.575866	0.106519
	H65	H	0.588369	0.581340	0.878955
	H66	H	0.587996	0.403220	0.105754
	H67	H	0.415862	0.394914	0.880544
	H68	H	0.582947	0.106868	0.393526
	H69	H	0.582536	0.880294	0.582996
	H70	H	0.407743	0.103738	0.580930
	H71	H	0.408583	0.875939	0.393364
	H72	H	0.909913	0.600422	0.076640
	H73	H	0.087143	0.379326	0.076086
	H74	H	0.081698	0.601417	0.905267
	H75	H	0.909047	0.377325	0.900063
	H76	H	0.088962	0.896992	0.607766
	H77	H	0.088011	0.078922	0.379505
	H78	H	0.903315	0.081275	0.606140
	H79	H	0.906257	0.902322	0.380079
	H80	H	0.611243	0.082998	0.901864
	H81	H	0.383421	0.080219	0.079392
	H82	H	0.609629	0.898567	0.076762
	H83	H	0.379019	0.904519	0.897147
	H84	H	0.607468	0.906899	0.079757
	H85	H	0.381398	0.079796	0.085472
	H86	H	0.607862	0.080930	0.907722
	H87	H	0.379433	0.896030	0.908365
	H88	H	0.908926	0.081010	0.604692
	H89	H	0.080271	0.076871	0.383395
	H90	H	0.086836	0.904277	0.604245
	H91	H	0.907402	0.899038	0.379248
	H92	H	0.090810	0.604887	0.903372
	H93	H	0.087436	0.376245	0.087683
	H94	H	0.899322	0.605751	0.082796
	H95	H	0.909635	0.379226	0.904671
	H96	H	0.402863	0.106193	0.582957
	H97	H	0.590749	0.878153	0.582002
	H98	H	0.577002	0.100783	0.406865
	H99	H	0.417299	0.882707	0.406824
	H100	H	0.581275	0.400479	0.104098
	H101	H	0.582296	0.577289	0.881012
	H102	H	0.412459	0.581754	0.105076
	H103	H	0.398585	0.398936	0.876475
	H104	H	0.108872	0.575956	0.407329
	H105	H	0.878903	0.588635	0.581797
	H106	H	0.110933	0.404906	0.584707
	H107	H	0.881293	0.404526	0.400670
	H108	H	0.911200	0.604526	0.089129
	H109	H	0.077348	0.380790	0.082999
	H110	H	0.083641	0.605448	0.896423
	H111	H	0.905885	0.377318	0.903593
	H112	H	0.081369	0.898266	0.604610
	H113	H	0.081622	0.084990	0.379261
	H114	H	0.906301	0.086088	0.606298
	H115	H	0.904524	0.900566	0.378454
	H116	H	0.609537	0.076114	0.902169
	H117	H	0.379878	0.085490	0.082363
	H118	H	0.611694	0.900858	0.085196
	H119	H	0.385115	0.908938	0.909200
	C120	C	0.374072	0.000033	0.614574
	C121	C	0.616866	0.983872	0.615339
	C122	C	0.617723	0.000159	0.370730
	C123	C	0.375860	0.983673	0.371573
	C124	C	0.618060	0.369006	0.001292
	C125	C	0.616765	0.612046	0.984670
	C126	C	0.374184	0.612702	0.002212
	C127	C	0.375237	0.369719	0.985228
	C128	C	0.004957	0.612283	0.371769
	C129	C	0.987615	0.612037	0.613372
	C130	C	0.004918	0.370430	0.613599
	C131	C	0.987909	0.370626	0.371999
	C132	C	0.874242	0.499513	0.115404
	C133	C	0.116836	0.482882	0.114548
	C134	C	0.118442	0.499482	0.870194
	C135	C	0.874987	0.482608	0.870989
	C136	C	0.118057	0.868307	0.500708
	C137	C	0.116743	0.112618	0.484651
	C138	C	0.873447	0.114778	0.501169
	C139	C	0.874302	0.869761	0.484401
	C140	C	0.503727	0.113199	0.872117
	C141	C	0.487372	0.113040	0.114209
	C142	C	0.504536	0.869987	0.113977
	C143	C	0.486776	0.870191	0.872482
	C144	C	0.371914	0.881003	0.674527
	C145	C	0.616316	0.103710	0.673071
	C146	C	0.620825	0.880790	0.311132
	C147	C	0.373510	0.103360	0.313002
	C148	C	0.677158	0.368527	0.881274
	C149	C	0.675608	0.611739	0.104795
	C150	C	0.317155	0.611759	0.881491
	C151	C	0.314833	0.368251	0.104533
	C152	C	0.883788	0.671698	0.369772
	C153	C	0.109233	0.669228	0.613388
	C154	C	0.884154	0.311786	0.616181
	C155	C	0.108011	0.309275	0.369111
	C156	C	0.883953	0.369822	0.672694
	C157	C	0.109489	0.611155	0.670771
	C158	C	0.884173	0.614593	0.312056
	C159	C	0.108670	0.367345	0.312100
	C160	C	0.371376	0.672836	0.883375
	C161	C	0.619670	0.671509	0.103962
	C162	C	0.620350	0.309709	0.881837
	C163	C	0.373785	0.311226	0.105117
	C164	C	0.676213	0.879861	0.371491
	C165	C	0.673055	0.104495	0.613953
	C166	C	0.316942	0.879471	0.613968
	C167	C	0.316263	0.103666	0.371714
	C168	C	0.870276	0.381751	0.177606
	C169	C	0.121258	0.600929	0.175986
	C170	C	0.123082	0.381329	0.809076
	C171	C	0.871134	0.601240	0.810755
	C172	C	0.178017	0.867252	0.381403
	C173	C	0.177704	0.114085	0.603419
	C174	C	0.813379	0.116190	0.381959
	C175	C	0.816278	0.870617	0.604625
	C176	C	0.383381	0.174051	0.869872
	C177	C	0.607911	0.172349	0.116941
	C178	C	0.384434	0.810215	0.117913
	C179	C	0.606987	0.809548	0.869788
	C180	C	0.384578	0.868592	0.174602
	C181	C	0.607817	0.115204	0.174507
	C182	C	0.383053	0.116115	0.812745
	C183	C	0.607057	0.867571	0.812532
	C184	C	0.869317	0.175960	0.382776
	C185	C	0.122073	0.174351	0.602211
	C186	C	0.121169	0.808198	0.381992
	C187	C	0.872126	0.810597	0.603488
	C188	C	0.178866	0.380351	0.869170
	C189	C	0.177046	0.601865	0.116349
	C190	C	0.814373	0.380474	0.117505
	C191	C	0.814756	0.601752	0.869911
	C192	C	0.398706	0.083418	0.590329
	C193	C	0.593794	0.900185	0.591774
	C194	C	0.591792	0.082941	0.395089
	C195	C	0.401575	0.900563	0.395879
	C196	C	0.592656	0.393433	0.084275
	C197	C	0.591444	0.588058	0.901327
	C198	C	0.399124	0.588341	0.085447
	C199	C	0.400542	0.394518	0.902262
	C200	C	0.089036	0.587351	0.396765
	C201	C	0.903051	0.588767	0.589569
	C202	C	0.088537	0.395293	0.587763
	C203	C	0.904688	0.397256	0.397727
	C204	C	0.899513	0.582061	0.090030
	C205	C	0.091373	0.400217	0.089601
	C206	C	0.092682	0.582446	0.894707
	C207	C	0.900917	0.399670	0.895588
	C208	C	0.092785	0.892843	0.583923
	C209	C	0.090726	0.087628	0.402136
	C210	C	0.898943	0.090002	0.583939
	C211	C	0.898970	0.893813	0.400849
	C212	C	0.587601	0.087572	0.897070
	C213	C	0.403234	0.088656	0.089586
	C214	C	0.587909	0.894702	0.087902
	C215	C	0.402893	0.895640	0.897758
	Zn216	Zn	0.494904	-0.008261	0.744206
	Zn217	Zn	0.496534	-0.008255	0.241535
	Zn218	Zn	0.746248	0.490927	-0.007287
	Zn219	Zn	0.245884	0.491152	-0.006809
	Zn220	Zn	-0.004244	0.740248	0.492143
	Zn221	Zn	-0.004350	0.242682	0.492709
	Zn222	Zn	-0.003854	0.491013	0.742192
	Zn223	Zn	-0.003362	0.491384	0.244057
	Zn224	Zn	0.495725	0.741422	-0.006427
	Zn225	Zn	0.496454	0.240546	-0.006902
	Zn226	Zn	0.745816	-0.007668	0.493248
	Zn227	Zn	0.246185	-0.009137	0.492305
	N228	N	0.406715	0.957027	0.674918
	N229	N	0.582245	0.027627	0.674124
	N230	N	0.585447	0.956809	0.310165
	N231	N	0.409315	0.027693	0.312415
	N232	N	0.676073	0.404371	0.956563
	N233	N	0.674009	0.575658	0.029467
	N234	N	0.318478	0.575400	0.956579
	N235	N	0.315455	0.403750	0.028860
	N236	N	0.959975	0.670395	0.406146
	N237	N	0.032394	0.670043	0.578619
	N238	N	0.960461	0.312016	0.580185
	N239	N	0.031825	0.311069	0.405219
	N240	N	0.960186	0.405307	0.671554
	N241	N	0.032789	0.576369	0.670893
	N242	N	0.960405	0.578407	0.313257
	N243	N	0.032871	0.404617	0.313462
	N244	N	0.406003	0.673766	0.959560
	N245	N	0.583741	0.671772	0.028357
	N246	N	0.584619	0.309696	0.957543
	N247	N	0.410353	0.311914	0.029833
	N248	N	0.674701	0.955093	0.407334
	N249	N	0.673832	0.028789	0.578977
	N250	N	0.317945	0.954593	0.577773
	N251	N	0.317583	0.028100	0.407218
	N252	N	0.906928	0.456696	0.176406
	N253	N	0.084585	0.526088	0.174891
	N254	N	0.086077	0.456325	0.809631
	N255	N	0.908175	0.526090	0.811381
	N256	N	0.175903	0.904304	0.456203
	N257	N	0.174374	0.076193	0.529417
	N258	N	0.815893	0.078779	0.456505
	N259	N	0.817613	0.906838	0.529432
	N260	N	0.459583	0.172400	0.906055
	N261	N	0.532167	0.171027	0.079997
	N262	N	0.460011	0.811246	0.080590
	N263	N	0.531004	0.811119	0.906299
	N264	N	0.460062	0.905255	0.172105
	N265	N	0.531983	0.078728	0.172893
	N266	N	0.458809	0.078985	0.813910
	N267	N	0.531326	0.904854	0.814231
	N268	N	0.906147	0.175173	0.457880
	N269	N	0.084610	0.173419	0.527356
	N270	N	0.084518	0.808938	0.457127
	N271	N	0.907557	0.809943	0.527623
	N272	N	0.175999	0.454821	0.906555
	N273	N	0.174689	0.527362	0.078880
	N274	N	0.816701	0.454720	0.079574
	N275	N	0.817241	0.527046	0.906904
	O276	O	0.390808	0.440924	0.558312
	H277	H	0.388624	0.441363	0.564804
	H278	H	0.397068	0.446459	0.553940
	O279	O	0.396469	0.466907	0.496098
	H280	H	0.382062	0.468325	0.494053
	H281	H	0.388230	0.466552	0.500066
	O282	O	0.456517	0.404708	0.602344
	H283	H	0.451214	0.409291	0.604976
	H284	H	0.476747	0.410251	0.595145
	O285	O	1.014496	-0.221785	-0.223212
	H286	H	1.023289	-0.250418	-0.258030
	H287	H	1.058864	-0.200496	-0.212521
	O288	O	0.063291	-0.081382	1.100070
	H289	H	0.056360	-0.084719	1.087065
	H290	H	0.079957	-0.073880	1.102435
	O291	O	0.502819	0.633537	0.637592
	H292	H	0.512711	0.656457	0.660721
	H293	H	0.527474	0.621881	0.628589
	O294	O	0.398820	0.573851	0.482034
	H295	H	0.397707	0.565952	0.480569
	H296	H	0.401898	0.569762	0.488027
	O297	O	1.000373	1.204828	1.139043
	H298	H	0.996270	1.221523	1.160152
	H299	H	0.980288	1.169646	1.154332
	O300	O	-0.206867	0.050029	0.057647
	H301	H	-0.208699	0.036266	0.075301
	H302	H	-0.215867	0.043498	0.050534
	O303	O	0.560260	0.390139	0.387641
	H304	H	0.572870	0.386494	0.388330
	H305	H	0.543296	0.375635	0.381747
	O306	O	1.063090	-0.026014	0.063405
	H307	H	1.041024	-0.019953	0.055496
	H308	H	1.054082	-0.030103	0.066312
	O309	O	0.410023	0.615319	0.429727
	H310	H	0.411093	0.622703	0.426804
	H311	H	0.424626	0.622649	0.429598
	O312	O	0.949728	0.943312	-0.195919
	H313	H	0.931028	0.944543	-0.199339
	H314	H	0.948777	0.937792	-0.203103
	O315	O	0.800579	0.790820	0.009511
	H316	H	0.790115	0.798232	0.005038
	H317	H	0.802814	0.791800	-0.008341
	O318	O	0.653462	0.531990	0.533756
	H319	H	0.649424	0.525880	0.531344
	H320	H	0.650265	0.523666	0.523922
	O321	O	0.815272	-0.187028	1.171084
	H322	H	0.819505	-0.200549	1.133954
	H323	H	0.850863	-0.201124	1.171107
	O324	O	0.200553	-0.218308	0.972963
	H325	H	0.194085	-0.198261	1.002112
	H326	H	0.230331	-0.230606	0.977971
	O327	O	0.516733	0.464392	0.423256
	H328	H	0.522850	0.466789	0.428593
	H329	H	0.515786	0.466616	0.425290
	O330	O	0.602239	0.499296	0.524228
	H331	H	0.611520	0.494174	0.536100
	H332	H	0.598806	0.508942	0.516458
	O333	O	1.210874	1.050664	0.956062
	H334	H	1.205799	1.053599	0.956149
	H335	H	1.207279	1.064643	0.962275
	O336	O	0.566894	0.563904	0.560799
	H337	H	0.576967	0.572929	0.564186
	H338	H	0.563596	0.565070	0.554796
	O339	O	1.183517	-0.025373	0.783417
	H340	H	1.185330	-0.045361	0.788810
	H341	H	1.210825	-0.017989	0.775758
	O342	O	-0.222749	0.967116	1.212314
	H343	H	-0.261748	0.961234	1.250139
	H344	H	-0.209488	0.915428	1.198606
	O345	O	-0.180537	0.900336	0.806318
	H346	H	-0.171470	0.899096	0.794328
	H347	H	-0.173267	0.929904	0.816464
	O348	O	0.434850	0.484536	0.549082
	H349	H	0.448425	0.473409	0.563289
	H350	H	0.430232	0.475129	0.548921
	O351	O	-0.008689	0.140987	0.084433
	H352	H	0.001941	0.153174	0.109606
	H353	H	-0.013413	0.124548	0.097815
	O354	O	0.977044	0.788776	-0.035192
	H355	H	0.971909	0.792384	-0.051128
	H356	H	0.975686	0.781544	-0.052195
	O357	O	-0.216202	0.987006	-0.157283
	H358	H	-0.215350	1.016944	-0.153592
	H359	H	-0.231529	1.003061	-0.185082
	O360	O	0.371993	0.584047	0.488142
	H361	H	0.367691	0.584005	0.481416
	H362	H	0.383349	0.576813	0.499655
	O363	O	0.373402	0.601233	0.487359
	H364	H	0.375893	0.594670	0.494872
	H365	H	0.367657	0.608329	0.486429
	O366	O	0.557839	0.494121	0.434933
	H367	H	0.550662	0.507359	0.434723
	H368	H	0.552827	0.489359	0.424423
	O369	O	0.135107	0.916292	0.105794
	H370	H	0.133964	0.921131	0.094599
	H371	H	0.122316	0.911755	0.108607
	O372	O	0.619391	0.590493	0.684431
	H373	H	0.626441	0.576236	0.684093
	H374	H	0.635518	0.600137	0.677950
	O375	O	0.413179	0.368684	0.488687
	H376	H	0.410296	0.362668	0.502131
	H377	H	0.429084	0.368510	0.492956
	O378	O	0.543493	0.522604	0.449438
	H379	H	0.545576	0.522857	0.437008
	H380	H	0.560163	0.511887	0.453823
	O381	O	0.545189	0.582011	0.399199
	H382	H	0.554747	0.598546	0.390519
	H383	H	0.529710	0.575753	0.398630
	O384	O	0.533595	0.355355	0.554710
	H385	H	0.526842	0.351418	0.555319
	H386	H	0.528619	0.357637	0.546138
	O387	O	0.980675	0.782606	0.186414
	H388	H	0.987959	0.767310	0.193013
	H389	H	0.993752	0.772767	0.168158
	O390	O	0.615413	0.406522	0.432369
	H391	H	0.611697	0.404599	0.433501
	H392	H	0.609641	0.401324	0.430551
	O393	O	0.962532	0.080538	1.196336
	H394	H	0.944967	0.060260	1.205421
	H395	H	0.989143	0.061211	1.198141
	O396	O	0.141160	0.900148	1.091799
	H397	H	0.142726	0.922846	1.108480
	H398	H	0.131520	0.915837	1.080179
	O399	O	-0.207382	1.189289	0.916878
	H400	H	-0.183236	1.176183	0.931292
	H401	H	-0.231821	1.212391	0.936897
	O402	O	0.915447	-0.030284	0.954567
	H403	H	0.913126	-0.024889	0.958213
	H404	H	0.909793	-0.041090	0.944004
	O405	O	-0.198623	0.186036	-0.137616
	H406	H	-0.195912	0.197438	-0.093597
	H407	H	-0.173175	0.206030	-0.143692
	O408	O	1.559761	1.451449	1.389643
	H409	H	1.546719	1.444098	1.388425
	H410	H	1.555446	1.458505	1.387686
	O411	O	1.152936	1.177449	0.178177
	H412	H	1.133607	1.191288	0.167295
	H413	H	1.147395	1.185686	0.150910
	O414	O	0.028453	0.146297	0.953253
	H415	H	0.012265	0.144153	0.967218
	H416	H	0.011930	0.146889	0.943716
	O417	O	-0.029239	0.208989	0.777192
	H418	H	-0.013176	0.204876	0.764240
	H419	H	-0.012440	0.214069	0.758236
	O420	O	0.193716	1.180672	0.040100
	H421	H	0.197155	1.210531	0.032291
	H422	H	0.169190	1.176748	0.014921
	O423	O	1.168660	-0.192329	-0.184302
	H424	H	1.185695	-0.190385	-0.181664
	H425	H	1.169368	-0.186805	-0.143040
	O426	O	0.143152	0.000778	1.209664
	H427	H	0.141165	0.032964	1.202706
	H428	H	0.153205	0.000395	1.238311
	O429	O	1.104105	1.066595	0.792291
	H430	H	1.091574	1.040649	0.801863
	H431	H	1.124104	1.041471	0.784858
