data_Molecule from HDF5

_cell_length_a		16.386304
_cell_length_b		16.467009
_cell_length_c		16.409827
_cell_angle_alpha	89.891359
_cell_angle_beta	89.972178
_cell_angle_gamma	90.044700
_symmetry_space_group_name_H-M	'P 1'
_symmetry_Int_Tables_number		1

loop_
	_symmetry_equiv_pos_as_xyz
	x,y,z

loop_
	_atom_site_label
	_atom_site_type_symbol
	_atom_site_fract_x
	_atom_site_fract_y
	_atom_site_fract_z
	H0	H	0.394820	0.839256	0.731255
	H1	H	0.605013	0.155170	0.729736
	H2	H	0.604129	0.837448	0.289339
	H3	H	0.393673	0.154485	0.285142
	H4	H	0.724608	0.389975	0.850445
	H5	H	0.722773	0.600569	0.167179
	H6	H	0.283269	0.600428	0.847623
	H7	H	0.278407	0.390446	0.165918
	H8	H	0.840879	0.717718	0.400828
	H9	H	0.158597	0.718526	0.610637
	H10	H	0.840268	0.278841	0.612324
	H11	H	0.157960	0.274203	0.401926
	H12	H	0.841880	0.393182	0.729080
	H13	H	0.160376	0.601803	0.725506
	H14	H	0.842817	0.601001	0.285782
	H15	H	0.161569	0.393536	0.289209
	H16	H	0.396966	0.719001	0.850086
	H17	H	0.608980	0.718213	0.167215
	H18	H	0.607490	0.274950	0.850869
	H19	H	0.396465	0.276641	0.167680
	H20	H	0.721924	0.839317	0.403710
	H21	H	0.720710	0.156400	0.613908
	H22	H	0.275556	0.840973	0.617036
	H23	H	0.278996	0.156536	0.403498
	H24	H	0.898413	0.338979	0.230222
	H25	H	0.110577	0.655648	0.229221
	H26	H	0.104702	0.339031	0.785931
	H27	H	0.894260	0.656167	0.785900
	H28	H	0.221645	0.893110	0.350147
	H29	H	0.220980	0.104087	0.667698
	H30	H	0.778970	0.100905	0.349642
	H31	H	0.779847	0.893697	0.667899
	H32	H	0.343590	0.219407	0.901104
	H33	H	0.659247	0.218519	0.117175
	H34	H	0.342339	0.773907	0.113111
	H35	H	0.659967	0.774471	0.901316
	H36	H	0.340597	0.889410	0.228451
	H37	H	0.658945	0.099408	0.230294
	H38	H	0.342360	0.101352	0.788304
	H39	H	0.659692	0.890996	0.786092
	H40	H	0.893141	0.219089	0.349114
	H41	H	0.105959	0.220413	0.666725
	H42	H	0.105962	0.777840	0.349464
	H43	H	0.892728	0.775419	0.666405
	H44	H	0.220716	0.337894	0.902088
	H45	H	0.221970	0.656793	0.108408
	H46	H	0.780163	0.338781	0.115086
	H47	H	0.779006	0.655226	0.902750
	H48	H	0.413233	0.110624	0.599547
	H49	H	0.585971	0.886758	0.595267
	H50	H	0.585291	0.108052	0.419987
	H51	H	0.412218	0.885584	0.419159
	H52	H	0.584319	0.405739	0.120483
	H53	H	0.585703	0.579177	0.899461
	H54	H	0.416160	0.581178	0.118613
	H55	H	0.411418	0.399629	0.891235
	H56	H	0.116125	0.589063	0.412578
	H57	H	0.886674	0.586893	0.595891
	H58	H	0.114144	0.404623	0.593706
	H59	H	0.889070	0.410996	0.423727
	H60	H	0.112069	0.411297	0.592907
	H61	H	0.886515	0.585958	0.596888
	H62	H	0.115193	0.594918	0.422848
	H63	H	0.887599	0.413468	0.415008
	H64	H	0.414340	0.589551	0.122128
	H65	H	0.586893	0.593349	0.893128
	H66	H	0.594467	0.403337	0.124487
	H67	H	0.407010	0.412776	0.894855
	H68	H	0.589513	0.109002	0.421282
	H69	H	0.592922	0.884269	0.595901
	H70	H	0.410429	0.108830	0.595750
	H71	H	0.408760	0.885277	0.423085
	H72	H	0.917093	0.607219	0.092753
	H73	H	0.089633	0.385887	0.095758
	H74	H	0.096784	0.612285	0.916132
	H75	H	0.906654	0.383836	0.921945
	H76	H	0.088454	0.905435	0.622780
	H77	H	0.088880	0.087414	0.395532
	H78	H	0.914847	0.089177	0.620679
	H79	H	0.912087	0.914233	0.397360
	H80	H	0.610981	0.079492	0.924907
	H81	H	0.387535	0.086170	0.095614
	H82	H	0.617535	0.907753	0.110640
	H83	H	0.390820	0.912102	0.923165
	H84	H	0.616154	0.896815	0.093079
	H85	H	0.387266	0.084943	0.097286
	H86	H	0.615993	0.084228	0.913625
	H87	H	0.387772	0.908055	0.918113
	H88	H	0.907427	0.092339	0.624121
	H89	H	0.088812	0.085779	0.396495
	H90	H	0.087377	0.913326	0.620307
	H91	H	0.913822	0.902430	0.394059
	H92	H	0.090427	0.611539	0.912594
	H93	H	0.092715	0.383839	0.097802
	H94	H	0.907353	0.610527	0.094791
	H95	H	0.915776	0.383548	0.910760
	H96	H	0.408519	0.111027	0.599628
	H97	H	0.587737	0.883280	0.601890
	H98	H	0.587841	0.110166	0.417027
	H99	H	0.407234	0.883475	0.418351
	H100	H	0.592250	0.413405	0.120006
	H101	H	0.599162	0.583815	0.892940
	H102	H	0.407269	0.583155	0.121448
	H103	H	0.420753	0.408376	0.898224
	H104	H	0.112261	0.583245	0.422276
	H105	H	0.885947	0.587001	0.596789
	H106	H	0.114499	0.409246	0.598498
	H107	H	0.885580	0.404731	0.417639
	H108	H	0.914855	0.611194	0.101956
	H109	H	0.089134	0.384563	0.099775
	H110	H	0.091133	0.608830	0.919581
	H111	H	0.920606	0.389168	0.923681
	H112	H	0.081139	0.908594	0.619606
	H113	H	0.086886	0.087759	0.396347
	H114	H	0.907768	0.084096	0.620805
	H115	H	0.902895	0.908263	0.392151
	H116	H	0.615409	0.091921	0.924716
	H117	H	0.387265	0.087121	0.097377
	H118	H	0.608896	0.916434	0.093719
	H119	H	0.388825	0.904381	0.924434
	C120	C	0.378228	0.005925	0.631111
	C121	C	0.621254	0.989414	0.629981
	C122	C	0.620103	0.004564	0.387736
	C123	C	0.376967	0.988852	0.387053
	C124	C	0.623490	0.374508	0.017703
	C125	C	0.623325	0.618045	1.000106
	C126	C	0.381064	0.617177	0.015651
	C127	C	0.379737	0.374555	0.999366
	C128	C	0.009756	0.620075	0.385974
	C129	C	0.991529	0.619171	0.628432
	C130	C	0.008714	0.376682	0.628122
	C131	C	0.992623	0.377157	0.386955
	C132	C	0.881070	0.505070	0.129470
	C133	C	0.123689	0.489283	0.128850
	C134	C	0.123846	0.506008	0.884361
	C135	C	0.880649	0.489670	0.886595
	C136	C	0.119428	0.877284	0.516432
	C137	C	0.120949	0.119732	0.500761
	C138	C	0.877778	0.119844	0.516870
	C139	C	0.877633	0.876090	0.499609
	C140	C	0.509948	0.118159	0.887851
	C141	C	0.492329	0.117261	0.129690
	C142	C	0.509114	0.874185	0.130839
	C143	C	0.493360	0.875581	0.888058
	C144	C	0.375590	0.887167	0.691705
	C145	C	0.623724	0.107746	0.690157
	C146	C	0.622496	0.885399	0.328633
	C147	C	0.375179	0.107359	0.325856
	C148	C	0.684303	0.372078	0.898311
	C149	C	0.683224	0.619373	0.119676
	C150	C	0.322505	0.619140	0.895534
	C151	C	0.318658	0.372409	0.118335
	C152	C	0.889320	0.678755	0.382815
	C153	C	0.111147	0.678990	0.629418
	C154	C	0.888336	0.317885	0.630762
	C155	C	0.111241	0.315259	0.384149
	C156	C	0.889185	0.375028	0.688639
	C157	C	0.112049	0.620734	0.686459
	C158	C	0.890160	0.620769	0.325501
	C159	C	0.113090	0.374791	0.328101
	C160	C	0.378993	0.678205	0.896894
	C161	C	0.626411	0.678061	0.119486
	C162	C	0.626604	0.314124	0.898505
	C163	C	0.377641	0.315606	0.119397
	C164	C	0.681147	0.886206	0.385594
	C165	C	0.681337	0.108353	0.632279
	C166	C	0.316838	0.887612	0.634457
	C167	C	0.318030	0.108309	0.384850
	C168	C	0.879460	0.386290	0.190309
	C169	C	0.127429	0.608441	0.188720
	C170	C	0.123935	0.386578	0.825389
	C171	C	0.877143	0.608549	0.826441
	C172	C	0.181099	0.875201	0.397693
	C173	C	0.181509	0.122563	0.619785
	C174	C	0.818251	0.120594	0.397273
	C175	C	0.818775	0.874686	0.619695
	C176	C	0.390992	0.179061	0.883952
	C177	C	0.611578	0.177636	0.133725
	C178	C	0.389852	0.813643	0.132096
	C179	C	0.612548	0.814636	0.883768
	C180	C	0.388938	0.871585	0.189366
	C181	C	0.611551	0.118607	0.190430
	C182	C	0.390441	0.120363	0.827629
	C183	C	0.612390	0.872944	0.826656
	C184	C	0.874973	0.179411	0.397216
	C185	C	0.124013	0.180501	0.619345
	C186	C	0.123387	0.817551	0.397127
	C187	C	0.875050	0.815564	0.618892
	C188	C	0.181897	0.386200	0.883246
	C189	C	0.183279	0.608633	0.128951
	C190	C	0.820762	0.386147	0.132839
	C191	C	0.819478	0.608024	0.884446
	C192	C	0.403399	0.088668	0.605600
	C193	C	0.596256	0.906266	0.604682
	C194	C	0.594736	0.087481	0.412461
	C195	C	0.402148	0.906267	0.412777
	C196	C	0.597563	0.399976	0.100161
	C197	C	0.597805	0.592909	0.917068
	C198	C	0.405537	0.591864	0.099034
	C199	C	0.405719	0.399621	0.916505
	C200	C	0.092867	0.596037	0.411711
	C201	C	0.908095	0.593859	0.603827
	C202	C	0.091805	0.401299	0.602463
	C203	C	0.909199	0.402513	0.411683
	C204	C	0.905960	0.587995	0.103700
	C205	C	0.097967	0.406455	0.104674
	C206	C	0.099701	0.589387	0.908855
	C207	C	0.906815	0.407085	0.911664
	C208	C	0.093241	0.902171	0.599364
	C209	C	0.095339	0.094302	0.417849
	C210	C	0.902891	0.095463	0.600343
	C211	C	0.902439	0.901123	0.416273
	C212	C	0.592653	0.092623	0.913788
	C213	C	0.409046	0.092876	0.104063
	C214	C	0.592589	0.899736	0.106236
	C215	C	0.410643	0.900733	0.914286
	Zn216	Zn	0.500841	-0.002969	0.759526
	Zn217	Zn	0.499106	-0.004148	0.258538
	Zn218	Zn	0.751442	0.496706	0.008404
	Zn219	Zn	0.251812	0.496834	0.006622
	Zn220	Zn	-0.001084	0.748003	0.507584
	Zn221	Zn	-0.001026	0.248235	0.507963
	Zn222	Zn	0.001229	0.498060	0.756431
	Zn223	Zn	0.003029	0.498323	0.258251
	Zn224	Zn	0.501924	0.746485	0.008391
	Zn225	Zn	0.501538	0.246387	0.008594
	Zn226	Zn	0.749509	-0.002092	0.508490
	Zn227	Zn	0.248488	-0.002115	0.509715
	N228	N	0.413145	0.961873	0.689746
	N229	N	0.587199	0.032689	0.688735
	N230	N	0.585380	0.960125	0.329789
	N231	N	0.411141	0.032098	0.327183
	N232	N	0.683000	0.408639	0.973485
	N233	N	0.681469	0.582876	0.044458
	N234	N	0.323686	0.581880	0.970482
	N235	N	0.319858	0.408374	0.042726
	N236	N	0.964734	0.678745	0.419568
	N237	N	0.035086	0.678063	0.594101
	N238	N	0.963685	0.318658	0.593804
	N239	N	0.035313	0.316506	0.419831
	N240	N	0.964921	0.410887	0.687139
	N241	N	0.036543	0.584557	0.686281
	N242	N	0.965980	0.585455	0.326998
	N243	N	0.038340	0.412532	0.329715
	N244	N	0.414876	0.676738	0.972476
	N245	N	0.589944	0.677316	0.044097
	N246	N	0.589629	0.315640	0.973628
	N247	N	0.414754	0.316669	0.044287
	N248	N	0.679795	0.961434	0.421736
	N249	N	0.679857	0.033480	0.595336
	N250	N	0.318366	0.962326	0.597379
	N251	N	0.319014	0.033572	0.422152
	N252	N	0.916323	0.461404	0.188318
	N253	N	0.091186	0.533104	0.189098
	N254	N	0.088708	0.462213	0.826013
	N255	N	0.914430	0.533852	0.827560
	N256	N	0.178876	0.911577	0.473025
	N257	N	0.179777	0.085670	0.544777
	N258	N	0.819919	0.084247	0.472578
	N259	N	0.820194	0.911629	0.544528
	N260	N	0.466432	0.177994	0.920604
	N261	N	0.536281	0.177128	0.096842
	N262	N	0.465803	0.814930	0.096459
	N263	N	0.537730	0.816429	0.921648
	N264	N	0.464362	0.908097	0.189026
	N265	N	0.536367	0.081921	0.188125
	N266	N	0.465325	0.083143	0.829878
	N267	N	0.537511	0.910294	0.829367
	N268	N	0.911324	0.179011	0.472740
	N269	N	0.086950	0.178914	0.544376
	N270	N	0.085403	0.818911	0.471811
	N271	N	0.910643	0.816033	0.542950
	N272	N	0.181874	0.461505	0.919201
	N273	N	0.181102	0.533650	0.092526
	N274	N	0.821585	0.461035	0.095969
	N275	N	0.821429	0.533046	0.921221
	O276	O	0.670360	0.304476	0.372179
	H277	H	0.677161	0.285875	0.391952
	H278	H	0.656171	0.294642	0.375115
	O279	O	0.584289	0.586556	0.457785
	H280	H	0.580031	0.590621	0.457541
	H281	H	0.577168	0.585120	0.450086
	O282	O	0.411048	0.486703	0.391308
	H283	H	0.388868	0.493301	0.380499
	H284	H	0.397182	0.486211	0.398507
	O285	O	0.808172	0.918750	-0.051996
	H286	H	0.804371	0.906690	-0.060382
	H287	H	0.805933	0.919498	-0.058072
	O288	O	0.463244	0.466679	0.434161
	H289	H	0.474775	0.461625	0.454960
	H290	H	0.456503	0.458399	0.422548
	O291	O	0.498284	0.294590	0.457919
	H292	H	0.516936	0.293654	0.450013
	H293	H	0.501857	0.300340	0.459434
	O294	O	1.148842	0.892463	1.047335
	H295	H	1.132150	0.902340	1.058948
	H296	H	1.152052	0.905252	1.072603
	O297	O	0.309025	0.506870	0.536888
	H298	H	0.304582	0.501239	0.531035
	H299	H	0.306458	0.479415	0.536750
	O300	O	0.480828	0.395200	0.475925
	H301	H	0.479181	0.410857	0.463336
	H302	H	0.500376	0.404067	0.472852
	O303	O	0.288914	0.483551	0.705540
	H304	H	0.290217	0.449663	0.705558
	H305	H	0.266282	0.462545	0.725995
	O306	O	-0.187222	-0.012889	1.060647
	H307	H	-0.197191	-0.013102	1.061127
	H308	H	-0.183688	-0.013708	1.061235
	O309	O	1.121119	0.124649	-0.085626
	H310	H	1.127496	0.118015	-0.086951
	H311	H	1.100774	0.124493	-0.077641
	O312	O	0.697962	0.478034	0.496935
	H313	H	0.705341	0.476075	0.502600
	H314	H	0.691216	0.482900	0.517117
	O315	O	0.701230	0.704549	0.526416
	H316	H	0.718245	0.723504	0.523811
	H317	H	0.698056	0.690967	0.511398
	O318	O	0.076889	0.076746	0.038025
	H319	H	0.076857	0.091238	0.046799
	H320	H	0.080874	0.062951	0.036369
	O321	O	0.817328	0.188256	-0.078623
	H322	H	0.845881	0.187295	-0.076080
	H323	H	0.827372	0.166538	-0.089625
	O324	O	0.971819	0.129900	0.801676
	H325	H	0.990995	0.124348	0.796057
	H326	H	0.981210	0.121835	0.801996
	O327	O	0.381563	0.488015	0.376226
	H328	H	0.385546	0.510866	0.384025
	H329	H	0.372191	0.492046	0.370485
	O330	O	0.019662	0.873726	0.872345
	H331	H	0.020296	0.874857	0.867196
	H332	H	0.043658	0.855211	0.850476
	O333	O	0.205760	1.044233	0.018099
	H334	H	0.201970	1.065208	0.016837
	H335	H	0.196360	1.041778	0.008176
	O336	O	1.123329	0.987789	0.006582
	H337	H	1.139034	0.972147	0.000703
	H338	H	1.122395	0.983906	0.019763
	O339	O	0.070995	0.824304	1.084002
	H340	H	0.077813	0.834470	1.095938
	H341	H	0.045666	0.806635	1.105713
	O342	O	0.468137	0.674039	0.675501
	H343	H	0.453969	0.672528	0.680181
	H344	H	0.443777	0.664235	0.666680
	O345	O	-0.123401	0.206856	1.048893
	H346	H	-0.126318	0.210960	1.057244
	H347	H	-0.145799	0.205784	1.032874
	O348	O	0.376571	0.309897	0.526242
	H349	H	0.385210	0.309280	0.521128
	H350	H	0.366447	0.303757	0.526280
	O351	O	1.006393	0.971117	0.059765
	H352	H	1.015638	0.967652	0.080461
	H353	H	1.000571	0.968116	0.062885
	O354	O	0.976766	1.118944	1.156468
	H355	H	0.982180	1.120110	1.165906
	H356	H	0.963548	1.112499	1.154258
	O357	O	-0.153979	0.049822	0.074528
	H358	H	-0.153940	0.071142	0.071481
	H359	H	-0.157080	0.034120	0.047189
	O360	O	0.531706	0.367669	0.712322
	H361	H	0.545441	0.395300	0.706256
	H362	H	0.536967	0.373736	0.722186
	O363	O	0.806961	0.126460	0.064541
	H364	H	0.813599	0.119566	0.040488
	H365	H	0.786402	0.153986	0.054273
	O366	O	0.108480	0.015135	0.887281
	H367	H	0.127350	0.017176	0.915041
	H368	H	0.114757	0.007202	0.886790
	O369	O	0.630336	0.566933	0.447089
	H370	H	0.634533	0.547126	0.438313
	H371	H	0.637825	0.563847	0.450134
	O372	O	0.334426	0.330891	0.694632
	H373	H	0.381475	0.320314	0.697194
	H374	H	0.327311	0.316089	0.666838
	O375	O	0.102179	-0.130238	0.852492
	H376	H	0.103313	-0.150063	0.827054
	H377	H	0.129080	-0.119176	0.860099
	O378	O	0.083042	0.185784	0.008591
	H379	H	0.077119	0.172079	-0.000648
	H380	H	0.076264	0.188859	0.010718
	O381	O	0.186095	1.136152	0.206687
	H382	H	0.176926	1.152271	0.200677
	H383	H	0.178847	1.137098	0.194814
	O384	O	0.681908	0.660623	0.687222
	H385	H	0.637768	0.669497	0.696534
	H386	H	0.692208	0.672451	0.643826
	O387	O	0.471090	0.608285	0.687978
	H388	H	0.449633	0.606130	0.688980
	H389	H	0.456824	0.589088	0.682430
	O390	O	0.923421	0.932497	0.215456
	H391	H	0.924344	0.936775	0.220386
	H392	H	0.932770	0.923006	0.221199
	O393	O	0.707789	0.266691	0.661770
	H394	H	0.713899	0.250038	0.679676
	H395	H	0.714872	0.290914	0.663803
	O396	O	0.576193	0.560267	0.436665
	H397	H	0.592025	0.551616	0.441688
	H398	H	0.559503	0.551329	0.435835
	O399	O	0.704961	0.428449	0.300890
	H400	H	0.700653	0.411893	0.308963
	H401	H	0.730905	0.427223	0.282100
	O402	O	0.823773	0.807798	0.124958
	H403	H	0.820856	0.828751	0.132407
	H404	H	0.817524	0.797668	0.119475
	O405	O	0.455926	0.695553	0.309599
	H406	H	0.457800	0.700178	0.292141
	H407	H	0.466056	0.679465	0.294767
	O408	O	0.571943	0.360606	0.483790
	H409	H	0.583024	0.356001	0.492416
	H410	H	0.557972	0.365371	0.483742
	O411	O	0.842983	1.001562	0.808680
	H412	H	0.834834	0.993581	0.790496
	H413	H	0.866897	0.997696	0.805394
	O414	O	0.692889	0.494063	0.691773
	H415	H	0.685110	0.535410	0.682565
	H416	H	0.716606	0.499331	0.718150
	O417	O	0.013664	0.790607	1.046166
	H418	H	-0.004110	0.778926	1.067664
	H419	H	-0.007504	0.784277	1.038429
	O420	O	-0.128373	0.812018	0.978669
	H421	H	-0.127777	0.811956	0.977454
	H422	H	-0.140515	0.803735	0.981717
	O423	O	0.204968	0.994842	0.179039
	H424	H	0.221362	1.013610	0.189928
	H425	H	0.196638	1.015285	0.182111
	O426	O	0.326279	0.644133	0.353387
	H427	H	0.340702	0.652351	0.371487
	H428	H	0.344627	0.645143	0.358184
	O429	O	0.437217	0.714290	0.534077
	H430	H	0.435029	0.722039	0.535578
	H431	H	0.435006	0.714980	0.528199
	O432	O	0.431566	0.302020	0.527658
	H433	H	0.430696	0.299033	0.515802
	H434	H	0.438908	0.290828	0.538683
	O435	O	0.012599	0.044630	0.055707
	H436	H	0.026581	0.051525	0.065537
	H437	H	-0.006860	0.032170	0.059900
	O438	O	0.211373	0.768878	0.765009
	H439	H	0.225721	0.754359	0.776162
	H440	H	0.202096	0.759603	0.775557
	O441	O	0.316732	0.628565	0.427621
	H442	H	0.317853	0.625599	0.422963
	H443	H	0.307403	0.615708	0.429136
