data_Molecule from HDF5

_cell_length_a		16.597989
_cell_length_b		16.567093
_cell_length_c		16.488365
_cell_angle_alpha	90.202358
_cell_angle_beta	90.031540
_cell_angle_gamma	89.905431
_symmetry_space_group_name_H-M	'P 1'
_symmetry_Int_Tables_number		1

loop_
	_symmetry_equiv_pos_as_xyz
	x,y,z

loop_
	_atom_site_label
	_atom_site_type_symbol
	_atom_site_fract_x
	_atom_site_fract_y
	_atom_site_fract_z
	H0	H	0.393046	0.859446	0.713954
	H1	H	0.604428	0.171668	0.714701
	H2	H	0.606157	0.859785	0.267994
	H3	H	0.389747	0.171123	0.268322
	H4	H	0.715349	0.413874	0.833644
	H5	H	0.722434	0.624453	0.149032
	H6	H	0.273799	0.624504	0.838005
	H7	H	0.274933	0.407984	0.149043
	H8	H	0.843367	0.738387	0.385561
	H9	H	0.154831	0.741329	0.601627
	H10	H	0.843465	0.295590	0.594539
	H11	H	0.154354	0.289425	0.381454
	H12	H	0.842545	0.414264	0.710095
	H13	H	0.154865	0.623225	0.716095
	H14	H	0.841633	0.620090	0.271206
	H15	H	0.154521	0.407674	0.266717
	H16	H	0.390722	0.738746	0.836815
	H17	H	0.607256	0.740880	0.149366
	H18	H	0.601814	0.294673	0.835426
	H19	H	0.392565	0.294166	0.149669
	H20	H	0.722191	0.859510	0.384395
	H21	H	0.721738	0.170118	0.600406
	H22	H	0.275937	0.860010	0.599695
	H23	H	0.272534	0.169633	0.382918
	H24	H	0.892553	0.359508	0.213651
	H25	H	0.103716	0.671678	0.215307
	H26	H	0.105753	0.360007	0.768923
	H27	H	0.895691	0.674253	0.772050
	H28	H	0.224703	0.905625	0.335788
	H29	H	0.221749	0.123242	0.648463
	H30	H	0.775155	0.122380	0.336632
	H31	H	0.778128	0.909927	0.648872
	H32	H	0.343195	0.239844	0.885632
	H33	H	0.654473	0.237059	0.098816
	H34	H	0.344013	0.790174	0.103902
	H35	H	0.651994	0.790642	0.883362
	H36	H	0.343598	0.907445	0.217998
	H37	H	0.653974	0.121921	0.215927
	H38	H	0.343268	0.123125	0.768959
	H39	H	0.653830	0.909427	0.769785
	H40	H	0.891656	0.237431	0.335507
	H41	H	0.105667	0.238725	0.647773
	H42	H	0.107388	0.790399	0.335161
	H43	H	0.894427	0.794494	0.648649
	H44	H	0.222890	0.360750	0.884154
	H45	H	0.224127	0.670006	0.103792
	H46	H	0.776168	0.359918	0.096862
	H47	H	0.777528	0.673329	0.887233
	H48	H	0.407096	0.127903	0.578494
	H49	H	0.590337	0.901864	0.581865
	H50	H	0.581562	0.124551	0.407087
	H51	H	0.420559	0.909304	0.408521
	H52	H	0.587717	0.422824	0.107331
	H53	H	0.589531	0.598956	0.881923
	H54	H	0.411054	0.601555	0.104853
	H55	H	0.404252	0.425441	0.878185
	H56	H	0.109684	0.602169	0.403798
	H57	H	0.889849	0.599721	0.582793
	H58	H	0.112216	0.423753	0.577136
	H59	H	0.892164	0.434223	0.404392
	H60	H	0.109975	0.430316	0.576485
	H61	H	0.884994	0.610583	0.584696
	H62	H	0.109902	0.603742	0.404857
	H63	H	0.884862	0.423830	0.394291
	H64	H	0.413610	0.602048	0.103167
	H65	H	0.581044	0.605186	0.882334
	H66	H	0.592267	0.428168	0.106500
	H67	H	0.411190	0.436254	0.884123
	H68	H	0.592409	0.126856	0.409929
	H69	H	0.587302	0.903208	0.582375
	H70	H	0.409617	0.128641	0.583611
	H71	H	0.406040	0.904768	0.411906
	H72	H	0.909094	0.626342	0.078348
	H73	H	0.080518	0.403802	0.086916
	H74	H	0.084812	0.629439	0.898478
	H75	H	0.906060	0.403106	0.900570
	H76	H	0.081317	0.920790	0.603673
	H77	H	0.092056	0.101285	0.377684
	H78	H	0.911043	0.104841	0.604366
	H79	H	0.912525	0.931234	0.381040
	H80	H	0.610046	0.108189	0.905932
	H81	H	0.387750	0.105587	0.076934
	H82	H	0.608257	0.926786	0.077617
	H83	H	0.388146	0.930908	0.905523
	H84	H	0.606901	0.931924	0.077846
	H85	H	0.387397	0.101303	0.082301
	H86	H	0.608082	0.101805	0.906758
	H87	H	0.386081	0.928103	0.901997
	H88	H	0.910437	0.106202	0.605251
	H89	H	0.083612	0.094881	0.382919
	H90	H	0.096339	0.928340	0.606159
	H91	H	0.913962	0.923290	0.379025
	H92	H	0.081695	0.624052	0.909494
	H93	H	0.082148	0.409735	0.067862
	H94	H	0.909589	0.628439	0.082436
	H95	H	0.907141	0.403314	0.899305
	H96	H	0.412807	0.125849	0.579442
	H97	H	0.588946	0.903324	0.579530
	H98	H	0.588705	0.129156	0.399523
	H99	H	0.412175	0.902436	0.397900
	H100	H	0.585819	0.429121	0.104660
	H101	H	0.590465	0.608652	0.878739
	H102	H	0.412298	0.604226	0.104554
	H103	H	0.417276	0.424126	0.881954
	H104	H	0.109565	0.601951	0.405651
	H105	H	0.890093	0.607894	0.574102
	H106	H	0.112082	0.428014	0.582865
	H107	H	0.887791	0.418703	0.409706
	H108	H	0.913237	0.626664	0.080039
	H109	H	0.097747	0.401246	0.077752
	H110	H	0.093232	0.628286	0.907983
	H111	H	0.907771	0.404012	0.901098
	H112	H	0.084063	0.936790	0.597870
	H113	H	0.081117	0.106267	0.380562
	H114	H	0.909921	0.104761	0.604977
	H115	H	0.906497	0.926754	0.378237
	H116	H	0.611324	0.103808	0.900535
	H117	H	0.385473	0.108118	0.083143
	H118	H	0.609228	0.929874	0.081683
	H119	H	0.387172	0.925906	0.906400
	C120	C	0.377359	0.024270	0.613428
	C121	C	0.620413	1.006479	0.613983
	C122	C	0.620589	0.023836	0.371259
	C123	C	0.378097	1.007763	0.371626
	C124	C	0.619918	0.394877	0.001611
	C125	C	0.620364	0.638208	0.984267
	C126	C	0.377561	0.636854	0.001670
	C127	C	0.377727	0.395259	0.984704
	C128	C	0.007166	0.636141	0.371230
	C129	C	0.991454	0.638435	0.613699
	C130	C	0.008043	0.395474	0.611390
	C131	C	0.990798	0.392142	0.368785
	C132	C	0.877928	0.523589	0.112325
	C133	C	0.120296	0.507119	0.113150
	C134	C	0.120387	0.524345	0.871358
	C135	C	0.876518	0.507861	0.869737
	C136	C	0.121263	0.893834	0.499808
	C137	C	0.119854	0.135563	0.483392
	C138	C	0.877352	0.137162	0.501258
	C139	C	0.879286	0.895365	0.483668
	C140	C	0.506740	0.137632	0.871196
	C141	C	0.489829	0.137489	0.114280
	C142	C	0.506140	0.894914	0.113746
	C143	C	0.489622	0.894588	0.871142
	C144	C	0.374668	0.906664	0.674124
	C145	C	0.622480	0.124216	0.674710
	C146	C	0.623898	0.906593	0.309007
	C147	C	0.372558	0.124185	0.309081
	C148	C	0.677458	0.393946	0.881813
	C149	C	0.681720	0.641744	0.102108
	C150	C	0.314520	0.641496	0.884657
	C151	C	0.316156	0.391231	0.102384
	C152	C	0.889949	0.697470	0.367969
	C153	C	0.108307	0.699887	0.618259
	C154	C	0.890206	0.336018	0.613303
	C155	C	0.107671	0.330322	0.363948
	C156	C	0.889854	0.394940	0.670616
	C157	C	0.108282	0.641690	0.675688
	C158	C	0.889199	0.638574	0.310947
	C159	C	0.107833	0.389174	0.307021
	C160	C	0.373005	0.698187	0.884161
	C161	C	0.624124	0.699778	0.102131
	C162	C	0.620587	0.335147	0.882569
	C163	C	0.374745	0.334391	0.102539
	C164	C	0.681871	0.906481	0.366727
	C165	C	0.680519	0.123816	0.617322
	C166	C	0.316230	0.906994	0.617256
	C167	C	0.314429	0.123663	0.366328
	C168	C	0.874573	0.406336	0.172903
	C169	C	0.122713	0.624444	0.175252
	C170	C	0.123929	0.406993	0.809344
	C171	C	0.876277	0.626740	0.811436
	C172	C	0.183549	0.888657	0.382404
	C173	C	0.181258	0.140191	0.600968
	C174	C	0.816145	0.139886	0.383248
	C175	C	0.818765	0.892379	0.601761
	C176	C	0.389702	0.198674	0.867978
	C177	C	0.607317	0.197565	0.117306
	C178	C	0.390521	0.831806	0.119644
	C179	C	0.605978	0.831969	0.866626
	C180	C	0.390159	0.890195	0.176878
	C181	C	0.607090	0.140136	0.175445
	C182	C	0.389734	0.140698	0.809845
	C183	C	0.606667	0.890770	0.809933
	C184	C	0.874117	0.197230	0.382835
	C185	C	0.123543	0.197966	0.600836
	C186	C	0.125378	0.831341	0.382113
	C187	C	0.876893	0.835092	0.601836
	C188	C	0.182056	0.407353	0.866870
	C189	C	0.182469	0.623751	0.119512
	C190	C	0.816722	0.406587	0.114990
	C191	C	0.817688	0.626490	0.868735
	C192	C	0.402601	0.106048	0.587973
	C193	C	0.596049	0.924216	0.588467
	C194	C	0.594834	0.105447	0.397812
	C195	C	0.405246	0.926599	0.398377
	C196	C	0.595693	0.419596	0.084468
	C197	C	0.594449	0.611868	0.902329
	C198	C	0.404640	0.610239	0.082932
	C199	C	0.403648	0.421198	0.902650
	C200	C	0.088603	0.610098	0.397400
	C201	C	0.909686	0.613102	0.587876
	C202	C	0.090130	0.420126	0.586119
	C203	C	0.909391	0.418027	0.395360
	C204	C	0.903480	0.605958	0.087235
	C205	C	0.094187	0.426089	0.085482
	C206	C	0.094123	0.605828	0.897837
	C207	C	0.900213	0.425086	0.893413
	C208	C	0.094829	0.920756	0.581181
	C209	C	0.093346	0.108592	0.401710
	C210	C	0.903102	0.112367	0.583380
	C211	C	0.903956	0.920253	0.401096
	C212	C	0.588612	0.111964	0.897089
	C213	C	0.408199	0.112298	0.088445
	C214	C	0.586935	0.922004	0.086590
	C215	C	0.408235	0.920828	0.897444
	Zn216	Zn	0.498204	0.015450	0.742370
	Zn217	Zn	0.498648	0.015849	0.243017
	Zn218	Zn	0.748198	0.516663	-0.008011
	Zn219	Zn	0.248914	0.515796	-0.006882
	Zn220	Zn	-0.000115	0.766045	0.491600
	Zn221	Zn	-0.000090	0.264600	0.490990
	Zn222	Zn	-0.000027	0.516539	0.742123
	Zn223	Zn	-0.001030	0.515057	0.241626
	Zn224	Zn	0.497869	0.765973	-0.007034
	Zn225	Zn	0.498247	0.266372	-0.007072
	Zn226	Zn	0.749462	0.015111	0.492541
	Zn227	Zn	0.248937	0.015226	0.491950
	N228	N	0.411799	0.980712	0.672072
	N229	N	0.585418	0.050240	0.672624
	N230	N	0.586224	0.980533	0.311750
	N231	N	0.411523	0.050924	0.312336
	N232	N	0.677305	0.430245	0.956843
	N233	N	0.679626	0.604120	0.027668
	N234	N	0.317116	0.604012	0.958956
	N235	N	0.317981	0.428459	0.028028
	N236	N	0.964339	0.696153	0.404575
	N237	N	0.034564	0.698021	0.580483
	N238	N	0.964761	0.336241	0.577234
	N239	N	0.033910	0.332096	0.401585
	N240	N	0.964313	0.431105	0.669719
	N241	N	0.034640	0.604169	0.673018
	N242	N	0.963081	0.601060	0.312809
	N243	N	0.033956	0.426820	0.309752
	N244	N	0.411329	0.695585	0.957803
	N245	N	0.586816	0.697744	0.027741
	N246	N	0.585884	0.335156	0.958166
	N247	N	0.412131	0.336717	0.028351
	N248	N	0.679898	0.980338	0.404650
	N249	N	0.679473	0.049519	0.580298
	N250	N	0.317664	0.981113	0.580188
	N251	N	0.317976	0.050285	0.404620
	N252	N	0.911857	0.480162	0.171267
	N253	N	0.084725	0.550875	0.171482
	N254	N	0.086289	0.480824	0.811979
	N255	N	0.912227	0.551946	0.811694
	N256	N	0.181168	0.926720	0.456488
	N257	N	0.178811	0.101881	0.526986
	N258	N	0.817737	0.103376	0.457918
	N259	N	0.819908	0.928933	0.527164
	N260	N	0.463541	0.196871	0.905223
	N261	N	0.533279	0.196252	0.080106
	N262	N	0.463919	0.834517	0.081384
	N263	N	0.531887	0.833840	0.903710
	N264	N	0.463051	0.929043	0.173220
	N265	N	0.532911	0.103594	0.173894
	N266	N	0.463658	0.103222	0.811763
	N267	N	0.533316	0.928920	0.812417
	N268	N	0.911645	0.195783	0.457174
	N269	N	0.086280	0.195378	0.526415
	N270	N	0.087424	0.834320	0.456119
	N271	N	0.913619	0.836481	0.527270
	N272	N	0.180036	0.481415	0.904572
	N273	N	0.181117	0.549814	0.081759
	N274	N	0.818670	0.480633	0.078048
	N275	N	0.817646	0.551675	0.904291
	O276	O	1.177502	1.013846	0.202388
	H277	H	1.188284	0.997131	0.175274
	H278	H	1.189390	1.015437	0.213897
	O279	O	0.036601	0.039501	0.766603
	H280	H	0.023331	0.038181	0.774449
	H281	H	0.029640	0.069311	0.762767
	O282	O	0.466005	0.295480	0.380492
	H283	H	0.471765	0.284360	0.384107
	H284	H	0.479737	0.298415	0.376535
	O285	O	0.541351	0.732955	0.446191
	H286	H	0.528731	0.734349	0.468422
	H287	H	0.548792	0.735949	0.425738
	O288	O	1.523551	-0.266644	0.696663
	H289	H	1.529145	-0.279482	0.709338
	H290	H	1.530640	-0.263988	0.724007
	O291	O	0.580184	0.555204	0.264832
	H292	H	0.568872	0.587469	0.273643
	H293	H	0.574158	0.555683	0.256790
	O294	O	0.199657	-0.151149	-0.208146
	H295	H	0.201912	-0.145442	-0.170848
	H296	H	0.221552	-0.124483	-0.226172
	O297	O	1.195507	0.175900	0.188578
	H298	H	1.178716	0.187461	0.170872
	H299	H	1.200471	0.142814	0.200773
	O300	O	0.477909	0.726951	0.276943
	H301	H	0.475351	0.759400	0.252921
	H302	H	0.430234	0.717358	0.287601
	O303	O	-0.287899	-0.445920	-0.295602
	H304	H	-0.274799	-0.435233	-0.289601
	H305	H	-0.290980	-0.434687	-0.291105
	O306	O	0.986233	0.052460	-0.027475
	H307	H	0.989780	0.055920	-0.041202
	H308	H	1.002108	0.048504	-0.040725
	O309	O	0.282975	0.302698	0.517354
	H310	H	0.282448	0.299988	0.506723
	H311	H	0.271743	0.301464	0.507508
	O312	O	0.045435	1.202094	0.889099
	H313	H	0.038789	1.217452	0.892578
	H314	H	0.051737	1.199699	0.877811
	O315	O	0.519299	0.489404	0.467337
	H316	H	0.509425	0.487342	0.450625
	H317	H	0.521936	0.511987	0.463678
	O318	O	1.028956	0.929481	0.177643
	H319	H	1.042061	0.935698	0.175641
	H320	H	1.034938	0.933978	0.175357
	O321	O	0.161223	1.157944	0.856711
	H322	H	0.148494	1.169666	0.874363
	H323	H	0.169000	1.162057	0.835571
	O324	O	0.872842	-0.059511	0.982479
	H325	H	0.868496	-0.069549	0.986759
	H326	H	0.866565	-0.057840	0.989390
	O327	O	0.307153	0.321888	0.681227
	H328	H	0.351294	0.331064	0.683082
	H329	H	0.299406	0.316512	0.630877
	O330	O	0.965684	1.229957	-0.224082
	H331	H	0.935654	1.234901	-0.223585
	H332	H	0.964112	1.250826	-0.231507
	O333	O	0.692287	0.322316	0.681181
	H334	H	0.664234	0.332601	0.665644
	H335	H	0.687669	0.349185	0.653814
	O336	O	0.074428	0.923571	0.037678
	H337	H	0.070968	0.932538	0.049157
	H338	H	0.061212	0.931738	0.040333
	O339	O	0.277855	0.494377	0.714403
	H340	H	0.257625	0.483075	0.728451
	H341	H	0.273013	0.462917	0.715499
	O342	O	-0.389856	0.384551	0.543516
	H343	H	-0.366399	0.388970	0.538532
	H344	H	-0.395126	0.394803	0.538206
	O345	O	0.611914	0.349522	0.545386
	H346	H	0.611433	0.343093	0.543444
	H347	H	0.629211	0.367284	0.542603
	O348	O	0.349522	0.483431	0.482238
	H349	H	0.354626	0.503492	0.475444
	H350	H	0.345835	0.493206	0.470942
	O351	O	0.171831	0.172642	1.047154
	H352	H	0.178318	0.169749	1.053804
	H353	H	0.174652	0.182797	1.050914
	O354	O	1.157559	0.011895	1.010250
	H355	H	1.158081	0.018624	0.991516
	H356	H	1.173271	-0.005013	1.003487
	O357	O	0.686870	0.591338	0.384370
	H358	H	0.694971	0.583600	0.368090
	H359	H	0.680472	0.588763	0.378574
	O360	O	0.702347	0.301518	0.473351
	H361	H	0.712944	0.306624	0.450398
	H362	H	0.715029	0.303402	0.453859
	O363	O	0.566057	0.632773	0.641758
	H364	H	0.578169	0.619826	0.650440
	H365	H	0.565845	0.630129	0.641492
	O366	O	1.154114	-0.013158	1.078648
	H367	H	1.162097	-0.003887	1.048212
	H368	H	1.144975	-0.039838	1.068817
	O369	O	0.202236	0.043839	0.966552
	H370	H	0.207320	0.061658	0.961992
	H371	H	0.204571	0.039245	0.957598
	O372	O	-0.007262	0.800729	1.173063
	H373	H	-0.002557	0.805595	1.181549
	H374	H	-0.008070	0.788776	1.167427
	O375	O	1.009576	-0.066300	-0.179337
	H376	H	0.994180	-0.082870	-0.182392
	H377	H	0.996885	-0.054415	-0.190110
	O378	O	0.280566	0.732336	0.464425
	H379	H	0.293277	0.732594	0.482452
	H380	H	0.258374	0.756219	0.471183
	O381	O	0.314545	0.701095	0.302597
	H382	H	0.294740	0.719740	0.334457
	H383	H	0.306721	0.661065	0.305940
	O384	O	0.490145	0.420697	0.619052
	H385	H	0.492002	0.424695	0.634594
	H386	H	0.485978	0.414433	0.600823
	O387	O	-0.058021	1.240977	1.042274
	H388	H	-0.061269	1.242100	1.032348
	H389	H	-0.066842	1.240888	1.043196
	O390	O	-0.216696	1.229193	0.954423
	H391	H	-0.209429	1.214115	0.930713
	H392	H	-0.251053	1.258351	0.959199
	O393	O	0.915502	0.091955	0.202144
	H394	H	0.919768	0.100112	0.197242
	H395	H	0.931175	0.092688	0.199968
	O396	O	0.385481	0.662528	0.674045
	H397	H	0.385811	0.647369	0.682976
	H398	H	0.385097	0.658269	0.668621
	O399	O	0.478903	0.664601	0.510205
	H400	H	0.467118	0.658313	0.514536
	H401	H	0.475660	0.671639	0.516411
	O402	O	0.830335	-0.178889	1.188140
	H403	H	0.862196	-0.181071	1.199343
	H404	H	0.826014	-0.148811	1.185333
	O405	O	0.285499	0.538717	0.279539
	H406	H	0.269379	0.526251	0.271783
	H407	H	0.294701	0.535781	0.265099
	O408	O	0.794549	1.223770	0.786089
	H409	H	0.770440	1.245356	0.783665
	H410	H	0.789788	1.214227	0.769469
	O411	O	0.849235	0.966966	-0.051478
	H412	H	0.840107	0.962487	-0.064092
	H413	H	0.857221	0.963092	-0.050704
	O414	O	-0.221649	-0.197242	0.021654
	H415	H	-0.221058	-0.194583	0.053742
	H416	H	-0.240205	-0.218807	0.024400
	O417	O	0.211357	-0.000585	0.800587
	H418	H	0.221374	0.000864	0.795818
	H419	H	0.191843	0.015698	0.791778
	O420	O	0.926110	-0.184494	0.791199
	H421	H	0.942752	-0.173485	0.784002
	H422	H	0.923381	-0.179704	0.793597
	O423	O	1.696943	0.478727	0.302279
	H424	H	1.707957	0.477097	0.296066
	H425	H	1.677739	0.492103	0.290486
	O426	O	0.698166	0.716701	0.688792
	H427	H	0.714448	0.735728	0.677855
	H428	H	0.682763	0.708315	0.697123
	O429	O	0.947202	0.804801	-0.045077
	H430	H	0.940744	0.805284	-0.048331
	H431	H	0.948027	0.800339	-0.050517
	O432	O	0.852061	0.203480	1.167864
	H433	H	0.863788	0.186840	1.161526
	H434	H	0.861990	0.190893	1.156601
	O435	O	-0.210154	-0.002109	0.201074
	H436	H	-0.226822	0.001877	0.207979
	H437	H	-0.194710	0.003773	0.203202
	O438	O	0.514516	0.361076	0.700877
	H439	H	0.505876	0.358184	0.702566
	H440	H	0.517745	0.368543	0.688613
	O441	O	0.638833	0.715564	0.470629
	H442	H	0.636860	0.720707	0.463414
	H443	H	0.636732	0.712600	0.452714
	O444	O	0.329750	0.367066	0.377031
	H445	H	0.326874	0.352951	0.401400
	H446	H	0.332732	0.372372	0.380319
	O447	O	0.633198	0.506601	0.594115
	H448	H	0.642407	0.519164	0.602264
	H449	H	0.632045	0.509741	0.585281
	O450	O	1.502289	-0.615972	0.356980
	H451	H	1.507376	-0.633685	0.334530
	H452	H	1.505456	-0.617191	0.367628
	O453	O	0.784788	0.048906	0.778695
	H454	H	0.775577	0.063849	0.778125
	H455	H	0.773439	0.046446	0.770941
	O456	O	-0.059546	0.833842	0.805606
	H457	H	-0.041364	0.828072	0.812576
	H458	H	-0.043606	0.845054	0.807084
	O459	O	0.303634	0.608475	0.575420
	H460	H	0.304855	0.608972	0.581415
	H461	H	0.312026	0.599310	0.577482
	O462	O	0.450450	0.441404	0.304641
	H463	H	0.450144	0.440136	0.298196
	H464	H	0.465564	0.431525	0.301867
	O465	O	0.695639	0.316251	0.299781
	H466	H	0.675766	0.332542	0.302790
	H467	H	0.719317	0.314891	0.274865
	O468	O	0.044026	1.211696	0.190916
	H469	H	0.056089	1.226300	0.186150
	H470	H	0.037034	1.217947	0.181752
	O471	O	0.398277	0.580721	0.478059
	H472	H	0.395220	0.590040	0.487776
	H473	H	0.409599	0.596250	0.474772
	O474	O	1.207994	0.811126	0.025853
	H475	H	1.181277	0.813410	0.035332
	H476	H	1.220393	0.781202	0.012345
	O477	O	-0.199763	0.069314	1.038963
	H478	H	-0.187099	0.072582	1.037816
	H479	H	-0.208230	0.074376	1.029183
