data_Molecule from HDF5

_cell_length_a		16.251902
_cell_length_b		16.326924
_cell_length_c		16.314866
_cell_angle_alpha	90.172999
_cell_angle_beta	89.500711
_cell_angle_gamma	89.762614
_symmetry_space_group_name_H-M	'P 1'
_symmetry_Int_Tables_number		1

loop_
	_symmetry_equiv_pos_as_xyz
	x,y,z

loop_
	_atom_site_label
	_atom_site_type_symbol
	_atom_site_fract_x
	_atom_site_fract_y
	_atom_site_fract_z
	H0	H	0.397187	0.839684	0.716278
	H1	H	0.595897	0.164872	0.715951
	H2	H	0.599636	0.840035	0.281649
	H3	H	0.394352	0.164808	0.283114
	H4	H	0.717138	0.402195	0.836699
	H5	H	0.711619	0.601511	0.162975
	H6	H	0.283437	0.601631	0.836030
	H7	H	0.280834	0.401714	0.161413
	H8	H	0.834969	0.718401	0.401186
	H9	H	0.160589	0.719551	0.599153
	H10	H	0.833835	0.288301	0.601960
	H11	H	0.160432	0.284395	0.397011
	H12	H	0.835101	0.404676	0.717481
	H13	H	0.161984	0.602435	0.713535
	H14	H	0.834790	0.602105	0.287395
	H15	H	0.161001	0.400525	0.282647
	H16	H	0.399816	0.718488	0.836428
	H17	H	0.598347	0.720598	0.160897
	H18	H	0.602833	0.283846	0.836890
	H19	H	0.396941	0.286330	0.161608
	H20	H	0.713975	0.839927	0.398913
	H21	H	0.711597	0.165643	0.598456
	H22	H	0.280698	0.839913	0.600610
	H23	H	0.280994	0.165320	0.401930
	H24	H	0.897894	0.339258	0.216931
	H25	H	0.099517	0.663973	0.217428
	H26	H	0.101525	0.340231	0.780445
	H27	H	0.898363	0.664649	0.785299
	H28	H	0.215898	0.900777	0.337223
	H29	H	0.210403	0.102827	0.662685
	H30	H	0.782019	0.103157	0.335639
	H31	H	0.779797	0.904518	0.661520
	H32	H	0.335237	0.219831	0.899989
	H33	H	0.661862	0.217202	0.097931
	H34	H	0.335077	0.785630	0.101761
	H35	H	0.661662	0.786217	0.896740
	H36	H	0.334522	0.902632	0.216898
	H37	H	0.661026	0.102421	0.214480
	H38	H	0.333965	0.102749	0.786634
	H39	H	0.660062	0.900738	0.780492
	H40	H	0.896897	0.220461	0.336844
	H41	H	0.095969	0.219595	0.662050
	H42	H	0.102256	0.783225	0.337998
	H43	H	0.893042	0.785856	0.661367
	H44	H	0.215719	0.339445	0.897612
	H45	H	0.213668	0.664676	0.098640
	H46	H	0.782054	0.339933	0.100336
	H47	H	0.783679	0.665392	0.902035
	H48	H	0.411730	0.116464	0.596574
	H49	H	0.587103	0.890840	0.581883
	H50	H	0.591989	0.121177	0.400519
	H51	H	0.401245	0.885162	0.402854
	H52	H	0.584390	0.407367	0.114156
	H53	H	0.590779	0.590373	0.885355
	H54	H	0.397844	0.597577	0.117233
	H55	H	0.408497	0.417945	0.885921
	H56	H	0.115030	0.593868	0.407138
	H57	H	0.880997	0.603587	0.590226
	H58	H	0.112805	0.416699	0.593430
	H59	H	0.880467	0.404336	0.414175
	H60	H	0.116775	0.402969	0.594342
	H61	H	0.885528	0.588626	0.588156
	H62	H	0.113970	0.593664	0.410283
	H63	H	0.885603	0.417822	0.413077
	H64	H	0.406945	0.585121	0.111447
	H65	H	0.589858	0.597681	0.883267
	H66	H	0.594126	0.405532	0.117611
	H67	H	0.416466	0.405999	0.884245
	H68	H	0.581669	0.115540	0.406786
	H69	H	0.596803	0.884459	0.592987
	H70	H	0.400980	0.116173	0.586158
	H71	H	0.415221	0.889216	0.405248
	H72	H	0.898494	0.619972	0.093390
	H73	H	0.094630	0.386163	0.089313
	H74	H	0.095660	0.618759	0.906708
	H75	H	0.914092	0.389772	0.914388
	H76	H	0.092062	0.912340	0.616035
	H77	H	0.084274	0.097763	0.384021
	H78	H	0.894287	0.091281	0.616436
	H79	H	0.911972	0.911888	0.385588
	H80	H	0.610547	0.089470	0.914528
	H81	H	0.379106	0.098838	0.098581
	H82	H	0.608456	0.923783	0.087163
	H83	H	0.377934	0.908160	0.897545
	H84	H	0.618134	0.907378	0.101965
	H85	H	0.383701	0.099055	0.084349
	H86	H	0.614395	0.087586	0.898139
	H87	H	0.381631	0.900670	0.917103
	H88	H	0.911406	0.089893	0.609592
	H89	H	0.094994	0.095270	0.381635
	H90	H	0.084384	0.914336	0.612270
	H91	H	0.906506	0.905216	0.381555
	H92	H	0.088843	0.618090	0.902723
	H93	H	0.088929	0.385725	0.095506
	H94	H	0.909186	0.618023	0.100191
	H95	H	0.900791	0.384987	0.910161
	H96	H	0.397717	0.121997	0.599866
	H97	H	0.581358	0.886869	0.596413
	H98	H	0.592920	0.117580	0.413269
	H99	H	0.405384	0.889103	0.416398
	H100	H	0.591234	0.414623	0.112903
	H101	H	0.596850	0.594248	0.882419
	H102	H	0.413769	0.599567	0.113439
	H103	H	0.402856	0.406199	0.880654
	H104	H	0.113891	0.591405	0.408574
	H105	H	0.879610	0.593590	0.602221
	H106	H	0.111877	0.408658	0.581840
	H107	H	0.879589	0.410464	0.401368
	H108	H	0.908579	0.614333	0.088255
	H109	H	0.086627	0.388472	0.087886
	H110	H	0.089105	0.616467	0.910467
	H111	H	0.912003	0.386050	0.899728
	H112	H	0.085682	0.907119	0.615916
	H113	H	0.088505	0.088117	0.386357
	H114	H	0.905184	0.105451	0.616546
	H115	H	0.902489	0.913237	0.383270
	H116	H	0.616657	0.102154	0.906442
	H117	H	0.385033	0.085895	0.092179
	H118	H	0.612659	0.901963	0.079205
	H119	H	0.386336	0.920527	0.912444
	C120	C	0.374387	0.010822	0.623082
	C121	C	0.617970	0.994475	0.620306
	C122	C	0.619513	0.011154	0.376793
	C123	C	0.376330	0.994776	0.378815
	C124	C	0.620931	0.379694	0.007654
	C125	C	0.620730	0.623852	0.990946
	C126	C	0.376910	0.623737	0.006707
	C127	C	0.377723	0.380410	0.990622
	C128	C	0.006534	0.622987	0.379535
	C129	C	0.989488	0.624814	0.621982
	C130	C	0.006056	0.381185	0.620645
	C131	C	0.989513	0.380757	0.378780
	C132	C	0.875972	0.510360	0.123157
	C133	C	0.119574	0.494160	0.121083
	C134	C	0.121156	0.510356	0.876738
	C135	C	0.878663	0.493930	0.879220
	C136	C	0.118710	0.880667	0.507714
	C137	C	0.118059	0.123829	0.491358
	C138	C	0.874834	0.125113	0.506950
	C139	C	0.876099	0.881230	0.490831
	C140	C	0.506132	0.123302	0.878004
	C141	C	0.490106	0.123857	0.120739
	C142	C	0.505713	0.881034	0.120234
	C143	C	0.489722	0.880357	0.877994
	C144	C	0.376477	0.888443	0.678504
	C145	C	0.616126	0.116531	0.677009
	C146	C	0.619015	0.888710	0.320046
	C147	C	0.375566	0.116318	0.321933
	C148	C	0.678721	0.381287	0.885454
	C149	C	0.674708	0.622154	0.113729
	C150	C	0.321669	0.622050	0.884661
	C151	C	0.319880	0.381975	0.112921
	C152	C	0.883891	0.680084	0.381308
	C153	C	0.111981	0.681379	0.619749
	C154	C	0.883090	0.325904	0.621184
	C155	C	0.111922	0.323239	0.378320
	C156	C	0.883529	0.383869	0.678521
	C157	C	0.112692	0.623148	0.676595
	C158	C	0.883715	0.622351	0.324507
	C159	C	0.112259	0.381122	0.321494
	C160	C	0.379357	0.679972	0.884709
	C161	C	0.618632	0.681494	0.112657
	C162	C	0.621492	0.322642	0.885415
	C163	C	0.377476	0.324513	0.113019
	C164	C	0.676005	0.888593	0.378392
	C165	C	0.673534	0.116960	0.618546
	C166	C	0.318943	0.888507	0.620545
	C167	C	0.319238	0.116844	0.381212
	C168	C	0.877719	0.388191	0.179086
	C169	C	0.118898	0.615558	0.178402
	C170	C	0.120895	0.388666	0.819136
	C171	C	0.878881	0.616232	0.823470
	C172	C	0.177222	0.881057	0.385899
	C173	C	0.172725	0.122640	0.614065
	C174	C	0.819520	0.123625	0.384614
	C175	C	0.818515	0.883616	0.613052
	C176	C	0.383833	0.180945	0.880147
	C177	C	0.612867	0.179276	0.118451
	C178	C	0.383619	0.824340	0.120686
	C179	C	0.612523	0.824111	0.877187
	C180	C	0.383297	0.882595	0.177962
	C181	C	0.612485	0.122167	0.176312
	C182	C	0.383006	0.122612	0.823925
	C183	C	0.611812	0.881384	0.819716
	C184	C	0.876744	0.181926	0.385205
	C185	C	0.115657	0.180657	0.613673
	C186	C	0.120481	0.822725	0.386244
	C187	C	0.875199	0.824822	0.612826
	C188	C	0.177645	0.388168	0.877445
	C189	C	0.175740	0.615928	0.119195
	C190	C	0.819924	0.388461	0.121327
	C191	C	0.822027	0.616496	0.881714
	C192	C	0.396890	0.096035	0.600928
	C193	C	0.595139	0.909422	0.597149
	C194	C	0.595822	0.096197	0.399959
	C195	C	0.400234	0.909892	0.401578
	C196	C	0.596940	0.402557	0.092666
	C197	C	0.598981	0.600740	0.905678
	C198	C	0.399562	0.600784	0.091929
	C199	C	0.402126	0.403424	0.905716
	C200	C	0.092110	0.599747	0.401996
	C201	C	0.904146	0.601994	0.600176
	C202	C	0.091588	0.403013	0.596739
	C203	C	0.904141	0.404192	0.402545
	C204	C	0.898797	0.595454	0.100653
	C205	C	0.096732	0.408928	0.097680
	C206	C	0.098070	0.595465	0.899974
	C207	C	0.902240	0.409145	0.901620
	C208	C	0.094396	0.904386	0.592669
	C209	C	0.095876	0.100519	0.406086
	C210	C	0.897054	0.102270	0.592196
	C211	C	0.900122	0.903568	0.405572
	C212	C	0.591673	0.099848	0.899847
	C213	C	0.404674	0.101370	0.098138
	C214	C	0.591042	0.904309	0.096285
	C215	C	0.404033	0.903274	0.902126
	Zn216	Zn	0.496871	0.002172	0.750490
	Zn217	Zn	0.497578	0.002900	0.249369
	Zn218	Zn	0.748996	0.502324	0.000062
	Zn219	Zn	0.249196	0.501449	-0.001453
	Zn220	Zn	-0.002049	0.752289	0.499319
	Zn221	Zn	-0.002912	0.252472	0.499354
	Zn222	Zn	-0.000845	0.502652	0.749181
	Zn223	Zn	-0.001855	0.502129	0.251146
	Zn224	Zn	0.498536	0.752182	-0.001159
	Zn225	Zn	0.498623	0.251493	-0.001072
	Zn226	Zn	0.747354	0.002469	0.498243
	Zn227	Zn	0.246908	0.002647	0.500171
	N228	N	0.410183	0.965536	0.680054
	N229	N	0.582459	0.039393	0.678123
	N230	N	0.584420	0.965869	0.319191
	N231	N	0.410586	0.039538	0.320525
	N232	N	0.678578	0.415979	0.962369
	N233	N	0.676196	0.586963	0.036991
	N234	N	0.319886	0.587995	0.961696
	N235	N	0.319877	0.416024	0.035850
	N236	N	0.961360	0.680650	0.414605
	N237	N	0.034614	0.682550	0.586460
	N238	N	0.960203	0.324186	0.585796
	N239	N	0.034619	0.323078	0.413394
	N240	N	0.960933	0.417594	0.678201
	N241	N	0.035481	0.588736	0.678225
	N242	N	0.960983	0.587514	0.323254
	N243	N	0.035235	0.416189	0.321636
	N244	N	0.412797	0.681209	0.961905
	N245	N	0.585575	0.682422	0.035458
	N246	N	0.586375	0.321412	0.962416
	N247	N	0.413011	0.323572	0.036185
	N248	N	0.676695	0.965616	0.412566
	N249	N	0.674700	0.040093	0.583778
	N250	N	0.317415	0.965505	0.586765
	N251	N	0.319510	0.040065	0.415788
	N252	N	0.911858	0.465122	0.180163
	N253	N	0.084609	0.538726	0.179468
	N254	N	0.086645	0.465944	0.818381
	N255	N	0.913324	0.539308	0.821527
	N256	N	0.176479	0.916337	0.462656
	N257	N	0.174007	0.087693	0.537209
	N258	N	0.818145	0.088961	0.461512
	N259	N	0.819115	0.918064	0.536267
	N260	N	0.461441	0.181337	0.913103
	N261	N	0.535701	0.180413	0.084730
	N262	N	0.460726	0.823548	0.085354
	N263	N	0.535520	0.823423	0.912713
	N264	N	0.460406	0.917113	0.177879
	N265	N	0.535108	0.088234	0.177837
	N266	N	0.460077	0.087590	0.822403
	N267	N	0.534321	0.915838	0.820439
	N268	N	0.910034	0.183045	0.462325
	N269	N	0.082682	0.181646	0.536285
	N270	N	0.084758	0.822465	0.462951
	N271	N	0.910269	0.823164	0.535716
	N272	N	0.178128	0.464732	0.912512
	N273	N	0.176426	0.539274	0.084237
	N274	N	0.818678	0.465240	0.087236
	N275	N	0.821618	0.539496	0.915733
	O276	O	1.069535	0.015320	1.058647
	H277	H	1.073605	0.020115	1.067235
	H278	H	1.062817	0.003052	1.064863
	O279	O	0.470835	0.536607	0.451836
	H280	H	0.479752	0.546435	0.444086
	H281	H	0.466437	0.532468	0.439429
	O282	O	0.618267	0.435283	0.462016
	H283	H	0.618507	0.426488	0.473085
	H284	H	0.621052	0.440450	0.462810
	O285	O	0.506560	0.494445	0.529517
	H286	H	0.501771	0.494257	0.529778
	H287	H	0.508416	0.489795	0.536259
	O288	O	0.503872	0.369559	0.510635
	H289	H	0.502570	0.368154	0.520775
	H290	H	0.499014	0.374659	0.507008
	O291	O	-0.025561	0.023236	1.015224
	H292	H	-0.013173	0.021591	1.034338
	H293	H	-0.035927	0.022132	1.018720
	O294	O	0.977991	1.103460	-0.101982
	H295	H	0.974402	1.112669	-0.099593
	H296	H	0.984965	1.107391	-0.098317
	O297	O	0.887271	0.839926	0.164006
	H298	H	0.868046	0.845064	0.168498
	H299	H	0.879006	0.820809	0.177872
	O300	O	0.553202	0.409680	0.450644
	H301	H	0.561624	0.401167	0.458656
	H302	H	0.545867	0.409060	0.444024
	O303	O	0.420694	0.430718	0.429334
	H304	H	0.428307	0.432820	0.426668
	H305	H	0.421853	0.441948	0.435533
	O306	O	0.412244	0.694051	0.555487
	H307	H	0.410932	0.710626	0.553898
	H308	H	0.405964	0.673234	0.562454
	O309	O	0.574920	0.572682	0.491594
	H310	H	0.569170	0.567171	0.488685
	H311	H	0.581634	0.567346	0.496097
	O312	O	0.963058	0.977676	0.968979
	H313	H	0.960406	0.978936	0.963517
	H314	H	0.956969	0.984170	0.964631
	O315	O	0.994515	0.957947	0.000329
	H316	H	0.986912	0.958783	-0.024325
	H317	H	0.991074	0.958236	-0.002866
	O318	O	0.579938	0.560799	0.435819
	H319	H	0.588111	0.557385	0.436498
	H320	H	0.568185	0.561491	0.432886
	O321	O	0.367257	0.549290	0.344643
	H322	H	0.371854	0.542305	0.328235
	H323	H	0.371665	0.549318	0.349150
	O324	O	-0.071144	0.918303	1.062590
	H325	H	-0.080407	0.920676	1.064079
	H326	H	-0.072881	0.902964	1.067521
	O327	O	0.180694	0.920876	0.934154
	H328	H	0.189575	0.922892	0.929560
	H329	H	0.176863	0.912811	0.946653
	O330	O	-0.019821	0.108333	-0.003139
	H331	H	-0.019314	0.123079	0.004155
	H332	H	-0.016718	0.112555	0.006143
	O333	O	0.516799	0.464976	0.560850
	H334	H	0.521088	0.457404	0.581285
	H335	H	0.515559	0.464575	0.552280
	O336	O	0.014594	-0.034348	-0.010244
	H337	H	0.019432	-0.038480	-0.013745
	H338	H	0.008569	-0.041151	-0.013519
	O339	O	0.044695	-0.009736	0.062085
	H340	H	0.051773	-0.011232	0.049322
	H341	H	0.049147	-0.006273	0.057705
	O342	O	0.350076	0.447857	0.466290
	H343	H	0.362694	0.434466	0.467851
	H344	H	0.344687	0.443955	0.456894
	O345	O	-0.099471	0.994647	1.082016
	H346	H	-0.112561	0.997301	1.094323
	H347	H	-0.086266	0.999941	1.073471
	O348	O	0.423362	0.445497	0.605666
	H349	H	0.412258	0.445070	0.603498
	H350	H	0.427909	0.458711	0.604290
	O351	O	0.540108	0.384717	0.534597
	H352	H	0.530660	0.392734	0.536141
	H353	H	0.537674	0.376186	0.527326
	O354	O	0.009510	1.015740	-0.125819
	H355	H	0.016032	1.002801	-0.129972
	H356	H	0.018868	1.007508	-0.133613
	O357	O	0.629251	0.552647	0.591437
	H358	H	0.638029	0.544619	0.582343
	H359	H	0.631558	0.560427	0.595603
	O360	O	0.958293	0.082645	0.990005
	H361	H	0.962820	0.090538	0.982582
	H362	H	0.955567	0.078744	0.981366
	O363	O	0.461626	0.384824	0.540299
	H364	H	0.467087	0.395926	0.540303
	H365	H	0.458696	0.377689	0.538361
	O366	O	0.503664	0.587873	0.536355
	H367	H	0.502630	0.592926	0.536405
	H368	H	0.504251	0.589908	0.546113
	O369	O	1.065601	0.085182	0.051613
	H370	H	1.059978	0.084820	0.050754
	H371	H	1.068493	0.086921	0.048808
	O372	O	0.385009	0.507525	0.472873
	H373	H	0.391266	0.485464	0.470901
	H374	H	0.390522	0.504136	0.493075
	O375	O	1.015193	0.073225	1.033387
	H376	H	1.017740	0.075101	1.041378
	H377	H	1.018101	0.068529	1.033547
	O378	O	-0.017151	0.926697	-0.010192
	H379	H	-0.026020	0.916906	-0.008093
	H380	H	-0.016765	0.935733	-0.005040
	O381	O	0.392400	0.761008	0.603557
	H382	H	0.372374	0.762772	0.614262
	H383	H	0.392003	0.776970	0.600258
	O384	O	0.934395	0.993505	-0.043020
	H385	H	0.937159	0.989160	-0.043272
	H386	H	0.940255	1.011001	-0.042419
	O387	O	1.038992	-0.108659	0.875414
	H388	H	1.023223	-0.105057	0.883056
	H389	H	1.037399	-0.116427	0.867348
	O390	O	0.977420	0.948831	-0.001424
	H391	H	0.987642	0.934354	-0.018844
	H392	H	0.970895	0.951743	0.001667
	O393	O	0.361748	0.618131	0.535487
	H394	H	0.356287	0.629110	0.533996
	H395	H	0.352034	0.621695	0.533223
