data_Molecule from HDF5

_cell_length_a		16.197678
_cell_length_b		16.334378
_cell_length_c		16.281029
_cell_angle_alpha	90.206477
_cell_angle_beta	89.919353
_cell_angle_gamma	90.087459
_symmetry_space_group_name_H-M	'P 1'
_symmetry_Int_Tables_number		1

loop_
	_symmetry_equiv_pos_as_xyz
	x,y,z

loop_
	_atom_site_label
	_atom_site_type_symbol
	_atom_site_fract_x
	_atom_site_fract_y
	_atom_site_fract_z
	H0	H	0.390678	0.838096	0.708283
	H1	H	0.592459	0.163133	0.711064
	H2	H	0.590786	0.838547	0.276424
	H3	H	0.392398	0.164893	0.279543
	H4	H	0.705515	0.403060	0.832133
	H5	H	0.703625	0.601854	0.159218
	H6	H	0.275841	0.597281	0.830861
	H7	H	0.277275	0.404054	0.159985
	H8	H	0.827768	0.716305	0.399182
	H9	H	0.155570	0.718170	0.598493
	H10	H	0.828814	0.284627	0.598527
	H11	H	0.156106	0.286142	0.397280
	H12	H	0.826410	0.404581	0.709551
	H13	H	0.155729	0.600406	0.711840
	H14	H	0.826799	0.600939	0.283537
	H15	H	0.154911	0.400463	0.279579
	H16	H	0.390925	0.714313	0.830052
	H17	H	0.589541	0.719479	0.156933
	H18	H	0.591414	0.286149	0.831239
	H19	H	0.390130	0.284356	0.157531
	H20	H	0.706137	0.837675	0.393867
	H21	H	0.705543	0.163891	0.592122
	H22	H	0.276530	0.838035	0.590754
	H23	H	0.276426	0.164728	0.396402
	H24	H	0.889523	0.339419	0.213254
	H25	H	0.090591	0.665040	0.211971
	H26	H	0.089996	0.338843	0.780770
	H27	H	0.892861	0.665201	0.783038
	H28	H	0.205283	0.902164	0.331667
	H29	H	0.207370	0.101015	0.658371
	H30	H	0.779190	0.097959	0.330169
	H31	H	0.777144	0.904964	0.659013
	H32	H	0.327670	0.217497	0.892709
	H33	H	0.654656	0.217365	0.093812
	H34	H	0.325997	0.787082	0.092574
	H35	H	0.654306	0.785029	0.893383
	H36	H	0.326635	0.902576	0.208669
	H37	H	0.655342	0.101511	0.208549
	H38	H	0.326220	0.098079	0.780100
	H39	H	0.655051	0.900956	0.778741
	H40	H	0.890135	0.219245	0.333756
	H41	H	0.092606	0.216842	0.659113
	H42	H	0.093934	0.782600	0.334096
	H43	H	0.893497	0.789392	0.660657
	H44	H	0.203674	0.337396	0.897899
	H45	H	0.205841	0.665295	0.095802
	H46	H	0.773682	0.338642	0.096509
	H47	H	0.777071	0.665035	0.900047
	H48	H	0.389222	0.118711	0.584381
	H49	H	0.576429	0.887578	0.584615
	H50	H	0.581214	0.115307	0.402302
	H51	H	0.392641	0.884647	0.402798
	H52	H	0.592372	0.415906	0.112187
	H53	H	0.580646	0.595039	0.878579
	H54	H	0.400377	0.596138	0.110500
	H55	H	0.395400	0.412804	0.880313
	H56	H	0.104087	0.588134	0.414636
	H57	H	0.875764	0.589491	0.593263
	H58	H	0.110830	0.405738	0.591151
	H59	H	0.876610	0.412534	0.407648
	H60	H	0.107351	0.408448	0.585773
	H61	H	0.873211	0.599713	0.593329
	H62	H	0.109048	0.586219	0.395940
	H63	H	0.874281	0.410691	0.401992
	H64	H	0.397546	0.596891	0.111022
	H65	H	0.587468	0.595686	0.877079
	H66	H	0.569962	0.415086	0.105537
	H67	H	0.402172	0.406518	0.879759
	H68	H	0.588969	0.116656	0.403906
	H69	H	0.589477	0.884276	0.581356
	H70	H	0.403090	0.118882	0.598152
	H71	H	0.399817	0.884499	0.394868
	H72	H	0.891879	0.618574	0.089193
	H73	H	0.084871	0.383802	0.091862
	H74	H	0.086308	0.619560	0.897953
	H75	H	0.897825	0.386096	0.905779
	H76	H	0.085307	0.910990	0.612352
	H77	H	0.086070	0.101423	0.376086
	H78	H	0.894024	0.099064	0.614690
	H79	H	0.895539	0.910681	0.379923
	H80	H	0.608454	0.088571	0.894975
	H81	H	0.374219	0.093346	0.087598
	H82	H	0.608748	0.910738	0.087889
	H83	H	0.374294	0.899036	0.910300
	H84	H	0.608121	0.906258	0.083975
	H85	H	0.373866	0.094468	0.085522
	H86	H	0.610084	0.101900	0.901055
	H87	H	0.376681	0.919122	0.900727
	H88	H	0.895778	0.086564	0.609861
	H89	H	0.087170	0.086962	0.379612
	H90	H	0.082137	0.908251	0.611653
	H91	H	0.905833	0.907517	0.380808
	H92	H	0.076139	0.614978	0.905343
	H93	H	0.079806	0.386722	0.088852
	H94	H	0.898721	0.618919	0.096107
	H95	H	0.896097	0.385690	0.901574
	H96	H	0.407276	0.112592	0.580267
	H97	H	0.585018	0.881973	0.593796
	H98	H	0.585770	0.118752	0.396375
	H99	H	0.402289	0.888691	0.404169
	H100	H	0.580170	0.396154	0.114481
	H101	H	0.585020	0.590332	0.879149
	H102	H	0.397806	0.593398	0.110715
	H103	H	0.393854	0.404344	0.876381
	H104	H	0.110821	0.603726	0.405077
	H105	H	0.875668	0.595915	0.584267
	H106	H	0.108073	0.412062	0.590972
	H107	H	0.874870	0.405452	0.407216
	H108	H	0.901382	0.615410	0.087436
	H109	H	0.084818	0.386797	0.085712
	H110	H	0.088238	0.616943	0.910890
	H111	H	0.900804	0.386034	0.902922
	H112	H	0.085912	0.907060	0.613583
	H113	H	0.074900	0.093669	0.382172
	H114	H	0.905734	0.095815	0.609268
	H115	H	0.897836	0.900808	0.376655
	H116	H	0.604587	0.090352	0.909534
	H117	H	0.374833	0.092785	0.084797
	H118	H	0.605227	0.911168	0.082521
	H119	H	0.367996	0.902104	0.888679
	C120	C	0.370188	0.009363	0.615882
	C121	C	0.612491	0.992155	0.615835
	C122	C	0.613664	0.009300	0.371378
	C123	C	0.369530	0.993718	0.372207
	C124	C	0.611303	0.380239	0.003156
	C125	C	0.612332	0.623491	0.986304
	C126	C	0.369313	0.622630	0.002695
	C127	C	0.368366	0.379030	0.986774
	C128	C	-0.000425	0.622162	0.376302
	C129	C	0.983305	0.623252	0.618784
	C130	C	0.000393	0.380024	0.618452
	C131	C	0.983255	0.379783	0.375815
	C132	C	0.867758	0.510045	0.119710
	C133	C	0.112458	0.493721	0.118355
	C134	C	0.112555	0.509734	0.874993
	C135	C	0.869277	0.493628	0.875005
	C136	C	0.113166	0.879650	0.504542
	C137	C	0.112693	0.123019	0.487171
	C138	C	0.869459	0.122691	0.503531
	C139	C	0.870217	0.878798	0.487230
	C140	C	0.499366	0.122130	0.872907
	C141	C	0.482627	0.122839	0.115152
	C142	C	0.498800	0.880419	0.114378
	C143	C	0.482020	0.878262	0.871467
	C144	C	0.370952	0.886759	0.670597
	C145	C	0.611389	0.114505	0.672291
	C146	C	0.611197	0.887019	0.315145
	C147	C	0.371848	0.116047	0.317300
	C148	C	0.667861	0.382279	0.880754
	C149	C	0.666392	0.622110	0.109917
	C150	C	0.313735	0.618542	0.879571
	C151	C	0.313881	0.382473	0.110270
	C152	C	0.876446	0.677956	0.378752
	C153	C	0.106744	0.679367	0.617460
	C154	C	0.877179	0.323636	0.617621
	C155	C	0.106640	0.323732	0.376844
	C156	C	0.876036	0.383220	0.672845
	C157	C	0.106956	0.621054	0.673953
	C158	C	0.876085	0.620256	0.321403
	C159	C	0.106091	0.380899	0.318615
	C160	C	0.371188	0.676479	0.879159
	C161	C	0.610008	0.680797	0.108711
	C162	C	0.610620	0.324561	0.880244
	C163	C	0.369815	0.322793	0.109078
	C164	C	0.668447	0.886526	0.373458
	C165	C	0.667940	0.115124	0.613258
	C166	C	0.314123	0.886767	0.612201
	C167	C	0.314235	0.116113	0.375297
	C168	C	0.869635	0.387827	0.174816
	C169	C	0.110497	0.616229	0.173980
	C170	C	0.110167	0.387287	0.819005
	C171	C	0.872207	0.616413	0.820440
	C172	C	0.167795	0.881906	0.380826
	C173	C	0.168952	0.120757	0.609931
	C174	C	0.815485	0.119560	0.379961
	C175	C	0.814736	0.883400	0.610351
	C176	C	0.376247	0.178664	0.873331
	C177	C	0.605994	0.178670	0.113503
	C178	C	0.375367	0.824632	0.112893
	C179	C	0.605512	0.823318	0.873625
	C180	C	0.375644	0.882027	0.170570
	C181	C	0.606131	0.121138	0.170675
	C182	C	0.375607	0.119527	0.817407
	C183	C	0.605852	0.880757	0.816463
	C184	C	0.870760	0.179723	0.381733
	C185	C	0.112070	0.178503	0.610228
	C186	C	0.112563	0.822138	0.382182
	C187	C	0.872476	0.826022	0.611157
	C188	C	0.166401	0.386298	0.877689
	C189	C	0.168317	0.616288	0.116402
	C190	C	0.811727	0.387646	0.116982
	C191	C	0.814765	0.616450	0.878694
	C192	C	0.393191	0.094760	0.593922
	C193	C	0.590114	0.906625	0.593262
	C194	C	0.591820	0.094763	0.394141
	C195	C	0.391802	0.907962	0.394017
	C196	C	0.587837	0.402594	0.088673
	C197	C	0.590706	0.600522	0.900538
	C198	C	0.391973	0.601587	0.088501
	C199	C	0.390749	0.401310	0.901007
	C200	C	0.085746	0.599291	0.398654
	C201	C	0.897098	0.601359	0.596751
	C202	C	0.086380	0.402198	0.595897
	C203	C	0.897526	0.402763	0.398955
	C204	C	0.890505	0.595626	0.097575
	C205	C	0.089793	0.408032	0.095736
	C206	C	0.090169	0.595013	0.897890
	C207	C	0.891618	0.408027	0.896983
	C208	C	0.091046	0.902154	0.590260
	C209	C	0.089461	0.100693	0.401540
	C210	C	0.891979	0.100288	0.589212
	C211	C	0.892911	0.899985	0.401352
	C212	C	0.585466	0.100121	0.895388
	C213	C	0.396481	0.100057	0.092692
	C214	C	0.585017	0.902818	0.091327
	C215	C	0.395513	0.900163	0.893361
	Zn216	Zn	0.491186	0.000271	0.745106
	Zn217	Zn	0.491074	0.001677	0.242995
	Zn218	Zn	0.739802	0.501525	-0.003869
	Zn219	Zn	0.240571	0.501322	-0.003861
	Zn220	Zn	-0.007894	0.750931	0.497247
	Zn221	Zn	-0.008241	0.251400	0.497177
	Zn222	Zn	-0.008814	0.501744	0.746246
	Zn223	Zn	-0.009202	0.501688	0.247497
	Zn224	Zn	0.490556	0.751285	-0.006579
	Zn225	Zn	0.490773	0.250975	-0.005673
	Zn226	Zn	0.741414	0.000507	0.494266
	Zn227	Zn	0.240687	0.001953	0.494708
	N228	N	0.405154	0.963919	0.672988
	N229	N	0.577768	0.037102	0.673739
	N230	N	0.577993	0.964324	0.313715
	N231	N	0.405489	0.038810	0.315374
	N232	N	0.668352	0.416125	0.958243
	N233	N	0.668060	0.587259	0.032934
	N234	N	0.312428	0.585753	0.957456
	N235	N	0.312647	0.416371	0.033161
	N236	N	0.954288	0.679065	0.412122
	N237	N	0.028797	0.680924	0.583832
	N238	N	0.955397	0.321607	0.584405
	N239	N	0.029188	0.323011	0.411882
	N240	N	0.953654	0.417267	0.673577
	N241	N	0.029418	0.586997	0.674894
	N242	N	0.953876	0.586358	0.319831
	N243	N	0.028323	0.414606	0.317453
	N244	N	0.404834	0.679274	0.956529
	N245	N	0.577200	0.681700	0.030874
	N246	N	0.576045	0.323270	0.957401
	N247	N	0.402938	0.320595	0.031249
	N248	N	0.670124	0.963672	0.407797
	N249	N	0.668883	0.038199	0.578802
	N250	N	0.313729	0.963958	0.578650
	N251	N	0.312419	0.039004	0.408549
	N252	N	0.903593	0.465048	0.176613
	N253	N	0.076561	0.538910	0.175243
	N254	N	0.077132	0.464760	0.817504
	N255	N	0.905227	0.538848	0.818104
	N256	N	0.168328	0.916837	0.457719
	N257	N	0.169493	0.086952	0.532352
	N258	N	0.814591	0.084860	0.456877
	N259	N	0.812853	0.915233	0.532251
	N260	N	0.454165	0.180518	0.907061
	N261	N	0.528192	0.179931	0.079703
	N262	N	0.453156	0.823636	0.078536
	N263	N	0.527497	0.821694	0.907067
	N264	N	0.453239	0.916169	0.171422
	N265	N	0.528418	0.086984	0.171621
	N266	N	0.453108	0.085099	0.817061
	N267	N	0.527958	0.914028	0.814960
	N268	N	0.903406	0.182099	0.459661
	N269	N	0.077633	0.179829	0.533046
	N270	N	0.079316	0.820478	0.460071
	N271	N	0.906294	0.823139	0.533729
	N272	N	0.167995	0.463444	0.911873
	N273	N	0.169567	0.538999	0.082450
	N274	N	0.810734	0.464651	0.083079
	N275	N	0.813094	0.539154	0.911971
	O276	O	-0.011790	-0.046383	0.001878
	H277	H	-0.013933	-0.050554	0.013602
	H278	H	-0.009749	-0.049838	0.000850
	O279	O	0.994383	0.918370	0.100642
	H280	H	0.993364	0.927469	0.099294
	H281	H	1.001110	0.924645	0.098373
	O282	O	0.518346	0.497422	0.451763
	H283	H	0.517367	0.508030	0.450572
	H284	H	0.521399	0.493569	0.459271
	O285	O	0.115800	1.102153	1.024181
	H286	H	0.120551	1.091333	1.013932
	H287	H	0.113346	1.106153	1.011167
	O288	O	0.576955	0.508414	0.496537
	H289	H	0.575363	0.506458	0.500435
	H290	H	0.582914	0.505335	0.486029
	O291	O	0.554846	0.596055	0.645464
	H292	H	0.553063	0.594197	0.646865
	H293	H	0.561299	0.601580	0.651521
	O294	O	1.060560	1.036064	1.007671
	H295	H	1.060418	1.034379	1.010524
	H296	H	1.063083	1.030360	1.000175
	O297	O	0.892831	0.062517	0.883782
	H298	H	0.890390	0.058675	0.892704
	H299	H	0.900253	0.079004	0.888058
	O300	O	0.546091	0.549345	0.524203
	H301	H	0.546006	0.545374	0.526864
	H302	H	0.534034	0.541855	0.528831
	O303	O	0.997899	0.066373	0.020606
	H304	H	0.985372	0.059824	0.023483
	H305	H	1.003686	0.062263	0.018166
	O306	O	-0.058661	1.044557	0.975947
	H307	H	-0.050789	1.027315	0.982209
	H308	H	-0.066490	1.043868	0.984025
	O309	O	0.508344	0.457114	0.387121
	H310	H	0.506651	0.465145	0.375473
	H311	H	0.506354	0.456376	0.383680
	O312	O	0.987679	0.080757	0.943815
	H313	H	0.974776	0.089875	0.948405
	H314	H	0.979068	0.090075	0.942542
	O315	O	0.526208	0.453170	0.438444
	H316	H	0.532010	0.456361	0.437381
	H317	H	0.529280	0.448485	0.436882
	O318	O	0.480244	0.518699	0.465693
	H319	H	0.485506	0.508911	0.467809
	H320	H	0.491531	0.524317	0.466985
	O321	O	0.907682	0.949728	1.080677
	H322	H	0.902380	0.944321	1.074613
	H323	H	0.909130	0.952240	1.081119
	O324	O	0.939186	1.029538	0.989881
	H325	H	0.942748	1.032252	0.996832
	H326	H	0.934908	1.037565	1.002381
	O327	O	0.580558	0.475977	0.501436
	H328	H	0.586610	0.467791	0.504196
	H329	H	0.585657	0.473765	0.508737
	O330	O	1.029960	-0.011740	1.020896
	H331	H	1.035828	-0.000855	1.018956
	H332	H	1.028675	-0.020057	1.018600
	O333	O	0.982713	1.004977	0.040814
	H334	H	0.978715	1.007944	0.037099
	H335	H	0.989274	1.004669	0.037043
	O336	O	0.538721	0.415371	0.540881
	H337	H	0.531778	0.421857	0.535203
	H338	H	0.528706	0.416444	0.542224
	O339	O	0.398151	0.457759	0.496294
	H340	H	0.400589	0.466384	0.489350
	H341	H	0.399346	0.467515	0.493582
	O342	O	-0.021242	0.952076	-0.013529
	H343	H	-0.020219	0.951805	-0.005233
	H344	H	-0.022638	0.950499	-0.007124
	O345	O	-0.041464	-0.004434	0.041058
	H346	H	-0.043610	0.000654	0.045223
	H347	H	-0.039172	-0.004811	0.033898
	O348	O	0.573291	0.575752	0.564098
	H349	H	0.566996	0.581476	0.573392
	H350	H	0.571267	0.564523	0.566737
	O351	O	0.484150	0.501035	0.524079
	H352	H	0.477394	0.500019	0.514458
	H353	H	0.495478	0.500746	0.541502
	O354	O	0.385374	0.536668	0.581958
	H355	H	0.383198	0.540757	0.587752
	H356	H	0.391631	0.543814	0.575413
	O357	O	0.613485	0.457860	0.390645
	H358	H	0.603003	0.432644	0.395398
	H359	H	0.628515	0.456836	0.395343
	O360	O	0.373316	-0.481389	0.409514
	H361	H	0.371132	-0.471709	0.412984
	H362	H	0.378158	-0.471143	0.418606
	O363	O	0.414540	0.500376	0.515301
	H364	H	0.406629	0.498441	0.522675
	H365	H	0.418444	0.501413	0.500630
	O366	O	-0.034480	-0.020684	1.065891
	H367	H	-0.032621	-0.019727	1.074221
	H368	H	-0.031283	-0.024364	1.062273
	O369	O	0.522649	0.454943	0.454896
	H370	H	0.523580	0.458452	0.440927
	H371	H	0.519782	0.458694	0.456311
