data_Molecule from HDF5

_cell_length_a		16.471631
_cell_length_b		16.407905
_cell_length_c		16.139972
_cell_angle_alpha	90.343946
_cell_angle_beta	89.973547
_cell_angle_gamma	90.149577
_symmetry_space_group_name_H-M	'P 1'
_symmetry_Int_Tables_number		1

loop_
	_symmetry_equiv_pos_as_xyz
	x,y,z

loop_
	_atom_site_label
	_atom_site_type_symbol
	_atom_site_fract_x
	_atom_site_fract_y
	_atom_site_fract_z
	H0	H	0.404442	0.840247	0.725205
	H1	H	0.604486	0.164179	0.728680
	H2	H	0.602566	0.841652	0.293992
	H3	H	0.403702	0.164336	0.294425
	H4	H	0.722588	0.398743	0.848883
	H5	H	0.721452	0.606528	0.173547
	H6	H	0.287657	0.602586	0.847004
	H7	H	0.286227	0.400612	0.172739
	H8	H	0.847370	0.722800	0.404089
	H9	H	0.163185	0.723328	0.616804
	H10	H	0.845661	0.279150	0.615312
	H11	H	0.164725	0.279557	0.403813
	H12	H	0.842545	0.401155	0.727191
	H13	H	0.165070	0.600931	0.727345
	H14	H	0.844402	0.600327	0.294402
	H15	H	0.165383	0.398556	0.290111
	H16	H	0.403733	0.717411	0.846935
	H17	H	0.603246	0.719323	0.174920
	H18	H	0.604354	0.286523	0.846789
	H19	H	0.400302	0.286482	0.172387
	H20	H	0.724667	0.844345	0.402435
	H21	H	0.726031	0.162162	0.617751
	H22	H	0.281961	0.844325	0.616065
	H23	H	0.283239	0.161928	0.405512
	H24	H	0.905060	0.339568	0.225468
	H25	H	0.103299	0.663918	0.227827
	H26	H	0.102520	0.339941	0.793972
	H27	H	0.906311	0.664358	0.796615
	H28	H	0.223586	0.898061	0.349126
	H29	H	0.223873	0.108128	0.672827
	H30	H	0.786297	0.105544	0.348403
	H31	H	0.785112	0.900141	0.672092
	H32	H	0.345201	0.223462	0.903597
	H33	H	0.662188	0.225536	0.115332
	H34	H	0.343971	0.783441	0.114309
	H35	H	0.664618	0.783883	0.907377
	H36	H	0.342663	0.903358	0.227415
	H37	H	0.665264	0.104395	0.227183
	H38	H	0.343212	0.101078	0.793911
	H39	H	0.665295	0.903186	0.793127
	H40	H	0.903326	0.217368	0.347484
	H41	H	0.107344	0.221125	0.673437
	H42	H	0.107578	0.783715	0.348112
	H43	H	0.901317	0.786086	0.673214
	H44	H	0.224916	0.342628	0.903660
	H45	H	0.224180	0.661947	0.116595
	H46	H	0.781679	0.343168	0.116006
	H47	H	0.786216	0.662815	0.908951
	H48	H	0.412371	0.117267	0.602574
	H49	H	0.595980	0.888875	0.598091
	H50	H	0.592289	0.117651	0.418113
	H51	H	0.406705	0.888869	0.427338
	H52	H	0.589270	0.413732	0.125573
	H53	H	0.597598	0.589649	0.895270
	H54	H	0.411278	0.588771	0.125675
	H55	H	0.406359	0.410823	0.891393
	H56	H	0.118639	0.591472	0.421125
	H57	H	0.892090	0.592781	0.595897
	H58	H	0.114345	0.413374	0.594645
	H59	H	0.894646	0.410991	0.424657
	H60	H	0.118751	0.414951	0.606745
	H61	H	0.889385	0.590306	0.607193
	H62	H	0.119314	0.593660	0.420013
	H63	H	0.891863	0.411299	0.416625
	H64	H	0.418634	0.595005	0.126118
	H65	H	0.591464	0.592725	0.896161
	H66	H	0.595582	0.412101	0.127703
	H67	H	0.415154	0.419169	0.895996
	H68	H	0.597974	0.116427	0.426463
	H69	H	0.596130	0.889167	0.599365
	H70	H	0.413925	0.117047	0.601912
	H71	H	0.410407	0.885797	0.412416
	H72	H	0.911467	0.616630	0.102639
	H73	H	0.092955	0.389187	0.098428
	H74	H	0.099072	0.616297	0.923593
	H75	H	0.912911	0.388490	0.921018
	H76	H	0.093608	0.919001	0.624484
	H77	H	0.091048	0.093366	0.394933
	H78	H	0.907985	0.089187	0.627681
	H79	H	0.919119	0.912785	0.395849
	H80	H	0.620161	0.099462	0.919401
	H81	H	0.390604	0.092111	0.099658
	H82	H	0.614408	0.918812	0.099143
	H83	H	0.389484	0.907954	0.917397
	H84	H	0.620642	0.909015	0.108538
	H85	H	0.389490	0.095469	0.104266
	H86	H	0.616245	0.095555	0.926558
	H87	H	0.389761	0.907205	0.920039
	H88	H	0.920041	0.086105	0.622778
	H89	H	0.100055	0.092497	0.392196
	H90	H	0.089558	0.910689	0.625781
	H91	H	0.913642	0.906548	0.391876
	H92	H	0.098149	0.617200	0.918447
	H93	H	0.097864	0.388819	0.095605
	H94	H	0.913818	0.616165	0.102542
	H95	H	0.908950	0.387031	0.921688
	H96	H	0.412547	0.116638	0.601199
	H97	H	0.595612	0.888933	0.599309
	H98	H	0.602110	0.120877	0.418204
	H99	H	0.421054	0.892291	0.422538
	H100	H	0.594607	0.418620	0.125746
	H101	H	0.596892	0.596160	0.892677
	H102	H	0.409973	0.597805	0.128373
	H103	H	0.418889	0.406965	0.893232
	H104	H	0.118813	0.593974	0.422797
	H105	H	0.888119	0.601298	0.602810
	H106	H	0.120550	0.403221	0.600083
	H107	H	0.890665	0.404135	0.421393
	H108	H	0.912308	0.616095	0.100989
	H109	H	0.097736	0.386686	0.101226
	H110	H	0.093564	0.615498	0.921115
	H111	H	0.910740	0.387492	0.917780
	H112	H	0.098069	0.912668	0.629102
	H113	H	0.095752	0.085476	0.396734
	H114	H	0.917877	0.098118	0.628588
	H115	H	0.910636	0.914252	0.394356
	H116	H	0.616562	0.091402	0.918370
	H117	H	0.390140	0.097478	0.099258
	H118	H	0.617511	0.905231	0.094257
	H119	H	0.390832	0.909868	0.919210
	C120	C	0.382324	0.011203	0.632468
	C121	C	0.626216	0.994683	0.631400
	C122	C	0.626676	0.012111	0.388742
	C123	C	0.382346	0.994648	0.389750
	C124	C	0.624055	0.383139	0.018928
	C125	C	0.625213	0.623815	1.002603
	C126	C	0.383036	0.623640	0.018872
	C127	C	0.382628	0.381933	1.000989
	C128	C	0.013284	0.622484	0.390205
	C129	C	0.995657	0.624789	0.633069
	C130	C	0.012233	0.379581	0.631912
	C131	C	0.997616	0.378434	0.388678
	C132	C	0.882244	0.510318	0.132633
	C133	C	0.126338	0.493821	0.131402
	C134	C	0.126402	0.510121	0.888899
	C135	C	0.881691	0.493544	0.889300
	C136	C	0.125207	0.881995	0.519269
	C137	C	0.126020	0.122682	0.502155
	C138	C	0.884674	0.121890	0.518993
	C139	C	0.882815	0.880648	0.501306
	C140	C	0.512005	0.125132	0.889135
	C141	C	0.495456	0.126141	0.132751
	C142	C	0.511792	0.881054	0.131997
	C143	C	0.495990	0.879179	0.888301
	C144	C	0.383635	0.889238	0.688290
	C145	C	0.624997	0.115718	0.689899
	C146	C	0.623789	0.890731	0.331262
	C147	C	0.383432	0.115832	0.332790
	C148	C	0.682676	0.380871	0.896927
	C149	C	0.682084	0.624733	0.125165
	C150	C	0.326236	0.622403	0.895978
	C151	C	0.324747	0.381767	0.123683
	C152	C	0.894282	0.682045	0.387136
	C153	C	0.115549	0.683465	0.635004
	C154	C	0.892874	0.319687	0.633569
	C155	C	0.117091	0.319625	0.386526
	C156	C	0.891288	0.380209	0.689441
	C157	C	0.116624	0.622534	0.689901
	C158	C	0.892986	0.620998	0.332395
	C159	C	0.117481	0.378639	0.329355
	C160	C	0.384078	0.679352	0.895735
	C161	C	0.623554	0.681175	0.125721
	C162	C	0.623930	0.324909	0.896036
	C163	C	0.381533	0.324741	0.123645
	C164	C	0.684836	0.891994	0.385283
	C165	C	0.685598	0.114651	0.634730
	C166	C	0.322904	0.891223	0.633832
	C167	C	0.323540	0.114658	0.388210
	C168	C	0.883477	0.388675	0.188792
	C169	C	0.124174	0.615211	0.189548
	C170	C	0.123988	0.388741	0.831475
	C171	C	0.884822	0.615541	0.833708
	C172	C	0.184240	0.879854	0.397577
	C173	C	0.184517	0.125662	0.624381
	C174	C	0.826020	0.123502	0.396757
	C175	C	0.824448	0.880717	0.623466
	C176	C	0.392375	0.182943	0.886983
	C177	C	0.615111	0.185207	0.133814
	C178	C	0.391735	0.823325	0.132672
	C179	C	0.616821	0.823024	0.888515
	C180	C	0.391043	0.883020	0.189072
	C181	C	0.616458	0.124888	0.189477
	C182	C	0.391508	0.122021	0.831847
	C183	C	0.617178	0.882268	0.831595
	C184	C	0.884456	0.179030	0.396261
	C185	C	0.126226	0.181604	0.624779
	C186	C	0.126414	0.823057	0.397030
	C187	C	0.882424	0.823858	0.624011
	C188	C	0.184853	0.390254	0.886242
	C189	C	0.184227	0.614347	0.134137
	C190	C	0.822597	0.390417	0.133848
	C191	C	0.825252	0.614806	0.889626
	C192	C	0.405992	0.095090	0.608851
	C193	C	0.602837	0.910790	0.606195
	C194	C	0.604152	0.096377	0.413733
	C195	C	0.405796	0.910832	0.413692
	C196	C	0.600079	0.407655	0.104226
	C197	C	0.602116	0.599771	0.916787
	C198	C	0.406396	0.600688	0.104612
	C199	C	0.406598	0.405417	0.915802
	C200	C	0.097227	0.599543	0.414496
	C201	C	0.911611	0.601586	0.609086
	C202	C	0.095918	0.403703	0.607667
	C203	C	0.913867	0.402101	0.413733
	C204	C	0.905782	0.594332	0.108889
	C205	C	0.102984	0.409944	0.105892
	C206	C	0.103435	0.594562	0.913681
	C207	C	0.904301	0.409481	0.913009
	C208	C	0.100688	0.906891	0.604242
	C209	C	0.102370	0.097661	0.416949
	C210	C	0.908460	0.098065	0.604089
	C211	C	0.907255	0.904356	0.415994
	C212	C	0.595974	0.102057	0.914224
	C213	C	0.411727	0.101932	0.108183
	C214	C	0.595764	0.904417	0.107639
	C215	C	0.411648	0.901699	0.911882
	Zn216	Zn	0.504196	0.002155	0.760269
	Zn217	Zn	0.503932	0.003715	0.261071
	Zn218	Zn	0.752858	0.502644	0.011010
	Zn219	Zn	0.255566	0.502590	0.010284
	Zn220	Zn	0.004923	0.753082	0.510698
	Zn221	Zn	0.005123	0.249448	0.510429
	Zn222	Zn	0.003561	0.501698	0.761239
	Zn223	Zn	0.005363	0.501240	0.260643
	Zn224	Zn	0.504071	0.751242	0.010444
	Zn225	Zn	0.503291	0.255189	0.010413
	Zn226	Zn	0.755724	0.002811	0.509943
	Zn227	Zn	0.253563	0.002785	0.511034
	N228	N	0.419820	0.964767	0.687606
	N229	N	0.588951	0.040175	0.688156
	N230	N	0.588448	0.966543	0.333145
	N231	N	0.419535	0.040416	0.333683
	N232	N	0.683034	0.416034	0.974390
	N233	N	0.683176	0.589776	0.047524
	N234	N	0.325504	0.588654	0.973621
	N235	N	0.325172	0.416558	0.046361
	N236	N	0.970126	0.683031	0.422531
	N237	N	0.039166	0.685021	0.600283
	N238	N	0.968970	0.319274	0.598504
	N239	N	0.041437	0.319517	0.422632
	N240	N	0.966413	0.416803	0.688385
	N241	N	0.041069	0.587118	0.688962
	N242	N	0.967923	0.584498	0.334526
	N243	N	0.042055	0.414527	0.330576
	N244	N	0.418285	0.680663	0.973378
	N245	N	0.588994	0.680659	0.048268
	N246	N	0.588025	0.326299	0.973048
	N247	N	0.416618	0.324455	0.046444
	N248	N	0.686654	0.968349	0.420596
	N249	N	0.686379	0.038382	0.598793
	N250	N	0.321830	0.967979	0.600025
	N251	N	0.322722	0.038349	0.422932
	N252	N	0.919853	0.464137	0.188139
	N253	N	0.088791	0.539211	0.187886
	N254	N	0.088391	0.464463	0.832953
	N255	N	0.919203	0.539250	0.833388
	N256	N	0.183612	0.915766	0.474691
	N257	N	0.184547	0.089754	0.547186
	N258	N	0.825912	0.088747	0.473988
	N259	N	0.824540	0.915198	0.546088
	N260	N	0.468443	0.184911	0.921870
	N261	N	0.538837	0.186193	0.099043
	N262	N	0.467916	0.822175	0.097794
	N263	N	0.540381	0.820902	0.922647
	N264	N	0.466852	0.918295	0.188751
	N265	N	0.540993	0.088996	0.188793
	N266	N	0.467026	0.086599	0.833359
	N267	N	0.540980	0.916539	0.831336
	N268	N	0.920243	0.178275	0.473209
	N269	N	0.090836	0.180136	0.547758
	N270	N	0.090493	0.824115	0.473834
	N271	N	0.918123	0.823566	0.546866
	N272	N	0.186340	0.466853	0.921293
	N273	N	0.185896	0.537919	0.098783
	N274	N	0.821474	0.467239	0.099984
	N275	N	0.822790	0.538091	0.923218
	O276	O	-0.006087	0.051816	0.040451
	H277	H	-0.006964	0.056749	0.030704
	H278	H	-0.012771	0.061933	0.045152
	O279	O	0.531818	0.425280	0.358883
	H280	H	0.527366	0.410017	0.349525
	H281	H	0.549406	0.438274	0.366264
	O282	O	0.444014	-0.586327	0.479901
	H283	H	0.443427	-0.587991	0.475260
	H284	H	0.432379	-0.582685	0.490469
	O285	O	0.626789	0.531996	0.425908
	H286	H	0.627645	0.539309	0.434587
	H287	H	0.624039	0.526970	0.426182
	O288	O	1.123676	0.842289	0.938368
	H289	H	1.116022	0.835002	0.947888
	H290	H	1.120079	0.839278	0.940694
	O291	O	-0.036953	0.967116	0.024444
	H292	H	-0.032592	0.980582	0.036035
	H293	H	-0.050274	0.953400	0.024264
	O294	O	0.563613	0.397076	0.450263
	H295	H	0.554129	0.395635	0.459661
	H296	H	0.574236	0.413622	0.467233
	O297	O	0.496713	0.446494	0.562835
	H298	H	0.499853	0.441726	0.556913
	H299	H	0.496704	0.439192	0.559844
	O300	O	0.675868	0.703884	0.497796
	H301	H	0.695109	0.715196	0.502906
	H302	H	0.670563	0.691075	0.523938
	O303	O	0.334255	0.607414	0.538444
	H304	H	0.320206	0.598972	0.524770
	H305	H	0.343880	0.610782	0.520684
	O306	O	0.604926	0.598682	0.648134
	H307	H	0.591007	0.614047	0.645660
	H308	H	0.598856	0.611026	0.663099
	O309	O	0.407132	0.557414	0.438411
	H310	H	0.400308	0.559458	0.428948
	H311	H	0.413973	0.558882	0.452084
	O312	O	-0.099239	0.022075	-0.113377
	H313	H	-0.107490	0.019251	-0.110850
	H314	H	-0.092457	0.007141	-0.106283
	O315	O	0.526444	0.425747	0.621925
	H316	H	0.527073	0.431653	0.608271
	H317	H	0.524078	0.427013	0.618817
	O318	O	0.011505	1.124901	0.928564
	H319	H	0.009719	1.107654	0.926985
	H320	H	0.024881	1.121422	0.924772
	O321	O	0.648716	0.414065	0.492716
	H322	H	0.642675	0.400943	0.504047
	H323	H	0.645595	0.422424	0.508655
	O324	O	0.060576	1.001517	-0.155640
	H325	H	0.066609	0.996916	-0.162442
	H326	H	0.065256	0.996970	-0.138937
	O327	O	-0.049373	0.191366	-0.006231
	H328	H	-0.042965	0.205351	-0.012781
	H329	H	-0.047810	0.194295	-0.023991
	O330	O	0.028492	0.085897	1.031780
	H331	H	0.039255	0.091161	1.037901
	H332	H	0.031155	0.075601	1.023146
	O333	O	-0.118734	0.045791	0.933305
	H334	H	-0.117428	0.057210	0.932014
	H335	H	-0.107954	0.033495	0.922366
	O336	O	0.416729	0.508020	0.658646
	H337	H	0.412815	0.509806	0.663315
	H338	H	0.420194	0.496279	0.652665
	O339	O	1.000020	0.100418	0.133164
	H340	H	0.990677	0.094210	0.134360
	H341	H	0.999516	0.104995	0.133613
	O342	O	-0.423384	-0.391928	0.448004
	H343	H	-0.420851	-0.411195	0.463466
	H344	H	-0.410587	-0.390504	0.450966
	O345	O	0.992690	0.121330	1.124314
	H346	H	1.001080	0.124727	1.107370
	H347	H	0.985931	0.135606	1.127677
	O348	O	0.914300	1.052869	0.177048
	H349	H	0.916503	1.065507	0.184468
	H350	H	0.904591	1.051305	0.181130
	O351	O	0.445201	0.475982	0.556767
	H352	H	0.457149	0.472483	0.552678
	H353	H	0.446947	0.461606	0.570161
	O354	O	1.082667	-0.137927	0.826473
	H355	H	1.084586	-0.161800	0.813550
	H356	H	1.102406	-0.130622	0.831955
	O357	O	0.319463	0.647408	0.369984
	H358	H	0.324122	0.648432	0.355448
	H359	H	0.324934	0.640228	0.351640
	O360	O	0.670854	0.637411	0.668079
	H361	H	0.667651	0.629562	0.669229
	H362	H	0.656507	0.642391	0.660474
	O363	O	0.104456	0.923808	0.936624
	H364	H	0.114447	0.920781	0.961890
	H365	H	0.112102	0.931735	0.939190
	O366	O	0.685606	0.341179	0.421651
	H367	H	0.683205	0.347334	0.421114
	H368	H	0.703660	0.332840	0.411858
	O369	O	-0.118141	0.952479	-0.134658
	H370	H	-0.107985	0.946654	-0.123575
	H371	H	-0.102794	0.945208	-0.132949
	O372	O	0.412835	0.686363	0.492144
	H373	H	0.415294	0.681381	0.473951
	H374	H	0.406689	0.690695	0.466861
	O375	O	0.469154	0.503584	0.546720
	H376	H	0.479940	0.505106	0.536478
	H377	H	0.481718	0.514142	0.548661
	O378	O	1.462301	0.645544	-0.455864
	H379	H	1.467133	0.646245	-0.452270
	H380	H	1.450468	0.637437	-0.471682
	O381	O	0.967057	-0.032883	0.107599
	H382	H	0.956663	-0.033222	0.100144
	H383	H	0.953855	-0.034490	0.098030
	O384	O	0.885336	1.019066	0.029948
	H385	H	0.881361	1.018309	0.035756
	H386	H	0.890589	1.024913	0.025510
	O387	O	-0.005953	-0.175264	0.079089
	H388	H	-0.002907	-0.164146	0.074305
	H389	H	-0.016173	-0.171512	0.075627
	O390	O	0.150185	1.157037	0.027276
	H391	H	0.166238	1.160105	0.009300
	H392	H	0.156152	1.140081	0.022132
	O393	O	1.035587	0.935475	1.163070
	H394	H	1.024462	0.957234	1.167448
	H395	H	1.029519	0.917063	1.161399
	O396	O	0.446624	0.409472	0.561607
	H397	H	0.451128	0.409076	0.566437
	H398	H	0.444648	0.412904	0.569748
	O399	O	0.053158	0.893446	1.096671
	H400	H	0.040507	0.906319	1.112214
	H401	H	0.052849	0.889185	1.070986
	O402	O	0.563736	0.410987	0.588045
	H403	H	0.566266	0.415870	0.593481
	H404	H	0.568558	0.424174	0.590623
	O405	O	1.181211	1.034952	-0.037832
	H406	H	1.191190	1.030468	-0.041383
	H407	H	1.171643	1.022609	-0.035315
	O408	O	1.096786	0.889359	0.107543
	H409	H	1.097463	0.887779	0.118011
	H410	H	1.090863	0.904234	0.096415
	O411	O	0.972504	-0.071189	1.004560
	H412	H	0.982070	-0.047750	1.008285
	H413	H	0.995864	-0.079144	1.000611
	O414	O	0.474004	0.348540	0.523135
	H415	H	0.476685	0.363733	0.521576
	H416	H	0.485838	0.341055	0.510950
	O417	O	0.477532	0.446194	0.372320
	H418	H	0.488957	0.431798	0.379897
	H419	H	0.475166	0.449837	0.363933
