data_Molecule from HDF5

_cell_length_a		16.322690
_cell_length_b		16.270800
_cell_length_c		16.317247
_cell_angle_alpha	90.239422
_cell_angle_beta	90.103760
_cell_angle_gamma	89.909474
_symmetry_space_group_name_H-M	'P 1'
_symmetry_Int_Tables_number		1

loop_
	_symmetry_equiv_pos_as_xyz
	x,y,z

loop_
	_atom_site_label
	_atom_site_type_symbol
	_atom_site_fract_x
	_atom_site_fract_y
	_atom_site_fract_z
	H0	H	0.401106	0.837734	0.719134
	H1	H	0.600510	0.164712	0.718916
	H2	H	0.600023	0.838444	0.288274
	H3	H	0.402659	0.165244	0.290885
	H4	H	0.717934	0.400271	0.841376
	H5	H	0.717150	0.601012	0.166947
	H6	H	0.284301	0.601924	0.841797
	H7	H	0.287911	0.404855	0.167181
	H8	H	0.838801	0.716129	0.403144
	H9	H	0.164803	0.717133	0.601929
	H10	H	0.838816	0.286934	0.599999
	H11	H	0.165421	0.285134	0.404408
	H12	H	0.839664	0.401174	0.718954
	H13	H	0.164525	0.602039	0.719958
	H14	H	0.838808	0.599213	0.287655
	H15	H	0.165273	0.400604	0.287674
	H16	H	0.403027	0.715826	0.839939
	H17	H	0.598658	0.715707	0.168238
	H18	H	0.600244	0.285740	0.841353
	H19	H	0.403297	0.289103	0.167647
	H20	H	0.716905	0.837965	0.401858
	H21	H	0.717367	0.164251	0.603752
	H22	H	0.286663	0.837269	0.601546
	H23	H	0.286802	0.164552	0.405460
	H24	H	0.904611	0.336845	0.216208
	H25	H	0.099526	0.663946	0.219425
	H26	H	0.102422	0.338288	0.787836
	H27	H	0.901951	0.664587	0.788906
	H28	H	0.217196	0.900829	0.340005
	H29	H	0.217268	0.101738	0.666460
	H30	H	0.785712	0.100161	0.339891
	H31	H	0.787206	0.902530	0.665498
	H32	H	0.338183	0.216808	0.905339
	H33	H	0.665044	0.215967	0.102538
	H34	H	0.338027	0.788563	0.101045
	H35	H	0.664759	0.786393	0.904609
	H36	H	0.337877	0.904325	0.217191
	H37	H	0.664978	0.100495	0.219413
	H38	H	0.338228	0.100581	0.788249
	H39	H	0.664225	0.900708	0.786818
	H40	H	0.904438	0.214134	0.338574
	H41	H	0.099947	0.216518	0.666060
	H42	H	0.099915	0.786020	0.339073
	H43	H	0.903195	0.786708	0.665443
	H44	H	0.218121	0.338798	0.904224
	H45	H	0.214936	0.665729	0.103612
	H46	H	0.788040	0.337493	0.101231
	H47	H	0.786841	0.664459	0.905404
	H48	H	0.414489	0.115470	0.597436
	H49	H	0.589065	0.887270	0.593844
	H50	H	0.585237	0.118129	0.404913
	H51	H	0.404308	0.883027	0.409182
	H52	H	0.603853	0.410452	0.122215
	H53	H	0.593037	0.594337	0.888148
	H54	H	0.409987	0.602478	0.121342
	H55	H	0.410972	0.411707	0.889411
	H56	H	0.116040	0.589534	0.412085
	H57	H	0.881884	0.603997	0.599229
	H58	H	0.118665	0.409609	0.600352
	H59	H	0.887496	0.406161	0.414348
	H60	H	0.117585	0.405233	0.592478
	H61	H	0.890477	0.592793	0.584390
	H62	H	0.119214	0.594109	0.405645
	H63	H	0.887017	0.413188	0.406745
	H64	H	0.402778	0.594311	0.121030
	H65	H	0.595110	0.593936	0.887816
	H66	H	0.590850	0.416978	0.116307
	H67	H	0.410587	0.407590	0.888024
	H68	H	0.592062	0.113718	0.422392
	H69	H	0.597806	0.885190	0.591294
	H70	H	0.406769	0.116179	0.591442
	H71	H	0.411198	0.884079	0.406085
	H72	H	0.911684	0.617524	0.100798
	H73	H	0.095180	0.383884	0.099045
	H74	H	0.094796	0.618225	0.908398
	H75	H	0.905969	0.385530	0.915840
	H76	H	0.093623	0.916157	0.616674
	H77	H	0.101702	0.084856	0.387175
	H78	H	0.909437	0.100080	0.619267
	H79	H	0.911845	0.903588	0.386396
	H80	H	0.619802	0.097305	0.906017
	H81	H	0.384412	0.097894	0.099067
	H82	H	0.618527	0.911862	0.103590
	H83	H	0.385296	0.911786	0.906944
	H84	H	0.619849	0.901828	0.096576
	H85	H	0.385887	0.097076	0.095712
	H86	H	0.616568	0.096610	0.916532
	H87	H	0.384998	0.905874	0.911720
	H88	H	0.903306	0.092439	0.619248
	H89	H	0.085656	0.090496	0.390860
	H90	H	0.089145	0.904024	0.618354
	H91	H	0.903199	0.907101	0.384532
	H92	H	0.090207	0.616658	0.912820
	H93	H	0.093309	0.386172	0.093057
	H94	H	0.910644	0.615849	0.093016
	H95	H	0.905790	0.382241	0.904380
	H96	H	0.406553	0.119120	0.600834
	H97	H	0.595016	0.883430	0.599562
	H98	H	0.603942	0.121651	0.409387
	H99	H	0.410401	0.886074	0.413483
	H100	H	0.590563	0.402445	0.121550
	H101	H	0.594095	0.592737	0.889367
	H102	H	0.412522	0.592541	0.117600
	H103	H	0.406521	0.410373	0.887686
	H104	H	0.118254	0.597488	0.413108
	H105	H	0.886546	0.584967	0.602702
	H106	H	0.115483	0.414153	0.592570
	H107	H	0.884036	0.403821	0.405246
	H108	H	0.904287	0.619209	0.097532
	H109	H	0.099057	0.383996	0.094463
	H110	H	0.095627	0.617900	0.914664
	H111	H	0.916130	0.386466	0.909695
	H112	H	0.101250	0.907203	0.620565
	H113	H	0.097439	0.101808	0.383784
	H114	H	0.913022	0.091292	0.616989
	H115	H	0.910142	0.912951	0.387939
	H116	H	0.614681	0.088117	0.910144
	H117	H	0.385199	0.094143	0.098963
	H118	H	0.615809	0.912213	0.092045
	H119	H	0.388072	0.912622	0.914414
	C120	C	0.379831	0.009180	0.625104
	C121	C	0.622883	0.993128	0.624500
	C122	C	0.623149	0.009901	0.382392
	C123	C	0.379830	0.992646	0.381936
	C124	C	0.623719	0.380081	0.012478
	C125	C	0.622865	0.623049	0.996057
	C126	C	0.379306	0.624688	0.012206
	C127	C	0.380949	0.381389	0.996158
	C128	C	0.010112	0.622268	0.381430
	C129	C	0.993862	0.622995	0.624648
	C130	C	0.010088	0.380132	0.624267
	C131	C	0.993868	0.378664	0.380446
	C132	C	0.880683	0.509112	0.124984
	C133	C	0.123565	0.493011	0.124887
	C134	C	0.123390	0.509847	0.882520
	C135	C	0.880259	0.492891	0.881795
	C136	C	0.123264	0.879568	0.510897
	C137	C	0.123621	0.122378	0.494774
	C138	C	0.880022	0.122902	0.511007
	C139	C	0.880059	0.879608	0.494165
	C140	C	0.509398	0.123115	0.882198
	C141	C	0.493348	0.124125	0.126511
	C142	C	0.509611	0.881042	0.125199
	C143	C	0.493648	0.880373	0.881830
	C144	C	0.380955	0.886530	0.681063
	C145	C	0.620652	0.116057	0.680606
	C146	C	0.620229	0.886934	0.326651
	C147	C	0.382362	0.116230	0.328262
	C148	C	0.679331	0.380814	0.889868
	C149	C	0.678893	0.621486	0.118477
	C150	C	0.323157	0.622104	0.889843
	C151	C	0.326061	0.384552	0.118775
	C152	C	0.887100	0.677469	0.383300
	C153	C	0.116273	0.679027	0.622710
	C154	C	0.887510	0.324659	0.621166
	C155	C	0.116858	0.323290	0.383523
	C156	C	0.887987	0.381340	0.680274
	C157	C	0.116054	0.621896	0.681315
	C158	C	0.887326	0.619248	0.326095
	C159	C	0.116691	0.380644	0.325682
	C160	C	0.381829	0.679025	0.889161
	C161	C	0.620140	0.678419	0.119018
	C162	C	0.620822	0.324007	0.890006
	C163	C	0.383386	0.326862	0.118921
	C164	C	0.678700	0.886867	0.382880
	C165	C	0.678589	0.115826	0.623309
	C166	C	0.324454	0.886246	0.622497
	C167	C	0.324723	0.115787	0.385083
	C168	C	0.883836	0.385753	0.178793
	C169	C	0.120240	0.615838	0.180781
	C170	C	0.122466	0.387317	0.825896
	C171	C	0.881999	0.615656	0.826711
	C172	C	0.178841	0.880957	0.388509
	C173	C	0.179172	0.121310	0.617630
	C174	C	0.824006	0.120620	0.388439
	C175	C	0.825029	0.882449	0.616739
	C176	C	0.386684	0.178553	0.884901
	C177	C	0.616215	0.178719	0.123723
	C178	C	0.386591	0.826457	0.121587
	C179	C	0.616135	0.824438	0.884122
	C180	C	0.386778	0.883783	0.179626
	C181	C	0.616009	0.121445	0.181865
	C182	C	0.386770	0.120979	0.826546
	C183	C	0.615841	0.881172	0.825514
	C184	C	0.882479	0.177571	0.387792
	C185	C	0.121130	0.178757	0.617409
	C186	C	0.120339	0.823897	0.387955
	C187	C	0.882349	0.824608	0.616824
	C188	C	0.179938	0.387643	0.883723
	C189	C	0.177513	0.616614	0.123333
	C190	C	0.825617	0.386294	0.121919
	C191	C	0.824947	0.615856	0.884825
	C192	C	0.402359	0.094778	0.602934
	C193	C	0.600480	0.907434	0.601771
	C194	C	0.600566	0.095639	0.405671
	C195	C	0.402152	0.906617	0.403336
	C196	C	0.601594	0.403175	0.097963
	C197	C	0.600493	0.600446	0.910573
	C198	C	0.401717	0.602889	0.097697
	C199	C	0.403093	0.403410	0.910486
	C200	C	0.095566	0.600277	0.403851
	C201	C	0.908395	0.600533	0.601961
	C202	C	0.095428	0.402915	0.601735
	C203	C	0.908251	0.401078	0.402240
	C204	C	0.902477	0.595364	0.103435
	C205	C	0.102289	0.406965	0.102044
	C206	C	0.100154	0.595567	0.905148
	C207	C	0.902765	0.406957	0.903637
	C208	C	0.101054	0.902335	0.596542
	C209	C	0.101378	0.099313	0.409380
	C210	C	0.902253	0.101228	0.596455
	C211	C	0.902042	0.901477	0.408457
	C212	C	0.594906	0.100605	0.904353
	C213	C	0.407383	0.102533	0.104443
	C214	C	0.595759	0.902430	0.103713
	C215	C	0.408117	0.903411	0.904425
	Zn216	Zn	0.501423	0.001106	0.752955
	Zn217	Zn	0.501564	0.002125	0.254778
	Zn218	Zn	0.752134	0.501304	0.003874
	Zn219	Zn	0.251867	0.501883	0.004560
	Zn220	Zn	0.001417	0.751287	0.502613
	Zn221	Zn	0.001906	0.251163	0.501991
	Zn222	Zn	0.002081	0.501321	0.753784
	Zn223	Zn	0.002462	0.500185	0.252487
	Zn224	Zn	0.501771	0.752341	0.003817
	Zn225	Zn	0.501650	0.251899	0.004414
	Zn226	Zn	0.751341	0.001146	0.502909
	Zn227	Zn	0.252159	0.000968	0.503445
	N228	N	0.414811	0.963926	0.682771
	N229	N	0.586615	0.038712	0.681335
	N230	N	0.586244	0.964276	0.326429
	N231	N	0.415908	0.038743	0.326169
	N232	N	0.681126	0.415144	0.967059
	N233	N	0.680769	0.587744	0.041099
	N234	N	0.321556	0.589067	0.967304
	N235	N	0.324476	0.417714	0.041454
	N236	N	0.964154	0.679262	0.417095
	N237	N	0.039115	0.680120	0.588372
	N238	N	0.964404	0.323831	0.586919
	N239	N	0.039559	0.321942	0.416852
	N240	N	0.965207	0.415121	0.682092
	N241	N	0.038981	0.587750	0.682527
	N242	N	0.964816	0.585725	0.324438
	N243	N	0.039403	0.414457	0.323870
	N244	N	0.416027	0.680780	0.966212
	N245	N	0.585908	0.679347	0.041868
	N246	N	0.587092	0.323419	0.967146
	N247	N	0.416739	0.324528	0.041586
	N248	N	0.680379	0.964392	0.417190
	N249	N	0.679991	0.038540	0.589057
	N250	N	0.323930	0.963431	0.588389
	N251	N	0.322985	0.037966	0.417628
	N252	N	0.917240	0.463209	0.180678
	N253	N	0.087282	0.538108	0.181737
	N254	N	0.087935	0.464569	0.825105
	N255	N	0.915656	0.538121	0.824786
	N256	N	0.180801	0.914682	0.465955
	N257	N	0.181047	0.087241	0.540393
	N258	N	0.822145	0.087687	0.465912
	N259	N	0.823468	0.915841	0.539365
	N260	N	0.464013	0.180107	0.918701
	N261	N	0.539045	0.180258	0.089784
	N262	N	0.464119	0.824615	0.088527
	N263	N	0.539256	0.823915	0.918418
	N264	N	0.464242	0.917165	0.181703
	N265	N	0.538336	0.088562	0.183864
	N266	N	0.463985	0.087174	0.824852
	N267	N	0.538449	0.915048	0.823858
	N268	N	0.917052	0.178848	0.464794
	N269	N	0.087020	0.179263	0.540265
	N270	N	0.086309	0.823115	0.465108
	N271	N	0.915628	0.822670	0.539585
	N272	N	0.180499	0.464801	0.918159
	N273	N	0.179425	0.539115	0.089219
	N274	N	0.823781	0.464003	0.088895
	N275	N	0.823683	0.538456	0.918251
	O276	O	0.539798	0.511648	-0.478476
	H277	H	0.561084	0.526195	-0.468342
	H278	H	0.537967	0.498178	-0.490155
	O279	O	-0.027342	0.010231	-0.050495
	H280	H	-0.022808	0.001621	-0.051645
	H281	H	-0.019811	0.010483	-0.054180
	O282	O	0.044420	-0.017036	0.930318
	H283	H	0.042535	-0.019189	0.930490
	H284	H	0.041768	-0.016875	0.917851
	O285	O	0.556889	0.494331	0.492470
	H286	H	0.545017	0.496647	0.490099
	H287	H	0.561714	0.492713	0.499540
	O288	O	0.495029	0.489382	0.513249
	H289	H	0.490173	0.481331	0.521598
	H290	H	0.486697	0.488143	0.517177
	O291	O	0.579941	0.527088	0.606108
	H292	H	0.589528	0.535193	0.614258
	H293	H	0.571706	0.537360	0.613989
	O294	O	-0.021568	-0.005070	-0.092888
	H295	H	-0.016631	-0.006567	-0.090372
	H296	H	-0.020243	-0.006491	-0.090615
	O297	O	0.559802	0.451409	0.542033
	H298	H	0.564238	0.445671	0.546682
	H299	H	0.562250	0.451055	0.538588
	O300	O	0.509740	1.478639	0.486289
	H301	H	0.515471	1.473936	0.486554
	H302	H	0.514824	1.475106	0.475693
	O303	O	0.536743	0.491425	0.508393
	H304	H	0.533717	0.499385	0.502240
	H305	H	0.543160	0.497152	0.496221
	O306	O	0.037960	-0.005000	0.910269
	H307	H	0.039438	0.001946	0.911114
	H308	H	0.029987	-0.003430	0.908012
	O309	O	0.966892	1.020778	0.934314
	H310	H	0.966725	1.015690	0.933887
	H311	H	0.964975	1.023796	0.937728
	O312	O	0.553009	0.456121	0.537319
	H313	H	0.556667	0.456223	0.544134
	H314	H	0.551041	0.450552	0.541829
	O315	O	0.537407	0.461730	0.576341
	H316	H	0.545756	0.455884	0.592197
	H317	H	0.533863	0.451426	0.564702
	O318	O	-0.000835	0.984259	-0.002616
	H319	H	0.007114	0.979121	-0.004402
	H320	H	-0.005650	0.987138	-0.008244
	O321	O	0.530394	0.571844	0.518614
	H322	H	0.533765	0.570003	0.513901
	H323	H	0.518667	0.572198	0.519487
