data_Molecule from HDF5

_cell_length_a		16.208903
_cell_length_b		16.354600
_cell_length_c		16.327023
_cell_angle_alpha	89.942108
_cell_angle_beta	90.075409
_cell_angle_gamma	90.023425
_symmetry_space_group_name_H-M	'P 1'
_symmetry_Int_Tables_number		1

loop_
	_symmetry_equiv_pos_as_xyz
	x,y,z

loop_
	_atom_site_label
	_atom_site_type_symbol
	_atom_site_fract_x
	_atom_site_fract_y
	_atom_site_fract_z
	H0	H	0.403323	0.835194	0.716684
	H1	H	0.602507	0.160878	0.719059
	H2	H	0.601721	0.835214	0.289166
	H3	H	0.402051	0.161145	0.286321
	H4	H	0.715654	0.400706	0.838041
	H5	H	0.716161	0.595913	0.165830
	H6	H	0.289504	0.593156	0.837484
	H7	H	0.287593	0.400538	0.166488
	H8	H	0.838713	0.715846	0.401577
	H9	H	0.166038	0.714414	0.601048
	H10	H	0.838503	0.285093	0.601395
	H11	H	0.165849	0.283689	0.402210
	H12	H	0.838643	0.400677	0.716026
	H13	H	0.166353	0.597925	0.715907
	H14	H	0.837779	0.598951	0.287043
	H15	H	0.166765	0.400523	0.287916
	H16	H	0.401153	0.714648	0.839548
	H17	H	0.602022	0.713586	0.164961
	H18	H	0.601387	0.280898	0.839606
	H19	H	0.402272	0.282488	0.165732
	H20	H	0.718289	0.835952	0.404766
	H21	H	0.716584	0.162211	0.600686
	H22	H	0.287344	0.835627	0.600268
	H23	H	0.288598	0.162794	0.405473
	H24	H	0.901063	0.337194	0.219594
	H25	H	0.101017	0.662284	0.216433
	H26	H	0.102066	0.336801	0.785074
	H27	H	0.902682	0.662513	0.785933
	H28	H	0.216059	0.902968	0.339322
	H29	H	0.216723	0.098036	0.666303
	H30	H	0.786923	0.098009	0.338913
	H31	H	0.790036	0.902373	0.666329
	H32	H	0.337531	0.212526	0.903098
	H33	H	0.665905	0.212864	0.102142
	H34	H	0.337518	0.784751	0.100632
	H35	H	0.665927	0.784266	0.904820
	H36	H	0.338388	0.898629	0.217944
	H37	H	0.666518	0.096490	0.217188
	H38	H	0.338380	0.097344	0.786750
	H39	H	0.665966	0.898823	0.788774
	H40	H	0.901449	0.216684	0.339798
	H41	H	0.102081	0.216007	0.665018
	H42	H	0.102643	0.784735	0.339677
	H43	H	0.902088	0.782355	0.664284
	H44	H	0.215554	0.335771	0.903741
	H45	H	0.216747	0.662318	0.099701
	H46	H	0.788946	0.335012	0.099124
	H47	H	0.787848	0.662900	0.904792
	H48	H	0.419794	0.111746	0.599204
	H49	H	0.588364	0.882178	0.605000
	H50	H	0.603714	0.114124	0.417824
	H51	H	0.407322	0.884545	0.413944
	H52	H	0.587974	0.404614	0.115097
	H53	H	0.596822	0.593044	0.885218
	H54	H	0.412318	0.597099	0.119152
	H55	H	0.412890	0.401517	0.887286
	H56	H	0.118013	0.584763	0.405391
	H57	H	0.886746	0.595716	0.584271
	H58	H	0.120634	0.401154	0.592228
	H59	H	0.886890	0.406423	0.412846
	H60	H	0.116668	0.411732	0.589227
	H61	H	0.888298	0.582144	0.595708
	H62	H	0.122775	0.600044	0.405362
	H63	H	0.886622	0.410329	0.409441
	H64	H	0.402258	0.590772	0.119229
	H65	H	0.593746	0.588741	0.887589
	H66	H	0.597716	0.398406	0.120563
	H67	H	0.404542	0.401071	0.884525
	H68	H	0.594549	0.117899	0.397197
	H69	H	0.592257	0.886623	0.585871
	H70	H	0.407446	0.111691	0.586569
	H71	H	0.406568	0.881032	0.406185
	H72	H	0.912187	0.611580	0.086606
	H73	H	0.094363	0.382156	0.099863
	H74	H	0.086727	0.613040	0.906202
	H75	H	0.899012	0.383066	0.913291
	H76	H	0.105342	0.902010	0.623086
	H77	H	0.097465	0.098800	0.384120
	H78	H	0.908694	0.095803	0.619061
	H79	H	0.909096	0.910496	0.387405
	H80	H	0.617220	0.085393	0.911310
	H81	H	0.382485	0.100215	0.093817
	H82	H	0.614078	0.910244	0.085976
	H83	H	0.378754	0.894025	0.901938
	H84	H	0.620671	0.910933	0.107910
	H85	H	0.389210	0.085704	0.087781
	H86	H	0.619910	0.091604	0.907194
	H87	H	0.388250	0.902862	0.923050
	H88	H	0.908349	0.091118	0.617503
	H89	H	0.098442	0.086005	0.387512
	H90	H	0.092584	0.917191	0.614207
	H91	H	0.913623	0.906076	0.387042
	H92	H	0.097120	0.612805	0.915842
	H93	H	0.089349	0.385208	0.094259
	H94	H	0.898253	0.617864	0.096150
	H95	H	0.909924	0.380483	0.897064
	H96	H	0.403923	0.118397	0.602089
	H97	H	0.606402	0.879737	0.597920
	H98	H	0.581409	0.108840	0.414449
	H99	H	0.413365	0.883957	0.408699
	H100	H	0.598402	0.410556	0.117303
	H101	H	0.590681	0.593062	0.886347
	H102	H	0.412787	0.586005	0.114830
	H103	H	0.408055	0.408767	0.887857
	H104	H	0.115966	0.592985	0.418092
	H105	H	0.880984	0.597466	0.601254
	H106	H	0.120264	0.409367	0.600919
	H107	H	0.885055	0.405550	0.408236
	H108	H	0.914195	0.615686	0.104098
	H109	H	0.097022	0.383935	0.092033
	H110	H	0.099489	0.617676	0.902660
	H111	H	0.918073	0.387672	0.914112
	H112	H	0.085248	0.897464	0.617940
	H113	H	0.086792	0.092341	0.389434
	H114	H	0.912370	0.093531	0.617471
	H115	H	0.908270	0.904734	0.384983
	H116	H	0.618217	0.092299	0.915097
	H117	H	0.384046	0.086398	0.103822
	H118	H	0.623110	0.891332	0.095786
	H119	H	0.387292	0.917556	0.902961
	C120	C	0.381084	0.006458	0.624269
	C121	C	0.624388	0.990427	0.625079
	C122	C	0.623158	0.006418	0.381330
	C123	C	0.380113	0.990722	0.380671
	C124	C	0.623461	0.376066	0.009946
	C125	C	0.622771	0.619672	0.993937
	C126	C	0.379880	0.619978	0.010069
	C127	C	0.379303	0.375279	0.994413
	C128	C	0.010428	0.621465	0.380231
	C129	C	0.993665	0.620514	0.622501
	C130	C	0.010929	0.378561	0.622675
	C131	C	0.994275	0.378304	0.380877
	C132	C	0.879657	0.507285	0.124195
	C133	C	0.122895	0.491148	0.123538
	C134	C	0.123403	0.507245	0.879506
	C135	C	0.880177	0.491563	0.879642
	C136	C	0.123587	0.877745	0.510748
	C137	C	0.123686	0.121461	0.494402
	C138	C	0.880257	0.121961	0.510516
	C139	C	0.881094	0.878157	0.494076
	C140	C	0.509993	0.118846	0.881790
	C141	C	0.493790	0.119500	0.124281
	C142	C	0.510531	0.876165	0.124708
	C143	C	0.493381	0.876622	0.881393
	C144	C	0.382657	0.883938	0.679241
	C145	C	0.622671	0.112573	0.680772
	C146	C	0.621755	0.883841	0.326839
	C147	C	0.382147	0.112925	0.324912
	C148	C	0.678081	0.379356	0.886960
	C149	C	0.677787	0.616132	0.117126
	C150	C	0.325695	0.615714	0.886840
	C151	C	0.324753	0.379138	0.117408
	C152	C	0.887400	0.677218	0.381855
	C153	C	0.117205	0.676121	0.621045
	C154	C	0.887596	0.322892	0.621147
	C155	C	0.117033	0.322044	0.381974
	C156	C	0.887503	0.380290	0.678186
	C157	C	0.117323	0.618326	0.677946
	C158	C	0.887082	0.619092	0.324871
	C159	C	0.117537	0.380384	0.325416
	C160	C	0.381477	0.675684	0.887803
	C161	C	0.621340	0.674940	0.116567
	C162	C	0.621285	0.320120	0.887778
	C163	C	0.381916	0.320503	0.117118
	C164	C	0.679912	0.884449	0.384176
	C165	C	0.679378	0.113123	0.622001
	C166	C	0.324926	0.884164	0.621445
	C167	C	0.325710	0.113736	0.384141
	C168	C	0.881589	0.385322	0.180556
	C169	C	0.121566	0.613718	0.178645
	C170	C	0.121636	0.385063	0.823670
	C171	C	0.882086	0.613819	0.823994
	C172	C	0.178377	0.881831	0.387959
	C173	C	0.179052	0.119037	0.617371
	C174	C	0.824553	0.119093	0.387745
	C175	C	0.826904	0.880950	0.617141
	C176	C	0.386840	0.174719	0.882939
	C177	C	0.617093	0.174638	0.122218
	C178	C	0.386774	0.821810	0.121611
	C179	C	0.617027	0.821586	0.884124
	C180	C	0.387197	0.878535	0.179815
	C181	C	0.617380	0.116785	0.179273
	C182	C	0.387012	0.117171	0.825452
	C183	C	0.617036	0.878656	0.826562
	C184	C	0.881910	0.177529	0.387970
	C185	C	0.122140	0.177550	0.616710
	C186	C	0.122151	0.822977	0.388276
	C187	C	0.882803	0.821447	0.616066
	C188	C	0.178229	0.384619	0.882599
	C189	C	0.178746	0.613782	0.120484
	C190	C	0.825307	0.384300	0.120999
	C191	C	0.825139	0.614062	0.883076
	C192	C	0.403800	0.091876	0.602486
	C193	C	0.602069	0.905012	0.602783
	C194	C	0.599929	0.091514	0.403336
	C195	C	0.402626	0.905322	0.402881
	C196	C	0.601245	0.398041	0.095457
	C197	C	0.600403	0.597829	0.908586
	C198	C	0.402465	0.597854	0.095679
	C199	C	0.401963	0.397223	0.908674
	C200	C	0.096794	0.599095	0.402933
	C201	C	0.907632	0.598242	0.600186
	C202	C	0.097030	0.400910	0.600546
	C203	C	0.908219	0.400875	0.403694
	C204	C	0.901695	0.592934	0.102044
	C205	C	0.100373	0.405862	0.101822
	C206	C	0.101009	0.592532	0.901729
	C207	C	0.902615	0.405899	0.901449
	C208	C	0.100985	0.899239	0.596203
	C209	C	0.100899	0.099152	0.409108
	C210	C	0.903272	0.099986	0.595980
	C211	C	0.903609	0.900601	0.408488
	C212	C	0.596167	0.096385	0.904526
	C213	C	0.407492	0.097279	0.101720
	C214	C	0.596816	0.897853	0.103009
	C215	C	0.407079	0.898529	0.902961
	Zn216	Zn	0.502268	-0.002194	0.753723
	Zn217	Zn	0.502068	-0.002081	0.251851
	Zn218	Zn	0.751617	0.498719	0.001446
	Zn219	Zn	0.251164	0.498260	0.002171
	Zn220	Zn	0.002097	0.749214	0.501957
	Zn221	Zn	0.002369	0.250659	0.502241
	Zn222	Zn	0.002144	0.499491	0.750585
	Zn223	Zn	0.002364	0.499814	0.252480
	Zn224	Zn	0.501763	0.748720	0.002522
	Zn225	Zn	0.501686	0.247109	0.002830
	Zn226	Zn	0.752429	-0.000280	0.502565
	Zn227	Zn	0.251773	-0.000413	0.502852
	N228	N	0.416717	0.961028	0.681220
	N229	N	0.589282	0.035183	0.682942
	N230	N	0.587283	0.960629	0.324803
	N231	N	0.415418	0.035513	0.322753
	N232	N	0.679449	0.413511	0.963960
	N233	N	0.678743	0.582423	0.039888
	N234	N	0.325096	0.581253	0.963680
	N235	N	0.322942	0.412455	0.039998
	N236	N	0.965174	0.678872	0.415486
	N237	N	0.039391	0.677631	0.587261
	N238	N	0.965317	0.321813	0.587315
	N239	N	0.039310	0.320677	0.415767
	N240	N	0.965019	0.414041	0.679408
	N241	N	0.039605	0.584337	0.678971
	N242	N	0.964713	0.585139	0.323954
	N243	N	0.039974	0.414508	0.324482
	N244	N	0.414443	0.678429	0.965470
	N245	N	0.587673	0.677160	0.039245
	N246	N	0.587921	0.318207	0.965154
	N247	N	0.414937	0.317920	0.039566
	N248	N	0.680707	0.961595	0.417568
	N249	N	0.680675	0.036197	0.588219
	N250	N	0.323966	0.961311	0.587887
	N251	N	0.324024	0.036587	0.417629
	N252	N	0.914625	0.462878	0.182575
	N253	N	0.087691	0.536623	0.180660
	N254	N	0.088175	0.462361	0.821730
	N255	N	0.915535	0.536481	0.821806
	N256	N	0.179412	0.915246	0.465169
	N257	N	0.179850	0.084644	0.540572
	N258	N	0.823606	0.085184	0.464916
	N259	N	0.825743	0.915491	0.540268
	N260	N	0.464381	0.175739	0.917286
	N261	N	0.539310	0.176173	0.088750
	N262	N	0.464388	0.820306	0.087852
	N263	N	0.539146	0.820222	0.917557
	N264	N	0.465171	0.911602	0.181746
	N265	N	0.539475	0.083136	0.180598
	N266	N	0.464622	0.083148	0.824688
	N267	N	0.539226	0.911993	0.824726
	N268	N	0.915616	0.179528	0.465276
	N269	N	0.088482	0.179143	0.539239
	N270	N	0.088816	0.820219	0.465703
	N271	N	0.915819	0.819694	0.538524
	N272	N	0.179097	0.461300	0.916880
	N273	N	0.179904	0.536568	0.086934
	N274	N	0.823784	0.461167	0.086884
	N275	N	0.823843	0.537009	0.916860
	O276	O	0.599833	0.459181	-0.556169
	H277	H	0.605746	0.450799	-0.565266
	H278	H	0.599040	0.465628	-0.567346
	O279	O	-0.002808	0.083908	0.010286
	H280	H	0.012972	0.080810	0.007495
	H281	H	-0.001001	0.087176	0.003752
	O282	O	0.008850	0.069254	1.058657
	H283	H	0.001720	0.068290	1.060372
	H284	H	0.004478	0.064854	1.058465
	O285	O	0.469220	0.479405	0.535526
	H286	H	0.470330	0.484772	0.539764
	H287	H	0.467164	0.474150	0.539242
	O288	O	0.476958	0.521232	0.519748
	H289	H	0.482198	0.523428	0.520536
	H290	H	0.474890	0.514687	0.517702
	O291	O	0.550887	0.465228	0.437488
	H292	H	0.538278	0.465841	0.431991
	H293	H	0.551132	0.467324	0.427512
	O294	O	0.038289	0.053199	0.039724
	H295	H	0.046053	0.060351	0.036975
	H296	H	0.036703	0.052771	0.029144
	O297	O	0.546947	0.444949	0.426363
	H298	H	0.544034	0.443865	0.437746
	H299	H	0.544117	0.447153	0.426457
	O300	O	-0.006482	1.052285	1.020566
	H301	H	-0.015626	1.050439	1.018800
	H302	H	0.003551	1.050251	1.022266
	O303	O	0.487851	0.489977	0.509291
	H304	H	0.503078	0.488971	0.510126
	H305	H	0.490933	0.494050	0.501193
	O306	O	0.048424	0.080471	1.028268
	H307	H	0.045770	0.081201	1.041315
	H308	H	0.058880	0.084415	1.026254
	O309	O	0.964513	1.070330	1.061933
	H310	H	0.957608	1.070266	1.057111
	H311	H	0.964098	1.076689	1.057162
	O312	O	0.542009	0.465236	0.476666
	H313	H	0.538216	0.473011	0.480715
	H314	H	0.544175	0.467945	0.493801
	O315	O	0.517149	0.485437	0.479849
	H316	H	0.522707	0.480486	0.466147
	H317	H	0.519516	0.481335	0.482403
	O318	O	0.080470	1.045415	0.022924
	H319	H	0.077571	1.051875	0.027652
	H320	H	0.084296	1.043527	0.030740
	O321	O	1.038598	1.052572	0.034043
	H322	H	1.037699	1.064473	0.035683
	H323	H	1.035886	1.053957	0.032933
