data_Molecule from HDF5

_cell_length_a		16.338240
_cell_length_b		16.238407
_cell_length_c		16.242685
_cell_angle_alpha	89.709941
_cell_angle_beta	90.291402
_cell_angle_gamma	89.551958
_symmetry_space_group_name_H-M	'P 1'
_symmetry_Int_Tables_number		1

loop_
	_symmetry_equiv_pos_as_xyz
	x,y,z

loop_
	_atom_site_label
	_atom_site_type_symbol
	_atom_site_fract_x
	_atom_site_fract_y
	_atom_site_fract_z
	H0	H	0.406785	0.845666	0.718509
	H1	H	0.599523	0.174260	0.716295
	H2	H	0.600334	0.845388	0.291089
	H3	H	0.400011	0.172542	0.286736
	H4	H	0.717422	0.409138	0.839937
	H5	H	0.717516	0.608896	0.165770
	H6	H	0.285005	0.612325	0.839322
	H7	H	0.286515	0.409967	0.166675
	H8	H	0.839741	0.727515	0.401075
	H9	H	0.165651	0.721924	0.600688
	H10	H	0.838535	0.294515	0.601423
	H11	H	0.165094	0.293565	0.404636
	H12	H	0.838335	0.412102	0.717262
	H13	H	0.164915	0.607171	0.717957
	H14	H	0.839081	0.610924	0.285989
	H15	H	0.164998	0.410757	0.289192
	H16	H	0.401807	0.727019	0.840261
	H17	H	0.598399	0.719738	0.168338
	H18	H	0.598854	0.297158	0.838895
	H19	H	0.404340	0.295811	0.167335
	H20	H	0.719198	0.846762	0.403021
	H21	H	0.717965	0.172956	0.603245
	H22	H	0.289981	0.845401	0.602979
	H23	H	0.284501	0.172529	0.401859
	H24	H	0.903540	0.346319	0.217537
	H25	H	0.099260	0.673692	0.216490
	H26	H	0.099882	0.345703	0.791322
	H27	H	0.900693	0.675018	0.785879
	H28	H	0.218589	0.907293	0.339885
	H29	H	0.217539	0.106239	0.665820
	H30	H	0.783294	0.112470	0.339502
	H31	H	0.789187	0.908973	0.666641
	H32	H	0.338912	0.226945	0.902670
	H33	H	0.664659	0.223430	0.103738
	H34	H	0.338549	0.796115	0.102001
	H35	H	0.665104	0.793580	0.907279
	H36	H	0.338821	0.911674	0.218063
	H37	H	0.664520	0.106747	0.219389
	H38	H	0.339164	0.110794	0.786718
	H39	H	0.665347	0.910107	0.790759
	H40	H	0.901734	0.225997	0.338694
	H41	H	0.101301	0.221031	0.666721
	H42	H	0.099888	0.796369	0.337792
	H43	H	0.904926	0.793515	0.665888
	H44	H	0.219394	0.348303	0.902274
	H45	H	0.214076	0.674297	0.101918
	H46	H	0.787688	0.346676	0.102392
	H47	H	0.781873	0.674140	0.900077
	H48	H	0.399761	0.129430	0.595776
	H49	H	0.596802	0.893295	0.596725
	H50	H	0.589289	0.128786	0.399175
	H51	H	0.414393	0.893663	0.412316
	H52	H	0.594505	0.420648	0.117660
	H53	H	0.595673	0.593107	0.888352
	H54	H	0.404432	0.609512	0.122621
	H55	H	0.410876	0.414578	0.886407
	H56	H	0.121070	0.602911	0.400745
	H57	H	0.887886	0.597747	0.591827
	H58	H	0.117961	0.411220	0.594798
	H59	H	0.885305	0.414419	0.410810
	H60	H	0.115878	0.418503	0.594845
	H61	H	0.884845	0.603739	0.597643
	H62	H	0.118423	0.608946	0.414753
	H63	H	0.887608	0.421962	0.412078
	H64	H	0.401342	0.597633	0.120534
	H65	H	0.581830	0.602287	0.889153
	H66	H	0.592968	0.411577	0.121352
	H67	H	0.402971	0.419903	0.885618
	H68	H	0.582166	0.120451	0.419930
	H69	H	0.597722	0.893178	0.598232
	H70	H	0.415012	0.126332	0.600960
	H71	H	0.405934	0.892447	0.414710
	H72	H	0.907377	0.626822	0.093014
	H73	H	0.095098	0.393160	0.096738
	H74	H	0.096969	0.628514	0.912159
	H75	H	0.909893	0.394255	0.909462
	H76	H	0.095954	0.917622	0.618332
	H77	H	0.090156	0.102667	0.386460
	H78	H	0.913012	0.096813	0.616666
	H79	H	0.916566	0.917451	0.388230
	H80	H	0.621390	0.111233	0.906407
	H81	H	0.385841	0.103091	0.096856
	H82	H	0.622482	0.910175	0.106643
	H83	H	0.388044	0.920103	0.915228
	H84	H	0.616688	0.909159	0.090658
	H85	H	0.386768	0.104415	0.092955
	H86	H	0.615940	0.104062	0.920214
	H87	H	0.386657	0.921917	0.906131
	H88	H	0.912171	0.105488	0.619058
	H89	H	0.096381	0.103748	0.384222
	H90	H	0.094656	0.912568	0.619644
	H91	H	0.903414	0.913401	0.382309
	H92	H	0.092219	0.628461	0.904552
	H93	H	0.093718	0.393787	0.094183
	H94	H	0.907935	0.627343	0.092992
	H95	H	0.909088	0.395017	0.911602
	H96	H	0.411061	0.122882	0.585595
	H97	H	0.596811	0.892635	0.597788
	H98	H	0.604595	0.127638	0.416934
	H99	H	0.407741	0.891040	0.406279
	H100	H	0.601456	0.415319	0.121742
	H101	H	0.595667	0.609604	0.883466
	H102	H	0.412772	0.601285	0.118479
	H103	H	0.411652	0.423762	0.888868
	H104	H	0.115311	0.594189	0.411835
	H105	H	0.886690	0.605320	0.588860
	H106	H	0.118356	0.414917	0.601967
	H107	H	0.885650	0.419650	0.405486
	H108	H	0.907441	0.626746	0.093211
	H109	H	0.096726	0.393855	0.094042
	H110	H	0.087780	0.626079	0.911640
	H111	H	0.907595	0.394556	0.910050
	H112	H	0.099407	0.914609	0.620120
	H113	H	0.094580	0.097384	0.386485
	H114	H	0.905546	0.100503	0.619459
	H115	H	0.905737	0.926654	0.387549
	H116	H	0.616691	0.095418	0.906208
	H117	H	0.387011	0.099918	0.093653
	H118	H	0.615791	0.923855	0.098684
	H119	H	0.384218	0.914068	0.909973
	C120	C	0.381269	0.017864	0.624069
	C121	C	0.624811	1.001394	0.625769
	C122	C	0.622139	0.017632	0.383031
	C123	C	0.379569	1.000751	0.381396
	C124	C	0.623947	0.387612	0.011721
	C125	C	0.620977	0.629785	0.994822
	C126	C	0.378044	0.632828	0.012069
	C127	C	0.380345	0.389764	0.995135
	C128	C	0.010533	0.631794	0.379674
	C129	C	0.994031	0.630427	0.622873
	C130	C	0.009981	0.386977	0.625617
	C131	C	0.993651	0.389010	0.381217
	C132	C	0.879923	0.518676	0.123066
	C133	C	0.123061	0.501715	0.124112
	C134	C	0.122089	0.519208	0.881265
	C135	C	0.878764	0.502638	0.880169
	C136	C	0.124806	0.886680	0.510960
	C137	C	0.123037	0.129387	0.494069
	C138	C	0.879720	0.131563	0.510713
	C139	C	0.880918	0.889090	0.493915
	C140	C	0.510256	0.132502	0.881306
	C141	C	0.493436	0.131201	0.124866
	C142	C	0.510325	0.886845	0.126685
	C143	C	0.494023	0.888812	0.882431
	C144	C	0.385499	0.894589	0.680448
	C145	C	0.621052	0.124952	0.679539
	C146	C	0.620641	0.894468	0.328400
	C147	C	0.380122	0.123741	0.324892
	C148	C	0.679025	0.389732	0.888777
	C149	C	0.678198	0.627886	0.117490
	C150	C	0.322793	0.632019	0.888661
	C151	C	0.324568	0.390462	0.117753
	C152	C	0.888257	0.689059	0.380826
	C153	C	0.116797	0.684540	0.621263
	C154	C	0.887297	0.332207	0.622557
	C155	C	0.116415	0.332153	0.384123
	C156	C	0.887058	0.390559	0.680057
	C157	C	0.116495	0.627052	0.679090
	C158	C	0.887981	0.630874	0.323814
	C159	C	0.116517	0.390494	0.326848
	C160	C	0.380687	0.688977	0.888997
	C161	C	0.619262	0.683208	0.118886
	C162	C	0.620284	0.333657	0.888281
	C163	C	0.383142	0.333605	0.118334
	C164	C	0.679543	0.895103	0.384278
	C165	C	0.679520	0.124476	0.623085
	C166	C	0.327513	0.894390	0.623032
	C167	C	0.322941	0.123847	0.382484
	C168	C	0.882917	0.395520	0.179680
	C169	C	0.119869	0.624908	0.178970
	C170	C	0.120010	0.395290	0.827988
	C171	C	0.880001	0.625893	0.823556
	C172	C	0.179905	0.888659	0.388154
	C173	C	0.179011	0.126824	0.617146
	C174	C	0.822325	0.131335	0.388188
	C175	C	0.826647	0.889347	0.617440
	C176	C	0.387575	0.188566	0.882627
	C177	C	0.615899	0.186106	0.123787
	C178	C	0.387392	0.833067	0.123429
	C179	C	0.616445	0.831794	0.885953
	C180	C	0.387527	0.890706	0.180773
	C181	C	0.615948	0.128011	0.181395
	C182	C	0.387768	0.130606	0.825073
	C183	C	0.616693	0.889957	0.828116
	C184	C	0.881047	0.187945	0.387602
	C185	C	0.121144	0.183793	0.617403
	C186	C	0.121089	0.832980	0.387307
	C187	C	0.884156	0.831904	0.617050
	C188	C	0.179882	0.396744	0.882972
	C189	C	0.177177	0.625090	0.121921
	C190	C	0.825317	0.395613	0.122295
	C191	C	0.821127	0.625522	0.880437
	C192	C	0.402457	0.103788	0.600960
	C193	C	0.603284	0.915244	0.603933
	C194	C	0.598799	0.103448	0.405544
	C195	C	0.402657	0.914544	0.404407
	C196	C	0.602492	0.409402	0.098002
	C197	C	0.597804	0.607955	0.908993
	C198	C	0.399699	0.609727	0.098298
	C199	C	0.402205	0.412620	0.909169
	C200	C	0.096180	0.608892	0.402397
	C201	C	0.908587	0.608499	0.599612
	C202	C	0.095229	0.408508	0.603553
	C203	C	0.908387	0.411968	0.403012
	C204	C	0.901350	0.604680	0.099799
	C205	C	0.101521	0.415779	0.101741
	C206	C	0.099086	0.605313	0.903010
	C207	C	0.902041	0.416988	0.903596
	C208	C	0.103169	0.908504	0.597074
	C209	C	0.100501	0.107499	0.407972
	C210	C	0.903324	0.107901	0.596207
	C211	C	0.902277	0.912298	0.408220
	C212	C	0.595807	0.110117	0.904165
	C213	C	0.408458	0.109139	0.101386
	C214	C	0.596007	0.908203	0.105009
	C215	C	0.408383	0.911986	0.904190
	Zn216	Zn	0.502538	0.010274	0.753173
	Zn217	Zn	0.501722	0.009353	0.254314
	Zn218	Zn	0.750685	0.510389	0.002428
	Zn219	Zn	0.250488	0.511116	0.002758
	Zn220	Zn	0.002718	0.760165	0.501888
	Zn221	Zn	0.001962	0.258755	0.502759
	Zn222	Zn	0.001258	0.510225	0.753162
	Zn223	Zn	0.001584	0.510088	0.251475
	Zn224	Zn	0.501682	0.759237	0.004535
	Zn225	Zn	0.501684	0.260575	0.003484
	Zn226	Zn	0.751686	0.009685	0.503064
	Zn227	Zn	0.251989	0.008213	0.502494
	N228	N	0.418337	0.972338	0.681028
	N229	N	0.587709	0.047526	0.681137
	N230	N	0.585571	0.971699	0.327777
	N231	N	0.414672	0.046266	0.324309
	N232	N	0.681572	0.422285	0.966696
	N233	N	0.679207	0.595263	0.039382
	N234	N	0.321096	0.597722	0.966237
	N235	N	0.322725	0.424818	0.040154
	N236	N	0.965503	0.689880	0.414897
	N237	N	0.039646	0.686704	0.586818
	N238	N	0.964706	0.329611	0.589765
	N239	N	0.039192	0.331118	0.417435
	N240	N	0.964202	0.423772	0.682207
	N241	N	0.038913	0.594392	0.680310
	N242	N	0.964887	0.595919	0.323180
	N243	N	0.039378	0.424972	0.324704
	N244	N	0.414191	0.689728	0.966797
	N245	N	0.583989	0.684347	0.041747
	N246	N	0.586870	0.332085	0.965839
	N247	N	0.416983	0.333091	0.041002
	N248	N	0.680311	0.972799	0.417759
	N249	N	0.682041	0.046414	0.590477
	N250	N	0.324473	0.972048	0.589055
	N251	N	0.322584	0.046156	0.416878
	N252	N	0.916220	0.473107	0.180213
	N253	N	0.086748	0.547323	0.180241
	N254	N	0.084817	0.472530	0.826937
	N255	N	0.915032	0.548573	0.823295
	N256	N	0.182249	0.921245	0.466247
	N257	N	0.180201	0.093634	0.539535
	N258	N	0.821392	0.097076	0.465953
	N259	N	0.824594	0.924081	0.540072
	N260	N	0.464697	0.189830	0.917034
	N261	N	0.538843	0.188061	0.089112
	N262	N	0.464803	0.830533	0.090497
	N263	N	0.539110	0.831008	0.918974
	N264	N	0.464943	0.923436	0.182885
	N265	N	0.538908	0.094606	0.182269
	N266	N	0.465063	0.096458	0.824239
	N267	N	0.539573	0.924506	0.825841
	N268	N	0.915842	0.188320	0.464746
	N269	N	0.087076	0.185655	0.539652
	N270	N	0.087471	0.831689	0.464708
	N271	N	0.917536	0.831602	0.539369
	N272	N	0.181049	0.474820	0.915524
	N273	N	0.179131	0.547494	0.088444
	N274	N	0.823453	0.473065	0.087709
	N275	N	0.820252	0.547790	0.914831
	O276	O	0.035403	-0.022061	0.086213
	H277	H	0.046233	-0.028611	0.084201
	H278	H	0.039172	-0.028373	0.091261
	O279	O	0.545082	0.491408	0.512499
	H280	H	0.549565	0.492294	0.516050
	H281	H	0.557811	0.486269	0.510734
	O282	O	0.491410	0.503858	0.541943
	H283	H	0.496805	0.503593	0.537938
	H284	H	0.484380	0.497009	0.541646
	O285	O	0.936578	0.123645	0.900047
	H286	H	0.925370	0.130079	0.887046
	H287	H	0.930173	0.128400	0.913082
	O288	O	0.925883	-0.010167	-0.041690
	H289	H	0.935907	-0.015704	-0.030138
	H290	H	0.925565	0.001149	-0.047571
	O291	O	0.489129	0.577146	0.462906
	H292	H	0.492803	0.576927	0.464929
	H293	H	0.480493	0.589523	0.456679
	O294	O	1.022633	0.038802	1.015565
	H295	H	1.017624	0.033006	1.010750
	H296	H	1.031509	0.051008	1.015515
	O297	O	0.078130	0.076000	0.026272
	H298	H	0.073779	0.087620	0.033044
	H299	H	0.074059	0.084744	0.017092
	O300	O	1.063461	-0.031948	0.014603
	H301	H	1.078771	-0.036046	0.006550
	H302	H	1.061644	-0.034930	0.016443
	O303	O	0.513117	0.541288	0.535500
	H304	H	0.506430	0.549536	0.538139
	H305	H	0.505330	0.545774	0.533864
	O306	O	0.931310	0.063374	-0.090192
	H307	H	0.929439	0.058381	-0.070774
	H308	H	0.928958	0.058959	-0.088055
	O309	O	0.031869	-0.008543	1.046641
	H310	H	0.036026	-0.018677	1.038101
	H311	H	0.033003	-0.002214	1.049435
	O312	O	0.995928	1.024544	0.924746
	H313	H	0.994070	1.036248	0.914163
	H314	H	1.011146	1.029457	0.927078
	O315	O	0.505711	0.467478	0.569598
	H316	H	0.504038	0.472208	0.558648
	H317	H	0.499057	0.469528	0.565939
	O318	O	-0.005564	0.053488	-0.042636
	H319	H	-0.004967	0.056058	-0.041297
	H320	H	0.000000	0.035418	-0.044057
	O321	O	0.016070	1.048395	0.977673
	H322	H	0.007579	1.064432	0.971576
	H323	H	0.013611	1.060201	0.981156
	O324	O	0.483627	0.430089	0.565712
	H325	H	0.489895	0.424524	0.568636
	H326	H	0.473158	0.431001	0.570530
	O327	O	0.598862	0.508061	0.414990
	H328	H	0.604673	0.518413	0.413823
	H329	H	0.598023	0.523301	0.413413
	O330	O	0.542087	0.529046	0.462434
	H331	H	0.550375	0.534700	0.471869
	H332	H	0.536891	0.531300	0.465524
	O333	O	0.477411	0.554636	0.439814
	H334	H	0.484990	0.552815	0.434562
	H335	H	0.471491	0.548422	0.441769
	O336	O	0.499558	0.570668	0.534980
	H337	H	0.498701	0.569674	0.534300
	H338	H	0.497774	0.567126	0.532549
	O339	O	0.998330	1.109198	-0.051718
	H340	H	0.993943	1.109808	-0.048764
	H341	H	0.995621	1.112927	-0.065093
	O342	O	0.474782	0.459215	0.534739
	H343	H	0.475013	0.450737	0.540513
	H344	H	0.467207	0.460248	0.524965
	O345	O	0.798989	0.196091	0.777430
	H346	H	0.802324	0.191192	0.764320
	H347	H	0.804155	0.199142	0.772788
	O348	O	0.006292	-0.018427	0.039868
	H349	H	0.008010	-0.027410	0.048153
	H350	H	0.014034	-0.018083	0.046126
	O351	O	0.017269	1.033304	0.906154
	H352	H	0.022423	1.039873	0.901063
	H353	H	-0.002151	1.035624	0.907103
	O354	O	0.575398	0.554099	0.506232
	H355	H	0.576880	0.542134	0.509816
	H356	H	0.572797	0.563033	0.519094
	O357	O	0.058532	0.972985	0.936935
	H358	H	0.055255	0.962264	0.923535
	H359	H	0.050742	0.980435	0.927206
