data_Molecule from HDF5

_cell_length_a		16.587188
_cell_length_b		16.459512
_cell_length_c		16.609041
_cell_angle_alpha	89.929960
_cell_angle_beta	90.065692
_cell_angle_gamma	90.064624
_symmetry_space_group_name_H-M	'P 1'
_symmetry_Int_Tables_number		1

loop_
	_symmetry_equiv_pos_as_xyz
	x,y,z

loop_
	_atom_site_label
	_atom_site_type_symbol
	_atom_site_fract_x
	_atom_site_fract_y
	_atom_site_fract_z
	H0	H	0.398024	0.857824	0.699537
	H1	H	0.606438	0.173455	0.700577
	H2	H	0.603447	0.857864	0.261055
	H3	H	0.396998	0.174248	0.260498
	H4	H	0.725281	0.406872	0.825173
	H5	H	0.724036	0.620728	0.135421
	H6	H	0.278586	0.621251	0.825321
	H7	H	0.277020	0.407545	0.136528
	H8	H	0.845205	0.737166	0.373339
	H9	H	0.157095	0.737412	0.583602
	H10	H	0.844258	0.293809	0.584295
	H11	H	0.156868	0.291277	0.372735
	H12	H	0.845256	0.407650	0.702474
	H13	H	0.157136	0.622232	0.701574
	H14	H	0.847153	0.623497	0.254862
	H15	H	0.156738	0.405748	0.255612
	H16	H	0.396318	0.737073	0.825887
	H17	H	0.604043	0.733501	0.138405
	H18	H	0.607218	0.292612	0.824731
	H19	H	0.396010	0.294249	0.137662
	H20	H	0.719793	0.857154	0.376946
	H21	H	0.720333	0.173754	0.583251
	H22	H	0.282037	0.857764	0.582739
	H23	H	0.280957	0.174292	0.376188
	H24	H	0.896201	0.358867	0.201153
	H25	H	0.110125	0.671001	0.204245
	H26	H	0.107268	0.358311	0.757891
	H27	H	0.896696	0.673833	0.758865
	H28	H	0.224874	0.907006	0.324486
	H29	H	0.222868	0.120042	0.636977
	H30	H	0.780759	0.119798	0.324447
	H31	H	0.780538	0.909767	0.637193
	H32	H	0.343094	0.236411	0.876429
	H33	H	0.656711	0.236183	0.083506
	H34	H	0.343976	0.792605	0.086386
	H35	H	0.656359	0.793451	0.876375
	H36	H	0.343995	0.907340	0.203637
	H37	H	0.656169	0.120982	0.201834
	H38	H	0.344713	0.123116	0.757054
	H39	H	0.656038	0.908305	0.758643
	H40	H	0.899073	0.234214	0.323535
	H41	H	0.105775	0.235991	0.637118
	H42	H	0.105846	0.793195	0.323977
	H43	H	0.897890	0.795093	0.636801
	H44	H	0.221913	0.357791	0.875031
	H45	H	0.222603	0.672575	0.086001
	H46	H	0.781167	0.358089	0.083523
	H47	H	0.778998	0.672810	0.872458
	H48	H	0.415626	0.130731	0.574675
	H49	H	0.594495	0.902238	0.567229
	H50	H	0.588180	0.129311	0.385210
	H51	H	0.410850	0.901418	0.388716
	H52	H	0.590788	0.430850	0.090205
	H53	H	0.590181	0.610399	0.866337
	H54	H	0.411990	0.602547	0.092540
	H55	H	0.410984	0.432817	0.871706
	H56	H	0.109753	0.597481	0.394434
	H57	H	0.888517	0.604494	0.571579
	H58	H	0.113172	0.427640	0.569813
	H59	H	0.886443	0.420216	0.386546
	H60	H	0.112652	0.426039	0.569839
	H61	H	0.889125	0.605883	0.568483
	H62	H	0.114426	0.603117	0.386865
	H63	H	0.892954	0.426095	0.398222
	H64	H	0.410586	0.603784	0.093160
	H65	H	0.594475	0.601317	0.867845
	H66	H	0.587524	0.426645	0.090542
	H67	H	0.416159	0.423325	0.869737
	H68	H	0.587184	0.126191	0.394925
	H69	H	0.590522	0.900882	0.576246
	H70	H	0.414800	0.126486	0.564320
	H71	H	0.416317	0.904852	0.392255
	H72	H	0.916722	0.627636	0.068674
	H73	H	0.080801	0.408249	0.062417
	H74	H	0.091150	0.627169	0.892473
	H75	H	0.905274	0.402163	0.896227
	H76	H	0.089812	0.922321	0.592528
	H77	H	0.088424	0.104457	0.369261
	H78	H	0.912219	0.103474	0.592648
	H79	H	0.908232	0.927909	0.368209
	H80	H	0.611182	0.100312	0.889415
	H81	H	0.387016	0.101542	0.075068
	H82	H	0.610435	0.931278	0.071225
	H83	H	0.389145	0.925440	0.895108
	H84	H	0.613881	0.925109	0.076726
	H85	H	0.387214	0.109249	0.067871
	H86	H	0.613925	0.107025	0.889300
	H87	H	0.390715	0.931887	0.892866
	H88	H	0.910961	0.106467	0.593901
	H89	H	0.092831	0.105031	0.367797
	H90	H	0.096041	0.931806	0.590985
	H91	H	0.911591	0.926400	0.368454
	H92	H	0.091063	0.629257	0.889857
	H93	H	0.096960	0.401864	0.063487
	H94	H	0.912586	0.628027	0.065112
	H95	H	0.913059	0.400787	0.881391
	H96	H	0.405992	0.131080	0.569190
	H97	H	0.584952	0.904132	0.568542
	H98	H	0.595805	0.130051	0.391847
	H99	H	0.409734	0.903816	0.395241
	H100	H	0.592611	0.426583	0.092400
	H101	H	0.585113	0.603129	0.870982
	H102	H	0.410354	0.601716	0.093304
	H103	H	0.405589	0.424796	0.866565
	H104	H	0.112995	0.607600	0.396248
	H105	H	0.889927	0.602857	0.568551
	H106	H	0.112506	0.426998	0.568668
	H107	H	0.891501	0.434044	0.386277
	H108	H	0.911932	0.629838	0.070097
	H109	H	0.086602	0.400333	0.077485
	H110	H	0.087887	0.627191	0.890318
	H111	H	0.920680	0.407499	0.894653
	H112	H	0.085227	0.930888	0.587130
	H113	H	0.091558	0.101601	0.369472
	H114	H	0.908619	0.103622	0.593601
	H115	H	0.908980	0.924713	0.367121
	H116	H	0.610299	0.104399	0.895505
	H117	H	0.391203	0.099220	0.065332
	H118	H	0.611712	0.922830	0.067714
	H119	H	0.387453	0.927119	0.888563
	C120	C	0.380342	0.024684	0.600986
	C121	C	0.622292	1.006945	0.602018
	C122	C	0.621771	0.024185	0.359301
	C123	C	0.379773	1.007617	0.359575
	C124	C	0.622758	0.394576	-0.011812
	C125	C	0.622336	0.636733	0.971773
	C126	C	0.379234	0.635894	-0.010194
	C127	C	0.378669	0.394237	0.972592
	C128	C	0.009750	0.636385	0.358623
	C129	C	0.992708	0.636766	0.601160
	C130	C	0.009398	0.393903	0.601498
	C131	C	0.993197	0.393692	0.358191
	C132	C	0.881164	0.524248	0.100379
	C133	C	0.122000	0.506851	0.101184
	C134	C	0.122623	0.524185	0.858213
	C135	C	0.880053	0.507201	0.858034
	C136	C	0.122652	0.894556	0.487642
	C137	C	0.123188	0.137011	0.471869
	C138	C	0.879711	0.136143	0.489346
	C139	C	0.878873	0.894217	0.471615
	C140	C	0.508883	0.137322	0.858936
	C141	C	0.491568	0.136536	0.101743
	C142	C	0.508664	0.893125	0.103857
	C143	C	0.492000	0.894693	0.859791
	C144	C	0.378959	0.905368	0.660092
	C145	C	0.624600	0.125853	0.661016
	C146	C	0.622793	0.905213	0.300309
	C147	C	0.378364	0.126951	0.300250
	C148	C	0.684095	0.390230	0.871675
	C149	C	0.683374	0.639064	0.088988
	C150	C	0.319007	0.639291	0.872274
	C151	C	0.317900	0.390410	0.089833
	C152	C	0.892257	0.697054	0.355222
	C153	C	0.110191	0.697144	0.602543
	C154	C	0.891578	0.333541	0.603005
	C155	C	0.110289	0.332142	0.355131
	C156	C	0.891928	0.390544	0.661618
	C157	C	0.110185	0.639722	0.661110
	C158	C	0.893310	0.640318	0.296456
	C159	C	0.110046	0.389177	0.296569
	C160	C	0.377484	0.696648	0.872315
	C161	C	0.623349	0.694828	0.090433
	C162	C	0.625560	0.332837	0.871634
	C163	C	0.376971	0.333797	0.090371
	C164	C	0.680484	0.904954	0.358126
	C165	C	0.681295	0.126011	0.602634
	C166	C	0.321157	0.905540	0.602327
	C167	C	0.320611	0.126732	0.357673
	C168	C	0.878329	0.405774	0.160387
	C169	C	0.126935	0.624304	0.163227
	C170	C	0.125366	0.405772	0.797782
	C171	C	0.877779	0.626053	0.797848
	C172	C	0.183681	0.890255	0.370818
	C173	C	0.182913	0.138840	0.589842
	C174	C	0.820510	0.138265	0.371502
	C175	C	0.820185	0.891603	0.589847
	C176	C	0.390597	0.197232	0.857243
	C177	C	0.609589	0.196640	0.103014
	C178	C	0.391170	0.832219	0.105668
	C179	C	0.609394	0.833740	0.857806
	C180	C	0.391203	0.889761	0.163494
	C181	C	0.609320	0.139320	0.161594
	C182	C	0.391337	0.140864	0.797996
	C183	C	0.609291	0.891195	0.799395
	C184	C	0.879655	0.194840	0.370854
	C185	C	0.124686	0.196375	0.590014
	C186	C	0.124449	0.833609	0.370522
	C187	C	0.878420	0.834534	0.589648
	C188	C	0.182205	0.405384	0.856424
	C189	C	0.183018	0.625012	0.104411
	C190	C	0.821120	0.405539	0.102063
	C191	C	0.819577	0.625672	0.854752
	C192	C	0.405191	0.107857	0.576387
	C193	C	0.597065	0.924067	0.577613
	C194	C	0.597601	0.106919	0.383847
	C195	C	0.405114	0.924915	0.384656
	C196	C	0.597514	0.420759	0.069732
	C197	C	0.597055	0.612065	0.889737
	C198	C	0.403989	0.610162	0.071675
	C199	C	0.403649	0.419821	0.890709
	C200	C	0.091203	0.610261	0.385032
	C201	C	0.910564	0.611532	0.576650
	C202	C	0.091368	0.419697	0.576441
	C203	C	0.911665	0.419466	0.383390
	C204	C	0.906478	0.606920	0.075118
	C205	C	0.095628	0.424932	0.075231
	C206	C	0.097289	0.606363	0.883472
	C207	C	0.905629	0.424975	0.883397
	C208	C	0.097463	0.920753	0.569152
	C209	C	0.098127	0.111267	0.389984
	C210	C	0.903803	0.111485	0.571960
	C211	C	0.902727	0.919113	0.389345
	C212	C	0.590434	0.111399	0.884294
	C213	C	0.409795	0.110674	0.076645
	C214	C	0.590733	0.918959	0.078898
	C215	C	0.410344	0.920647	0.885022
	Zn216	Zn	0.500786	0.016243	0.730116
	Zn217	Zn	0.499934	0.015598	0.231216
	Zn218	Zn	0.752410	0.516032	-0.020469
	Zn219	Zn	0.249996	0.515197	-0.019365
	Zn220	Zn	0.000679	0.765814	0.479310
	Zn221	Zn	0.001351	0.265154	0.480319
	Zn222	Zn	0.000856	0.515269	0.730066
	Zn223	Zn	0.001974	0.515276	0.229782
	Zn224	Zn	0.500113	0.765715	-0.018385
	Zn225	Zn	0.500210	0.265539	-0.019313
	Zn226	Zn	0.750307	0.015089	0.481082
	Zn227	Zn	0.251646	0.015871	0.479546
	N228	N	0.414738	0.980701	0.659634
	N229	N	0.588794	0.050538	0.661241
	N230	N	0.587249	0.980471	0.300549
	N231	N	0.414159	0.051566	0.301071
	N232	N	0.682570	0.427910	0.945356
	N233	N	0.683155	0.603905	0.014092
	N234	N	0.319961	0.602243	0.946338
	N235	N	0.318343	0.426787	0.015416
	N236	N	0.965599	0.694462	0.393441
	N237	N	0.036030	0.695513	0.565920
	N238	N	0.965772	0.335541	0.566229
	N239	N	0.036652	0.334701	0.392777
	N240	N	0.966160	0.427434	0.660879
	N241	N	0.036029	0.602989	0.660371
	N242	N	0.967448	0.603311	0.298319
	N243	N	0.036318	0.427005	0.298413
	N244	N	0.414161	0.694645	0.946328
	N245	N	0.586105	0.693732	0.016507
	N246	N	0.587849	0.335464	0.945136
	N247	N	0.414138	0.336110	0.016467
	N248	N	0.680354	0.980113	0.393777
	N249	N	0.680068	0.050960	0.566943
	N250	N	0.321802	0.980809	0.566428
	N251	N	0.321332	0.051554	0.393654
	N252	N	0.914877	0.480726	0.159475
	N253	N	0.089840	0.549574	0.161575
	N254	N	0.089165	0.480856	0.798478
	N255	N	0.914406	0.551219	0.799443
	N256	N	0.182768	0.927350	0.444805
	N257	N	0.182244	0.102845	0.515292
	N258	N	0.820253	0.102723	0.446293
	N259	N	0.820022	0.927647	0.515330
	N260	N	0.464836	0.195494	0.894213
	N261	N	0.535389	0.195063	0.066607
	N262	N	0.465444	0.834012	0.069383
	N263	N	0.535444	0.835835	0.894916
	N264	N	0.465422	0.926850	0.162652
	N265	N	0.534840	0.102744	0.160979
	N266	N	0.465687	0.104274	0.798869
	N267	N	0.535280	0.928596	0.800464
	N268	N	0.915805	0.193743	0.445286
	N269	N	0.088715	0.195650	0.515465
	N270	N	0.087164	0.836225	0.444120
	N271	N	0.914322	0.835863	0.515161
	N272	N	0.180911	0.480160	0.892990
	N273	N	0.180112	0.550973	0.066604
	N274	N	0.822775	0.480512	0.065509
	N275	N	0.820572	0.550778	0.891245
	O276	O	0.795293	1.221282	-0.051955
	H277	H	0.790785	1.213565	-0.034322
	H278	H	0.786538	1.216880	-0.033278
	O279	O	0.214363	-0.021256	0.767566
	H280	H	0.221818	-0.006317	0.751004
	H281	H	0.218905	-0.011590	0.782158
	O282	O	0.537122	0.310503	0.267787
	H283	H	0.537558	0.290420	0.244425
	H284	H	0.560686	0.311421	0.280062
	O285	O	0.452582	0.734401	0.531690
	H286	H	0.447507	0.738706	0.519905
	H287	H	0.460978	0.724082	0.538881
	O288	O	1.438768	-0.428557	0.706995
	H289	H	1.410135	-0.453839	0.708941
	H290	H	1.451436	-0.457705	0.700090
	O291	O	0.785226	0.830796	0.786125
	H292	H	0.758854	0.827222	0.790695
	H293	H	0.789958	0.829820	0.755972
	O294	O	-0.115065	-0.163026	-0.125304
	H295	H	-0.084160	-0.174555	-0.110374
	H296	H	-0.120307	-0.166787	-0.151449
	O297	O	0.793928	0.121400	0.081864
	H298	H	0.786497	0.099141	0.098447
	H299	H	0.813491	0.100061	0.068914
	O300	O	0.409460	0.638561	0.299955
	H301	H	0.415132	0.641787	0.286150
	H302	H	0.416049	0.625597	0.295417
	O303	O	-0.497394	-0.517464	-0.436704
	H304	H	-0.492927	-0.515948	-0.443881
	H305	H	-0.499423	-0.519876	-0.452266
	O306	O	0.795189	-0.187163	0.185521
	H307	H	0.811229	-0.205671	0.203141
	H308	H	0.799026	-0.194529	0.143358
	O309	O	0.689540	0.657895	0.588924
	H310	H	0.687910	0.635871	0.593161
	H311	H	0.664007	0.656825	0.572069
	O312	O	0.024281	0.815677	0.774114
	H313	H	0.061255	0.813251	0.766619
	H314	H	0.037659	0.809581	0.753452
	O315	O	0.573428	0.452380	0.652629
	H316	H	0.571911	0.461464	0.646536
	H317	H	0.584592	0.459993	0.639725
	O318	O	0.709240	0.306985	0.440893
	H319	H	0.714602	0.303658	0.460104
	H320	H	0.712390	0.307675	0.441443
	O321	O	0.165215	0.944331	0.965374
	H322	H	0.174723	0.947543	0.953164
	H323	H	0.161677	0.945200	0.945614
	O324	O	0.983295	0.225012	0.770718
	H325	H	0.977369	0.245252	0.760737
	H326	H	0.955757	0.209937	0.775102
	O327	O	0.571393	0.640378	0.431575
	H328	H	0.565497	0.630123	0.435489
	H329	H	0.567727	0.641110	0.443712
	O330	O	1.307220	1.322417	-0.329064
	H331	H	1.302700	1.370082	-0.321844
	H332	H	1.332745	1.304724	-0.310290
	O333	O	0.956728	0.214975	0.984100
	H334	H	0.949532	0.213769	0.994689
	H335	H	0.951467	0.201827	0.995795
	O336	O	0.160421	1.148156	-0.178150
	H337	H	0.156303	1.162038	-0.175598
	H338	H	0.167006	1.131083	-0.171462
	O339	O	0.601619	0.515502	0.319073
	H340	H	0.615140	0.497000	0.301238
	H341	H	0.597578	0.516885	0.311001
	O342	O	-0.472187	0.718044	0.684567
	H343	H	-0.488791	0.722012	0.687321
	H344	H	-0.492151	0.693596	0.694431
	O345	O	0.798585	0.219923	0.778677
	H346	H	0.796795	0.187539	0.790072
	H347	H	0.800136	0.231018	0.806793
	O348	O	0.418312	0.376238	0.339948
	H349	H	0.432537	0.353748	0.337910
	H350	H	0.403300	0.366331	0.362681
	O351	O	-0.022774	-0.028974	1.071166
	H352	H	-0.016542	-0.030922	1.055356
	H353	H	-0.014567	-0.031593	1.070825
	O354	O	1.010063	0.213265	1.159268
	H355	H	1.011356	0.223711	1.190649
	H356	H	1.010071	0.187818	1.147482
	O357	O	0.617491	0.603602	0.318071
	H358	H	0.620650	0.581060	0.329975
	H359	H	0.608937	0.593437	0.321533
	O360	O	0.688192	0.480527	0.562592
	H361	H	0.700673	0.475863	0.566901
	H362	H	0.681090	0.507683	0.554273
	O363	O	0.210745	0.807227	0.771813
	H364	H	0.230528	0.814955	0.764055
	H365	H	0.234134	0.812197	0.748381
	O366	O	0.470887	0.306303	1.689376
	H367	H	0.476414	0.327364	1.690570
	H368	H	0.478049	0.285941	1.711571
	O369	O	0.211112	-0.197844	0.947195
	H370	H	0.225984	-0.209926	0.924374
	H371	H	0.217910	-0.195272	0.936078
	O372	O	-0.147152	1.156739	1.180476
	H373	H	-0.140320	1.129972	1.172624
	H374	H	-0.135052	1.137583	1.176235
	O375	O	1.215715	0.039820	0.196172
	H376	H	1.216451	0.047379	0.209201
	H377	H	1.231747	0.029137	0.190683
	O378	O	0.291832	0.719769	0.464009
	H379	H	0.298373	0.741060	0.456713
	H380	H	0.290755	0.721993	0.422638
	O381	O	0.121383	0.927074	-0.014516
	H382	H	0.121658	0.935363	-0.015842
	H383	H	0.124039	0.935838	-0.001589
	O384	O	0.312898	0.704522	0.670828
	H385	H	0.326096	0.683754	0.648372
	H386	H	0.334475	0.687675	0.653665
	O387	O	0.193891	1.209366	1.172213
	H388	H	0.169866	1.210527	1.182421
	H389	H	0.202056	1.184903	1.152485
	O390	O	-0.217381	1.044178	0.771699
	H391	H	-0.239330	1.038530	0.758966
	H392	H	-0.217612	1.041492	0.775968
	O393	O	0.903980	-0.020778	-0.032567
	H394	H	0.900264	-0.010162	-0.030841
	H395	H	0.907015	-0.044172	-0.054532
	O396	O	0.488030	0.356710	0.466259
	H397	H	0.480833	0.342727	0.480122
	H398	H	0.494703	0.355981	0.460502
	O399	O	0.575704	0.366644	0.579788
	H400	H	0.581025	0.358666	0.596637
	H401	H	0.581559	0.376707	0.582088
	O402	O	1.035546	0.061202	1.197648
	H403	H	1.027004	0.046428	1.199091
	H404	H	1.052500	0.064465	1.203075
	O405	O	0.287129	0.294883	0.504259
	H406	H	0.287289	0.293381	0.539141
	H407	H	0.267598	0.269753	0.521704
	O408	O	0.778438	0.986319	1.203023
	H409	H	0.772724	0.954510	1.209910
	H410	H	0.759999	0.963830	1.219356
	O411	O	1.037853	1.057888	-0.218804
	H412	H	1.033072	1.062734	-0.227329
	H413	H	1.018889	1.066349	-0.218712
	O414	O	0.044007	-0.119485	0.163229
	H415	H	0.032851	-0.117650	0.157372
	H416	H	0.054553	-0.129508	0.164449
	O417	O	-0.140368	-0.011095	0.980731
	H418	H	-0.142601	-0.019494	0.972407
	H419	H	-0.144168	-0.034946	0.982133
	O420	O	0.981587	-0.141296	1.200241
	H421	H	0.982795	-0.167965	1.219345
	H422	H	0.991481	-0.138902	1.180030
	O423	O	1.714151	0.526083	0.651823
	H424	H	1.713802	0.532467	0.648177
	H425	H	1.731898	0.536698	0.662088
	O426	O	0.294974	0.562580	0.273436
	H427	H	0.302094	0.549602	0.274143
	H428	H	0.277863	0.552039	0.267658
	O429	O	1.075939	1.215071	-0.067127
	H430	H	1.059838	1.215143	-0.066767
	H431	H	1.064855	1.222084	-0.073260
	O432	O	1.221522	-0.172953	1.154748
	H433	H	1.246271	-0.168474	1.162322
	H434	H	1.216129	-0.184428	1.137073
	O435	O	-0.499196	-0.271200	0.312288
	H436	H	-0.492025	-0.261697	0.294684
	H437	H	-0.482722	-0.275931	0.301686
	O438	O	0.500636	0.572010	0.423740
	H439	H	0.491521	0.556040	0.413486
	H440	H	0.508695	0.564077	0.419648
	O441	O	0.650140	0.560457	0.399550
	H442	H	0.658077	0.585476	0.390355
	H443	H	0.655476	0.554772	0.395774
	O444	O	0.285800	0.473981	0.428735
	H445	H	0.291404	0.477038	0.428939
	H446	H	0.282159	0.441301	0.432445
	O447	O	0.670287	0.410389	0.463041
	H448	H	0.678926	0.393451	0.479998
	H449	H	0.681693	0.409320	0.453926
	O450	O	1.720178	-0.270702	0.509238
	H451	H	1.739094	-0.263378	0.500811
	H452	H	1.714240	-0.259338	0.522858
	O453	O	1.026279	-0.030500	0.820025
	H454	H	1.038621	-0.041807	0.819145
	H455	H	1.019584	-0.041367	0.825747
	O456	O	0.011513	0.821514	0.988063
	H457	H	0.022048	0.823442	0.996386
	H458	H	0.036164	0.821890	0.976587
	O459	O	0.277161	0.542688	0.544442
	H460	H	0.276160	0.568831	0.520552
	H461	H	0.288895	0.534428	0.517540
	O462	O	0.525074	0.483043	0.270311
	H463	H	0.527694	0.457535	0.273884
	H464	H	0.531641	0.475276	0.271188
	O465	O	0.706430	0.310366	0.270437
	H466	H	0.717536	0.296779	0.290903
	H467	H	0.713927	0.288274	0.256810
	O468	O	0.213156	1.228086	0.010521
	H469	H	0.225978	1.244416	0.024233
	H470	H	0.200370	1.243055	0.005600
	O471	O	0.282780	0.487311	0.702452
	H472	H	0.273464	0.504350	0.655762
	H473	H	0.240258	0.484833	0.733359
	O474	O	0.780416	0.798198	0.015888
	H475	H	0.781828	0.778146	0.010891
	H476	H	0.786310	0.780525	0.002090
	O477	O	-0.001909	0.049924	0.927527
	H478	H	-0.000395	0.047398	0.908958
	H479	H	-0.019628	0.051383	0.918365
