data_Molecule from HDF5

_cell_length_a		16.169475
_cell_length_b		16.358787
_cell_length_c		16.313720
_cell_angle_alpha	89.813634
_cell_angle_beta	89.952959
_cell_angle_gamma	90.009336
_symmetry_space_group_name_H-M	'P 1'
_symmetry_Int_Tables_number		1

loop_
	_symmetry_equiv_pos_as_xyz
	x,y,z

loop_
	_atom_site_label
	_atom_site_type_symbol
	_atom_site_fract_x
	_atom_site_fract_y
	_atom_site_fract_z
	H0	H	0.402208	0.832672	0.712468
	H1	H	0.602498	0.157569	0.711208
	H2	H	0.604480	0.832060	0.278836
	H3	H	0.403637	0.157317	0.278214
	H4	H	0.716608	0.398117	0.831248
	H5	H	0.715532	0.590754	0.159399
	H6	H	0.289266	0.591480	0.830531
	H7	H	0.288244	0.396447	0.158590
	H8	H	0.838973	0.709347	0.395537
	H9	H	0.167615	0.706936	0.594663
	H10	H	0.839513	0.276698	0.596568
	H11	H	0.167666	0.281422	0.398211
	H12	H	0.837351	0.394051	0.709580
	H13	H	0.166954	0.591046	0.709369
	H14	H	0.837847	0.592067	0.281999
	H15	H	0.166165	0.394754	0.281105
	H16	H	0.402019	0.711948	0.832725
	H17	H	0.602212	0.709194	0.158619
	H18	H	0.604018	0.278299	0.832387
	H19	H	0.401060	0.275967	0.156866
	H20	H	0.717749	0.831479	0.397918
	H21	H	0.718508	0.158203	0.593598
	H22	H	0.289072	0.831379	0.593212
	H23	H	0.288805	0.157970	0.396538
	H24	H	0.900512	0.331307	0.212534
	H25	H	0.102361	0.656467	0.211389
	H26	H	0.102281	0.331046	0.780207
	H27	H	0.901559	0.656162	0.777965
	H28	H	0.217638	0.895620	0.330666
	H29	H	0.216453	0.089601	0.658889
	H30	H	0.790354	0.092213	0.331320
	H31	H	0.787689	0.894836	0.658941
	H32	H	0.339824	0.210953	0.892982
	H33	H	0.666514	0.210111	0.094814
	H34	H	0.338906	0.780512	0.095518
	H35	H	0.666654	0.779754	0.896243
	H36	H	0.338784	0.895502	0.209478
	H37	H	0.667226	0.094266	0.208459
	H38	H	0.338093	0.093089	0.781843
	H39	H	0.666302	0.894736	0.780402
	H40	H	0.901097	0.212578	0.334321
	H41	H	0.104677	0.209363	0.658035
	H42	H	0.103246	0.777431	0.332208
	H43	H	0.903254	0.777613	0.658916
	H44	H	0.217301	0.330908	0.897409
	H45	H	0.216690	0.657083	0.092515
	H46	H	0.787030	0.331161	0.093266
	H47	H	0.788959	0.658323	0.897486
	H48	H	0.402973	0.110604	0.582317
	H49	H	0.600230	0.877828	0.590307
	H50	H	0.600190	0.111109	0.402375
	H51	H	0.413491	0.881967	0.407535
	H52	H	0.596759	0.398662	0.112416
	H53	H	0.587777	0.583495	0.883219
	H54	H	0.404519	0.582355	0.111003
	H55	H	0.418637	0.397555	0.879662
	H56	H	0.117143	0.578112	0.404149
	H57	H	0.886330	0.585899	0.584797
	H58	H	0.119892	0.401378	0.587065
	H59	H	0.884584	0.405527	0.398207
	H60	H	0.119860	0.402387	0.589557
	H61	H	0.885982	0.583733	0.588286
	H62	H	0.122913	0.587545	0.396049
	H63	H	0.883152	0.394280	0.404767
	H64	H	0.416153	0.586744	0.108895
	H65	H	0.592734	0.598182	0.876844
	H66	H	0.594497	0.405387	0.109769
	H67	H	0.402603	0.396996	0.875137
	H68	H	0.595205	0.111026	0.396678
	H69	H	0.589463	0.880371	0.592908
	H70	H	0.408021	0.113564	0.596898
	H71	H	0.405668	0.877447	0.401683
	H72	H	0.915743	0.608499	0.091527
	H73	H	0.094916	0.378491	0.088209
	H74	H	0.093897	0.607996	0.904416
	H75	H	0.907671	0.376675	0.898012
	H76	H	0.094216	0.897011	0.611564
	H77	H	0.101701	0.091793	0.376304
	H78	H	0.919191	0.095731	0.611986
	H79	H	0.912001	0.895357	0.378415
	H80	H	0.619862	0.084375	0.899890
	H81	H	0.383095	0.085073	0.094228
	H82	H	0.622483	0.897372	0.089762
	H83	H	0.382965	0.896109	0.901037
	H84	H	0.619498	0.901014	0.083145
	H85	H	0.385263	0.093107	0.081418
	H86	H	0.620866	0.089640	0.903883
	H87	H	0.388181	0.902471	0.910489
	H88	H	0.899340	0.085789	0.614379
	H89	H	0.094854	0.081338	0.380690
	H90	H	0.098508	0.899193	0.611333
	H91	H	0.905959	0.903044	0.378397
	H92	H	0.097799	0.610686	0.899273
	H93	H	0.093906	0.378634	0.089377
	H94	H	0.908611	0.607991	0.082789
	H95	H	0.914498	0.379923	0.902861
	H96	H	0.418328	0.108005	0.585717
	H97	H	0.593047	0.881776	0.582784
	H98	H	0.592310	0.108557	0.403250
	H99	H	0.415548	0.879055	0.397476
	H100	H	0.589950	0.399233	0.109819
	H101	H	0.603255	0.585514	0.877672
	H102	H	0.407090	0.594178	0.113495
	H103	H	0.408860	0.410456	0.881101
	H104	H	0.119822	0.590850	0.408878
	H105	H	0.884361	0.587311	0.588298
	H106	H	0.120399	0.398640	0.589535
	H107	H	0.888339	0.404237	0.410815
	H108	H	0.904640	0.612511	0.093343
	H109	H	0.092980	0.379073	0.088551
	H110	H	0.091154	0.609538	0.899060
	H111	H	0.906447	0.379400	0.906692
	H112	H	0.095085	0.901301	0.609373
	H113	H	0.089371	0.092565	0.379969
	H114	H	0.916888	0.073748	0.606290
	H115	H	0.915335	0.903368	0.382525
	H116	H	0.618380	0.084299	0.906932
	H117	H	0.390057	0.078719	0.082203
	H118	H	0.620175	0.904355	0.090081
	H119	H	0.385637	0.908153	0.899778
	C120	C	0.381011	0.003123	0.617156
	C121	C	0.624427	0.987091	0.617433
	C122	C	0.625232	0.002862	0.372767
	C123	C	0.381963	0.986625	0.372739
	C124	C	0.623956	0.372919	0.003025
	C125	C	0.623560	0.616694	0.987363
	C126	C	0.380158	0.616765	0.003460
	C127	C	0.380809	0.372475	0.986330
	C128	C	0.011441	0.614844	0.374216
	C129	C	0.994309	0.614158	0.616186
	C130	C	0.011268	0.371962	0.617561
	C131	C	0.993910	0.372470	0.375144
	C132	C	0.880213	0.502094	0.117912
	C133	C	0.123548	0.486005	0.117230
	C134	C	0.123695	0.501990	0.873007
	C135	C	0.880503	0.485822	0.873196
	C136	C	0.125219	0.871144	0.502854
	C137	C	0.124517	0.115966	0.486967
	C138	C	0.882349	0.115100	0.503869
	C139	C	0.881102	0.871200	0.487414
	C140	C	0.511269	0.115335	0.874248
	C141	C	0.494504	0.115090	0.115294
	C142	C	0.511840	0.872731	0.116852
	C143	C	0.493880	0.873038	0.874550
	C144	C	0.382417	0.881132	0.673761
	C145	C	0.623232	0.109238	0.673160
	C146	C	0.623714	0.880508	0.317304
	C147	C	0.383299	0.108836	0.316679
	C148	C	0.679268	0.376577	0.880269
	C149	C	0.678283	0.612479	0.110310
	C150	C	0.325892	0.613244	0.879840
	C151	C	0.325591	0.375013	0.109593
	C152	C	0.887697	0.670613	0.376071
	C153	C	0.118179	0.669399	0.614668
	C154	C	0.888098	0.315487	0.616466
	C155	C	0.118241	0.318452	0.377709
	C156	C	0.887242	0.373762	0.672648
	C157	C	0.118153	0.611759	0.671545
	C158	C	0.887264	0.613038	0.319031
	C159	C	0.117443	0.374658	0.319433
	C160	C	0.381896	0.673101	0.881001
	C161	C	0.621832	0.671129	0.110073
	C162	C	0.623268	0.317170	0.880815
	C163	C	0.381668	0.315510	0.108796
	C164	C	0.680249	0.880083	0.376366
	C165	C	0.680505	0.109547	0.614477
	C166	C	0.326206	0.880373	0.614488
	C167	C	0.326219	0.109214	0.375312
	C168	C	0.881239	0.379859	0.173923
	C169	C	0.122252	0.607943	0.173023
	C170	C	0.122034	0.379627	0.818155
	C171	C	0.882199	0.608168	0.817089
	C172	C	0.180271	0.874670	0.380033
	C173	C	0.179621	0.111575	0.609869
	C174	C	0.827267	0.112980	0.380659
	C175	C	0.825367	0.873758	0.610014
	C176	C	0.388280	0.172070	0.874569
	C177	C	0.617585	0.171746	0.114119
	C178	C	0.388120	0.817679	0.115716
	C179	C	0.617442	0.817574	0.876042
	C180	C	0.387927	0.875422	0.172041
	C181	C	0.618121	0.114008	0.170688
	C182	C	0.387682	0.113823	0.818740
	C183	C	0.617268	0.874467	0.818368
	C184	C	0.882203	0.173051	0.382135
	C185	C	0.123599	0.170751	0.609625
	C186	C	0.123418	0.815737	0.380691
	C187	C	0.882421	0.815133	0.609780
	C188	C	0.179310	0.379499	0.876438
	C189	C	0.179011	0.608386	0.113950
	C190	C	0.824739	0.379805	0.114575
	C191	C	0.826058	0.609141	0.876292
	C192	C	0.403306	0.088669	0.594703
	C193	C	0.601223	0.902002	0.595166
	C194	C	0.602674	0.088084	0.394422
	C195	C	0.404822	0.901635	0.395333
	C196	C	0.600530	0.394861	0.088667
	C197	C	0.601005	0.595432	0.901367
	C198	C	0.402531	0.594263	0.088954
	C199	C	0.403216	0.395047	0.900854
	C200	C	0.097596	0.592170	0.396436
	C201	C	0.907935	0.592198	0.593704
	C202	C	0.097713	0.394431	0.595130
	C203	C	0.907647	0.394703	0.397917
	C204	C	0.903099	0.587641	0.095737
	C205	C	0.100798	0.400858	0.095153
	C206	C	0.101052	0.587334	0.894597
	C207	C	0.903087	0.400793	0.895833
	C208	C	0.102547	0.892933	0.588721
	C209	C	0.101944	0.094666	0.401134
	C210	C	0.905162	0.091841	0.588936
	C211	C	0.904362	0.893867	0.401842
	C212	C	0.597343	0.092546	0.896927
	C213	C	0.408418	0.092252	0.092581
	C214	C	0.598434	0.894523	0.094332
	C215	C	0.407861	0.895464	0.897245
	Zn216	Zn	0.502789	-0.004853	0.746570
	Zn217	Zn	0.503348	-0.005287	0.243164
	Zn218	Zn	0.752085	0.495083	-0.004880
	Zn219	Zn	0.252119	0.494386	-0.005156
	Zn220	Zn	0.003231	0.742357	0.495283
	Zn221	Zn	0.003114	0.244686	0.495749
	Zn222	Zn	0.001980	0.493574	0.744245
	Zn223	Zn	0.002105	0.493564	0.246819
	Zn224	Zn	0.502525	0.745289	-0.003998
	Zn225	Zn	0.502851	0.243691	-0.005521
	Zn226	Zn	0.753465	-0.005531	0.495373
	Zn227	Zn	0.252851	-0.005380	0.494758
	N228	N	0.415737	0.958577	0.675607
	N229	N	0.589330	0.032099	0.675321
	N230	N	0.590127	0.957854	0.314928
	N231	N	0.417240	0.031790	0.314936
	N232	N	0.679550	0.410646	0.957291
	N233	N	0.679582	0.579505	0.032868
	N234	N	0.324790	0.578831	0.956957
	N235	N	0.324866	0.409749	0.032565
	N236	N	0.965763	0.671824	0.409454
	N237	N	0.040289	0.671040	0.580800
	N238	N	0.966167	0.313986	0.583173
	N239	N	0.040173	0.317001	0.411453
	N240	N	0.964994	0.408069	0.673528
	N241	N	0.040083	0.578341	0.672708
	N242	N	0.965015	0.578702	0.317925
	N243	N	0.039309	0.407637	0.317685
	N244	N	0.414736	0.675521	0.958767
	N245	N	0.588547	0.673803	0.032510
	N246	N	0.589538	0.314924	0.958314
	N247	N	0.415087	0.313708	0.031300
	N248	N	0.681152	0.956867	0.410295
	N249	N	0.681304	0.032628	0.580481
	N250	N	0.325223	0.957192	0.580039
	N251	N	0.325293	0.032260	0.409669
	N252	N	0.915051	0.457113	0.176068
	N253	N	0.088458	0.530874	0.175119
	N254	N	0.088179	0.456720	0.816029
	N255	N	0.914961	0.530544	0.814758
	N256	N	0.181649	0.908208	0.457236
	N257	N	0.179887	0.077953	0.532743
	N258	N	0.827077	0.077622	0.457259
	N259	N	0.824186	0.907836	0.532708
	N260	N	0.466088	0.173079	0.908573
	N261	N	0.539773	0.172649	0.080282
	N262	N	0.466193	0.815955	0.082120
	N263	N	0.539674	0.816499	0.910339
	N264	N	0.465835	0.909042	0.172730
	N265	N	0.540561	0.079524	0.171482
	N266	N	0.465145	0.079209	0.818424
	N267	N	0.539586	0.908476	0.817338
	N268	N	0.915918	0.174404	0.459506
	N269	N	0.090041	0.173578	0.532148
	N270	N	0.089919	0.813589	0.458208
	N271	N	0.916388	0.813522	0.532500
	N272	N	0.180387	0.456600	0.910052
	N273	N	0.180064	0.531529	0.080011
	N274	N	0.824002	0.456692	0.080530
	N275	N	0.824876	0.532243	0.910696
	O276	O	0.984979	1.009103	-0.068011
	H277	H	0.986546	1.012248	-0.081465
	H278	H	0.969121	1.010395	-0.062771
	O279	O	0.460911	0.532171	0.504913
	H280	H	0.460990	0.536490	0.517697
	H281	H	0.458905	0.527250	0.504268
	O282	O	0.040015	0.044403	-0.081544
	H283	H	0.045869	0.046036	-0.078606
	H284	H	0.027177	0.042143	-0.091129
	O285	O	0.539449	0.574059	0.529040
	H286	H	0.541788	0.570431	0.518565
	H287	H	0.530912	0.579979	0.532246
	O288	O	-0.127747	-0.064764	0.008683
	H289	H	-0.127703	-0.071942	0.012334
	H290	H	-0.124463	-0.065737	0.012402
	O291	O	0.057987	1.010512	0.076347
	H292	H	0.055460	1.010708	0.067048
	H293	H	0.057701	1.002891	0.061630
	O294	O	-0.059596	1.042666	-0.024734
	H295	H	-0.056965	1.038581	-0.032838
	H296	H	-0.065039	1.033884	-0.022055
	O297	O	0.508666	0.558609	0.501940
	H298	H	0.507170	0.563929	0.485173
	H299	H	0.513969	0.564114	0.502941
	O300	O	0.501312	0.571929	0.459237
	H301	H	0.500431	0.576514	0.454481
	H302	H	0.491197	0.572596	0.461904
	O303	O	0.934958	0.046325	0.962452
	H304	H	0.935798	0.045943	0.963879
	H305	H	0.941067	0.040914	0.963225
	O306	O	0.014509	0.973098	0.967307
	H307	H	0.023928	0.969828	0.964438
	H308	H	0.017265	0.977578	0.974792
	O309	O	-0.092826	1.070965	0.991883
	H310	H	-0.084479	1.062328	0.996785
	H311	H	-0.097951	1.068177	0.999742
	O312	O	-0.039956	-0.064818	1.037768
	H313	H	-0.035734	-0.062891	1.038215
	H314	H	-0.035275	-0.071130	1.032442
	O315	O	0.537110	0.557488	0.475886
	H316	H	0.536405	0.558903	0.474381
	H317	H	0.530791	0.555412	0.476347
	O318	O	0.051172	0.109586	1.024745
	H319	H	0.054146	0.104754	1.034835
	H320	H	0.049604	0.116980	1.030112
	O321	O	0.061757	-0.117063	0.995473
	H322	H	0.063492	-0.111195	0.989233
	H323	H	0.054251	-0.115493	0.999142
	O324	O	1.000096	-0.042751	0.942012
	H325	H	1.006443	-0.038555	0.952044
	H326	H	0.998866	-0.044023	0.932770
	O327	O	0.986493	1.039210	1.035124
	H328	H	0.976207	1.047944	1.035800
	H329	H	0.974666	1.050580	1.037545
	O330	O	0.078827	0.965048	0.988494
	H331	H	0.091187	0.969417	0.988511
	H332	H	0.086219	0.973890	0.984577
	O333	O	0.500571	0.527981	0.482034
	H334	H	0.505919	0.532654	0.479397
	H335	H	0.500051	0.534402	0.485399
	O336	O	0.464388	0.547940	0.495232
	H337	H	0.460533	0.551320	0.501486
	H338	H	0.457432	0.549480	0.495403
	O339	O	0.573262	0.574453	0.513990
	H340	H	0.588913	0.578592	0.516043
	H341	H	0.570396	0.567330	0.511985
	O342	O	1.099258	0.040318	0.032138
	H343	H	1.098258	0.049522	0.034003
	H344	H	1.093698	0.045141	0.043553
	O345	O	0.543107	0.540693	0.460780
	H346	H	0.547443	0.543796	0.450829
	H347	H	0.547149	0.542644	0.474169
