data_Molecule from HDF5

_cell_length_a		16.123978
_cell_length_b		16.302915
_cell_length_c		16.360905
_cell_angle_alpha	89.804431
_cell_angle_beta	90.098451
_cell_angle_gamma	89.343702
_symmetry_space_group_name_H-M	'P 1'
_symmetry_Int_Tables_number		1

loop_
	_symmetry_equiv_pos_as_xyz
	x,y,z

loop_
	_atom_site_label
	_atom_site_type_symbol
	_atom_site_fract_x
	_atom_site_fract_y
	_atom_site_fract_z
	H0	H	0.402520	0.848967	0.715192
	H1	H	0.602032	0.174280	0.715759
	H2	H	0.603744	0.848019	0.285345
	H3	H	0.398489	0.173833	0.279882
	H4	H	0.717383	0.412535	0.836036
	H5	H	0.714850	0.604513	0.162862
	H6	H	0.286927	0.609975	0.836164
	H7	H	0.291066	0.414310	0.163121
	H8	H	0.838309	0.729160	0.399786
	H9	H	0.167912	0.724223	0.598565
	H10	H	0.835957	0.301296	0.596451
	H11	H	0.166222	0.296170	0.402220
	H12	H	0.837407	0.413631	0.713681
	H13	H	0.166660	0.611224	0.715737
	H14	H	0.837261	0.612785	0.284296
	H15	H	0.167248	0.410624	0.286652
	H16	H	0.397515	0.729959	0.837504
	H17	H	0.601771	0.725664	0.161862
	H18	H	0.604303	0.294445	0.836300
	H19	H	0.404309	0.294494	0.161279
	H20	H	0.718977	0.849356	0.403063
	H21	H	0.710357	0.177860	0.593782
	H22	H	0.289642	0.848200	0.596931
	H23	H	0.286155	0.176276	0.399876
	H24	H	0.904765	0.348603	0.215749
	H25	H	0.102451	0.673771	0.215558
	H26	H	0.104585	0.348259	0.783922
	H27	H	0.898678	0.674491	0.781985
	H28	H	0.216458	0.915164	0.335443
	H29	H	0.216100	0.109327	0.662656
	H30	H	0.787985	0.112565	0.335964
	H31	H	0.790603	0.917152	0.663290
	H32	H	0.338469	0.229725	0.897026
	H33	H	0.668021	0.220556	0.096005
	H34	H	0.335744	0.800358	0.097193
	H35	H	0.666511	0.794869	0.901196
	H36	H	0.337053	0.912407	0.214801
	H37	H	0.666699	0.108589	0.213125
	H38	H	0.337137	0.112721	0.783472
	H39	H	0.667321	0.910546	0.784841
	H40	H	0.901122	0.230080	0.337353
	H41	H	0.101126	0.226669	0.662397
	H42	H	0.106336	0.795144	0.337062
	H43	H	0.904098	0.796414	0.661719
	H44	H	0.218098	0.347258	0.903285
	H45	H	0.214047	0.674971	0.096534
	H46	H	0.793108	0.346159	0.096414
	H47	H	0.785727	0.674650	0.901370
	H48	H	0.411995	0.131716	0.604711
	H49	H	0.589161	0.896745	0.597110
	H50	H	0.591299	0.123980	0.418513
	H51	H	0.411701	0.892451	0.393399
	H52	H	0.599397	0.405325	0.118272
	H53	H	0.593549	0.608110	0.882657
	H54	H	0.416950	0.608748	0.113884
	H55	H	0.410175	0.425446	0.885222
	H56	H	0.120900	0.602332	0.402712
	H57	H	0.885799	0.607710	0.588438
	H58	H	0.120377	0.425474	0.602628
	H59	H	0.881815	0.417494	0.401200
	H60	H	0.123510	0.405819	0.592954
	H61	H	0.886035	0.602703	0.589522
	H62	H	0.120886	0.606164	0.407114
	H63	H	0.884335	0.419663	0.411576
	H64	H	0.402245	0.612474	0.119560
	H65	H	0.597161	0.600179	0.883245
	H66	H	0.604078	0.420246	0.115073
	H67	H	0.416323	0.416277	0.883968
	H68	H	0.606595	0.135331	0.396784
	H69	H	0.597068	0.898571	0.583696
	H70	H	0.418975	0.122298	0.583487
	H71	H	0.421376	0.900494	0.411349
	H72	H	0.906430	0.626435	0.085054
	H73	H	0.107085	0.391411	0.095833
	H74	H	0.092518	0.631527	0.889488
	H75	H	0.913939	0.396975	0.908542
	H76	H	0.093482	0.907500	0.616590
	H77	H	0.097029	0.099001	0.384912
	H78	H	0.917280	0.110620	0.614707
	H79	H	0.906416	0.920617	0.382063
	H80	H	0.620127	0.094147	0.898619
	H81	H	0.387447	0.102091	0.082355
	H82	H	0.617749	0.916420	0.087312
	H83	H	0.381643	0.916875	0.901144
	H84	H	0.617784	0.920874	0.093677
	H85	H	0.384214	0.097760	0.094014
	H86	H	0.623485	0.110851	0.901920
	H87	H	0.385422	0.918998	0.912314
	H88	H	0.899452	0.115562	0.619493
	H89	H	0.084422	0.106009	0.386321
	H90	H	0.105617	0.922344	0.616672
	H91	H	0.911977	0.924184	0.385572
	H92	H	0.077646	0.620571	0.912932
	H93	H	0.090285	0.393485	0.102368
	H94	H	0.903918	0.629660	0.097018
	H95	H	0.908411	0.393196	0.905060
	H96	H	0.395512	0.130720	0.586471
	H97	H	0.603347	0.893021	0.596124
	H98	H	0.579671	0.127763	0.393593
	H99	H	0.399558	0.894599	0.412482
	H100	H	0.588938	0.415957	0.112212
	H101	H	0.588255	0.601951	0.885719
	H102	H	0.406784	0.597806	0.113708
	H103	H	0.405471	0.416159	0.881033
	H104	H	0.118468	0.600747	0.407603
	H105	H	0.884450	0.606401	0.593100
	H106	H	0.115150	0.422753	0.581481
	H107	H	0.885351	0.427646	0.404080
	H108	H	0.915174	0.626297	0.094375
	H109	H	0.094157	0.398170	0.084975
	H110	H	0.106388	0.628726	0.915387
	H111	H	0.914754	0.394690	0.901895
	H112	H	0.087764	0.924013	0.610331
	H113	H	0.096414	0.112375	0.380833
	H114	H	0.904805	0.098068	0.614242
	H115	H	0.912972	0.916860	0.383404
	H116	H	0.616481	0.100683	0.914846
	H117	H	0.382471	0.110239	0.091247
	H118	H	0.621086	0.912942	0.093646
	H119	H	0.385638	0.928354	0.903826
	C120	C	0.380525	0.020084	0.620420
	C121	C	0.624136	1.004085	0.620711
	C122	C	0.623513	0.020916	0.376094
	C123	C	0.380187	1.003798	0.376506
	C124	C	0.626072	0.386643	0.007285
	C125	C	0.622390	0.631571	0.991216
	C126	C	0.378822	0.634579	0.008123
	C127	C	0.382011	0.389961	0.990768
	C128	C	0.011043	0.633510	0.376984
	C129	C	0.994430	0.633104	0.619579
	C130	C	0.010290	0.390630	0.620367
	C131	C	0.993240	0.391345	0.378139
	C132	C	0.881592	0.519343	0.120448
	C133	C	0.124745	0.502462	0.122029
	C134	C	0.123651	0.519418	0.877414
	C135	C	0.880828	0.502674	0.876564
	C136	C	0.124981	0.889782	0.507209
	C137	C	0.122056	0.133613	0.491382
	C138	C	0.878814	0.136473	0.508233
	C139	C	0.881964	0.891911	0.491318
	C140	C	0.511063	0.132840	0.876185
	C141	C	0.493811	0.130861	0.118204
	C142	C	0.509971	0.889310	0.120692
	C143	C	0.493353	0.890904	0.877456
	C144	C	0.382688	0.897632	0.676556
	C145	C	0.621538	0.126159	0.676698
	C146	C	0.623258	0.897341	0.322562
	C147	C	0.379691	0.125813	0.319507
	C148	C	0.680161	0.391093	0.884592
	C149	C	0.677400	0.627055	0.114043
	C150	C	0.323891	0.631111	0.885141
	C151	C	0.328146	0.393177	0.114029
	C152	C	0.887329	0.690666	0.379335
	C153	C	0.118700	0.686851	0.618103
	C154	C	0.885789	0.337491	0.617580
	C155	C	0.117218	0.334609	0.381747
	C156	C	0.886375	0.393298	0.675798
	C157	C	0.117950	0.630647	0.676522
	C158	C	0.886913	0.632785	0.321922
	C159	C	0.117742	0.391568	0.324229
	C160	C	0.379200	0.690513	0.885672
	C161	C	0.621187	0.687040	0.113372
	C162	C	0.623969	0.332187	0.885043
	C163	C	0.384432	0.333725	0.113239
	C164	C	0.680616	0.897962	0.380988
	C165	C	0.675668	0.128003	0.616168
	C166	C	0.326774	0.897076	0.617506
	C167	C	0.323587	0.126768	0.378866
	C168	C	0.884836	0.396615	0.176705
	C169	C	0.122207	0.625058	0.177275
	C170	C	0.123889	0.396874	0.822145
	C171	C	0.880078	0.625626	0.820684
	C172	C	0.179580	0.893551	0.384396
	C173	C	0.177941	0.130080	0.614021
	C174	C	0.824904	0.133286	0.385004
	C175	C	0.827558	0.895343	0.614293
	C176	C	0.387197	0.190310	0.877772
	C177	C	0.618514	0.183905	0.116216
	C178	C	0.385457	0.836601	0.117836
	C179	C	0.617350	0.833471	0.880437
	C180	C	0.386115	0.892399	0.176354
	C181	C	0.617768	0.128060	0.174476
	C182	C	0.386577	0.132433	0.820987
	C183	C	0.617847	0.890983	0.822743
	C184	C	0.881053	0.191777	0.385680
	C185	C	0.120882	0.188636	0.613858
	C186	C	0.124337	0.834276	0.385179
	C187	C	0.883991	0.835516	0.613499
	C188	C	0.180037	0.396422	0.881932
	C189	C	0.177754	0.625763	0.117915
	C190	C	0.829288	0.395493	0.117295
	C191	C	0.823403	0.625649	0.879365
	C192	C	0.402395	0.105974	0.597975
	C193	C	0.602707	0.918139	0.598828
	C194	C	0.599543	0.106790	0.396842
	C195	C	0.403968	0.917950	0.399210
	C196	C	0.604145	0.407614	0.093138
	C197	C	0.599734	0.609944	0.905858
	C198	C	0.401900	0.612775	0.093628
	C199	C	0.404085	0.412636	0.905368
	C200	C	0.097811	0.609946	0.399217
	C201	C	0.907839	0.611891	0.596945
	C202	C	0.097326	0.411768	0.598739
	C203	C	0.906139	0.414723	0.399507
	C204	C	0.902332	0.605251	0.098386
	C205	C	0.103448	0.416592	0.100705
	C206	C	0.099164	0.604969	0.899377
	C207	C	0.905138	0.417264	0.898756
	C208	C	0.102203	0.911586	0.592440
	C209	C	0.099171	0.112021	0.406012
	C210	C	0.900822	0.114612	0.593855
	C211	C	0.904088	0.913894	0.405776
	C212	C	0.597520	0.108841	0.898528
	C213	C	0.407102	0.109545	0.095951
	C214	C	0.596548	0.910451	0.098165
	C215	C	0.406613	0.914578	0.899420
	Zn216	Zn	0.501998	0.011698	0.748762
	Zn217	Zn	0.501760	0.011246	0.247409
	Zn218	Zn	0.752950	0.510008	-0.000862
	Zn219	Zn	0.252566	0.511586	0.000125
	Zn220	Zn	0.003825	0.761578	0.498629
	Zn221	Zn	0.001094	0.263542	0.499756
	Zn222	Zn	0.002174	0.511570	0.747497
	Zn223	Zn	0.002568	0.510884	0.249458
	Zn224	Zn	0.500548	0.762133	-0.001059
	Zn225	Zn	0.502711	0.259646	-0.001501
	Zn226	Zn	0.752033	0.014142	0.498815
	Zn227	Zn	0.251909	0.012076	0.498936
	N228	N	0.415544	0.975207	0.678228
	N229	N	0.590296	0.048044	0.679604
	N230	N	0.588299	0.974674	0.319621
	N231	N	0.413991	0.048267	0.317778
	N232	N	0.681649	0.424187	0.961706
	N233	N	0.678153	0.593155	0.037173
	N234	N	0.323361	0.597394	0.962200
	N235	N	0.326685	0.427445	0.036967
	N236	N	0.965683	0.691179	0.412783
	N237	N	0.040876	0.688558	0.583429
	N238	N	0.963885	0.335836	0.583850
	N239	N	0.038646	0.334309	0.414451
	N240	N	0.964804	0.425626	0.677590
	N241	N	0.039694	0.597818	0.677445
	N242	N	0.964979	0.597912	0.320493
	N243	N	0.039581	0.426255	0.322125
	N244	N	0.412654	0.692903	0.963115
	N245	N	0.587638	0.689942	0.035926
	N246	N	0.590808	0.329548	0.962421
	N247	N	0.416798	0.331476	0.035614
	N248	N	0.680900	0.975802	0.413544
	N249	N	0.677684	0.050869	0.582191
	N250	N	0.325384	0.974322	0.583322
	N251	N	0.324102	0.049777	0.413754
	N252	N	0.916560	0.474415	0.178805
	N253	N	0.090065	0.547347	0.179799
	N254	N	0.089451	0.474432	0.819250
	N255	N	0.915085	0.548313	0.818841
	N256	N	0.179777	0.927708	0.461029
	N257	N	0.178854	0.096589	0.536936
	N258	N	0.823386	0.099602	0.462152
	N259	N	0.826175	0.929579	0.537319
	N260	N	0.465520	0.190824	0.911253
	N261	N	0.540553	0.185716	0.081771
	N262	N	0.463468	0.834549	0.083900
	N263	N	0.539018	0.833283	0.913719
	N264	N	0.464669	0.924452	0.178217
	N265	N	0.539360	0.095606	0.175786
	N266	N	0.464531	0.097226	0.819975
	N267	N	0.539544	0.925586	0.820630
	N268	N	0.913762	0.194026	0.463276
	N269	N	0.086636	0.190745	0.536746
	N270	N	0.091073	0.831628	0.462593
	N271	N	0.917146	0.833503	0.536100
	N272	N	0.179938	0.473749	0.915571
	N273	N	0.179645	0.548441	0.084434
	N274	N	0.827100	0.472791	0.082950
	N275	N	0.823984	0.548455	0.913698
	O276	O	-0.050199	0.046258	-0.055759
	H277	H	-0.057948	0.048862	-0.064288
	H278	H	-0.050160	0.036006	-0.051242
	O279	O	0.431928	0.507210	0.517543
	H280	H	0.428628	0.501033	0.517718
	H281	H	0.422636	0.519016	0.518135
	O282	O	0.504392	0.573096	0.475760
	H283	H	0.500490	0.575096	0.485097
	H284	H	0.498729	0.570687	0.472402
	O285	O	1.051037	0.052018	1.018136
	H286	H	1.051467	0.051285	1.023988
	H287	H	1.052943	0.046903	1.015100
	O288	O	1.019739	0.010647	-0.110098
	H289	H	1.020645	0.022651	-0.107447
	H290	H	1.015426	0.024771	-0.115295
	O291	O	0.456074	0.572283	0.468107
	H292	H	0.449836	0.571922	0.450542
	H293	H	0.447020	0.576746	0.468167
	O294	O	0.925206	-0.055006	1.074684
	H295	H	0.931678	-0.057308	1.088002
	H296	H	0.922804	-0.057915	1.065346
	O297	O	0.073457	-0.090151	0.055591
	H298	H	0.079978	-0.092521	0.064419
	H299	H	0.071344	-0.099521	0.050238
	O300	O	1.034302	-0.061540	-0.095319
	H301	H	1.040152	-0.049512	-0.096636
	H302	H	1.030370	-0.064344	-0.109487
	O303	O	0.488760	0.528832	0.580381
	H304	H	0.489729	0.536724	0.576727
	H305	H	0.503009	0.523785	0.580591
	O306	O	1.018229	0.126501	0.056839
	H307	H	1.011569	0.130722	0.053836
	H308	H	1.013392	0.128615	0.047498
	O309	O	-0.022736	0.058198	1.052689
	H310	H	-0.019540	0.060076	1.056988
	H311	H	-0.030491	0.061513	1.054950
	O312	O	1.086878	0.972734	1.130343
	H313	H	1.088538	0.966580	1.122725
	H314	H	1.077783	0.972108	1.127240
	O315	O	0.464260	0.553169	0.503490
	H316	H	0.464315	0.544754	0.502480
	H317	H	0.458904	0.545566	0.500732
	O318	O	-0.079179	-0.006911	0.004883
	H319	H	-0.073269	-0.009036	0.001224
	H320	H	-0.087650	0.001142	0.005242
	O321	O	0.033547	1.067687	1.014148
	H322	H	0.037108	1.067225	1.017160
	H323	H	0.029341	1.065953	1.009714
	O324	O	0.547866	0.516936	0.608665
	H325	H	0.550880	0.524102	0.599442
	H326	H	0.547929	0.515696	0.610935
	O327	O	0.497891	0.580857	0.486490
	H328	H	0.502613	0.577196	0.496775
	H329	H	0.491394	0.582372	0.490616
	O330	O	0.503081	0.506085	0.527249
	H331	H	0.509355	0.507111	0.533403
	H332	H	0.503738	0.499490	0.525473
	O333	O	0.538506	0.552343	0.594194
	H334	H	0.536491	0.551662	0.594361
	H335	H	0.540815	0.554441	0.585047
	O336	O	0.486217	0.500578	0.425505
	H337	H	0.486084	0.508282	0.430496
	H338	H	0.483032	0.502110	0.419325
	O339	O	0.943283	0.894511	-0.005970
	H340	H	0.952759	0.884227	-0.001713
	H341	H	0.942385	0.896266	0.004161
	O342	O	0.480755	0.505758	0.514105
	H343	H	0.486908	0.506799	0.518125
	H344	H	0.480096	0.510595	0.515796
	O345	O	0.975831	0.081057	0.963513
	H346	H	0.972428	0.076724	0.967880
	H347	H	0.974861	0.084713	0.966713
	O348	O	-0.004259	0.096364	-0.049990
	H349	H	-0.005170	0.089352	-0.049413
	H350	H	-0.007921	0.089421	-0.050058
	O351	O	0.153664	0.901872	0.949104
	H352	H	0.167185	0.895626	0.944169
	H353	H	0.149097	0.914143	0.944082
	O354	O	0.511343	0.577809	0.473047
	H355	H	0.509141	0.583355	0.469701
	H356	H	0.510721	0.576306	0.472275
	O357	O	-0.046961	0.983617	0.940870
	H358	H	-0.049665	0.981869	0.937788
	H359	H	-0.048855	0.978813	0.943671
