data_Molecule from HDF5

_cell_length_a		16.331322
_cell_length_b		16.301162
_cell_length_c		16.332056
_cell_angle_alpha	90.130143
_cell_angle_beta	89.996883
_cell_angle_gamma	90.009207
_symmetry_space_group_name_H-M	'P 1'
_symmetry_Int_Tables_number		1

loop_
	_symmetry_equiv_pos_as_xyz
	x,y,z

loop_
	_atom_site_label
	_atom_site_type_symbol
	_atom_site_fract_x
	_atom_site_fract_y
	_atom_site_fract_z
	H0	H	0.404387	0.829206	0.708597
	H1	H	0.601123	0.155670	0.710294
	H2	H	0.600017	0.829558	0.279849
	H3	H	0.405814	0.157128	0.282163
	H4	H	0.716138	0.395138	0.831489
	H5	H	0.715910	0.591386	0.158419
	H6	H	0.287005	0.590953	0.831538
	H7	H	0.286203	0.395283	0.157641
	H8	H	0.838422	0.706234	0.397841
	H9	H	0.166304	0.706280	0.591038
	H10	H	0.838346	0.279351	0.590353
	H11	H	0.165739	0.277918	0.395688
	H12	H	0.837722	0.396217	0.706868
	H13	H	0.165440	0.591618	0.709514
	H14	H	0.838009	0.589042	0.281705
	H15	H	0.165232	0.393801	0.278264
	H16	H	0.403998	0.706620	0.831117
	H17	H	0.599331	0.707543	0.158171
	H18	H	0.599889	0.278566	0.831078
	H19	H	0.402516	0.278764	0.158088
	H20	H	0.716842	0.829529	0.395390
	H21	H	0.716628	0.156444	0.593399
	H22	H	0.287859	0.829750	0.591988
	H23	H	0.288056	0.156947	0.396785
	H24	H	0.903838	0.329163	0.208456
	H25	H	0.100096	0.656808	0.209189
	H26	H	0.099241	0.329096	0.780365
	H27	H	0.903825	0.657077	0.780818
	H28	H	0.216852	0.894879	0.330794
	H29	H	0.216117	0.091553	0.658615
	H30	H	0.787603	0.090745	0.331316
	H31	H	0.787726	0.894652	0.657543
	H32	H	0.338779	0.206506	0.897190
	H33	H	0.664934	0.209449	0.094555
	H34	H	0.338551	0.778944	0.091970
	H35	H	0.665603	0.778403	0.896231
	H36	H	0.339019	0.894406	0.209529
	H37	H	0.665601	0.092368	0.210003
	H38	H	0.338895	0.091345	0.780208
	H39	H	0.665106	0.894033	0.779785
	H40	H	0.904326	0.206919	0.330634
	H41	H	0.100120	0.208229	0.658305
	H42	H	0.100307	0.777729	0.330630
	H43	H	0.905028	0.779694	0.658178
	H44	H	0.216087	0.329291	0.896079
	H45	H	0.216539	0.656628	0.093184
	H46	H	0.787999	0.329047	0.091967
	H47	H	0.788834	0.657374	0.898928
	H48	H	0.408644	0.108429	0.586367
	H49	H	0.587850	0.879671	0.584970
	H50	H	0.602719	0.110436	0.404299
	H51	H	0.410509	0.878357	0.405380
	H52	H	0.588311	0.400316	0.108786
	H53	H	0.589793	0.587456	0.879740
	H54	H	0.402542	0.594547	0.114230
	H55	H	0.402837	0.395849	0.876331
	H56	H	0.122566	0.599766	0.400222
	H57	H	0.885976	0.590636	0.585724
	H58	H	0.121174	0.388206	0.584433
	H59	H	0.888187	0.404113	0.402020
	H60	H	0.113165	0.408259	0.579885
	H61	H	0.887161	0.583389	0.588007
	H62	H	0.112980	0.581107	0.413560
	H63	H	0.885271	0.398072	0.396903
	H64	H	0.403762	0.577292	0.109684
	H65	H	0.599457	0.590378	0.876082
	H66	H	0.598974	0.394306	0.113659
	H67	H	0.408028	0.405948	0.880912
	H68	H	0.593803	0.111046	0.395094
	H69	H	0.601654	0.876519	0.581616
	H70	H	0.407924	0.110375	0.589647
	H71	H	0.404000	0.875335	0.400141
	H72	H	0.913558	0.608502	0.090932
	H73	H	0.090091	0.378568	0.088302
	H74	H	0.095372	0.607758	0.906045
	H75	H	0.914779	0.377434	0.893990
	H76	H	0.100993	0.903258	0.610661
	H77	H	0.098818	0.081447	0.379038
	H78	H	0.916971	0.090327	0.609014
	H79	H	0.921022	0.899409	0.382020
	H80	H	0.616199	0.087631	0.909424
	H81	H	0.384362	0.082776	0.097555
	H82	H	0.615660	0.904653	0.083046
	H83	H	0.384673	0.902780	0.894588
	H84	H	0.619494	0.901122	0.093846
	H85	H	0.384740	0.095852	0.084933
	H86	H	0.615924	0.078735	0.899497
	H87	H	0.384117	0.891798	0.901991
	H88	H	0.903053	0.090317	0.613618
	H89	H	0.090450	0.084411	0.381205
	H90	H	0.090882	0.901936	0.608313
	H91	H	0.904350	0.888184	0.373538
	H92	H	0.098904	0.611147	0.899635
	H93	H	0.094217	0.379088	0.081760
	H94	H	0.906922	0.608011	0.083625
	H95	H	0.910973	0.380012	0.908653
	H96	H	0.410928	0.108851	0.588834
	H97	H	0.596495	0.873958	0.594848
	H98	H	0.590692	0.106108	0.406984
	H99	H	0.411911	0.876515	0.396717
	H100	H	0.599954	0.406891	0.109800
	H101	H	0.597686	0.580888	0.879846
	H102	H	0.417532	0.588896	0.108443
	H103	H	0.414560	0.395593	0.879754
	H104	H	0.119185	0.577642	0.389563
	H105	H	0.884526	0.588427	0.593061
	H106	H	0.120211	0.403889	0.599809
	H107	H	0.886970	0.396315	0.405211
	H108	H	0.903983	0.611523	0.092961
	H109	H	0.097166	0.375876	0.088667
	H110	H	0.091249	0.607783	0.899052
	H111	H	0.900602	0.373558	0.898354
	H112	H	0.096209	0.893999	0.612173
	H113	H	0.096282	0.090176	0.377510
	H114	H	0.908379	0.077807	0.607942
	H115	H	0.901952	0.909428	0.378924
	H116	H	0.621292	0.090722	0.897314
	H117	H	0.390352	0.079016	0.080944
	H118	H	0.619375	0.893341	0.085018
	H119	H	0.389309	0.903229	0.906725
	C120	C	0.380839	0.001186	0.616321
	C121	C	0.624045	0.984474	0.616382
	C122	C	0.623817	0.001075	0.373167
	C123	C	0.380554	0.984713	0.372623
	C124	C	0.623658	0.371620	0.002422
	C125	C	0.623733	0.614629	0.986501
	C126	C	0.380168	0.614526	0.002816
	C127	C	0.380000	0.371273	0.986914
	C128	C	0.010241	0.614142	0.373107
	C129	C	0.993905	0.615207	0.616431
	C130	C	0.009958	0.371927	0.615447
	C131	C	0.994309	0.370922	0.372552
	C132	C	0.879727	0.501100	0.116862
	C133	C	0.123017	0.485445	0.115530
	C134	C	0.123557	0.500956	0.872980
	C135	C	0.880710	0.485146	0.873031
	C136	C	0.124165	0.871453	0.502297
	C137	C	0.123767	0.114695	0.486767
	C138	C	0.880691	0.114944	0.502588
	C139	C	0.881135	0.871470	0.486330
	C140	C	0.510164	0.114311	0.873535
	C141	C	0.494310	0.114792	0.116382
	C142	C	0.510175	0.871398	0.115896
	C143	C	0.493935	0.870862	0.872761
	C144	C	0.383751	0.878020	0.670898
	C145	C	0.621372	0.107258	0.671830
	C146	C	0.620660	0.878231	0.317725
	C147	C	0.384135	0.108340	0.318999
	C148	C	0.678431	0.373997	0.879983
	C149	C	0.678155	0.611878	0.109629
	C150	C	0.325470	0.611395	0.879861
	C151	C	0.324458	0.374663	0.109190
	C152	C	0.886995	0.668248	0.376884
	C153	C	0.117324	0.669367	0.612738
	C154	C	0.886961	0.317206	0.611656
	C155	C	0.117169	0.316002	0.375272
	C156	C	0.886718	0.374879	0.669696
	C157	C	0.117043	0.612165	0.671093
	C158	C	0.886894	0.610376	0.319105
	C159	C	0.116767	0.373143	0.316580
	C160	C	0.383296	0.668947	0.879937
	C161	C	0.620301	0.669549	0.109466
	C162	C	0.620300	0.316487	0.879814
	C163	C	0.382183	0.316705	0.109493
	C164	C	0.678798	0.878318	0.374949
	C165	C	0.679142	0.107336	0.614026
	C166	C	0.325762	0.878273	0.613113
	C167	C	0.326309	0.108296	0.376359
	C168	C	0.882866	0.378030	0.171024
	C169	C	0.120922	0.607943	0.171469
	C170	C	0.120393	0.377976	0.817889
	C171	C	0.883722	0.608230	0.819010
	C172	C	0.178977	0.873998	0.379605
	C173	C	0.178584	0.112247	0.609656
	C174	C	0.825801	0.111485	0.379688
	C175	C	0.825870	0.874398	0.608987
	C176	C	0.387287	0.168702	0.876665
	C177	C	0.616673	0.170770	0.114641
	C178	C	0.387427	0.816459	0.113066
	C179	C	0.616778	0.816078	0.875700
	C180	C	0.387673	0.873827	0.171238
	C181	C	0.616798	0.112841	0.172242
	C182	C	0.387433	0.111475	0.818342
	C183	C	0.616457	0.873325	0.817672
	C184	C	0.883534	0.169500	0.379751
	C185	C	0.121059	0.170224	0.609598
	C186	C	0.120928	0.816100	0.379406
	C187	C	0.884204	0.817356	0.609488
	C188	C	0.178207	0.377862	0.875654
	C189	C	0.178344	0.608099	0.113489
	C190	C	0.825345	0.377932	0.113150
	C191	C	0.826123	0.608414	0.877055
	C192	C	0.402808	0.087004	0.594578
	C193	C	0.601846	0.898600	0.593868
	C194	C	0.602111	0.086945	0.395457
	C195	C	0.402392	0.899018	0.394359
	C196	C	0.602038	0.393748	0.088495
	C197	C	0.601993	0.592658	0.900681
	C198	C	0.401509	0.593193	0.088661
	C199	C	0.402088	0.392760	0.901050
	C200	C	0.095957	0.592491	0.394718
	C201	C	0.908129	0.593973	0.595153
	C202	C	0.095917	0.393797	0.594334
	C203	C	0.908630	0.392997	0.394810
	C204	C	0.901668	0.587091	0.095323
	C205	C	0.100490	0.399904	0.092891
	C206	C	0.101719	0.586712	0.895221
	C207	C	0.902415	0.399171	0.894303
	C208	C	0.102396	0.893247	0.588117
	C209	C	0.101596	0.092090	0.401267
	C210	C	0.903043	0.092813	0.588211
	C211	C	0.902785	0.892712	0.400245
	C212	C	0.595790	0.092256	0.895589
	C213	C	0.408665	0.092378	0.094324
	C214	C	0.595986	0.893399	0.093901
	C215	C	0.408132	0.892849	0.894631
	Zn216	Zn	0.502158	-0.007193	0.744930
	Zn217	Zn	0.502052	-0.006999	0.244703
	Zn218	Zn	0.752264	0.493124	-0.005004
	Zn219	Zn	0.251567	0.493497	-0.005514
	Zn220	Zn	0.002119	0.743092	0.494585
	Zn221	Zn	0.002386	0.242788	0.494578
	Zn222	Zn	0.001788	0.492989	0.744554
	Zn223	Zn	0.001893	0.492861	0.244379
	Zn224	Zn	0.502065	0.742947	-0.005287
	Zn225	Zn	0.502227	0.243414	-0.004620
	Zn226	Zn	0.752279	-0.007065	0.494606
	Zn227	Zn	0.252769	-0.006615	0.494656
	N228	N	0.417127	0.955488	0.673068
	N229	N	0.587674	0.029876	0.673199
	N230	N	0.586845	0.955591	0.316935
	N231	N	0.417348	0.030860	0.316715
	N232	N	0.680354	0.407700	0.957162
	N233	N	0.680264	0.578380	0.032200
	N234	N	0.323542	0.578359	0.957136
	N235	N	0.323365	0.408068	0.031873
	N236	N	0.964583	0.670892	0.409538
	N237	N	0.039899	0.671362	0.579497
	N238	N	0.964410	0.315448	0.578707
	N239	N	0.039963	0.314547	0.409050
	N240	N	0.964237	0.408147	0.672171
	N241	N	0.039499	0.579278	0.673613
	N242	N	0.964349	0.577421	0.316764
	N243	N	0.039410	0.406749	0.314982
	N244	N	0.416656	0.671007	0.957287
	N245	N	0.587176	0.671379	0.032041
	N246	N	0.586915	0.315215	0.957269
	N247	N	0.416097	0.314620	0.032461
	N248	N	0.680738	0.955597	0.408786
	N249	N	0.680643	0.029992	0.580115
	N250	N	0.324199	0.955701	0.579931
	N251	N	0.323928	0.030416	0.408803
	N252	N	0.916137	0.455477	0.173174
	N253	N	0.086978	0.530649	0.172635
	N254	N	0.087316	0.455448	0.816087
	N255	N	0.916715	0.530634	0.816466
	N256	N	0.181057	0.907642	0.456899
	N257	N	0.180355	0.078393	0.532435
	N258	N	0.824083	0.078175	0.456954
	N259	N	0.823946	0.907349	0.531361
	N260	N	0.464435	0.170735	0.910149
	N261	N	0.539528	0.172193	0.080917
	N262	N	0.464624	0.814899	0.079525
	N263	N	0.539421	0.814303	0.909072
	N264	N	0.465117	0.907094	0.173240
	N265	N	0.539655	0.078723	0.173392
	N266	N	0.464959	0.078300	0.816426
	N267	N	0.539133	0.906774	0.815859
	N268	N	0.916817	0.171474	0.457292
	N269	N	0.087435	0.171678	0.532378
	N270	N	0.087445	0.814489	0.456747
	N271	N	0.917719	0.815434	0.532251
	N272	N	0.180195	0.455392	0.909191
	N273	N	0.179756	0.530857	0.079598
	N274	N	0.823338	0.455545	0.080226
	N275	N	0.824178	0.530882	0.910093
	O276	O	1.045591	-0.007002	0.976876
	H277	H	1.052310	-0.014443	0.973582
	H278	H	1.049848	-0.002263	0.976614
	O279	O	0.041962	1.011800	1.006154
	H280	H	0.038782	1.019887	1.010581
	H281	H	0.037511	1.011600	1.011644
	O282	O	1.035243	1.003298	-0.026755
	H283	H	1.034308	0.992268	-0.032624
	H284	H	1.032416	1.004669	-0.021027
	O285	O	0.070291	1.000272	1.002382
	H286	H	0.063168	0.999431	1.013212
	H287	H	0.081609	1.009298	0.984470
