data_Molecule from HDF5

_cell_length_a		16.323258
_cell_length_b		16.307740
_cell_length_c		16.273073
_cell_angle_alpha	90.056766
_cell_angle_beta	90.159612
_cell_angle_gamma	89.853281
_symmetry_space_group_name_H-M	'P 1'
_symmetry_Int_Tables_number		1

loop_
	_symmetry_equiv_pos_as_xyz
	x,y,z

loop_
	_atom_site_label
	_atom_site_type_symbol
	_atom_site_fract_x
	_atom_site_fract_y
	_atom_site_fract_z
	H0	H	0.405111	0.836458	0.718117
	H1	H	0.600415	0.163661	0.717872
	H2	H	0.600808	0.836350	0.289372
	H3	H	0.403312	0.163130	0.289204
	H4	H	0.716189	0.401227	0.840912
	H5	H	0.715726	0.598438	0.167329
	H6	H	0.285062	0.599168	0.840733
	H7	H	0.290503	0.403240	0.168705
	H8	H	0.838968	0.713164	0.405444
	H9	H	0.165292	0.712690	0.604111
	H10	H	0.839149	0.283970	0.602560
	H11	H	0.165556	0.283983	0.406104
	H12	H	0.838134	0.402119	0.716838
	H13	H	0.165072	0.596254	0.720339
	H14	H	0.838606	0.597826	0.289990
	H15	H	0.165604	0.400227	0.290068
	H16	H	0.402287	0.714677	0.839702
	H17	H	0.600210	0.714081	0.167121
	H18	H	0.600622	0.285938	0.840089
	H19	H	0.403503	0.284825	0.166555
	H20	H	0.716648	0.836550	0.404757
	H21	H	0.717820	0.162942	0.603589
	H22	H	0.288544	0.836193	0.601987
	H23	H	0.285566	0.162314	0.404129
	H24	H	0.903895	0.335683	0.218601
	H25	H	0.100170	0.663251	0.220605
	H26	H	0.099675	0.335204	0.792446
	H27	H	0.901115	0.662237	0.789235
	H28	H	0.216248	0.898924	0.340456
	H29	H	0.216805	0.096542	0.666785
	H30	H	0.788073	0.096627	0.340005
	H31	H	0.788172	0.900521	0.668193
	H32	H	0.339013	0.214832	0.904035
	H33	H	0.665538	0.214106	0.101864
	H34	H	0.339264	0.787505	0.100101
	H35	H	0.665559	0.783455	0.903133
	H36	H	0.338745	0.902363	0.216547
	H37	H	0.665376	0.098269	0.218721
	H38	H	0.338965	0.099024	0.787718
	H39	H	0.665625	0.901009	0.788798
	H40	H	0.901130	0.214009	0.340921
	H41	H	0.100884	0.212020	0.667927
	H42	H	0.100726	0.782839	0.340758
	H43	H	0.905005	0.784992	0.667828
	H44	H	0.217226	0.336916	0.906639
	H45	H	0.216521	0.663600	0.104853
	H46	H	0.786981	0.336463	0.102600
	H47	H	0.786437	0.662251	0.906000
	H48	H	0.410835	0.116522	0.598986
	H49	H	0.594025	0.882165	0.605271
	H50	H	0.589698	0.111785	0.419668
	H51	H	0.409995	0.885637	0.415339
	H52	H	0.594864	0.412515	0.118916
	H53	H	0.594863	0.587299	0.888133
	H54	H	0.406728	0.597987	0.121376
	H55	H	0.411920	0.393567	0.883525
	H56	H	0.119063	0.596317	0.414595
	H57	H	0.882378	0.601179	0.599970
	H58	H	0.119719	0.408651	0.605753
	H59	H	0.886305	0.411626	0.406129
	H60	H	0.120691	0.397406	0.598220
	H61	H	0.888782	0.590899	0.588126
	H62	H	0.116252	0.586436	0.415323
	H63	H	0.883371	0.399352	0.410383
	H64	H	0.407061	0.591204	0.119784
	H65	H	0.590032	0.594902	0.887860
	H66	H	0.589274	0.404030	0.119166
	H67	H	0.393964	0.412355	0.885331
	H68	H	0.604756	0.118639	0.412372
	H69	H	0.588339	0.887534	0.590522
	H70	H	0.411557	0.113690	0.591065
	H71	H	0.403012	0.881101	0.407874
	H72	H	0.913638	0.614066	0.096453
	H73	H	0.085997	0.389416	0.089704
	H74	H	0.088650	0.612129	0.920806
	H75	H	0.916874	0.386447	0.914019
	H76	H	0.099427	0.910971	0.620155
	H77	H	0.092578	0.093644	0.386515
	H78	H	0.905698	0.090894	0.621075
	H79	H	0.908063	0.911625	0.389417
	H80	H	0.620431	0.100081	0.907702
	H81	H	0.387397	0.090829	0.095380
	H82	H	0.620462	0.901906	0.097822
	H83	H	0.388865	0.908591	0.916070
	H84	H	0.617514	0.907442	0.091931
	H85	H	0.385710	0.094221	0.098610
	H86	H	0.615618	0.092717	0.918855
	H87	H	0.387084	0.912213	0.905413
	H88	H	0.911789	0.087964	0.618087
	H89	H	0.096527	0.090862	0.386566
	H90	H	0.089471	0.905660	0.618406
	H91	H	0.913481	0.901759	0.388191
	H92	H	0.103009	0.618390	0.913211
	H93	H	0.107976	0.382275	0.091616
	H94	H	0.903054	0.615827	0.093847
	H95	H	0.899963	0.382242	0.916697
	H96	H	0.403884	0.116320	0.593802
	H97	H	0.604454	0.882184	0.592682
	H98	H	0.589485	0.117514	0.402123
	H99	H	0.413864	0.882722	0.404915
	H100	H	0.598825	0.403989	0.122973
	H101	H	0.598082	0.594922	0.884785
	H102	H	0.413216	0.595194	0.119267
	H103	H	0.418046	0.416901	0.893913
	H104	H	0.119610	0.590030	0.406936
	H105	H	0.886735	0.584221	0.603984
	H106	H	0.115604	0.408757	0.592806
	H107	H	0.889561	0.408520	0.418197
	H108	H	0.906969	0.617827	0.104093
	H109	H	0.093823	0.380257	0.109312
	H110	H	0.088607	0.616679	0.904137
	H111	H	0.907025	0.379496	0.901005
	H112	H	0.099034	0.899451	0.622990
	H113	H	0.091722	0.089071	0.388278
	H114	H	0.911762	0.095381	0.621369
	H115	H	0.902389	0.902409	0.384945
	H116	H	0.617586	0.086729	0.906331
	H117	H	0.385824	0.095500	0.093790
	H118	H	0.618944	0.910360	0.100136
	H119	H	0.384323	0.901269	0.908815
	C120	C	0.380911	0.007961	0.624262
	C121	C	0.624289	0.991793	0.625260
	C122	C	0.623436	0.007978	0.382489
	C123	C	0.379762	0.991059	0.380979
	C124	C	0.623027	0.378173	0.012251
	C125	C	0.622689	0.621025	0.995336
	C126	C	0.379880	0.622739	0.012058
	C127	C	0.380195	0.378839	0.995586
	C128	C	0.010228	0.619646	0.383541
	C129	C	0.993564	0.620415	0.626683
	C130	C	0.010721	0.376851	0.626642
	C131	C	0.994086	0.377142	0.382738
	C132	C	0.880076	0.507807	0.125939
	C133	C	0.124157	0.491695	0.126742
	C134	C	0.122622	0.507816	0.884023
	C135	C	0.879476	0.490701	0.882469
	C136	C	0.123614	0.876949	0.512358
	C137	C	0.122877	0.119684	0.495391
	C138	C	0.880203	0.120614	0.512089
	C139	C	0.880013	0.876819	0.495541
	C140	C	0.510363	0.121808	0.881781
	C141	C	0.493912	0.122053	0.124943
	C142	C	0.510992	0.878781	0.124815
	C143	C	0.494577	0.878625	0.881602
	C144	C	0.384517	0.885139	0.679916
	C145	C	0.621774	0.114689	0.680472
	C146	C	0.621250	0.885266	0.326940
	C147	C	0.382206	0.114149	0.326550
	C148	C	0.678458	0.380689	0.889444
	C149	C	0.677761	0.618721	0.118556
	C150	C	0.323646	0.619528	0.889219
	C151	C	0.327221	0.382304	0.119352
	C152	C	0.887752	0.675393	0.385267
	C153	C	0.116416	0.675201	0.624714
	C154	C	0.887845	0.321775	0.623682
	C155	C	0.116730	0.321763	0.385554
	C156	C	0.887381	0.380309	0.680390
	C157	C	0.116432	0.617126	0.682121
	C158	C	0.887613	0.617828	0.327762
	C159	C	0.116792	0.379597	0.327751
	C160	C	0.381554	0.677325	0.888707
	C161	C	0.619973	0.675917	0.118450
	C162	C	0.620896	0.323401	0.889284
	C163	C	0.383186	0.323206	0.118145
	C164	C	0.678704	0.885240	0.384526
	C165	C	0.679572	0.114531	0.623129
	C166	C	0.326642	0.884905	0.622119
	C167	C	0.323870	0.113738	0.383817
	C168	C	0.883026	0.384604	0.180936
	C169	C	0.120767	0.614630	0.182217
	C170	C	0.120432	0.384539	0.829510
	C171	C	0.881235	0.613450	0.826927
	C172	C	0.178517	0.878573	0.389261
	C173	C	0.179036	0.117193	0.618158
	C174	C	0.825072	0.117599	0.389297
	C175	C	0.825482	0.879679	0.618922
	C176	C	0.387724	0.177503	0.882980
	C177	C	0.616705	0.176763	0.122690
	C178	C	0.387960	0.824623	0.121356
	C179	C	0.616961	0.822266	0.883341
	C180	C	0.387883	0.881910	0.179424
	C181	C	0.616708	0.119240	0.180601
	C182	C	0.387685	0.119406	0.825674
	C183	C	0.617031	0.880721	0.826568
	C184	C	0.881452	0.176008	0.389667
	C185	C	0.121418	0.174612	0.618737
	C186	C	0.121361	0.820659	0.389592
	C187	C	0.883565	0.822389	0.618830
	C188	C	0.178665	0.385290	0.886340
	C189	C	0.178753	0.614682	0.124830
	C190	C	0.825026	0.384913	0.123321
	C191	C	0.824095	0.613638	0.884978
	C192	C	0.402574	0.093482	0.601637
	C193	C	0.602152	0.906112	0.602763
	C194	C	0.601111	0.093814	0.404811
	C195	C	0.402307	0.905333	0.402926
	C196	C	0.600757	0.400481	0.098201
	C197	C	0.600739	0.598767	0.909144
	C198	C	0.402457	0.601179	0.097989
	C199	C	0.401637	0.401034	0.909805
	C200	C	0.096257	0.597291	0.405711
	C201	C	0.907947	0.598675	0.603968
	C202	C	0.096521	0.398522	0.605212
	C203	C	0.908481	0.399783	0.404983
	C204	C	0.901489	0.593553	0.104375
	C205	C	0.102262	0.406080	0.103818
	C206	C	0.100117	0.593456	0.906023
	C207	C	0.901390	0.404990	0.904282
	C208	C	0.102283	0.899144	0.598321
	C209	C	0.100169	0.097814	0.409550
	C210	C	0.902913	0.098151	0.598241
	C211	C	0.901726	0.898741	0.409694
	C212	C	0.595698	0.099672	0.904501
	C213	C	0.408457	0.100111	0.102520
	C214	C	0.596892	0.900234	0.103021
	C215	C	0.409053	0.900876	0.903646
	Zn216	Zn	0.502647	0.000363	0.753223
	Zn217	Zn	0.502555	-0.000118	0.253525
	Zn218	Zn	0.751038	0.499730	0.004206
	Zn219	Zn	0.251951	0.500157	0.005224
	Zn220	Zn	0.002189	0.748675	0.504178
	Zn221	Zn	0.001953	0.248629	0.504353
	Zn222	Zn	0.001682	0.498802	0.754894
	Zn223	Zn	0.002105	0.499203	0.254648
	Zn224	Zn	0.502437	0.749953	0.003027
	Zn225	Zn	0.501760	0.250387	0.002937
	Zn226	Zn	0.752315	-0.000404	0.504159
	Zn227	Zn	0.251591	-0.001289	0.502989
	N228	N	0.417638	0.962698	0.681209
	N229	N	0.588042	0.037502	0.681828
	N230	N	0.587355	0.962607	0.325829
	N231	N	0.416107	0.036885	0.324591
	N232	N	0.679989	0.413944	0.967081
	N233	N	0.679462	0.585126	0.041048
	N234	N	0.322406	0.586402	0.966962
	N235	N	0.325238	0.416230	0.042116
	N236	N	0.965062	0.676544	0.419429
	N237	N	0.038894	0.677486	0.591055
	N238	N	0.965516	0.319517	0.590966
	N239	N	0.039343	0.320281	0.418971
	N240	N	0.964644	0.413735	0.682305
	N241	N	0.039149	0.583978	0.683471
	N242	N	0.964799	0.583850	0.326907
	N243	N	0.039502	0.413289	0.325874
	N244	N	0.415664	0.679257	0.966002
	N245	N	0.586612	0.677367	0.040617
	N246	N	0.587005	0.321995	0.966619
	N247	N	0.415291	0.320973	0.040191
	N248	N	0.680257	0.962568	0.418492
	N249	N	0.681253	0.036930	0.589648
	N250	N	0.324195	0.962109	0.588308
	N251	N	0.322306	0.036106	0.416898
	N252	N	0.916574	0.462000	0.182637
	N253	N	0.087573	0.537141	0.183416
	N254	N	0.086173	0.461664	0.827991
	N255	N	0.914923	0.536072	0.825348
	N256	N	0.180339	0.912492	0.466631
	N257	N	0.179939	0.083706	0.540538
	N258	N	0.824445	0.083808	0.466743
	N259	N	0.823325	0.913090	0.541252
	N260	N	0.464912	0.179127	0.917080
	N261	N	0.539252	0.178798	0.089084
	N262	N	0.465352	0.822583	0.088107
	N263	N	0.539640	0.820666	0.916789
	N264	N	0.465483	0.914655	0.181806
	N265	N	0.539416	0.085905	0.182265
	N266	N	0.464971	0.085619	0.824661
	N267	N	0.540091	0.915208	0.825590
	N268	N	0.915357	0.177624	0.467139
	N269	N	0.087319	0.176351	0.541337
	N270	N	0.087844	0.819651	0.467086
	N271	N	0.916731	0.820524	0.541197
	N272	N	0.180229	0.462836	0.919606
	N273	N	0.181010	0.537199	0.091111
	N274	N	0.823198	0.462235	0.089601
	N275	N	0.823009	0.536383	0.918953
	O276	O	0.482480	0.582658	-0.544007
	H277	H	0.479122	0.575883	-0.541762
	H278	H	0.479848	0.585859	-0.544165
	O279	O	0.066678	-0.036982	-0.015526
	H280	H	0.084536	-0.056289	-0.011598
	H281	H	0.061757	-0.032919	-0.022310
	O282	O	0.032231	-0.004874	0.987006
	H283	H	0.032188	-0.011263	0.989685
	H284	H	0.034628	-0.000651	0.989573
	O285	O	0.508609	0.505420	0.485179
	H286	H	0.517975	0.504641	0.483096
	H287	H	0.505838	0.503366	0.488003
	O288	O	0.504468	0.509485	0.488601
	H289	H	0.506094	0.510048	0.481702
	H290	H	0.503028	0.515403	0.491401
	O291	O	0.516639	0.537257	0.503481
	H292	H	0.506178	0.542335	0.498212
	H293	H	0.515567	0.535194	0.505351
	O294	O	0.068721	0.044480	0.005238
	H295	H	0.072337	0.050307	0.001548
	H296	H	0.064507	0.044466	-0.007022
	O297	O	0.539168	0.556957	0.435464
	H298	H	0.534647	0.559714	0.431959
	H299	H	0.541486	0.552380	0.440029
	O300	O	0.489944	1.505215	0.480976
	H301	H	0.495015	1.501039	0.483692
	H302	H	0.496030	1.498138	0.482016
	O303	O	0.473152	0.529288	0.441524
	H304	H	0.473062	0.526957	0.429400
	H305	H	0.472461	0.531306	0.443417
	O306	O	0.042259	0.011320	0.965615
	H307	H	0.039966	0.011898	0.980390
	H308	H	0.042295	0.005572	0.955469
	O309	O	1.060858	1.003587	0.973549
	H310	H	1.064965	1.013670	0.964981
	H311	H	1.052138	1.004576	0.966904
	O312	O	0.503554	0.500608	0.540730
	H313	H	0.503369	0.505824	0.533636
	H314	H	0.507013	0.502996	0.543346
	O315	O	0.510391	0.469909	0.526408
	H316	H	0.507003	0.476862	0.527279
	H317	H	0.513192	0.462901	0.524461
	O318	O	0.023641	1.002145	0.021334
	H319	H	0.018755	1.011879	0.020367
	H320	H	0.034779	1.002346	0.031050
	O321	O	0.541170	0.509536	0.554629
	H322	H	0.540192	0.518083	0.558980
	H323	H	0.542251	0.506130	0.554579
