data_Molecule from HDF5

_cell_length_a		16.399964
_cell_length_b		16.468713
_cell_length_c		16.261219
_cell_angle_alpha	90.099608
_cell_angle_beta	90.419350
_cell_angle_gamma	90.145752
_symmetry_space_group_name_H-M	'P 1'
_symmetry_Int_Tables_number		1

loop_
	_symmetry_equiv_pos_as_xyz
	x,y,z

loop_
	_atom_site_label
	_atom_site_type_symbol
	_atom_site_fract_x
	_atom_site_fract_y
	_atom_site_fract_z
	H0	H	0.401697	0.836175	0.702179
	H1	H	0.605700	0.156525	0.708370
	H2	H	0.599702	0.835645	0.272985
	H3	H	0.398162	0.156041	0.268405
	H4	H	0.718341	0.391045	0.826812
	H5	H	0.719114	0.593218	0.151256
	H6	H	0.284283	0.594058	0.827204
	H7	H	0.282625	0.389883	0.150374
	H8	H	0.841229	0.712645	0.382263
	H9	H	0.161456	0.714234	0.591227
	H10	H	0.842583	0.272867	0.592897
	H11	H	0.160492	0.273755	0.382540
	H12	H	0.839523	0.393353	0.702691
	H13	H	0.161784	0.594984	0.705405
	H14	H	0.840180	0.593023	0.270452
	H15	H	0.162670	0.393684	0.270494
	H16	H	0.399071	0.711681	0.827545
	H17	H	0.605770	0.711967	0.150988
	H18	H	0.603390	0.274879	0.827613
	H19	H	0.398629	0.275358	0.149706
	H20	H	0.720112	0.837222	0.382703
	H21	H	0.722574	0.156275	0.592159
	H22	H	0.282546	0.837765	0.589475
	H23	H	0.277669	0.154339	0.379626
	H24	H	0.897239	0.336807	0.208506
	H25	H	0.105231	0.654586	0.206909
	H26	H	0.104716	0.335292	0.767162
	H27	H	0.900150	0.653981	0.771051
	H28	H	0.219298	0.892904	0.326828
	H29	H	0.222610	0.100743	0.649158
	H30	H	0.779819	0.100042	0.327021
	H31	H	0.784572	0.894893	0.647727
	H32	H	0.342955	0.217442	0.879676
	H33	H	0.660593	0.215961	0.094669
	H34	H	0.342636	0.774013	0.092229
	H35	H	0.662025	0.778818	0.888351
	H36	H	0.340378	0.892661	0.204794
	H37	H	0.661649	0.096987	0.208067
	H38	H	0.340882	0.098718	0.766627
	H39	H	0.662387	0.897720	0.773151
	H40	H	0.892736	0.218287	0.328166
	H41	H	0.108500	0.217345	0.647902
	H42	H	0.105916	0.774752	0.327830
	H43	H	0.899569	0.777469	0.647561
	H44	H	0.223443	0.336426	0.881212
	H45	H	0.223044	0.653048	0.093421
	H46	H	0.780559	0.336006	0.094446
	H47	H	0.782120	0.653431	0.885483
	H48	H	0.409644	0.111286	0.574960
	H49	H	0.592558	0.881942	0.585667
	H50	H	0.591778	0.110316	0.399130
	H51	H	0.406288	0.882957	0.400234
	H52	H	0.594597	0.400937	0.105182
	H53	H	0.595210	0.586429	0.872159
	H54	H	0.408036	0.579715	0.104525
	H55	H	0.411390	0.408372	0.876285
	H56	H	0.120124	0.592350	0.392865
	H57	H	0.886472	0.585836	0.578644
	H58	H	0.117188	0.399210	0.577932
	H59	H	0.886874	0.406045	0.394128
	H60	H	0.111773	0.408178	0.571328
	H61	H	0.884777	0.589507	0.579969
	H62	H	0.114804	0.590752	0.406777
	H63	H	0.888458	0.402487	0.401694
	H64	H	0.420233	0.583596	0.101992
	H65	H	0.590148	0.585583	0.874772
	H66	H	0.594454	0.410679	0.101959
	H67	H	0.414036	0.404772	0.875503
	H68	H	0.591311	0.110592	0.398497
	H69	H	0.589111	0.885513	0.575741
	H70	H	0.412516	0.111611	0.579837
	H71	H	0.407306	0.881943	0.394333
	H72	H	0.912080	0.608502	0.078460
	H73	H	0.100002	0.378608	0.077122
	H74	H	0.096242	0.608974	0.898650
	H75	H	0.909534	0.379493	0.896595
	H76	H	0.092332	0.908473	0.601560
	H77	H	0.092173	0.085522	0.372724
	H78	H	0.911478	0.095703	0.605375
	H79	H	0.903282	0.896214	0.366073
	H80	H	0.614711	0.092239	0.906625
	H81	H	0.387453	0.085763	0.076280
	H82	H	0.613245	0.905763	0.074353
	H83	H	0.386708	0.902737	0.896976
	H84	H	0.616467	0.907582	0.086009
	H85	H	0.388548	0.084614	0.075641
	H86	H	0.610663	0.077456	0.902936
	H87	H	0.386295	0.903621	0.895299
	H88	H	0.904856	0.076104	0.601769
	H89	H	0.087593	0.081043	0.375854
	H90	H	0.088701	0.904397	0.602593
	H91	H	0.906371	0.914861	0.373364
	H92	H	0.091446	0.608416	0.894505
	H93	H	0.086629	0.380362	0.084777
	H94	H	0.911765	0.607516	0.075996
	H95	H	0.909522	0.379810	0.896698
	H96	H	0.414219	0.108468	0.575192
	H97	H	0.599693	0.881513	0.576981
	H98	H	0.591237	0.109648	0.398493
	H99	H	0.411965	0.883516	0.398240
	H100	H	0.585687	0.404984	0.101828
	H101	H	0.591437	0.590503	0.872181
	H102	H	0.411025	0.592326	0.106815
	H103	H	0.409957	0.404732	0.873462
	H104	H	0.113858	0.579248	0.396568
	H105	H	0.886062	0.589485	0.575430
	H106	H	0.115825	0.409968	0.583414
	H107	H	0.890617	0.410449	0.400191
	H108	H	0.909160	0.608283	0.077098
	H109	H	0.087716	0.385010	0.069667
	H110	H	0.091156	0.606160	0.900640
	H111	H	0.909151	0.380172	0.896696
	H112	H	0.093981	0.904409	0.603366
	H113	H	0.085870	0.087753	0.373872
	H114	H	0.924695	0.081546	0.596513
	H115	H	0.921481	0.901881	0.373962
	H116	H	0.616694	0.086721	0.891919
	H117	H	0.387727	0.084405	0.077411
	H118	H	0.618330	0.896940	0.080879
	H119	H	0.386041	0.901392	0.894934
	C120	C	0.380924	0.005146	0.607733
	C121	C	0.624513	0.988576	0.610464
	C122	C	0.621724	0.004772	0.367468
	C123	C	0.377478	0.987437	0.365099
	C124	C	0.622203	0.373795	-0.003349
	C125	C	0.623343	0.616472	0.980392
	C126	C	0.381706	0.615372	-0.002218
	C127	C	0.380110	0.373232	0.980657
	C128	C	0.010283	0.617141	0.366512
	C129	C	0.992005	0.617848	0.609274
	C130	C	0.009532	0.373821	0.609156
	C131	C	0.993533	0.374082	0.366727
	C132	C	0.880000	0.503025	0.108926
	C133	C	0.123481	0.486314	0.109581
	C134	C	0.123495	0.502746	0.866111
	C135	C	0.878826	0.485232	0.866113
	C136	C	0.122504	0.874758	0.496153
	C137	C	0.122025	0.117262	0.479758
	C138	C	0.880495	0.116912	0.495646
	C139	C	0.880112	0.874283	0.477914
	C140	C	0.509147	0.116767	0.867369
	C141	C	0.493204	0.116478	0.109370
	C142	C	0.509829	0.872986	0.110402
	C143	C	0.492892	0.873592	0.866598
	C144	C	0.381595	0.884374	0.664614
	C145	C	0.624937	0.108762	0.668949
	C146	C	0.620243	0.883846	0.310429
	C147	C	0.377851	0.107774	0.306451
	C148	C	0.679834	0.372386	0.875232
	C149	C	0.680894	0.614155	0.102416
	C150	C	0.323182	0.614394	0.875745
	C151	C	0.321596	0.371519	0.101773
	C152	C	0.889366	0.673974	0.364032
	C153	C	0.113076	0.675179	0.610294
	C154	C	0.890015	0.313446	0.610830
	C155	C	0.113078	0.314173	0.364673
	C156	C	0.888394	0.373432	0.665663
	C157	C	0.113565	0.615801	0.666851
	C158	C	0.888779	0.614554	0.308317
	C159	C	0.114199	0.373641	0.308646
	C160	C	0.380225	0.672880	0.876038
	C161	C	0.624539	0.673213	0.102321
	C162	C	0.622393	0.314767	0.875542
	C163	C	0.379286	0.314148	0.101466
	C164	C	0.680349	0.885070	0.365293
	C165	C	0.683222	0.108539	0.611232
	C166	C	0.322645	0.885094	0.608189
	C167	C	0.318054	0.107089	0.361974
	C168	C	0.878577	0.383985	0.168763
	C169	C	0.124485	0.606319	0.168150
	C170	C	0.124116	0.383383	0.806368
	C171	C	0.879886	0.605929	0.809183
	C172	C	0.180532	0.873996	0.375260
	C173	C	0.183074	0.119271	0.600609
	C174	C	0.819786	0.118806	0.375051
	C175	C	0.823239	0.875032	0.599503
	C176	C	0.390011	0.177045	0.862851
	C177	C	0.612993	0.175938	0.112633
	C178	C	0.389986	0.814017	0.110760
	C179	C	0.613934	0.817743	0.868522
	C180	C	0.388863	0.873345	0.166628
	C181	C	0.613703	0.116603	0.168805
	C182	C	0.388912	0.117570	0.806820
	C183	C	0.614211	0.876583	0.811196
	C184	C	0.876369	0.177393	0.375764
	C185	C	0.126074	0.177241	0.600275
	C186	C	0.124122	0.815201	0.375658
	C187	C	0.880247	0.816690	0.599276
	C188	C	0.182941	0.383755	0.863699
	C189	C	0.183236	0.605681	0.111803
	C190	C	0.820647	0.383643	0.111446
	C191	C	0.821251	0.605449	0.865971
	C192	C	0.404985	0.088836	0.583641
	C193	C	0.600670	0.904891	0.586372
	C194	C	0.598397	0.088407	0.391664
	C195	C	0.401460	0.904489	0.390098
	C196	C	0.598428	0.398282	0.080897
	C197	C	0.599185	0.593989	0.895052
	C198	C	0.406080	0.591962	0.082436
	C199	C	0.404579	0.398510	0.896634
	C200	C	0.094329	0.594292	0.391522
	C201	C	0.907797	0.595043	0.585073
	C202	C	0.093305	0.398582	0.584680
	C203	C	0.910267	0.398919	0.391586
	C204	C	0.904069	0.586374	0.084225
	C205	C	0.098611	0.402913	0.084398
	C206	C	0.099533	0.586291	0.890774
	C207	C	0.902405	0.401573	0.889774
	C208	C	0.098537	0.898761	0.580662
	C209	C	0.095952	0.092154	0.395880
	C210	C	0.906435	0.091824	0.579475
	C211	C	0.903524	0.897569	0.393145
	C212	C	0.592558	0.092621	0.893083
	C213	C	0.409538	0.092124	0.083759
	C214	C	0.594214	0.896595	0.087149
	C215	C	0.408192	0.895979	0.889282
	Zn216	Zn	0.501197	-0.003538	0.737768
	Zn217	Zn	0.500836	-0.004384	0.238166
	Zn218	Zn	0.750544	0.494171	-0.011666
	Zn219	Zn	0.252471	0.494158	-0.010673
	Zn220	Zn	0.001036	0.746041	0.486673
	Zn221	Zn	0.001467	0.245619	0.487823
	Zn222	Zn	0.000897	0.494667	0.737283
	Zn223	Zn	0.001933	0.495094	0.237955
	Zn224	Zn	0.502289	0.744776	-0.010615
	Zn225	Zn	0.501519	0.245417	-0.011395
	Zn226	Zn	0.751815	-0.003678	0.487158
	Zn227	Zn	0.250440	-0.002807	0.487843
	N228	N	0.417018	0.960234	0.664675
	N229	N	0.589150	0.033228	0.668667
	N230	N	0.584541	0.959143	0.311550
	N231	N	0.413993	0.032361	0.307921
	N232	N	0.679860	0.408279	0.951523
	N233	N	0.680279	0.579643	0.025355
	N234	N	0.323794	0.579389	0.952408
	N235	N	0.321940	0.407504	0.025538
	N236	N	0.965916	0.675949	0.399001
	N237	N	0.036409	0.676874	0.575486
	N238	N	0.966553	0.313437	0.576582
	N239	N	0.036982	0.314131	0.399764
	N240	N	0.963745	0.410110	0.664744
	N241	N	0.037178	0.581252	0.666773
	N242	N	0.965153	0.580195	0.309392
	N243	N	0.038955	0.410162	0.309841
	N244	N	0.415669	0.673754	0.952862
	N245	N	0.589689	0.674889	0.025251
	N246	N	0.587379	0.315410	0.951948
	N247	N	0.414650	0.314935	0.025092
	N248	N	0.681332	0.961306	0.400098
	N249	N	0.683249	0.032739	0.575753
	N250	N	0.322091	0.961304	0.573899
	N251	N	0.317386	0.031554	0.397438
	N252	N	0.915222	0.458939	0.167018
	N253	N	0.088084	0.531086	0.167054
	N254	N	0.087643	0.458426	0.808043
	N255	N	0.914796	0.530064	0.808656
	N256	N	0.179483	0.910576	0.451264
	N257	N	0.180706	0.082664	0.524487
	N258	N	0.822275	0.081788	0.450550
	N259	N	0.822766	0.909912	0.522724
	N260	N	0.465615	0.176569	0.899988
	N261	N	0.536978	0.175782	0.076307
	N262	N	0.466443	0.813582	0.076762
	N263	N	0.537384	0.815807	0.902017
	N264	N	0.464526	0.909344	0.166484
	N265	N	0.538180	0.080378	0.166986
	N266	N	0.463877	0.080769	0.809463
	N267	N	0.537745	0.910643	0.809753
	N268	N	0.913388	0.176256	0.451771
	N269	N	0.088754	0.176138	0.524492
	N270	N	0.088560	0.815583	0.451880
	N271	N	0.914625	0.816118	0.522616
	N272	N	0.182853	0.459052	0.900100
	N273	N	0.182856	0.529882	0.076244
	N274	N	0.821479	0.458806	0.074799
	N275	N	0.820221	0.529412	0.900294
	O276	O	0.628555	0.408544	0.474563
	H277	H	0.630432	0.417285	0.473133
	H278	H	0.628317	0.383697	0.467306
	O279	O	0.624681	0.574785	0.434437
	H280	H	0.629864	0.574181	0.452821
	H281	H	0.633565	0.588211	0.447558
	O282	O	0.681829	0.672237	0.518344
	H283	H	0.693753	0.681791	0.537434
	H284	H	0.689862	0.677820	0.529016
	O285	O	0.809059	0.012277	0.069398
	H286	H	0.810063	0.026357	0.081548
	H287	H	0.815133	0.023648	0.063726
	O288	O	0.092054	-0.162424	0.837688
	H289	H	0.092597	-0.158433	0.838568
	H290	H	0.093907	-0.170646	0.827078
	O291	O	0.318796	0.501793	0.456576
	H292	H	0.314255	0.522058	0.474019
	H293	H	0.318857	0.514932	0.445872
	O294	O	0.546122	0.352469	0.611056
	H295	H	0.552119	0.345227	0.619939
	H296	H	0.534964	0.350578	0.609141
	O297	O	1.211109	1.009514	1.180000
	H298	H	1.196736	0.995711	1.190497
	H299	H	1.223252	1.001017	1.204202
	O300	O	-0.098126	-0.159601	-0.036882
	H301	H	-0.087529	-0.157549	-0.018438
	H302	H	-0.087437	-0.174985	-0.041968
	O303	O	0.590492	0.619474	0.474585
	H304	H	0.588772	0.615541	0.475201
	H305	H	0.605161	0.616810	0.487392
	O306	O	1.013358	0.127149	-0.046795
	H307	H	1.010683	0.110499	-0.049329
	H308	H	1.022285	0.135693	-0.043431
	O309	O	0.590404	0.593418	0.492805
	H310	H	0.586194	0.594752	0.494796
	H311	H	0.588915	0.600012	0.505825
	O312	O	1.009369	0.819440	-0.029572
	H313	H	1.023319	0.815974	-0.028093
	H314	H	1.033368	0.821758	-0.023409
	O315	O	0.426852	0.482484	0.419771
	H316	H	0.410138	0.485495	0.418515
	H317	H	0.425950	0.476664	0.438868
	O318	O	0.453063	0.398723	0.629650
	H319	H	0.463701	0.412883	0.617549
	H320	H	0.447829	0.377045	0.621600
	O321	O	0.992275	-0.208843	1.180843
	H322	H	0.980001	-0.240599	1.204353
	H323	H	0.959007	-0.197323	1.174012
	O324	O	-0.177894	-0.087489	0.910759
	H325	H	-0.191327	-0.102449	0.917483
	H326	H	-0.160463	-0.078642	0.884590
	O327	O	0.515639	0.393499	0.548617
	H328	H	0.517369	0.410331	0.544835
	H329	H	0.521382	0.393211	0.559998
	O330	O	0.497253	0.698467	0.683578
	H331	H	0.507348	0.716700	0.693367
	H332	H	0.524143	0.703728	0.691140
	O333	O	1.214194	0.980908	0.967829
	H334	H	1.215242	0.981575	0.984208
	H335	H	1.204341	0.997923	0.972079
	O336	O	0.367874	0.518208	0.661334
	H337	H	0.364024	0.539528	0.672068
	H338	H	0.402973	0.514644	0.668676
	O339	O	1.063873	-0.050833	0.966851
	H340	H	1.077579	-0.047526	0.981460
	H341	H	1.064661	-0.060840	0.977763
	O342	O	-0.093206	1.031830	1.119551
	H343	H	-0.099165	1.043554	1.114134
	H344	H	-0.084183	1.045279	1.111649
	O345	O	0.028644	1.114570	0.856552
	H346	H	0.004326	1.100958	0.855780
	H347	H	0.024476	1.120475	0.842795
	O348	O	0.421972	0.485428	0.318782
	H349	H	0.411155	0.492007	0.306204
	H350	H	0.423179	0.488587	0.313359
	O351	O	0.019565	0.207847	0.197172
	H352	H	0.043381	0.225938	0.204308
	H353	H	0.053504	0.213119	0.208061
	O354	O	0.949981	0.973090	-0.214301
	H355	H	0.953276	0.970936	-0.214612
	H356	H	0.950493	0.969118	-0.219541
	O357	O	0.025574	1.028852	-0.124992
	H358	H	0.012729	1.032815	-0.110026
	H359	H	0.040403	1.003699	-0.124076
	O360	O	0.655508	0.338107	0.393621
	H361	H	0.646529	0.350101	0.366721
	H362	H	0.668380	0.323167	0.394248
	O363	O	0.504813	0.360623	0.346997
	H364	H	0.510877	0.353499	0.333442
	H365	H	0.495646	0.359420	0.353017
	O366	O	0.330401	0.356364	0.473301
	H367	H	0.323938	0.367359	0.475175
	H368	H	0.326817	0.343920	0.481956
	O369	O	0.591624	0.426329	0.323427
	H370	H	0.574158	0.424520	0.327708
	H371	H	0.585488	0.445212	0.318576
	O372	O	0.323790	0.692879	0.420201
	H373	H	0.342858	0.687245	0.415780
	H374	H	0.312556	0.692862	0.425116
	O375	O	0.486565	0.626706	0.334165
	H376	H	0.482871	0.630171	0.324257
	H377	H	0.489063	0.622416	0.337986
	O378	O	0.446756	0.639484	0.451098
	H379	H	0.449082	0.638005	0.459401
	H380	H	0.455808	0.636550	0.463163
	O381	O	0.340941	0.626012	0.553318
	H382	H	0.365118	0.621945	0.568075
	H383	H	0.343549	0.635586	0.544191
	O384	O	0.161899	0.835127	1.035542
	H385	H	0.164689	0.825470	1.052580
	H386	H	0.176850	0.858656	1.031418
	O387	O	0.933809	0.977791	0.149048
	H388	H	0.928959	0.978219	0.156751
	H389	H	0.936030	0.992306	0.153356
	O390	O	0.636240	0.695468	0.620862
	H391	H	0.647910	0.663002	0.629083
	H392	H	0.660486	0.706149	0.640527
	O393	O	0.858912	0.186907	1.059063
	H394	H	0.880696	0.181129	1.060689
	H395	H	0.870492	0.202087	1.063845
	O396	O	0.204086	1.189860	0.992318
	H397	H	0.201198	1.189697	0.972032
	H398	H	0.208349	1.197732	0.983780
	O399	O	0.160195	0.943028	0.841412
	H400	H	0.166569	0.948773	0.835872
	H401	H	0.153537	0.925403	0.852378
	O402	O	0.967182	-0.023569	0.848389
	H403	H	0.982673	-0.027643	0.861198
	H404	H	0.957772	-0.031374	0.852451
	O405	O	-0.189875	0.176115	-0.118940
	H406	H	-0.194870	0.189704	-0.097145
	H407	H	-0.167711	0.185934	-0.123419
	O408	O	1.421382	1.318907	1.598218
	H409	H	1.416207	1.310641	1.609846
	H410	H	1.398104	1.314162	1.597139
	O411	O	0.882698	1.055290	-0.171853
	H412	H	0.876739	1.064121	-0.166470
	H413	H	0.875675	1.072068	-0.174041
	O414	O	0.184447	0.179885	1.153377
	H415	H	0.194298	0.189335	1.102373
	H416	H	0.201999	0.141220	1.160935
	O417	O	0.072740	-0.032581	1.191624
	H418	H	0.062253	-0.061430	1.193264
	H419	H	0.051578	-0.012705	1.190583
	O420	O	-0.156190	0.812283	0.166332
	H421	H	-0.170231	0.832721	0.180804
	H422	H	-0.178195	0.812109	0.147136
	O423	O	1.062463	0.048532	-0.185741
	H424	H	1.068762	0.021589	-0.172555
	H425	H	1.055226	0.052550	-0.209693
	O426	O	-0.170217	-0.187289	0.843464
	H427	H	-0.160342	-0.152998	0.850349
	H428	H	-0.146353	-0.182243	0.862897
	O429	O	0.698172	0.517114	0.680243
	H430	H	0.718366	0.501552	0.693968
	H431	H	0.691429	0.493942	0.662293
