data_Molecule from HDF5

_cell_length_a		16.484912
_cell_length_b		16.319388
_cell_length_c		16.393987
_cell_angle_alpha	89.994486
_cell_angle_beta	89.893300
_cell_angle_gamma	89.999560
_symmetry_space_group_name_H-M	'P 1'
_symmetry_Int_Tables_number		1

loop_
	_symmetry_equiv_pos_as_xyz
	x,y,z

loop_
	_atom_site_label
	_atom_site_type_symbol
	_atom_site_fract_x
	_atom_site_fract_y
	_atom_site_fract_z
	H0	H	0.390017	0.823374	0.719480
	H1	H	0.596533	0.145117	0.717167
	H2	H	0.600124	0.825528	0.276341
	H3	H	0.391725	0.145284	0.282127
	H4	H	0.712724	0.377808	0.836565
	H5	H	0.716034	0.590377	0.155157
	H6	H	0.274323	0.587545	0.837010
	H7	H	0.269310	0.376976	0.154795
	H8	H	0.836120	0.705623	0.390234
	H9	H	0.153286	0.701812	0.599759
	H10	H	0.835973	0.260612	0.601003
	H11	H	0.153731	0.264294	0.393903
	H12	H	0.835799	0.376087	0.717909
	H13	H	0.151303	0.587833	0.718456
	H14	H	0.834606	0.587014	0.275473
	H15	H	0.152695	0.378241	0.275377
	H16	H	0.388674	0.705336	0.838799
	H17	H	0.595991	0.702537	0.158289
	H18	H	0.593993	0.264769	0.836568
	H19	H	0.389274	0.265952	0.157547
	H20	H	0.716084	0.824718	0.390719
	H21	H	0.716479	0.143190	0.604976
	H22	H	0.271941	0.823681	0.606824
	H23	H	0.274236	0.142903	0.396180
	H24	H	0.887446	0.323416	0.217520
	H25	H	0.097598	0.642255	0.216124
	H26	H	0.098635	0.323100	0.775562
	H27	H	0.884755	0.640651	0.771118
	H28	H	0.218626	0.875801	0.340124
	H29	H	0.215563	0.090627	0.656501
	H30	H	0.770554	0.091948	0.340438
	H31	H	0.768766	0.871215	0.655219
	H32	H	0.334172	0.204548	0.894341
	H33	H	0.650959	0.207920	0.103903
	H34	H	0.334486	0.762596	0.106195
	H35	H	0.649933	0.759791	0.890995
	H36	H	0.334806	0.880875	0.221080
	H37	H	0.651103	0.092384	0.221908
	H38	H	0.336418	0.092396	0.774750
	H39	H	0.649657	0.873769	0.772823
	H40	H	0.889931	0.203914	0.338060
	H41	H	0.099176	0.205536	0.655885
	H42	H	0.100549	0.762843	0.337157
	H43	H	0.889034	0.759111	0.655673
	H44	H	0.216373	0.325091	0.888077
	H45	H	0.214841	0.642051	0.103821
	H46	H	0.769466	0.325112	0.103568
	H47	H	0.769717	0.641076	0.886285
	H48	H	0.413415	0.094569	0.588009
	H49	H	0.581843	0.870123	0.589705
	H50	H	0.578788	0.098011	0.407408
	H51	H	0.407946	0.870934	0.411187
	H52	H	0.579372	0.388772	0.111494
	H53	H	0.582287	0.573595	0.884472
	H54	H	0.403171	0.573677	0.111673
	H55	H	0.403646	0.400628	0.885124
	H56	H	0.106279	0.570862	0.406377
	H57	H	0.884294	0.569594	0.577385
	H58	H	0.101166	0.402667	0.577400
	H59	H	0.879804	0.392559	0.405527
	H60	H	0.109157	0.397957	0.597747
	H61	H	0.882599	0.565264	0.585294
	H62	H	0.107392	0.571104	0.402395
	H63	H	0.880383	0.392469	0.406988
	H64	H	0.399238	0.572049	0.111639
	H65	H	0.581726	0.569710	0.885220
	H66	H	0.590132	0.399766	0.111427
	H67	H	0.408202	0.390566	0.882694
	H68	H	0.582111	0.094950	0.416139
	H69	H	0.577888	0.872701	0.584230
	H70	H	0.398041	0.095696	0.578657
	H71	H	0.404327	0.869582	0.412072
	H72	H	0.901344	0.598462	0.087122
	H73	H	0.076178	0.369756	0.086681
	H74	H	0.080282	0.597812	0.904085
	H75	H	0.910997	0.370923	0.906242
	H76	H	0.075204	0.892088	0.608678
	H77	H	0.088238	0.071618	0.382888
	H78	H	0.908991	0.071625	0.608864
	H79	H	0.910133	0.889288	0.384773
	H80	H	0.605108	0.073636	0.911316
	H81	H	0.380298	0.072792	0.093877
	H82	H	0.605164	0.897196	0.089107
	H83	H	0.384170	0.896256	0.917058
	H84	H	0.606343	0.892917	0.089311
	H85	H	0.379300	0.077748	0.090109
	H86	H	0.604778	0.071498	0.908806
	H87	H	0.381830	0.902383	0.906997
	H88	H	0.904064	0.074262	0.612324
	H89	H	0.085002	0.068859	0.385623
	H90	H	0.087235	0.888766	0.613201
	H91	H	0.897624	0.894707	0.382226
	H92	H	0.078986	0.595502	0.910661
	H93	H	0.083284	0.371121	0.077264
	H94	H	0.909289	0.595805	0.086417
	H95	H	0.901818	0.371505	0.915226
	H96	H	0.398659	0.101715	0.595912
	H97	H	0.584974	0.871036	0.583267
	H98	H	0.588200	0.100203	0.410101
	H99	H	0.406036	0.868586	0.408444
	H100	H	0.576590	0.402462	0.105531
	H101	H	0.578475	0.571906	0.884983
	H102	H	0.402659	0.570023	0.110403
	H103	H	0.397193	0.392519	0.880224
	H104	H	0.107009	0.574297	0.404915
	H105	H	0.880102	0.573959	0.584850
	H106	H	0.109927	0.382024	0.581335
	H107	H	0.881400	0.393196	0.405950
	H108	H	0.904186	0.595052	0.079968
	H109	H	0.087137	0.365677	0.087429
	H110	H	0.085526	0.597585	0.908632
	H111	H	0.899115	0.366363	0.903384
	H112	H	0.085032	0.900957	0.608891
	H113	H	0.083851	0.073437	0.383719
	H114	H	0.904028	0.068181	0.610702
	H115	H	0.907297	0.902763	0.388604
	H116	H	0.606551	0.074425	0.908280
	H117	H	0.381222	0.072260	0.087886
	H118	H	0.604960	0.894655	0.085126
	H119	H	0.378772	0.891042	0.907944
	C120	C	0.371254	-0.008024	0.620774
	C121	C	0.614697	0.976279	0.619103
	C122	C	0.615654	-0.007150	0.377647
	C123	C	0.374103	0.975559	0.379285
	C124	C	0.613565	0.363248	0.004557
	C125	C	0.614342	0.605070	0.989449
	C126	C	0.370755	0.604757	0.005970
	C127	C	0.370794	0.362644	0.988316
	C128	C	0.002439	0.604525	0.373191
	C129	C	0.986186	0.602691	0.616239
	C130	C	0.002386	0.360740	0.618163
	C131	C	0.985558	0.361329	0.374407
	C132	C	0.871794	0.491347	0.117431
	C133	C	0.114516	0.474217	0.116963
	C134	C	0.114245	0.491643	0.875045
	C135	C	0.871348	0.474269	0.874246
	C136	C	0.115866	0.861385	0.505684
	C137	C	0.116514	0.104551	0.489061
	C138	C	0.873695	0.104009	0.505895
	C139	C	0.871967	0.861064	0.489398
	C140	C	0.501046	0.105307	0.877307
	C141	C	0.484694	0.107307	0.121709
	C142	C	0.501032	0.862704	0.120822
	C143	C	0.484942	0.862556	0.877035
	C144	C	0.370390	0.871697	0.680616
	C145	C	0.615900	0.096735	0.678324
	C146	C	0.618355	0.873094	0.316490
	C147	C	0.372685	0.096586	0.320698
	C148	C	0.673108	0.359718	0.884603
	C149	C	0.675335	0.607982	0.108048
	C150	C	0.313286	0.606345	0.885309
	C151	C	0.310185	0.359875	0.107539
	C152	C	0.883308	0.665073	0.371631
	C153	C	0.105478	0.662607	0.618521
	C154	C	0.883512	0.300258	0.619755
	C155	C	0.105823	0.303210	0.374348
	C156	C	0.883323	0.357647	0.678097
	C157	C	0.104297	0.606016	0.677746
	C158	C	0.882432	0.605703	0.314691
	C159	C	0.105345	0.359984	0.315461
	C160	C	0.369996	0.665184	0.886252
	C161	C	0.615350	0.663719	0.109655
	C162	C	0.613857	0.303561	0.884486
	C163	C	0.370004	0.304518	0.108938
	C164	C	0.675986	0.872732	0.373718
	C165	C	0.675603	0.095690	0.622455
	C166	C	0.311621	0.871879	0.624276
	C167	C	0.314384	0.095668	0.377615
	C168	C	0.869154	0.371444	0.177649
	C169	C	0.116450	0.594302	0.177116
	C170	C	0.116715	0.371516	0.814971
	C171	C	0.867522	0.593113	0.811789
	C172	C	0.177726	0.858258	0.387154
	C173	C	0.176251	0.108575	0.608556
	C174	C	0.811713	0.108453	0.387430
	C175	C	0.810392	0.855515	0.607898
	C176	C	0.382059	0.165048	0.875529
	C177	C	0.603539	0.167853	0.122860
	C178	C	0.382019	0.802722	0.123863
	C179	C	0.602721	0.800071	0.873192
	C180	C	0.382185	0.861440	0.181239
	C181	C	0.603602	0.110617	0.181673
	C182	C	0.383275	0.109264	0.815741
	C183	C	0.602614	0.857294	0.814413
	C184	C	0.871417	0.164049	0.385985
	C185	C	0.117989	0.165765	0.608273
	C186	C	0.118710	0.802009	0.385767
	C187	C	0.869843	0.799003	0.608093
	C188	C	0.175512	0.372371	0.871102
	C189	C	0.174517	0.594250	0.120631
	C190	C	0.810190	0.372429	0.121069
	C191	C	0.810222	0.593539	0.869427
	C192	C	0.396113	0.075674	0.595006
	C193	C	0.588885	0.893019	0.593296
	C194	C	0.590339	0.076038	0.403702
	C195	C	0.398909	0.891674	0.403696
	C196	C	0.589031	0.389362	0.087626
	C197	C	0.588521	0.579205	0.906490
	C198	C	0.394635	0.579446	0.089370
	C199	C	0.395682	0.387387	0.904563
	C200	C	0.085360	0.579519	0.397600
	C201	C	0.903789	0.577013	0.590176
	C202	C	0.085298	0.386642	0.592795
	C203	C	0.902236	0.385546	0.399034
	C204	C	0.897399	0.574672	0.091921
	C205	C	0.089398	0.390694	0.091374
	C206	C	0.088961	0.575109	0.900437
	C207	C	0.896834	0.391202	0.900737
	C208	C	0.089827	0.886687	0.588480
	C209	C	0.092515	0.078799	0.405882
	C210	C	0.898537	0.078725	0.588992
	C211	C	0.897739	0.888084	0.406731
	C212	C	0.583885	0.080295	0.902456
	C213	C	0.401803	0.081780	0.097470
	C214	C	0.583779	0.887612	0.095266
	C215	C	0.402953	0.888975	0.903192
	Zn216	Zn	0.493717	-0.015759	0.748014
	Zn217	Zn	0.494106	-0.015408	0.250106
	Zn218	Zn	0.743449	0.483276	-0.004334
	Zn219	Zn	0.242037	0.483965	-0.004050
	Zn220	Zn	-0.005316	0.732869	0.495982
	Zn221	Zn	-0.005197	0.232638	0.496325
	Zn222	Zn	-0.006863	0.482289	0.746644
	Zn223	Zn	-0.006029	0.482044	0.244878
	Zn224	Zn	0.492005	0.733249	-0.000927
	Zn225	Zn	0.492751	0.234390	-0.001896
	Zn226	Zn	0.743858	-0.016227	0.498657
	Zn227	Zn	0.244665	-0.017344	0.498691
	N228	N	0.406570	0.947543	0.678761
	N229	N	0.578880	0.021183	0.676356
	N230	N	0.581747	0.948694	0.318577
	N231	N	0.409281	0.020840	0.321679
	N232	N	0.673200	0.396114	0.960222
	N233	N	0.674827	0.572358	0.031993
	N234	N	0.313510	0.569820	0.960815
	N235	N	0.310385	0.395046	0.031265
	N236	N	0.958766	0.664642	0.407218
	N237	N	0.030865	0.660823	0.581007
	N238	N	0.958852	0.301974	0.583459
	N239	N	0.030451	0.303897	0.410222
	N240	N	0.958283	0.394222	0.677233
	N241	N	0.029140	0.569783	0.676615
	N242	N	0.957539	0.569100	0.315530
	N243	N	0.029490	0.395137	0.315276
	N244	N	0.404790	0.664468	0.962421
	N245	N	0.578402	0.662250	0.034697
	N246	N	0.577588	0.305732	0.960105
	N247	N	0.406809	0.306083	0.033714
	N248	N	0.674491	0.948267	0.411146
	N249	N	0.675079	0.019662	0.586644
	N250	N	0.312155	0.947797	0.587906
	N251	N	0.315244	0.019393	0.413183
	N252	N	0.906677	0.446490	0.175482
	N253	N	0.079699	0.518800	0.174817
	N254	N	0.079144	0.446789	0.817292
	N255	N	0.904905	0.517903	0.814657
	N256	N	0.176321	0.894540	0.462709
	N257	N	0.175275	0.070846	0.533578
	N258	N	0.813294	0.071494	0.462816
	N259	N	0.811656	0.893438	0.532991
	N260	N	0.456239	0.162545	0.913432
	N261	N	0.528597	0.165979	0.086400
	N262	N	0.457041	0.803426	0.086936
	N263	N	0.528613	0.803244	0.911677
	N264	N	0.457260	0.897911	0.179452
	N265	N	0.528750	0.073594	0.181108
	N266	N	0.458343	0.072630	0.816846
	N267	N	0.528515	0.895590	0.816786
	N268	N	0.909321	0.161539	0.460561
	N269	N	0.081260	0.163080	0.533279
	N270	N	0.080900	0.803860	0.460536
	N271	N	0.907552	0.802368	0.533398
	N272	N	0.174122	0.448002	0.907821
	N273	N	0.173583	0.518461	0.083999
	N274	N	0.811817	0.447985	0.084132
	N275	N	0.812183	0.518613	0.907364
	O276	O	0.357976	0.529197	0.405667
	H277	H	0.355036	0.513988	0.399080
	H278	H	0.356799	0.527383	0.417254
	O279	O	0.392077	0.592520	0.378831
	H280	H	0.387698	0.603253	0.371032
	H281	H	0.370042	0.595117	0.377847
	O282	O	0.612370	0.289931	0.371068
	H283	H	0.625511	0.300533	0.373513
	H284	H	0.622251	0.276628	0.370465
	O285	O	1.209848	-0.035932	-0.215529
	H286	H	1.214676	-0.043231	-0.232193
	H287	H	1.216296	-0.060064	-0.224852
	O288	O	0.491567	0.588630	0.654261
	H289	H	0.481277	0.594123	0.653909
	H290	H	0.483143	0.580058	0.649997
	O291	O	0.386826	0.450748	0.506173
	H292	H	0.394459	0.448453	0.500029
	H293	H	0.390731	0.440295	0.510352
	O294	O	0.425660	0.510360	0.564396
	H295	H	0.414508	0.511245	0.564240
	H296	H	0.437206	0.501518	0.565436
	O297	O	1.198245	0.998199	1.183598
	H298	H	1.194042	0.984009	1.189676
	H299	H	1.198958	0.986961	1.171926
	O300	O	-0.474687	0.532092	-0.447686
	H301	H	-0.483426	0.533435	-0.456623
	H302	H	-0.483012	0.539788	-0.457877
	O303	O	0.680026	0.461168	0.395784
	H304	H	0.661193	0.473034	0.389245
	H305	H	0.691267	0.487061	0.398217
	O306	O	1.019738	-0.043626	0.070178
	H307	H	1.015206	-0.060081	0.077171
	H308	H	1.019124	-0.034051	0.079080
	O309	O	0.601645	0.654295	0.638552
	H310	H	0.563454	0.656626	0.634949
	H311	H	0.615277	0.624432	0.653371
	O312	O	0.839372	0.992480	0.176570
	H313	H	0.858367	1.009701	0.156861
	H314	H	0.814199	1.002768	0.186527
	O315	O	1.466762	1.363763	0.359185
	H316	H	1.496881	1.361797	0.350107
	H317	H	1.481578	1.346586	0.360693
	O318	O	0.555254	0.476627	0.446644
	H319	H	0.539087	0.474331	0.436946
	H320	H	0.551676	0.488108	0.449399
	O321	O	0.921560	-0.224621	1.204999
	H322	H	0.894065	-0.231646	1.189322
	H323	H	0.920855	-0.243993	1.222911
	O324	O	-0.214395	0.044130	0.793196
	H325	H	-0.194790	0.083420	0.797418
	H326	H	-0.240592	0.050726	0.778254
	O327	O	0.426186	0.361360	0.560927
	H328	H	0.433577	0.361263	0.544467
	H329	H	0.429367	0.357067	0.566746
	O330	O	0.458774	0.510569	0.657703
	H331	H	0.457095	0.508778	0.656107
	H332	H	0.461728	0.517662	0.663250
	O333	O	0.797324	0.882731	1.118765
	H334	H	0.780835	0.865955	1.106661
	H335	H	0.794795	0.906203	1.106981
	O336	O	0.344023	0.448027	0.435673
	H337	H	0.352657	0.432405	0.441289
	H338	H	0.351292	0.439390	0.428816
	O339	O	1.147552	-0.099487	1.081743
	H340	H	1.161090	-0.070558	1.074538
	H341	H	1.133135	-0.107518	1.092773
	O342	O	-0.220372	0.943202	0.901605
	H343	H	-0.214285	0.949163	0.896582
	H344	H	-0.232658	0.954720	0.880202
	O345	O	0.013668	0.788092	1.011412
	H346	H	0.026466	0.794179	1.034875
	H347	H	0.030846	0.777111	1.020679
	O348	O	0.467834	0.589183	0.395645
	H349	H	0.453107	0.577190	0.401572
	H350	H	0.471020	0.611175	0.384861
	O351	O	-0.125988	0.095032	0.007618
	H352	H	-0.135445	0.095708	0.010729
	H353	H	-0.111449	0.100223	0.024216
	O354	O	0.782268	0.774433	0.054573
	H355	H	0.767352	0.776699	0.047745
	H356	H	0.779109	0.765598	0.031383
	O357	O	0.009554	0.779203	-0.204600
	H358	H	0.001013	0.757938	-0.205087
	H359	H	-0.014018	0.786395	-0.193745
	O360	O	0.383469	0.592645	0.471711
	H361	H	0.386730	0.594329	0.494767
	H362	H	0.377646	0.574507	0.473232
	O363	O	0.312958	0.505318	0.472667
	H364	H	0.307195	0.484683	0.458611
	H365	H	0.333471	0.491670	0.470205
	O366	O	0.519346	0.377062	0.543769
	H367	H	0.516696	0.370464	0.543794
	H368	H	0.523222	0.376170	0.534468
	O369	O	-0.049452	1.091883	0.147898
	H370	H	-0.038463	1.091011	0.142659
	H371	H	-0.040701	1.120202	0.156017
	O372	O	0.689733	0.680648	0.546849
	H373	H	0.681059	0.673512	0.571551
	H374	H	0.711633	0.700524	0.546769
	O375	O	0.662937	0.527966	0.423718
	H376	H	0.644262	0.540618	0.424595
	H377	H	0.666908	0.555338	0.429401
	O378	O	-0.214293	1.131386	0.024419
	H379	H	-0.223275	1.141758	0.017877
	H380	H	-0.200200	1.118202	0.016712
	O381	O	0.984063	0.120887	1.214973
	H382	H	1.013015	0.131478	1.211243
	H383	H	0.979487	0.131983	1.236186
	O384	O	0.654856	0.384797	0.347595
	H385	H	0.657185	0.397295	0.336573
	H386	H	0.657889	0.398043	0.338486
	O387	O	1.128175	1.081765	-0.044288
	H388	H	1.131637	1.080121	-0.052113
	H389	H	1.111820	1.087675	-0.061965
	O390	O	0.680929	0.503474	0.614939
	H391	H	0.691704	0.501844	0.609761
	H392	H	0.688871	0.496922	0.605534
	O393	O	1.182156	0.175180	1.111882
	H394	H	1.180413	0.150567	1.108504
	H395	H	1.199575	0.189700	1.081811
	O396	O	0.099808	1.176833	1.060120
	H397	H	0.094940	1.185734	1.053610
	H398	H	0.100965	1.148384	1.051930
	O399	O	0.056086	1.053381	0.807424
	H400	H	0.046850	1.035311	0.816045
	H401	H	0.068059	1.028614	0.804030
	O402	O	0.933132	-0.075564	0.782896
	H403	H	0.903484	-0.073309	0.783225
	H404	H	0.934950	-0.075625	0.790886
	O405	O	0.169143	-0.191705	-0.181964
	H406	H	0.157192	-0.203362	-0.156822
	H407	H	0.137406	-0.182054	-0.189903
	O408	O	1.505505	1.480702	1.524809
	H409	H	1.503830	1.494111	1.514973
	H410	H	1.506341	1.482887	1.523453
	O411	O	0.968924	1.189711	-0.210542
	H412	H	0.990950	1.167362	-0.214708
	H413	H	0.979208	1.200899	-0.239395
	O414	O	-0.194546	0.159603	0.873256
	H415	H	-0.189494	0.165372	0.910308
	H416	H	-0.160479	0.169752	0.867052
	O417	O	-0.031279	-0.062168	1.204676
	H418	H	-0.047094	-0.092443	1.213380
	H419	H	-0.051266	-0.053215	1.212262
	O420	O	0.078214	1.170857	0.022520
	H421	H	0.088604	1.189212	0.025549
	H422	H	0.069327	1.156048	-0.001190
	O423	O	1.036553	0.001114	-0.064383
	H424	H	1.034191	-0.018327	-0.056590
	H425	H	1.053746	0.010079	-0.063243
	O426	O	0.011431	-0.182562	0.981586
	H427	H	-0.010875	-0.174475	0.986731
	H428	H	0.038286	-0.178420	1.000518
	O429	O	1.206293	0.769410	0.975768
	H430	H	1.210337	0.787900	0.973733
	H431	H	1.233681	0.748169	0.973062
