data_Molecule from HDF5

_cell_length_a		16.334349
_cell_length_b		16.289832
_cell_length_c		16.268432
_cell_angle_alpha	90.157603
_cell_angle_beta	89.895944
_cell_angle_gamma	89.769461
_symmetry_space_group_name_H-M	'P 1'
_symmetry_Int_Tables_number		1

loop_
	_symmetry_equiv_pos_as_xyz
	x,y,z

loop_
	_atom_site_label
	_atom_site_type_symbol
	_atom_site_fract_x
	_atom_site_fract_y
	_atom_site_fract_z
	H0	H	0.404069	0.835355	0.718219
	H1	H	0.598962	0.162589	0.717429
	H2	H	0.604052	0.836778	0.286745
	H3	H	0.404030	0.163054	0.289394
	H4	H	0.716500	0.399144	0.838776
	H5	H	0.715859	0.597142	0.165865
	H6	H	0.285840	0.598678	0.838465
	H7	H	0.285910	0.400188	0.165663
	H8	H	0.838257	0.714491	0.405191
	H9	H	0.164796	0.713671	0.602513
	H10	H	0.837965	0.284942	0.601280
	H11	H	0.163992	0.282987	0.402466
	H12	H	0.836996	0.402596	0.716697
	H13	H	0.164603	0.596701	0.717860
	H14	H	0.837678	0.597387	0.289245
	H15	H	0.163424	0.398384	0.286379
	H16	H	0.403008	0.713955	0.838856
	H17	H	0.599966	0.712900	0.165637
	H18	H	0.600092	0.284300	0.838688
	H19	H	0.404497	0.287327	0.166828
	H20	H	0.718454	0.836866	0.403149
	H21	H	0.715261	0.162928	0.602233
	H22	H	0.285348	0.836449	0.604044
	H23	H	0.287543	0.163407	0.404695
	H24	H	0.903082	0.335148	0.217269
	H25	H	0.097379	0.662567	0.216479
	H26	H	0.100087	0.335372	0.787656
	H27	H	0.901785	0.662761	0.789958
	H28	H	0.217995	0.899909	0.338296
	H29	H	0.216036	0.099395	0.665573
	H30	H	0.786016	0.098668	0.339350
	H31	H	0.786700	0.900970	0.666265
	H32	H	0.339041	0.214394	0.904377
	H33	H	0.665575	0.213450	0.100895
	H34	H	0.338819	0.785313	0.102396
	H35	H	0.665403	0.782184	0.902570
	H36	H	0.339118	0.903351	0.217473
	H37	H	0.665654	0.096693	0.216584
	H38	H	0.338673	0.098124	0.789252
	H39	H	0.665610	0.899186	0.787362
	H40	H	0.901858	0.213574	0.338538
	H41	H	0.097903	0.212708	0.666336
	H42	H	0.102108	0.783487	0.338288
	H43	H	0.903202	0.785524	0.666543
	H44	H	0.217555	0.336042	0.901754
	H45	H	0.216254	0.661386	0.103514
	H46	H	0.787259	0.334600	0.101479
	H47	H	0.785466	0.661941	0.905214
	H48	H	0.407563	0.112842	0.585655
	H49	H	0.603018	0.880725	0.594375
	H50	H	0.596553	0.115660	0.413963
	H51	H	0.413214	0.880738	0.399074
	H52	H	0.603319	0.415354	0.118722
	H53	H	0.597353	0.593903	0.883879
	H54	H	0.404023	0.587900	0.118353
	H55	H	0.416253	0.405126	0.887962
	H56	H	0.115797	0.593314	0.414262
	H57	H	0.885326	0.591905	0.599456
	H58	H	0.121845	0.399418	0.608943
	H59	H	0.885020	0.406781	0.410294
	H60	H	0.115849	0.396319	0.582802
	H61	H	0.883954	0.596262	0.597457
	H62	H	0.115223	0.585184	0.409284
	H63	H	0.885155	0.406154	0.409954
	H64	H	0.413113	0.590938	0.116777
	H65	H	0.596374	0.586015	0.886227
	H66	H	0.583514	0.406962	0.115756
	H67	H	0.404487	0.401305	0.882908
	H68	H	0.597597	0.117825	0.406819
	H69	H	0.591494	0.881495	0.601611
	H70	H	0.398518	0.119411	0.602322
	H71	H	0.418115	0.888150	0.418320
	H72	H	0.905185	0.616965	0.102752
	H73	H	0.088507	0.384983	0.091739
	H74	H	0.085705	0.614539	0.905304
	H75	H	0.916063	0.380185	0.895144
	H76	H	0.100530	0.907944	0.619229
	H77	H	0.091271	0.094944	0.385791
	H78	H	0.913491	0.088071	0.615953
	H79	H	0.916098	0.907680	0.388913
	H80	H	0.617476	0.095502	0.915674
	H81	H	0.388842	0.088341	0.093898
	H82	H	0.612288	0.915771	0.087011
	H83	H	0.385870	0.902765	0.910170
	H84	H	0.622102	0.907801	0.108610
	H85	H	0.383737	0.093228	0.103704
	H86	H	0.616188	0.084647	0.909313
	H87	H	0.387867	0.907673	0.913932
	H88	H	0.910143	0.099574	0.620244
	H89	H	0.099649	0.093909	0.383487
	H90	H	0.091568	0.911390	0.615649
	H91	H	0.907814	0.902206	0.384010
	H92	H	0.091773	0.611820	0.920013
	H93	H	0.100707	0.381684	0.090397
	H94	H	0.914243	0.612645	0.095047
	H95	H	0.914693	0.387537	0.921502
	H96	H	0.417137	0.114132	0.602964
	H97	H	0.591813	0.886610	0.588828
	H98	H	0.591247	0.115448	0.409464
	H99	H	0.399077	0.881504	0.413756
	H100	H	0.599380	0.394457	0.123826
	H101	H	0.590420	0.591591	0.886699
	H102	H	0.406578	0.597131	0.120125
	H103	H	0.406711	0.414012	0.887308
	H104	H	0.118994	0.593494	0.404937
	H105	H	0.886433	0.592750	0.594189
	H106	H	0.112716	0.419902	0.594890
	H107	H	0.885091	0.406229	0.410599
	H108	H	0.902794	0.614637	0.090636
	H109	H	0.094844	0.380291	0.101427
	H110	H	0.101255	0.617850	0.908484
	H111	H	0.892733	0.377578	0.908920
	H112	H	0.091865	0.901607	0.619389
	H113	H	0.095372	0.087114	0.387246
	H114	H	0.901750	0.090410	0.620302
	H115	H	0.906391	0.912443	0.386930
	H116	H	0.620730	0.095219	0.904242
	H117	H	0.384765	0.099783	0.093871
	H118	H	0.620192	0.892548	0.089481
	H119	H	0.386778	0.908959	0.907502
	C120	C	0.379485	0.007357	0.625229
	C121	C	0.623307	0.991117	0.623874
	C122	C	0.624289	0.008260	0.381359
	C123	C	0.381468	0.991700	0.382201
	C124	C	0.623779	0.376750	0.011159
	C125	C	0.622897	0.619079	0.993865
	C126	C	0.379845	0.620595	0.010382
	C127	C	0.380545	0.378335	0.994260
	C128	C	0.009289	0.620249	0.381064
	C129	C	0.993101	0.621898	0.625657
	C130	C	0.008938	0.377664	0.624258
	C131	C	0.992651	0.377230	0.381049
	C132	C	0.879611	0.506540	0.124361
	C133	C	0.122667	0.490290	0.124026
	C134	C	0.122441	0.507128	0.881491
	C135	C	0.879502	0.490159	0.881009
	C136	C	0.124154	0.877425	0.510099
	C137	C	0.123051	0.120588	0.493921
	C138	C	0.879527	0.121199	0.510633
	C139	C	0.881373	0.878894	0.494529
	C140	C	0.510157	0.120779	0.881587
	C141	C	0.493861	0.121701	0.125084
	C142	C	0.510735	0.877037	0.124666
	C143	C	0.494470	0.877289	0.881106
	C144	C	0.382776	0.884417	0.680671
	C145	C	0.619839	0.114006	0.679366
	C146	C	0.623156	0.885374	0.325281
	C147	C	0.383735	0.114709	0.327480
	C148	C	0.678373	0.379131	0.887564
	C149	C	0.677737	0.616965	0.117169
	C150	C	0.323950	0.618684	0.887500
	C151	C	0.324652	0.380392	0.117071
	C152	C	0.886842	0.676244	0.384335
	C153	C	0.115787	0.676186	0.622778
	C154	C	0.886188	0.323343	0.621573
	C155	C	0.115283	0.321248	0.382644
	C156	C	0.885852	0.381772	0.678922
	C157	C	0.115829	0.618213	0.680336
	C158	C	0.886637	0.618400	0.326588
	C159	C	0.114960	0.378645	0.324838
	C160	C	0.382156	0.675818	0.887372
	C161	C	0.620205	0.674657	0.117001
	C162	C	0.621019	0.321606	0.887751
	C163	C	0.383494	0.324335	0.117677
	C164	C	0.680285	0.885376	0.382925
	C165	C	0.677768	0.114000	0.622134
	C166	C	0.324405	0.884665	0.623267
	C167	C	0.325595	0.114616	0.384558
	C168	C	0.882386	0.383737	0.179309
	C169	C	0.118580	0.613566	0.179062
	C170	C	0.120106	0.384021	0.826044
	C171	C	0.881823	0.613687	0.827236
	C172	C	0.179923	0.879472	0.387145
	C173	C	0.177634	0.118714	0.617067
	C174	C	0.823991	0.118909	0.387961
	C175	C	0.825086	0.880803	0.617413
	C176	C	0.387661	0.176296	0.883967
	C177	C	0.616650	0.176141	0.121744
	C178	C	0.387735	0.822801	0.122574
	C179	C	0.616855	0.820857	0.882871
	C180	C	0.387836	0.881256	0.180033
	C181	C	0.616977	0.117948	0.179087
	C182	C	0.387539	0.118380	0.826621
	C183	C	0.616915	0.878918	0.825378
	C184	C	0.881825	0.175953	0.387609
	C185	C	0.119029	0.175346	0.617311
	C186	C	0.122401	0.821442	0.387290
	C187	C	0.883033	0.823486	0.617571
	C188	C	0.178869	0.384608	0.882467
	C189	C	0.177921	0.612916	0.123029
	C190	C	0.825053	0.383547	0.121473
	C191	C	0.823850	0.613272	0.884322
	C192	C	0.401224	0.093157	0.603182
	C193	C	0.601605	0.905048	0.601600
	C194	C	0.601591	0.093961	0.403517
	C195	C	0.403737	0.905806	0.404024
	C196	C	0.602034	0.398994	0.097144
	C197	C	0.601155	0.597005	0.907850
	C198	C	0.401792	0.598488	0.096123
	C199	C	0.402619	0.400427	0.908302
	C200	C	0.094581	0.597418	0.403176
	C201	C	0.907444	0.600056	0.603682
	C202	C	0.094504	0.399024	0.602082
	C203	C	0.907093	0.399792	0.403713
	C204	C	0.901128	0.592566	0.102597
	C205	C	0.101056	0.404408	0.101294
	C206	C	0.099589	0.592651	0.904556
	C207	C	0.901387	0.403997	0.902136
	C208	C	0.101537	0.900308	0.595820
	C209	C	0.101850	0.098267	0.407757
	C210	C	0.901831	0.099106	0.596775
	C211	C	0.903695	0.900986	0.408858
	C212	C	0.596074	0.098279	0.903267
	C213	C	0.408137	0.099960	0.103555
	C214	C	0.596125	0.898968	0.101840
	C215	C	0.408998	0.899776	0.903907
	Zn216	Zn	0.502080	-0.001000	0.753092
	Zn217	Zn	0.502423	-0.000351	0.253587
	Zn218	Zn	0.751352	0.498129	0.002696
	Zn219	Zn	0.251237	0.499397	0.002497
	Zn220	Zn	0.001869	0.749342	0.502555
	Zn221	Zn	0.001124	0.248812	0.502221
	Zn222	Zn	0.001185	0.499138	0.753179
	Zn223	Zn	0.000708	0.498168	0.252688
	Zn224	Zn	0.502180	0.748373	0.002287
	Zn225	Zn	0.501787	0.249732	0.002886
	Zn226	Zn	0.752185	-0.000447	0.502756
	Zn227	Zn	0.251922	-0.000569	0.502455
	N228	N	0.416309	0.961794	0.682134
	N229	N	0.586773	0.036561	0.680560
	N230	N	0.588944	0.962677	0.324155
	N231	N	0.417774	0.037352	0.326136
	N232	N	0.680287	0.412657	0.965302
	N233	N	0.679276	0.583087	0.039689
	N234	N	0.321979	0.585363	0.965207
	N235	N	0.323025	0.413626	0.039475
	N236	N	0.964254	0.677451	0.417563
	N237	N	0.038394	0.678600	0.589635
	N238	N	0.963752	0.320757	0.588308
	N239	N	0.038269	0.320456	0.417046
	N240	N	0.963164	0.414744	0.680655
	N241	N	0.038521	0.585175	0.682221
	N242	N	0.963718	0.584298	0.324564
	N243	N	0.037764	0.412737	0.323953
	N244	N	0.415971	0.677116	0.964641
	N245	N	0.586834	0.675998	0.039420
	N246	N	0.587696	0.320198	0.965408
	N247	N	0.417314	0.322657	0.040030
	N248	N	0.681054	0.962632	0.417155
	N249	N	0.679825	0.036534	0.588253
	N250	N	0.322256	0.962067	0.589793
	N251	N	0.323946	0.037035	0.417553
	N252	N	0.915538	0.461015	0.180989
	N253	N	0.084966	0.536157	0.179841
	N254	N	0.086197	0.461394	0.824978
	N255	N	0.915797	0.536246	0.825182
	N256	N	0.181426	0.913258	0.464700
	N257	N	0.180111	0.085414	0.539346
	N258	N	0.822767	0.085291	0.465439
	N259	N	0.823940	0.914610	0.539906
	N260	N	0.464857	0.177742	0.917445
	N261	N	0.539175	0.178267	0.088638
	N262	N	0.465159	0.819981	0.088964
	N263	N	0.539604	0.819804	0.916850
	N264	N	0.465168	0.914071	0.181499
	N265	N	0.539728	0.084637	0.181127
	N266	N	0.464922	0.084490	0.825089
	N267	N	0.539897	0.913419	0.824392
	N268	N	0.915582	0.177441	0.465053
	N269	N	0.085667	0.176513	0.539689
	N270	N	0.088559	0.819883	0.464800
	N271	N	0.917582	0.822529	0.540551
	N272	N	0.180153	0.462109	0.916425
	N273	N	0.180415	0.535411	0.089427
	N274	N	0.823127	0.461109	0.088044
	N275	N	0.822337	0.535678	0.917139
	O276	O	1.016296	0.920679	-0.045115
	H277	H	1.009823	0.928385	-0.050742
	H278	H	1.019793	0.922566	-0.044485
	O279	O	0.057223	-0.079802	0.005515
	H280	H	0.070121	-0.073585	0.001636
	H281	H	0.054807	-0.093622	0.002953
	O282	O	0.030050	-0.074747	0.967838
	H283	H	0.038428	-0.076105	0.981433
	H284	H	0.025406	-0.080418	0.975467
	O285	O	0.419413	0.542816	0.469869
	H286	H	0.412906	0.547167	0.470580
	H287	H	0.420193	0.531376	0.468267
	O288	O	0.468160	0.589768	0.488375
	H289	H	0.473229	0.591135	0.485256
	H290	H	0.461717	0.590386	0.499933
	O291	O	0.389959	0.572110	0.466864
	H292	H	0.386121	0.575498	0.467639
	H293	H	0.386051	0.574425	0.469429
	O294	O	0.047007	-0.111742	-0.098610
	H295	H	0.038597	-0.120541	-0.114895
	H296	H	0.042419	-0.113520	-0.100663
	O297	O	0.448465	0.520954	0.486631
	H298	H	0.438150	0.523183	0.484616
	H299	H	0.452526	0.522974	0.484674
	O300	O	0.070955	0.953546	0.995870
	H301	H	0.083143	0.946648	0.987519
	H302	H	0.071199	0.953081	0.979793
	O303	O	0.474716	0.536600	0.501859
	H304	H	0.474933	0.540613	0.496493
	H305	H	0.470351	0.536796	0.492006
	O306	O	0.036848	-0.072891	0.940002
	H307	H	0.045338	-0.072008	0.950238
	H308	H	0.028235	-0.065892	0.937885
	O309	O	1.027788	0.986209	1.022315
	H310	H	1.033779	0.979939	1.021430
	H311	H	1.030621	0.980948	1.017446
	O312	O	0.448363	0.574712	0.465066
	H313	H	0.450698	0.577554	0.474198
	H314	H	0.462802	0.577085	0.465885
	O315	O	0.456928	0.529080	0.470100
	H316	H	0.455063	0.530928	0.467351
	H317	H	0.457633	0.525935	0.464922
	O318	O	0.019450	0.930929	-0.064320
	H319	H	0.014219	0.934317	-0.056357
	H320	H	0.018076	0.931334	-0.067378
	O321	O	0.998505	0.961768	-0.038932
	H322	H	1.000869	0.966121	-0.042166
	H323	H	1.000989	0.959052	-0.036520
