data_Molecule from HDF5

_cell_length_a		16.687879
_cell_length_b		16.572385
_cell_length_c		16.710584
_cell_angle_alpha	90.062143
_cell_angle_beta	89.954384
_cell_angle_gamma	90.135887
_symmetry_space_group_name_H-M	'P 1'
_symmetry_Int_Tables_number		1

loop_
	_symmetry_equiv_pos_as_xyz
	x,y,z

loop_
	_atom_site_label
	_atom_site_type_symbol
	_atom_site_fract_x
	_atom_site_fract_y
	_atom_site_fract_z
	H0	H	0.380269	0.843096	0.719939
	H1	H	0.596898	0.151186	0.720334
	H2	H	0.593343	0.841807	0.274760
	H3	H	0.383283	0.152546	0.275549
	H4	H	0.714739	0.386946	0.844570
	H5	H	0.711112	0.604813	0.149751
	H6	H	0.264926	0.605768	0.843917
	H7	H	0.267607	0.392518	0.151240
	H8	H	0.835195	0.719993	0.390461
	H9	H	0.143435	0.719607	0.601517
	H10	H	0.833586	0.275957	0.601170
	H11	H	0.144851	0.278678	0.394410
	H12	H	0.835027	0.390299	0.719699
	H13	H	0.142733	0.605877	0.719603
	H14	H	0.835363	0.605163	0.272932
	H15	H	0.143190	0.392723	0.275534
	H16	H	0.381828	0.720699	0.843170
	H17	H	0.592515	0.718076	0.152075
	H18	H	0.597656	0.272163	0.844170
	H19	H	0.385495	0.278541	0.152117
	H20	H	0.710780	0.842978	0.388207
	H21	H	0.712601	0.150910	0.604098
	H22	H	0.265876	0.842546	0.603885
	H23	H	0.268631	0.153451	0.392955
	H24	H	0.882247	0.342189	0.217537
	H25	H	0.092675	0.653456	0.216626
	H26	H	0.094715	0.342417	0.775108
	H27	H	0.882734	0.653163	0.773960
	H28	H	0.211695	0.890823	0.342925
	H29	H	0.208026	0.100887	0.651910
	H30	H	0.767300	0.101876	0.341942
	H31	H	0.761138	0.885501	0.647602
	H32	H	0.334378	0.219275	0.891166
	H33	H	0.641593	0.221835	0.105471
	H34	H	0.331004	0.780593	0.097350
	H35	H	0.644487	0.779059	0.893894
	H36	H	0.331206	0.896073	0.214201
	H37	H	0.641028	0.104836	0.220252
	H38	H	0.335564	0.105650	0.773465
	H39	H	0.642083	0.890484	0.773688
	H40	H	0.885050	0.216326	0.340999
	H41	H	0.091096	0.217010	0.652214
	H42	H	0.093899	0.775932	0.341866
	H43	H	0.879190	0.771594	0.649138
	H44	H	0.208998	0.341905	0.891641
	H45	H	0.208075	0.653998	0.100018
	H46	H	0.765385	0.343217	0.102925
	H47	H	0.767778	0.653620	0.890516
	H48	H	0.408272	0.106625	0.586667
	H49	H	0.568575	0.887857	0.584397
	H50	H	0.575894	0.106918	0.411206
	H51	H	0.400952	0.886360	0.409955
	H52	H	0.572618	0.410975	0.105578
	H53	H	0.581257	0.584187	0.885298
	H54	H	0.393663	0.584216	0.109482
	H55	H	0.404467	0.407351	0.886713
	H56	H	0.099363	0.587140	0.406872
	H57	H	0.881983	0.576000	0.585755
	H58	H	0.102155	0.401176	0.586568
	H59	H	0.876762	0.405962	0.407144
	H60	H	0.097080	0.410494	0.579160
	H61	H	0.874979	0.587608	0.589813
	H62	H	0.098704	0.583935	0.408224
	H63	H	0.877170	0.407984	0.406973
	H64	H	0.403068	0.585275	0.105547
	H65	H	0.574860	0.587734	0.886734
	H66	H	0.578408	0.409472	0.107416
	H67	H	0.395378	0.404138	0.883248
	H68	H	0.579876	0.110311	0.408175
	H69	H	0.577199	0.887799	0.578398
	H70	H	0.397959	0.106828	0.578167
	H71	H	0.394200	0.883784	0.406263
	H72	H	0.904693	0.609800	0.090266
	H73	H	0.081981	0.384255	0.083448
	H74	H	0.080534	0.610078	0.908565
	H75	H	0.899029	0.385928	0.907449
	H76	H	0.087001	0.912682	0.609128
	H77	H	0.079876	0.085619	0.385774
	H78	H	0.901017	0.093105	0.609292
	H79	H	0.903079	0.907312	0.385887
	H80	H	0.598893	0.086518	0.909728
	H81	H	0.376748	0.086171	0.086578
	H82	H	0.600732	0.903918	0.087483
	H83	H	0.376378	0.904197	0.907949
	H84	H	0.598848	0.910166	0.084567
	H85	H	0.377206	0.087170	0.086622
	H86	H	0.597696	0.082620	0.912187
	H87	H	0.381026	0.912135	0.912542
	H88	H	0.891669	0.080859	0.608194
	H89	H	0.078106	0.088018	0.384803
	H90	H	0.070185	0.915175	0.602766
	H91	H	0.898078	0.912132	0.386348
	H92	H	0.076811	0.610796	0.904412
	H93	H	0.079837	0.382591	0.090309
	H94	H	0.904253	0.605763	0.078561
	H95	H	0.905304	0.388401	0.906760
	H96	H	0.397025	0.112674	0.590300
	H97	H	0.578009	0.884277	0.587961
	H98	H	0.574721	0.109005	0.405733
	H99	H	0.401000	0.884479	0.402359
	H100	H	0.577075	0.414985	0.104769
	H101	H	0.580463	0.591245	0.883461
	H102	H	0.398601	0.593785	0.109562
	H103	H	0.396473	0.413526	0.886196
	H104	H	0.100343	0.583759	0.404931
	H105	H	0.880193	0.586626	0.576971
	H106	H	0.100072	0.413150	0.591880
	H107	H	0.876560	0.406625	0.405473
	H108	H	0.894347	0.611563	0.084075
	H109	H	0.074982	0.385540	0.086027
	H110	H	0.075725	0.608488	0.909779
	H111	H	0.901729	0.388775	0.912382
	H112	H	0.074563	0.898937	0.609284
	H113	H	0.081177	0.087542	0.383807
	H114	H	0.905982	0.080277	0.603166
	H115	H	0.904003	0.913046	0.390192
	H116	H	0.598744	0.082058	0.907343
	H117	H	0.377128	0.086658	0.085966
	H118	H	0.601216	0.910032	0.091160
	H119	H	0.377418	0.913387	0.902960
	C120	C	0.367780	0.005990	0.617820
	C121	C	0.609257	0.988542	0.617316
	C122	C	0.608955	0.005801	0.375554
	C123	C	0.367189	0.988678	0.375423
	C124	C	0.610107	0.376942	0.005039
	C125	C	0.610263	0.619804	0.987573
	C126	C	0.367005	0.619518	0.005620
	C127	C	0.366893	0.376291	0.987678
	C128	C	-0.002621	0.618735	0.374323
	C129	C	0.980680	0.617778	0.617232
	C130	C	-0.002762	0.375657	0.618074
	C131	C	0.979850	0.375897	0.375251
	C132	C	0.867784	0.506483	0.117182
	C133	C	0.109663	0.488321	0.117629
	C134	C	0.110142	0.506639	0.875316
	C135	C	0.868588	0.489881	0.875597
	C136	C	0.109949	0.876025	0.505162
	C137	C	0.110282	0.118465	0.488145
	C138	C	0.867328	0.117458	0.504728
	C139	C	0.867301	0.875814	0.488268
	C140	C	0.497056	0.117927	0.876184
	C141	C	0.479216	0.119495	0.118966
	C142	C	0.496721	0.876933	0.118178
	C143	C	0.480502	0.877049	0.875646
	C144	C	0.363279	0.889702	0.679207
	C145	C	0.613891	0.104861	0.679010
	C146	C	0.611588	0.888770	0.314803
	C147	C	0.365025	0.106166	0.315929
	C148	C	0.673052	0.371181	0.890323
	C149	C	0.670419	0.622554	0.103808
	C150	C	0.306126	0.622786	0.889960
	C151	C	0.307489	0.374430	0.104642
	C152	C	0.881434	0.679748	0.371995
	C153	C	0.096985	0.679091	0.619785
	C154	C	0.880555	0.315599	0.620138
	C155	C	0.097649	0.317796	0.374812
	C156	C	0.881268	0.372542	0.678853
	C157	C	0.096605	0.622411	0.678348
	C158	C	0.881498	0.622467	0.313787
	C159	C	0.096945	0.374221	0.315916
	C160	C	0.364285	0.680094	0.889480
	C161	C	0.611452	0.678852	0.104877
	C162	C	0.614699	0.313914	0.890175
	C163	C	0.366101	0.317739	0.105245
	C164	C	0.669894	0.889210	0.371319
	C165	C	0.671560	0.104583	0.621636
	C166	C	0.306344	0.889266	0.621224
	C167	C	0.308240	0.106503	0.374214
	C168	C	0.864214	0.389236	0.177652
	C169	C	0.111153	0.606467	0.176710
	C170	C	0.113005	0.389436	0.814865
	C171	C	0.865216	0.606538	0.814528
	C172	C	0.171099	0.872866	0.389266
	C173	C	0.168415	0.119700	0.605574
	C174	C	0.807685	0.119842	0.388274
	C175	C	0.803350	0.869326	0.602280
	C176	C	0.381013	0.179111	0.873247
	C177	C	0.595233	0.180886	0.122661
	C178	C	0.378192	0.819410	0.117331
	C179	C	0.597316	0.817886	0.874381
	C180	C	0.378226	0.876977	0.175125
	C181	C	0.594821	0.123180	0.180209
	C182	C	0.381476	0.122432	0.814719
	C183	C	0.596098	0.873551	0.814793
	C184	C	0.866218	0.176963	0.387849
	C185	C	0.110388	0.177134	0.605492
	C186	C	0.112395	0.815887	0.388535
	C187	C	0.862028	0.812651	0.602938
	C188	C	0.169771	0.389139	0.873092
	C189	C	0.168520	0.606675	0.119018
	C190	C	0.806373	0.389694	0.120474
	C191	C	0.807782	0.606682	0.872169
	C192	C	0.393600	0.087598	0.592243
	C193	C	0.582417	0.907709	0.590835
	C194	C	0.584100	0.087425	0.401096
	C195	C	0.391688	0.906316	0.399284
	C196	C	0.583619	0.404258	0.085190
	C197	C	0.585679	0.594758	0.906246
	C198	C	0.391664	0.594836	0.087013
	C199	C	0.391650	0.401055	0.906421
	C200	C	0.078270	0.592454	0.399664
	C201	C	0.900100	0.591102	0.591514
	C202	C	0.078711	0.401042	0.592843
	C203	C	0.898057	0.400049	0.399282
	C204	C	0.893709	0.587913	0.091725
	C205	C	0.085718	0.405717	0.093619
	C206	C	0.084897	0.588411	0.900395
	C207	C	0.894456	0.408752	0.901491
	C208	C	0.084509	0.901455	0.586129
	C209	C	0.086561	0.093990	0.406254
	C210	C	0.892382	0.091893	0.585778
	C211	C	0.894112	0.903114	0.408341
	C212	C	0.577447	0.091422	0.902229
	C213	C	0.398014	0.093805	0.093447
	C214	C	0.578941	0.900977	0.094523
	C215	C	0.399279	0.902448	0.900910
	Zn216	Zn	0.488653	-0.002732	0.746065
	Zn217	Zn	0.488217	-0.002484	0.247265
	Zn218	Zn	0.739344	0.498374	-0.003741
	Zn219	Zn	0.238345	0.497665	-0.003121
	Zn220	Zn	-0.011365	0.746869	0.496665
	Zn221	Zn	-0.011422	0.247017	0.496452
	Zn222	Zn	-0.010940	0.497576	0.746606
	Zn223	Zn	-0.011659	0.496787	0.245662
	Zn224	Zn	0.488563	0.748232	-0.002969
	Zn225	Zn	0.488593	0.247613	-0.003076
	Zn226	Zn	0.737633	-0.003592	0.495924
	Zn227	Zn	0.239716	-0.002369	0.496773
	N228	N	0.400854	0.963405	0.677335
	N229	N	0.575765	0.031535	0.676575
	N230	N	0.574356	0.962378	0.317062
	N231	N	0.400853	0.031707	0.316411
	N232	N	0.670223	0.409834	0.962832
	N233	N	0.670050	0.586565	0.029806
	N234	N	0.307888	0.585560	0.963143
	N235	N	0.307574	0.409788	0.030429
	N236	N	0.954823	0.677915	0.408795
	N237	N	0.023910	0.676322	0.582210
	N238	N	0.953986	0.317211	0.583153
	N239	N	0.023706	0.318455	0.410922
	N240	N	0.955147	0.408963	0.678002
	N241	N	0.023230	0.584915	0.676892
	N242	N	0.954802	0.585303	0.314906
	N243	N	0.022533	0.409563	0.315762
	N244	N	0.401721	0.678222	0.962510
	N245	N	0.574745	0.677534	0.031377
	N246	N	0.576073	0.317292	0.962572
	N247	N	0.402591	0.318651	0.031501
	N248	N	0.668422	0.963102	0.408317
	N249	N	0.668803	0.031160	0.583828
	N250	N	0.309155	0.962718	0.583598
	N251	N	0.309260	0.032220	0.410398
	N252	N	0.901671	0.463033	0.175923
	N253	N	0.075325	0.531799	0.176087
	N254	N	0.076798	0.463715	0.815768
	N255	N	0.902355	0.532842	0.816431
	N256	N	0.170024	0.909476	0.462907
	N257	N	0.168609	0.084019	0.531431
	N258	N	0.808012	0.083691	0.462005
	N259	N	0.806379	0.907962	0.529790
	N260	N	0.453961	0.176598	0.910984
	N261	N	0.522087	0.178902	0.085422
	N262	N	0.453020	0.819096	0.082777
	N263	N	0.524121	0.819676	0.911401
	N264	N	0.453096	0.911762	0.175946
	N265	N	0.521686	0.085531	0.178104
	N266	N	0.454578	0.084809	0.816390
	N267	N	0.522175	0.909439	0.815274
	N268	N	0.902714	0.175708	0.461392
	N269	N	0.075190	0.176871	0.531271
	N270	N	0.075385	0.817424	0.461859
	N271	N	0.901322	0.816632	0.531017
	N272	N	0.168553	0.463275	0.909749
	N273	N	0.168037	0.532035	0.083149
	N274	N	0.808505	0.463524	0.083419
	N275	N	0.809582	0.532958	0.909547
	O276	O	0.023891	1.149671	-0.079167
	H277	H	0.000205	1.152843	-0.061696
	H278	H	0.008616	1.145307	-0.087038
	O279	O	0.294143	0.302673	0.301682
	H280	H	0.305657	0.327285	0.319115
	H281	H	0.319875	0.315400	0.321467
	O282	O	0.765187	-0.063523	0.953925
	H283	H	0.756747	-0.067367	0.955163
	H284	H	0.764274	-0.065052	0.958348
	O285	O	0.281123	0.358238	0.480262
	H286	H	0.279130	0.365568	0.459637
	H287	H	0.281548	0.360414	0.508608
	O288	O	0.676131	0.512317	0.642721
	H289	H	0.677296	0.510517	0.651075
	H290	H	0.675145	0.513086	0.648104
	O291	O	0.462818	0.291434	0.706826
	H292	H	0.454932	0.276018	0.720313
	H293	H	0.435573	0.294758	0.706388
	O294	O	0.968608	0.203662	0.799723
	H295	H	0.963804	0.207530	0.788496
	H296	H	0.971737	0.197527	0.802887
	O297	O	0.805280	0.828127	0.175450
	H298	H	0.808034	0.829481	0.184055
	H299	H	0.796001	0.817650	0.191372
	O300	O	0.079030	0.078344	0.784126
	H301	H	0.084300	0.065884	0.782495
	H302	H	0.080831	0.068903	0.799018
	O303	O	0.700014	0.708001	0.508296
	H304	H	0.697715	0.714396	0.526545
	H305	H	0.696887	0.718416	0.521083
	O306	O	0.446223	0.407773	0.308914
	H307	H	0.460604	0.402195	0.300576
	H308	H	0.417522	0.424498	0.308474
	O309	O	0.265851	0.533877	0.535783
	H310	H	0.259142	0.544376	0.543436
	H311	H	0.272645	0.525690	0.541051
	O312	O	0.504777	0.704478	0.720375
	H313	H	0.511381	0.703290	0.721265
	H314	H	0.517088	0.718259	0.736171
	O315	O	1.031604	1.138794	1.012782
	H316	H	1.044016	1.143832	1.016263
	H317	H	1.009857	1.146517	1.017987
	O318	O	0.549896	0.437407	0.396409
	H319	H	0.545413	0.421897	0.401514
	H320	H	0.554130	0.455335	0.392956
	O321	O	0.206335	0.972310	0.781473
	H322	H	0.213996	0.957625	0.773108
	H323	H	0.222136	0.964075	0.783065
	O324	O	1.079501	0.878913	0.003525
	H325	H	1.089979	0.899477	-0.007791
	H326	H	1.053059	0.878724	0.008599
	O327	O	-0.079845	-0.149628	0.931795
	H328	H	-0.080972	-0.140822	0.944077
	H329	H	-0.092232	-0.153651	0.947256
	O330	O	0.708562	0.474445	0.278991
	H331	H	0.725988	0.475020	0.279730
	H332	H	0.712458	0.475203	0.284522
	O333	O	0.643427	0.332792	0.542638
	H334	H	0.631906	0.336154	0.548737
	H335	H	0.649271	0.339835	0.556649
	O336	O	0.554323	0.533221	0.287461
	H337	H	0.536448	0.532317	0.278243
	H338	H	0.572543	0.519731	0.288680
	O339	O	1.138700	0.032029	1.211896
	H340	H	1.132003	0.051284	1.203369
	H341	H	1.153267	0.055956	1.231573
	O342	O	0.190443	0.152115	-0.162302
	H343	H	0.174824	0.136367	-0.140371
	H344	H	0.179621	0.144682	-0.147356
	O345	O	0.186660	0.968491	1.055951
	H346	H	0.199806	0.967829	1.049785
	H347	H	0.169069	0.981851	1.072727
	O348	O	0.194673	0.201832	0.204770
	H349	H	0.189034	0.190224	0.182418
	H350	H	0.227908	0.233696	0.236727
	O351	O	0.909175	0.779112	0.216663
	H352	H	0.922754	0.818373	0.222084
	H353	H	0.903221	0.750063	0.250538
	O354	O	0.183513	-0.210747	0.965753
	H355	H	0.164448	-0.206336	0.973754
	H356	H	0.199632	-0.220046	0.977107
	O357	O	0.676488	0.309377	0.685783
	H358	H	0.682014	0.316228	0.686038
	H359	H	0.654963	0.318866	0.670589
	O360	O	0.309016	0.331888	0.569029
	H361	H	0.313264	0.354898	0.576169
	H362	H	0.275790	0.304425	0.578697
	O363	O	-0.197464	0.181223	0.183503
	H364	H	-0.199765	0.162364	0.161957
	H365	H	-0.229810	0.213201	0.214520
	O366	O	0.265182	0.472361	0.721554
	H367	H	0.257677	0.470778	0.725499
	H368	H	0.260408	0.463831	0.735391
	O369	O	0.704268	0.282619	0.283275
	H370	H	0.689106	0.313314	0.288376
	H371	H	0.697368	0.284867	0.323953
	O372	O	1.018003	0.781219	-0.223014
	H373	H	1.010365	0.764723	-0.229304
	H374	H	1.030397	0.777329	-0.220029
	O375	O	0.770857	-0.222730	0.027980
	H376	H	0.746928	-0.247986	0.036765
	H377	H	0.773293	-0.217190	0.051790
	O378	O	0.591956	0.439181	0.551794
	H379	H	0.595574	0.446385	0.537852
	H380	H	0.587368	0.441833	0.568035
	O381	O	0.181889	0.804773	0.793590
	H382	H	0.174780	0.803083	0.804841
	H383	H	0.178209	0.801916	0.815278
	O384	O	0.769596	0.019352	0.782016
	H385	H	0.767715	0.022847	0.766934
	H386	H	0.771395	0.035147	0.777866
	O387	O	1.278476	0.705145	0.283055
	H388	H	1.280005	0.718193	0.315942
	H389	H	1.250204	0.730354	0.276449
	O390	O	0.314036	0.660145	0.470626
	H391	H	0.331227	0.657516	0.483248
	H392	H	0.292992	0.676868	0.484927
	O393	O	0.503471	0.644571	0.621413
	H394	H	0.522020	0.646600	0.641361
	H395	H	0.506052	0.628475	0.608615
	O396	O	0.278805	1.282567	0.706856
	H397	H	0.246270	1.251607	0.738591
	H398	H	0.279477	1.299157	0.688268
	O399	O	-0.051978	0.122938	1.119426
	H400	H	-0.051935	0.133890	1.134118
	H401	H	-0.064623	0.129135	1.125106
	O402	O	0.515009	0.283173	0.281402
	H403	H	0.513973	0.263894	0.282413
	H404	H	0.524292	0.289245	0.271572
	O405	O	0.920936	-0.064353	0.761084
	H406	H	0.936365	-0.064623	0.756671
	H407	H	0.921008	-0.065332	0.761702
	O408	O	0.211490	0.216597	0.036678
	H409	H	0.218455	0.233281	0.033479
	H410	H	0.212479	0.226472	0.047249
	O411	O	0.700883	0.711074	0.710386
	H412	H	0.696466	0.700663	0.711515
	H413	H	0.719362	0.735934	0.733622
	O414	O	0.778214	0.201075	0.791146
	H415	H	0.805413	0.182998	0.790722
	H416	H	0.771029	0.220431	0.779561
	O417	O	0.452672	0.722518	0.270351
	H418	H	0.434366	0.716110	0.263346
	H419	H	0.435574	0.742954	0.243187
	O420	O	0.709273	0.485779	0.467849
	H421	H	0.711663	0.478812	0.465762
	H422	H	0.705967	0.502414	0.472064
	O423	O	-0.007937	-0.126092	1.004315
	H424	H	-0.010820	-0.114025	1.003471
	H425	H	-0.017142	-0.123457	1.012573
	O426	O	0.284673	0.670738	0.586914
	H427	H	0.297722	0.671165	0.580566
	H428	H	0.274786	0.689703	0.598177
	O429	O	1.002154	0.827862	1.054432
	H430	H	0.995576	0.836843	1.057724
	H431	H	0.981328	0.822220	1.063715
	O432	O	0.389158	0.715293	0.567339
	H433	H	0.398881	0.704928	0.565897
	H434	H	0.406328	0.715996	0.563042
	O435	O	0.442086	0.535795	0.409896
	H436	H	0.445358	0.537938	0.406472
	H437	H	0.448106	0.535349	0.422505
	O438	O	0.119743	-0.198673	0.191008
	H439	H	0.105594	-0.180081	0.181892
	H440	H	0.095268	-0.199251	0.178860
	O441	O	0.024821	0.217237	0.216791
	H442	H	0.054697	0.210910	0.215528
	H443	H	0.026537	0.245245	0.238639
	O444	O	0.552889	0.440729	0.710498
	H445	H	0.546913	0.428030	0.714786
	H446	H	0.555925	0.440826	0.715679
	O447	O	-0.074480	1.186509	0.921442
	H448	H	-0.079051	1.187886	0.937419
	H449	H	-0.076348	1.173496	0.917150
	O450	O	-0.191758	0.811717	0.820772
	H451	H	-0.172757	0.824432	0.836036
	H452	H	-0.177620	0.835009	0.833713
	O453	O	0.530001	0.719968	0.460274
	H454	H	0.519803	0.728767	0.453859
	H455	H	0.525736	0.719088	0.435994
	O456	O	0.381340	-0.405464	0.721817
	H457	H	0.378186	-0.413988	0.728534
	H458	H	0.379007	-0.383386	0.734517
	O459	O	0.869748	1.018847	0.080244
	H460	H	0.861871	1.007046	0.099851
	H461	H	0.870317	1.025102	0.079304
	O462	O	0.700143	0.623596	0.378044
	H463	H	0.689461	0.639398	0.384336
	H464	H	0.692920	0.615337	0.389634
	O465	O	0.767889	-0.035144	0.214909
	H466	H	0.768210	-0.049944	0.215488
	H467	H	0.751391	-0.035335	0.229666
	O468	O	0.266535	0.525114	0.270340
	H469	H	0.239458	0.541745	0.243422
	H470	H	0.267689	0.562707	0.281796
	O471	O	0.423085	0.445370	0.565280
	H472	H	0.414821	0.440864	0.558436
	H473	H	0.430160	0.435940	0.579231
	O474	O	0.341894	0.470907	0.360031
	H475	H	0.342377	0.473235	0.368818
	H476	H	0.329786	0.478502	0.353918
	O477	O	0.684258	0.725515	1.288427
	H478	H	0.691848	0.714240	1.273705
	H479	H	0.683955	0.715625	1.308812
	O480	O	0.459294	0.276430	0.469667
	H481	H	0.462835	0.281137	0.466069
	H482	H	0.438025	0.272976	0.479203
	O483	O	0.665823	0.559315	0.658135
	H484	H	0.668013	0.560771	0.670995
	H485	H	0.655532	0.579572	0.670329
	O486	O	1.160242	0.041103	0.955532
	H487	H	1.163811	0.042033	0.960813
	H488	H	1.159175	0.040049	0.962548
	O489	O	0.865613	1.041802	0.157998
	H490	H	0.860204	1.054084	0.152010
	H491	H	0.861169	1.057694	0.150805
	O492	O	0.009857	0.050816	-0.071348
	H493	H	-0.003040	0.061112	-0.069866
	H494	H	0.024895	0.049959	-0.067646
	O495	O	0.091385	0.959990	1.218812
	H496	H	0.076874	0.980072	1.217565
	H497	H	0.100176	0.963674	1.225292
	O498	O	0.770798	1.216567	0.969839
	H499	H	0.754069	1.224397	0.963158
	H500	H	0.760914	1.219388	0.956734
	O501	O	0.644794	0.269747	0.499270
	H502	H	0.646158	0.266988	0.511088
	H503	H	0.646124	0.257296	0.514376
