data_Molecule from HDF5

_cell_length_a		16.528001
_cell_length_b		16.407088
_cell_length_c		16.424365
_cell_angle_alpha	89.827449
_cell_angle_beta	89.863515
_cell_angle_gamma	90.157319
_symmetry_space_group_name_H-M	'P 1'
_symmetry_Int_Tables_number		1

loop_
	_symmetry_equiv_pos_as_xyz
	x,y,z

loop_
	_atom_site_label
	_atom_site_type_symbol
	_atom_site_fract_x
	_atom_site_fract_y
	_atom_site_fract_z
	H0	H	0.405961	0.844449	0.728120
	H1	H	0.617601	0.160989	0.726984
	H2	H	0.620404	0.846553	0.282123
	H3	H	0.408082	0.161334	0.285020
	H4	H	0.737938	0.395780	0.851711
	H5	H	0.734562	0.612095	0.165699
	H6	H	0.288254	0.611772	0.851120
	H7	H	0.291653	0.397112	0.166538
	H8	H	0.855816	0.728283	0.399898
	H9	H	0.168214	0.727925	0.616279
	H10	H	0.855163	0.277807	0.617308
	H11	H	0.170036	0.285371	0.405853
	H12	H	0.855411	0.393966	0.734011
	H13	H	0.168226	0.610465	0.731128
	H14	H	0.855380	0.612360	0.284652
	H15	H	0.168450	0.399331	0.287025
	H16	H	0.407331	0.724342	0.849091
	H17	H	0.621959	0.729947	0.163101
	H18	H	0.616701	0.285740	0.847608
	H19	H	0.405940	0.279785	0.164412
	H20	H	0.738566	0.847343	0.394490
	H21	H	0.737581	0.158931	0.615715
	H22	H	0.289879	0.844591	0.612497
	H23	H	0.292492	0.161645	0.401474
	H24	H	0.902983	0.345741	0.233325
	H25	H	0.116589	0.661752	0.229815
	H26	H	0.120196	0.347704	0.784990
	H27	H	0.903086	0.659215	0.782169
	H28	H	0.233924	0.896229	0.349316
	H29	H	0.233336	0.107715	0.664824
	H30	H	0.787365	0.114818	0.349981
	H31	H	0.783556	0.890129	0.660578
	H32	H	0.354519	0.224636	0.901251
	H33	H	0.669560	0.227491	0.113668
	H34	H	0.356850	0.777090	0.116281
	H35	H	0.667411	0.777647	0.895063
	H36	H	0.355890	0.894448	0.230651
	H37	H	0.668120	0.112855	0.231532
	H38	H	0.354473	0.108061	0.785067
	H39	H	0.666160	0.892944	0.778510
	H40	H	0.905317	0.227708	0.350028
	H41	H	0.114469	0.220550	0.667161
	H42	H	0.119767	0.779119	0.350923
	H43	H	0.904077	0.779760	0.663826
	H44	H	0.236133	0.347972	0.900113
	H45	H	0.236398	0.659989	0.117901
	H46	H	0.786471	0.346754	0.118698
	H47	H	0.788237	0.660611	0.899788
	H48	H	0.425478	0.116124	0.597827
	H49	H	0.599130	0.891437	0.589838
	H50	H	0.601157	0.115086	0.421848
	H51	H	0.424957	0.889001	0.413579
	H52	H	0.598364	0.413772	0.120922
	H53	H	0.597951	0.595296	0.894257
	H54	H	0.423556	0.590216	0.121172
	H55	H	0.419031	0.418546	0.893889
	H56	H	0.125898	0.593297	0.415307
	H57	H	0.904516	0.588193	0.586609
	H58	H	0.122280	0.406254	0.584752
	H59	H	0.899843	0.416438	0.421322
	H60	H	0.119015	0.427222	0.599442
	H61	H	0.900557	0.583210	0.601750
	H62	H	0.122591	0.594735	0.425551
	H63	H	0.897933	0.414090	0.419213
	H64	H	0.425256	0.589050	0.119120
	H65	H	0.605986	0.587099	0.894582
	H66	H	0.600984	0.417051	0.119792
	H67	H	0.425842	0.416552	0.895379
	H68	H	0.599585	0.115661	0.417860
	H69	H	0.599840	0.888925	0.593868
	H70	H	0.422002	0.114596	0.590175
	H71	H	0.424829	0.891331	0.422892
	H72	H	0.924008	0.615426	0.095046
	H73	H	0.094522	0.391290	0.099805
	H74	H	0.098887	0.616850	0.920360
	H75	H	0.919513	0.390060	0.923574
	H76	H	0.098749	0.919665	0.618196
	H77	H	0.101621	0.100652	0.391991
	H78	H	0.922991	0.089731	0.619539
	H79	H	0.927067	0.910558	0.392833
	H80	H	0.623148	0.090152	0.915669
	H81	H	0.399335	0.097762	0.093535
	H82	H	0.622082	0.917211	0.091102
	H83	H	0.399524	0.916547	0.915352
	H84	H	0.623498	0.919420	0.093379
	H85	H	0.404348	0.087888	0.089254
	H86	H	0.626055	0.094822	0.913877
	H87	H	0.400121	0.911582	0.919686
	H88	H	0.922328	0.085741	0.619081
	H89	H	0.108899	0.091917	0.391611
	H90	H	0.098281	0.910737	0.620688
	H91	H	0.920664	0.921225	0.394519
	H92	H	0.099008	0.616468	0.923435
	H93	H	0.102088	0.392146	0.091001
	H94	H	0.922086	0.616309	0.096138
	H95	H	0.929036	0.391899	0.918955
	H96	H	0.417347	0.118399	0.596833
	H97	H	0.595332	0.891852	0.593022
	H98	H	0.596967	0.114038	0.420971
	H99	H	0.416822	0.887914	0.418533
	H100	H	0.596904	0.417105	0.119444
	H101	H	0.596106	0.585305	0.899176
	H102	H	0.425385	0.591550	0.119971
	H103	H	0.421272	0.411920	0.892724
	H104	H	0.120985	0.585755	0.419994
	H105	H	0.897090	0.598618	0.596854
	H106	H	0.129874	0.406364	0.609128
	H107	H	0.898316	0.413247	0.422831
	H108	H	0.924255	0.615764	0.097070
	H109	H	0.105732	0.387511	0.101274
	H110	H	0.101729	0.617028	0.921351
	H111	H	0.927641	0.394816	0.928506
	H112	H	0.106028	0.916055	0.621960
	H113	H	0.098671	0.090786	0.396055
	H114	H	0.925590	0.087643	0.617251
	H115	H	0.932019	0.920854	0.398049
	H116	H	0.623983	0.094441	0.918715
	H117	H	0.400358	0.088508	0.100316
	H118	H	0.623731	0.915952	0.093688
	H119	H	0.402190	0.917277	0.921369
	C120	C	0.389548	0.011475	0.627805
	C121	C	0.632461	0.994580	0.626362
	C122	C	0.633679	0.011542	0.385227
	C123	C	0.390564	0.994151	0.385109
	C124	C	0.632961	0.382927	0.015908
	C125	C	0.633880	0.624737	0.999305
	C126	C	0.391191	0.624022	0.016118
	C127	C	0.389806	0.382019	0.998466
	C128	C	0.019944	0.625100	0.386866
	C129	C	1.003682	0.624334	0.629080
	C130	C	0.020438	0.379793	0.631617
	C131	C	1.002891	0.382648	0.387879
	C132	C	0.889359	0.512044	0.130874
	C133	C	0.133259	0.494772	0.130137
	C134	C	0.133442	0.513071	0.887751
	C135	C	0.891172	0.495431	0.888484
	C136	C	0.133766	0.881855	0.516178
	C137	C	0.134063	0.125252	0.498420
	C138	C	0.890514	0.123441	0.515047
	C139	C	0.891421	0.882282	0.498080
	C140	C	0.520358	0.125354	0.884046
	C141	C	0.504323	0.125356	0.128061
	C142	C	0.520466	0.882328	0.127576
	C143	C	0.503408	0.881483	0.884581
	C144	C	0.387612	0.892096	0.688088
	C145	C	0.635750	0.113216	0.687190
	C146	C	0.637912	0.893765	0.322336
	C147	C	0.389056	0.113665	0.324727
	C148	C	0.695808	0.378954	0.898074
	C149	C	0.694792	0.629279	0.117792
	C150	C	0.329027	0.629037	0.898213
	C151	C	0.330619	0.378962	0.118247
	C152	C	0.902745	0.687600	0.382322
	C153	C	0.121183	0.686858	0.633248
	C154	C	0.902234	0.318463	0.634975
	C155	C	0.122185	0.324235	0.386607
	C156	C	0.902821	0.375852	0.693593
	C157	C	0.121023	0.628678	0.690968
	C158	C	0.902372	0.629248	0.325198
	C159	C	0.121425	0.380736	0.327268
	C160	C	0.388383	0.685035	0.897093
	C161	C	0.638439	0.688128	0.116542
	C162	C	0.635629	0.323847	0.896176
	C163	C	0.387703	0.320702	0.117489
	C164	C	0.696431	0.894092	0.379103
	C165	C	0.695511	0.112263	0.631528
	C166	C	0.329547	0.892218	0.630694
	C167	C	0.331361	0.113689	0.382388
	C168	C	0.885596	0.393473	0.192908
	C169	C	0.135385	0.613918	0.190282
	C170	C	0.137427	0.395103	0.825593
	C171	C	0.885805	0.612618	0.823973
	C172	C	0.194432	0.878294	0.397226
	C173	C	0.193504	0.126410	0.617375
	C174	C	0.828795	0.130176	0.397131
	C175	C	0.826100	0.874755	0.614288
	C176	C	0.401999	0.184803	0.882743
	C177	C	0.622170	0.187173	0.131590
	C178	C	0.403567	0.818674	0.132961
	C179	C	0.620442	0.818894	0.878844
	C180	C	0.403212	0.877400	0.190033
	C181	C	0.621407	0.129965	0.190440
	C182	C	0.402092	0.126807	0.824482
	C183	C	0.619933	0.876469	0.820638
	C184	C	0.887557	0.186726	0.397128
	C185	C	0.134063	0.182309	0.618753
	C186	C	0.137564	0.819845	0.398006
	C187	C	0.886100	0.819732	0.616110
	C188	C	0.195238	0.395256	0.883053
	C189	C	0.195213	0.613089	0.134595
	C190	C	0.827359	0.393839	0.135814
	C191	C	0.828730	0.613235	0.882574
	C192	C	0.414305	0.094707	0.602178
	C193	C	0.605872	0.912238	0.599756
	C194	C	0.607029	0.093263	0.412417
	C195	C	0.415230	0.911281	0.410787
	C196	C	0.606337	0.408516	0.098540
	C197	C	0.607517	0.597195	0.917427
	C198	C	0.417309	0.597803	0.098495
	C199	C	0.414796	0.408289	0.915750
	C200	C	0.101834	0.598758	0.413007
	C201	C	0.922072	0.597585	0.602627
	C202	C	0.102444	0.405827	0.605477
	C203	C	0.920242	0.407327	0.413616
	C204	C	0.915664	0.594362	0.103850
	C205	C	0.108019	0.411842	0.104502
	C206	C	0.107150	0.595478	0.914159
	C207	C	0.917760	0.413702	0.915949
	C208	C	0.108271	0.907835	0.598753
	C209	C	0.109990	0.101443	0.415034
	C210	C	0.916211	0.095829	0.597057
	C211	C	0.918815	0.909761	0.416489
	C212	C	0.602936	0.100431	0.908961
	C213	C	0.422505	0.099009	0.101948
	C214	C	0.601755	0.909679	0.100478
	C215	C	0.421817	0.907643	0.911464
	Zn216	Zn	0.511806	0.002773	0.755370
	Zn217	Zn	0.512649	0.003463	0.257169
	Zn218	Zn	0.761916	0.503500	0.008703
	Zn219	Zn	0.261776	0.504040	0.008723
	Zn220	Zn	0.011861	0.753699	0.507556
	Zn221	Zn	0.011601	0.252802	0.508388
	Zn222	Zn	0.011713	0.503429	0.759091
	Zn223	Zn	0.011091	0.503397	0.258452
	Zn224	Zn	0.512338	0.752556	0.006583
	Zn225	Zn	0.512453	0.254617	0.006454
	Zn226	Zn	0.761978	0.002493	0.505908
	Zn227	Zn	0.262005	0.003165	0.506563
	N228	N	0.424154	0.967362	0.686320
	N229	N	0.597358	0.038898	0.684224
	N230	N	0.599545	0.967905	0.326113
	N231	N	0.424685	0.038155	0.325966
	N232	N	0.694515	0.414525	0.973678
	N233	N	0.691961	0.590613	0.043738
	N234	N	0.330336	0.592333	0.973481
	N235	N	0.331448	0.416085	0.043062
	N236	N	0.976878	0.685131	0.419868
	N237	N	0.047031	0.684335	0.595557
	N238	N	0.976597	0.320466	0.597442
	N239	N	0.047279	0.325214	0.423440
	N240	N	0.977249	0.413137	0.691773
	N241	N	0.047078	0.590435	0.688486
	N242	N	0.976461	0.591410	0.327641
	N243	N	0.046136	0.416117	0.327971
	N244	N	0.426195	0.682326	0.971566
	N245	N	0.601478	0.685630	0.041751
	N246	N	0.597221	0.326296	0.970614
	N247	N	0.423510	0.322071	0.042075
	N248	N	0.694067	0.968472	0.417195
	N249	N	0.693708	0.037237	0.594619
	N250	N	0.330623	0.967518	0.593995
	N251	N	0.331830	0.038260	0.418913
	N252	N	0.923519	0.468099	0.189707
	N253	N	0.097553	0.539280	0.187600
	N254	N	0.099405	0.469372	0.828604
	N255	N	0.924141	0.538478	0.827542
	N256	N	0.192270	0.916192	0.471678
	N257	N	0.193910	0.091683	0.541437
	N258	N	0.830570	0.091429	0.471354
	N259	N	0.829129	0.912954	0.539812
	N260	N	0.476758	0.184247	0.918744
	N261	N	0.548300	0.184508	0.093389
	N262	N	0.477595	0.821440	0.094826
	N263	N	0.546974	0.821954	0.918133
	N264	N	0.476780	0.916334	0.186692
	N265	N	0.547150	0.092218	0.188258
	N266	N	0.476989	0.090776	0.824948
	N267	N	0.546261	0.914709	0.824083
	N268	N	0.925358	0.182735	0.471517
	N269	N	0.097683	0.181628	0.543844
	N270	N	0.100589	0.821957	0.472906
	N271	N	0.925904	0.824299	0.542808
	N272	N	0.192880	0.469682	0.920941
	N273	N	0.194046	0.537969	0.097794
	N274	N	0.829493	0.468631	0.098051
	N275	N	0.832049	0.539338	0.921897
	O276	O	0.030571	1.212657	0.218552
	H277	H	0.036557	1.212687	0.223017
	H278	H	0.037753	1.222019	0.229668
	O279	O	0.800258	0.217006	0.992151
	H280	H	0.793605	0.244765	0.994256
	H281	H	0.799521	0.210155	0.963113
	O282	O	0.534971	0.446060	0.534965
	H283	H	0.554500	0.451999	0.529756
	H284	H	0.531512	0.439568	0.546011
	O285	O	0.446199	1.334163	0.460308
	H286	H	0.444837	1.344851	0.481588
	H287	H	0.429193	1.351032	0.453006
	O288	O	0.685255	0.323138	0.332319
	H289	H	0.632824	0.315090	0.325957
	H290	H	0.696710	0.349385	0.346860
	O291	O	0.483806	0.283723	0.727532
	H292	H	0.458511	0.271675	0.733820
	H293	H	0.462356	0.265719	0.742372
	O294	O	0.229284	0.224514	1.032609
	H295	H	0.260004	0.248110	1.047293
	H296	H	0.236539	0.207215	1.041512
	O297	O	-0.204560	0.026969	-0.204803
	H298	H	-0.217565	0.032914	-0.222757
	H299	H	-0.188205	0.020279	-0.222763
	O300	O	0.703615	0.517077	0.688529
	H301	H	0.712917	0.510967	0.676411
	H302	H	0.712132	0.501620	0.686689
	O303	O	0.229503	0.033446	1.225281
	H304	H	0.222335	0.004871	1.201804
	H305	H	0.261926	0.027599	1.258411
	O306	O	0.843056	-0.020710	-0.020948
	H307	H	0.848061	-0.004227	-0.027772
	H308	H	0.848008	-0.008564	-0.018661
	O309	O	0.454294	0.645744	0.594583
	H310	H	0.466614	0.635886	0.595218
	H311	H	0.444376	0.646058	0.595365
	O312	O	0.374911	1.713512	0.471882
	H313	H	0.362711	1.696309	0.481641
	H314	H	0.345446	1.721855	0.483878
	O315	O	0.718944	0.441163	0.584267
	H316	H	0.719405	0.434482	0.570470
	H317	H	0.712109	0.424000	0.560945
	O318	O	1.123503	-0.213275	0.040465
	H319	H	1.104342	-0.204609	0.053894
	H320	H	1.118824	-0.209955	0.028604
	O321	O	0.195215	0.195162	0.196652
	H322	H	0.207251	0.141305	0.207202
	H323	H	0.177426	0.203684	0.182982
	O324	O	0.589875	0.621446	0.352046
	H325	H	0.587979	0.616625	0.359730
	H326	H	0.585760	0.620128	0.344338
	O327	O	0.523009	0.408982	0.588518
	H328	H	0.520239	0.392147	0.590271
	H329	H	0.527096	0.414599	0.587540
	O330	O	-0.115583	0.832871	-0.064022
	H331	H	-0.124869	0.862251	-0.046015
	H332	H	-0.135396	0.829513	-0.078468
	O333	O	0.367942	0.501379	0.299184
	H334	H	0.376492	0.532433	0.290975
	H335	H	0.368269	0.510519	0.301754
	O336	O	0.148251	0.042068	-0.145171
	H337	H	0.166698	0.043242	-0.152651
	H338	H	0.142765	0.061943	-0.154376
	O339	O	0.003464	1.016092	1.186856
	H340	H	0.007078	1.031118	1.176367
	H341	H	-0.008786	1.034860	1.197725
	O342	O	-0.041941	1.212728	1.060030
	H343	H	-0.046491	1.214306	1.083354
	H344	H	-0.053696	1.199201	1.056627
	O345	O	1.041460	1.088640	0.017433
	H346	H	1.038928	1.082091	0.021489
	H347	H	1.048023	1.084855	0.036372
	O348	O	0.532488	0.527797	0.388883
	H349	H	0.530565	0.547097	0.392633
	H350	H	0.536999	0.539421	0.389009
	O351	O	-0.004471	0.828909	1.190425
	H352	H	0.013944	0.839736	1.194608
	H353	H	-0.002334	0.823247	1.195619
	O354	O	-0.476381	0.306983	0.309640
	H355	H	-0.489227	0.305291	0.302174
	H356	H	-0.488374	0.315735	0.307538
	O357	O	-0.503698	0.490843	0.700952
	H358	H	-0.489295	0.499096	0.693678
	H359	H	-0.486936	0.466681	0.703227
	O360	O	0.346920	0.299462	0.525604
	H361	H	0.362478	0.305794	0.511862
	H362	H	0.341543	0.282776	0.507502
	O363	O	-0.203779	-0.210759	1.025562
	H364	H	-0.216353	-0.165930	1.001497
	H365	H	-0.241183	-0.241242	1.030903
	O366	O	0.330311	0.468423	0.453034
	H367	H	0.337788	0.484966	0.469742
	H368	H	0.324598	0.459767	0.455082
	O369	O	0.490948	0.718936	0.289759
	H370	H	0.468387	0.723849	0.279713
	H371	H	0.485119	0.728002	0.269923
	O372	O	0.726244	-0.710104	1.488018
	H373	H	0.726687	-0.726506	1.480290
	H374	H	0.729090	-0.725987	1.476359
	O375	O	0.324185	0.315940	0.694156
	H376	H	0.308428	0.308090	0.691925
	H377	H	0.311300	0.328941	0.663195
	O378	O	0.836112	1.176557	0.826262
	H379	H	0.883530	1.188729	0.816067
	H380	H	0.829192	1.141943	0.834496
	O381	O	1.007163	0.021544	1.086700
	H382	H	1.008385	0.021693	1.082438
	H383	H	1.001966	0.038193	1.087173
	O384	O	0.833805	0.829614	0.184864
	H385	H	0.847981	0.819743	0.164639
	H386	H	0.859801	0.815823	0.170841
	O387	O	0.211521	-0.195384	0.992987
	H388	H	0.206156	-0.212427	0.986162
	H389	H	0.187753	-0.199082	1.016845
	O390	O	0.219373	-0.046403	-0.197422
	H391	H	0.227034	-0.072120	-0.193855
	H392	H	0.234271	-0.062930	-0.206690
	O393	O	0.803845	1.069086	1.071357
	H394	H	0.796162	1.072985	1.092968
	H395	H	0.802726	1.087650	1.075299
	O396	O	1.006668	-0.004504	-0.203561
	H397	H	1.011562	-0.021686	-0.205910
	H398	H	1.027351	0.022089	-0.201423
	O399	O	1.157908	0.034822	0.936537
	H400	H	1.147938	0.042946	0.926593
	H401	H	1.151670	0.020580	0.929911
	O402	O	1.224477	0.943729	1.082198
	H403	H	1.215892	0.944831	1.085475
	H404	H	1.227212	0.950375	1.053705
	O405	O	1.371758	0.559095	-0.494171
	H406	H	1.386537	0.555206	-0.480847
	H407	H	1.375752	0.557415	-0.478516
	O408	O	0.959097	-0.146959	-0.053559
	H409	H	0.955153	-0.133109	-0.072748
	H410	H	0.956878	-0.139452	-0.056922
	O411	O	1.126723	0.834885	-0.117092
	H412	H	1.134575	0.821550	-0.089064
	H413	H	1.089476	0.831673	-0.123840
	O414	O	-0.015653	1.216555	0.794185
	H415	H	-0.006737	1.245854	0.778709
	H416	H	0.008727	1.231992	0.815752
	O417	O	0.719437	0.556294	0.465393
	H418	H	0.717457	0.574243	0.453112
	H419	H	0.720913	0.560748	0.478738
	O420	O	0.028504	-0.196515	-0.199712
	H421	H	0.019551	-0.207312	-0.193288
	H422	H	0.023745	-0.209291	-0.200165
	O423	O	0.528298	0.707508	0.710260
	H424	H	0.538329	0.707727	0.713443
	H425	H	0.555167	0.714415	0.718716
	O426	O	0.720479	0.480534	0.294489
	H427	H	0.743184	0.485988	0.269885
	H428	H	0.722392	0.471268	0.312231
	O429	O	0.703458	0.708456	0.513983
	H430	H	0.677854	0.720572	0.487944
	H431	H	0.712048	0.735558	0.526452
	O432	O	-0.204137	-0.012414	0.220691
	H433	H	-0.202184	-0.049823	0.216615
	H434	H	-0.222994	-0.020926	0.247783
	O435	O	0.396758	0.649981	0.551799
	H436	H	0.401031	0.638441	0.561667
	H437	H	0.388195	0.628795	0.568171
	O438	O	0.138198	0.202393	-0.129294
	H439	H	0.118235	0.178607	-0.110205
	H440	H	0.146272	0.211937	-0.105138
	O441	O	0.317940	0.484763	-0.292743
	H442	H	0.341780	0.486447	-0.282736
	H443	H	0.307207	0.473851	-0.271217
	O444	O	0.043767	0.975561	1.121347
	H445	H	0.027917	0.985741	1.134819
	H446	H	0.033478	0.963587	1.108204
	O447	O	0.338725	0.418848	0.400655
	H448	H	0.345333	0.425689	0.382624
	H449	H	0.349228	0.402716	0.401028
	O450	O	0.328953	0.681284	0.320820
	H451	H	0.332878	0.699035	0.335370
	H452	H	0.318650	0.665243	0.346614
	O453	O	0.689190	0.679906	0.690250
	H454	H	0.699559	0.645783	0.693594
	H455	H	0.688755	0.682207	0.658778
