data_Molecule from HDF5

_cell_length_a		16.419240
_cell_length_b		16.327847
_cell_length_c		16.479241
_cell_angle_alpha	90.042243
_cell_angle_beta	89.900458
_cell_angle_gamma	90.067857
_symmetry_space_group_name_H-M	'P 1'
_symmetry_Int_Tables_number		1

loop_
	_symmetry_equiv_pos_as_xyz
	x,y,z

loop_
	_atom_site_label
	_atom_site_type_symbol
	_atom_site_fract_x
	_atom_site_fract_y
	_atom_site_fract_z
	H0	H	0.393767	0.843540	0.731398
	H1	H	0.611083	0.159446	0.732272
	H2	H	0.608270	0.842765	0.285681
	H3	H	0.395760	0.161613	0.285836
	H4	H	0.724447	0.396790	0.849726
	H5	H	0.722837	0.607174	0.167539
	H6	H	0.277348	0.611470	0.850390
	H7	H	0.278582	0.395718	0.165006
	H8	H	0.844019	0.723264	0.400907
	H9	H	0.160425	0.723074	0.612494
	H10	H	0.844067	0.279776	0.612692
	H11	H	0.162109	0.280550	0.403498
	H12	H	0.845166	0.391407	0.731802
	H13	H	0.160012	0.607972	0.729750
	H14	H	0.843887	0.606626	0.287360
	H15	H	0.159168	0.392011	0.283447
	H16	H	0.397230	0.723929	0.849531
	H17	H	0.605366	0.722022	0.167398
	H18	H	0.609389	0.279955	0.849623
	H19	H	0.397922	0.281921	0.166164
	H20	H	0.722976	0.842618	0.401811
	H21	H	0.723737	0.161925	0.613384
	H22	H	0.280121	0.843058	0.614654
	H23	H	0.280723	0.161695	0.402124
	H24	H	0.898118	0.341725	0.227804
	H25	H	0.110480	0.658863	0.232886
	H26	H	0.107585	0.341785	0.786934
	H27	H	0.895002	0.658714	0.784188
	H28	H	0.225191	0.896496	0.350671
	H29	H	0.225860	0.109735	0.666229
	H30	H	0.780863	0.109443	0.350366
	H31	H	0.779398	0.896085	0.663789
	H32	H	0.344333	0.224734	0.901794
	H33	H	0.660914	0.224065	0.112129
	H34	H	0.343867	0.780255	0.114466
	H35	H	0.660120	0.780508	0.903016
	H36	H	0.344650	0.895258	0.230515
	H37	H	0.659234	0.110245	0.230347
	H38	H	0.344311	0.108876	0.785581
	H39	H	0.659486	0.895135	0.785269
	H40	H	0.900250	0.222076	0.349263
	H41	H	0.108042	0.223439	0.666849
	H42	H	0.108232	0.780592	0.349765
	H43	H	0.895570	0.780121	0.663970
	H44	H	0.223425	0.342812	0.901620
	H45	H	0.223838	0.660363	0.114312
	H46	H	0.783948	0.341314	0.110380
	H47	H	0.783910	0.661627	0.903664
	H48	H	0.414350	0.114378	0.594501
	H49	H	0.591359	0.887033	0.599642
	H50	H	0.593400	0.115805	0.419860
	H51	H	0.412186	0.889277	0.421759
	H52	H	0.590142	0.409757	0.121482
	H53	H	0.599525	0.588998	0.893008
	H54	H	0.416418	0.584241	0.115888
	H55	H	0.407992	0.407121	0.891090
	H56	H	0.116308	0.590349	0.416775
	H57	H	0.888965	0.593342	0.594002
	H58	H	0.113757	0.413922	0.593142
	H59	H	0.889547	0.411086	0.419490
	H60	H	0.115813	0.415576	0.601633
	H61	H	0.891622	0.584569	0.593878
	H62	H	0.115231	0.591812	0.420668
	H63	H	0.890224	0.412844	0.419050
	H64	H	0.415764	0.596881	0.121177
	H65	H	0.588496	0.587145	0.897919
	H66	H	0.596277	0.414109	0.121276
	H67	H	0.409054	0.423838	0.896816
	H68	H	0.590291	0.116810	0.416180
	H69	H	0.585913	0.889616	0.596576
	H70	H	0.413940	0.115990	0.597772
	H71	H	0.414337	0.888330	0.415882
	H72	H	0.914026	0.615054	0.096755
	H73	H	0.085031	0.388469	0.098542
	H74	H	0.091180	0.614945	0.921540
	H75	H	0.911793	0.384442	0.915323
	H76	H	0.091537	0.917535	0.619522
	H77	H	0.093607	0.099495	0.392282
	H78	H	0.909253	0.089079	0.621662
	H79	H	0.911688	0.911388	0.392443
	H80	H	0.616327	0.090535	0.918415
	H81	H	0.386152	0.097032	0.099254
	H82	H	0.616821	0.915454	0.100973
	H83	H	0.390836	0.919927	0.919319
	H84	H	0.615916	0.909963	0.096356
	H85	H	0.390816	0.090744	0.091813
	H86	H	0.614211	0.090137	0.921223
	H87	H	0.386390	0.911301	0.913802
	H88	H	0.914437	0.087876	0.619316
	H89	H	0.099573	0.082077	0.396515
	H90	H	0.087149	0.911612	0.619977
	H91	H	0.912353	0.914556	0.393948
	H92	H	0.090627	0.616434	0.915566
	H93	H	0.089015	0.390521	0.091336
	H94	H	0.911630	0.617030	0.098766
	H95	H	0.919627	0.389449	0.918615
	H96	H	0.417451	0.114568	0.596511
	H97	H	0.592129	0.889454	0.592863
	H98	H	0.588889	0.113926	0.420041
	H99	H	0.418349	0.891614	0.420348
	H100	H	0.589657	0.416622	0.118127
	H101	H	0.591505	0.598478	0.894333
	H102	H	0.405183	0.588492	0.122494
	H103	H	0.423473	0.413532	0.898450
	H104	H	0.114666	0.587846	0.419908
	H105	H	0.887556	0.587751	0.601273
	H106	H	0.117996	0.407533	0.597838
	H107	H	0.888879	0.412109	0.417626
	H108	H	0.915258	0.616083	0.100225
	H109	H	0.093037	0.385869	0.097167
	H110	H	0.085711	0.614725	0.918873
	H111	H	0.911483	0.388395	0.924027
	H112	H	0.093715	0.911318	0.622620
	H113	H	0.082204	0.087131	0.400690
	H114	H	0.913019	0.092469	0.621899
	H115	H	0.914873	0.912199	0.394001
	H116	H	0.614015	0.087682	0.918724
	H117	H	0.389809	0.086659	0.101168
	H118	H	0.613313	0.917001	0.094629
	H119	H	0.388790	0.910124	0.924779
	C120	C	0.381522	0.010476	0.629187
	C121	C	0.623293	0.993801	0.628885
	C122	C	0.623558	0.010729	0.385547
	C123	C	0.381428	0.994523	0.386385
	C124	C	0.624255	0.380759	0.015908
	C125	C	0.624509	0.623654	0.999883
	C126	C	0.379854	0.623726	0.015929
	C127	C	0.380519	0.381465	0.999465
	C128	C	0.011003	0.622487	0.386493
	C129	C	0.993637	0.622122	0.628800
	C130	C	0.011154	0.379442	0.629777
	C131	C	0.994227	0.379650	0.386712
	C132	C	0.881377	0.510390	0.129823
	C133	C	0.122598	0.492923	0.129258
	C134	C	0.122311	0.510243	0.886253
	C135	C	0.881318	0.492501	0.886435
	C136	C	0.123812	0.881069	0.516326
	C137	C	0.124664	0.123410	0.500486
	C138	C	0.880970	0.122913	0.516472
	C139	C	0.880149	0.879921	0.497606
	C140	C	0.510633	0.123019	0.886378
	C141	C	0.493329	0.124505	0.129530
	C142	C	0.510372	0.881400	0.129296
	C143	C	0.492921	0.880844	0.886640
	C144	C	0.376897	0.891087	0.690660
	C145	C	0.627800	0.112495	0.690789
	C146	C	0.626098	0.890750	0.325331
	C147	C	0.378147	0.113883	0.325911
	C148	C	0.684525	0.378126	0.897108
	C149	C	0.683523	0.625388	0.119486
	C150	C	0.318390	0.628449	0.897619
	C151	C	0.319153	0.377990	0.117734
	C152	C	0.891739	0.683301	0.383411
	C153	C	0.112638	0.683338	0.631193
	C154	C	0.891871	0.318963	0.631908
	C155	C	0.113936	0.319871	0.384720
	C156	C	0.892502	0.374991	0.691049
	C157	C	0.112581	0.625572	0.689351
	C158	C	0.891712	0.624962	0.326626
	C159	C	0.112596	0.375539	0.324975
	C160	C	0.378166	0.684454	0.897025
	C161	C	0.624965	0.682713	0.119637
	C162	C	0.626905	0.320143	0.896892
	C163	C	0.378697	0.321396	0.118335
	C164	C	0.683277	0.890632	0.383220
	C165	C	0.684264	0.113321	0.631546
	C166	C	0.320359	0.890747	0.632263
	C167	C	0.321140	0.113922	0.384311
	C168	C	0.879032	0.389803	0.188573
	C169	C	0.127120	0.611785	0.191610
	C170	C	0.125612	0.389957	0.826279
	C171	C	0.877616	0.611417	0.824936
	C172	C	0.184940	0.878172	0.398076
	C173	C	0.185227	0.126900	0.619066
	C174	C	0.821552	0.126387	0.397311
	C175	C	0.819433	0.877527	0.616349
	C176	C	0.391531	0.184040	0.883880
	C177	C	0.612796	0.184697	0.131117
	C178	C	0.391437	0.820379	0.132289
	C179	C	0.612476	0.820365	0.884522
	C180	C	0.391669	0.877848	0.190054
	C181	C	0.612269	0.127870	0.189835
	C182	C	0.391570	0.126683	0.825708
	C183	C	0.611978	0.877235	0.825776
	C184	C	0.881036	0.182545	0.396988
	C185	C	0.126514	0.183736	0.619473
	C186	C	0.126486	0.820653	0.397339
	C187	C	0.877046	0.819694	0.616641
	C188	C	0.183265	0.390510	0.883503
	C189	C	0.183510	0.612543	0.132434
	C190	C	0.822487	0.389744	0.130045
	C191	C	0.822320	0.613033	0.884582
	C192	C	0.407894	0.093445	0.603623
	C193	C	0.597323	0.910435	0.603624
	C194	C	0.597866	0.093970	0.411256
	C195	C	0.407581	0.911281	0.412019
	C196	C	0.599051	0.406095	0.098660
	C197	C	0.600334	0.598710	0.916723
	C198	C	0.405169	0.597437	0.098267
	C199	C	0.406135	0.407441	0.917071
	C200	C	0.093833	0.597116	0.411877
	C201	C	0.910958	0.596120	0.603419
	C202	C	0.094221	0.405240	0.604820
	C203	C	0.911223	0.404718	0.411610
	C204	C	0.906521	0.594244	0.105741
	C205	C	0.096545	0.410009	0.103344
	C206	C	0.096669	0.593545	0.911453
	C207	C	0.906864	0.409169	0.911955
	C208	C	0.098173	0.906079	0.599092
	C209	C	0.099071	0.097253	0.417985
	C210	C	0.905178	0.097223	0.599303
	C211	C	0.905830	0.905243	0.415000
	C212	C	0.593145	0.096966	0.912008
	C213	C	0.410347	0.098789	0.104617
	C214	C	0.593796	0.906797	0.104345
	C215	C	0.410293	0.906541	0.911964
	Zn216	Zn	0.501897	0.002063	0.757743
	Zn217	Zn	0.502186	0.002419	0.257927
	Zn218	Zn	0.753703	0.502039	0.007947
	Zn219	Zn	0.250441	0.502472	0.007096
	Zn220	Zn	0.001901	0.751753	0.507260
	Zn221	Zn	0.002690	0.251355	0.508629
	Zn222	Zn	0.002084	0.500901	0.757737
	Zn223	Zn	0.002030	0.500912	0.258052
	Zn224	Zn	0.501855	0.752147	0.008555
	Zn225	Zn	0.502674	0.252159	0.007346
	Zn226	Zn	0.751477	0.001894	0.506787
	Zn227	Zn	0.253298	0.002497	0.508942
	N228	N	0.414284	0.966568	0.689043
	N229	N	0.590670	0.037134	0.689361
	N230	N	0.589830	0.966728	0.326530
	N231	N	0.414855	0.038416	0.327266
	N232	N	0.682926	0.415202	0.971862
	N233	N	0.683472	0.589600	0.043751
	N234	N	0.319230	0.591575	0.972501
	N235	N	0.319933	0.414515	0.042595
	N236	N	0.966766	0.681956	0.420072
	N237	N	0.037733	0.681270	0.594046
	N238	N	0.966620	0.321504	0.594735
	N239	N	0.039232	0.322247	0.422524
	N240	N	0.967796	0.412064	0.689667
	N241	N	0.037615	0.588282	0.688029
	N242	N	0.966989	0.587909	0.328267
	N243	N	0.037351	0.411934	0.326087
	N244	N	0.415787	0.681690	0.971582
	N245	N	0.588977	0.681906	0.044467
	N246	N	0.590189	0.321564	0.971926
	N247	N	0.416064	0.323337	0.043797
	N248	N	0.681899	0.966152	0.419927
	N249	N	0.681238	0.038322	0.593546
	N250	N	0.323234	0.965766	0.594680
	N251	N	0.323217	0.038738	0.421540
	N252	N	0.914705	0.465960	0.188778
	N253	N	0.090112	0.536288	0.189873
	N254	N	0.088584	0.465399	0.827676
	N255	N	0.913584	0.535467	0.826020
	N256	N	0.183429	0.914948	0.473089
	N257	N	0.184359	0.090239	0.543933
	N258	N	0.821210	0.090112	0.472594
	N259	N	0.821185	0.914198	0.541371
	N260	N	0.466542	0.182066	0.920708
	N261	N	0.537758	0.182684	0.094497
	N262	N	0.466289	0.822657	0.095114
	N263	N	0.537489	0.822280	0.921683
	N264	N	0.466575	0.915293	0.188062
	N265	N	0.536914	0.091174	0.189132
	N266	N	0.466688	0.089713	0.827020
	N267	N	0.536664	0.913787	0.826701
	N268	N	0.917393	0.180423	0.472036
	N269	N	0.089769	0.181709	0.544659
	N270	N	0.089202	0.822194	0.472045
	N271	N	0.913914	0.820887	0.541655
	N272	N	0.181580	0.466318	0.919939
	N273	N	0.180536	0.537911	0.094230
	N274	N	0.823668	0.465797	0.094404
	N275	N	0.824153	0.537867	0.921811
	O276	O	0.323159	0.318812	0.687077
	H277	H	0.322733	0.332073	0.666230
	H278	H	0.320183	0.322997	0.670958
	O279	O	0.711798	0.708338	0.531494
	H280	H	0.717786	0.693729	0.531130
	H281	H	0.735949	0.725827	0.534729
	O282	O	0.537912	0.310991	0.312447
	H283	H	0.544645	0.300939	0.301826
	H284	H	0.527929	0.341576	0.302391
	O285	O	1.087673	0.891795	-0.047666
	H286	H	1.075778	0.901211	-0.039135
	H287	H	1.080921	0.901585	-0.036710
	O288	O	0.477401	0.596226	0.563672
	H289	H	0.464906	0.593816	0.567913
	H290	H	0.485503	0.618082	0.548379
	O291	O	0.694368	0.302894	0.493098
	H292	H	0.670284	0.292753	0.494811
	H293	H	0.706549	0.288650	0.498629
	O294	O	0.782749	0.786332	1.034418
	H295	H	0.768852	0.763511	1.044234
	H296	H	0.781397	0.779866	1.071355
	O297	O	0.308563	0.633626	0.535838
	H298	H	0.339242	0.632130	0.528273
	H299	H	0.286288	0.634962	0.556790
	O300	O	0.638472	0.380336	0.574927
	H301	H	0.631956	0.375793	0.598651
	H302	H	0.612961	0.377200	0.569825
	O303	O	0.530481	0.701784	0.370633
	H304	H	0.549868	0.707170	0.363535
	H305	H	0.539004	0.697799	0.382323
	O306	O	-0.173246	-0.175020	1.187689
	H307	H	-0.183075	-0.130745	1.190578
	H308	H	-0.133445	-0.176225	1.198452
	O309	O	1.049256	-0.131949	0.200445
	H310	H	1.040166	-0.124078	0.209587
	H311	H	1.065932	-0.136822	0.192040
	O312	O	0.334856	0.506958	0.303237
	H313	H	0.339538	0.511884	0.311966
	H314	H	0.318036	0.512152	0.301317
	O315	O	-0.209461	0.047357	1.034802
	H316	H	-0.209536	0.043214	1.017989
	H317	H	-0.206954	0.049118	1.022217
	O318	O	0.078345	0.186766	0.177112
	H319	H	0.090819	0.173735	0.178585
	H320	H	0.071629	0.189065	0.183055
	O321	O	1.213010	0.210080	0.043085
	H322	H	1.215166	0.206966	0.062767
	H323	H	1.224203	0.229465	0.046713
	O324	O	0.938558	0.121709	1.139390
	H325	H	0.919576	0.120265	1.128869
	H326	H	0.955859	0.131405	1.125186
	O327	O	0.423250	0.336554	0.423828
	H328	H	0.428358	0.332073	0.406696
	H329	H	0.421605	0.357981	0.413606
	O330	O	-0.198266	1.203404	0.939029
	H331	H	-0.226087	1.216920	0.937149
	H332	H	-0.192234	1.193192	0.913393
	O333	O	0.150243	0.854606	-0.170110
	H334	H	0.150724	0.886143	-0.167711
	H335	H	0.140231	0.852023	-0.159433
	O336	O	1.129231	0.919591	0.138022
	H337	H	1.145939	0.920334	0.148875
	H338	H	1.123885	0.905975	0.124007
	O339	O	-0.200442	0.993153	1.204181
	H340	H	-0.215345	1.010025	1.200655
	H341	H	-0.213470	1.012281	1.198367
	O342	O	0.701643	0.431430	0.311573
	H343	H	0.685482	0.425878	0.299305
	H344	H	0.710665	0.420016	0.334774
	O345	O	-0.088243	0.075590	1.142065
	H346	H	-0.070527	0.077243	1.144994
	H347	H	-0.108767	0.076158	1.127649
	O348	O	0.417805	0.503268	0.429883
	H349	H	0.417982	0.477082	0.436481
	H350	H	0.426554	0.512864	0.427079
	O351	O	1.064859	1.118406	-0.111515
	H352	H	1.065059	1.122232	-0.119708
	H353	H	1.075870	1.111276	-0.101910
	O354	O	1.105709	0.864091	0.958924
	H355	H	1.111115	0.858556	0.976045
	H356	H	1.084610	0.860219	0.967542
	O357	O	-0.093792	-0.135555	-0.144102
	H358	H	-0.072006	-0.152713	-0.142877
	H359	H	-0.106107	-0.148221	-0.159248
	O360	O	0.692833	0.690260	0.700890
	H361	H	0.674544	0.693575	0.680702
	H362	H	0.671201	0.672650	0.700694
	O363	O	1.162100	-0.032456	-0.061145
	H364	H	1.180923	-0.049816	-0.075080
	H365	H	1.153544	-0.018911	-0.057093
	O366	O	0.041734	0.087039	0.869835
	H367	H	0.027386	0.085905	0.878629
	H368	H	0.039248	0.090773	0.871954
	O369	O	0.483829	0.622380	0.443361
	H370	H	0.482408	0.626077	0.434181
	H371	H	0.477595	0.594660	0.455276
	O372	O	0.623248	0.346877	0.321583
	H373	H	0.616259	0.343591	0.321468
	H374	H	0.622749	0.365950	0.329790
	O375	O	0.198646	-0.125869	1.037849
	H376	H	0.197598	-0.130276	1.014913
	H377	H	0.193903	-0.145801	1.025896
	O378	O	-0.026267	-0.193120	0.076889
	H379	H	-0.038481	-0.183564	0.080275
	H380	H	-0.019182	-0.194277	0.100747
	O381	O	-0.130396	1.127566	-0.180381
	H382	H	-0.120707	1.095934	-0.188428
	H383	H	-0.106501	1.135089	-0.193360
	O384	O	0.484112	0.517530	0.667378
	H385	H	0.491214	0.506622	0.665092
	H386	H	0.477805	0.521483	0.670941
	O387	O	0.528825	0.710080	0.713388
	H388	H	0.517933	0.705084	0.701231
	H389	H	0.521107	0.730605	0.734183
	O390	O	1.175317	1.080342	0.030394
	H391	H	1.181054	1.086407	0.035442
	H392	H	1.179001	1.072606	0.036255
	O393	O	0.403641	0.512887	0.416090
	H394	H	0.406293	0.510860	0.438248
	H395	H	0.395908	0.505653	0.405934
	O396	O	0.287416	0.513182	0.660729
	H397	H	0.282814	0.537794	0.666359
	H398	H	0.281410	0.482230	0.650252
	O399	O	0.626947	0.504690	0.669033
	H400	H	0.642153	0.501234	0.657462
	H401	H	0.637493	0.493291	0.680060
	O402	O	1.058894	0.848040	-0.189750
	H403	H	1.059515	0.840103	-0.196475
	H404	H	1.075435	0.852646	-0.190233
	O405	O	0.380704	0.541658	0.485582
	H406	H	0.400489	0.558420	0.485847
	H407	H	0.368894	0.538299	0.485144
	O408	O	0.327314	0.591570	0.517644
	H409	H	0.322196	0.599271	0.526952
	H410	H	0.330800	0.597773	0.513391
	O411	O	1.101738	1.080304	1.185948
	H412	H	1.120566	1.070289	1.181452
	H413	H	1.100952	1.073414	1.188825
	O414	O	0.518228	0.351191	0.623120
	H415	H	0.524158	0.337889	0.616409
	H416	H	0.505218	0.338509	0.625187
	O417	O	-0.198660	1.010922	0.824410
	H418	H	-0.197353	0.993435	0.827539
	H419	H	-0.206246	0.987077	0.809561
	O420	O	-0.142853	0.934109	0.938032
	H421	H	-0.152619	0.911376	0.945019
	H422	H	-0.141969	0.936432	0.919720
	O423	O	0.034494	1.173263	0.130564
	H424	H	0.027533	1.161841	0.131380
	H425	H	0.036783	1.184248	0.137368
	O426	O	0.295393	0.410941	0.457346
	H427	H	0.298400	0.407120	0.466694
	H428	H	0.304767	0.416402	0.436579
	O429	O	0.710244	0.534778	0.626088
	H430	H	0.726490	0.538393	0.646724
	H431	H	0.711880	0.544313	0.614092
	O432	O	0.495029	0.336395	0.720648
	H433	H	0.487419	0.353653	0.720159
	H434	H	0.502813	0.307932	0.743557
	O435	O	-0.002474	0.158658	-0.064904
	H436	H	0.002440	0.154173	-0.069289
	H437	H	-0.006739	0.157113	-0.068979
	O438	O	0.508394	0.563576	0.321111
	H439	H	0.503524	0.567867	0.329244
	H440	H	0.524946	0.563134	0.323517
	O441	O	0.663010	0.530527	0.485315
	H442	H	0.662260	0.506779	0.474542
	H443	H	0.657422	0.517395	0.479529
