data_Molecule from HDF5

_cell_length_a		16.104794
_cell_length_b		16.424705
_cell_length_c		16.327929
_cell_angle_alpha	90.355406
_cell_angle_beta	89.870599
_cell_angle_gamma	90.326911
_symmetry_space_group_name_H-M	'P 1'
_symmetry_Int_Tables_number		1

loop_
	_symmetry_equiv_pos_as_xyz
	x,y,z

loop_
	_atom_site_label
	_atom_site_type_symbol
	_atom_site_fract_x
	_atom_site_fract_y
	_atom_site_fract_z
	H0	H	0.399823	0.836842	0.709322
	H1	H	0.606366	0.158637	0.714975
	H2	H	0.603293	0.837805	0.275322
	H3	H	0.400816	0.159720	0.277553
	H4	H	0.714784	0.403086	0.829776
	H5	H	0.719359	0.600477	0.157052
	H6	H	0.290399	0.594841	0.829588
	H7	H	0.286728	0.403486	0.157153
	H8	H	0.837871	0.713279	0.393944
	H9	H	0.167174	0.718403	0.594307
	H10	H	0.840079	0.282825	0.594768
	H11	H	0.167409	0.283927	0.389016
	H12	H	0.838758	0.401299	0.706673
	H13	H	0.167876	0.602054	0.707916
	H14	H	0.838014	0.597356	0.279643
	H15	H	0.168379	0.401700	0.277322
	H16	H	0.401372	0.715588	0.831824
	H17	H	0.605733	0.719016	0.156477
	H18	H	0.606002	0.280292	0.833185
	H19	H	0.399301	0.283853	0.156615
	H20	H	0.715132	0.835615	0.395545
	H21	H	0.718127	0.161138	0.593860
	H22	H	0.284211	0.838034	0.592124
	H23	H	0.290030	0.162006	0.396705
	H24	H	0.899453	0.338583	0.210032
	H25	H	0.105526	0.661191	0.210430
	H26	H	0.105535	0.339981	0.771670
	H27	H	0.900177	0.661098	0.775258
	H28	H	0.215968	0.903293	0.329833
	H29	H	0.217431	0.101340	0.656576
	H30	H	0.789033	0.094918	0.329266
	H31	H	0.787372	0.901272	0.656571
	H32	H	0.338659	0.213267	0.895016
	H33	H	0.666367	0.218270	0.097418
	H34	H	0.339329	0.780843	0.097760
	H35	H	0.667086	0.783565	0.892291
	H36	H	0.337399	0.899194	0.209122
	H37	H	0.667098	0.099551	0.210173
	H38	H	0.338038	0.096786	0.779778
	H39	H	0.665479	0.896163	0.776065
	H40	H	0.900168	0.217024	0.331111
	H41	H	0.107556	0.222812	0.653039
	H42	H	0.104877	0.782564	0.331190
	H43	H	0.898203	0.781247	0.654434
	H44	H	0.217651	0.337783	0.891249
	H45	H	0.217384	0.662622	0.090098
	H46	H	0.786369	0.337263	0.090966
	H47	H	0.789602	0.662537	0.897140
	H48	H	0.418263	0.109832	0.583103
	H49	H	0.596258	0.884743	0.579779
	H50	H	0.598203	0.113406	0.406264
	H51	H	0.413473	0.884005	0.397585
	H52	H	0.589601	0.411253	0.108081
	H53	H	0.594364	0.596283	0.878156
	H54	H	0.403878	0.583085	0.108892
	H55	H	0.407937	0.407339	0.878749
	H56	H	0.120757	0.601582	0.407625
	H57	H	0.884567	0.598514	0.583843
	H58	H	0.123544	0.405904	0.585646
	H59	H	0.887344	0.411854	0.402546
	H60	H	0.118938	0.409840	0.575942
	H61	H	0.887994	0.587296	0.579271
	H62	H	0.116651	0.584585	0.405077
	H63	H	0.885112	0.406603	0.396737
	H64	H	0.422747	0.591333	0.104666
	H65	H	0.598053	0.591687	0.877912
	H66	H	0.592861	0.402860	0.111345
	H67	H	0.415385	0.403482	0.879347
	H68	H	0.597720	0.116001	0.397876
	H69	H	0.596993	0.880929	0.591086
	H70	H	0.403571	0.115882	0.586205
	H71	H	0.408964	0.885676	0.404833
	H72	H	0.910492	0.616533	0.092156
	H73	H	0.098453	0.385729	0.077674
	H74	H	0.090456	0.615296	0.891152
	H75	H	0.907401	0.386488	0.904163
	H76	H	0.091956	0.912589	0.607744
	H77	H	0.093083	0.086449	0.379382
	H78	H	0.918303	0.083911	0.603089
	H79	H	0.918210	0.908748	0.380783
	H80	H	0.619173	0.094937	0.912047
	H81	H	0.388390	0.083940	0.086555
	H82	H	0.616007	0.917653	0.082308
	H83	H	0.383925	0.903277	0.902038
	H84	H	0.622293	0.907740	0.094266
	H85	H	0.382420	0.094437	0.093338
	H86	H	0.617074	0.082474	0.903064
	H87	H	0.386866	0.906098	0.907328
	H88	H	0.918860	0.104010	0.609581
	H89	H	0.090458	0.098742	0.377324
	H90	H	0.087924	0.906921	0.608462
	H91	H	0.909954	0.896041	0.374423
	H92	H	0.090382	0.610745	0.909438
	H93	H	0.098817	0.381410	0.092659
	H94	H	0.917550	0.612579	0.086596
	H95	H	0.907360	0.382973	0.894171
	H96	H	0.415295	0.115552	0.597634
	H97	H	0.586155	0.886057	0.586843
	H98	H	0.590763	0.112446	0.401667
	H99	H	0.405466	0.882021	0.397818
	H100	H	0.599197	0.411129	0.110568
	H101	H	0.592406	0.591755	0.881171
	H102	H	0.407730	0.603428	0.113795
	H103	H	0.409148	0.400227	0.875774
	H104	H	0.124138	0.594187	0.391802
	H105	H	0.885353	0.588870	0.591533
	H106	H	0.118857	0.416761	0.584657
	H107	H	0.886313	0.404454	0.404648
	H108	H	0.908676	0.613795	0.082958
	H109	H	0.085412	0.386693	0.086693
	H110	H	0.106141	0.617651	0.901485
	H111	H	0.915989	0.386705	0.897719
	H112	H	0.094665	0.907130	0.610468
	H113	H	0.102656	0.094521	0.375289
	H114	H	0.901241	0.092897	0.611460
	H115	H	0.902374	0.909954	0.376201
	H116	H	0.623307	0.094651	0.896963
	H117	H	0.385626	0.096133	0.079991
	H118	H	0.619527	0.901507	0.078665
	H119	H	0.386595	0.910167	0.902273
	C120	C	0.380762	0.007267	0.617254
	C121	C	0.624476	0.990124	0.616487
	C122	C	0.624734	0.007173	0.371762
	C123	C	0.380848	0.990930	0.372120
	C124	C	0.623659	0.378649	0.002653
	C125	C	0.624996	0.622826	0.986126
	C126	C	0.381792	0.620980	0.001755
	C127	C	0.380284	0.376270	0.985410
	C128	C	0.011418	0.621149	0.372352
	C129	C	0.994893	0.622253	0.614681
	C130	C	0.012045	0.380375	0.612335
	C131	C	0.994777	0.378850	0.371303
	C132	C	0.880716	0.507942	0.116142
	C133	C	0.124278	0.491418	0.114551
	C134	C	0.125064	0.508325	0.870189
	C135	C	0.880985	0.492176	0.870552
	C136	C	0.122609	0.879343	0.501673
	C137	C	0.125474	0.123575	0.484387
	C138	C	0.882528	0.121151	0.500573
	C139	C	0.880323	0.876709	0.484704
	C140	C	0.511329	0.119126	0.874435
	C141	C	0.493656	0.121594	0.116512
	C142	C	0.510797	0.878966	0.115153
	C143	C	0.494312	0.877422	0.873516
	C144	C	0.380232	0.885725	0.671788
	C145	C	0.624657	0.111266	0.674465
	C146	C	0.622926	0.885821	0.314480
	C147	C	0.381922	0.111975	0.316663
	C148	C	0.678210	0.381570	0.879150
	C149	C	0.681173	0.621042	0.108412
	C150	C	0.327058	0.616862	0.878804
	C151	C	0.324408	0.381491	0.108170
	C152	C	0.887341	0.675494	0.374005
	C153	C	0.118047	0.679561	0.613480
	C154	C	0.888822	0.322354	0.613190
	C155	C	0.118439	0.322744	0.370814
	C156	C	0.888118	0.381106	0.668852
	C157	C	0.118424	0.621544	0.670156
	C158	C	0.887301	0.617725	0.317281
	C159	C	0.118874	0.381131	0.314999
	C160	C	0.382335	0.677112	0.880131
	C161	C	0.624577	0.680084	0.108021
	C162	C	0.623948	0.320683	0.881006
	C163	C	0.380247	0.321749	0.107964
	C164	C	0.678874	0.884823	0.374113
	C165	C	0.680556	0.112355	0.614680
	C166	C	0.322623	0.886173	0.613458
	C167	C	0.326696	0.113059	0.376077
	C168	C	0.880585	0.386668	0.171680
	C169	C	0.124428	0.613166	0.171358
	C170	C	0.124583	0.387583	0.811516
	C171	C	0.881662	0.612994	0.814447
	C172	C	0.178470	0.882089	0.378734
	C173	C	0.180725	0.122070	0.606947
	C174	C	0.826384	0.116906	0.378340
	C175	C	0.824453	0.880042	0.607406
	C176	C	0.387550	0.174765	0.875306
	C177	C	0.617166	0.179277	0.116444
	C178	C	0.387911	0.820783	0.115897
	C179	C	0.617745	0.821547	0.873495
	C180	C	0.386797	0.879838	0.171050
	C181	C	0.617663	0.120266	0.172397
	C182	C	0.387275	0.116819	0.818204
	C183	C	0.617101	0.877759	0.815719
	C184	C	0.881708	0.177515	0.378985
	C185	C	0.126013	0.182609	0.605307
	C186	C	0.123418	0.822040	0.379550
	C187	C	0.879617	0.820164	0.606289
	C188	C	0.180614	0.386579	0.870984
	C189	C	0.179977	0.613884	0.111489
	C190	C	0.823830	0.386084	0.112735
	C191	C	0.826358	0.613962	0.874976
	C192	C	0.405349	0.091913	0.595574
	C193	C	0.600211	0.905933	0.592966
	C194	C	0.602262	0.091879	0.395026
	C195	C	0.402853	0.905816	0.393694
	C196	C	0.600574	0.401713	0.087835
	C197	C	0.601744	0.599879	0.901038
	C198	C	0.404762	0.599118	0.087146
	C199	C	0.403870	0.397306	0.899947
	C200	C	0.098066	0.599740	0.394749
	C201	C	0.908203	0.598396	0.591728
	C202	C	0.098179	0.404022	0.588890
	C203	C	0.908663	0.400912	0.394683
	C204	C	0.904949	0.592413	0.093817
	C205	C	0.101087	0.406669	0.092232
	C206	C	0.102362	0.592828	0.893758
	C207	C	0.903537	0.407233	0.892343
	C208	C	0.098528	0.902173	0.586521
	C209	C	0.102186	0.100162	0.399240
	C210	C	0.905955	0.099878	0.585839
	C211	C	0.903543	0.898488	0.399339
	C212	C	0.597494	0.097078	0.897272
	C213	C	0.407775	0.098323	0.093275
	C214	C	0.597074	0.902235	0.091944
	C215	C	0.408115	0.900079	0.897107
	Zn216	Zn	0.502613	-0.001898	0.746228
	Zn217	Zn	0.501792	-0.000568	0.243546
	Zn218	Zn	0.752478	0.499812	-0.006625
	Zn219	Zn	0.252840	0.499499	-0.007130
	Zn220	Zn	0.002760	0.749343	0.492890
	Zn221	Zn	0.003608	0.251608	0.492194
	Zn222	Zn	0.003104	0.500151	0.741433
	Zn223	Zn	0.003308	0.499934	0.244409
	Zn224	Zn	0.502875	0.750836	-0.005703
	Zn225	Zn	0.502819	0.248635	-0.005327
	Zn226	Zn	0.753213	-0.001097	0.493617
	Zn227	Zn	0.252185	0.000226	0.493591
	N228	N	0.415353	0.962263	0.674419
	N229	N	0.590484	0.034346	0.675799
	N230	N	0.590014	0.962928	0.312802
	N231	N	0.414774	0.035085	0.314217
	N232	N	0.678127	0.417130	0.955765
	N233	N	0.681584	0.586242	0.031666
	N234	N	0.326470	0.582813	0.955595
	N235	N	0.324173	0.414722	0.030975
	N236	N	0.965471	0.677538	0.407683
	N237	N	0.039875	0.679965	0.579784
	N238	N	0.966994	0.321703	0.578884
	N239	N	0.040099	0.320949	0.404985
	N240	N	0.965764	0.416281	0.668671
	N241	N	0.040453	0.586693	0.670874
	N242	N	0.965608	0.584685	0.316029
	N243	N	0.041096	0.415197	0.315112
	N244	N	0.415666	0.679606	0.957665
	N245	N	0.590600	0.681429	0.030890
	N246	N	0.590893	0.318684	0.958732
	N247	N	0.414343	0.318568	0.030736
	N248	N	0.680397	0.961313	0.408811
	N249	N	0.680730	0.036159	0.579379
	N250	N	0.322770	0.962869	0.580310
	N251	N	0.325945	0.036531	0.410081
	N252	N	0.915054	0.463396	0.174144
	N253	N	0.090626	0.536258	0.173474
	N254	N	0.091039	0.464331	0.810755
	N255	N	0.915223	0.536062	0.811727
	N256	N	0.178361	0.916950	0.455632
	N257	N	0.180509	0.086118	0.530660
	N258	N	0.826709	0.082663	0.455007
	N259	N	0.824905	0.914597	0.530781
	N260	N	0.465604	0.176415	0.909407
	N261	N	0.539112	0.180154	0.082327
	N262	N	0.465762	0.820249	0.081492
	N263	N	0.540220	0.821316	0.908829
	N264	N	0.464351	0.915456	0.170716
	N265	N	0.540062	0.085075	0.172582
	N266	N	0.465257	0.082857	0.817614
	N267	N	0.539301	0.911547	0.815478
	N268	N	0.915943	0.180326	0.456091
	N269	N	0.092596	0.183824	0.527870
	N270	N	0.089384	0.820116	0.456875
	N271	N	0.913637	0.818007	0.528965
	N272	N	0.180960	0.462606	0.906922
	N273	N	0.180296	0.537191	0.076880
	N274	N	0.823670	0.462621	0.079074
	N275	N	0.826105	0.537909	0.909281
	O276	O	1.037399	-0.024680	1.016516
	H277	H	1.038109	-0.026136	1.004824
	H278	H	1.044387	-0.044660	1.024990
	O279	O	0.472796	0.364792	0.562042
	H280	H	0.456231	0.372641	0.571657
	H281	H	0.461306	0.366163	0.562559
	O282	O	0.638584	0.534506	0.396480
	H283	H	0.648043	0.545320	0.400241
	H284	H	0.633433	0.537223	0.399493
	O285	O	0.619994	0.510395	0.478181
	H286	H	0.622931	0.503697	0.478430
	H287	H	0.617489	0.520075	0.487351
	O288	O	0.496755	0.556961	0.596357
	H289	H	0.490712	0.554056	0.583254
	H290	H	0.490213	0.553144	0.600261
	O291	O	0.107440	0.120539	0.972161
	H292	H	0.098884	0.122247	0.982992
	H293	H	0.102980	0.123991	0.958844
	O294	O	1.001221	0.951785	-0.106505
	H295	H	1.004959	0.956350	-0.101114
	H296	H	0.994978	0.950477	-0.110881
	O297	O	0.926861	1.148289	-0.057520
	H298	H	0.927652	1.149891	-0.044493
	H299	H	0.934313	1.157179	-0.063390
	O300	O	0.548911	0.477456	0.578210
	H301	H	0.536443	0.471411	0.580973
	H302	H	0.545633	0.484389	0.591068
	O303	O	0.599706	0.352672	0.526913
	H304	H	0.603392	0.347697	0.530527
	H305	H	0.601311	0.347737	0.527967
	O306	O	0.006989	1.130887	0.968504
	H307	H	0.011680	1.129109	0.956251
	H308	H	0.006708	1.130115	0.980875
	O309	O	0.562481	0.567860	0.451214
	H310	H	0.566023	0.571569	0.454672
	H311	H	0.553820	0.562486	0.445363
	O312	O	0.982780	0.974966	1.023304
	H313	H	0.973755	0.972094	1.028057
	H314	H	0.967343	0.982291	1.021984
	O315	O	1.015562	1.071830	-0.036097
	H316	H	1.021550	1.060461	-0.044780
	H317	H	1.027364	1.086600	-0.036292
	O318	O	0.853009	0.009527	0.933225
	H319	H	0.842972	0.028628	0.943325
	H320	H	0.860556	0.016524	0.926318
	O321	O	0.401480	0.614909	0.421239
	H322	H	0.399384	0.613138	0.413531
	H323	H	0.403021	0.627695	0.424635
	O324	O	-0.102662	0.922086	1.031144
	H325	H	-0.113454	0.930112	1.032180
	H326	H	-0.111309	0.926046	1.029139
	O327	O	0.056200	0.849594	0.902361
	H328	H	0.051639	0.830164	0.901164
	H329	H	0.065533	0.847949	0.916986
	O330	O	-0.597892	-0.563561	-0.396657
	H331	H	-0.615471	-0.567335	-0.396820
	H332	H	-0.610696	-0.560650	-0.392902
	O333	O	0.445237	0.524230	0.386373
	H334	H	0.459390	0.526772	0.391258
	H335	H	0.464190	0.512375	0.389679
	O336	O	-0.018407	0.017736	0.151332
	H337	H	-0.026805	0.001975	0.144319
	H338	H	-0.012923	0.024306	0.152752
	O339	O	0.010538	0.004093	0.035799
	H340	H	0.014029	0.009726	0.036653
	H341	H	0.018423	-0.006775	0.028777
	O342	O	0.462778	0.505288	0.577277
	H343	H	0.473352	0.503632	0.573598
	H344	H	0.448853	0.501030	0.578957
	O345	O	-0.066551	0.931895	1.034794
	H346	H	-0.067928	0.935457	1.042663
	H347	H	-0.049328	0.939629	1.039447
	O348	O	0.433807	0.531657	0.329756
	H349	H	0.427207	0.536257	0.328181
	H350	H	0.421557	0.528896	0.322607
	O351	O	0.417711	0.459595	0.431475
	H352	H	0.428558	0.455776	0.416461
	H353	H	0.426426	0.464876	0.427978
	O354	O	-0.381330	1.447930	0.482366
	H355	H	-0.379494	1.443278	0.489954
	H356	H	-0.366351	1.451534	0.489766
	O357	O	0.447725	0.502159	0.528190
	H358	H	0.442748	0.501593	0.527103
	H359	H	0.453800	0.502107	0.538089
	O360	O	1.173753	-0.025228	0.868499
	H361	H	1.174477	-0.042415	0.867627
	H362	H	1.174510	-0.022791	0.862090
	O363	O	0.628689	0.518770	0.506249
	H364	H	0.633806	0.507958	0.502732
	H365	H	0.627825	0.510463	0.511141
	O366	O	0.562679	0.550001	0.559722
	H367	H	0.556225	0.555953	0.545433
	H368	H	0.571119	0.549530	0.562443
	O369	O	1.035191	0.071014	0.019493
	H370	H	1.036461	0.059897	0.012241
	H371	H	1.044129	0.060331	0.022133
	O372	O	0.513628	0.462885	0.393407
	H373	H	0.522682	0.456908	0.393395
	H374	H	0.520182	0.453155	0.385400
	O375	O	1.042882	-0.101079	0.955089
	H376	H	1.039080	-0.099606	0.962656
	H377	H	1.036112	-0.099066	0.949861
	O378	O	-0.066624	1.072543	-0.029267
	H379	H	-0.072126	1.068409	-0.029547
	H380	H	-0.058577	1.074295	-0.017335
	O381	O	0.053294	1.056311	1.089358
	H382	H	0.066995	1.067319	1.098240
	H383	H	0.064957	1.038689	1.085924
	O384	O	1.088150	1.025786	-0.091314
	H385	H	1.085330	1.022658	-0.105009
	H386	H	1.100318	1.018915	-0.094092
	O387	O	0.997036	-0.143935	1.049007
	H388	H	0.987651	-0.151716	1.055098
	H389	H	0.988368	-0.144951	1.054163
	O390	O	0.965928	1.050392	-0.024376
	H391	H	0.963781	1.046920	-0.024364
	H392	H	0.952505	1.042197	-0.020854
	O393	O	0.369703	0.403929	0.502246
	H394	H	0.373144	0.397519	0.481730
	H395	H	0.379056	0.392072	0.517864
