data_Molecule from HDF5

_cell_length_a		16.188378
_cell_length_b		16.236490
_cell_length_c		16.393878
_cell_angle_alpha	89.958888
_cell_angle_beta	89.975739
_cell_angle_gamma	89.889114
_symmetry_space_group_name_H-M	'P 1'
_symmetry_Int_Tables_number		1

loop_
	_symmetry_equiv_pos_as_xyz
	x,y,z

loop_
	_atom_site_label
	_atom_site_type_symbol
	_atom_site_fract_x
	_atom_site_fract_y
	_atom_site_fract_z
	H0	H	0.398872	0.849400	0.715346
	H1	H	0.602394	0.175219	0.717357
	H2	H	0.600071	0.848801	0.283266
	H3	H	0.398222	0.176019	0.282268
	H4	H	0.716378	0.412250	0.835879
	H5	H	0.716165	0.611980	0.161184
	H6	H	0.285710	0.611472	0.835971
	H7	H	0.285841	0.415903	0.162219
	H8	H	0.837153	0.728927	0.398693
	H9	H	0.165654	0.725114	0.596116
	H10	H	0.836270	0.299060	0.596648
	H11	H	0.165355	0.298617	0.401004
	H12	H	0.837509	0.411728	0.714522
	H13	H	0.164367	0.613011	0.714644
	H14	H	0.837757	0.615327	0.280715
	H15	H	0.164955	0.411674	0.282830
	H16	H	0.399278	0.729138	0.836204
	H17	H	0.598481	0.727869	0.161459
	H18	H	0.599062	0.296783	0.836331
	H19	H	0.400072	0.296889	0.161515
	H20	H	0.715056	0.848688	0.399678
	H21	H	0.714584	0.177221	0.597715
	H22	H	0.287124	0.848217	0.596052
	H23	H	0.288149	0.178315	0.403610
	H24	H	0.898398	0.350227	0.216279
	H25	H	0.103928	0.675093	0.215767
	H26	H	0.099983	0.348310	0.784467
	H27	H	0.898683	0.675801	0.780668
	H28	H	0.215289	0.915092	0.335714
	H29	H	0.214881	0.111794	0.661314
	H30	H	0.784620	0.112437	0.335700
	H31	H	0.782884	0.912330	0.661007
	H32	H	0.335145	0.225764	0.902045
	H33	H	0.665885	0.225117	0.097337
	H34	H	0.334474	0.800244	0.095656
	H35	H	0.664257	0.798295	0.900751
	H36	H	0.335736	0.912563	0.214456
	H37	H	0.663810	0.113943	0.216632
	H38	H	0.336351	0.115401	0.782401
	H39	H	0.663077	0.911618	0.782757
	H40	H	0.900353	0.229583	0.336388
	H41	H	0.098660	0.226742	0.661744
	H42	H	0.101517	0.796270	0.336830
	H43	H	0.899027	0.795429	0.660979
	H44	H	0.215357	0.348555	0.900175
	H45	H	0.213258	0.677025	0.094958
	H46	H	0.787387	0.348294	0.096126
	H47	H	0.785694	0.677398	0.900336
	H48	H	0.398469	0.131312	0.587887
	H49	H	0.592131	0.894227	0.599654
	H50	H	0.590864	0.131000	0.399794
	H51	H	0.408820	0.893934	0.396213
	H52	H	0.599844	0.425671	0.114068
	H53	H	0.592490	0.604862	0.883514
	H54	H	0.404743	0.614773	0.117488
	H55	H	0.408222	0.424201	0.885937
	H56	H	0.117058	0.608865	0.412394
	H57	H	0.882147	0.610110	0.588718
	H58	H	0.118706	0.418639	0.590444
	H59	H	0.884480	0.417936	0.409781
	H60	H	0.118075	0.421290	0.592260
	H61	H	0.886899	0.598953	0.585919
	H62	H	0.114919	0.595524	0.405702
	H63	H	0.885970	0.427189	0.405965
	H64	H	0.399572	0.600060	0.114508
	H65	H	0.591567	0.605526	0.884135
	H66	H	0.585824	0.420990	0.111696
	H67	H	0.412426	0.415442	0.883471
	H68	H	0.584139	0.125921	0.408154
	H69	H	0.581554	0.901029	0.587632
	H70	H	0.408814	0.131824	0.602354
	H71	H	0.415289	0.899206	0.410013
	H72	H	0.904933	0.631308	0.092399
	H73	H	0.092554	0.397001	0.087188
	H74	H	0.099565	0.630142	0.909347
	H75	H	0.913526	0.400684	0.914203
	H76	H	0.093590	0.919418	0.614331
	H77	H	0.099229	0.109015	0.381015
	H78	H	0.904064	0.102184	0.613533
	H79	H	0.908679	0.920586	0.384269
	H80	H	0.616506	0.103930	0.905251
	H81	H	0.385399	0.100209	0.089594
	H82	H	0.618031	0.911461	0.088008
	H83	H	0.385330	0.930547	0.904506
	H84	H	0.612557	0.928460	0.085636
	H85	H	0.382514	0.105244	0.096405
	H86	H	0.616984	0.104759	0.906129
	H87	H	0.378698	0.915622	0.898838
	H88	H	0.911171	0.105232	0.612359
	H89	H	0.093826	0.100532	0.384352
	H90	H	0.092897	0.918827	0.614315
	H91	H	0.908824	0.921647	0.384647
	H92	H	0.091049	0.631523	0.896726
	H93	H	0.096904	0.394452	0.092394
	H94	H	0.913850	0.628328	0.093265
	H95	H	0.897916	0.393402	0.906089
	H96	H	0.415426	0.125045	0.587441
	H97	H	0.597753	0.897375	0.584085
	H98	H	0.595486	0.128380	0.410341
	H99	H	0.399347	0.894512	0.409647
	H100	H	0.595784	0.411982	0.116234
	H101	H	0.593476	0.606407	0.883561
	H102	H	0.414319	0.604540	0.110901
	H103	H	0.403007	0.417231	0.881425
	H104	H	0.120820	0.607136	0.398835
	H105	H	0.882366	0.601628	0.597672
	H106	H	0.118232	0.418515	0.593501
	H107	H	0.882488	0.419984	0.400712
	H108	H	0.909244	0.627317	0.085501
	H109	H	0.089755	0.396161	0.094142
	H110	H	0.084490	0.626227	0.909039
	H111	H	0.914267	0.395244	0.895562
	H112	H	0.093711	0.918726	0.614395
	H113	H	0.089117	0.109565	0.383092
	H114	H	0.906531	0.109537	0.615465
	H115	H	0.909401	0.920935	0.384524
	H116	H	0.616990	0.103310	0.906437
	H117	H	0.383391	0.108756	0.088474
	H118	H	0.619022	0.923014	0.101312
	H119	H	0.383826	0.917348	0.915125
	C120	C	0.378564	0.021186	0.621013
	C121	C	0.620543	1.005126	0.620012
	C122	C	0.620610	0.020859	0.377084
	C123	C	0.378489	1.004422	0.376821
	C124	C	0.622895	0.390081	0.006748
	C125	C	0.621698	0.634574	0.990684
	C126	C	0.377619	0.635243	0.006928
	C127	C	0.378750	0.390626	0.990773
	C128	C	0.009604	0.634281	0.376092
	C129	C	0.992523	0.632742	0.619626
	C130	C	0.009456	0.391186	0.620350
	C131	C	0.992302	0.391643	0.376732
	C132	C	0.879985	0.520901	0.119340
	C133	C	0.121814	0.504096	0.119587
	C134	C	0.121444	0.520870	0.876646
	C135	C	0.878394	0.504461	0.876003
	C136	C	0.122566	0.890812	0.506878
	C137	C	0.122124	0.134566	0.490533
	C138	C	0.877746	0.135328	0.506828
	C139	C	0.878451	0.890732	0.491078
	C140	C	0.508465	0.133836	0.877248
	C141	C	0.492349	0.134092	0.120664
	C142	C	0.508046	0.891793	0.120102
	C143	C	0.491079	0.891390	0.877468
	C144	C	0.379702	0.898050	0.676596
	C145	C	0.621305	0.127091	0.677982
	C146	C	0.620137	0.897568	0.321235
	C147	C	0.379259	0.127532	0.321252
	C148	C	0.678316	0.392132	0.884539
	C149	C	0.678071	0.632694	0.112673
	C150	C	0.323098	0.632303	0.884451
	C151	C	0.323137	0.394298	0.113326
	C152	C	0.886082	0.690634	0.378436
	C153	C	0.116321	0.688069	0.617054
	C154	C	0.885470	0.336868	0.617256
	C155	C	0.116075	0.336126	0.380227
	C156	C	0.886255	0.392380	0.676126
	C157	C	0.115757	0.632044	0.675794
	C158	C	0.886540	0.634222	0.319669
	C159	C	0.116067	0.392325	0.321460
	C160	C	0.379635	0.691016	0.884892
	C161	C	0.619242	0.689790	0.112908
	C162	C	0.620085	0.334630	0.884702
	C163	C	0.379899	0.335186	0.113146
	C164	C	0.677322	0.897676	0.379142
	C165	C	0.676783	0.128033	0.618298
	C166	C	0.323756	0.897485	0.617859
	C167	C	0.324791	0.128771	0.381858
	C168	C	0.880234	0.398344	0.176412
	C169	C	0.121745	0.626899	0.176269
	C170	C	0.120385	0.397533	0.821618
	C171	C	0.879465	0.627193	0.819774
	C172	C	0.177850	0.893831	0.384574
	C173	C	0.176713	0.131672	0.612998
	C174	C	0.822207	0.133288	0.384666
	C175	C	0.821879	0.892654	0.612654
	C176	C	0.384660	0.189198	0.880415
	C177	C	0.616246	0.188590	0.118141
	C178	C	0.384063	0.836952	0.117189
	C179	C	0.614872	0.835773	0.879690
	C180	C	0.384540	0.893263	0.175846
	C181	C	0.615275	0.133082	0.177476
	C182	C	0.385236	0.133705	0.821269
	C183	C	0.614182	0.892028	0.821073
	C184	C	0.879981	0.191123	0.384895
	C185	C	0.119295	0.189507	0.612867
	C186	C	0.121156	0.834892	0.385181
	C187	C	0.879254	0.834212	0.612588
	C188	C	0.177506	0.397711	0.879600
	C189	C	0.176440	0.628010	0.116484
	C190	C	0.824590	0.397604	0.116949
	C191	C	0.823130	0.628044	0.879014
	C192	C	0.401036	0.107044	0.599130
	C193	C	0.597177	0.919807	0.597256
	C194	C	0.597013	0.106355	0.399541
	C195	C	0.401249	0.918103	0.398671
	C196	C	0.600406	0.412781	0.091870
	C197	C	0.599135	0.612308	0.905573
	C198	C	0.399836	0.613010	0.092260
	C199	C	0.401440	0.412561	0.905867
	C200	C	0.095463	0.610919	0.398892
	C201	C	0.906175	0.610240	0.597270
	C202	C	0.095954	0.413110	0.598512
	C203	C	0.906379	0.415091	0.398829
	C204	C	0.902677	0.606619	0.096911
	C205	C	0.099507	0.418210	0.097655
	C206	C	0.098259	0.607183	0.898454
	C207	C	0.901602	0.418593	0.898648
	C208	C	0.100144	0.912658	0.592295
	C209	C	0.100246	0.112760	0.404974
	C210	C	0.900552	0.112316	0.591795
	C211	C	0.902090	0.914061	0.406399
	C212	C	0.594707	0.110690	0.899500
	C213	C	0.406189	0.111421	0.098069
	C214	C	0.594309	0.914212	0.098059
	C215	C	0.405006	0.914302	0.899759
	Zn216	Zn	0.499442	0.013046	0.749148
	Zn217	Zn	0.500067	0.012711	0.248424
	Zn218	Zn	0.750719	0.512764	-0.001494
	Zn219	Zn	0.249830	0.512872	-0.001829
	Zn220	Zn	0.000613	0.761463	0.499189
	Zn221	Zn	0.000472	0.263742	0.498919
	Zn222	Zn	0.000956	0.512238	0.747739
	Zn223	Zn	0.001462	0.512482	0.248039
	Zn224	Zn	0.499670	0.763505	-0.001247
	Zn225	Zn	0.500304	0.260985	-0.000881
	Zn226	Zn	0.749056	0.012937	0.498870
	Zn227	Zn	0.251028	0.013104	0.498845
	N228	N	0.412748	0.976038	0.678716
	N229	N	0.586808	0.049775	0.679014
	N230	N	0.585512	0.974989	0.319893
	N231	N	0.412151	0.049265	0.318245
	N232	N	0.680197	0.425767	0.961544
	N233	N	0.679352	0.598843	0.035759
	N234	N	0.321694	0.598430	0.961294
	N235	N	0.322135	0.427922	0.036260
	N236	N	0.963564	0.690788	0.412908
	N237	N	0.038609	0.688634	0.582881
	N238	N	0.963161	0.335911	0.583400
	N239	N	0.038257	0.335480	0.413771
	N240	N	0.964386	0.425384	0.678077
	N241	N	0.037581	0.598567	0.677417
	N242	N	0.964297	0.599900	0.318197
	N243	N	0.038020	0.426243	0.319196
	N244	N	0.412953	0.692827	0.962032
	N245	N	0.585140	0.691100	0.036071
	N246	N	0.586303	0.333177	0.961792
	N247	N	0.413715	0.332779	0.036167
	N248	N	0.677879	0.975220	0.413051
	N249	N	0.676347	0.051259	0.582830
	N250	N	0.322808	0.975034	0.583917
	N251	N	0.324034	0.051104	0.415479
	N252	N	0.913972	0.476113	0.178090
	N253	N	0.088560	0.548780	0.178283
	N254	N	0.086187	0.475190	0.819878
	N255	N	0.913140	0.549215	0.817752
	N256	N	0.178806	0.927884	0.461329
	N257	N	0.178806	0.098440	0.535848
	N258	N	0.820622	0.099315	0.461566
	N259	N	0.821217	0.927040	0.536050
	N260	N	0.462337	0.189232	0.914754
	N261	N	0.538822	0.189033	0.083393
	N262	N	0.461699	0.836053	0.083247
	N263	N	0.537429	0.835372	0.914094
	N264	N	0.462694	0.926716	0.177745
	N265	N	0.537269	0.099715	0.178897
	N266	N	0.463277	0.100234	0.819175
	N267	N	0.536232	0.926073	0.819592
	N268	N	0.913740	0.192586	0.461804
	N269	N	0.086102	0.191523	0.535566
	N270	N	0.087197	0.833038	0.462196
	N271	N	0.913749	0.832822	0.535798
	N272	N	0.178398	0.475487	0.912928
	N273	N	0.176759	0.550900	0.081952
	N274	N	0.824355	0.474677	0.082223
	N275	N	0.822122	0.550600	0.913019
	O276	O	0.005011	0.008644	0.065640
	H277	H	-0.006408	0.001293	0.062069
	H278	H	0.003441	0.012851	0.065100
	O279	O	0.523691	0.474295	0.485202
	H280	H	0.530336	0.465828	0.497114
	H281	H	0.527066	0.474502	0.475552
	O282	O	0.543879	0.559897	0.502389
	H283	H	0.536443	0.560334	0.496839
	H284	H	0.550040	0.574072	0.495935
	O285	O	0.975549	-0.031687	1.001044
	H286	H	0.969453	-0.034455	0.997207
	H287	H	0.982814	-0.034341	1.011013
	O288	O	0.942446	0.027279	0.006769
	H289	H	0.938744	0.041742	0.011827
	H290	H	0.935882	0.014224	0.000702
	O291	O	0.520090	0.523176	0.559544
	H292	H	0.516332	0.523073	0.565422
	H293	H	0.524966	0.528810	0.560837
	O294	O	1.026666	-0.028873	1.029799
	H295	H	1.013524	-0.037555	1.029262
	H296	H	1.034681	-0.038164	1.027706
	O297	O	0.067361	0.080298	-0.040307
	H298	H	0.077690	0.086593	-0.042713
	H299	H	0.061944	0.071486	-0.042832
	O300	O	0.989013	-0.012795	-0.120967
	H301	H	0.986598	-0.005554	-0.114178
	H302	H	0.994574	-0.008023	-0.134673
	O303	O	0.550378	0.500581	0.542601
	H304	H	0.547308	0.494542	0.542582
	H305	H	0.544871	0.503843	0.549238
	O306	O	0.932320	-0.110445	0.008758
	H307	H	0.932256	-0.107180	0.007266
	H308	H	0.925461	-0.105251	0.014405
	O309	O	-0.054403	0.000737	0.941265
	H310	H	-0.050304	0.013725	0.929191
	H311	H	-0.060729	-0.006192	0.940242
	O312	O	1.044314	1.051911	1.110019
	H313	H	1.051172	1.045948	1.111212
	H314	H	1.045729	1.051304	1.115011
	O315	O	0.532458	0.489581	0.508786
	H316	H	0.526006	0.488906	0.507464
	H317	H	0.533428	0.494948	0.512405
	O318	O	0.004270	0.101834	-0.020963
	H319	H	0.006516	0.095835	-0.011787
	H320	H	0.003084	0.111300	-0.006903
	O321	O	-0.045934	1.033430	1.065307
	H322	H	-0.049337	1.024380	1.070834
	H323	H	-0.059366	1.040388	1.063153
	O324	O	0.528467	0.518242	0.558005
	H325	H	0.534679	0.510796	0.551741
	H326	H	0.534000	0.515247	0.544920
	O327	O	0.542774	0.563637	0.433625
	H328	H	0.538265	0.559809	0.435159
	H329	H	0.541478	0.565382	0.434371
	O330	O	0.515109	0.525627	0.572103
	H331	H	0.517238	0.520968	0.576758
	H332	H	0.504544	0.531404	0.578111
	O333	O	0.508349	0.502446	0.470621
	H334	H	0.513333	0.496628	0.461874
	H335	H	0.512634	0.508512	0.478289
	O336	O	0.589297	0.513742	0.557729
	H337	H	0.584064	0.515790	0.565621
	H338	H	0.589723	0.513581	0.562703
	O339	O	0.994720	1.128184	0.032984
	H340	H	0.990678	1.133421	0.045032
	H341	H	1.000568	1.137846	0.039854
	O342	O	0.553440	0.564353	0.469733
	H343	H	0.560229	0.563414	0.480757
	H344	H	0.554977	0.553754	0.469461
	O345	O	1.017574	-0.061724	0.959064
	H346	H	1.023526	-0.060729	0.959119
	H347	H	1.018278	-0.064232	0.952993
	O348	O	-0.026306	-0.023683	-0.045941
	H349	H	-0.026935	-0.029535	-0.055159
	H350	H	-0.019045	-0.028533	-0.055669
	O351	O	-0.005640	0.944212	1.011169
	H352	H	-0.010614	0.944352	1.023363
	H353	H	0.005360	0.939651	1.014100
	O354	O	0.547228	0.489712	0.510594
	H355	H	0.558232	0.484961	0.513554
	H356	H	0.554980	0.486018	0.513205
	O357	O	-0.007272	1.064149	0.982619
	H358	H	-0.000153	1.050705	0.983639
	H359	H	-0.014115	1.071138	0.992951
