data_Molecule from HDF5

_cell_length_a		16.348517
_cell_length_b		16.229722
_cell_length_c		16.327453
_cell_angle_alpha	90.356432
_cell_angle_beta	89.996471
_cell_angle_gamma	89.912705
_symmetry_space_group_name_H-M	'P 1'
_symmetry_Int_Tables_number		1

loop_
	_symmetry_equiv_pos_as_xyz
	x,y,z

loop_
	_atom_site_label
	_atom_site_type_symbol
	_atom_site_fract_x
	_atom_site_fract_y
	_atom_site_fract_z
	H0	H	0.398524	0.835969	0.708956
	H1	H	0.596763	0.163703	0.708156
	H2	H	0.595292	0.837500	0.275872
	H3	H	0.396420	0.164339	0.280618
	H4	H	0.711551	0.399832	0.828032
	H5	H	0.716129	0.601886	0.153519
	H6	H	0.279593	0.601359	0.830443
	H7	H	0.280695	0.399732	0.154233
	H8	H	0.834200	0.712741	0.392091
	H9	H	0.159875	0.713851	0.592211
	H10	H	0.834377	0.284750	0.587163
	H11	H	0.160366	0.280854	0.390099
	H12	H	0.834235	0.399292	0.705721
	H13	H	0.159043	0.599429	0.709976
	H14	H	0.834963	0.596489	0.275740
	H15	H	0.159844	0.395289	0.274008
	H16	H	0.398399	0.715162	0.829677
	H17	H	0.597286	0.716751	0.155436
	H18	H	0.596910	0.281771	0.830154
	H19	H	0.400773	0.287727	0.156671
	H20	H	0.711398	0.835161	0.391583
	H21	H	0.715077	0.161660	0.594873
	H22	H	0.282235	0.835355	0.593135
	H23	H	0.280856	0.162684	0.395175
	H24	H	0.898197	0.333740	0.203767
	H25	H	0.099363	0.660075	0.211819
	H26	H	0.096681	0.334489	0.775620
	H27	H	0.896635	0.661543	0.776781
	H28	H	0.215258	0.896214	0.331273
	H29	H	0.213920	0.102833	0.654697
	H30	H	0.778758	0.100068	0.330175
	H31	H	0.779512	0.895821	0.654461
	H32	H	0.335359	0.214398	0.896404
	H33	H	0.660572	0.215929	0.092983
	H34	H	0.335197	0.784277	0.093985
	H35	H	0.659797	0.782083	0.892232
	H36	H	0.334890	0.900421	0.209441
	H37	H	0.657829	0.105300	0.213025
	H38	H	0.337064	0.103212	0.775771
	H39	H	0.659708	0.896688	0.775440
	H40	H	0.898627	0.212244	0.328079
	H41	H	0.097947	0.217452	0.653408
	H42	H	0.097044	0.782095	0.329811
	H43	H	0.897252	0.782947	0.655110
	H44	H	0.214812	0.335388	0.889707
	H45	H	0.213539	0.661453	0.095376
	H46	H	0.781514	0.336081	0.089290
	H47	H	0.782169	0.662347	0.891289
	H48	H	0.402404	0.116231	0.585841
	H49	H	0.598392	0.881967	0.579212
	H50	H	0.586690	0.115745	0.403932
	H51	H	0.406841	0.883594	0.398994
	H52	H	0.587231	0.412303	0.104754
	H53	H	0.585156	0.601163	0.874982
	H54	H	0.404402	0.586600	0.106361
	H55	H	0.406651	0.406723	0.877254
	H56	H	0.113431	0.587825	0.396225
	H57	H	0.882644	0.590296	0.582822
	H58	H	0.111855	0.403005	0.576857
	H59	H	0.880403	0.395362	0.401064
	H60	H	0.110666	0.414441	0.584237
	H61	H	0.882019	0.589847	0.586209
	H62	H	0.113457	0.592497	0.402857
	H63	H	0.886687	0.413000	0.402669
	H64	H	0.409475	0.594728	0.107116
	H65	H	0.601420	0.589719	0.873994
	H66	H	0.590692	0.403336	0.109768
	H67	H	0.405459	0.406407	0.875866
	H68	H	0.590993	0.115882	0.405383
	H69	H	0.589095	0.879971	0.595549
	H70	H	0.406663	0.115130	0.587851
	H71	H	0.407329	0.884758	0.402705
	H72	H	0.900829	0.616971	0.086750
	H73	H	0.085049	0.386398	0.073731
	H74	H	0.094828	0.618115	0.894782
	H75	H	0.903796	0.382508	0.901240
	H76	H	0.093048	0.904317	0.609944
	H77	H	0.095401	0.080573	0.377546
	H78	H	0.902149	0.082602	0.605087
	H79	H	0.904458	0.902250	0.375971
	H80	H	0.611238	0.092156	0.910616
	H81	H	0.380306	0.095018	0.090029
	H82	H	0.614352	0.908601	0.091094
	H83	H	0.380463	0.907086	0.893373
	H84	H	0.612159	0.904583	0.080130
	H85	H	0.381900	0.096532	0.084314
	H86	H	0.611630	0.082634	0.897140
	H87	H	0.383004	0.903543	0.907705
	H88	H	0.914861	0.091238	0.604162
	H89	H	0.082157	0.087543	0.379312
	H90	H	0.091271	0.910921	0.607598
	H91	H	0.900981	0.908443	0.377425
	H92	H	0.079484	0.612303	0.897006
	H93	H	0.098768	0.379991	0.079936
	H94	H	0.912270	0.613957	0.088404
	H95	H	0.901789	0.380886	0.895755
	H96	H	0.406225	0.113768	0.583457
	H97	H	0.580144	0.887255	0.580782
	H98	H	0.589999	0.116575	0.401462
	H99	H	0.404084	0.883123	0.401375
	H100	H	0.596827	0.412201	0.108911
	H101	H	0.584164	0.582588	0.881458
	H102	H	0.400513	0.594792	0.109863
	H103	H	0.405494	0.407808	0.876715
	H104	H	0.110190	0.585291	0.403336
	H105	H	0.881099	0.592478	0.584056
	H106	H	0.115466	0.403663	0.589634
	H107	H	0.879732	0.406578	0.386656
	H108	H	0.907940	0.612441	0.077891
	H109	H	0.085629	0.381573	0.089565
	H110	H	0.090950	0.611845	0.910208
	H111	H	0.907739	0.383014	0.896583
	H112	H	0.086362	0.905305	0.607473
	H113	H	0.094024	0.094996	0.373569
	H114	H	0.901950	0.097806	0.609866
	H115	H	0.908332	0.906776	0.378178
	H116	H	0.617808	0.098755	0.896487
	H117	H	0.382966	0.090736	0.086288
	H118	H	0.609685	0.915552	0.082499
	H119	H	0.386307	0.917507	0.902430
	C120	C	0.375756	0.007592	0.615422
	C121	C	0.619144	0.991081	0.614931
	C122	C	0.618305	0.008157	0.372542
	C123	C	0.375996	0.991543	0.372567
	C124	C	0.619865	0.378706	0.000167
	C125	C	0.619610	0.621373	0.983877
	C126	C	0.375310	0.621968	0.000777
	C127	C	0.377100	0.378468	0.984360
	C128	C	0.004938	0.618239	0.371051
	C129	C	0.988802	0.620456	0.613894
	C130	C	0.005592	0.377355	0.612116
	C131	C	0.989603	0.375391	0.368167
	C132	C	0.877363	0.506661	0.112053
	C133	C	0.119520	0.490107	0.112911
	C134	C	0.118674	0.506408	0.870403
	C135	C	0.875326	0.490273	0.869495
	C136	C	0.119601	0.876483	0.501035
	C137	C	0.119533	0.119341	0.483914
	C138	C	0.876180	0.119757	0.499503
	C139	C	0.875389	0.876301	0.484312
	C140	C	0.506615	0.121160	0.872276
	C141	C	0.488834	0.124202	0.116512
	C142	C	0.505122	0.879866	0.114379
	C143	C	0.489916	0.878355	0.871024
	C144	C	0.377975	0.884669	0.670992
	C145	C	0.617291	0.114268	0.670756
	C146	C	0.616346	0.885833	0.314323
	C147	C	0.376698	0.114954	0.317932
	C148	C	0.673879	0.379837	0.876985
	C149	C	0.676908	0.621388	0.105512
	C150	C	0.318739	0.620883	0.878732
	C151	C	0.320061	0.380154	0.106239
	C152	C	0.882986	0.674479	0.372540
	C153	C	0.111109	0.676161	0.612547
	C154	C	0.882855	0.322116	0.608827
	C155	C	0.111672	0.318929	0.370014
	C156	C	0.882913	0.379185	0.667382
	C157	C	0.110617	0.619447	0.671072
	C158	C	0.883178	0.616508	0.314598
	C159	C	0.111617	0.375659	0.312203
	C160	C	0.377831	0.677510	0.878253
	C161	C	0.617674	0.678103	0.106501
	C162	C	0.616988	0.321193	0.878115
	C163	C	0.379581	0.324408	0.107409
	C164	C	0.673282	0.884662	0.372681
	C165	C	0.675741	0.113586	0.614017
	C166	C	0.320100	0.884549	0.613699
	C167	C	0.319109	0.114263	0.374944
	C168	C	0.878444	0.383180	0.166575
	C169	C	0.118577	0.611810	0.172039
	C170	C	0.117510	0.383550	0.813516
	C171	C	0.876904	0.612948	0.814312
	C172	C	0.176872	0.876403	0.379722
	C173	C	0.175512	0.120900	0.605930
	C174	C	0.818372	0.118802	0.378150
	C175	C	0.818554	0.876992	0.606123
	C176	C	0.384230	0.177230	0.874884
	C177	C	0.611250	0.179106	0.114053
	C178	C	0.383539	0.822950	0.113402
	C179	C	0.611298	0.820535	0.872165
	C180	C	0.383364	0.880735	0.170975
	C181	C	0.610081	0.123744	0.173575
	C182	C	0.384916	0.121469	0.815289
	C183	C	0.611277	0.877363	0.813778
	C184	C	0.878160	0.174494	0.376834
	C185	C	0.117833	0.178130	0.605266
	C186	C	0.117804	0.819782	0.378869
	C187	C	0.877224	0.820737	0.606500
	C188	C	0.176464	0.384216	0.869994
	C189	C	0.175273	0.612680	0.113799
	C190	C	0.820604	0.384235	0.109581
	C191	C	0.819640	0.613161	0.871357
	C192	C	0.398419	0.092964	0.592607
	C193	C	0.596054	0.905254	0.591974
	C194	C	0.595729	0.093965	0.396485
	C195	C	0.399364	0.906046	0.394344
	C196	C	0.598088	0.402396	0.085583
	C197	C	0.596875	0.598130	0.898928
	C198	C	0.398160	0.598835	0.085735
	C199	C	0.399408	0.400478	0.898932
	C200	C	0.090144	0.595288	0.394121
	C201	C	0.903832	0.597619	0.591167
	C202	C	0.090493	0.400180	0.590117
	C203	C	0.904360	0.398266	0.390290
	C204	C	0.900444	0.592330	0.090502
	C205	C	0.096343	0.404815	0.088123
	C206	C	0.095300	0.591975	0.893864
	C207	C	0.897875	0.404387	0.891429
	C208	C	0.096749	0.899962	0.586385
	C209	C	0.097137	0.094801	0.398855
	C210	C	0.899454	0.097199	0.584388
	C211	C	0.897977	0.898995	0.399156
	C212	C	0.591643	0.097813	0.894884
	C213	C	0.403702	0.100845	0.093709
	C214	C	0.589958	0.902946	0.091384
	C215	C	0.405158	0.902428	0.894369
	Zn216	Zn	0.497825	0.000047	0.743343
	Zn217	Zn	0.496577	0.001572	0.243701
	Zn218	Zn	0.748981	0.499461	-0.009122
	Zn219	Zn	0.247528	0.499178	-0.008507
	Zn220	Zn	-0.002910	0.748451	0.492248
	Zn221	Zn	-0.001946	0.247885	0.490248
	Zn222	Zn	-0.003033	0.497987	0.741959
	Zn223	Zn	-0.001992	0.496792	0.240818
	Zn224	Zn	0.497318	0.750042	-0.006882
	Zn225	Zn	0.498481	0.249946	-0.006694
	Zn226	Zn	0.747574	-0.001462	0.492945
	Zn227	Zn	0.248011	-0.001096	0.493348
	N228	N	0.411770	0.962255	0.672272
	N229	N	0.582926	0.036849	0.671417
	N230	N	0.582684	0.963552	0.314188
	N231	N	0.411425	0.037773	0.316426
	N232	N	0.675650	0.414915	0.953936
	N233	N	0.678293	0.586936	0.028325
	N234	N	0.316861	0.587372	0.955899
	N235	N	0.318514	0.413341	0.028759
	N236	N	0.959700	0.675589	0.406832
	N237	N	0.034394	0.677313	0.578270
	N238	N	0.959843	0.320914	0.575010
	N239	N	0.034689	0.318584	0.404114
	N240	N	0.960124	0.412643	0.669694
	N241	N	0.033730	0.585250	0.672048
	N242	N	0.960293	0.582347	0.313276
	N243	N	0.034805	0.410055	0.311012
	N244	N	0.412045	0.678377	0.955200
	N245	N	0.582884	0.678377	0.029843
	N246	N	0.584111	0.320588	0.955625
	N247	N	0.414344	0.323262	0.030734
	N248	N	0.674596	0.961888	0.407887
	N249	N	0.677010	0.035921	0.580184
	N250	N	0.318689	0.961905	0.579822
	N251	N	0.318506	0.036581	0.408116
	N252	N	0.913140	0.460412	0.168216
	N253	N	0.084476	0.534429	0.171353
	N254	N	0.082089	0.460530	0.813718
	N255	N	0.910652	0.535330	0.812792
	N256	N	0.177975	0.911076	0.456711
	N257	N	0.176491	0.084931	0.529410
	N258	N	0.817278	0.085305	0.455416
	N259	N	0.817350	0.911063	0.529211
	N260	N	0.460811	0.177050	0.909605
	N261	N	0.534683	0.179214	0.079202
	N262	N	0.460309	0.822092	0.078901
	N263	N	0.534796	0.820939	0.907150
	N264	N	0.460105	0.915341	0.171658
	N265	N	0.532866	0.090246	0.175319
	N266	N	0.461994	0.087348	0.813542
	N267	N	0.534844	0.912860	0.813178
	N268	N	0.913329	0.175403	0.453393
	N269	N	0.083588	0.177342	0.528409
	N270	N	0.082739	0.819907	0.455460
	N271	N	0.911948	0.820220	0.529757
	N272	N	0.177074	0.461595	0.904889
	N273	N	0.175784	0.535998	0.077614
	N274	N	0.819757	0.461864	0.076420
	N275	N	0.818712	0.535713	0.904843
	O276	O	0.945725	0.051959	0.961023
	H277	H	0.956102	0.048853	0.966647
	H278	H	0.929100	0.038467	0.968318
	O279	O	0.523223	0.519390	0.555876
	H280	H	0.521802	0.512537	0.551799
	H281	H	0.528625	0.514444	0.562932
	O282	O	0.867622	0.839552	0.021395
	H283	H	0.872682	0.835388	0.023756
	H284	H	0.855031	0.829874	0.022882
	O285	O	1.055896	0.036371	0.908244
	H286	H	1.065426	0.014549	0.908145
	H287	H	1.061779	0.029437	0.895942
	O288	O	0.570589	0.534036	0.519516
	H289	H	0.558997	0.525701	0.526535
	H290	H	0.570114	0.529775	0.526395
	O291	O	0.566076	0.473456	0.548149
	H292	H	0.568842	0.466759	0.548448
	H293	H	0.565249	0.478284	0.553509
	O294	O	0.482060	0.487038	0.535107
	H295	H	0.468764	0.493754	0.531156
	H296	H	0.487694	0.489109	0.540574
	O297	O	-0.134429	0.085265	0.873077
	H298	H	-0.135649	0.081374	0.877842
	H299	H	-0.120975	0.102390	0.887382
	O300	O	0.013012	0.878043	0.073658
	H301	H	0.033217	0.884359	0.068616
	H302	H	0.016194	0.875323	0.076153
	O303	O	1.005812	0.995044	0.113851
	H304	H	0.992426	0.998958	0.111898
	H305	H	1.008860	0.983859	0.111724
	O306	O	-0.126448	0.837607	1.085421
	H307	H	-0.129310	0.826940	1.082865
	H308	H	-0.124850	0.834059	1.089104
	O309	O	0.504890	0.572480	0.476844
	H310	H	0.508683	0.579084	0.474388
	H311	H	0.506109	0.569711	0.473666
	O312	O	-0.124423	0.004454	0.053803
	H313	H	-0.128996	0.000549	0.047844
	H314	H	-0.119313	0.007766	0.059462
	O315	O	0.972487	0.139413	0.017052
	H316	H	0.971633	0.142643	-0.000658
	H317	H	0.976687	0.139014	0.011175
	O318	O	0.992263	0.851644	1.050884
	H319	H	0.979931	0.853680	1.057665
	H320	H	0.992167	0.852556	1.043730
	O321	O	0.463513	0.497928	1.476883
	H322	H	0.454634	0.507121	1.485128
	H323	H	0.453337	0.486027	1.469872
	O324	O	0.463033	0.449181	0.424297
	H325	H	0.456686	0.447643	0.415133
	H326	H	0.472025	0.442608	0.428646
	O327	O	0.025555	-0.150697	-0.155935
	H328	H	0.021206	-0.158326	-0.164262
	H329	H	0.008184	-0.128833	-0.157953
	O330	O	0.476984	0.599296	0.427410
	H331	H	0.473326	0.597945	0.419369
	H332	H	0.475304	0.591176	0.426294
	O333	O	0.119821	0.909730	0.904406
	H334	H	0.139796	0.899750	0.889060
	H335	H	0.115382	0.896002	0.903006
	O336	O	-0.095486	0.159926	-0.106580
	H337	H	-0.091335	0.160140	-0.101097
	H338	H	-0.086148	0.159336	-0.097674
	O339	O	0.495581	0.484798	0.530080
	H340	H	0.490801	0.487072	0.538556
	H341	H	0.513987	0.486389	0.527762
	O342	O	1.130528	0.924353	0.935867
	H343	H	1.134994	0.912390	0.939495
	H344	H	1.105060	0.924531	0.941543
	O345	O	1.004949	0.928298	-0.048756
	H346	H	0.993718	0.953319	-0.041568
	H347	H	1.003365	0.925255	-0.043158
	O348	O	0.462304	0.455312	0.546398
	H349	H	0.457561	0.463196	0.545877
	H350	H	0.464874	0.453026	0.539743
	O351	O	0.906035	0.034301	0.864462
	H352	H	0.904857	0.032435	0.867432
	H353	H	0.917514	0.055849	0.868385
	O354	O	0.459841	0.528360	0.399992
	H355	H	0.462401	0.528208	0.392487
	H356	H	0.461329	0.528689	0.393481
	O357	O	1.093987	0.013638	1.005498
	H358	H	1.090748	0.000012	1.006813
	H359	H	1.099275	0.011698	0.989360
	O360	O	0.552443	0.440010	0.449407
	H361	H	0.550377	0.439641	0.452046
	H362	H	0.555189	0.437893	0.442335
	O363	O	0.538465	0.565283	0.559140
	H364	H	0.537853	0.568940	0.565237
	H365	H	0.543777	0.577005	0.552939
	O366	O	0.979812	1.043462	1.069182
	H367	H	0.989478	1.050092	1.068988
	H368	H	0.980083	1.040383	1.061083
	O369	O	1.095321	0.109963	0.952243
	H370	H	1.093096	0.108040	0.948019
	H371	H	1.101775	0.099859	0.953505
	O372	O	-0.082538	0.021498	0.058280
	H373	H	-0.092954	0.022441	0.051618
	H374	H	-0.092827	0.023286	0.062969
	O375	O	1.152015	0.079332	0.047705
	H376	H	1.158837	0.074724	0.050558
	H377	H	1.145711	0.073480	0.030617
	O378	O	0.493642	0.471672	0.421736
	H379	H	0.493699	0.474136	0.417709
	H380	H	0.495183	0.474522	0.418006
	O381	O	0.120835	0.892071	1.022717
	H382	H	0.136109	0.889262	1.032246
	H383	H	0.100983	0.893983	1.022172
