data_Molecule from HDF5

_cell_length_a		16.514342
_cell_length_b		16.589529
_cell_length_c		16.563363
_cell_angle_alpha	90.217407
_cell_angle_beta	89.867040
_cell_angle_gamma	90.012385
_symmetry_space_group_name_H-M	'P 1'
_symmetry_Int_Tables_number		1

loop_
	_symmetry_equiv_pos_as_xyz
	x,y,z

loop_
	_atom_site_label
	_atom_site_type_symbol
	_atom_site_fract_x
	_atom_site_fract_y
	_atom_site_fract_z
	H0	H	0.388230	0.863548	0.713020
	H1	H	0.606758	0.170761	0.714681
	H2	H	0.598943	0.860618	0.267643
	H3	H	0.389665	0.174866	0.267468
	H4	H	0.719683	0.411915	0.833702
	H5	H	0.714660	0.620887	0.148248
	H6	H	0.273457	0.624199	0.834135
	H7	H	0.273496	0.411003	0.145638
	H8	H	0.840987	0.737551	0.383373
	H9	H	0.152869	0.738937	0.595510
	H10	H	0.839765	0.294828	0.594900
	H11	H	0.153622	0.293533	0.382691
	H12	H	0.840324	0.410859	0.712959
	H13	H	0.153630	0.621512	0.710317
	H14	H	0.839840	0.618119	0.271087
	H15	H	0.154339	0.409156	0.266826
	H16	H	0.387400	0.742155	0.835334
	H17	H	0.599980	0.738475	0.146925
	H18	H	0.603871	0.295067	0.833462
	H19	H	0.388454	0.294150	0.145113
	H20	H	0.716551	0.860811	0.382990
	H21	H	0.718668	0.172699	0.594814
	H22	H	0.272192	0.862938	0.596427
	H23	H	0.273690	0.174924	0.384568
	H24	H	0.892019	0.360364	0.208677
	H25	H	0.100838	0.672858	0.211456
	H26	H	0.103571	0.361156	0.765617
	H27	H	0.890550	0.673195	0.767919
	H28	H	0.217869	0.911788	0.333136
	H29	H	0.221023	0.127026	0.644440
	H30	H	0.776309	0.120596	0.332141
	H31	H	0.772692	0.911599	0.644619
	H32	H	0.343441	0.242897	0.879357
	H33	H	0.655011	0.235727	0.090812
	H34	H	0.339710	0.796086	0.094341
	H35	H	0.653005	0.794208	0.881981
	H36	H	0.338399	0.914644	0.208531
	H37	H	0.654686	0.120099	0.207090
	H38	H	0.342567	0.125871	0.764922
	H39	H	0.652307	0.908910	0.765178
	H40	H	0.890127	0.239602	0.334409
	H41	H	0.104796	0.241847	0.644743
	H42	H	0.099362	0.797128	0.332888
	H43	H	0.889425	0.795563	0.645381
	H44	H	0.221380	0.362357	0.880288
	H45	H	0.217072	0.673767	0.094897
	H46	H	0.774765	0.362132	0.095137
	H47	H	0.775470	0.674272	0.885834
	H48	H	0.409287	0.128912	0.577030
	H49	H	0.587156	0.904384	0.576976
	H50	H	0.582758	0.129884	0.396342
	H51	H	0.408463	0.907827	0.400230
	H52	H	0.580285	0.429863	0.098796
	H53	H	0.590472	0.605725	0.876745
	H54	H	0.413470	0.607474	0.099969
	H55	H	0.408718	0.431107	0.878805
	H56	H	0.110546	0.605248	0.398148
	H57	H	0.886726	0.606313	0.571279
	H58	H	0.106819	0.429322	0.573728
	H59	H	0.885150	0.429779	0.396980
	H60	H	0.107556	0.431656	0.577287
	H61	H	0.885316	0.598526	0.581446
	H62	H	0.111157	0.609110	0.400833
	H63	H	0.883493	0.424118	0.399249
	H64	H	0.405326	0.608767	0.102491
	H65	H	0.583947	0.604419	0.878343
	H66	H	0.585881	0.421970	0.104512
	H67	H	0.412816	0.431719	0.880889
	H68	H	0.587566	0.129331	0.403661
	H69	H	0.580340	0.906021	0.578680
	H70	H	0.411782	0.127521	0.576217
	H71	H	0.405069	0.906587	0.399386
	H72	H	0.904403	0.630694	0.079159
	H73	H	0.089002	0.404759	0.074578
	H74	H	0.092962	0.631319	0.898742
	H75	H	0.906129	0.403561	0.896054
	H76	H	0.083805	0.917334	0.606130
	H77	H	0.077827	0.109906	0.378533
	H78	H	0.910375	0.108684	0.601229
	H79	H	0.914810	0.928679	0.380120
	H80	H	0.607011	0.105673	0.906243
	H81	H	0.385764	0.101536	0.077825
	H82	H	0.608860	0.928252	0.078205
	H83	H	0.385373	0.930117	0.902365
	H84	H	0.610312	0.927454	0.079477
	H85	H	0.380668	0.109683	0.084569
	H86	H	0.607096	0.099679	0.902883
	H87	H	0.385433	0.930356	0.901790
	H88	H	0.903508	0.105314	0.602684
	H89	H	0.090753	0.104690	0.376130
	H90	H	0.095447	0.933703	0.603727
	H91	H	0.906350	0.918585	0.374043
	H92	H	0.077981	0.628200	0.894949
	H93	H	0.086719	0.402894	0.081454
	H94	H	0.908515	0.632007	0.084861
	H95	H	0.915394	0.407948	0.902164
	H96	H	0.409584	0.127367	0.574683
	H97	H	0.582808	0.907182	0.571896
	H98	H	0.591083	0.132201	0.396121
	H99	H	0.407842	0.906374	0.396717
	H100	H	0.590475	0.431857	0.101855
	H101	H	0.586092	0.610669	0.876351
	H102	H	0.407819	0.601725	0.099600
	H103	H	0.411577	0.427780	0.878163
	H104	H	0.109114	0.605205	0.402591
	H105	H	0.881105	0.610500	0.582313
	H106	H	0.108650	0.427955	0.577025
	H107	H	0.885979	0.428040	0.403145
	H108	H	0.911060	0.628285	0.078922
	H109	H	0.082102	0.406295	0.076777
	H110	H	0.083474	0.624942	0.909785
	H111	H	0.904624	0.407256	0.907704
	H112	H	0.076045	0.933141	0.597010
	H113	H	0.080755	0.096627	0.382634
	H114	H	0.909328	0.101347	0.599061
	H115	H	0.901131	0.931920	0.376433
	H116	H	0.609913	0.105530	0.899809
	H117	H	0.383524	0.112463	0.073750
	H118	H	0.609502	0.926431	0.077885
	H119	H	0.385559	0.929366	0.901801
	C120	C	0.375671	0.025987	0.610169
	C121	C	0.617395	1.008392	0.609534
	C122	C	0.618098	0.026360	0.366704
	C123	C	0.374393	1.010148	0.367238
	C124	C	0.618591	0.395931	-0.001973
	C125	C	0.617924	0.638710	0.981451
	C126	C	0.375160	0.638857	-0.002039
	C127	C	0.376176	0.396277	0.981535
	C128	C	0.005951	0.637245	0.369152
	C129	C	0.987971	0.638029	0.611147
	C130	C	0.004733	0.396170	0.609975
	C131	C	0.988712	0.394398	0.367554
	C132	C	0.875831	0.526437	0.111955
	C133	C	0.118001	0.508172	0.110691
	C134	C	0.118672	0.525531	0.867358
	C135	C	0.875817	0.509353	0.869330
	C136	C	0.117245	0.896149	0.498314
	C137	C	0.117004	0.138143	0.481589
	C138	C	0.875461	0.137544	0.497716
	C139	C	0.874425	0.894490	0.480202
	C140	C	0.505721	0.137777	0.868560
	C141	C	0.487845	0.139107	0.110101
	C142	C	0.504976	0.896400	0.110283
	C143	C	0.488233	0.895883	0.867964
	C144	C	0.371216	0.909710	0.671953
	C145	C	0.622850	0.124699	0.672522
	C146	C	0.618370	0.908014	0.307253
	C147	C	0.371579	0.127881	0.307402
	C148	C	0.679435	0.393726	0.880572
	C149	C	0.675667	0.639733	0.100665
	C150	C	0.313809	0.642143	0.881177
	C151	C	0.313886	0.392958	0.098529
	C152	C	0.887827	0.696953	0.366354
	C153	C	0.105907	0.698575	0.613777
	C154	C	0.886760	0.335126	0.613441
	C155	C	0.106812	0.333884	0.364769
	C156	C	0.887046	0.392728	0.671820
	C157	C	0.106514	0.639991	0.670633
	C158	C	0.887358	0.637838	0.310096
	C159	C	0.106885	0.391178	0.306865
	C160	C	0.370691	0.700811	0.881497
	C161	C	0.618628	0.698209	0.099950
	C162	C	0.621989	0.335371	0.880552
	C163	C	0.371077	0.334625	0.098218
	C164	C	0.676941	0.907980	0.364466
	C165	C	0.678763	0.125622	0.612982
	C166	C	0.313332	0.909503	0.614188
	C167	C	0.314169	0.127990	0.365806
	C168	C	0.873817	0.407804	0.169853
	C169	C	0.119869	0.626058	0.171345
	C170	C	0.121697	0.408086	0.806062
	C171	C	0.872584	0.626537	0.808472
	C172	C	0.177285	0.893999	0.380135
	C173	C	0.179419	0.143252	0.598120
	C174	C	0.815898	0.139563	0.379643
	C175	C	0.812997	0.892535	0.597681
	C176	C	0.389489	0.200954	0.863274
	C177	C	0.607350	0.197101	0.110565
	C178	C	0.386498	0.836596	0.112531
	C179	C	0.605751	0.834444	0.864248
	C180	C	0.385870	0.895792	0.169003
	C181	C	0.607020	0.139359	0.168092
	C182	C	0.389039	0.142547	0.806376
	C183	C	0.605516	0.891576	0.806092
	C184	C	0.872550	0.198568	0.380653
	C185	C	0.121774	0.200825	0.598085
	C186	C	0.118810	0.836620	0.380028
	C187	C	0.871059	0.834884	0.597906
	C188	C	0.180205	0.408666	0.863182
	C189	C	0.177356	0.626350	0.113105
	C190	C	0.815268	0.408859	0.113261
	C191	C	0.815424	0.627124	0.867164
	C192	C	0.402646	0.106847	0.583559
	C193	C	0.590956	0.927028	0.583197
	C194	C	0.593983	0.109008	0.391522
	C195	C	0.399728	0.928346	0.391874
	C196	C	0.592749	0.421075	0.080231
	C197	C	0.593769	0.613902	0.898788
	C198	C	0.401408	0.613281	0.079530
	C199	C	0.403318	0.422614	0.900498
	C200	C	0.088679	0.613197	0.393731
	C201	C	0.905812	0.612464	0.585856
	C202	C	0.086301	0.422330	0.583672
	C203	C	0.906356	0.419817	0.392798
	C204	C	0.900739	0.608765	0.087931
	C205	C	0.093148	0.425967	0.085130
	C206	C	0.092446	0.607053	0.893619
	C207	C	0.901551	0.427700	0.894744
	C208	C	0.092075	0.920872	0.580881
	C209	C	0.090653	0.111379	0.400260
	C210	C	0.900484	0.112288	0.579727
	C211	C	0.900062	0.919269	0.398079
	C212	C	0.587012	0.111078	0.895249
	C213	C	0.404927	0.114946	0.085776
	C214	C	0.587831	0.920562	0.085869
	C215	C	0.406569	0.922421	0.894322
	Zn216	Zn	0.497299	0.017188	0.739386
	Zn217	Zn	0.495945	0.018501	0.238475
	Zn218	Zn	0.747139	0.517890	-0.009355
	Zn219	Zn	0.246764	0.517317	-0.010744
	Zn220	Zn	-0.003319	0.766163	0.489734
	Zn221	Zn	-0.003111	0.267029	0.489442
	Zn222	Zn	-0.003412	0.517010	0.739690
	Zn223	Zn	-0.002576	0.515939	0.240066
	Zn224	Zn	0.496771	0.767643	-0.010940
	Zn225	Zn	0.497357	0.267076	-0.010513
	Zn226	Zn	0.746290	0.016640	0.488794
	Zn227	Zn	0.246010	0.018178	0.489542
	N228	N	0.409013	0.983275	0.669780
	N229	N	0.585415	0.050882	0.670530
	N230	N	0.582612	0.982770	0.308504
	N231	N	0.408253	0.053572	0.307890
	N232	N	0.677515	0.430687	0.954806
	N233	N	0.675706	0.603858	0.025790
	N234	N	0.316513	0.604334	0.954557
	N235	N	0.316713	0.430448	0.024792
	N236	N	0.962508	0.696517	0.402543
	N237	N	0.031125	0.697644	0.577647
	N238	N	0.960961	0.337001	0.575782
	N239	N	0.032166	0.335406	0.401445
	N240	N	0.961418	0.429719	0.669863
	N241	N	0.032071	0.603271	0.669298
	N242	N	0.961846	0.601120	0.311789
	N243	N	0.032430	0.428116	0.308465
	N244	N	0.408064	0.699117	0.955460
	N245	N	0.583666	0.697957	0.024620
	N246	N	0.584798	0.336691	0.954745
	N247	N	0.409041	0.336248	0.024421
	N248	N	0.677002	0.982662	0.400556
	N249	N	0.675366	0.052278	0.574296
	N250	N	0.315895	0.982986	0.576397
	N251	N	0.315504	0.053649	0.401889
	N252	N	0.910724	0.481926	0.169417
	N253	N	0.083933	0.551334	0.170081
	N254	N	0.084173	0.481942	0.808402
	N255	N	0.909107	0.552099	0.809366
	N256	N	0.176521	0.930266	0.454858
	N257	N	0.176375	0.104667	0.524680
	N258	N	0.817439	0.102440	0.453524
	N259	N	0.814701	0.928643	0.523234
	N260	N	0.463074	0.197988	0.901538
	N261	N	0.531940	0.197326	0.075554
	N262	N	0.461529	0.836824	0.076811
	N263	N	0.531790	0.837041	0.902241
	N264	N	0.460688	0.931960	0.167976
	N265	N	0.531718	0.104309	0.168146
	N266	N	0.462370	0.103934	0.809531
	N267	N	0.531453	0.929226	0.808322
	N268	N	0.908812	0.197621	0.455141
	N269	N	0.083453	0.197539	0.524660
	N270	N	0.082425	0.837763	0.454676
	N271	N	0.908263	0.835770	0.523750
	N272	N	0.178544	0.482716	0.900391
	N273	N	0.176346	0.552097	0.076095
	N274	N	0.816330	0.483544	0.077897
	N275	N	0.817430	0.553367	0.904340
	O276	O	1.054602	0.980178	0.190571
	H277	H	1.064419	1.001758	0.192714
	H278	H	1.062023	0.992470	0.185599
	O279	O	0.059735	0.101401	0.858281
	H280	H	0.068744	0.124648	0.855592
	H281	H	0.062265	0.107234	0.859225
	O282	O	0.524052	0.294677	0.263194
	H283	H	0.555534	0.286335	0.257537
	H284	H	0.544897	0.278535	0.248363
	O285	O	0.704233	0.731339	0.289247
	H286	H	0.712106	0.726536	0.298304
	H287	H	0.687410	0.719184	0.296405
	O288	O	1.514242	-0.275237	0.706287
	H289	H	1.517328	-0.277118	0.688494
	H290	H	1.517988	-0.259347	0.717971
	O291	O	0.509802	0.648828	0.400480
	H292	H	0.501780	0.645690	0.394662
	H293	H	0.499880	0.631540	0.399931
	O294	O	0.017911	-0.092677	-0.211178
	H295	H	0.010307	-0.093783	-0.212692
	H296	H	0.013783	-0.086960	-0.213421
	O297	O	1.215357	0.045577	0.213410
	H298	H	1.235411	0.069344	0.229210
	H299	H	1.225211	0.060851	0.212377
	O300	O	0.462159	0.735558	0.275197
	H301	H	0.472620	0.743314	0.256198
	H302	H	0.452969	0.740156	0.274150
	O303	O	-0.582413	-0.465264	-0.455738
	H304	H	-0.582560	-0.463298	-0.440800
	H305	H	-0.586370	-0.465046	-0.474689
	O306	O	0.840538	-0.005451	0.033511
	H307	H	0.848331	-0.015601	0.021995
	H308	H	0.834351	-0.025071	0.039599
	O309	O	0.385028	0.374431	0.396552
	H310	H	0.382402	0.367013	0.378665
	H311	H	0.372458	0.382134	0.394798
	O312	O	0.070436	1.099379	0.809077
	H313	H	0.081768	1.126252	0.804156
	H314	H	0.064601	1.110432	0.826638
	O315	O	0.319356	0.530123	0.268638
	H316	H	0.305188	0.526435	0.251263
	H317	H	0.310034	0.540196	0.275229
	O318	O	0.677279	0.424449	0.372876
	H319	H	0.678981	0.423097	0.377838
	H320	H	0.678709	0.421990	0.393029
	O321	O	-0.022408	0.868435	0.888408
	H322	H	-0.040486	0.881925	0.887168
	H323	H	-0.031621	0.850738	0.881305
	O324	O	0.938613	0.134013	0.990549
	H325	H	0.919116	0.144235	0.981242
	H326	H	0.940462	0.121935	0.985231
	O327	O	0.323552	0.438387	0.665901
	H328	H	0.322596	0.453396	0.674890
	H329	H	0.320664	0.431262	0.662397
	O330	O	1.228929	1.285566	-0.275418
	H331	H	1.223188	1.314452	-0.292619
	H332	H	1.272492	1.289768	-0.273569
	O333	O	0.793502	0.218875	0.785085
	H334	H	0.788796	0.211834	0.789629
	H335	H	0.806511	0.211502	0.795286
	O336	O	0.091251	1.105570	-0.015402
	H337	H	0.109607	1.116132	-0.019424
	H338	H	0.085930	1.109313	-0.014646
	O339	O	0.319586	0.624143	0.614785
	H340	H	0.308752	0.631296	0.649326
	H341	H	0.326102	0.632174	0.612121
	O342	O	-0.363059	0.522678	0.474426
	H343	H	-0.365606	0.515380	0.470349
	H344	H	-0.379358	0.520113	0.471717
	O345	O	0.643137	0.329628	0.617509
	H346	H	0.633125	0.325841	0.634628
	H347	H	0.633193	0.331916	0.618937
	O348	O	0.494994	0.497310	0.405070
	H349	H	0.485262	0.504427	0.414377
	H350	H	0.501739	0.490097	0.396629
	O351	O	0.170358	0.195631	0.995840
	H352	H	0.160251	0.185636	1.007356
	H353	H	0.185721	0.212419	1.002235
	O354	O	1.088743	-0.017635	0.842253
	H355	H	1.093618	-0.027874	0.831155
	H356	H	1.109873	-0.008234	0.834793
	O357	O	0.453255	0.364489	0.455454
	H358	H	0.466417	0.361122	0.436220
	H359	H	0.438683	0.368091	0.439504
	O360	O	0.708857	0.352699	0.457580
	H361	H	0.701157	0.354628	0.466193
	H362	H	0.709160	0.341984	0.475371
	O363	O	0.281098	0.732268	0.712568
	H364	H	0.288514	0.720533	0.719158
	H365	H	0.267461	0.751949	0.750205
	O366	O	0.891734	0.115105	1.196939
	H367	H	0.900360	0.113406	1.179962
	H368	H	0.873009	0.099102	1.194092
	O369	O	0.204285	0.052248	0.851030
	H370	H	0.204172	0.045593	0.854077
	H371	H	0.224538	0.057966	0.840014
	O372	O	0.108176	0.796873	1.000587
	H373	H	0.096937	0.791496	0.997083
	H374	H	0.128538	0.801540	0.983319
	O375	O	1.199018	-0.124104	-0.211560
	H376	H	1.168769	-0.135385	-0.208153
	H377	H	1.204456	-0.103805	-0.208661
	O378	O	0.283523	0.734656	0.461030
	H379	H	0.269838	0.752621	0.467256
	H380	H	0.279329	0.737708	0.462263
	O381	O	0.291222	0.723720	0.283044
	H382	H	0.294904	0.719817	0.282374
	H383	H	0.287149	0.739727	0.279759
	O384	O	0.628257	0.492113	0.588725
	H385	H	0.631330	0.490515	0.587202
	H386	H	0.630463	0.496509	0.585987
	O387	O	-0.026757	1.223340	1.039899
	H388	H	-0.027326	1.203074	1.034938
	H389	H	-0.036189	1.231356	1.021313
	O390	O	-0.129960	1.225321	0.883641
	H391	H	-0.118951	1.231946	0.876939
	H392	H	-0.135069	1.216667	0.892924
	O393	O	0.911743	0.101345	0.051628
	H394	H	0.900616	0.104608	0.042729
	H395	H	0.918441	0.097020	0.053563
	O396	O	0.515775	0.521891	0.521791
	H397	H	0.508669	0.512698	0.509272
	H398	H	0.518439	0.524454	0.500135
	O399	O	0.509837	0.407493	0.681488
	H400	H	0.514425	0.394352	0.682089
	H401	H	0.506937	0.421909	0.672680
	O402	O	0.978286	-0.047451	1.192021
	H403	H	0.993447	-0.033822	1.182971
	H404	H	0.992743	-0.036986	1.181850
	O405	O	0.429546	0.560023	0.452853
	H406	H	0.420257	0.571213	0.451067
	H407	H	0.409122	0.565851	0.452289
	O408	O	0.864480	1.130532	0.802220
	H409	H	0.842904	1.136121	0.779970
	H410	H	0.872241	1.125098	0.814563
	O411	O	0.840254	0.810174	-0.019725
	H412	H	0.810606	0.797768	-0.013434
	H413	H	0.848413	0.809331	-0.002354
	O414	O	-0.210856	-0.191018	0.106602
	H415	H	-0.214998	-0.211594	0.130702
	H416	H	-0.196137	-0.204246	0.113080
	O417	O	-0.047665	0.000122	0.900003
	H418	H	-0.039356	-0.002079	0.894479
	H419	H	-0.055323	-0.013891	0.909796
	O420	O	1.010181	-0.198547	1.021991
	H421	H	1.016214	-0.192706	1.005003
	H422	H	1.010159	-0.199036	1.024795
	O423	O	1.652538	0.498624	0.301056
	H424	H	1.659077	0.495992	0.303468
	H425	H	1.647709	0.503553	0.302354
	O426	O	0.701708	0.719267	0.694863
	H427	H	0.674806	0.717787	0.682168
	H428	H	0.700525	0.706139	0.669270
	O429	O	1.126906	0.851404	-0.034094
	H430	H	1.132510	0.851344	-0.035466
	H431	H	1.112884	0.859042	-0.034438
	O432	O	1.070880	0.231439	1.161278
	H433	H	1.065304	0.238190	1.168862
	H434	H	1.050694	0.238688	1.158636
	O435	O	-0.213445	-0.048444	0.195859
	H436	H	-0.218781	-0.058148	0.206669
	H437	H	-0.215390	-0.062783	0.199775
	O438	O	0.685760	0.526850	0.703653
	H439	H	0.674991	0.534528	0.689412
	H440	H	0.704703	0.529705	0.728644
	O441	O	0.714133	0.731455	0.517973
	H442	H	0.700217	0.723158	0.506580
	H443	H	0.739230	0.752174	0.514761
	O444	O	0.323668	0.310647	0.467056
	H445	H	0.323102	0.318109	0.465325
	H446	H	0.308801	0.294943	0.457482
	O447	O	0.457387	0.489291	0.657734
	H448	H	0.467865	0.494309	0.649770
	H449	H	0.462590	0.503487	0.658958
	O450	O	1.354746	-0.488529	0.485719
	H451	H	1.358272	-0.474985	0.491881
	H452	H	1.349015	-0.485831	0.478668
	O453	O	0.971238	0.046204	0.860355
	H454	H	0.967476	0.055734	0.864209
	H455	H	0.972610	0.050144	0.841764
	O456	O	-0.189528	0.917238	0.876650
	H457	H	-0.199478	0.900013	0.875722
	H458	H	-0.186063	0.918460	0.865662
	O459	O	0.531259	0.601424	0.493214
	H460	H	0.524468	0.613282	0.476696
	H461	H	0.516306	0.606752	0.495374
	O462	O	0.513883	0.537568	0.353683
	H463	H	0.509204	0.547838	0.359130
	H464	H	0.521055	0.519796	0.346104
	O465	O	0.702837	0.366119	0.281970
	H466	H	0.710379	0.357000	0.289489
	H467	H	0.710759	0.379516	0.286352
	O468	O	0.182792	1.194745	0.163503
	H469	H	0.170631	1.181728	0.138383
	H470	H	0.147260	1.208870	0.164493
	O471	O	0.420473	0.409267	0.683078
	H472	H	0.408739	0.415601	0.673682
	H473	H	0.419079	0.388566	0.696614
	O474	O	1.162801	0.838750	0.173100
	H475	H	1.142189	0.843075	0.149288
	H476	H	1.160208	0.858833	0.167176
	O477	O	-0.160552	0.053226	1.094266
	H478	H	-0.165866	0.044207	1.081802
	H479	H	-0.160545	0.048816	1.109697
