data_Molecule from HDF5

_cell_length_a		16.143938
_cell_length_b		16.370554
_cell_length_c		16.333515
_cell_angle_alpha	89.887065
_cell_angle_beta	90.342778
_cell_angle_gamma	89.790206
_symmetry_space_group_name_H-M	'P 1'
_symmetry_Int_Tables_number		1

loop_
	_symmetry_equiv_pos_as_xyz
	x,y,z

loop_
	_atom_site_label
	_atom_site_type_symbol
	_atom_site_fract_x
	_atom_site_fract_y
	_atom_site_fract_z
	H0	H	0.398889	0.838900	0.718387
	H1	H	0.601241	0.162912	0.716415
	H2	H	0.600303	0.838228	0.284914
	H3	H	0.396775	0.162056	0.282341
	H4	H	0.713187	0.403199	0.836933
	H5	H	0.716764	0.597035	0.163848
	H6	H	0.286162	0.596119	0.837022
	H7	H	0.290062	0.403060	0.166201
	H8	H	0.835713	0.715048	0.399385
	H9	H	0.165288	0.713523	0.601236
	H10	H	0.835474	0.286889	0.598463
	H11	H	0.164721	0.283873	0.403093
	H12	H	0.836059	0.401098	0.714242
	H13	H	0.165709	0.597421	0.716023
	H14	H	0.836685	0.600376	0.283860
	H15	H	0.166866	0.402757	0.291089
	H16	H	0.398185	0.716708	0.838228
	H17	H	0.602919	0.716756	0.163115
	H18	H	0.601011	0.283328	0.838716
	H19	H	0.401073	0.282246	0.163998
	H20	H	0.714103	0.836609	0.403749
	H21	H	0.714037	0.163251	0.598303
	H22	H	0.288252	0.836748	0.597485
	H23	H	0.283695	0.162853	0.401383
	H24	H	0.901300	0.337593	0.217749
	H25	H	0.102824	0.661568	0.218406
	H26	H	0.101272	0.335926	0.786999
	H27	H	0.899479	0.661152	0.782828
	H28	H	0.212896	0.903004	0.336265
	H29	H	0.214663	0.095370	0.664670
	H30	H	0.784973	0.096173	0.337047
	H31	H	0.788405	0.903570	0.665592
	H32	H	0.336278	0.215321	0.900597
	H33	H	0.665617	0.211608	0.100469
	H34	H	0.336190	0.785358	0.099633
	H35	H	0.664917	0.783834	0.900583
	H36	H	0.335245	0.901765	0.213920
	H37	H	0.664343	0.098570	0.216827
	H38	H	0.335868	0.100363	0.785297
	H39	H	0.664893	0.899947	0.786397
	H40	H	0.897754	0.216526	0.337938
	H41	H	0.101738	0.214982	0.663793
	H42	H	0.100448	0.782588	0.337586
	H43	H	0.899815	0.781776	0.663210
	H44	H	0.214790	0.335679	0.906561
	H45	H	0.215046	0.663084	0.099063
	H46	H	0.788163	0.336192	0.097629
	H47	H	0.784822	0.662215	0.900602
	H48	H	0.410029	0.115816	0.594872
	H49	H	0.586747	0.887645	0.591337
	H50	H	0.598280	0.119343	0.403665
	H51	H	0.403845	0.883216	0.406729
	H52	H	0.593227	0.397803	0.118283
	H53	H	0.598998	0.598948	0.880682
	H54	H	0.413456	0.588022	0.113363
	H55	H	0.406961	0.405656	0.885483
	H56	H	0.121888	0.598950	0.404680
	H57	H	0.881766	0.597944	0.591286
	H58	H	0.117275	0.417109	0.600748
	H59	H	0.882941	0.407828	0.406036
	H60	H	0.123904	0.394734	0.600901
	H61	H	0.887089	0.588087	0.585375
	H62	H	0.115644	0.594472	0.418285
	H63	H	0.883871	0.407398	0.408829
	H64	H	0.414629	0.599869	0.117650
	H65	H	0.592407	0.583098	0.888060
	H66	H	0.602128	0.407423	0.118814
	H67	H	0.408839	0.408681	0.886456
	H68	H	0.584600	0.115363	0.403092
	H69	H	0.598918	0.883459	0.591657
	H70	H	0.407692	0.115091	0.590165
	H71	H	0.409671	0.884684	0.402892
	H72	H	0.909937	0.615827	0.095227
	H73	H	0.091298	0.384867	0.095403
	H74	H	0.096207	0.615871	0.905917
	H75	H	0.902124	0.382408	0.908239
	H76	H	0.091492	0.899138	0.617250
	H77	H	0.100879	0.085686	0.384060
	H78	H	0.911162	0.096982	0.616826
	H79	H	0.911077	0.901874	0.385255
	H80	H	0.622297	0.095905	0.897657
	H81	H	0.382597	0.094545	0.088280
	H82	H	0.614876	0.906968	0.085936
	H83	H	0.380810	0.903951	0.903943
	H84	H	0.616072	0.915908	0.097048
	H85	H	0.384391	0.088836	0.091677
	H86	H	0.617590	0.099511	0.917177
	H87	H	0.385165	0.907256	0.915343
	H88	H	0.903953	0.095639	0.618711
	H89	H	0.078728	0.089403	0.389986
	H90	H	0.099570	0.906653	0.617427
	H91	H	0.900885	0.905594	0.383426
	H92	H	0.087924	0.614453	0.904411
	H93	H	0.099764	0.383738	0.093902
	H94	H	0.913432	0.612716	0.091923
	H95	H	0.911370	0.382809	0.900110
	H96	H	0.405187	0.117103	0.594166
	H97	H	0.591740	0.882697	0.601792
	H98	H	0.591483	0.113570	0.414976
	H99	H	0.409685	0.886299	0.409951
	H100	H	0.589463	0.410296	0.114658
	H101	H	0.581675	0.597382	0.887021
	H102	H	0.402922	0.594513	0.118524
	H103	H	0.410267	0.405252	0.885611
	H104	H	0.116629	0.584138	0.405847
	H105	H	0.883350	0.587759	0.597260
	H106	H	0.114266	0.404607	0.581244
	H107	H	0.883281	0.410216	0.407435
	H108	H	0.908086	0.614434	0.090232
	H109	H	0.096519	0.382089	0.102043
	H110	H	0.091506	0.613264	0.911669
	H111	H	0.913232	0.386370	0.911515
	H112	H	0.089676	0.908878	0.614182
	H113	H	0.091171	0.105780	0.381197
	H114	H	0.908312	0.090149	0.615669
	H115	H	0.908213	0.912263	0.387068
	H116	H	0.614717	0.080962	0.909827
	H117	H	0.381833	0.094682	0.095674
	H118	H	0.621183	0.902516	0.097983
	H119	H	0.385904	0.915532	0.905611
	C120	C	0.378735	0.008714	0.622148
	C121	C	0.621924	0.992054	0.623204
	C122	C	0.620595	0.008320	0.379273
	C123	C	0.377768	0.991901	0.377718
	C124	C	0.623298	0.377122	0.009253
	C125	C	0.621977	0.622014	0.992332
	C126	C	0.379211	0.622371	0.009242
	C127	C	0.380350	0.378110	0.993875
	C128	C	0.009298	0.621736	0.379083
	C129	C	0.992875	0.619875	0.621145
	C130	C	0.009286	0.377661	0.622192
	C131	C	0.992111	0.378734	0.379731
	C132	C	0.880874	0.507397	0.121948
	C133	C	0.124676	0.491120	0.125162
	C134	C	0.121892	0.506919	0.879733
	C135	C	0.878828	0.491025	0.877353
	C136	C	0.121955	0.877148	0.508215
	C137	C	0.120765	0.121342	0.492845
	C138	C	0.878043	0.122031	0.509040
	C139	C	0.878530	0.878064	0.493256
	C140	C	0.509548	0.122089	0.878797
	C141	C	0.491899	0.120702	0.121711
	C142	C	0.508703	0.879381	0.122024
	C143	C	0.492653	0.879579	0.879895
	C144	C	0.379936	0.886873	0.678848
	C145	C	0.620531	0.114475	0.678128
	C146	C	0.619745	0.886241	0.323747
	C147	C	0.378272	0.113916	0.321526
	C148	C	0.676711	0.381414	0.886129
	C149	C	0.678671	0.618517	0.115042
	C150	C	0.323002	0.618380	0.886260
	C151	C	0.326684	0.381930	0.117187
	C152	C	0.885160	0.677162	0.379695
	C153	C	0.116267	0.675438	0.620511
	C154	C	0.884898	0.323984	0.618857
	C155	C	0.115884	0.322541	0.382807
	C156	C	0.885165	0.380683	0.676410
	C157	C	0.116508	0.617373	0.677469
	C158	C	0.885753	0.620445	0.321986
	C159	C	0.116898	0.381427	0.327027
	C160	C	0.379055	0.678043	0.886703
	C161	C	0.622320	0.678128	0.114635
	C162	C	0.620594	0.322095	0.886910
	C163	C	0.381798	0.321607	0.116028
	C164	C	0.676192	0.885531	0.382974
	C165	C	0.676762	0.114644	0.619530
	C166	C	0.324889	0.885739	0.618531
	C167	C	0.321680	0.114340	0.380254
	C168	C	0.882185	0.385639	0.178223
	C169	C	0.122591	0.613416	0.179990
	C170	C	0.120646	0.384587	0.825094
	C171	C	0.879447	0.612924	0.821262
	C172	C	0.176006	0.881073	0.385145
	C173	C	0.177006	0.117199	0.615806
	C174	C	0.822659	0.118254	0.385835
	C175	C	0.824972	0.881889	0.616316
	C176	C	0.385625	0.177714	0.880308
	C177	C	0.616312	0.174682	0.120337
	C178	C	0.385058	0.823761	0.119427
	C179	C	0.616111	0.822771	0.881173
	C180	C	0.384646	0.881476	0.176449
	C181	C	0.615525	0.118483	0.178451
	C182	C	0.385236	0.120401	0.823265
	C183	C	0.616049	0.880535	0.824445
	C184	C	0.878584	0.177983	0.386588
	C185	C	0.120578	0.176337	0.615417
	C186	C	0.120092	0.821414	0.385889
	C187	C	0.880577	0.821349	0.615109
	C188	C	0.177172	0.384324	0.884555
	C189	C	0.178605	0.614022	0.120780
	C190	C	0.826137	0.384873	0.118573
	C191	C	0.822643	0.613402	0.879871
	C192	C	0.401178	0.093829	0.599703
	C193	C	0.599275	0.906727	0.601365
	C194	C	0.598032	0.093975	0.400905
	C195	C	0.400884	0.906786	0.399989
	C196	C	0.601353	0.398621	0.095107
	C197	C	0.597833	0.599666	0.907227
	C198	C	0.403218	0.600588	0.094359
	C199	C	0.402156	0.400069	0.908145
	C200	C	0.095741	0.599091	0.402719
	C201	C	0.906392	0.597756	0.598021
	C202	C	0.096086	0.399121	0.600602
	C203	C	0.905698	0.401711	0.401269
	C204	C	0.903732	0.592434	0.099193
	C205	C	0.102558	0.405609	0.103655
	C206	C	0.098678	0.592424	0.901089
	C207	C	0.902020	0.405762	0.900069
	C208	C	0.100105	0.898531	0.593996
	C209	C	0.097233	0.099802	0.407313
	C210	C	0.900895	0.100521	0.594802
	C211	C	0.900198	0.899983	0.407328
	C212	C	0.595834	0.098972	0.901521
	C213	C	0.405288	0.099109	0.098581
	C214	C	0.595081	0.901778	0.100056
	C215	C	0.406267	0.902254	0.901778
	Zn216	Zn	0.500859	0.000873	0.751268
	Zn217	Zn	0.499871	0.000166	0.249461
	Zn218	Zn	0.750983	0.499749	0.000413
	Zn219	Zn	0.251494	0.499645	0.001924
	Zn220	Zn	0.000172	0.748831	0.500372
	Zn221	Zn	0.000001	0.250744	0.500962
	Zn222	Zn	0.001052	0.498804	0.749469
	Zn223	Zn	0.001441	0.499989	0.252251
	Zn224	Zn	0.500991	0.751790	0.000674
	Zn225	Zn	0.501361	0.248509	0.001400
	Zn226	Zn	0.749382	0.000183	0.501135
	Zn227	Zn	0.249973	-0.000100	0.500225
	N228	N	0.412870	0.964172	0.681088
	N229	N	0.587181	0.037252	0.680602
	N230	N	0.586124	0.963435	0.321417
	N231	N	0.412466	0.036712	0.319772
	N232	N	0.678294	0.414828	0.963135
	N233	N	0.678562	0.584467	0.038069
	N234	N	0.323006	0.584481	0.963373
	N235	N	0.325807	0.416453	0.040218
	N236	N	0.962955	0.678103	0.414338
	N237	N	0.038274	0.677113	0.586096
	N238	N	0.963065	0.322082	0.585821
	N239	N	0.037378	0.321021	0.415026
	N240	N	0.963506	0.413469	0.678515
	N241	N	0.038504	0.583679	0.677888
	N242	N	0.964037	0.586722	0.321481
	N243	N	0.038947	0.415845	0.325150
	N244	N	0.413048	0.681047	0.964043
	N245	N	0.588006	0.680553	0.037251
	N246	N	0.588194	0.319126	0.964728
	N247	N	0.414556	0.319228	0.038558
	N248	N	0.676881	0.962570	0.416706
	N249	N	0.677521	0.037664	0.585961
	N250	N	0.323913	0.962490	0.584049
	N251	N	0.321216	0.037532	0.414479
	N252	N	0.915676	0.462829	0.180282
	N253	N	0.089827	0.536011	0.182940
	N254	N	0.086970	0.461903	0.822209
	N255	N	0.913588	0.535914	0.819616
	N256	N	0.177467	0.914952	0.462181
	N257	N	0.177144	0.083595	0.538634
	N258	N	0.822105	0.084339	0.462825
	N259	N	0.823701	0.916401	0.539437
	N260	N	0.463844	0.178832	0.914250
	N261	N	0.538315	0.176213	0.085868
	N262	N	0.463093	0.822508	0.086173
	N263	N	0.538371	0.822239	0.914946
	N264	N	0.462519	0.915349	0.177897
	N265	N	0.537299	0.085535	0.179003
	N266	N	0.463310	0.086430	0.822177
	N267	N	0.538166	0.915173	0.823467
	N268	N	0.912596	0.180252	0.464162
	N269	N	0.086313	0.178864	0.538124
	N270	N	0.087115	0.819035	0.463428
	N271	N	0.913111	0.819045	0.537407
	N272	N	0.178220	0.461397	0.917732
	N273	N	0.179742	0.537009	0.087320
	N274	N	0.825185	0.461724	0.084275
	N275	N	0.822048	0.536506	0.914073
	O276	O	0.554235	0.552739	0.527744
	H277	H	0.554866	0.556747	0.527443
	H278	H	0.553952	0.555192	0.521745
	O279	O	0.473790	0.507926	0.461922
	H280	H	0.467300	0.516077	0.463312
	H281	H	0.471857	0.507886	0.455246
	O282	O	0.549916	0.552938	0.486800
	H283	H	0.545502	0.554233	0.488767
	H284	H	0.553295	0.547341	0.491245
	O285	O	-0.036800	0.951933	1.057821
	H286	H	-0.028643	0.961886	1.056679
	H287	H	-0.033707	0.953957	1.058922
	O288	O	0.459048	0.489136	0.545546
	H289	H	0.450738	0.495753	0.547933
	H290	H	0.463278	0.477722	0.555652
	O291	O	0.026291	0.034052	1.026715
	H292	H	0.030362	0.036080	1.031475
	H293	H	0.025233	0.022142	1.025054
	O294	O	-0.020524	1.010234	1.012440
	H295	H	-0.027675	1.011031	1.015226
	H296	H	-0.021619	1.009569	1.008790
	O297	O	0.507850	0.500787	0.503877
	H298	H	0.506904	0.502676	0.492568
	H299	H	0.511318	0.510430	0.501766
	O300	O	0.431068	0.539098	0.475272
	H301	H	0.426214	0.553413	0.466263
	H302	H	0.433610	0.530140	0.475173
	O303	O	0.478835	0.484505	0.533747
	H304	H	0.486116	0.481251	0.536928
	H305	H	0.475596	0.477743	0.541276
	O306	O	0.988946	-0.072695	0.999906
	H307	H	0.985500	-0.076236	1.006716
	H308	H	0.987907	-0.074552	1.004425
	O309	O	0.516667	0.490802	0.513102
	H310	H	0.513467	0.490618	0.516734
	H311	H	0.517034	0.488486	0.517694
	O312	O	0.033529	-0.023854	-0.013544
	H313	H	0.029865	-0.029020	-0.011459
	H314	H	0.040769	-0.025935	-0.014206
	O315	O	0.969022	-0.025848	0.990766
	H316	H	0.958898	-0.021922	0.987271
	H317	H	0.969720	-0.023868	0.998389
	O318	O	0.017437	-0.008414	0.002295
	H319	H	0.021303	-0.010238	-0.002772
	H320	H	0.024556	-0.003617	0.014460
	O321	O	0.522469	0.524331	0.482333
	H322	H	0.520635	0.512750	0.479168
	H323	H	0.518982	0.528175	0.479557
	O324	O	1.051649	-0.039012	0.023843
	H325	H	1.053932	-0.034353	0.021278
	H326	H	1.053160	-0.043261	0.021747
	O327	O	0.978486	0.986211	-0.011150
	H328	H	0.974326	0.986984	-0.016991
	H329	H	0.978824	0.985572	-0.023681
	O330	O	0.940451	0.942728	0.012879
	H331	H	0.941390	0.939317	0.019351
	H332	H	0.933159	0.940871	0.014983
	O333	O	0.524771	0.499793	0.503533
	H334	H	0.528342	0.498122	0.503736
	H335	H	0.526106	0.506192	0.507485
