data_Molecule from HDF5

_cell_length_a		16.217704
_cell_length_b		16.411489
_cell_length_c		16.303774
_cell_angle_alpha	89.903523
_cell_angle_beta	89.661651
_cell_angle_gamma	89.943426
_symmetry_space_group_name_H-M	'P 1'
_symmetry_Int_Tables_number		1

loop_
	_symmetry_equiv_pos_as_xyz
	x,y,z

loop_
	_atom_site_label
	_atom_site_type_symbol
	_atom_site_fract_x
	_atom_site_fract_y
	_atom_site_fract_z
	H0	H	0.400414	0.837586	0.727096
	H1	H	0.607898	0.159023	0.723513
	H2	H	0.608662	0.837017	0.285876
	H3	H	0.404899	0.159508	0.288738
	H4	H	0.723152	0.398365	0.844844
	H5	H	0.718145	0.597096	0.169887
	H6	H	0.288747	0.598583	0.843315
	H7	H	0.289621	0.400654	0.170234
	H8	H	0.842037	0.715520	0.403788
	H9	H	0.165941	0.716017	0.609406
	H10	H	0.840934	0.279407	0.609811
	H11	H	0.166843	0.279572	0.404841
	H12	H	0.841873	0.395848	0.724953
	H13	H	0.168185	0.597234	0.720275
	H14	H	0.840358	0.595548	0.293809
	H15	H	0.167986	0.397657	0.290960
	H16	H	0.400703	0.718195	0.844449
	H17	H	0.606407	0.716823	0.167090
	H18	H	0.611047	0.279023	0.845489
	H19	H	0.401258	0.280412	0.167833
	H20	H	0.722506	0.835976	0.404226
	H21	H	0.720416	0.159916	0.604502
	H22	H	0.288685	0.835176	0.607085
	H23	H	0.287386	0.158926	0.405241
	H24	H	0.900569	0.336207	0.225797
	H25	H	0.104190	0.659456	0.223101
	H26	H	0.108979	0.336583	0.787949
	H27	H	0.902876	0.657498	0.787463
	H28	H	0.221616	0.896694	0.344185
	H29	H	0.221160	0.097343	0.669107
	H30	H	0.791000	0.096998	0.343507
	H31	H	0.785610	0.896240	0.668607
	H32	H	0.343217	0.217947	0.902678
	H33	H	0.667879	0.215236	0.106413
	H34	H	0.342388	0.780663	0.109290
	H35	H	0.666787	0.779559	0.900534
	H36	H	0.342955	0.896826	0.224828
	H37	H	0.668616	0.098418	0.219443
	H38	H	0.342213	0.100484	0.789796
	H39	H	0.667544	0.898055	0.787644
	H40	H	0.900871	0.216036	0.346663
	H41	H	0.106889	0.215353	0.667975
	H42	H	0.108371	0.779283	0.345413
	H43	H	0.897927	0.776820	0.667316
	H44	H	0.222568	0.336174	0.905875
	H45	H	0.218901	0.659966	0.104730
	H46	H	0.785705	0.336408	0.108675
	H47	H	0.787535	0.659076	0.905723
	H48	H	0.420031	0.108211	0.593174
	H49	H	0.594760	0.886756	0.587977
	H50	H	0.595829	0.113642	0.408340
	H51	H	0.417777	0.885450	0.418632
	H52	H	0.595413	0.394816	0.125128
	H53	H	0.591050	0.587517	0.892609
	H54	H	0.411971	0.590040	0.120697
	H55	H	0.411571	0.412864	0.891580
	H56	H	0.118743	0.581347	0.410927
	H57	H	0.885387	0.594892	0.601206
	H58	H	0.121972	0.401141	0.597023
	H59	H	0.887160	0.400151	0.419715
	H60	H	0.118721	0.404416	0.592234
	H61	H	0.892588	0.587234	0.587927
	H62	H	0.124476	0.595982	0.410629
	H63	H	0.889806	0.409047	0.418551
	H64	H	0.413630	0.591403	0.120785
	H65	H	0.595918	0.593080	0.889794
	H66	H	0.602464	0.412378	0.122256
	H67	H	0.421968	0.405694	0.893249
	H68	H	0.594628	0.110935	0.415517
	H69	H	0.601245	0.880950	0.600937
	H70	H	0.405690	0.112633	0.592304
	H71	H	0.407510	0.881332	0.414246
	H72	H	0.912560	0.610731	0.099669
	H73	H	0.094787	0.384069	0.098110
	H74	H	0.094355	0.613503	0.907689
	H75	H	0.912225	0.381063	0.912231
	H76	H	0.091868	0.899516	0.624053
	H77	H	0.101199	0.089609	0.389437
	H78	H	0.914908	0.084363	0.620258
	H79	H	0.912200	0.910434	0.392343
	H80	H	0.621769	0.090304	0.912850
	H81	H	0.391108	0.087621	0.095580
	H82	H	0.622545	0.901966	0.096777
	H83	H	0.387417	0.907024	0.910368
	H84	H	0.618412	0.907296	0.088191
	H85	H	0.388563	0.088584	0.099234
	H86	H	0.620888	0.090425	0.915895
	H87	H	0.389555	0.903131	0.920968
	H88	H	0.915270	0.090863	0.622713
	H89	H	0.094193	0.082039	0.394518
	H90	H	0.100304	0.904865	0.623850
	H91	H	0.920299	0.905078	0.393188
	H92	H	0.091617	0.609029	0.916818
	H93	H	0.097684	0.382014	0.099269
	H94	H	0.910354	0.612877	0.099959
	H95	H	0.920740	0.384872	0.916565
	H96	H	0.412932	0.114318	0.605397
	H97	H	0.587154	0.885496	0.600774
	H98	H	0.601997	0.112920	0.413072
	H99	H	0.417307	0.881790	0.407685
	H100	H	0.584005	0.408647	0.117826
	H101	H	0.598969	0.586213	0.891112
	H102	H	0.411022	0.592086	0.122211
	H103	H	0.411619	0.401007	0.888589
	H104	H	0.118625	0.590096	0.424278
	H105	H	0.889370	0.579187	0.602000
	H106	H	0.119200	0.407223	0.598323
	H107	H	0.885845	0.404402	0.411684
	H108	H	0.911657	0.612781	0.102197
	H109	H	0.095464	0.382257	0.101537
	H110	H	0.101915	0.613143	0.915426
	H111	H	0.911802	0.384165	0.922293
	H112	H	0.092114	0.908120	0.619553
	H113	H	0.089711	0.092776	0.392357
	H114	H	0.909089	0.087102	0.623672
	H115	H	0.911843	0.900613	0.389242
	H116	H	0.619943	0.087894	0.914521
	H117	H	0.388814	0.091060	0.095695
	H118	H	0.620211	0.912414	0.098035
	H119	H	0.392170	0.914083	0.918815
	C120	C	0.382442	0.005738	0.628171
	C121	C	0.625340	0.990379	0.626695
	C122	C	0.627813	0.006002	0.382409
	C123	C	0.383875	0.989695	0.384181
	C124	C	0.625791	0.375840	0.015018
	C125	C	0.625263	0.618983	0.998147
	C126	C	0.382246	0.620988	0.014306
	C127	C	0.383801	0.376920	0.998160
	C128	C	0.012761	0.618685	0.385827
	C129	C	0.996255	0.617431	0.627183
	C130	C	0.012590	0.374923	0.627510
	C131	C	0.995339	0.374828	0.385762
	C132	C	0.881230	0.505630	0.130347
	C133	C	0.125447	0.489681	0.128158
	C134	C	0.127195	0.505748	0.883881
	C135	C	0.884158	0.489658	0.886061
	C136	C	0.126227	0.874616	0.515298
	C137	C	0.125300	0.117854	0.498955
	C138	C	0.883412	0.117820	0.515317
	C139	C	0.882659	0.875007	0.498018
	C140	C	0.513410	0.120191	0.884654
	C141	C	0.496858	0.119104	0.126436
	C142	C	0.513403	0.876903	0.126165
	C143	C	0.496421	0.877160	0.884573
	C144	C	0.382088	0.885182	0.687033
	C145	C	0.626048	0.111190	0.683955
	C146	C	0.627567	0.885126	0.325103
	C147	C	0.384871	0.111125	0.327326
	C148	C	0.684509	0.377581	0.893249
	C149	C	0.680494	0.617191	0.120739
	C150	C	0.326388	0.619159	0.892073
	C151	C	0.327021	0.379373	0.120817
	C152	C	0.890546	0.675916	0.385753
	C153	C	0.117873	0.676180	0.627944
	C154	C	0.890034	0.317655	0.629062
	C155	C	0.117808	0.317867	0.385245
	C156	C	0.890422	0.375333	0.686321
	C157	C	0.119114	0.616736	0.682878
	C158	C	0.889616	0.616517	0.330589
	C159	C	0.118555	0.376716	0.328880
	C160	C	0.382154	0.678781	0.892903
	C161	C	0.625354	0.677163	0.119300
	C162	C	0.628396	0.318748	0.893406
	C163	C	0.382683	0.319605	0.119700
	C164	C	0.684403	0.884713	0.384002
	C165	C	0.682593	0.111308	0.625152
	C166	C	0.326023	0.884030	0.627541
	C167	C	0.326270	0.110674	0.385297
	C168	C	0.881623	0.384626	0.187377
	C169	C	0.123819	0.611279	0.184158
	C170	C	0.128155	0.384686	0.826588
	C171	C	0.883787	0.609832	0.827224
	C172	C	0.183646	0.876053	0.393058
	C173	C	0.182516	0.116967	0.620686
	C174	C	0.827932	0.117214	0.392747
	C175	C	0.824217	0.876089	0.620001
	C176	C	0.391558	0.178428	0.884385
	C177	C	0.619289	0.176209	0.125504
	C178	C	0.391231	0.819360	0.128234
	C179	C	0.618366	0.818940	0.882406
	C180	C	0.391307	0.877179	0.185402
	C181	C	0.619808	0.118374	0.182144
	C182	C	0.391027	0.119995	0.828011
	C183	C	0.618729	0.877817	0.826248
	C184	C	0.882689	0.176531	0.394313
	C185	C	0.125568	0.175506	0.620163
	C186	C	0.127053	0.817708	0.393752
	C187	C	0.880338	0.816827	0.619498
	C188	C	0.184680	0.384630	0.885291
	C189	C	0.181110	0.611463	0.125519
	C190	C	0.824287	0.384596	0.129115
	C191	C	0.826268	0.610585	0.886114
	C192	C	0.406149	0.089768	0.603963
	C193	C	0.601222	0.906132	0.603282
	C194	C	0.604248	0.090677	0.405552
	C195	C	0.407417	0.904784	0.406877
	C196	C	0.600951	0.398529	0.099706
	C197	C	0.602012	0.595704	0.913275
	C198	C	0.405447	0.597997	0.099243
	C199	C	0.408151	0.399809	0.913077
	C200	C	0.098306	0.595863	0.408605
	C201	C	0.911266	0.593863	0.603796
	C202	C	0.097790	0.397730	0.602900
	C203	C	0.909853	0.397929	0.409664
	C204	C	0.904715	0.590202	0.107229
	C205	C	0.102775	0.404853	0.106032
	C206	C	0.103081	0.589981	0.906809
	C207	C	0.908198	0.405265	0.909896
	C208	C	0.101915	0.897646	0.600373
	C209	C	0.101726	0.094812	0.414165
	C210	C	0.906207	0.094187	0.600076
	C211	C	0.907680	0.898523	0.413719
	C212	C	0.598673	0.096458	0.907694
	C213	C	0.411643	0.095827	0.103618
	C214	C	0.598250	0.900354	0.101417
	C215	C	0.411518	0.901084	0.909457
	Zn216	Zn	0.504473	-0.001205	0.756759
	Zn217	Zn	0.505741	-0.001659	0.253976
	Zn218	Zn	0.753509	0.497909	0.007331
	Zn219	Zn	0.254953	0.497978	0.006102
	Zn220	Zn	0.004173	0.746609	0.506797
	Zn221	Zn	0.003572	0.246232	0.507256
	Zn222	Zn	0.005208	0.496314	0.755076
	Zn223	Zn	0.004079	0.497533	0.258041
	Zn224	Zn	0.504810	0.748388	0.005601
	Zn225	Zn	0.504854	0.247355	0.006003
	Zn226	Zn	0.755202	-0.002542	0.505863
	Zn227	Zn	0.253774	-0.003473	0.506537
	N228	N	0.416431	0.961859	0.687695
	N229	N	0.591239	0.034845	0.685165
	N230	N	0.593363	0.961810	0.323893
	N231	N	0.419780	0.034725	0.326454
	N232	N	0.682781	0.412632	0.969722
	N233	N	0.680720	0.581932	0.044219
	N234	N	0.326175	0.583970	0.968584
	N235	N	0.327675	0.414305	0.044071
	N236	N	0.968265	0.677589	0.419104
	N237	N	0.040650	0.676616	0.593785
	N238	N	0.967089	0.317205	0.593365
	N239	N	0.040174	0.316262	0.419590
	N240	N	0.967536	0.410033	0.685593
	N241	N	0.042407	0.580857	0.682631
	N242	N	0.966560	0.581487	0.330552
	N243	N	0.041279	0.411243	0.328844
	N244	N	0.416107	0.679956	0.970065
	N245	N	0.591579	0.678151	0.042198
	N246	N	0.592655	0.317381	0.970047
	N247	N	0.417259	0.318035	0.042438
	N248	N	0.684835	0.960962	0.418719
	N249	N	0.682097	0.035170	0.589995
	N250	N	0.326146	0.959901	0.591606
	N251	N	0.325634	0.034165	0.419917
	N252	N	0.916348	0.461222	0.188384
	N253	N	0.090099	0.534585	0.186054
	N254	N	0.093278	0.461153	0.825189
	N255	N	0.918986	0.533603	0.827168
	N256	N	0.183459	0.910460	0.469775
	N257	N	0.182291	0.081664	0.544209
	N258	N	0.828330	0.081236	0.468805
	N259	N	0.825536	0.911604	0.543546
	N260	N	0.468997	0.178929	0.918455
	N261	N	0.541796	0.176888	0.091658
	N262	N	0.468065	0.819158	0.092258
	N263	N	0.541271	0.818556	0.917910
	N264	N	0.468203	0.912316	0.184545
	N265	N	0.542791	0.083347	0.182554
	N266	N	0.467841	0.084657	0.827929
	N267	N	0.541885	0.913216	0.827265
	N268	N	0.916792	0.176813	0.471368
	N269	N	0.091006	0.176317	0.543456
	N270	N	0.092205	0.816581	0.470924
	N271	N	0.915850	0.815888	0.542826
	N272	N	0.184193	0.460812	0.920165
	N273	N	0.182247	0.534838	0.091460
	N274	N	0.823951	0.460755	0.094321
	N275	N	0.826551	0.534734	0.922096
	O276	O	0.137043	0.102572	-0.093740
	H277	H	0.149662	0.092117	-0.099938
	H278	H	0.133439	0.086695	-0.104882
	O279	O	0.496113	0.443697	0.629935
	H280	H	0.492427	0.446236	0.625973
	H281	H	0.483868	0.449443	0.618218
	O282	O	0.942149	-0.124757	0.189742
	H283	H	0.950978	-0.121578	0.184817
	H284	H	0.948546	-0.113164	0.188199
	O285	O	-0.414526	1.495182	-0.565949
	H286	H	-0.416347	1.502193	-0.569680
	H287	H	-0.411444	1.496816	-0.561813
	O288	O	0.501842	0.466334	0.391553
	H289	H	0.502233	0.471705	0.382063
	H290	H	0.496137	0.456406	0.374724
	O291	O	0.489097	0.430261	0.690537
	H292	H	0.497954	0.433672	0.702171
	H293	H	0.477122	0.438686	0.691572
	O294	O	0.887292	1.004127	1.013613
	H295	H	0.884786	1.012353	1.015682
	H296	H	0.889166	0.997378	1.009568
	O297	O	0.155202	-0.098479	-0.080647
	H298	H	0.159742	-0.104188	-0.080515
	H299	H	0.144997	-0.102262	-0.083945
	O300	O	0.424821	0.481702	0.663685
	H301	H	0.423229	0.471436	0.667597
	H302	H	0.427203	0.501957	0.669132
	O303	O	0.183890	1.065707	1.183736
	H304	H	0.210656	1.066704	1.194228
	H305	H	0.180434	1.074725	1.168943
	O306	O	0.454957	0.358908	0.579613
	H307	H	0.451510	0.358955	0.583438
	H308	H	0.447968	0.351517	0.583809
	O309	O	1.026670	0.022470	0.085796
	H310	H	1.029017	0.026116	0.067018
	H311	H	1.021670	0.038430	0.090316
	O312	O	-0.455852	0.618564	0.506567
	H313	H	-0.456467	0.613204	0.494987
	H314	H	-0.435492	0.621501	0.514832
	O315	O	0.381483	0.447517	0.590441
	H316	H	0.381579	0.456070	0.580805
	H317	H	0.368088	0.454982	0.584002
	O318	O	0.937308	1.014013	1.055946
	H319	H	0.957886	1.003850	1.053260
	H320	H	0.933323	1.007680	1.068179
	O321	O	0.451506	0.641547	0.390800
	H322	H	0.450694	0.643336	0.387801
	H323	H	0.446937	0.650985	0.387945
	O324	O	0.506117	0.625844	0.510454
	H325	H	0.505346	0.637978	0.532777
	H326	H	0.515680	0.620159	0.501838
	O327	O	0.013363	0.884390	0.889277
	H328	H	0.012053	0.882738	0.895156
	H329	H	0.005830	0.874181	0.893336
	O330	O	0.616707	0.433935	0.433230
	H331	H	0.617421	0.436750	0.439688
	H332	H	0.618479	0.413815	0.433487
	O333	O	0.048831	1.009156	1.093691
	H334	H	0.031516	1.020956	1.099278
	H335	H	0.047263	1.001673	1.069003
	O336	O	0.922235	0.920780	0.913085
	H337	H	0.916024	0.926835	0.922601
	H338	H	0.913743	0.925342	0.912340
	O339	O	0.400464	0.428022	0.570112
	H340	H	0.406010	0.427369	0.576285
	H341	H	0.386620	0.432225	0.549988
	O342	O	0.883750	0.008111	0.033088
	H343	H	0.881639	0.011501	0.037320
	H344	H	0.884120	-0.000621	0.039557
	O345	O	0.471080	0.437094	0.462068
	H346	H	0.473882	0.439322	0.470217
	H347	H	0.463158	0.440833	0.466649
	O348	O	1.024834	0.891398	1.012805
	H349	H	1.005842	0.893828	1.010803
	H350	H	1.023603	0.886137	1.024669
	O351	O	1.138222	1.082984	0.118616
	H352	H	1.138889	1.092016	0.129864
	H353	H	1.125199	1.073329	0.096728
	O354	O	0.367851	0.439196	0.470149
	H355	H	0.383475	0.433415	0.482656
	H356	H	0.364488	0.441809	0.474751
	O357	O	0.571322	0.545295	0.441313
	H358	H	0.558649	0.533750	0.448029
	H359	H	0.567859	0.540685	0.436378
	O360	O	0.133837	-0.080733	-0.092976
	H361	H	0.139742	-0.096672	-0.096661
	H362	H	0.144985	-0.077544	-0.086328
	O363	O	0.534211	0.598573	0.639236
	H364	H	0.538494	0.593943	0.630318
	H365	H	0.541276	0.596219	0.625208
	O366	O	0.520627	0.420373	0.402093
	H367	H	0.526068	0.431394	0.402037
	H368	H	0.522251	0.421783	0.406887
	O369	O	-0.077999	0.090052	0.070949
	H370	H	-0.076219	0.096226	0.070211
	H371	H	-0.072565	0.086692	0.061769
	O372	O	0.634137	0.489232	0.594655
	H373	H	0.647952	0.492532	0.607145
	H374	H	0.629380	0.473998	0.597967
	O375	O	0.412897	0.573022	0.335244
	H376	H	0.394865	0.575194	0.334550
	H377	H	0.413644	0.580877	0.337344
	O378	O	0.516655	0.537711	0.562314
	H379	H	0.522641	0.536686	0.566426
	H380	H	0.527869	0.543133	0.559665
	O381	O	-0.006965	1.002814	1.013566
	H382	H	-0.005474	1.001785	1.015456
	H383	H	-0.012468	0.995916	1.012187
	O384	O	-0.049298	1.141117	-0.068388
	H385	H	-0.056121	1.156661	-0.062389
	H386	H	-0.040830	1.136056	-0.069538
	O387	O	0.981313	-0.038947	1.045529
	H388	H	0.979511	-0.036893	1.059178
	H389	H	0.988885	-0.049054	1.044745
	O390	O	-0.089956	1.013240	-0.156467
	H391	H	-0.110855	1.023100	-0.159398
	H392	H	-0.074994	1.004909	-0.165994
	O393	O	0.974465	0.987222	0.203050
	H394	H	0.983398	0.984120	0.213268
	H395	H	0.988101	1.001816	0.215345
	O396	O	0.481715	0.569967	0.565154
	H397	H	0.475294	0.582120	0.582371
	H398	H	0.497152	0.557706	0.563138
	O399	O	-0.023471	1.162289	0.937675
	H400	H	-0.019253	1.166656	0.940892
	H401	H	-0.032244	1.169868	0.949079
	O402	O	1.046875	-0.020352	-0.110162
	H403	H	1.040669	-0.023949	-0.116507
	H404	H	1.044839	-0.006660	-0.111387
	O405	O	1.009000	-0.078103	0.021817
	H406	H	1.010541	-0.074651	0.027845
	H407	H	1.005188	-0.076123	0.023824
