data_Molecule from HDF5

_cell_length_a		16.278984
_cell_length_b		16.239941
_cell_length_c		16.404341
_cell_angle_alpha	90.037562
_cell_angle_beta	90.121751
_cell_angle_gamma	90.090806
_symmetry_space_group_name_H-M	'P 1'
_symmetry_Int_Tables_number		1

loop_
	_symmetry_equiv_pos_as_xyz
	x,y,z

loop_
	_atom_site_label
	_atom_site_type_symbol
	_atom_site_fract_x
	_atom_site_fract_y
	_atom_site_fract_z
	H0	H	0.405383	0.835763	0.717193
	H1	H	0.604200	0.162530	0.717809
	H2	H	0.603482	0.835678	0.287810
	H3	H	0.404004	0.162203	0.287312
	H4	H	0.718684	0.400767	0.840038
	H5	H	0.720307	0.598970	0.165200
	H6	H	0.288388	0.596576	0.839247
	H7	H	0.288032	0.399898	0.165264
	H8	H	0.839664	0.711490	0.406962
	H9	H	0.167746	0.713554	0.602391
	H10	H	0.839975	0.285373	0.599346
	H11	H	0.168200	0.286703	0.406828
	H12	H	0.840393	0.398905	0.717460
	H13	H	0.166612	0.599533	0.720121
	H14	H	0.840961	0.598051	0.288016
	H15	H	0.166961	0.398012	0.286853
	H16	H	0.405155	0.714179	0.839714
	H17	H	0.601978	0.713723	0.165635
	H18	H	0.599380	0.286391	0.838874
	H19	H	0.405047	0.284065	0.165645
	H20	H	0.717146	0.834597	0.405653
	H21	H	0.717451	0.163436	0.599953
	H22	H	0.291108	0.834914	0.599878
	H23	H	0.290353	0.163491	0.405554
	H24	H	0.903263	0.336112	0.219331
	H25	H	0.104086	0.663098	0.218878
	H26	H	0.101723	0.335181	0.787830
	H27	H	0.905013	0.662540	0.788435
	H28	H	0.218308	0.899886	0.341089
	H29	H	0.219536	0.098048	0.666226
	H30	H	0.788991	0.096351	0.340877
	H31	H	0.789603	0.900632	0.666266
	H32	H	0.339642	0.211952	0.904766
	H33	H	0.667850	0.213886	0.099809
	H34	H	0.339393	0.785639	0.099552
	H35	H	0.668005	0.785928	0.906869
	H36	H	0.340599	0.898872	0.217991
	H37	H	0.667771	0.100163	0.218263
	H38	H	0.341446	0.098637	0.786381
	H39	H	0.668128	0.900334	0.789079
	H40	H	0.905703	0.212882	0.340588
	H41	H	0.101575	0.213870	0.666448
	H42	H	0.101344	0.784008	0.341349
	H43	H	0.906943	0.785150	0.666761
	H44	H	0.216290	0.334313	0.904152
	H45	H	0.216941	0.663533	0.099383
	H46	H	0.789504	0.334971	0.100323
	H47	H	0.792071	0.663982	0.906288
	H48	H	0.416155	0.114197	0.595592
	H49	H	0.595941	0.883642	0.591324
	H50	H	0.598163	0.117982	0.403579
	H51	H	0.419751	0.884497	0.407486
	H52	H	0.594628	0.405713	0.117033
	H53	H	0.595665	0.592237	0.887629
	H54	H	0.404422	0.593100	0.119367
	H55	H	0.404378	0.406656	0.886376
	H56	H	0.120204	0.595795	0.415177
	H57	H	0.886056	0.595217	0.595571
	H58	H	0.126949	0.397299	0.608534
	H59	H	0.886004	0.405250	0.404014
	H60	H	0.117172	0.401269	0.581263
	H61	H	0.888993	0.589007	0.593782
	H62	H	0.118333	0.585784	0.412438
	H63	H	0.887377	0.401784	0.413257
	H64	H	0.412282	0.587286	0.115297
	H65	H	0.597505	0.595899	0.886326
	H66	H	0.597935	0.405412	0.117917
	H67	H	0.412811	0.409158	0.889960
	H68	H	0.590802	0.113205	0.410985
	H69	H	0.602044	0.879845	0.597956
	H70	H	0.408585	0.115209	0.591734
	H71	H	0.408137	0.883848	0.417399
	H72	H	0.909561	0.616950	0.098338
	H73	H	0.101798	0.379338	0.102730
	H74	H	0.095539	0.616803	0.904242
	H75	H	0.904855	0.383613	0.921923
	H76	H	0.090190	0.898233	0.619819
	H77	H	0.096819	0.095563	0.387373
	H78	H	0.906941	0.096007	0.621138
	H79	H	0.908972	0.910979	0.389357
	H80	H	0.618745	0.085032	0.910179
	H81	H	0.389978	0.087043	0.092927
	H82	H	0.619142	0.907745	0.095606
	H83	H	0.386720	0.907707	0.905309
	H84	H	0.620845	0.906777	0.098680
	H85	H	0.387503	0.089993	0.100406
	H86	H	0.622809	0.094930	0.902743
	H87	H	0.386777	0.903755	0.909692
	H88	H	0.908105	0.087350	0.618005
	H89	H	0.100354	0.090116	0.388266
	H90	H	0.108270	0.904428	0.623262
	H91	H	0.914236	0.903361	0.388403
	H92	H	0.090382	0.612968	0.912800
	H93	H	0.085312	0.384860	0.098462
	H94	H	0.915331	0.615047	0.097761
	H95	H	0.902460	0.376617	0.898882
	H96	H	0.409714	0.118006	0.599643
	H97	H	0.592338	0.882165	0.601083
	H98	H	0.601691	0.115845	0.414012
	H99	H	0.405428	0.879332	0.403047
	H100	H	0.596629	0.408561	0.117306
	H101	H	0.600076	0.592268	0.886875
	H102	H	0.413802	0.596931	0.117694
	H103	H	0.411270	0.399826	0.886180
	H104	H	0.122380	0.592395	0.405086
	H105	H	0.887098	0.590451	0.600018
	H106	H	0.116358	0.423528	0.600581
	H107	H	0.889856	0.411650	0.410692
	H108	H	0.911129	0.614682	0.092973
	H109	H	0.098267	0.384726	0.086303
	H110	H	0.100837	0.615547	0.913522
	H111	H	0.923949	0.385697	0.906875
	H112	H	0.095041	0.916249	0.615044
	H113	H	0.093826	0.090368	0.389763
	H114	H	0.914746	0.093512	0.618090
	H115	H	0.905308	0.903227	0.386087
	H116	H	0.620340	0.097011	0.915071
	H117	H	0.387291	0.096021	0.093564
	H118	H	0.620908	0.904465	0.096341
	H119	H	0.389169	0.909363	0.910699
	C120	C	0.383112	0.007620	0.624276
	C121	C	0.625424	0.990592	0.624384
	C122	C	0.624825	0.007167	0.381744
	C123	C	0.382203	0.990607	0.380955
	C124	C	0.624842	0.378116	0.010042
	C125	C	0.625757	0.621321	0.994823
	C126	C	0.381787	0.620591	0.010010
	C127	C	0.381312	0.376582	0.994875
	C128	C	0.012106	0.619871	0.382259
	C129	C	0.995344	0.620692	0.625533
	C130	C	0.012239	0.378002	0.624573
	C131	C	0.995675	0.377482	0.381109
	C132	C	0.882614	0.507493	0.124594
	C133	C	0.124608	0.491122	0.124650
	C134	C	0.124309	0.506827	0.881401
	C135	C	0.882318	0.490456	0.881312
	C136	C	0.126270	0.877098	0.512247
	C137	C	0.125897	0.120983	0.495603
	C138	C	0.881640	0.120816	0.511523
	C139	C	0.881534	0.877399	0.495470
	C140	C	0.512612	0.120733	0.880916
	C141	C	0.496065	0.120788	0.124435
	C142	C	0.512046	0.877700	0.124754
	C143	C	0.495830	0.878307	0.881033
	C144	C	0.385391	0.884588	0.679351
	C145	C	0.623828	0.114016	0.679164
	C146	C	0.623010	0.884215	0.326267
	C147	C	0.383994	0.113506	0.325741
	C148	C	0.680082	0.380725	0.888141
	C149	C	0.681690	0.619116	0.116720
	C150	C	0.326294	0.617587	0.887910
	C151	C	0.326213	0.379230	0.117035
	C152	C	0.888877	0.674723	0.385077
	C153	C	0.118762	0.675695	0.622810
	C154	C	0.889025	0.322770	0.621057
	C155	C	0.118990	0.323295	0.385196
	C156	C	0.889233	0.379143	0.679667
	C157	C	0.118029	0.619068	0.681547
	C158	C	0.889648	0.618292	0.326190
	C159	C	0.118352	0.378698	0.325445
	C160	C	0.384397	0.675828	0.888005
	C161	C	0.622724	0.676141	0.117065
	C162	C	0.621428	0.323304	0.887861
	C163	C	0.384367	0.321569	0.117092
	C164	C	0.679373	0.883512	0.385041
	C165	C	0.680174	0.114227	0.620931
	C166	C	0.328569	0.884125	0.621104
	C167	C	0.327491	0.114075	0.384329
	C168	C	0.883803	0.384603	0.180191
	C169	C	0.123552	0.614158	0.180560
	C170	C	0.122194	0.383918	0.825684
	C171	C	0.884334	0.613874	0.826258
	C172	C	0.180726	0.879364	0.389699
	C173	C	0.181413	0.118725	0.617765
	C174	C	0.826609	0.117720	0.389339
	C175	C	0.827213	0.880140	0.617774
	C176	C	0.388857	0.174844	0.883956
	C177	C	0.619137	0.176137	0.121213
	C178	C	0.388565	0.822890	0.121160
	C179	C	0.619280	0.823805	0.885558
	C180	C	0.389159	0.879532	0.179612
	C181	C	0.618882	0.119365	0.179864
	C182	C	0.389856	0.118672	0.825079
	C183	C	0.619027	0.880163	0.826662
	C184	C	0.884804	0.175418	0.389057
	C185	C	0.122631	0.176080	0.617917
	C186	C	0.122399	0.822053	0.389752
	C187	C	0.885332	0.822576	0.618041
	C188	C	0.178767	0.383369	0.884035
	C189	C	0.179796	0.614538	0.121597
	C190	C	0.827113	0.384039	0.121423
	C191	C	0.828321	0.614474	0.884768
	C192	C	0.405255	0.093653	0.602286
	C193	C	0.603200	0.904192	0.603149
	C194	C	0.603251	0.093455	0.403213
	C195	C	0.404466	0.904703	0.403027
	C196	C	0.602885	0.400168	0.095390
	C197	C	0.604074	0.599860	0.909051
	C198	C	0.403652	0.598750	0.095431
	C199	C	0.402859	0.398698	0.909640
	C200	C	0.098016	0.598006	0.404490
	C201	C	0.909581	0.598151	0.603168
	C202	C	0.098046	0.400860	0.603224
	C203	C	0.909829	0.399789	0.402797
	C204	C	0.905270	0.593442	0.102667
	C205	C	0.101825	0.405239	0.102449
	C206	C	0.102085	0.593021	0.903606
	C207	C	0.904097	0.404179	0.902792
	C208	C	0.104427	0.899627	0.597297
	C209	C	0.103553	0.098499	0.410562
	C210	C	0.903608	0.098997	0.596913
	C211	C	0.903126	0.899322	0.410030
	C212	C	0.598513	0.098961	0.902948
	C213	C	0.410383	0.097690	0.102196
	C214	C	0.598027	0.899804	0.103039
	C215	C	0.409891	0.900510	0.902384
	Zn216	Zn	0.504608	-0.000435	0.752405
	Zn217	Zn	0.504030	-0.000823	0.252753
	Zn218	Zn	0.754738	0.499384	0.002636
	Zn219	Zn	0.252489	0.498467	0.002861
	Zn220	Zn	0.003411	0.748633	0.503665
	Zn221	Zn	0.003831	0.249855	0.503219
	Zn222	Zn	0.003427	0.498721	0.753193
	Zn223	Zn	0.004110	0.498986	0.253378
	Zn224	Zn	0.503567	0.750206	0.002796
	Zn225	Zn	0.503488	0.248393	0.002497
	Zn226	Zn	0.752517	-0.001394	0.503426
	Zn227	Zn	0.254727	-0.000997	0.503213
	N228	N	0.418748	0.962439	0.681100
	N229	N	0.590451	0.036255	0.681479
	N230	N	0.589825	0.961966	0.324116
	N231	N	0.417192	0.035740	0.323396
	N232	N	0.682187	0.414031	0.965166
	N233	N	0.683630	0.585788	0.039638
	N234	N	0.324521	0.584051	0.964954
	N235	N	0.324463	0.412971	0.040149
	N236	N	0.966090	0.675778	0.419345
	N237	N	0.041669	0.676454	0.588397
	N238	N	0.966267	0.322370	0.587319
	N239	N	0.041649	0.322051	0.418741
	N240	N	0.966917	0.412764	0.682086
	N241	N	0.040265	0.585641	0.683339
	N242	N	0.967131	0.584916	0.324477
	N243	N	0.040690	0.411701	0.322920
	N244	N	0.418155	0.677642	0.964898
	N245	N	0.588568	0.677456	0.040250
	N246	N	0.587721	0.321580	0.964698
	N247	N	0.417801	0.319802	0.040162
	N248	N	0.680707	0.961011	0.418684
	N249	N	0.681192	0.036494	0.587552
	N250	N	0.327052	0.961557	0.587466
	N251	N	0.326224	0.036527	0.417946
	N252	N	0.917414	0.462313	0.182196
	N253	N	0.090132	0.536185	0.182600
	N254	N	0.089061	0.461579	0.824112
	N255	N	0.917317	0.535931	0.824024
	N256	N	0.183144	0.912905	0.466725
	N257	N	0.183439	0.085158	0.540773
	N258	N	0.824696	0.084441	0.466350
	N259	N	0.824775	0.913309	0.540587
	N260	N	0.465998	0.175969	0.918291
	N261	N	0.541825	0.177109	0.087491
	N262	N	0.466017	0.821750	0.087526
	N263	N	0.541763	0.822421	0.918635
	N264	N	0.466901	0.912686	0.181935
	N265	N	0.541237	0.085631	0.181864
	N266	N	0.467684	0.085946	0.823139
	N267	N	0.541199	0.913329	0.823733
	N268	N	0.918061	0.177614	0.466042
	N269	N	0.088814	0.177448	0.540961
	N270	N	0.089257	0.820430	0.466832
	N271	N	0.918489	0.820733	0.541048
	N272	N	0.180227	0.460931	0.917961
	N273	N	0.180632	0.537187	0.087611
	N274	N	0.826289	0.461561	0.087478
	N275	N	0.826884	0.536822	0.918418
	O276	O	0.484764	0.532853	0.463261
	H277	H	0.484323	0.525724	0.461667
	H278	H	0.492625	0.530388	0.460999
	O279	O	0.088495	-0.003798	0.062334
	H280	H	0.084546	-0.002356	0.067036
	H281	H	0.083191	0.006019	0.063323
	O282	O	0.496675	0.462426	0.439108
	H283	H	0.500205	0.463771	0.441075
	H284	H	0.490172	0.473295	0.444094
	O285	O	0.500587	0.493816	0.409997
	H286	H	0.501949	0.493905	0.405341
	H287	H	0.492771	0.477403	0.409424
	O288	O	1.074886	-0.050444	0.089907
	H289	H	1.085040	-0.063419	0.087219
	H290	H	1.076109	-0.055879	0.084595
	O291	O	-0.478824	0.508652	-0.519137
	H292	H	-0.491143	0.511926	-0.521471
	H293	H	-0.477482	0.502635	-0.518723
	O294	O	0.072040	0.959440	0.096137
	H295	H	0.076508	0.945621	0.093362
	H296	H	0.077321	0.961619	0.096468
	O297	O	0.077280	1.032035	0.051250
	H298	H	0.072105	1.033982	0.058830
	H299	H	0.079065	1.035115	0.052580
	O300	O	1.051044	-0.014354	1.052389
	H301	H	1.056163	-0.009803	1.066362
	H302	H	1.047199	-0.009489	1.052759
	O303	O	0.456438	0.516949	0.449866
	H304	H	0.458843	0.523056	0.456498
	H305	H	0.462645	0.526050	0.446314
	O306	O	0.474229	1.544758	1.445004
	H307	H	0.483822	1.547765	1.441405
	H308	H	0.468529	1.545299	1.451524
	O309	O	0.493270	0.526362	0.458776
	H310	H	0.492012	0.520081	0.456046
	H311	H	0.487385	0.530432	0.450608
