data_Molecule from HDF5

_cell_length_a		16.296500
_cell_length_b		16.391840
_cell_length_c		16.269860
_cell_angle_alpha	89.814473
_cell_angle_beta	89.658057
_cell_angle_gamma	89.796553
_symmetry_space_group_name_H-M	'P 1'
_symmetry_Int_Tables_number		1

loop_
	_symmetry_equiv_pos_as_xyz
	x,y,z

loop_
	_atom_site_label
	_atom_site_type_symbol
	_atom_site_fract_x
	_atom_site_fract_y
	_atom_site_fract_z
	H0	H	0.401995	0.834906	0.714562
	H1	H	0.603411	0.156917	0.713447
	H2	H	0.604626	0.834172	0.278537
	H3	H	0.402825	0.157494	0.280103
	H4	H	0.722269	0.388446	0.834231
	H5	H	0.718497	0.593387	0.156919
	H6	H	0.287984	0.596414	0.831711
	H7	H	0.283204	0.394718	0.156359
	H8	H	0.842847	0.717617	0.387187
	H9	H	0.165208	0.709936	0.591520
	H10	H	0.841283	0.276458	0.595828
	H11	H	0.164456	0.275294	0.386552
	H12	H	0.841444	0.391324	0.711913
	H13	H	0.164806	0.594580	0.707986
	H14	H	0.841170	0.597230	0.275708
	H15	H	0.165575	0.395081	0.275382
	H16	H	0.397801	0.716802	0.835811
	H17	H	0.603789	0.710689	0.157792
	H18	H	0.606070	0.274784	0.835017
	H19	H	0.397670	0.278074	0.158262
	H20	H	0.722277	0.835267	0.394296
	H21	H	0.719720	0.157187	0.598029
	H22	H	0.284417	0.834724	0.600663
	H23	H	0.286493	0.157216	0.396343
	H24	H	0.900371	0.334371	0.213285
	H25	H	0.104452	0.655474	0.208580
	H26	H	0.105342	0.332849	0.775148
	H27	H	0.899882	0.655400	0.775160
	H28	H	0.223570	0.895165	0.333291
	H29	H	0.215190	0.093974	0.658420
	H30	H	0.783511	0.100259	0.333385
	H31	H	0.786960	0.893570	0.656916
	H32	H	0.340459	0.213148	0.895443
	H33	H	0.663359	0.214231	0.099584
	H34	H	0.338798	0.779155	0.100363
	H35	H	0.661595	0.772749	0.891609
	H36	H	0.339005	0.897488	0.212772
	H37	H	0.665004	0.095110	0.211297
	H38	H	0.339550	0.096652	0.780844
	H39	H	0.663358	0.890656	0.776292
	H40	H	0.901652	0.213038	0.331105
	H41	H	0.106474	0.215151	0.654093
	H42	H	0.109285	0.778673	0.331296
	H43	H	0.902089	0.776777	0.654945
	H44	H	0.221928	0.333712	0.890765
	H45	H	0.218179	0.655728	0.092466
	H46	H	0.783618	0.333683	0.098477
	H47	H	0.781637	0.654194	0.890163
	H48	H	0.403584	0.111142	0.581641
	H49	H	0.595583	0.882105	0.583608
	H50	H	0.597893	0.112818	0.397837
	H51	H	0.413090	0.877866	0.396201
	H52	H	0.589747	0.403550	0.110457
	H53	H	0.598805	0.587260	0.877270
	H54	H	0.401515	0.589833	0.114630
	H55	H	0.409622	0.398839	0.877338
	H56	H	0.118013	0.587157	0.402318
	H57	H	0.887385	0.584625	0.584310
	H58	H	0.117280	0.400583	0.577222
	H59	H	0.888450	0.399687	0.409441
	H60	H	0.115930	0.409841	0.581829
	H61	H	0.887181	0.589365	0.583769
	H62	H	0.118662	0.585466	0.397942
	H63	H	0.890938	0.411475	0.404910
	H64	H	0.407596	0.579517	0.109212
	H65	H	0.588393	0.574367	0.884687
	H66	H	0.592788	0.403043	0.111207
	H67	H	0.411325	0.407940	0.880409
	H68	H	0.585850	0.107857	0.402641
	H69	H	0.596519	0.879747	0.588744
	H70	H	0.406468	0.113833	0.596409
	H71	H	0.421428	0.885332	0.409912
	H72	H	0.915188	0.606730	0.082958
	H73	H	0.092095	0.378040	0.089392
	H74	H	0.094335	0.611669	0.891071
	H75	H	0.907824	0.378526	0.902638
	H76	H	0.093081	0.904418	0.609248
	H77	H	0.097405	0.081965	0.379554
	H78	H	0.908504	0.095646	0.613103
	H79	H	0.911902	0.910193	0.379317
	H80	H	0.617381	0.087582	0.907682
	H81	H	0.385776	0.083590	0.096060
	H82	H	0.619181	0.902707	0.092030
	H83	H	0.389379	0.907053	0.909678
	H84	H	0.618204	0.895934	0.085660
	H85	H	0.384372	0.095541	0.087483
	H86	H	0.615100	0.082744	0.908007
	H87	H	0.387410	0.907104	0.903238
	H88	H	0.907040	0.078199	0.608286
	H89	H	0.091474	0.086671	0.379571
	H90	H	0.090196	0.899853	0.609310
	H91	H	0.916894	0.906508	0.379635
	H92	H	0.087965	0.606431	0.902691
	H93	H	0.089511	0.382651	0.079362
	H94	H	0.908974	0.608399	0.078117
	H95	H	0.915958	0.379780	0.899164
	H96	H	0.417565	0.107893	0.587541
	H97	H	0.591381	0.882399	0.587923
	H98	H	0.597123	0.109736	0.411316
	H99	H	0.403954	0.880230	0.411909
	H100	H	0.592168	0.406064	0.110121
	H101	H	0.581263	0.590850	0.882066
	H102	H	0.414657	0.590010	0.110622
	H103	H	0.417761	0.401592	0.880491
	H104	H	0.119429	0.590477	0.398734
	H105	H	0.887944	0.586952	0.580194
	H106	H	0.120595	0.401528	0.586590
	H107	H	0.885459	0.402534	0.397331
	H108	H	0.907889	0.610042	0.085692
	H109	H	0.099724	0.378683	0.081292
	H110	H	0.101153	0.610882	0.902840
	H111	H	0.914048	0.381626	0.906832
	H112	H	0.095482	0.899443	0.611171
	H113	H	0.097951	0.088132	0.376354
	H114	H	0.922562	0.086186	0.605812
	H115	H	0.911540	0.904541	0.377155
	H116	H	0.618089	0.083886	0.903782
	H117	H	0.390157	0.083064	0.082508
	H118	H	0.614993	0.904340	0.083183
	H119	H	0.385533	0.901569	0.907102
	C120	C	0.379765	0.004288	0.618883
	C121	C	0.624333	0.987869	0.617377
	C122	C	0.624865	0.004035	0.373117
	C123	C	0.382346	0.987628	0.375953
	C124	C	0.623591	0.372342	0.004278
	C125	C	0.621236	0.614516	0.987552
	C126	C	0.379019	0.617066	0.004256
	C127	C	0.380893	0.373397	0.986560
	C128	C	0.012007	0.618650	0.369500
	C129	C	0.994843	0.615687	0.612477
	C130	C	0.011322	0.372944	0.613507
	C131	C	0.994900	0.373867	0.371814
	C132	C	0.880485	0.502599	0.114478
	C133	C	0.123432	0.486209	0.113368
	C134	C	0.125053	0.503095	0.869759
	C135	C	0.880381	0.485809	0.871582
	C136	C	0.125151	0.873003	0.502813
	C137	C	0.124511	0.116203	0.485754
	C138	C	0.881919	0.117346	0.502225
	C139	C	0.882444	0.875338	0.485468
	C140	C	0.510194	0.116185	0.875672
	C141	C	0.493792	0.116919	0.118018
	C142	C	0.510016	0.872881	0.118075
	C143	C	0.493519	0.873573	0.874978
	C144	C	0.381581	0.882998	0.676163
	C145	C	0.623193	0.108835	0.674697
	C146	C	0.624865	0.882634	0.316702
	C147	C	0.383027	0.109115	0.318662
	C148	C	0.682798	0.370564	0.882792
	C149	C	0.679617	0.613661	0.108728
	C150	C	0.324831	0.616363	0.881166
	C151	C	0.322097	0.374672	0.108304
	C152	C	0.890905	0.677901	0.368557
	C153	C	0.116673	0.671602	0.611416
	C154	C	0.889917	0.315127	0.614644
	C155	C	0.116350	0.315190	0.368983
	C156	C	0.889801	0.372287	0.672667
	C157	C	0.116316	0.614166	0.669423
	C158	C	0.889888	0.617789	0.313382
	C159	C	0.116733	0.374583	0.313489
	C160	C	0.379661	0.676222	0.883241
	C161	C	0.622256	0.671823	0.109042
	C162	C	0.624997	0.313761	0.883198
	C163	C	0.379021	0.316538	0.109120
	C164	C	0.683145	0.883185	0.374289
	C165	C	0.681108	0.108863	0.617103
	C166	C	0.323125	0.883132	0.619135
	C167	C	0.325229	0.109146	0.376579
	C168	C	0.880420	0.382454	0.174319
	C169	C	0.123137	0.607270	0.169984
	C170	C	0.124632	0.381309	0.813622
	C171	C	0.880388	0.607089	0.814069
	C172	C	0.184218	0.875113	0.381250
	C173	C	0.178858	0.114782	0.608785
	C174	C	0.823278	0.118337	0.381200
	C175	C	0.825190	0.874357	0.607844
	C176	C	0.388742	0.174037	0.876245
	C177	C	0.615269	0.174588	0.118026
	C178	C	0.387641	0.817255	0.118946
	C179	C	0.614001	0.813349	0.873383
	C180	C	0.387688	0.875944	0.175111
	C181	C	0.616278	0.115317	0.173708
	C182	C	0.388340	0.116085	0.818947
	C183	C	0.614958	0.872044	0.816064
	C184	C	0.881881	0.174829	0.380031
	C185	C	0.124417	0.174795	0.606610
	C186	C	0.127172	0.817254	0.380232
	C187	C	0.882386	0.816275	0.606867
	C188	C	0.182896	0.381835	0.871041
	C189	C	0.179742	0.607557	0.111988
	C190	C	0.822724	0.382066	0.116616
	C191	C	0.821287	0.606375	0.871081
	C192	C	0.402504	0.088979	0.595523
	C193	C	0.601097	0.903361	0.593808
	C194	C	0.600529	0.088361	0.396808
	C195	C	0.405871	0.903085	0.399283
	C196	C	0.598737	0.397043	0.088696
	C197	C	0.596561	0.590888	0.903154
	C198	C	0.401292	0.593302	0.089387
	C199	C	0.405682	0.396249	0.901514
	C200	C	0.096581	0.594716	0.392942
	C201	C	0.909476	0.593467	0.589436
	C202	C	0.096081	0.397060	0.588994
	C203	C	0.910553	0.397809	0.396715
	C204	C	0.903959	0.586801	0.089498
	C205	C	0.100284	0.401675	0.090175
	C206	C	0.101458	0.587563	0.892430
	C207	C	0.905253	0.401835	0.895694
	C208	C	0.100262	0.894795	0.587864
	C209	C	0.101995	0.092463	0.400492
	C210	C	0.905821	0.093534	0.587069
	C211	C	0.906539	0.899901	0.400765
	C212	C	0.594799	0.091909	0.899556
	C213	C	0.408929	0.094095	0.095257
	C214	C	0.595446	0.894613	0.093999
	C215	C	0.409241	0.898334	0.899468
	Zn216	Zn	0.502723	-0.004040	0.746570
	Zn217	Zn	0.502423	-0.005055	0.245214
	Zn218	Zn	0.751042	0.493726	-0.005858
	Zn219	Zn	0.252641	0.494677	-0.006945
	Zn220	Zn	0.003167	0.745827	0.492078
	Zn221	Zn	0.003766	0.244581	0.492190
	Zn222	Zn	0.002382	0.494401	0.741562
	Zn223	Zn	0.002843	0.494975	0.242636
	Zn224	Zn	0.500467	0.744881	-0.002554
	Zn225	Zn	0.502157	0.245086	-0.002971
	Zn226	Zn	0.753363	-0.003681	0.495405
	Zn227	Zn	0.252098	-0.004420	0.496142
	N228	N	0.416255	0.959281	0.676028
	N229	N	0.588736	0.032457	0.675149
	N230	N	0.589607	0.958917	0.315762
	N231	N	0.417834	0.032716	0.318138
	N232	N	0.681773	0.406455	0.958994
	N233	N	0.679278	0.578801	0.031958
	N234	N	0.324371	0.580057	0.957395
	N235	N	0.323009	0.409050	0.031195
	N236	N	0.967771	0.678550	0.402762
	N237	N	0.039985	0.672671	0.576548
	N238	N	0.966563	0.315434	0.578707
	N239	N	0.039602	0.314500	0.404453
	N240	N	0.966269	0.407597	0.672036
	N241	N	0.039420	0.579982	0.669983
	N242	N	0.966184	0.581881	0.313615
	N243	N	0.040306	0.410312	0.315018
	N244	N	0.412572	0.676689	0.960697
	N245	N	0.586896	0.672640	0.032573
	N246	N	0.588985	0.314753	0.959804
	N247	N	0.415188	0.315862	0.032410
	N248	N	0.683336	0.959813	0.408476
	N249	N	0.681971	0.032506	0.582289
	N250	N	0.321850	0.959589	0.584121
	N251	N	0.324818	0.032726	0.411597
	N252	N	0.915670	0.458556	0.173209
	N253	N	0.088475	0.530989	0.170562
	N254	N	0.089306	0.457498	0.812705
	N255	N	0.916407	0.531021	0.814035
	N256	N	0.183202	0.908908	0.458533
	N257	N	0.178859	0.079029	0.532553
	N258	N	0.823284	0.083246	0.458089
	N259	N	0.825204	0.910356	0.531490
	N260	N	0.465583	0.174416	0.910703
	N261	N	0.538121	0.175674	0.084033
	N262	N	0.464942	0.815127	0.084350
	N263	N	0.537567	0.814357	0.909554
	N264	N	0.464795	0.909666	0.174693
	N265	N	0.539848	0.080127	0.173814
	N266	N	0.464971	0.080719	0.818499
	N267	N	0.539109	0.908830	0.816951
	N268	N	0.917785	0.174109	0.456309
	N269	N	0.091480	0.175829	0.529002
	N270	N	0.091122	0.815711	0.456811
	N271	N	0.917156	0.816551	0.529686
	N272	N	0.183493	0.458621	0.905000
	N273	N	0.179991	0.531243	0.077414
	N274	N	0.822786	0.457795	0.080165
	N275	N	0.821119	0.529975	0.905952
	O276	O	-0.122738	0.064290	-0.041044
	H277	H	-0.115587	0.070047	-0.037470
	H278	H	-0.124146	0.064431	-0.043154
	O279	O	0.574333	0.605145	0.418138
	H280	H	0.560961	0.607530	0.406933
	H281	H	0.557502	0.615955	0.411613
	O282	O	1.050343	0.109728	0.126408
	H283	H	1.043779	0.104220	0.132226
	H284	H	1.067233	0.097039	0.126085
	O285	O	0.032149	1.060462	-0.144786
	H286	H	0.024055	1.062766	-0.165029
	H287	H	0.028333	1.067859	-0.143991
	O288	O	0.587890	0.463866	0.547350
	H289	H	0.594898	0.480114	0.545179
	H290	H	0.592349	0.459815	0.538227
	O291	O	0.420384	0.419886	0.451436
	H292	H	0.426513	0.413372	0.444602
	H293	H	0.413408	0.415991	0.454390
	O294	O	1.132917	0.889529	1.021332
	H295	H	1.132785	0.889322	1.017467
	H296	H	1.118474	0.889376	1.030204
	O297	O	-0.121397	-0.082620	-0.017157
	H298	H	-0.117574	-0.085238	-0.023552
	H299	H	-0.130727	-0.084807	-0.029135
	O300	O	0.398003	0.576270	0.491952
	H301	H	0.388515	0.583186	0.495675
	H302	H	0.396772	0.562476	0.490142
	O303	O	-0.048124	0.951914	1.138567
	H304	H	-0.058600	0.952140	1.134345
	H305	H	-0.040243	0.952891	1.147153
	O306	O	0.504733	0.540633	0.567076
	H307	H	0.505738	0.537224	0.583323
	H308	H	0.508011	0.536199	0.570527
	O309	O	0.947879	-0.114118	0.041164
	H310	H	0.941864	-0.117204	0.032896
	H311	H	0.951120	-0.133197	0.044748
	O312	O	0.071763	-0.138122	1.036201
	H313	H	0.061349	-0.126915	1.031170
	H314	H	0.054685	-0.148118	1.055253
	O315	O	0.639038	0.445114	0.537933
	H316	H	0.664154	0.444784	0.548882
	H317	H	0.635361	0.461008	0.520677
	O318	O	0.367008	0.356760	0.507435
	H319	H	0.376421	0.362899	0.503831
	H320	H	0.359900	0.349698	0.508136
	O321	O	0.526751	0.585722	0.557654
	H322	H	0.525778	0.580527	0.561865
	H323	H	0.522823	0.594457	0.561014
	O324	O	0.628292	0.499587	0.596941
	H325	H	0.639180	0.515986	0.602520
	H326	H	0.615691	0.505704	0.599450
	O327	O	-0.145417	1.056546	0.960234
	H328	H	-0.157536	1.062111	0.956078
	H329	H	-0.139697	1.064128	0.963481
	O330	O	0.491376	0.593593	0.506486
	H331	H	0.485482	0.594759	0.500828
	H332	H	0.492269	0.590213	0.494542
	O333	O	0.138326	1.056654	0.993314
	H334	H	0.125855	1.047331	0.995668
	H335	H	0.139967	1.052505	1.001291
	O336	O	0.934897	1.101265	1.067892
	H337	H	0.934477	1.109863	1.080623
	H338	H	0.945003	1.104361	1.062240
	O339	O	0.394908	0.455726	0.391285
	H340	H	0.397099	0.458717	0.399312
	H341	H	0.402655	0.447543	0.406236
	O342	O	1.018823	-0.038857	-0.080362
	H343	H	1.022177	-0.028632	-0.075946
	H344	H	1.037231	-0.039943	-0.077013
	O345	O	0.553700	0.661034	0.470257
	H346	H	0.541792	0.658154	0.463390
	H347	H	0.558617	0.660656	0.469591
	O348	O	0.944057	0.969314	0.992014
	H349	H	0.938472	0.956835	0.983763
	H350	H	0.937439	0.972211	1.008136
	O351	O	1.075910	1.109763	-0.107342
	H352	H	1.070590	1.119305	-0.101866
	H353	H	1.070680	1.112974	-0.096634
	O354	O	0.636044	0.418456	0.405824
	H355	H	0.634990	0.433310	0.410277
	H356	H	0.639640	0.405049	0.412923
	O357	O	0.492734	0.430847	0.627130
	H358	H	0.498828	0.430447	0.635917
	H359	H	0.488295	0.438527	0.638289
	O360	O	-0.152809	0.117489	-0.105484
	H361	H	-0.150026	0.114936	-0.100226
	H362	H	-0.162025	0.110739	-0.092023
	O363	O	0.593995	0.579873	0.524188
	H364	H	0.609721	0.579548	0.528958
	H365	H	0.580336	0.603479	0.520147
	O366	O	0.416607	0.633918	0.472266
	H367	H	0.420509	0.629642	0.478402
	H368	H	0.409519	0.648317	0.463362
	O369	O	0.574194	0.496125	0.517956
	H370	H	0.571373	0.484855	0.521555
	H371	H	0.573428	0.489724	0.518005
	O372	O	0.563859	0.470333	0.477630
	H373	H	0.565715	0.470119	0.469195
	H374	H	0.574979	0.466822	0.476243
	O375	O	0.422159	0.397540	0.548582
	H376	H	0.417597	0.389191	0.534000
	H377	H	0.415496	0.389693	0.565213
	O378	O	0.504118	0.482977	0.370236
	H379	H	0.497899	0.483349	0.375423
	H380	H	0.510588	0.462613	0.370274
	O381	O	-0.015530	0.920811	0.962278
	H382	H	-0.025178	0.921477	0.949180
	H383	H	-0.016014	0.925253	0.969375
	O384	O	0.103292	0.821347	-0.061973
	H385	H	0.108816	0.817459	-0.055161
	H386	H	0.106361	0.815493	-0.063303
	O387	O	1.178997	0.038956	1.057565
	H388	H	1.183135	0.023863	1.050941
	H389	H	1.180688	0.036813	1.042607
	O390	O	-0.126816	0.855299	0.075916
	H391	H	-0.126556	0.854917	0.057637
	H392	H	-0.121352	0.861235	0.077849
	O393	O	0.877349	0.961040	0.004201
	H394	H	0.874670	0.979537	-0.012015
	H395	H	0.877221	0.956917	0.001058
	O396	O	0.426361	0.366726	0.624175
	H397	H	0.436089	0.356554	0.623085
	H398	H	0.425929	0.369390	0.633132
	O399	O	0.020865	0.948502	1.026932
	H400	H	0.023895	0.961492	1.032677
	H401	H	0.029143	0.951215	1.022434
	O402	O	0.954689	1.156980	0.940753
	H403	H	0.958997	1.164285	0.933785
	H404	H	0.951197	1.157629	0.957734
	O405	O	0.411836	0.520839	0.431563
	H406	H	0.409518	0.516179	0.430786
	H407	H	0.402749	0.521329	0.431450
