data_Molecule from HDF5

_cell_length_a		16.522715
_cell_length_b		16.384622
_cell_length_c		16.467792
_cell_angle_alpha	90.062011
_cell_angle_beta	90.131108
_cell_angle_gamma	89.877071
_symmetry_space_group_name_H-M	'P 1'
_symmetry_Int_Tables_number		1

loop_
	_symmetry_equiv_pos_as_xyz
	x,y,z

loop_
	_atom_site_label
	_atom_site_type_symbol
	_atom_site_fract_x
	_atom_site_fract_y
	_atom_site_fract_z
	H0	H	0.403638	0.843292	0.724206
	H1	H	0.617369	0.158749	0.723439
	H2	H	0.615765	0.842811	0.281246
	H3	H	0.404041	0.158723	0.277868
	H4	H	0.739277	0.387961	0.843015
	H5	H	0.734338	0.603887	0.156079
	H6	H	0.289704	0.607989	0.842509
	H7	H	0.290338	0.393525	0.156577
	H8	H	0.859647	0.723467	0.392995
	H9	H	0.169152	0.727008	0.611287
	H10	H	0.856578	0.278955	0.605722
	H11	H	0.171873	0.279119	0.396495
	H12	H	0.858852	0.389963	0.725411
	H13	H	0.169612	0.610372	0.726594
	H14	H	0.859189	0.606697	0.275926
	H15	H	0.172087	0.393635	0.278767
	H16	H	0.406514	0.722304	0.841689
	H17	H	0.613536	0.717897	0.157566
	H18	H	0.621126	0.274721	0.842540
	H19	H	0.407569	0.278717	0.157805
	H20	H	0.735319	0.844117	0.394297
	H21	H	0.735640	0.158957	0.610367
	H22	H	0.285966	0.844432	0.610819
	H23	H	0.288299	0.158309	0.392818
	H24	H	0.908961	0.342059	0.220332
	H25	H	0.120108	0.658483	0.221722
	H26	H	0.123315	0.342434	0.775655
	H27	H	0.904940	0.656490	0.774572
	H28	H	0.238281	0.890202	0.344705
	H29	H	0.239380	0.111856	0.656174
	H30	H	0.790608	0.106676	0.343404
	H31	H	0.789856	0.892153	0.658300
	H32	H	0.357187	0.225428	0.891928
	H33	H	0.670784	0.221846	0.105926
	H34	H	0.355308	0.779655	0.104464
	H35	H	0.671117	0.780018	0.895418
	H36	H	0.356325	0.892107	0.224140
	H37	H	0.669726	0.106377	0.223077
	H38	H	0.357029	0.110694	0.774771
	H39	H	0.669258	0.892553	0.776645
	H40	H	0.909572	0.219767	0.341465
	H41	H	0.120886	0.225124	0.657308
	H42	H	0.121853	0.777286	0.344027
	H43	H	0.906141	0.775633	0.657391
	H44	H	0.239893	0.343581	0.890782
	H45	H	0.233867	0.659776	0.104960
	H46	H	0.792740	0.342011	0.104148
	H47	H	0.788585	0.656246	0.889035
	H48	H	0.425704	0.113367	0.590080
	H49	H	0.605829	0.887044	0.588648
	H50	H	0.606600	0.115724	0.416155
	H51	H	0.418121	0.889258	0.423622
	H52	H	0.602766	0.414621	0.110796
	H53	H	0.604963	0.594402	0.882094
	H54	H	0.417006	0.585835	0.113435
	H55	H	0.432911	0.414926	0.891286
	H56	H	0.128107	0.588031	0.410695
	H57	H	0.906660	0.583237	0.583242
	H58	H	0.125498	0.415052	0.589520
	H59	H	0.898223	0.405993	0.407238
	H60	H	0.126098	0.411156	0.587612
	H61	H	0.903242	0.584109	0.589818
	H62	H	0.127541	0.586266	0.411365
	H63	H	0.902883	0.411839	0.413264
	H64	H	0.430204	0.587236	0.109719
	H65	H	0.605957	0.583893	0.885619
	H66	H	0.602449	0.410892	0.111141
	H67	H	0.425521	0.410126	0.886851
	H68	H	0.602415	0.117678	0.406761
	H69	H	0.600104	0.887434	0.590550
	H70	H	0.431112	0.109621	0.585962
	H71	H	0.419660	0.882222	0.402174
	H72	H	0.926240	0.615005	0.091655
	H73	H	0.107963	0.387322	0.082913
	H74	H	0.099507	0.610483	0.916759
	H75	H	0.928223	0.387048	0.911021
	H76	H	0.095240	0.912243	0.611791
	H77	H	0.101031	0.088701	0.388024
	H78	H	0.924671	0.087886	0.613018
	H79	H	0.926726	0.919278	0.392198
	H80	H	0.620887	0.079062	0.914496
	H81	H	0.398913	0.086822	0.095523
	H82	H	0.623394	0.910620	0.084597
	H83	H	0.400542	0.914402	0.908558
	H84	H	0.625014	0.916730	0.095267
	H85	H	0.399299	0.096966	0.087284
	H86	H	0.626327	0.087554	0.907310
	H87	H	0.398575	0.908048	0.909994
	H88	H	0.926609	0.092835	0.613852
	H89	H	0.102200	0.088250	0.388388
	H90	H	0.104130	0.914254	0.614164
	H91	H	0.928104	0.908533	0.388560
	H92	H	0.104925	0.614226	0.911831
	H93	H	0.104284	0.384826	0.093010
	H94	H	0.926665	0.612078	0.085037
	H95	H	0.928372	0.389412	0.914623
	H96	H	0.424537	0.111401	0.582120
	H97	H	0.601511	0.888903	0.585472
	H98	H	0.596511	0.113149	0.414280
	H99	H	0.437792	0.892466	0.412547
	H100	H	0.605794	0.412761	0.111724
	H101	H	0.596972	0.589564	0.887149
	H102	H	0.423076	0.598027	0.115107
	H103	H	0.424337	0.419565	0.889953
	H104	H	0.128240	0.586875	0.409479
	H105	H	0.903317	0.589849	0.584863
	H106	H	0.124107	0.414753	0.585558
	H107	H	0.901665	0.414457	0.403542
	H108	H	0.920145	0.615538	0.087079
	H109	H	0.097637	0.389937	0.086186
	H110	H	0.097893	0.612322	0.909446
	H111	H	0.924728	0.386759	0.913402
	H112	H	0.098691	0.920929	0.609320
	H113	H	0.100983	0.087403	0.388400
	H114	H	0.921479	0.091626	0.615253
	H115	H	0.917877	0.913205	0.387354
	H116	H	0.623464	0.089807	0.918868
	H117	H	0.403663	0.085218	0.083636
	H118	H	0.628515	0.904827	0.093726
	H119	H	0.401291	0.911920	0.914226
	C120	C	0.391753	0.008664	0.621157
	C121	C	0.635010	0.991861	0.622600
	C122	C	0.633601	0.010596	0.380393
	C123	C	0.391124	0.992388	0.379385
	C124	C	0.635834	0.378332	0.007346
	C125	C	0.634033	0.620690	0.989802
	C126	C	0.391385	0.622475	0.008295
	C127	C	0.393380	0.380652	0.992366
	C128	C	0.024194	0.621054	0.378021
	C129	C	1.006548	0.620662	0.621350
	C130	C	0.022405	0.379511	0.621240
	C131	C	1.005432	0.378174	0.377290
	C132	C	0.892462	0.509262	0.120500
	C133	C	0.135288	0.491980	0.120514
	C134	C	0.135397	0.508483	0.878600
	C135	C	0.892585	0.490877	0.877983
	C136	C	0.134187	0.880150	0.508957
	C137	C	0.135117	0.122410	0.491809
	C138	C	0.891648	0.122788	0.509617
	C139	C	0.891538	0.879431	0.492811
	C140	C	0.520720	0.120759	0.879206
	C141	C	0.504345	0.122415	0.122239
	C142	C	0.521242	0.878765	0.122351
	C143	C	0.504073	0.878527	0.877692
	C144	C	0.386553	0.890570	0.683839
	C145	C	0.636739	0.111039	0.683830
	C146	C	0.634997	0.890688	0.320871
	C147	C	0.386613	0.110944	0.317908
	C148	C	0.697964	0.372064	0.889896
	C149	C	0.693628	0.622482	0.109087
	C150	C	0.330669	0.625231	0.889611
	C151	C	0.331400	0.376093	0.109883
	C152	C	0.906347	0.682454	0.375185
	C153	C	0.122834	0.684733	0.627364
	C154	C	0.904144	0.318623	0.623999
	C155	C	0.124380	0.318517	0.376911
	C156	C	0.905454	0.374063	0.683831
	C157	C	0.122954	0.626722	0.685241
	C158	C	0.906174	0.624635	0.316860
	C159	C	0.124433	0.375572	0.318274
	C160	C	0.388825	0.682312	0.889139
	C161	C	0.633840	0.678862	0.109991
	C162	C	0.638886	0.315673	0.889690
	C163	C	0.389827	0.318898	0.110364
	C164	C	0.694145	0.891367	0.377376
	C165	C	0.695311	0.111127	0.627353
	C166	C	0.327888	0.891291	0.627272
	C167	C	0.329002	0.110809	0.375448
	C168	C	0.890435	0.389770	0.180543
	C169	C	0.137743	0.611131	0.181219
	C170	C	0.140453	0.390004	0.816366
	C171	C	0.887670	0.609147	0.815199
	C172	C	0.197360	0.873688	0.392166
	C173	C	0.197696	0.128166	0.609468
	C174	C	0.830765	0.124724	0.390928
	C175	C	0.830393	0.874781	0.610833
	C176	C	0.403865	0.184219	0.874596
	C177	C	0.623206	0.182020	0.124600
	C178	C	0.402709	0.818865	0.123432
	C179	C	0.623113	0.818492	0.875983
	C180	C	0.403376	0.875117	0.183052
	C181	C	0.622700	0.124832	0.183026
	C182	C	0.403885	0.126701	0.816344
	C183	C	0.622088	0.874866	0.816909
	C184	C	0.890231	0.180920	0.389496
	C185	C	0.138811	0.184924	0.609861
	C186	C	0.139007	0.817170	0.391551
	C187	C	0.888381	0.816656	0.610433
	C188	C	0.198582	0.390553	0.873757
	C189	C	0.194286	0.611917	0.122879
	C190	C	0.832644	0.389807	0.122681
	C191	C	0.829651	0.609002	0.872246
	C192	C	0.419211	0.090145	0.593830
	C193	C	0.609704	0.909443	0.595985
	C194	C	0.608873	0.093853	0.405369
	C195	C	0.417404	0.909705	0.405585
	C196	C	0.610757	0.405205	0.089781
	C197	C	0.609720	0.596088	0.906656
	C198	C	0.416344	0.597368	0.091319
	C199	C	0.419965	0.407309	0.910538
	C200	C	0.106518	0.594804	0.403445
	C201	C	0.925364	0.593357	0.593694
	C202	C	0.103909	0.406058	0.595053
	C203	C	0.922423	0.403433	0.401200
	C204	C	0.917281	0.592616	0.095266
	C205	C	0.110414	0.408969	0.094809
	C206	C	0.108511	0.590780	0.905018
	C207	C	0.919579	0.409087	0.905086
	C208	C	0.107074	0.907848	0.590526
	C209	C	0.109004	0.095545	0.409774
	C210	C	0.916902	0.097997	0.592328
	C211	C	0.917137	0.906005	0.410851
	C212	C	0.602266	0.093376	0.905963
	C213	C	0.422115	0.097023	0.096401
	C214	C	0.604036	0.903557	0.097993
	C215	C	0.421754	0.904051	0.903269
	Zn216	Zn	0.512539	0.000141	0.749674
	Zn217	Zn	0.512264	0.001337	0.250903
	Zn218	Zn	0.764662	0.500242	-0.001769
	Zn219	Zn	0.263250	0.500994	0.000235
	Zn220	Zn	0.014401	0.750302	0.500463
	Zn221	Zn	0.013428	0.251035	0.499828
	Zn222	Zn	0.014104	0.499827	0.750950
	Zn223	Zn	0.015270	0.499376	0.248221
	Zn224	Zn	0.512774	0.750502	-0.000944
	Zn225	Zn	0.513619	0.250096	0.000051
	Zn226	Zn	0.762861	0.001884	0.501640
	Zn227	Zn	0.263058	0.000516	0.500504
	N228	N	0.425728	0.964359	0.679976
	N229	N	0.600006	0.035872	0.681125
	N230	N	0.598072	0.965919	0.322478
	N231	N	0.424531	0.036314	0.320208
	N232	N	0.696124	0.410627	0.964106
	N233	N	0.694178	0.587466	0.033216
	N234	N	0.332243	0.588591	0.964658
	N235	N	0.333338	0.413612	0.035547
	N236	N	0.980695	0.680148	0.412540
	N237	N	0.049454	0.681094	0.588232
	N238	N	0.977883	0.321705	0.585799
	N239	N	0.049493	0.320137	0.412641
	N240	N	0.980087	0.410883	0.682592
	N241	N	0.049629	0.587471	0.681327
	N242	N	0.980534	0.587117	0.318569
	N243	N	0.049170	0.411816	0.318185
	N244	N	0.425960	0.680755	0.963842
	N245	N	0.597926	0.678261	0.034740
	N246	N	0.600898	0.319495	0.963758
	N247	N	0.427690	0.321434	0.036103
	N248	N	0.693380	0.966777	0.413810
	N249	N	0.694473	0.036015	0.589960
	N250	N	0.330985	0.965615	0.588931
	N251	N	0.331468	0.035810	0.412737
	N252	N	0.927064	0.465075	0.179381
	N253	N	0.101622	0.535775	0.179512
	N254	N	0.101783	0.464322	0.819520
	N255	N	0.926489	0.534844	0.818915
	N256	N	0.194589	0.912170	0.466344
	N257	N	0.195579	0.090019	0.535101
	N258	N	0.831276	0.089686	0.466830
	N259	N	0.831885	0.912770	0.536661
	N260	N	0.477596	0.180583	0.913080
	N261	N	0.548657	0.180761	0.087700
	N262	N	0.477162	0.820980	0.086251
	N263	N	0.548539	0.820549	0.912884
	N264	N	0.477912	0.911846	0.182433
	N265	N	0.547548	0.088917	0.181970
	N266	N	0.477615	0.087936	0.819192
	N267	N	0.547083	0.911062	0.817613
	N268	N	0.926994	0.180374	0.464314
	N269	N	0.100526	0.181534	0.535684
	N270	N	0.100464	0.820923	0.465432
	N271	N	0.925602	0.819077	0.535783
	N272	N	0.195689	0.465271	0.911445
	N273	N	0.193232	0.536571	0.086058
	N274	N	0.833935	0.465139	0.086073
	N275	N	0.832618	0.534694	0.910449
	O276	O	-0.013550	0.792465	0.215398
	H277	H	-0.033897	0.770997	0.233973
	H278	H	-0.044635	0.786575	0.214793
	O279	O	0.815968	-0.197642	1.200369
	H280	H	0.806221	-0.176946	1.173346
	H281	H	0.784635	-0.224767	1.215270
	O282	O	0.362819	0.478351	0.527063
	H283	H	0.385632	0.481364	0.513958
	H284	H	0.360335	0.484799	0.541396
	O285	O	0.722106	1.464283	0.294957
	H286	H	0.720321	1.470427	0.302872
	H287	H	0.737794	1.472072	0.294973
	O288	O	0.317784	0.713459	0.489904
	H289	H	0.292533	0.724619	0.482849
	H290	H	0.310791	0.703961	0.493751
	O291	O	0.363400	0.383609	0.498183
	H292	H	0.368657	0.399937	0.495977
	H293	H	0.346522	0.390201	0.481091
	O294	O	-0.060731	-0.213225	0.948292
	H295	H	-0.062376	-0.208552	0.939508
	H296	H	-0.038992	-0.215259	0.937431
	O297	O	0.483594	0.284179	0.517980
	H298	H	0.499444	0.281957	0.526849
	H299	H	0.453797	0.279738	0.523930
	O300	O	0.443279	0.680941	0.562383
	H301	H	0.425894	0.689050	0.541106
	H302	H	0.446414	0.674158	0.553864
	O303	O	0.055054	0.135602	0.940862
	H304	H	0.048580	0.143054	0.935741
	H305	H	0.058054	0.113059	0.946585
	O306	O	0.703684	0.311113	0.328762
	H307	H	0.710102	0.339618	0.330450
	H308	H	0.688954	0.302401	0.313386
	O309	O	0.332914	0.333912	0.558221
	H310	H	0.316511	0.337983	0.556041
	H311	H	0.330225	0.338993	0.529849
	O312	O	0.237901	0.984681	1.128764
	H313	H	0.241855	1.000016	1.141564
	H314	H	0.240065	0.976888	1.133849
	O315	O	0.652297	0.557791	0.415329
	H316	H	0.658688	0.558225	0.432208
	H317	H	0.659865	0.569781	0.433751
	O318	O	1.165999	-0.003367	0.001640
	H319	H	1.171468	0.003224	0.036695
	H320	H	1.159823	-0.029984	0.003965
	O321	O	0.049210	0.156032	-0.097696
	H322	H	0.058624	0.169842	-0.081597
	H323	H	0.046266	0.144115	-0.104795
	O324	O	0.643945	0.468968	0.689358
	H325	H	0.638004	0.456645	0.687972
	H326	H	0.632230	0.461150	0.690693
	O327	O	0.537192	0.291543	0.290091
	H328	H	0.547864	0.269464	0.276118
	H329	H	0.527900	0.291484	0.291457
	O330	O	-0.201241	0.790328	0.031425
	H331	H	-0.221541	0.778272	0.023718
	H332	H	-0.182614	0.785198	0.022896
	O333	O	0.329232	0.687766	0.331866
	H334	H	0.347103	0.695716	0.337013
	H335	H	0.343429	0.686031	0.342756
	O336	O	0.095437	-0.053210	0.212496
	H337	H	0.080303	-0.082969	0.226159
	H338	H	0.102664	-0.046981	0.199610
	O339	O	-0.184393	1.023124	1.013323
	H340	H	-0.187036	1.019759	1.014099
	H341	H	-0.174397	1.033215	1.026025
	O342	O	0.000865	1.129054	1.050749
	H343	H	0.005271	1.120749	1.056588
	H344	H	0.008611	1.126573	1.042526
	O345	O	1.046988	0.901489	0.055464
	H346	H	1.068605	0.909047	0.039193
	H347	H	1.047097	0.883489	0.069131
	O348	O	0.563171	0.404762	0.439004
	H349	H	0.543653	0.417765	0.434716
	H350	H	0.576789	0.393349	0.441608
	O351	O	-0.191118	0.973178	1.201706
	H352	H	-0.194166	0.958644	1.210768
	H353	H	-0.184520	0.983929	1.211016
	O354	O	-0.299369	0.665036	0.307119
	H355	H	-0.313103	0.651008	0.323383
	H356	H	-0.305816	0.645941	0.323875
	O357	O	-0.428031	0.709096	0.455360
	H358	H	-0.399459	0.710491	0.468830
	H359	H	-0.427162	0.702976	0.481069
	O360	O	0.736983	0.720434	0.522707
	H361	H	0.746364	0.729695	0.553852
	H362	H	0.752453	0.735955	0.550249
	O363	O	0.222175	0.204174	1.020096
	H364	H	0.233657	0.222333	1.015512
	H365	H	0.218950	0.191089	1.033868
	O366	O	0.726509	0.303111	0.484276
	H367	H	0.736497	0.291203	0.465432
	H368	H	0.728094	0.287570	0.465392
	O369	O	0.479549	0.458722	0.316149
	H370	H	0.482702	0.463001	0.307244
	H371	H	0.473521	0.451581	0.318633
	O372	O	0.798156	0.024957	0.786569
	H373	H	0.791229	0.006298	0.795294
	H374	H	0.785460	0.015152	0.764980
	O375	O	0.538437	0.716128	0.717768
	H376	H	0.527416	0.734280	0.736446
	H377	H	0.519473	0.723165	0.711055
	O378	O	1.025488	0.793918	0.793200
	H379	H	1.031986	0.782423	0.771482
	H380	H	1.042214	0.805065	0.793254
	O381	O	0.433560	0.386996	0.652419
	H382	H	0.421463	0.389864	0.645983
	H383	H	0.433550	0.367647	0.661820
	O384	O	0.654956	0.484790	0.709070
	H385	H	0.671468	0.464555	0.727678
	H386	H	0.623475	0.472531	0.718410
	O387	O	0.187210	-0.182011	0.816586
	H388	H	0.192574	-0.167972	0.842239
	H389	H	0.181950	-0.152620	0.804740
	O390	O	-0.011338	0.039695	-0.113123
	H391	H	-0.017155	0.023462	-0.099878
	H392	H	-0.019307	0.061956	-0.110145
	O393	O	1.198671	1.058541	1.011412
	H394	H	1.200585	1.040818	1.006273
	H395	H	1.199267	1.061329	1.011987
	O396	O	1.052201	0.209847	0.209155
	H397	H	1.054063	0.210924	0.224185
	H398	H	1.042913	0.228390	0.201420
	O399	O	0.819745	0.097121	0.979314
	H400	H	0.813121	0.100306	0.976557
	H401	H	0.825092	0.098835	0.955470
	O402	O	0.956218	1.075138	1.211057
	H403	H	0.975504	1.075531	1.206913
	H404	H	0.958753	1.066447	1.209375
	O405	O	1.561857	0.479917	-0.487862
	H406	H	1.570068	0.470466	-0.488230
	H407	H	1.581479	0.469709	-0.496462
	O408	O	0.951917	-0.053641	-0.204665
	H409	H	0.947249	-0.048802	-0.180807
	H410	H	0.960060	-0.064920	-0.200582
	O411	O	0.811075	1.164511	0.053014
	H412	H	0.825893	1.165825	0.051645
	H413	H	0.800315	1.177936	0.050955
	O414	O	0.218313	0.795643	0.976176
	H415	H	0.226813	0.813005	0.964133
	H416	H	0.218516	0.778488	0.989498
	O417	O	0.503708	0.697331	0.306477
	H418	H	0.514939	0.691356	0.292430
	H419	H	0.519814	0.709129	0.343241
	O420	O	0.042906	-0.120110	0.072236
	H421	H	0.024576	-0.134884	0.065435
	H422	H	0.030116	-0.127621	0.097904
	O423	O	0.373562	0.420226	0.534332
	H424	H	0.378346	0.413641	0.526342
	H425	H	0.371750	0.414412	0.553715
	O426	O	0.461002	0.513246	0.552184
	H427	H	0.465259	0.518990	0.547537
	H428	H	0.465190	0.499079	0.546102
	O429	O	0.405644	0.540662	0.706245
	H430	H	0.391514	0.534259	0.720335
	H431	H	0.415945	0.555331	0.696967
	O432	O	0.208878	0.110390	0.173187
	H433	H	0.218684	0.098385	0.168428
	H434	H	0.169360	0.116183	0.190135
	O435	O	0.311763	0.531295	0.296752
	H436	H	0.312502	0.547879	0.284387
	H437	H	0.309655	0.530552	0.293178
	O438	O	-0.008714	0.212632	-0.212596
	H439	H	-0.010884	0.214226	-0.195329
	H440	H	-0.003663	0.239901	-0.231896
	O441	O	0.832448	0.184809	-0.175697
	H442	H	0.851161	0.179968	-0.173003
	H443	H	0.830734	0.146725	-0.182591
	O444	O	0.222708	0.979057	0.786938
	H445	H	0.251059	0.983138	0.765326
	H446	H	0.199737	1.003936	0.788082
	O447	O	0.316872	0.369018	0.633705
	H448	H	0.344106	0.371209	0.637995
	H449	H	0.297731	0.358883	0.611566
	O450	O	0.685007	0.671279	0.660664
	H451	H	0.690377	0.624372	0.672483
	H452	H	0.640470	0.680023	0.671686
	O453	O	0.723833	0.475831	0.524858
	H454	H	0.726381	0.483491	0.547086
	H455	H	0.729608	0.450890	0.524580
