data_Molecule from HDF5

_cell_length_a		16.289442
_cell_length_b		16.328526
_cell_length_c		16.341802
_cell_angle_alpha	89.953513
_cell_angle_beta	90.004094
_cell_angle_gamma	90.100583
_symmetry_space_group_name_H-M	'P 1'
_symmetry_Int_Tables_number		1

loop_
	_symmetry_equiv_pos_as_xyz
	x,y,z

loop_
	_atom_site_label
	_atom_site_type_symbol
	_atom_site_fract_x
	_atom_site_fract_y
	_atom_site_fract_z
	H0	H	0.401610	0.837074	0.714330
	H1	H	0.598718	0.163874	0.714774
	H2	H	0.598266	0.836600	0.285092
	H3	H	0.401508	0.163656	0.285409
	H4	H	0.713075	0.404442	0.835873
	H5	H	0.715823	0.598658	0.163451
	H6	H	0.287949	0.595848	0.836155
	H7	H	0.285708	0.402600	0.163301
	H8	H	0.836537	0.713726	0.400992
	H9	H	0.163323	0.714500	0.598081
	H10	H	0.835876	0.286349	0.597267
	H11	H	0.164035	0.285924	0.402591
	H12	H	0.835816	0.401060	0.715211
	H13	H	0.163419	0.597312	0.713663
	H14	H	0.836471	0.597257	0.285322
	H15	H	0.163807	0.402631	0.286485
	H16	H	0.403614	0.713159	0.836485
	H17	H	0.599049	0.714345	0.163423
	H18	H	0.597851	0.286589	0.836472
	H19	H	0.403532	0.286533	0.163810
	H20	H	0.713274	0.836156	0.403168
	H21	H	0.715257	0.163393	0.598580
	H22	H	0.285340	0.836820	0.597947
	H23	H	0.286111	0.164281	0.402582
	H24	H	0.901534	0.336643	0.214300
	H25	H	0.098756	0.662827	0.214855
	H26	H	0.096818	0.336042	0.786441
	H27	H	0.900383	0.663598	0.784104
	H28	H	0.213853	0.902768	0.336355
	H29	H	0.214385	0.096964	0.663401
	H30	H	0.785934	0.097900	0.336592
	H31	H	0.785598	0.901690	0.663051
	H32	H	0.335993	0.213906	0.901981
	H33	H	0.664385	0.214216	0.097202
	H34	H	0.336481	0.785748	0.098540
	H35	H	0.664471	0.786043	0.902841
	H36	H	0.336478	0.901850	0.214109
	H37	H	0.663975	0.098699	0.214654
	H38	H	0.336062	0.097068	0.785750
	H39	H	0.664046	0.903083	0.786107
	H40	H	0.901202	0.214800	0.337011
	H41	H	0.098875	0.214410	0.663323
	H42	H	0.097948	0.785780	0.336162
	H43	H	0.901949	0.784883	0.663216
	H44	H	0.212878	0.336103	0.903326
	H45	H	0.213883	0.664245	0.096290
	H46	H	0.785742	0.336654	0.097985
	H47	H	0.786636	0.664427	0.902987
	H48	H	0.403767	0.116648	0.591245
	H49	H	0.588703	0.885231	0.595425
	H50	H	0.585136	0.112858	0.410367
	H51	H	0.408891	0.886370	0.410263
	H52	H	0.597060	0.407635	0.116511
	H53	H	0.588765	0.597226	0.884288
	H54	H	0.409682	0.592090	0.115144
	H55	H	0.406141	0.404395	0.882925
	H56	H	0.118796	0.600055	0.407004
	H57	H	0.883863	0.587194	0.596241
	H58	H	0.113354	0.410878	0.587437
	H59	H	0.885433	0.405542	0.415279
	H60	H	0.116851	0.410039	0.601135
	H61	H	0.880880	0.597810	0.595345
	H62	H	0.113369	0.588705	0.413482
	H63	H	0.885156	0.413742	0.403096
	H64	H	0.406239	0.597495	0.117245
	H65	H	0.598590	0.596173	0.882744
	H66	H	0.590908	0.409325	0.114213
	H67	H	0.405019	0.407705	0.884395
	H68	H	0.601766	0.116956	0.410865
	H69	H	0.593865	0.885468	0.589629
	H70	H	0.407013	0.116945	0.596873
	H71	H	0.401679	0.882943	0.406866
	H72	H	0.907755	0.618057	0.100376
	H73	H	0.096066	0.384024	0.090569
	H74	H	0.100009	0.616010	0.915084
	H75	H	0.906219	0.382919	0.899860
	H76	H	0.098691	0.906744	0.616922
	H77	H	0.089580	0.092330	0.386174
	H78	H	0.902706	0.095618	0.617976
	H79	H	0.911395	0.912122	0.387930
	H80	H	0.617280	0.091705	0.901652
	H81	H	0.387454	0.086618	0.090000
	H82	H	0.616927	0.911999	0.099310
	H83	H	0.386242	0.907844	0.913766
	H84	H	0.619291	0.900096	0.094462
	H85	H	0.381566	0.093491	0.101942
	H86	H	0.616587	0.098453	0.909552
	H87	H	0.384225	0.911290	0.901613
	H88	H	0.907206	0.088098	0.614757
	H89	H	0.092643	0.098238	0.383203
	H90	H	0.089372	0.910905	0.613610
	H91	H	0.910437	0.899251	0.382486
	H92	H	0.098021	0.619828	0.896055
	H93	H	0.095338	0.381835	0.097323
	H94	H	0.913760	0.613583	0.089810
	H95	H	0.911091	0.386714	0.909691
	H96	H	0.409876	0.115367	0.591319
	H97	H	0.595844	0.883090	0.596273
	H98	H	0.593000	0.118451	0.397029
	H99	H	0.408428	0.883677	0.402340
	H100	H	0.591742	0.402821	0.116575
	H101	H	0.593004	0.588141	0.885753
	H102	H	0.403390	0.591319	0.116546
	H103	H	0.407994	0.406828	0.884522
	H104	H	0.116080	0.588301	0.400048
	H105	H	0.885467	0.592575	0.587378
	H106	H	0.118157	0.398475	0.592779
	H107	H	0.879973	0.399747	0.402666
	H108	H	0.901797	0.617059	0.089206
	H109	H	0.089827	0.385328	0.093611
	H110	H	0.082991	0.612706	0.905913
	H111	H	0.900104	0.383696	0.909728
	H112	H	0.090236	0.900080	0.616256
	H113	H	0.096487	0.091554	0.383161
	H114	H	0.911580	0.096486	0.615405
	H115	H	0.899370	0.907523	0.381735
	H116	H	0.613394	0.088490	0.910949
	H117	H	0.382952	0.100947	0.089178
	H118	H	0.613898	0.909012	0.086798
	H119	H	0.382103	0.899283	0.905085
	C120	C	0.378191	0.008729	0.621466
	C121	C	0.621601	0.992349	0.621938
	C122	C	0.621581	0.007823	0.378206
	C123	C	0.377867	0.992464	0.378404
	C124	C	0.621433	0.378532	0.007761
	C125	C	0.621825	0.621694	0.992173
	C126	C	0.378643	0.621542	0.008517
	C127	C	0.378601	0.378332	0.991768
	C128	C	0.008305	0.620919	0.378456
	C129	C	0.991691	0.620729	0.620924
	C130	C	0.007851	0.378103	0.621914
	C131	C	0.991713	0.378274	0.378806
	C132	C	0.878886	0.508313	0.121355
	C133	C	0.121818	0.491929	0.121534
	C134	C	0.121648	0.508048	0.878156
	C135	C	0.877741	0.492370	0.878056
	C136	C	0.121175	0.878128	0.507488
	C137	C	0.121562	0.121907	0.492237
	C138	C	0.878659	0.121569	0.508256
	C139	C	0.878392	0.878047	0.491932
	C140	C	0.507922	0.121340	0.878558
	C141	C	0.492193	0.121758	0.121717
	C142	C	0.508229	0.878735	0.121541
	C143	C	0.492317	0.878316	0.878617
	C144	C	0.381099	0.885557	0.676151
	C145	C	0.619117	0.115118	0.676766
	C146	C	0.618488	0.885158	0.323625
	C147	C	0.381076	0.115206	0.323439
	C148	C	0.675792	0.382342	0.884847
	C149	C	0.677594	0.619359	0.114757
	C150	C	0.325010	0.617667	0.884977
	C151	C	0.323910	0.381618	0.114854
	C152	C	0.885086	0.675763	0.380679
	C153	C	0.114767	0.675861	0.618117
	C154	C	0.884577	0.323613	0.618456
	C155	C	0.115002	0.323783	0.381648
	C156	C	0.884753	0.380853	0.676763
	C157	C	0.114795	0.618190	0.675951
	C158	C	0.885016	0.617801	0.323494
	C159	C	0.115038	0.381142	0.323722
	C160	C	0.382310	0.675803	0.885273
	C161	C	0.619559	0.676764	0.114858
	C162	C	0.618659	0.323749	0.885144
	C163	C	0.382340	0.324421	0.115100
	C164	C	0.675779	0.884968	0.381969
	C165	C	0.676756	0.115179	0.618831
	C166	C	0.323392	0.885407	0.618420
	C167	C	0.323609	0.115248	0.381648
	C168	C	0.881195	0.385255	0.176102
	C169	C	0.119378	0.614499	0.176743
	C170	C	0.117748	0.384820	0.824284
	C171	C	0.880644	0.615113	0.823004
	C172	C	0.175720	0.881991	0.384918
	C173	C	0.176418	0.118326	0.614964
	C174	C	0.823682	0.118805	0.385308
	C175	C	0.823266	0.880929	0.614599
	C176	C	0.384865	0.176106	0.881352
	C177	C	0.615555	0.176215	0.118087
	C178	C	0.385118	0.824033	0.118747
	C179	C	0.615531	0.823793	0.881823
	C180	C	0.385216	0.881725	0.176349
	C181	C	0.615359	0.119068	0.176524
	C182	C	0.384952	0.118587	0.823331
	C183	C	0.615399	0.881440	0.823624
	C184	C	0.881235	0.176620	0.385426
	C185	C	0.119170	0.176626	0.614856
	C186	C	0.118597	0.823402	0.385029
	C187	C	0.880878	0.822870	0.614464
	C188	C	0.175597	0.384802	0.882015
	C189	C	0.176270	0.615179	0.117754
	C190	C	0.823847	0.385250	0.118175
	C191	C	0.823878	0.615683	0.881748
	C192	C	0.400308	0.094197	0.599638
	C193	C	0.599393	0.906779	0.600109
	C194	C	0.599643	0.093855	0.399806
	C195	C	0.399785	0.906461	0.400214
	C196	C	0.599681	0.400306	0.093814
	C197	C	0.599936	0.599837	0.906490
	C198	C	0.399946	0.599945	0.094086
	C199	C	0.400030	0.399998	0.905999
	C200	C	0.093977	0.598864	0.400449
	C201	C	0.905661	0.599026	0.599305
	C202	C	0.093796	0.399976	0.600160
	C203	C	0.905861	0.400109	0.400414
	C204	C	0.901190	0.593984	0.099557
	C205	C	0.099933	0.405896	0.100051
	C206	C	0.100204	0.594189	0.899457
	C207	C	0.899338	0.406595	0.899862
	C208	C	0.099170	0.899476	0.593613
	C209	C	0.099666	0.100320	0.406361
	C210	C	0.900628	0.099734	0.593844
	C211	C	0.900564	0.900110	0.406030
	C212	C	0.593714	0.099071	0.900679
	C213	C	0.406154	0.100116	0.100182
	C214	C	0.594351	0.900624	0.099836
	C215	C	0.406367	0.899833	0.900363
	Zn216	Zn	0.499741	0.000204	0.750054
	Zn217	Zn	0.499964	0.000267	0.249941
	Zn218	Zn	0.750051	0.500372	0.000205
	Zn219	Zn	0.250040	0.500036	-0.000314
	Zn220	Zn	-0.000282	0.749141	0.499487
	Zn221	Zn	-0.000126	0.249863	0.500131
	Zn222	Zn	-0.000442	0.500077	0.750249
	Zn223	Zn	-0.000197	0.499471	0.250153
	Zn224	Zn	0.500476	0.750194	0.000600
	Zn225	Zn	0.500064	0.249677	0.000050
	Zn226	Zn	0.750229	0.000347	0.499956
	Zn227	Zn	0.249908	0.000087	0.499830
	N228	N	0.414507	0.962996	0.678173
	N229	N	0.585463	0.037865	0.678614
	N230	N	0.585554	0.962755	0.321219
	N231	N	0.414123	0.037679	0.321281
	N232	N	0.677649	0.415746	0.962168
	N233	N	0.678943	0.585778	0.037436
	N234	N	0.322665	0.584623	0.962300
	N235	N	0.321528	0.414594	0.037200
	N236	N	0.962625	0.677685	0.414219
	N237	N	0.037087	0.677652	0.584796
	N238	N	0.962125	0.321702	0.585082
	N239	N	0.037468	0.321715	0.415170
	N240	N	0.962574	0.413571	0.679349
	N241	N	0.037290	0.584483	0.677689
	N242	N	0.962564	0.584385	0.321838
	N243	N	0.037487	0.414449	0.321819
	N244	N	0.415016	0.678387	0.963084
	N245	N	0.585673	0.678250	0.037764
	N246	N	0.585568	0.321560	0.962699
	N247	N	0.415682	0.322270	0.037766
	N248	N	0.677759	0.962323	0.415193
	N249	N	0.678340	0.037878	0.585152
	N250	N	0.321484	0.962859	0.585123
	N251	N	0.321879	0.037794	0.415167
	N252	N	0.914594	0.462649	0.178301
	N253	N	0.086014	0.536879	0.179017
	N254	N	0.085147	0.462547	0.821485
	N255	N	0.913641	0.537503	0.820868
	N256	N	0.177220	0.915583	0.462159
	N257	N	0.177791	0.084872	0.537658
	N258	N	0.822152	0.085076	0.462524
	N259	N	0.821446	0.914384	0.537156
	N260	N	0.462463	0.178078	0.914927
	N261	N	0.538014	0.177946	0.084778
	N262	N	0.462563	0.822258	0.085199
	N263	N	0.538009	0.821843	0.915346
	N264	N	0.462929	0.915066	0.178041
	N265	N	0.537633	0.085807	0.178766
	N266	N	0.462425	0.085245	0.821723
	N267	N	0.537794	0.914742	0.821658
	N268	N	0.914590	0.178418	0.462831
	N269	N	0.085656	0.178756	0.537547
	N270	N	0.085333	0.821140	0.462468
	N271	N	0.914418	0.821186	0.537277
	N272	N	0.177656	0.462375	0.914967
	N273	N	0.177921	0.537858	0.084294
	N274	N	0.822247	0.462783	0.084752
	N275	N	0.821893	0.538302	0.915112
