data_Molecule from HDF5

_cell_length_a		16.624368
_cell_length_b		16.728129
_cell_length_c		16.629002
_cell_angle_alpha	90.006835
_cell_angle_beta	89.941060
_cell_angle_gamma	89.899894
_symmetry_space_group_name_H-M	'P 1'
_symmetry_Int_Tables_number		1

loop_
	_symmetry_equiv_pos_as_xyz
	x,y,z

loop_
	_atom_site_label
	_atom_site_type_symbol
	_atom_site_fract_x
	_atom_site_fract_y
	_atom_site_fract_z
	H0	H	0.370978	0.833463	0.715507
	H1	H	0.584734	0.139759	0.714257
	H2	H	0.590257	0.834054	0.265224
	H3	H	0.372452	0.138801	0.268642
	H4	H	0.701271	0.377806	0.837188
	H5	H	0.703908	0.595074	0.143495
	H6	H	0.255266	0.591891	0.837371
	H7	H	0.261152	0.385382	0.148933
	H8	H	0.825306	0.712359	0.380428
	H9	H	0.131300	0.709751	0.599374
	H10	H	0.825699	0.261682	0.599944
	H11	H	0.132885	0.264841	0.384407
	H12	H	0.824563	0.378566	0.714986
	H13	H	0.131858	0.592853	0.713713
	H14	H	0.824485	0.594417	0.267102
	H15	H	0.133632	0.383021	0.270781
	H16	H	0.366607	0.711775	0.840358
	H17	H	0.590220	0.712997	0.142069
	H18	H	0.583157	0.264372	0.835894
	H19	H	0.376689	0.268560	0.148702
	H20	H	0.705980	0.834142	0.380538
	H21	H	0.701706	0.138991	0.598535
	H22	H	0.254791	0.833086	0.599204
	H23	H	0.255976	0.139225	0.384215
	H24	H	0.872409	0.332303	0.214642
	H25	H	0.079078	0.641848	0.208973
	H26	H	0.081753	0.330841	0.770766
	H27	H	0.867743	0.637348	0.766418
	H28	H	0.201117	0.880056	0.336570
	H29	H	0.198986	0.090130	0.645840
	H30	H	0.755575	0.092775	0.336985
	H31	H	0.758146	0.882494	0.646761
	H32	H	0.321508	0.203167	0.888401
	H33	H	0.633498	0.204990	0.096319
	H34	H	0.323174	0.763368	0.097371
	H35	H	0.630281	0.757549	0.880064
	H36	H	0.323975	0.877761	0.214598
	H37	H	0.634730	0.086858	0.209862
	H38	H	0.321637	0.086914	0.773478
	H39	H	0.632303	0.875911	0.767577
	H40	H	0.870903	0.209485	0.337311
	H41	H	0.084407	0.207773	0.645538
	H42	H	0.086639	0.763432	0.336928
	H43	H	0.872715	0.765706	0.645994
	H44	H	0.196136	0.329346	0.888481
	H45	H	0.196726	0.640874	0.093199
	H46	H	0.756525	0.331715	0.098402
	H47	H	0.751375	0.637463	0.882538
	H48	H	0.379891	0.100535	0.581854
	H49	H	0.568707	0.875094	0.578428
	H50	H	0.567796	0.095403	0.404920
	H51	H	0.386435	0.873001	0.401891
	H52	H	0.569970	0.388948	0.105903
	H53	H	0.562738	0.567120	0.883261
	H54	H	0.389967	0.575343	0.102362
	H55	H	0.390878	0.395367	0.880765
	H56	H	0.088142	0.569538	0.399285
	H57	H	0.868588	0.570517	0.578047
	H58	H	0.087383	0.401896	0.579128
	H59	H	0.867114	0.397126	0.403024
	H60	H	0.090896	0.395721	0.583372
	H61	H	0.865919	0.575685	0.579925
	H62	H	0.092241	0.580687	0.400611
	H63	H	0.866704	0.397035	0.404006
	H64	H	0.387544	0.572605	0.102626
	H65	H	0.559364	0.568958	0.884138
	H66	H	0.570620	0.400482	0.102195
	H67	H	0.387103	0.386316	0.876651
	H68	H	0.564791	0.095476	0.400049
	H69	H	0.565884	0.875028	0.581799
	H70	H	0.395558	0.096945	0.587938
	H71	H	0.393829	0.875137	0.400652
	H72	H	0.890763	0.594340	0.077508
	H73	H	0.066811	0.374010	0.083003
	H74	H	0.062698	0.593648	0.909028
	H75	H	0.892126	0.378908	0.910162
	H76	H	0.064254	0.896806	0.601669
	H77	H	0.065650	0.073466	0.380027
	H78	H	0.895065	0.082296	0.604009
	H79	H	0.892873	0.901316	0.381316
	H80	H	0.589988	0.075749	0.904095
	H81	H	0.367702	0.077192	0.074942
	H82	H	0.589606	0.894981	0.077003
	H83	H	0.373635	0.905143	0.910133
	H84	H	0.585049	0.898861	0.072575
	H85	H	0.365698	0.069858	0.084120
	H86	H	0.590415	0.073444	0.900355
	H87	H	0.365888	0.901271	0.895962
	H88	H	0.881759	0.072818	0.604507
	H89	H	0.065024	0.077916	0.378809
	H90	H	0.067245	0.896745	0.602672
	H91	H	0.893564	0.897893	0.380643
	H92	H	0.075607	0.599285	0.903095
	H93	H	0.072128	0.372787	0.080477
	H94	H	0.889184	0.595415	0.077812
	H95	H	0.887457	0.374582	0.903984
	H96	H	0.391142	0.092616	0.571439
	H97	H	0.564715	0.876620	0.577834
	H98	H	0.562441	0.093028	0.404867
	H99	H	0.390439	0.876441	0.407275
	H100	H	0.559957	0.394021	0.100676
	H101	H	0.562088	0.571227	0.882336
	H102	H	0.390783	0.572009	0.100683
	H103	H	0.380963	0.394671	0.876704
	H104	H	0.086356	0.575030	0.409490
	H105	H	0.868493	0.575307	0.574340
	H106	H	0.089158	0.395280	0.575185
	H107	H	0.866731	0.397885	0.403550
	H108	H	0.890395	0.595251	0.079025
	H109	H	0.071276	0.372310	0.086340
	H110	H	0.063243	0.597409	0.894066
	H111	H	0.896071	0.376507	0.902166
	H112	H	0.065294	0.899229	0.601984
	H113	H	0.069630	0.075531	0.377986
	H114	H	0.895606	0.066955	0.597915
	H115	H	0.890521	0.899482	0.379513
	H116	H	0.591903	0.077867	0.900512
	H117	H	0.362745	0.081161	0.085055
	H118	H	0.586930	0.901929	0.079385
	H119	H	0.365618	0.890552	0.908619
	C120	C	0.356356	-0.005195	0.613116
	C121	C	0.599316	0.977456	0.612580
	C122	C	0.599627	-0.006463	0.369888
	C123	C	0.357441	0.976658	0.370248
	C124	C	0.599479	0.362803	0.000143
	C125	C	0.597279	0.604736	0.983736
	C126	C	0.356291	0.606401	0.000077
	C127	C	0.356282	0.362837	0.982368
	C128	C	-0.013024	0.608319	0.369687
	C129	C	0.969498	0.607017	0.611398
	C130	C	-0.012863	0.364645	0.612509
	C131	C	0.970083	0.365613	0.370917
	C132	C	0.856815	0.493891	0.112299
	C133	C	0.100106	0.476692	0.113499
	C134	C	0.099144	0.494307	0.869912
	C135	C	0.856819	0.477397	0.870575
	C136	C	0.099564	0.864761	0.499693
	C137	C	0.099486	0.107200	0.482012
	C138	C	0.857251	0.107457	0.499934
	C139	C	0.858091	0.866258	0.482400
	C140	C	0.487111	0.106617	0.870363
	C141	C	0.469095	0.106528	0.112981
	C142	C	0.485850	0.864659	0.111026
	C143	C	0.469312	0.863550	0.869841
	C144	C	0.353143	0.879420	0.674457
	C145	C	0.602678	0.093298	0.673821
	C146	C	0.606131	0.879288	0.306989
	C147	C	0.354471	0.092302	0.309146
	C148	C	0.660274	0.360245	0.883518
	C149	C	0.662133	0.611510	0.097670
	C150	C	0.295053	0.609942	0.884211
	C151	C	0.299925	0.364983	0.101519
	C152	C	0.871213	0.670859	0.364192
	C153	C	0.085106	0.668658	0.616098
	C154	C	0.871341	0.303056	0.616907
	C155	C	0.086698	0.305536	0.367303
	C156	C	0.870891	0.360916	0.674171
	C157	C	0.085250	0.610544	0.673149
	C158	C	0.870958	0.612398	0.307630
	C159	C	0.086761	0.364187	0.310796
	C160	C	0.351035	0.669041	0.885376
	C161	C	0.605353	0.669887	0.097381
	C162	C	0.601852	0.303674	0.882748
	C163	C	0.357451	0.307184	0.101455
	C164	C	0.663848	0.879618	0.364443
	C165	C	0.660558	0.093058	0.616073
	C166	C	0.295461	0.879215	0.616602
	C167	C	0.296704	0.092761	0.366902
	C168	C	0.853920	0.378503	0.174014
	C169	C	0.099114	0.594622	0.170330
	C170	C	0.100563	0.377373	0.810575
	C171	C	0.850857	0.591741	0.807640
	C172	C	0.160776	0.862046	0.383279
	C173	C	0.159407	0.109055	0.599127
	C174	C	0.795988	0.110844	0.383560
	C175	C	0.797624	0.863898	0.599596
	C176	C	0.368915	0.164471	0.869533
	C177	C	0.586680	0.165202	0.114570
	C178	C	0.369714	0.803483	0.115320
	C179	C	0.584261	0.799647	0.863845
	C180	C	0.370246	0.860452	0.173365
	C181	C	0.587308	0.106480	0.171013
	C182	C	0.368823	0.106679	0.812379
	C183	C	0.585242	0.858515	0.807625
	C184	C	0.853256	0.168767	0.383733
	C185	C	0.102533	0.167432	0.599012
	C186	C	0.103772	0.804016	0.383361
	C187	C	0.854791	0.805923	0.599198
	C188	C	0.157640	0.376776	0.868895
	C189	C	0.157374	0.594322	0.112824
	C190	C	0.796514	0.378007	0.116066
	C191	C	0.793084	0.591635	0.865415
	C192	C	0.381741	0.075861	0.587698
	C193	C	0.573686	0.896728	0.586778
	C194	C	0.572522	0.073851	0.395974
	C195	C	0.383049	0.895909	0.395974
	C196	C	0.574029	0.387505	0.081717
	C197	C	0.568926	0.576734	0.904063
	C198	C	0.382263	0.580497	0.080952
	C199	C	0.379445	0.385713	0.899528
	C200	C	0.067829	0.582539	0.395859
	C201	C	0.888593	0.581123	0.584840
	C202	C	0.068082	0.390282	0.586588
	C203	C	0.888077	0.390229	0.396454
	C204	C	0.882796	0.574224	0.085752
	C205	C	0.076696	0.394366	0.090173
	C206	C	0.074299	0.575513	0.894858
	C207	C	0.884369	0.397506	0.897504
	C208	C	0.073187	0.890315	0.580958
	C209	C	0.074243	0.082575	0.400458
	C210	C	0.883356	0.081529	0.580940
	C211	C	0.884623	0.892050	0.401596
	C212	C	0.569353	0.082493	0.894439
	C213	C	0.386948	0.082815	0.088521
	C214	C	0.566227	0.890989	0.083990
	C215	C	0.389246	0.890987	0.897196
	Zn216	Zn	0.478596	-0.014457	0.742222
	Zn217	Zn	0.478818	-0.015592	0.240940
	Zn218	Zn	0.727188	0.484707	-0.008631
	Zn219	Zn	0.228076	0.484894	-0.008963
	Zn220	Zn	-0.021938	0.736462	0.490658
	Zn221	Zn	-0.021345	0.235950	0.490900
	Zn222	Zn	-0.022539	0.486122	0.740778
	Zn223	Zn	-0.022621	0.486248	0.241528
	Zn224	Zn	0.477653	0.735078	-0.008656
	Zn225	Zn	0.478089	0.234775	-0.008600
	Zn226	Zn	0.728489	-0.013672	0.490635
	Zn227	Zn	0.227876	-0.013837	0.491249
	N228	N	0.390427	0.952492	0.672478
	N229	N	0.565354	0.020214	0.671895
	N230	N	0.566664	0.951220	0.310164
	N231	N	0.391350	0.018951	0.310882
	N232	N	0.659124	0.396147	0.957632
	N233	N	0.657075	0.571252	0.026018
	N234	N	0.298304	0.571368	0.956669
	N235	N	0.298757	0.398848	0.026279
	N236	N	0.944515	0.668662	0.402056
	N237	N	0.011986	0.666702	0.578277
	N238	N	0.944505	0.305167	0.579150
	N239	N	0.012841	0.306303	0.404048
	N240	N	0.944057	0.398591	0.671751
	N241	N	0.012139	0.572897	0.670544
	N242	N	0.943926	0.574194	0.310733
	N243	N	0.012997	0.400920	0.312792
	N244	N	0.388464	0.667078	0.958473
	N245	N	0.565441	0.665683	0.025460
	N246	N	0.564595	0.304895	0.956365
	N247	N	0.391577	0.305513	0.026262
	N248	N	0.659872	0.951731	0.403084
	N249	N	0.658812	0.019909	0.578722
	N250	N	0.297327	0.952170	0.579077
	N251	N	0.298145	0.019522	0.404226
	N252	N	0.890869	0.451514	0.171682
	N253	N	0.064445	0.520307	0.170981
	N254	N	0.065201	0.451583	0.810621
	N255	N	0.890082	0.519617	0.810825
	N256	N	0.158389	0.899166	0.456841
	N257	N	0.157738	0.072503	0.525372
	N258	N	0.798087	0.073656	0.457053
	N259	N	0.799198	0.900427	0.525787
	N260	N	0.443710	0.165061	0.904535
	N261	N	0.512070	0.165538	0.079137
	N262	N	0.442785	0.805780	0.077336
	N263	N	0.511002	0.802627	0.901929
	N264	N	0.443586	0.897850	0.170979
	N265	N	0.512889	0.071029	0.170632
	N266	N	0.443494	0.071534	0.812440
	N267	N	0.512591	0.897664	0.810976
	N268	N	0.890477	0.167007	0.457305
	N269	N	0.065941	0.166593	0.525083
	N270	N	0.066363	0.805377	0.456977
	N271	N	0.891543	0.806787	0.525244
	N272	N	0.157366	0.450651	0.904804
	N273	N	0.158221	0.519776	0.078148
	N274	N	0.797992	0.450884	0.078346
	N275	N	0.796588	0.519297	0.903805
	O276	O	-0.003581	0.962811	-0.013447
	H277	H	-0.009203	0.954969	-0.020527
	H278	H	0.012634	0.959655	-0.004258
	O279	O	0.313611	0.657184	0.334633
	H280	H	0.322155	0.647667	0.344202
	H281	H	0.299434	0.673221	0.316919
	O282	O	1.050182	0.077554	0.985145
	H283	H	1.057747	0.049063	0.990903
	H284	H	1.050720	0.090430	1.002208
	O285	O	0.253092	0.450373	0.602354
	H286	H	0.244166	0.432269	0.606651
	H287	H	0.243144	0.435823	0.611802
	O288	O	0.506028	0.665892	0.297153
	H289	H	0.497448	0.684055	0.291994
	H290	H	0.506443	0.666714	0.299697
	O291	O	0.482398	0.702752	0.715540
	H292	H	0.496814	0.711023	0.730655
	H293	H	0.492090	0.699290	0.720017
	O294	O	1.001596	-0.234247	0.779086
	H295	H	1.020194	-0.254756	0.754048
	H296	H	1.031539	-0.224753	0.783685
	O297	O	0.772235	0.821349	-0.008076
	H298	H	0.771393	0.807074	-0.011189
	H299	H	0.776027	0.817336	-0.029846
	O300	O	-0.125158	-0.167252	1.003427
	H301	H	-0.120921	-0.162163	0.990532
	H302	H	-0.122571	-0.180822	1.005694
	O303	O	0.466175	0.252028	0.540794
	H304	H	0.470118	0.252158	0.544043
	H305	H	0.458605	0.260625	0.544329
	O306	O	0.639784	0.285098	0.651185
	H307	H	0.634897	0.297825	0.642814
	H308	H	0.633397	0.286396	0.644425
	O309	O	0.269052	0.272871	0.521037
	H310	H	0.254577	0.269006	0.534734
	H311	H	0.259757	0.263032	0.551463
	O312	O	0.690501	0.405476	0.530970
	H313	H	0.693961	0.416749	0.523142
	H314	H	0.684523	0.402648	0.531499
	O315	O	0.820071	0.951140	0.956561
	H316	H	0.821391	0.948304	0.936596
	H317	H	0.817362	0.930718	0.971615
	O318	O	0.508554	0.263904	0.274805
	H319	H	0.500280	0.261515	0.280118
	H320	H	0.501965	0.254896	0.257968
	O321	O	0.192313	0.949504	0.772391
	H322	H	0.201417	0.940588	0.760862
	H323	H	0.193260	0.946817	0.764596
	O324	O	0.868946	0.947800	0.151271
	H325	H	0.868935	0.956726	0.144218
	H326	H	0.872847	0.947734	0.158908
	O327	O	0.171023	0.178357	0.799050
	H328	H	0.156764	0.164586	0.826706
	H329	H	0.141933	0.161071	0.806545
	O330	O	0.707874	0.531613	0.451726
	H331	H	0.700379	0.518977	0.434344
	H332	H	0.710513	0.556774	0.451224
	O333	O	0.704182	0.710373	0.516833
	H334	H	0.717596	0.729468	0.511084
	H335	H	0.701744	0.708907	0.510392
	O336	O	0.697060	0.261765	0.467547
	H337	H	0.709063	0.263367	0.467689
	H338	H	0.711346	0.254407	0.466651
	O339	O	1.197416	0.013189	1.210923
	H340	H	1.214243	0.032847	1.228927
	H341	H	1.195171	0.033322	1.215842
	O342	O	0.550809	0.425105	-0.633522
	H343	H	0.549226	0.433751	-0.644569
	H344	H	0.550456	0.428380	-0.634714
	O345	O	0.089556	0.928772	1.166273
	H346	H	0.088925	0.925748	1.166858
	H347	H	0.089968	0.945258	1.178647
	O348	O	0.286336	0.292201	0.300565
	H349	H	0.291454	0.306158	0.318146
	H350	H	0.310872	0.309813	0.310650
	O351	O	0.821879	1.152663	0.184183
	H352	H	0.823746	1.144292	0.166044
	H353	H	0.804276	1.157500	0.189154
	O354	O	-0.147860	-0.117603	1.075474
	H355	H	-0.148193	-0.109763	1.058935
	H356	H	-0.145998	-0.113692	1.081851
	O357	O	0.770153	0.132567	0.787808
	H358	H	0.758356	0.142721	0.769536
	H359	H	0.803730	0.117778	0.781087
	O360	O	0.517563	0.600651	0.686044
	H361	H	0.523684	0.586256	0.684294
	H362	H	0.506311	0.587037	0.659903
	O363	O	-0.286881	0.248933	0.257172
	H364	H	-0.296120	0.241990	0.257326
	H365	H	-0.296982	0.259878	0.258299
	O366	O	0.550026	0.628075	0.568648
	H367	H	0.527837	0.627920	0.554498
	H368	H	0.536493	0.628416	0.571874
	O369	O	0.485848	0.454934	0.388189
	H370	H	0.493337	0.459416	0.377047
	H371	H	0.479928	0.455900	0.387969
	O372	O	1.191972	0.771784	-0.046670
	H373	H	1.182853	0.772355	-0.043494
	H374	H	1.202581	0.756390	-0.040862
	O375	O	1.190284	0.189259	0.197787
	H376	H	1.214911	0.211808	0.226490
	H377	H	1.150778	0.195356	0.189998
	O378	O	0.691393	0.505484	0.704639
	H379	H	0.705789	0.497140	0.706577
	H380	H	0.690483	0.507527	0.702653
	O381	O	0.182714	0.778243	0.782724
	H382	H	0.217739	0.746938	0.752293
	H383	H	0.188737	0.796293	0.812012
	O384	O	0.751508	-0.014404	0.822841
	H385	H	0.758975	0.001564	0.823303
	H386	H	0.728791	-0.019526	0.794825
	O387	O	1.432767	0.299547	0.659012
	H388	H	1.440966	0.274766	0.671713
	H389	H	1.447761	0.304390	0.651094
	O390	O	0.260563	0.598773	0.512503
	H391	H	0.246307	0.589940	0.513375
	H392	H	0.261814	0.601574	0.501492
	O393	O	0.454019	0.479500	0.389993
	H394	H	0.452583	0.488982	0.387532
	H395	H	0.449988	0.488427	0.392553
	O396	O	0.270162	1.276208	0.698677
	H397	H	0.320172	1.270417	0.706306
	H398	H	0.240923	1.242551	0.732094
	O399	O	-0.038477	-0.230024	1.196683
	H400	H	-0.038119	-0.228857	1.210335
	H401	H	-0.039131	-0.229938	1.206057
	O402	O	0.396004	0.477218	0.437111
	H403	H	0.395417	0.473751	0.446789
	H404	H	0.407725	0.469502	0.431641
	O405	O	0.755455	0.200700	0.960796
	H406	H	0.756449	0.205711	0.932747
	H407	H	0.737739	0.219911	0.935368
	O408	O	-0.124365	0.160751	0.059380
	H409	H	-0.129941	0.163230	0.047652
	H410	H	-0.141691	0.155041	0.051596
	O411	O	0.917063	0.954179	0.771599
	H412	H	0.908443	0.948211	0.779771
	H413	H	0.910388	0.935224	0.774141
	O414	O	1.047613	0.052791	0.777072
	H415	H	1.030839	0.038045	0.787232
	H416	H	1.039596	0.037571	0.773707
	O417	O	0.700300	0.461469	0.273920
	H418	H	0.703822	0.446524	0.268137
	H419	H	0.709559	0.454804	0.261232
	O420	O	0.313883	0.710714	0.452051
	H421	H	0.291497	0.730693	0.441009
	H422	H	0.318358	0.705888	0.436429
	O423	O	0.164620	-0.107230	1.112621
	H424	H	0.165925	-0.091387	1.106657
	H425	H	0.163410	-0.097596	1.116391
	O426	O	0.449108	0.375152	0.554933
	H427	H	0.454984	0.379632	0.559572
	H428	H	0.456366	0.368656	0.545134
	O429	O	1.027798	0.894143	0.961164
	H430	H	1.022939	0.884931	0.957847
	H431	H	1.045072	0.894383	0.965101
	O432	O	0.287006	0.681541	0.686118
	H433	H	0.313237	0.668000	0.674117
	H434	H	0.298536	0.658405	0.665509
	O435	O	0.715842	0.717812	0.720977
	H436	H	0.683149	0.693827	0.710713
	H437	H	0.716232	0.707240	0.694097
	O438	O	0.204394	-0.238208	0.215948
	H439	H	0.182165	-0.239135	0.193032
	H440	H	0.198835	-0.229211	0.218343
	O441	O	-0.227843	0.106040	-0.047001
	H442	H	-0.212273	0.124533	-0.067891
	H443	H	-0.230313	0.079678	-0.058894
	O444	O	0.342726	0.496553	0.717445
	H445	H	0.312642	0.488942	0.722125
	H446	H	0.336215	0.491570	0.719781
	O447	O	-0.457566	1.404119	0.714744
	H448	H	-0.461601	1.418470	0.711111
	H449	H	-0.470546	1.406816	0.716596
	O450	O	0.037641	0.783156	1.016785
	H451	H	0.025923	0.791802	1.013118
	H452	H	0.024797	0.788486	1.019556
	O453	O	0.563032	0.470930	0.455772
	H454	H	0.540146	0.471804	0.451916
	H455	H	0.569815	0.466912	0.448164
	O456	O	0.346077	-0.549911	0.362294
	H457	H	0.343892	-0.542160	0.368681
	H458	H	0.365728	-0.549869	0.359383
	O459	O	0.998160	1.080571	0.007508
	H460	H	1.004485	1.081769	0.007693
	H461	H	0.997871	1.078927	0.016390
	O462	O	0.666701	0.658710	0.330911
	H463	H	0.649053	0.653856	0.341380
	H464	H	0.682413	0.676720	0.309347
	O465	O	0.924569	0.028269	0.199693
	H466	H	0.924520	0.030688	0.196061
	H467	H	0.921893	0.032837	0.195432
	O468	O	0.260736	0.518820	0.277463
	H469	H	0.253257	0.520096	0.279498
	H470	H	0.252705	0.515627	0.270041
	O471	O	0.814698	0.819760	0.805174
	H472	H	0.802158	0.796500	0.787033
	H473	H	0.824346	0.811376	0.801375
	O474	O	0.418021	0.722788	0.546124
	H475	H	0.403320	0.719239	0.556382
	H476	H	0.416021	0.726535	0.544153
	O477	O	0.771690	0.778980	1.197856
	H478	H	0.780422	0.771717	1.169072
	H479	H	0.785068	0.810041	1.199246
	O480	O	0.396324	0.308459	0.478224
	H481	H	0.403256	0.298030	0.477538
	H482	H	0.384140	0.312086	0.485175
	O483	O	0.474913	0.619997	0.386894
	H484	H	0.484025	0.634477	0.384607
	H485	H	0.469507	0.626813	0.386919
	O486	O	1.196051	0.015680	0.941581
	H487	H	1.192304	0.036160	0.941021
	H488	H	1.204146	-0.004774	0.939664
	O489	O	1.203866	1.208736	0.025969
	H490	H	1.205756	1.221165	0.034442
	H491	H	1.217991	1.218066	0.050131
	O492	O	0.033998	0.169416	0.190677
	H493	H	0.020740	0.179298	0.192602
	H494	H	0.012113	0.177574	0.184734
	O495	O	-0.040640	1.211398	0.979940
	H496	H	-0.052276	1.201183	0.985937
	H497	H	-0.030171	1.210634	0.990795
	O498	O	0.941684	1.200001	0.775302
	H499	H	0.947848	1.199631	0.780823
	H500	H	0.953238	1.201896	0.761913
	O501	O	0.497733	0.582836	0.421191
	H502	H	0.494242	0.590413	0.406262
	H503	H	0.489435	0.582288	0.426864
