data_Molecule from HDF5

_cell_length_a		16.299829
_cell_length_b		16.339103
_cell_length_c		16.324592
_cell_angle_alpha	90.076563
_cell_angle_beta	89.965044
_cell_angle_gamma	89.982544
_symmetry_space_group_name_H-M	'P 1'
_symmetry_Int_Tables_number		1

loop_
	_symmetry_equiv_pos_as_xyz
	x,y,z

loop_
	_atom_site_label
	_atom_site_type_symbol
	_atom_site_fract_x
	_atom_site_fract_y
	_atom_site_fract_z
	H0	H	0.403854	0.831738	0.709762
	H1	H	0.599945	0.158822	0.709611
	H2	H	0.600850	0.832179	0.280899
	H3	H	0.404243	0.158527	0.280912
	H4	H	0.717567	0.396847	0.831398
	H5	H	0.716303	0.593078	0.158952
	H6	H	0.288239	0.593899	0.831142
	H7	H	0.287216	0.397772	0.158145
	H8	H	0.838992	0.710817	0.397213
	H9	H	0.166097	0.710995	0.593352
	H10	H	0.838848	0.281537	0.593917
	H11	H	0.166262	0.282273	0.396457
	H12	H	0.838172	0.398771	0.708551
	H13	H	0.165854	0.594695	0.709349
	H14	H	0.838750	0.595779	0.280191
	H15	H	0.166330	0.398606	0.280674
	H16	H	0.405249	0.710368	0.831572
	H17	H	0.600837	0.710529	0.158297
	H18	H	0.601240	0.280257	0.831559
	H19	H	0.404175	0.281603	0.158477
	H20	H	0.716624	0.832261	0.397441
	H21	H	0.716639	0.158675	0.593549
	H22	H	0.286382	0.832934	0.593878
	H23	H	0.290020	0.159681	0.399511
	H24	H	0.902839	0.332898	0.210785
	H25	H	0.101262	0.659365	0.209517
	H26	H	0.102093	0.332076	0.778786
	H27	H	0.905926	0.659930	0.782580
	H28	H	0.217317	0.898782	0.332047
	H29	H	0.215413	0.093475	0.659489
	H30	H	0.788220	0.093792	0.331964
	H31	H	0.788063	0.898537	0.658890
	H32	H	0.339169	0.209896	0.896843
	H33	H	0.665732	0.210447	0.093792
	H34	H	0.339262	0.780684	0.094385
	H35	H	0.666108	0.780898	0.896453
	H36	H	0.339486	0.896434	0.210554
	H37	H	0.666643	0.093617	0.208655
	H38	H	0.339352	0.094593	0.780831
	H39	H	0.665954	0.896643	0.780046
	H40	H	0.905359	0.209450	0.331567
	H41	H	0.100431	0.210753	0.658812
	H42	H	0.101539	0.781425	0.331375
	H43	H	0.903879	0.781173	0.658373
	H44	H	0.217728	0.332287	0.895708
	H45	H	0.216685	0.659192	0.091302
	H46	H	0.788021	0.332131	0.092724
	H47	H	0.789169	0.659329	0.898132
	H48	H	0.417123	0.107073	0.584513
	H49	H	0.601789	0.877529	0.588428
	H50	H	0.590545	0.111520	0.396683
	H51	H	0.412217	0.880981	0.404757
	H52	H	0.599105	0.402892	0.112061
	H53	H	0.599561	0.582728	0.880047
	H54	H	0.406793	0.585531	0.110361
	H55	H	0.414584	0.398439	0.879129
	H56	H	0.119338	0.591600	0.400925
	H57	H	0.885865	0.585787	0.595654
	H58	H	0.124015	0.390290	0.593478
	H59	H	0.888477	0.405856	0.405847
	H60	H	0.113150	0.403609	0.573464
	H61	H	0.883330	0.598062	0.588522
	H62	H	0.118152	0.589494	0.404113
	H63	H	0.885129	0.404251	0.397129
	H64	H	0.412936	0.589574	0.109660
	H65	H	0.588979	0.591070	0.880398
	H66	H	0.593652	0.406352	0.108698
	H67	H	0.405155	0.399853	0.877466
	H68	H	0.593877	0.109352	0.408554
	H69	H	0.591612	0.878980	0.593931
	H70	H	0.399219	0.113128	0.586111
	H71	H	0.407046	0.879622	0.403900
	H72	H	0.913048	0.610436	0.089498
	H73	H	0.096378	0.375864	0.100875
	H74	H	0.098885	0.612820	0.899818
	H75	H	0.911058	0.381713	0.905610
	H76	H	0.086245	0.911899	0.605401
	H77	H	0.096018	0.091954	0.378405
	H78	H	0.912872	0.091178	0.611003
	H79	H	0.902689	0.904477	0.377985
	H80	H	0.619651	0.083843	0.894922
	H81	H	0.387551	0.081787	0.092680
	H82	H	0.614797	0.909199	0.081563
	H83	H	0.385191	0.898982	0.899131
	H84	H	0.620363	0.905564	0.096626
	H85	H	0.383319	0.094826	0.092059
	H86	H	0.621584	0.096752	0.901281
	H87	H	0.388067	0.901524	0.908735
	H88	H	0.905926	0.092297	0.612877
	H89	H	0.099271	0.089656	0.378375
	H90	H	0.090141	0.891771	0.612529
	H91	H	0.914772	0.908439	0.382332
	H92	H	0.089953	0.610066	0.899128
	H93	H	0.082877	0.384813	0.083717
	H94	H	0.909256	0.611138	0.085057
	H95	H	0.905037	0.378098	0.899759
	H96	H	0.410643	0.114230	0.600462
	H97	H	0.592769	0.882139	0.582411
	H98	H	0.602021	0.113736	0.400470
	H99	H	0.410448	0.879091	0.399318
	H100	H	0.592782	0.399419	0.110180
	H101	H	0.601035	0.595023	0.875447
	H102	H	0.407127	0.592824	0.112837
	H103	H	0.410570	0.406613	0.880329
	H104	H	0.118386	0.587320	0.400240
	H105	H	0.889227	0.586395	0.581483
	H106	H	0.117509	0.415656	0.596139
	H107	H	0.884931	0.397452	0.403906
	H108	H	0.907147	0.612070	0.090574
	H109	H	0.105096	0.379817	0.080036
	H110	H	0.094298	0.608866	0.907300
	H111	H	0.913440	0.379880	0.897596
	H112	H	0.106238	0.906741	0.613012
	H113	H	0.095885	0.088716	0.380155
	H114	H	0.908332	0.085972	0.610116
	H115	H	0.912648	0.896009	0.378344
	H116	H	0.616223	0.085631	0.909000
	H117	H	0.388290	0.088879	0.080908
	H118	H	0.620313	0.893980	0.085238
	H119	H	0.387787	0.908704	0.900840
	C120	C	0.380103	0.003810	0.618027
	C121	C	0.623417	0.987498	0.616439
	C122	C	0.624265	0.003718	0.373431
	C123	C	0.381440	0.987725	0.374315
	C124	C	0.624087	0.373960	0.002540
	C125	C	0.624384	0.617374	0.987046
	C126	C	0.380555	0.617594	0.003232
	C127	C	0.381312	0.373738	0.986807
	C128	C	0.010476	0.617940	0.373470
	C129	C	0.994339	0.617929	0.616605
	C130	C	0.010132	0.375023	0.616217
	C131	C	0.994584	0.374731	0.373797
	C132	C	0.880918	0.503709	0.116708
	C133	C	0.123706	0.488070	0.116507
	C134	C	0.123536	0.502881	0.873087
	C135	C	0.881416	0.487748	0.873365
	C136	C	0.123710	0.874702	0.502984
	C137	C	0.124810	0.117971	0.487336
	C138	C	0.880859	0.117566	0.503410
	C139	C	0.881163	0.874456	0.487262
	C140	C	0.510768	0.116807	0.873879
	C141	C	0.494535	0.117095	0.117072
	C142	C	0.510739	0.874215	0.116616
	C143	C	0.494635	0.874097	0.873864
	C144	C	0.383169	0.880613	0.671982
	C145	C	0.620528	0.110253	0.671578
	C146	C	0.621440	0.880935	0.318622
	C147	C	0.383696	0.110075	0.318919
	C148	C	0.679369	0.376444	0.879964
	C149	C	0.678953	0.614097	0.110080
	C150	C	0.326038	0.614767	0.879830
	C151	C	0.325909	0.377175	0.109562
	C152	C	0.887571	0.672806	0.376351
	C153	C	0.117252	0.673073	0.613852
	C154	C	0.887440	0.319270	0.614346
	C155	C	0.117549	0.320199	0.376302
	C156	C	0.887007	0.377784	0.671100
	C157	C	0.117154	0.615071	0.671344
	C158	C	0.887596	0.615711	0.318270
	C159	C	0.117535	0.378196	0.318904
	C160	C	0.383834	0.672735	0.880187
	C161	C	0.621316	0.672171	0.110020
	C162	C	0.621647	0.318340	0.880146
	C163	C	0.383352	0.318853	0.109567
	C164	C	0.679137	0.880988	0.376458
	C165	C	0.678527	0.110198	0.614099
	C166	C	0.325019	0.881002	0.614485
	C167	C	0.327392	0.110818	0.378062
	C168	C	0.882740	0.381325	0.172188
	C169	C	0.121658	0.610588	0.171442
	C170	C	0.121780	0.380620	0.817425
	C171	C	0.884000	0.610745	0.818911
	C172	C	0.179307	0.877442	0.380402
	C173	C	0.178651	0.114591	0.610435
	C174	C	0.826041	0.114824	0.380752
	C175	C	0.826127	0.877605	0.610211
	C176	C	0.388016	0.171955	0.876550
	C177	C	0.617146	0.172324	0.114097
	C178	C	0.387895	0.819031	0.114201
	C179	C	0.617488	0.818600	0.875845
	C180	C	0.388142	0.876170	0.172382
	C181	C	0.617506	0.114395	0.171479
	C182	C	0.388119	0.114455	0.818943
	C183	C	0.617445	0.876255	0.818244
	C184	C	0.884410	0.171923	0.380419
	C185	C	0.121310	0.172812	0.610212
	C186	C	0.121916	0.819383	0.380176
	C187	C	0.883621	0.819501	0.609905
	C188	C	0.179544	0.380738	0.875192
	C189	C	0.179123	0.610488	0.112864
	C190	C	0.825497	0.380947	0.114006
	C191	C	0.826580	0.610663	0.876751
	C192	C	0.402337	0.089404	0.596645
	C193	C	0.601820	0.901770	0.594427
	C194	C	0.601943	0.089441	0.395443
	C195	C	0.403534	0.902049	0.396167
	C196	C	0.601596	0.396351	0.088298
	C197	C	0.602894	0.595954	0.900953
	C198	C	0.402402	0.595772	0.088741
	C199	C	0.403377	0.395417	0.900973
	C200	C	0.096493	0.595839	0.395237
	C201	C	0.908414	0.596366	0.595007
	C202	C	0.095869	0.396841	0.594197
	C203	C	0.908532	0.396199	0.395765
	C204	C	0.903034	0.589068	0.094617
	C205	C	0.101437	0.402199	0.094700
	C206	C	0.101001	0.588481	0.895652
	C207	C	0.903277	0.402125	0.894845
	C208	C	0.100943	0.896952	0.588167
	C209	C	0.103547	0.096282	0.401260
	C210	C	0.902562	0.096099	0.589408
	C211	C	0.903564	0.896512	0.401594
	C212	C	0.596945	0.095110	0.895366
	C213	C	0.408573	0.095047	0.095059
	C214	C	0.596457	0.896380	0.094576
	C215	C	0.409155	0.896370	0.896386
	Zn216	Zn	0.502459	-0.004660	0.745930
	Zn217	Zn	0.502723	-0.004497	0.245224
	Zn218	Zn	0.752753	0.495466	-0.005142
	Zn219	Zn	0.252619	0.495441	-0.005613
	Zn220	Zn	0.002572	0.746056	0.494599
	Zn221	Zn	0.002315	0.245952	0.495244
	Zn222	Zn	0.002232	0.496020	0.744758
	Zn223	Zn	0.001919	0.496197	0.245534
	Zn224	Zn	0.502590	0.745772	-0.004698
	Zn225	Zn	0.502255	0.245208	-0.004794
	Zn226	Zn	0.752579	-0.003947	0.495499
	Zn227	Zn	0.252429	-0.004037	0.495688
	N228	N	0.416628	0.957993	0.674497
	N229	N	0.587008	0.032985	0.673276
	N230	N	0.588110	0.958196	0.316889
	N231	N	0.416788	0.032656	0.316765
	N232	N	0.680977	0.410256	0.957145
	N233	N	0.680904	0.580808	0.032589
	N234	N	0.323842	0.581335	0.957097
	N235	N	0.324363	0.410324	0.032113
	N236	N	0.964914	0.674321	0.409838
	N237	N	0.039828	0.674805	0.580408
	N238	N	0.964913	0.317390	0.580985
	N239	N	0.040051	0.317900	0.409832
	N240	N	0.964240	0.411758	0.672201
	N241	N	0.039884	0.581583	0.673201
	N242	N	0.965108	0.582238	0.316600
	N243	N	0.039974	0.411276	0.317315
	N244	N	0.417110	0.674481	0.957711
	N245	N	0.588172	0.674235	0.032571
	N246	N	0.588004	0.316713	0.957641
	N247	N	0.417030	0.316727	0.032314
	N248	N	0.681023	0.958408	0.409864
	N249	N	0.680403	0.032928	0.580631
	N250	N	0.323074	0.958524	0.581836
	N251	N	0.325577	0.033631	0.411643
	N252	N	0.916450	0.458527	0.174123
	N253	N	0.087957	0.533436	0.173554
	N254	N	0.087694	0.457581	0.816168
	N255	N	0.917726	0.533549	0.817122
	N256	N	0.180621	0.910955	0.457562
	N257	N	0.180628	0.081106	0.533059
	N258	N	0.823960	0.081738	0.458101
	N259	N	0.824609	0.911161	0.532958
	N260	N	0.465325	0.173326	0.910187
	N261	N	0.539573	0.174014	0.080970
	N262	N	0.465165	0.817429	0.080547
	N263	N	0.540191	0.817243	0.909748
	N264	N	0.465489	0.910101	0.173576
	N265	N	0.540267	0.080636	0.173162
	N266	N	0.465606	0.080903	0.817249
	N267	N	0.540129	0.909911	0.816750
	N268	N	0.917864	0.173660	0.457848
	N269	N	0.088498	0.175081	0.532595
	N270	N	0.088007	0.817489	0.457453
	N271	N	0.917070	0.817645	0.532598
	N272	N	0.180676	0.457854	0.909249
	N273	N	0.180389	0.533134	0.079401
	N274	N	0.824335	0.458094	0.080196
	N275	N	0.824650	0.533219	0.909771
	O276	O	1.022066	-0.085327	0.991605
	H277	H	1.017571	-0.091691	0.990150
	H278	H	1.025504	-0.086030	0.981724
	O279	O	0.035183	0.915186	0.976498
	H280	H	0.040577	0.918966	0.976932
	H281	H	0.035624	0.928905	0.985062
	O282	O	1.045338	0.873464	-0.040825
	H283	H	1.048947	0.871278	-0.033610
	H284	H	1.035992	0.866192	-0.038848
	O285	O	0.028912	0.882026	0.951599
	H286	H	0.025238	0.870382	0.948070
	H287	H	0.040146	0.875608	0.943460
