data_Molecule from HDF5

_cell_length_a		16.364014
_cell_length_b		16.417420
_cell_length_c		16.176572
_cell_angle_alpha	89.875899
_cell_angle_beta	89.923112
_cell_angle_gamma	90.116171
_symmetry_space_group_name_H-M	'P 1'
_symmetry_Int_Tables_number		1

loop_
	_symmetry_equiv_pos_as_xyz
	x,y,z

loop_
	_atom_site_label
	_atom_site_type_symbol
	_atom_site_fract_x
	_atom_site_fract_y
	_atom_site_fract_z
	H0	H	0.409293	0.839078	0.726788
	H1	H	0.605366	0.164050	0.722986
	H2	H	0.606303	0.838777	0.295230
	H3	H	0.406192	0.162210	0.292949
	H4	H	0.726689	0.400383	0.848769
	H5	H	0.725704	0.600936	0.174384
	H6	H	0.293297	0.600961	0.847097
	H7	H	0.293232	0.399169	0.174707
	H8	H	0.845291	0.714505	0.410516
	H9	H	0.168307	0.718208	0.614177
	H10	H	0.845818	0.280230	0.614675
	H11	H	0.167206	0.277878	0.405000
	H12	H	0.846213	0.399572	0.728680
	H13	H	0.171827	0.595328	0.723243
	H14	H	0.845723	0.597074	0.294735
	H15	H	0.170301	0.398670	0.294854
	H16	H	0.408548	0.716521	0.846517
	H17	H	0.611481	0.718360	0.172636
	H18	H	0.611870	0.284709	0.847662
	H19	H	0.407753	0.282855	0.173843
	H20	H	0.724118	0.838972	0.409946
	H21	H	0.726329	0.161397	0.612206
	H22	H	0.289941	0.839188	0.612687
	H23	H	0.286274	0.160402	0.405395
	H24	H	0.908408	0.337607	0.227316
	H25	H	0.109102	0.660232	0.227995
	H26	H	0.108981	0.337308	0.793687
	H27	H	0.910887	0.660505	0.794152
	H28	H	0.222785	0.898915	0.346984
	H29	H	0.223326	0.099860	0.673302
	H30	H	0.791956	0.098759	0.347061
	H31	H	0.789690	0.897494	0.674480
	H32	H	0.348335	0.219800	0.907978
	H33	H	0.669229	0.219655	0.114584
	H34	H	0.347139	0.782137	0.110936
	H35	H	0.670255	0.783693	0.907041
	H36	H	0.345196	0.901291	0.225372
	H37	H	0.670526	0.099428	0.225974
	H38	H	0.345686	0.099790	0.796872
	H39	H	0.671106	0.903372	0.794365
	H40	H	0.901340	0.218439	0.348692
	H41	H	0.108057	0.215577	0.673221
	H42	H	0.106395	0.783739	0.347548
	H43	H	0.904967	0.782039	0.674758
	H44	H	0.228444	0.338535	0.907863
	H45	H	0.226753	0.660973	0.112407
	H46	H	0.787769	0.340610	0.118055
	H47	H	0.792881	0.660545	0.909008
	H48	H	0.408230	0.115839	0.596823
	H49	H	0.599267	0.884460	0.606043
	H50	H	0.596968	0.113826	0.422922
	H51	H	0.413847	0.886258	0.419384
	H52	H	0.593973	0.417588	0.122525
	H53	H	0.602859	0.597892	0.892295
	H54	H	0.414282	0.586660	0.126931
	H55	H	0.417147	0.415587	0.896408
	H56	H	0.121491	0.590094	0.423144
	H57	H	0.892719	0.590908	0.602619
	H58	H	0.119897	0.408541	0.593295
	H59	H	0.892588	0.404277	0.421030
	H60	H	0.121953	0.410139	0.605158
	H61	H	0.892415	0.590881	0.602765
	H62	H	0.123780	0.590880	0.417165
	H63	H	0.894729	0.408084	0.422727
	H64	H	0.424774	0.590215	0.124008
	H65	H	0.607476	0.589836	0.893274
	H66	H	0.593607	0.400867	0.128482
	H67	H	0.424754	0.409171	0.896620
	H68	H	0.606296	0.116611	0.420490
	H69	H	0.595386	0.888088	0.600756
	H70	H	0.411748	0.118284	0.608352
	H71	H	0.416020	0.886572	0.419411
	H72	H	0.918345	0.616821	0.110615
	H73	H	0.107601	0.383702	0.100192
	H74	H	0.105358	0.613626	0.918862
	H75	H	0.917758	0.386837	0.927907
	H76	H	0.093480	0.909830	0.625493
	H77	H	0.096704	0.088346	0.394247
	H78	H	0.913001	0.087754	0.626889
	H79	H	0.911941	0.905535	0.393259
	H80	H	0.622636	0.087159	0.915104
	H81	H	0.394685	0.083298	0.104026
	H82	H	0.625279	0.910439	0.108348
	H83	H	0.390869	0.907985	0.908584
	H84	H	0.625127	0.901943	0.099930
	H85	H	0.390341	0.099282	0.105676
	H86	H	0.627539	0.100002	0.914513
	H87	H	0.392912	0.898441	0.926217
	H88	H	0.919665	0.087627	0.624615
	H89	H	0.096015	0.089340	0.395085
	H90	H	0.097490	0.903188	0.629007
	H91	H	0.915447	0.908805	0.395689
	H92	H	0.102135	0.614481	0.916161
	H93	H	0.101494	0.383537	0.107589
	H94	H	0.925069	0.610434	0.098198
	H95	H	0.910645	0.381846	0.918740
	H96	H	0.420047	0.113268	0.600137
	H97	H	0.603508	0.886298	0.599765
	H98	H	0.598919	0.116358	0.413505
	H99	H	0.414512	0.887095	0.421033
	H100	H	0.607890	0.410367	0.130087
	H101	H	0.597653	0.589243	0.895714
	H102	H	0.416614	0.597222	0.129248
	H103	H	0.415942	0.405454	0.892593
	H104	H	0.123032	0.596033	0.421087
	H105	H	0.892265	0.591037	0.602422
	H106	H	0.124465	0.399951	0.600384
	H107	H	0.892843	0.408719	0.417949
	H108	H	0.910866	0.614794	0.097497
	H109	H	0.098913	0.387305	0.098659
	H110	H	0.101002	0.612553	0.920079
	H111	H	0.923005	0.384868	0.917000
	H112	H	0.101417	0.910918	0.627809
	H113	H	0.097158	0.089838	0.394292
	H114	H	0.916762	0.093562	0.628668
	H115	H	0.916887	0.903979	0.393851
	H116	H	0.622033	0.095001	0.926952
	H117	H	0.396774	0.094361	0.090844
	H118	H	0.620012	0.912610	0.097161
	H119	H	0.397772	0.916796	0.924626
	C120	C	0.384605	0.008962	0.632291
	C121	C	0.629349	0.992746	0.631886
	C122	C	0.629415	0.008638	0.389299
	C123	C	0.384815	0.992626	0.388836
	C124	C	0.630313	0.379186	0.019746
	C125	C	0.631873	0.621999	1.002028
	C126	C	0.388879	0.621129	0.018586
	C127	C	0.388443	0.379182	1.002639
	C128	C	0.015847	0.620744	0.390260
	C129	C	0.999515	0.620433	0.632408
	C130	C	0.015745	0.376683	0.631685
	C131	C	0.999524	0.376648	0.388984
	C132	C	0.887622	0.507770	0.132834
	C133	C	0.131941	0.490888	0.132882
	C134	C	0.131855	0.507171	0.888303
	C135	C	0.888031	0.491101	0.890297
	C136	C	0.127491	0.878415	0.519272
	C137	C	0.127328	0.120038	0.501966
	C138	C	0.886116	0.120114	0.519131
	C139	C	0.884655	0.876884	0.502431
	C140	C	0.517311	0.123299	0.889138
	C141	C	0.500127	0.122314	0.131402
	C142	C	0.516603	0.878350	0.131913
	C143	C	0.500437	0.878767	0.888558
	C144	C	0.387475	0.887535	0.689103
	C145	C	0.626636	0.115059	0.686291
	C146	C	0.627130	0.887240	0.333159
	C147	C	0.386154	0.113902	0.331658
	C148	C	0.688108	0.380167	0.897467
	C149	C	0.687699	0.620794	0.125258
	C150	C	0.331884	0.620767	0.895874
	C151	C	0.331421	0.379376	0.125596
	C152	C	0.893782	0.676308	0.390584
	C153	C	0.120659	0.678189	0.632546
	C154	C	0.894202	0.319553	0.633216
	C155	C	0.119832	0.318037	0.387218
	C156	C	0.894275	0.378447	0.690075
	C157	C	0.122629	0.616916	0.686484
	C158	C	0.894070	0.617817	0.333254
	C159	C	0.121355	0.378288	0.332378
	C160	C	0.389192	0.678206	0.895680
	C161	C	0.631285	0.679513	0.124316
	C162	C	0.630713	0.322867	0.896931
	C163	C	0.388745	0.321970	0.125265
	C164	C	0.685810	0.887366	0.390127
	C165	C	0.686822	0.113707	0.631087
	C166	C	0.328379	0.887619	0.632064
	C167	C	0.326815	0.113092	0.388062
	C168	C	0.887935	0.386448	0.190107
	C169	C	0.129832	0.612090	0.189709
	C170	C	0.129782	0.385495	0.832068
	C171	C	0.890058	0.612212	0.832472
	C172	C	0.184232	0.879400	0.396322
	C173	C	0.184761	0.119701	0.624591
	C174	C	0.829487	0.118975	0.396130
	C175	C	0.828406	0.878387	0.625676
	C176	C	0.396113	0.180439	0.889346
	C177	C	0.621237	0.180240	0.133000
	C178	C	0.395248	0.821048	0.130881
	C179	C	0.621921	0.822314	0.887990
	C180	C	0.394259	0.880583	0.187488
	C181	C	0.621936	0.120279	0.188284
	C182	C	0.394748	0.120719	0.834015
	C183	C	0.622409	0.882031	0.832159
	C184	C	0.884174	0.178633	0.396978
	C185	C	0.127736	0.177370	0.624407
	C186	C	0.126202	0.822258	0.396225
	C187	C	0.885366	0.820402	0.625578
	C188	C	0.189146	0.386316	0.888790
	C189	C	0.188274	0.612434	0.132261
	C190	C	0.828218	0.387837	0.135323
	C191	C	0.831455	0.612141	0.889786
	C192	C	0.406952	0.093752	0.608762
	C193	C	0.606248	0.908082	0.608941
	C194	C	0.607239	0.093619	0.412314
	C195	C	0.408244	0.908430	0.412820
	C196	C	0.605666	0.402775	0.104981
	C197	C	0.609199	0.599177	0.916128
	C198	C	0.412019	0.598092	0.104399
	C199	C	0.412266	0.403255	0.917264
	C200	C	0.100797	0.598792	0.413703
	C201	C	0.914587	0.597556	0.609494
	C202	C	0.099923	0.399654	0.606828
	C203	C	0.915243	0.400197	0.413394
	C204	C	0.911318	0.592121	0.108898
	C205	C	0.109321	0.406672	0.109116
	C206	C	0.109375	0.591528	0.911610
	C207	C	0.910664	0.406433	0.914325
	C208	C	0.104207	0.901156	0.605220
	C209	C	0.103508	0.096317	0.416581
	C210	C	0.909707	0.096666	0.604402
	C211	C	0.907916	0.899480	0.416682
	C212	C	0.602130	0.100561	0.912038
	C213	C	0.415899	0.099049	0.107327
	C214	C	0.601410	0.901502	0.108547
	C215	C	0.415784	0.901105	0.912886
	Zn216	Zn	0.508048	0.001700	0.760726
	Zn217	Zn	0.507559	0.001284	0.260614
	Zn218	Zn	0.758765	0.499631	0.012423
	Zn219	Zn	0.260795	0.499879	0.010565
	Zn220	Zn	0.006921	0.749684	0.511352
	Zn221	Zn	0.006426	0.247842	0.510280
	Zn222	Zn	0.008964	0.498525	0.760395
	Zn223	Zn	0.008546	0.498702	0.261034
	Zn224	Zn	0.509688	0.749101	0.009710
	Zn225	Zn	0.509451	0.251289	0.010431
	Zn226	Zn	0.758452	-0.000161	0.511131
	Zn227	Zn	0.255435	0.000040	0.510113
	N228	N	0.421740	0.964050	0.689445
	N229	N	0.591537	0.038777	0.686938
	N230	N	0.592841	0.963620	0.332596
	N231	N	0.421578	0.037985	0.332170
	N232	N	0.687891	0.414409	0.974745
	N233	N	0.688143	0.586032	0.048080
	N234	N	0.331647	0.585781	0.973201
	N235	N	0.331359	0.414563	0.048352
	N236	N	0.970549	0.678350	0.425081
	N237	N	0.043167	0.680544	0.599730
	N238	N	0.970607	0.318370	0.597674
	N239	N	0.042947	0.316781	0.421591
	N240	N	0.970758	0.413280	0.689376
	N241	N	0.046238	0.581791	0.686698
	N242	N	0.970985	0.583882	0.332914
	N243	N	0.045459	0.414005	0.333306
	N244	N	0.423886	0.678484	0.973135
	N245	N	0.597576	0.680563	0.046548
	N246	N	0.595500	0.322104	0.974174
	N247	N	0.423514	0.321808	0.047803
	N248	N	0.687363	0.964013	0.424310
	N249	N	0.688386	0.036626	0.598086
	N250	N	0.326264	0.964350	0.597890
	N251	N	0.325785	0.036573	0.422921
	N252	N	0.924420	0.461949	0.188686
	N253	N	0.095473	0.535688	0.190222
	N254	N	0.095169	0.461559	0.831469
	N255	N	0.924510	0.535836	0.832766
	N256	N	0.184966	0.913583	0.473883
	N257	N	0.184561	0.084885	0.547436
	N258	N	0.830696	0.083147	0.472933
	N259	N	0.827652	0.912690	0.548182
	N260	N	0.473293	0.182151	0.922858
	N261	N	0.544627	0.181477	0.098144
	N262	N	0.472345	0.819615	0.097052
	N263	N	0.545037	0.820122	0.922414
	N264	N	0.470949	0.915075	0.188742
	N265	N	0.545675	0.084983	0.187461
	N266	N	0.471014	0.085827	0.833828
	N267	N	0.545910	0.916382	0.832291
	N268	N	0.918905	0.179209	0.474338
	N269	N	0.092851	0.177788	0.547174
	N270	N	0.091563	0.821555	0.473867
	N271	N	0.919696	0.819394	0.547915
	N272	N	0.190805	0.462927	0.922927
	N273	N	0.189928	0.535968	0.097713
	N274	N	0.827845	0.464296	0.100426
	N275	N	0.829949	0.535801	0.924889
	O276	O	-0.003740	-0.000209	-0.111780
	H277	H	-0.000021	-0.014035	-0.122229
	H278	H	0.007352	0.008153	-0.110280
	O279	O	0.548006	0.364387	0.461355
	H280	H	0.548369	0.360444	0.462314
	H281	H	0.539526	0.361253	0.464881
	O282	O	1.076766	0.002079	-0.184252
	H283	H	1.082194	-0.012631	-0.185403
	H284	H	1.088817	0.001226	-0.189907
	O285	O	-0.454907	1.558720	-0.524333
	H286	H	-0.467318	1.568293	-0.524018
	H287	H	-0.454199	1.545975	-0.513991
	O288	O	0.363109	0.583330	0.456315
	H289	H	0.356595	0.584466	0.449786
	H290	H	0.362758	0.593235	0.449058
	O291	O	0.370844	0.316908	0.595568
	H292	H	0.392114	0.325604	0.599369
	H293	H	0.366083	0.319137	0.611029
	O294	O	0.949260	1.101374	0.966977
	H295	H	0.957974	1.106293	0.964866
	H296	H	0.943687	1.096421	0.960337
	O297	O	-0.009066	-0.111515	0.019274
	H298	H	-0.023455	-0.109888	0.015371
	H299	H	-0.014944	-0.114597	0.013207
	O300	O	0.525566	0.444364	0.460341
	H301	H	0.519791	0.440576	0.472796
	H302	H	0.527695	0.449562	0.456717
	O303	O	0.087364	0.983075	1.040007
	H304	H	0.096187	0.980950	1.038707
	H305	H	0.088213	1.000866	1.041490
	O306	O	0.447178	0.562428	0.505113
	H307	H	0.449165	0.564388	0.519460
	H308	H	0.445158	0.560908	0.498690
	O309	O	1.056895	0.051478	-0.015638
	H310	H	1.044144	0.055158	-0.015905
	H311	H	1.062129	0.047615	-0.001425
	O312	O	-0.359813	0.371890	0.494188
	H313	H	-0.365558	0.370895	0.487469
	H314	H	-0.360190	0.366749	0.493313
	O315	O	0.480594	0.617589	0.324490
	H316	H	0.471468	0.605713	0.330863
	H317	H	0.454241	0.617345	0.320476
	O318	O	0.592812	0.394067	0.532282
	H319	H	0.585331	0.393459	0.523313
	H320	H	0.596613	0.402510	0.523105
	O321	O	0.510210	0.464472	0.667261
	H322	H	0.503772	0.464915	0.677167
	H323	H	0.510608	0.464663	0.668838
	O324	O	0.381968	0.592568	0.410404
	H325	H	0.376844	0.590336	0.402790
	H326	H	0.375056	0.588403	0.428790
	O327	O	-0.042613	0.945313	1.076572
	H328	H	-0.031025	0.955788	1.075362
	H329	H	-0.040830	0.937297	1.090103
	O330	O	0.495611	0.473761	0.482737
	H331	H	0.488133	0.469646	0.468215
	H332	H	0.490924	0.473914	0.498129
	O333	O	-0.090488	1.043123	0.953505
	H334	H	-0.081619	1.063640	0.956704
	H335	H	-0.096830	1.048334	0.943254
	O336	O	1.007033	0.958927	1.144516
	H337	H	1.001682	0.961072	1.153214
	H338	H	0.989525	0.939998	1.143191
	O339	O	0.491881	0.446025	0.373476
	H340	H	0.480335	0.434592	0.365267
	H341	H	0.492934	0.446320	0.377070
	O342	O	0.967484	-0.078529	0.044186
	H343	H	0.975763	-0.063138	0.029640
	H344	H	0.963578	-0.075616	0.043739
	O345	O	0.338100	0.440393	0.635218
	H346	H	0.339815	0.446252	0.643510
	H347	H	0.344668	0.453901	0.634905
	O348	O	1.032742	1.105958	1.018962
	H349	H	1.033692	1.104123	1.012146
	H350	H	1.037739	1.106142	1.006979
	O351	O	1.044580	1.158607	0.058708
	H352	H	1.046470	1.158606	0.056671
	H353	H	1.028681	1.146293	0.069919
	O354	O	0.367659	0.454935	0.486818
	H355	H	0.372354	0.450444	0.484253
	H356	H	0.368553	0.463467	0.496857
	O357	O	0.499985	0.584503	0.701257
	H358	H	0.515447	0.572995	0.693267
	H359	H	0.504025	0.597592	0.721324
	O360	O	-0.039369	-0.072660	-0.042220
	H361	H	-0.047274	-0.057817	-0.058254
	H362	H	-0.040821	-0.075880	-0.045578
	O363	O	0.471590	0.618495	0.349219
	H364	H	0.457879	0.618985	0.343723
	H365	H	0.467860	0.630656	0.340806
	O366	O	0.438449	0.603948	0.553948
	H367	H	0.439590	0.607033	0.539421
	H368	H	0.446491	0.616980	0.556986
	O369	O	0.014149	0.064804	-0.023976
	H370	H	0.008817	0.069971	-0.021098
	H371	H	0.013586	0.069302	-0.031594
	O372	O	0.618708	0.554545	0.558191
	H373	H	0.620584	0.552991	0.568378
	H374	H	0.617708	0.555197	0.549639
	O375	O	0.659687	0.677691	0.606170
	H376	H	0.662777	0.680303	0.584041
	H377	H	0.665408	0.667207	0.609309
	O378	O	0.633911	0.473476	0.538898
	H379	H	0.632523	0.473799	0.540086
	H380	H	0.631222	0.475146	0.537824
	O381	O	0.080394	1.088716	1.128491
	H382	H	0.082361	1.087184	1.127147
	H383	H	0.083755	1.097298	1.140445
	O384	O	0.174111	0.859927	-0.073302
	H385	H	0.168736	0.856429	-0.068524
	H386	H	0.177201	0.849500	-0.071043
	O387	O	0.925563	-0.169708	1.031784
	H388	H	0.924320	-0.176893	1.022164
	H389	H	0.912922	-0.174674	1.035214
	O390	O	0.004841	1.039926	0.013389
	H391	H	-0.001708	1.024178	0.025449
	H392	H	0.006131	1.053067	0.022314
	O393	O	0.858463	1.094757	-0.012669
	H394	H	0.857815	1.096682	-0.008576
	H395	H	0.863414	1.100413	-0.017558
	O396	O	0.532948	0.541962	0.601933
	H397	H	0.538689	0.539401	0.601257
	H398	H	0.538276	0.545549	0.594869
	O399	O	-0.064176	1.025690	1.093584
	H400	H	-0.062942	1.007966	1.103449
	H401	H	-0.061155	1.028746	1.094880
	O402	O	1.092626	-0.068281	0.088144
	H403	H	1.080083	-0.061163	0.087773
	H404	H	1.081368	-0.077849	0.095086
	O405	O	0.939559	-0.066437	-0.013114
	H406	H	0.925718	-0.063265	-0.004355
	H407	H	0.928709	-0.057391	-0.013125
