data_Molecule from HDF5

_cell_length_a		16.281499
_cell_length_b		16.346585
_cell_length_c		16.212341
_cell_angle_alpha	89.946730
_cell_angle_beta	90.084970
_cell_angle_gamma	89.873856
_symmetry_space_group_name_H-M	'P 1'
_symmetry_Int_Tables_number		1

loop_
	_symmetry_equiv_pos_as_xyz
	x,y,z

loop_
	_atom_site_label
	_atom_site_type_symbol
	_atom_site_fract_x
	_atom_site_fract_y
	_atom_site_fract_z
	H0	H	0.406941	0.832153	0.708005
	H1	H	0.603124	0.158447	0.706096
	H2	H	0.604213	0.831271	0.277909
	H3	H	0.407268	0.158403	0.278529
	H4	H	0.718947	0.397310	0.827206
	H5	H	0.719983	0.593308	0.156925
	H6	H	0.290229	0.595667	0.829782
	H7	H	0.292196	0.396813	0.157012
	H8	H	0.843636	0.711371	0.390836
	H9	H	0.169261	0.709173	0.591882
	H10	H	0.842395	0.279564	0.590604
	H11	H	0.169145	0.278608	0.393112
	H12	H	0.843168	0.394873	0.707903
	H13	H	0.170431	0.590474	0.704907
	H14	H	0.842487	0.592448	0.278076
	H15	H	0.170425	0.396569	0.278894
	H16	H	0.404606	0.711760	0.829352
	H17	H	0.605642	0.710167	0.155870
	H18	H	0.604630	0.280052	0.828197
	H19	H	0.405909	0.279397	0.155589
	H20	H	0.721706	0.831628	0.393711
	H21	H	0.720358	0.157856	0.591437
	H22	H	0.290382	0.831952	0.592568
	H23	H	0.291153	0.157639	0.394043
	H24	H	0.909537	0.330826	0.206108
	H25	H	0.104381	0.658255	0.206867
	H26	H	0.104865	0.331796	0.779419
	H27	H	0.907081	0.656956	0.776008
	H28	H	0.221416	0.894621	0.328255
	H29	H	0.220056	0.091359	0.656726
	H30	H	0.790305	0.092160	0.328236
	H31	H	0.791043	0.894972	0.656830
	H32	H	0.342919	0.212891	0.890185
	H33	H	0.669693	0.209204	0.092157
	H34	H	0.342662	0.779121	0.092425
	H35	H	0.668541	0.778870	0.891592
	H36	H	0.341630	0.898686	0.204909
	H37	H	0.669790	0.090818	0.205896
	H38	H	0.341713	0.093642	0.778326
	H39	H	0.669508	0.897720	0.778400
	H40	H	0.905441	0.208693	0.327756
	H41	H	0.104145	0.207270	0.656594
	H42	H	0.105799	0.779689	0.328333
	H43	H	0.906782	0.778678	0.655867
	H44	H	0.222855	0.333703	0.893471
	H45	H	0.220728	0.658096	0.092027
	H46	H	0.790705	0.331416	0.091401
	H47	H	0.791290	0.657539	0.892924
	H48	H	0.415096	0.109099	0.583771
	H49	H	0.598456	0.879616	0.587592
	H50	H	0.611187	0.113773	0.397570
	H51	H	0.403080	0.875183	0.398684
	H52	H	0.600537	0.396753	0.111758
	H53	H	0.594068	0.595510	0.874992
	H54	H	0.411510	0.597415	0.113267
	H55	H	0.408223	0.410944	0.876645
	H56	H	0.121739	0.586377	0.401281
	H57	H	0.890172	0.585337	0.585795
	H58	H	0.120642	0.409035	0.589813
	H59	H	0.889219	0.403980	0.396350
	H60	H	0.127239	0.392494	0.592022
	H61	H	0.889210	0.589857	0.583972
	H62	H	0.122878	0.586720	0.398386
	H63	H	0.888087	0.396657	0.396247
	H64	H	0.406783	0.580482	0.109596
	H65	H	0.606718	0.587812	0.872329
	H66	H	0.602102	0.405887	0.108502
	H67	H	0.424084	0.404509	0.878978
	H68	H	0.590344	0.110315	0.390440
	H69	H	0.598297	0.879891	0.584745
	H70	H	0.408422	0.111017	0.582521
	H71	H	0.417844	0.877817	0.389360
	H72	H	0.910304	0.610243	0.084168
	H73	H	0.095980	0.382297	0.079676
	H74	H	0.098876	0.610929	0.901762
	H75	H	0.921560	0.380416	0.899541
	H76	H	0.095063	0.904412	0.607428
	H77	H	0.099339	0.086011	0.375228
	H78	H	0.902175	0.087506	0.612098
	H79	H	0.918354	0.903735	0.377506
	H80	H	0.625330	0.094361	0.896872
	H81	H	0.389977	0.087287	0.083511
	H82	H	0.621636	0.899985	0.082716
	H83	H	0.393477	0.907356	0.906257
	H84	H	0.621450	0.904881	0.086164
	H85	H	0.388878	0.089018	0.087478
	H86	H	0.619612	0.089055	0.907642
	H87	H	0.387808	0.905631	0.892582
	H88	H	0.917592	0.078643	0.605125
	H89	H	0.096892	0.087241	0.375603
	H90	H	0.097330	0.897241	0.609697
	H91	H	0.912318	0.897519	0.374052
	H92	H	0.099359	0.612525	0.897036
	H93	H	0.107085	0.377572	0.083829
	H94	H	0.913566	0.610045	0.087304
	H95	H	0.907662	0.379536	0.906220
	H96	H	0.411203	0.112018	0.588573
	H97	H	0.600734	0.878336	0.585817
	H98	H	0.596117	0.105588	0.411391
	H99	H	0.417391	0.882908	0.407379
	H100	H	0.593873	0.401939	0.107501
	H101	H	0.594485	0.581642	0.878488
	H102	H	0.423871	0.585904	0.105844
	H103	H	0.411424	0.394972	0.871770
	H104	H	0.123410	0.588168	0.400437
	H105	H	0.890849	0.586305	0.580938
	H106	H	0.120342	0.397582	0.576142
	H107	H	0.890577	0.399793	0.402519
	H108	H	0.914703	0.609090	0.083131
	H109	H	0.096812	0.377906	0.092013
	H110	H	0.095111	0.610709	0.898759
	H111	H	0.909392	0.375164	0.891858
	H112	H	0.103218	0.903007	0.610010
	H113	H	0.099484	0.089215	0.375196
	H114	H	0.918218	0.097200	0.611156
	H115	H	0.909470	0.905628	0.375875
	H116	H	0.620684	0.081868	0.896402
	H117	H	0.389075	0.092109	0.083347
	H118	H	0.623767	0.899202	0.088193
	H119	H	0.387665	0.894709	0.902158
	C120	C	0.383497	0.003065	0.614178
	C121	C	0.627673	0.986908	0.614517
	C122	C	0.627568	0.002508	0.370935
	C123	C	0.384118	0.986460	0.370511
	C124	C	0.627497	0.373383	0.000638
	C125	C	0.627290	0.616703	0.983812
	C126	C	0.384389	0.617434	0.001812
	C127	C	0.385154	0.374506	0.984131
	C128	C	0.014797	0.616492	0.370364
	C129	C	0.998178	0.615401	0.612750
	C130	C	0.014658	0.371803	0.613863
	C131	C	0.997662	0.372373	0.370617
	C132	C	0.884401	0.502337	0.113952
	C133	C	0.128146	0.486733	0.114126
	C134	C	0.127754	0.503910	0.870715
	C135	C	0.884363	0.486011	0.870391
	C136	C	0.128004	0.872550	0.500714
	C137	C	0.127126	0.115616	0.483859
	C138	C	0.883719	0.115810	0.500879
	C139	C	0.884739	0.873160	0.484148
	C140	C	0.513610	0.117052	0.871232
	C141	C	0.497531	0.117007	0.113895
	C142	C	0.514194	0.873358	0.113946
	C143	C	0.497490	0.873811	0.871152
	C144	C	0.386119	0.880702	0.670250
	C145	C	0.624234	0.109700	0.668712
	C146	C	0.625094	0.880017	0.315595
	C147	C	0.386708	0.109682	0.316255
	C148	C	0.681949	0.376407	0.876705
	C149	C	0.682495	0.613825	0.107564
	C150	C	0.328463	0.615963	0.878454
	C151	C	0.329870	0.376785	0.107671
	C152	C	0.892068	0.672468	0.371435
	C153	C	0.120740	0.670874	0.611511
	C154	C	0.891170	0.317311	0.611345
	C155	C	0.120486	0.316887	0.372728
	C156	C	0.891471	0.374813	0.669098
	C157	C	0.121280	0.611895	0.667885
	C158	C	0.891491	0.613487	0.315469
	C159	C	0.121078	0.375433	0.316048
	C160	C	0.385722	0.673274	0.878311
	C161	C	0.625777	0.672035	0.107092
	C162	C	0.625318	0.317924	0.877327
	C163	C	0.386517	0.318445	0.107166
	C164	C	0.683512	0.880145	0.372996
	C165	C	0.682823	0.109178	0.612080
	C166	C	0.328319	0.880543	0.612657
	C167	C	0.328602	0.109052	0.373275
	C168	C	0.887730	0.379657	0.168979
	C169	C	0.125143	0.609305	0.169536
	C170	C	0.125521	0.380764	0.816583
	C171	C	0.886983	0.608622	0.814608
	C172	C	0.183448	0.874646	0.377478
	C173	C	0.181875	0.112068	0.607621
	C174	C	0.828248	0.112819	0.377218
	C175	C	0.829478	0.875178	0.607845
	C176	C	0.391224	0.173586	0.871595
	C177	C	0.620630	0.171529	0.112107
	C178	C	0.391372	0.817662	0.112303
	C179	C	0.620044	0.817656	0.872333
	C180	C	0.390533	0.877162	0.167811
	C181	C	0.620913	0.112575	0.168597
	C182	C	0.390626	0.114311	0.815883
	C183	C	0.620548	0.876540	0.816010
	C184	C	0.885435	0.170552	0.376870
	C185	C	0.124550	0.170016	0.607464
	C186	C	0.126176	0.817244	0.377587
	C187	C	0.886556	0.817153	0.607336
	C188	C	0.184142	0.381800	0.873336
	C189	C	0.182911	0.609451	0.112079
	C190	C	0.829020	0.380046	0.111738
	C191	C	0.829305	0.608858	0.872529
	C192	C	0.405099	0.088641	0.591545
	C193	C	0.605504	0.901298	0.592477
	C194	C	0.605643	0.087872	0.393132
	C195	C	0.406335	0.900666	0.391965
	C196	C	0.605439	0.395406	0.086962
	C197	C	0.605020	0.594690	0.897689
	C198	C	0.407377	0.594707	0.087409
	C199	C	0.407837	0.396951	0.898067
	C200	C	0.100495	0.593861	0.393280
	C201	C	0.912205	0.593539	0.590344
	C202	C	0.100441	0.393189	0.592193
	C203	C	0.911369	0.393814	0.392101
	C204	C	0.906383	0.587795	0.091545
	C205	C	0.106434	0.401159	0.091613
	C206	C	0.104716	0.589266	0.892706
	C207	C	0.906340	0.400681	0.892658
	C208	C	0.105273	0.895093	0.586892
	C209	C	0.105056	0.093861	0.397478
	C210	C	0.906270	0.094224	0.587105
	C211	C	0.907047	0.895721	0.398124
	C212	C	0.599653	0.094797	0.893582
	C213	C	0.411577	0.095630	0.091343
	C214	C	0.600102	0.894962	0.092080
	C215	C	0.411812	0.896149	0.893826
	Zn216	Zn	0.505396	-0.004663	0.742656
	Zn217	Zn	0.505373	-0.004951	0.242171
	Zn218	Zn	0.755302	0.494749	-0.007805
	Zn219	Zn	0.256649	0.495773	-0.007314
	Zn220	Zn	0.006104	0.744746	0.492140
	Zn221	Zn	0.005152	0.243650	0.491830
	Zn222	Zn	0.006412	0.494024	0.741601
	Zn223	Zn	0.006378	0.494488	0.242704
	Zn224	Zn	0.505703	0.745029	-0.007687
	Zn225	Zn	0.505768	0.245368	-0.007801
	Zn226	Zn	0.756413	-0.005700	0.492994
	Zn227	Zn	0.255446	-0.005844	0.491675
	N228	N	0.419977	0.957850	0.671122
	N229	N	0.590736	0.032571	0.670476
	N230	N	0.591031	0.957233	0.314101
	N231	N	0.420364	0.032300	0.314253
	N232	N	0.683624	0.409880	0.954621
	N233	N	0.683686	0.580120	0.029710
	N234	N	0.327372	0.581891	0.955901
	N235	N	0.328870	0.410826	0.030010
	N236	N	0.969978	0.674577	0.404686
	N237	N	0.043152	0.673090	0.577906
	N238	N	0.968622	0.315128	0.577810
	N239	N	0.042841	0.314886	0.405937
	N240	N	0.968996	0.407968	0.670822
	N241	N	0.043953	0.578170	0.668625
	N242	N	0.968615	0.579047	0.314954
	N243	N	0.043598	0.409212	0.314552
	N244	N	0.419737	0.674290	0.956014
	N245	N	0.592235	0.674002	0.029311
	N246	N	0.592378	0.315948	0.955476
	N247	N	0.420364	0.317003	0.029478
	N248	N	0.685042	0.957170	0.406801
	N249	N	0.684929	0.031713	0.579063
	N250	N	0.326596	0.957577	0.578540
	N251	N	0.326840	0.031481	0.406235
	N252	N	0.921702	0.456685	0.170264
	N253	N	0.091891	0.531987	0.171111
	N254	N	0.091116	0.457653	0.814838
	N255	N	0.920517	0.531319	0.813032
	N256	N	0.184669	0.908294	0.455230
	N257	N	0.183461	0.078883	0.529737
	N258	N	0.827005	0.079790	0.455235
	N259	N	0.828094	0.909110	0.530165
	N260	N	0.468906	0.175229	0.905416
	N261	N	0.542798	0.174453	0.079062
	N262	N	0.469233	0.815349	0.079426
	N263	N	0.542574	0.816125	0.905890
	N264	N	0.467878	0.910922	0.169212
	N265	N	0.543329	0.079425	0.169843
	N266	N	0.467752	0.079769	0.815648
	N267	N	0.543178	0.910602	0.814853
	N268	N	0.919131	0.172755	0.454837
	N269	N	0.091087	0.172196	0.529495
	N270	N	0.092292	0.815901	0.455245
	N271	N	0.920155	0.815811	0.529507
	N272	N	0.185608	0.459447	0.906085
	N273	N	0.184795	0.532307	0.078250
	N274	N	0.827071	0.457291	0.078225
	N275	N	0.827519	0.531859	0.906448
	O276	O	1.077570	0.999791	0.064298
	H277	H	1.074144	1.000674	0.058637
	H278	H	1.078689	1.005564	0.063262
	O279	O	0.551486	0.496364	0.414864
	H280	H	0.549906	0.504508	0.410474
	H281	H	0.553803	0.506938	0.419153
	O282	O	0.043808	-0.020886	-0.023747
	H283	H	0.042787	-0.015706	-0.025905
	H284	H	0.046991	-0.020804	-0.015143
	O285	O	0.516995	0.493415	0.555853
	H286	H	0.510906	0.493913	0.556292
	H287	H	0.511458	0.494510	0.545301
	O288	O	-0.072317	0.048074	0.000569
	H289	H	-0.075479	0.045605	-0.009987
	H290	H	-0.060097	0.049079	0.001771
	O291	O	0.000969	0.966652	0.001051
	H292	H	0.000175	0.971522	0.011008
	H293	H	0.003007	0.955533	0.004275
	O294	O	-0.060766	0.939647	0.076962
	H295	H	-0.064414	0.946091	0.074832
	H296	H	-0.060823	0.939462	0.075011
	O297	O	0.580625	0.498421	0.501728
	H298	H	0.578397	0.496488	0.499931
	H299	H	0.586746	0.492472	0.506281
	O300	O	0.514456	0.470365	0.457324
	H301	H	0.516295	0.476240	0.459088
	H302	H	0.525342	0.464460	0.449683
	O303	O	1.066726	-0.014388	1.026803
	H304	H	1.063940	-0.020029	1.024788
	H305	H	1.064238	-0.012135	1.032455
	O306	O	-0.075678	0.941810	1.002456
	H307	H	-0.069222	0.951984	1.002518
	H308	H	-0.079569	0.936746	1.003919
	O309	O	0.019076	0.983025	1.024291
	H310	H	0.029500	0.989012	1.022774
	H311	H	0.025768	0.981801	1.016909
	O312	O	-0.000729	0.000590	1.031998
	H313	H	-0.011110	0.006632	1.041077
	H314	H	0.000655	-0.002498	1.026427
	O315	O	0.504391	0.477669	0.535910
	H316	H	0.494305	0.472882	0.526246
	H317	H	0.492639	0.482314	0.539942
	O318	O	0.032605	0.001480	0.875374
	H319	H	0.029542	0.011200	0.871007
	H320	H	0.027907	-0.005014	0.881025
	O321	O	-0.003730	0.078933	0.959230
	H322	H	-0.010854	0.077932	0.968760
	H323	H	-0.008052	0.076333	0.956462
	O324	O	0.903016	0.068016	0.884815
	H325	H	0.902718	0.063785	0.886296
	H326	H	0.903224	0.062498	0.882506
	O327	O	0.971704	0.995035	0.939364
	H328	H	0.971657	0.993486	0.937478
	H329	H	0.977528	0.991861	0.935366
	O330	O	0.000727	0.991696	1.029150
	H331	H	-0.010106	0.997953	1.032149
	H332	H	-0.000427	0.991467	1.023080
	O333	O	0.525242	0.508257	0.458278
	H334	H	0.522731	0.509913	0.458811
	H335	H	0.515912	0.516945	0.462040
	O336	O	0.474789	0.482115	0.456669
	H337	H	0.476868	0.489719	0.452142
	H338	H	0.477132	0.475124	0.456152
	O339	O	0.482941	0.466927	0.503227
	H340	H	0.494002	0.459423	0.496913
	H341	H	0.486863	0.467659	0.491300
	O342	O	0.563486	0.569255	0.447508
	H343	H	0.566445	0.573143	0.452237
	H344	H	0.563257	0.569558	0.458562
	O345	O	0.512532	0.518855	0.534499
	H346	H	0.515396	0.515292	0.539462
	H347	H	0.515855	0.511179	0.540915
