data_Molecule from HDF5

_cell_length_a		16.549323
_cell_length_b		16.562020
_cell_length_c		16.561832
_cell_angle_alpha	89.893014
_cell_angle_beta	89.868309
_cell_angle_gamma	89.835091
_symmetry_space_group_name_H-M	'P 1'
_symmetry_Int_Tables_number		1

loop_
	_symmetry_equiv_pos_as_xyz
	x,y,z

loop_
	_atom_site_label
	_atom_site_type_symbol
	_atom_site_fract_x
	_atom_site_fract_y
	_atom_site_fract_z
	H0	H	0.388556	0.855521	0.702254
	H1	H	0.599949	0.167221	0.696791
	H2	H	0.607510	0.854778	0.253030
	H3	H	0.391728	0.166422	0.255503
	H4	H	0.718552	0.407234	0.820289
	H5	H	0.718719	0.616087	0.134341
	H6	H	0.274739	0.618687	0.820692
	H7	H	0.277224	0.408569	0.134352
	H8	H	0.842316	0.737168	0.368643
	H9	H	0.152350	0.736970	0.586242
	H10	H	0.840705	0.291104	0.582530
	H11	H	0.152203	0.288398	0.370526
	H12	H	0.840828	0.407324	0.697957
	H13	H	0.152595	0.620443	0.701863
	H14	H	0.841075	0.619905	0.254393
	H15	H	0.152651	0.405537	0.254682
	H16	H	0.390450	0.734782	0.820831
	H17	H	0.604881	0.734708	0.132435
	H18	H	0.601273	0.291572	0.819809
	H19	H	0.394782	0.292562	0.134793
	H20	H	0.720540	0.853848	0.371880
	H21	H	0.715642	0.167820	0.580942
	H22	H	0.273375	0.855231	0.586054
	H23	H	0.275399	0.166044	0.371155
	H24	H	0.894285	0.355299	0.196669
	H25	H	0.104031	0.667906	0.199406
	H26	H	0.101704	0.354411	0.756656
	H27	H	0.891035	0.668104	0.754559
	H28	H	0.224150	0.901360	0.322484
	H29	H	0.218207	0.114924	0.633324
	H30	H	0.773660	0.119865	0.322407
	H31	H	0.775545	0.905002	0.632695
	H32	H	0.340539	0.234732	0.870496
	H33	H	0.653594	0.230342	0.079630
	H34	H	0.341464	0.786584	0.086915
	H35	H	0.652758	0.788436	0.870358
	H36	H	0.342420	0.902550	0.202667
	H37	H	0.653812	0.114582	0.196636
	H38	H	0.339458	0.116676	0.756048
	H39	H	0.652483	0.905066	0.754749
	H40	H	0.890617	0.234694	0.322337
	H41	H	0.102173	0.232000	0.633903
	H42	H	0.107486	0.785785	0.321854
	H43	H	0.892538	0.789307	0.633030
	H44	H	0.218914	0.354682	0.871879
	H45	H	0.218439	0.668216	0.081916
	H46	H	0.778980	0.354275	0.080383
	H47	H	0.774036	0.667064	0.870641
	H48	H	0.410161	0.121796	0.566211
	H49	H	0.586331	0.897360	0.567577
	H50	H	0.588882	0.123806	0.383764
	H51	H	0.412846	0.898687	0.387383
	H52	H	0.587223	0.416925	0.090935
	H53	H	0.585893	0.595665	0.867195
	H54	H	0.404211	0.595999	0.088400
	H55	H	0.406001	0.422132	0.862829
	H56	H	0.106693	0.593675	0.388923
	H57	H	0.892624	0.590315	0.556686
	H58	H	0.110976	0.419426	0.564971
	H59	H	0.884590	0.424001	0.387351
	H60	H	0.108881	0.422825	0.564650
	H61	H	0.883714	0.596318	0.575477
	H62	H	0.109901	0.600729	0.385426
	H63	H	0.884326	0.422006	0.387202
	H64	H	0.412570	0.597641	0.085882
	H65	H	0.582018	0.600293	0.866909
	H66	H	0.590939	0.419859	0.091068
	H67	H	0.408986	0.424092	0.865731
	H68	H	0.581027	0.121211	0.385322
	H69	H	0.585519	0.898470	0.565614
	H70	H	0.408124	0.121143	0.563444
	H71	H	0.414000	0.900585	0.393253
	H72	H	0.909137	0.624415	0.066813
	H73	H	0.085615	0.399815	0.068424
	H74	H	0.078044	0.622075	0.883669
	H75	H	0.909007	0.401067	0.890794
	H76	H	0.083436	0.924704	0.586651
	H77	H	0.089241	0.094975	0.365620
	H78	H	0.909292	0.104851	0.590970
	H79	H	0.911361	0.926146	0.365981
	H80	H	0.609273	0.100422	0.886653
	H81	H	0.384382	0.098065	0.068073
	H82	H	0.608863	0.924071	0.068553
	H83	H	0.383348	0.916837	0.891091
	H84	H	0.609487	0.917606	0.062267
	H85	H	0.382874	0.102810	0.067972
	H86	H	0.608704	0.100277	0.886519
	H87	H	0.388790	0.927283	0.895329
	H88	H	0.902305	0.098682	0.590986
	H89	H	0.080626	0.100342	0.367518
	H90	H	0.083229	0.923474	0.587209
	H91	H	0.910830	0.921726	0.365084
	H92	H	0.085734	0.620314	0.896389
	H93	H	0.084472	0.401218	0.064254
	H94	H	0.907286	0.623907	0.063336
	H95	H	0.905839	0.398163	0.886183
	H96	H	0.406970	0.123170	0.565973
	H97	H	0.587710	0.897835	0.565818
	H98	H	0.586797	0.120702	0.391375
	H99	H	0.408678	0.898624	0.391866
	H100	H	0.586518	0.421695	0.089249
	H101	H	0.587435	0.601244	0.864185
	H102	H	0.408162	0.603767	0.090182
	H103	H	0.409626	0.419850	0.864424
	H104	H	0.107382	0.600703	0.393650
	H105	H	0.885526	0.610334	0.559693
	H106	H	0.110600	0.421760	0.568115
	H107	H	0.884189	0.423165	0.389165
	H108	H	0.905281	0.625993	0.066223
	H109	H	0.088462	0.399787	0.064980
	H110	H	0.091956	0.627159	0.884861
	H111	H	0.911772	0.399570	0.885041
	H112	H	0.084838	0.924111	0.586978
	H113	H	0.088024	0.104634	0.363026
	H114	H	0.910870	0.096545	0.587485
	H115	H	0.907744	0.924738	0.364490
	H116	H	0.608369	0.100893	0.885892
	H117	H	0.384704	0.100746	0.064066
	H118	H	0.605552	0.925610	0.060543
	H119	H	0.383970	0.927378	0.884127
	C120	C	0.375305	0.019007	0.598887
	C121	C	0.617640	1.001706	0.598111
	C122	C	0.619632	0.018613	0.354838
	C123	C	0.377355	1.001927	0.357038
	C124	C	0.619174	0.388840	-0.014106
	C125	C	0.617959	0.631934	0.969446
	C126	C	0.375577	0.632683	-0.014801
	C127	C	0.376504	0.390577	0.968677
	C128	C	0.005574	0.633245	0.355483
	C129	C	0.989962	0.632412	0.597577
	C130	C	0.006048	0.390107	0.598301
	C131	C	0.987793	0.390191	0.355274
	C132	C	0.876104	0.520805	0.097601
	C133	C	0.118419	0.503656	0.098157
	C134	C	0.118062	0.519692	0.855716
	C135	C	0.875636	0.503026	0.854760
	C136	C	0.119258	0.889325	0.485108
	C137	C	0.118168	0.132175	0.468842
	C138	C	0.875653	0.132548	0.486374
	C139	C	0.876749	0.890605	0.468061
	C140	C	0.504991	0.132945	0.854564
	C141	C	0.488154	0.131474	0.097771
	C142	C	0.505528	0.888800	0.098661
	C143	C	0.488325	0.890450	0.856475
	C144	C	0.371812	0.901955	0.660688
	C145	C	0.618528	0.120069	0.657188
	C146	C	0.624410	0.901529	0.293870
	C147	C	0.374056	0.119327	0.295909
	C148	C	0.678220	0.388297	0.867328
	C149	C	0.678902	0.634795	0.086777
	C150	C	0.315233	0.636099	0.867487
	C151	C	0.316895	0.389583	0.086869
	C152	C	0.888809	0.696184	0.351275
	C153	C	0.106120	0.695333	0.602952
	C154	C	0.887746	0.331036	0.600535
	C155	C	0.105393	0.329092	0.352338
	C156	C	0.887943	0.388916	0.657993
	C157	C	0.106226	0.637402	0.660585
	C158	C	0.888218	0.637702	0.294337
	C159	C	0.105770	0.387684	0.295105
	C160	C	0.372729	0.693903	0.867761
	C161	C	0.621769	0.693522	0.086347
	C162	C	0.620355	0.330543	0.867204
	C163	C	0.375387	0.331883	0.087286
	C164	C	0.680873	0.901328	0.352838
	C165	C	0.676285	0.120301	0.599599
	C166	C	0.314038	0.901832	0.603172
	C167	C	0.316030	0.119185	0.353461
	C168	C	0.875365	0.402578	0.157199
	C169	C	0.121417	0.620977	0.158836
	C170	C	0.120405	0.401575	0.796153
	C171	C	0.872950	0.620797	0.794593
	C172	C	0.182634	0.884347	0.368623
	C173	C	0.178200	0.133826	0.586402
	C174	C	0.814539	0.136729	0.369246
	C175	C	0.815810	0.886911	0.585759
	C176	C	0.387411	0.194031	0.852313
	C177	C	0.606598	0.190523	0.098476
	C178	C	0.388410	0.827269	0.103746
	C179	C	0.605606	0.829026	0.852721
	C180	C	0.388779	0.885007	0.161427
	C181	C	0.606487	0.133173	0.156926
	C182	C	0.386758	0.135333	0.795337
	C183	C	0.605619	0.887089	0.795222
	C184	C	0.872640	0.194080	0.369134
	C185	C	0.120255	0.191907	0.586654
	C186	C	0.124663	0.826831	0.368620
	C187	C	0.874059	0.829397	0.585817
	C188	C	0.178701	0.401806	0.853386
	C189	C	0.178287	0.621555	0.100057
	C190	C	0.818020	0.402014	0.099278
	C191	C	0.814765	0.620511	0.852278
	C192	C	0.401046	0.100823	0.572524
	C193	C	0.593476	0.919461	0.573412
	C194	C	0.593036	0.100547	0.379735
	C195	C	0.403979	0.920513	0.383460
	C196	C	0.595143	0.412549	0.068745
	C197	C	0.592218	0.606315	0.887650
	C198	C	0.400942	0.606592	0.066965
	C199	C	0.401131	0.415059	0.885776
	C200	C	0.086819	0.606062	0.381701
	C201	C	0.908491	0.606365	0.571335
	C202	C	0.088635	0.414519	0.573034
	C203	C	0.905730	0.415763	0.380666
	C204	C	0.900310	0.603354	0.072563
	C205	C	0.093532	0.421645	0.072890
	C206	C	0.092537	0.601859	0.881048
	C207	C	0.901346	0.421103	0.880111
	C208	C	0.091793	0.916494	0.565844
	C209	C	0.093236	0.107005	0.386682
	C210	C	0.900693	0.107070	0.568430
	C211	C	0.902687	0.916751	0.386418
	C212	C	0.587399	0.107742	0.879326
	C213	C	0.405515	0.107233	0.073723
	C214	C	0.586721	0.914827	0.071577
	C215	C	0.406648	0.916306	0.882646
	Zn216	Zn	0.496054	0.011348	0.726643
	Zn217	Zn	0.497624	0.009892	0.226830
	Zn218	Zn	0.747014	0.511251	-0.022908
	Zn219	Zn	0.247015	0.511600	-0.023593
	Zn220	Zn	-0.001987	0.761221	0.476864
	Zn221	Zn	-0.003028	0.261440	0.477246
	Zn222	Zn	-0.002165	0.511655	0.726346
	Zn223	Zn	-0.003432	0.512643	0.226974
	Zn224	Zn	0.496936	0.760843	-0.022828
	Zn225	Zn	0.496898	0.260698	-0.023473
	Zn226	Zn	0.747274	0.011258	0.477441
	Zn227	Zn	0.247570	0.010147	0.477223
	N228	N	0.408977	0.975981	0.658065
	N229	N	0.582900	0.045359	0.656635
	N230	N	0.587087	0.975711	0.294696
	N231	N	0.411521	0.045189	0.297945
	N232	N	0.677876	0.423724	0.942187
	N233	N	0.676574	0.597090	0.013084
	N234	N	0.316646	0.598888	0.941649
	N235	N	0.317622	0.425396	0.011913
	N236	N	0.962847	0.693544	0.388556
	N237	N	0.032804	0.692186	0.564363
	N238	N	0.962374	0.331740	0.563934
	N239	N	0.030929	0.330477	0.389130
	N240	N	0.962586	0.424797	0.656801
	N241	N	0.033012	0.598842	0.657287
	N242	N	0.961820	0.599338	0.296809
	N243	N	0.031620	0.424937	0.296688
	N244	N	0.409306	0.692256	0.942027
	N245	N	0.584763	0.691940	0.012251
	N246	N	0.584604	0.330492	0.942075
	N247	N	0.411479	0.332361	0.012631
	N248	N	0.678194	0.975333	0.389885
	N249	N	0.676076	0.045662	0.563650
	N250	N	0.316160	0.975573	0.565320
	N251	N	0.317835	0.045066	0.390637
	N252	N	0.910650	0.477569	0.156443
	N253	N	0.084943	0.546622	0.157943
	N254	N	0.083791	0.476163	0.797169
	N255	N	0.909990	0.546557	0.795961
	N256	N	0.179396	0.922460	0.442131
	N257	N	0.177078	0.097475	0.512029
	N258	N	0.816214	0.099130	0.443219
	N259	N	0.817220	0.924098	0.511681
	N260	N	0.461868	0.192558	0.888471
	N261	N	0.531914	0.189624	0.062436
	N262	N	0.461956	0.829600	0.065246
	N263	N	0.531560	0.830855	0.890055
	N264	N	0.462608	0.922324	0.158640
	N265	N	0.531863	0.097097	0.156468
	N266	N	0.460962	0.098113	0.796615
	N267	N	0.531579	0.924612	0.797366
	N268	N	0.909890	0.191711	0.443022
	N269	N	0.083877	0.191241	0.512256
	N270	N	0.085987	0.829882	0.441953
	N271	N	0.911316	0.831630	0.511580
	N272	N	0.177610	0.476403	0.889458
	N273	N	0.176731	0.547392	0.063074
	N274	N	0.818246	0.476645	0.062996
	N275	N	0.816269	0.546204	0.889095
	O276	O	0.776799	1.164343	-0.018345
	H277	H	0.769923	1.163289	-0.046832
	H278	H	0.766840	1.162785	-0.032016
	O279	O	0.178408	0.165588	0.810531
	H280	H	0.180494	0.140460	0.821637
	H281	H	0.177377	0.155760	0.816844
	O282	O	0.473432	0.298998	0.686576
	H283	H	0.467200	0.284941	0.699274
	H284	H	0.458883	0.310971	0.698928
	O285	O	0.478328	0.593941	0.641597
	H286	H	0.497187	0.598077	0.645350
	H287	H	0.486007	0.604508	0.638193
	O288	O	1.522465	-0.276007	0.695461
	H289	H	1.551229	-0.264001	0.702646
	H290	H	1.538948	-0.260430	0.694047
	O291	O	1.168924	0.902872	1.023426
	H292	H	1.167722	0.921788	1.038664
	H293	H	1.163186	0.904032	1.023705
	O294	O	0.032643	-0.054274	0.006814
	H295	H	0.035965	-0.046524	0.008994
	H296	H	0.031061	-0.058384	0.014260
	O297	O	0.961264	0.047864	-0.195756
	H298	H	0.957310	0.061924	-0.193717
	H299	H	0.972625	0.066573	-0.199002
	O300	O	0.711808	0.422981	0.267337
	H301	H	0.705679	0.422867	0.262151
	H302	H	0.726832	0.407265	0.242869
	O303	O	-0.460679	-0.579002	-0.340659
	H304	H	-0.457917	-0.582365	-0.341944
	H305	H	-0.451107	-0.566016	-0.338548
	O306	O	0.817580	-0.164649	0.153141
	H307	H	0.835090	-0.150347	0.127200
	H308	H	0.840123	-0.187497	0.175845
	O309	O	0.707793	0.302394	0.454814
	H310	H	0.714122	0.292239	0.442602
	H311	H	0.710492	0.295447	0.419189
	O312	O	0.182465	0.828959	0.787773
	H313	H	0.177887	0.814007	0.796797
	H314	H	0.172791	0.817887	0.819859
	O315	O	0.698130	0.714383	0.679600
	H316	H	0.728435	0.743058	0.693231
	H317	H	0.702772	0.710095	0.645156
	O318	O	0.769714	0.239453	0.202881
	H319	H	0.771810	0.239403	0.183936
	H320	H	0.797304	0.221933	0.184199
	O321	O	0.207474	1.010394	1.189980
	H322	H	0.232691	1.024915	1.215341
	H323	H	0.200418	1.039825	1.190855
	O324	O	0.909029	0.148689	1.017669
	H325	H	0.915879	0.137826	1.022037
	H326	H	0.912614	0.165445	1.014240
	O327	O	0.477411	0.624523	0.351797
	H328	H	0.463819	0.634532	0.345547
	H329	H	0.477967	0.613487	0.349582
	O330	O	1.309704	1.322060	-0.335078
	H331	H	1.297501	1.346397	-0.343619
	H332	H	1.317198	1.315386	-0.336311
	O333	O	0.979463	0.194643	0.765486
	H334	H	0.990967	0.189716	0.769359
	H335	H	0.993194	0.207663	0.754508
	O336	O	0.109207	1.132243	-0.057742
	H337	H	0.098459	1.134384	-0.050486
	H338	H	0.126407	1.121650	-0.038533
	O339	O	0.275600	0.495869	0.672845
	H340	H	0.283748	0.501937	0.676660
	H341	H	0.260948	0.506763	0.698406
	O342	O	-0.172852	0.844194	0.780229
	H343	H	-0.156781	0.854667	0.800255
	H344	H	-0.153035	0.860007	0.787238
	O345	O	0.886180	0.190000	0.981130
	H346	H	0.895439	0.187853	0.972365
	H347	H	0.881508	0.183888	0.972750
	O348	O	0.113814	0.925278	0.036347
	H349	H	0.132945	0.917230	0.056086
	H350	H	0.112187	0.920086	0.038191
	O351	O	-0.209351	0.149271	0.774616
	H352	H	-0.192713	0.154257	0.761107
	H353	H	-0.215620	0.172478	0.760130
	O354	O	1.030445	0.225000	1.191511
	H355	H	1.014687	0.227725	1.200072
	H356	H	1.015004	0.218611	1.202520
	O357	O	0.640324	0.604070	0.296095
	H358	H	0.628767	0.607637	0.301582
	H359	H	0.641474	0.595227	0.317140
	O360	O	0.508158	0.376052	0.465214
	H361	H	0.498755	0.373246	0.479259
	H362	H	0.498510	0.382552	0.466962
	O363	O	0.052691	0.946152	1.196886
	H364	H	0.064813	0.961698	1.194187
	H365	H	0.047310	0.948167	1.199084
	O366	O	0.283884	0.723122	1.451028
	H367	H	0.298985	0.725777	1.457931
	H368	H	0.267832	0.741694	1.455509
	O369	O	0.002127	-0.202081	1.152448
	H370	H	0.008419	-0.193259	1.158011
	H371	H	0.021002	-0.203206	1.158656
	O372	O	0.213279	0.793546	0.944367
	H373	H	0.223286	0.813074	0.966920
	H374	H	0.226536	0.769191	0.955040
	O375	O	1.090709	-0.033191	0.048407
	H376	H	1.082518	-0.027895	0.046035
	H377	H	1.092738	-0.032863	0.041605
	O378	O	0.388431	0.698056	0.425714
	H379	H	0.388367	0.678653	0.427484
	H380	H	0.383284	0.686767	0.434229
	O381	O	-0.365054	0.494511	0.324877
	H382	H	-0.355943	0.491888	0.332149
	H383	H	-0.342065	0.495695	0.331495
	O384	O	0.723136	0.541120	0.452502
	H385	H	0.724870	0.519455	0.445985
	H386	H	0.724798	0.529509	0.453673
	O387	O	0.551589	1.483292	1.357965
	H388	H	0.537824	1.486532	1.357835
	H389	H	0.564936	1.470454	1.351685
	O390	O	-0.275756	1.274245	0.700152
	H391	H	-0.280141	1.275572	0.687142
	H392	H	-0.285558	1.293257	0.698323
	O393	O	0.999551	-0.169853	-0.233993
	H394	H	0.996839	-0.160086	-0.230755
	H395	H	1.006753	-0.175581	-0.250664
	O396	O	0.283487	0.299302	0.502462
	H397	H	0.293479	0.301535	0.506582
	H398	H	0.264472	0.277149	0.501978
	O399	O	0.368828	0.649662	0.657679
	H400	H	0.386840	0.670476	0.650958
	H401	H	0.389028	0.629809	0.658440
	O402	O	0.965290	-0.181317	0.970325
	H403	H	0.944880	-0.187018	0.986916
	H404	H	0.967171	-0.180162	0.977656
	O405	O	0.286593	0.538518	0.266502
	H406	H	0.277855	0.518688	0.283869
	H407	H	0.281404	0.531194	0.251012
	O408	O	0.783017	0.990151	1.199757
	H409	H	0.761742	0.981765	1.203846
	H410	H	0.773857	0.956614	1.200934
	O411	O	1.149250	1.106340	-0.117478
	H412	H	1.151144	1.093499	-0.115391
	H413	H	1.158795	1.099520	-0.107868
	O414	O	0.150483	-0.006419	-0.234626
	H415	H	0.155291	-0.029758	-0.224968
	H416	H	0.162159	-0.028282	-0.247637
	O417	O	0.194136	0.204934	1.175088
	H418	H	0.146283	0.208169	1.181805
	H419	H	0.211978	0.232931	1.185191
	O420	O	0.773483	-0.041164	0.915666
	H421	H	0.772037	-0.037920	0.914787
	H422	H	0.763203	-0.041095	0.893655
	O423	O	1.485723	0.491918	0.266367
	H424	H	1.490863	0.500507	0.263868
	H425	H	1.500897	0.496458	0.266746
	O426	O	0.273204	0.554267	0.520630
	H427	H	0.273347	0.558526	0.522985
	H428	H	0.276886	0.566164	0.544643
	O429	O	0.893002	1.118085	0.189731
	H430	H	0.879307	1.103317	0.185265
	H431	H	0.899205	1.094291	0.178276
	O432	O	1.443995	-0.273765	1.303141
	H433	H	1.418115	-0.278408	1.311522
	H434	H	1.434617	-0.272416	1.290795
	O435	O	-0.437988	-0.310014	0.421712
	H436	H	-0.457039	-0.306761	0.414665
	H437	H	-0.439699	-0.313058	0.419360
	O438	O	0.584707	0.446471	0.572762
	H439	H	0.600335	0.444802	0.581079
	H440	H	0.594454	0.458829	0.581833
	O441	O	0.585456	0.300699	0.273868
	H442	H	0.582911	0.292209	0.272960
	H443	H	0.592548	0.284958	0.257685
	O444	O	0.330513	0.322417	0.315370
	H445	H	0.348286	0.330017	0.342558
	H446	H	0.355117	0.341267	0.311214
	O447	O	0.675766	0.509018	0.676435
	H448	H	0.693143	0.522912	0.700762
	H449	H	0.682318	0.521771	0.661530
	O450	O	1.714175	-0.276697	0.511886
	H451	H	1.726670	-0.276953	0.498095
	H452	H	1.705663	-0.261393	0.498318
	O453	O	0.940440	-0.121186	0.952656
	H454	H	0.930367	-0.118635	0.942122
	H455	H	0.951945	-0.123378	0.941031
	O456	O	0.060194	1.050912	0.984340
	H457	H	0.051406	1.050822	0.984148
	H458	H	0.070251	1.051842	0.968279
	O459	O	0.452344	0.527077	0.519012
	H460	H	0.449239	0.524850	0.528575
	H461	H	0.451880	0.510965	0.511965
	O462	O	0.693563	0.472073	0.519980
	H463	H	0.699019	0.450956	0.516706
	H464	H	0.691132	0.472187	0.537032
	O465	O	0.530014	0.466507	0.344253
	H466	H	0.534066	0.482503	0.347279
	H467	H	0.539811	0.468926	0.348726
	O468	O	0.216433	1.229650	0.011876
	H469	H	0.226177	1.221652	0.038012
	H470	H	0.239117	1.247832	0.013518
	O471	O	0.278274	0.461033	0.463349
	H472	H	0.286618	0.464608	0.479937
	H473	H	0.273182	0.448748	0.470499
	O474	O	0.782357	0.840196	0.006650
	H475	H	0.771569	0.845464	0.021032
	H476	H	0.784867	0.831535	0.028892
	O477	O	-0.138553	0.043126	0.823620
	H478	H	-0.126493	0.067583	0.823440
	H479	H	-0.163292	0.051383	0.797477
