data_Molecule from HDF5

_cell_length_a		16.237985
_cell_length_b		16.443204
_cell_length_c		16.300032
_cell_angle_alpha	89.871159
_cell_angle_beta	89.813905
_cell_angle_gamma	89.825495
_symmetry_space_group_name_H-M	'P 1'
_symmetry_Int_Tables_number		1

loop_
	_symmetry_equiv_pos_as_xyz
	x,y,z

loop_
	_atom_site_label
	_atom_site_type_symbol
	_atom_site_fract_x
	_atom_site_fract_y
	_atom_site_fract_z
	H0	H	0.408462	0.833354	0.724826
	H1	H	0.611108	0.155514	0.722160
	H2	H	0.615475	0.833377	0.286362
	H3	H	0.407706	0.154456	0.286186
	H4	H	0.729341	0.395290	0.842589
	H5	H	0.727568	0.596170	0.167664
	H6	H	0.296513	0.595745	0.842642
	H7	H	0.295753	0.395469	0.166888
	H8	H	0.850293	0.713161	0.403576
	H9	H	0.174314	0.710824	0.607169
	H10	H	0.849853	0.276154	0.611405
	H11	H	0.172562	0.274450	0.402691
	H12	H	0.849877	0.394708	0.724210
	H13	H	0.176192	0.593074	0.719196
	H14	H	0.849388	0.596991	0.289479
	H15	H	0.174717	0.393674	0.289579
	H16	H	0.407164	0.715368	0.844610
	H17	H	0.615934	0.714411	0.165795
	H18	H	0.616847	0.275155	0.844055
	H19	H	0.407509	0.276071	0.165824
	H20	H	0.731341	0.833400	0.403377
	H21	H	0.729201	0.155066	0.607320
	H22	H	0.295493	0.832506	0.606622
	H23	H	0.291117	0.153969	0.402732
	H24	H	0.907979	0.335540	0.226777
	H25	H	0.113603	0.656357	0.223705
	H26	H	0.114470	0.333942	0.788073
	H27	H	0.911683	0.656232	0.787941
	H28	H	0.228661	0.892930	0.343741
	H29	H	0.224733	0.090719	0.669612
	H30	H	0.796991	0.094276	0.343115
	H31	H	0.796415	0.894925	0.668476
	H32	H	0.348422	0.213294	0.904375
	H33	H	0.673995	0.211198	0.106166
	H34	H	0.348659	0.777383	0.108014
	H35	H	0.673030	0.777109	0.901959
	H36	H	0.348132	0.894689	0.222482
	H37	H	0.674709	0.094850	0.220831
	H38	H	0.345621	0.093656	0.792317
	H39	H	0.674572	0.895957	0.790076
	H40	H	0.907916	0.213994	0.345573
	H41	H	0.113750	0.211423	0.668018
	H42	H	0.116495	0.775084	0.345299
	H43	H	0.910485	0.777217	0.667491
	H44	H	0.229878	0.333723	0.904849
	H45	H	0.227718	0.657352	0.103224
	H46	H	0.794310	0.334250	0.107679
	H47	H	0.793337	0.655948	0.903417
	H48	H	0.413556	0.109369	0.596928
	H49	H	0.607990	0.878134	0.597451
	H50	H	0.599079	0.106876	0.411252
	H51	H	0.423643	0.878125	0.405753
	H52	H	0.605093	0.405430	0.120186
	H53	H	0.612527	0.582839	0.887518
	H54	H	0.414518	0.584820	0.121793
	H55	H	0.429192	0.405463	0.891357
	H56	H	0.127665	0.592856	0.425233
	H57	H	0.897611	0.583102	0.597644
	H58	H	0.127093	0.400294	0.593375
	H59	H	0.895388	0.402592	0.414973
	H60	H	0.126851	0.404257	0.596188
	H61	H	0.894189	0.588196	0.600166
	H62	H	0.123876	0.573705	0.415471
	H63	H	0.897560	0.404578	0.419597
	H64	H	0.425456	0.581801	0.117983
	H65	H	0.593809	0.578852	0.895942
	H66	H	0.598410	0.403073	0.118094
	H67	H	0.421109	0.397541	0.887204
	H68	H	0.603087	0.106387	0.417645
	H69	H	0.599390	0.879858	0.602116
	H70	H	0.418408	0.109702	0.602376
	H71	H	0.428006	0.884295	0.421400
	H72	H	0.918068	0.610886	0.099393
	H73	H	0.098678	0.383657	0.097480
	H74	H	0.099874	0.606977	0.916081
	H75	H	0.917818	0.378223	0.909129
	H76	H	0.110973	0.901195	0.624422
	H77	H	0.096938	0.082062	0.393965
	H78	H	0.910923	0.090313	0.625939
	H79	H	0.919080	0.901091	0.387951
	H80	H	0.626262	0.083441	0.911687
	H81	H	0.396389	0.086232	0.094804
	H82	H	0.626062	0.905447	0.094285
	H83	H	0.395484	0.900743	0.922019
	H84	H	0.627222	0.902665	0.097822
	H85	H	0.395952	0.086302	0.096383
	H86	H	0.627894	0.088244	0.911366
	H87	H	0.397095	0.910018	0.915093
	H88	H	0.919861	0.075801	0.618517
	H89	H	0.099818	0.088948	0.390178
	H90	H	0.098351	0.907543	0.618790
	H91	H	0.922720	0.907855	0.391577
	H92	H	0.110153	0.611066	0.913446
	H93	H	0.106498	0.381675	0.092223
	H94	H	0.922509	0.608405	0.098394
	H95	H	0.928398	0.382674	0.914020
	H96	H	0.420450	0.107217	0.595764
	H97	H	0.600664	0.882591	0.592960
	H98	H	0.606043	0.109852	0.412018
	H99	H	0.412084	0.878099	0.418851
	H100	H	0.602781	0.398397	0.121760
	H101	H	0.598019	0.597614	0.887806
	H102	H	0.423113	0.592434	0.121419
	H103	H	0.417619	0.408498	0.889816
	H104	H	0.132846	0.590324	0.404082
	H105	H	0.896800	0.588244	0.594502
	H106	H	0.129151	0.400271	0.598370
	H107	H	0.897444	0.407516	0.415079
	H108	H	0.919304	0.608718	0.094992
	H109	H	0.106206	0.379890	0.101537
	H110	H	0.102237	0.610945	0.905734
	H111	H	0.917640	0.382360	0.921129
	H112	H	0.098459	0.892765	0.623045
	H113	H	0.104764	0.082659	0.390847
	H114	H	0.927764	0.091856	0.620386
	H115	H	0.926568	0.900445	0.391473
	H116	H	0.624998	0.086172	0.915685
	H117	H	0.395707	0.087377	0.095724
	H118	H	0.626987	0.901261	0.093711
	H119	H	0.392805	0.900040	0.911163
	C120	C	0.388667	0.002257	0.628034
	C121	C	0.632813	0.986214	0.627542
	C122	C	0.634101	0.002050	0.383212
	C123	C	0.389831	0.986140	0.384523
	C124	C	0.633496	0.372529	0.013459
	C125	C	0.632466	0.616524	0.997039
	C126	C	0.390589	0.616841	0.013529
	C127	C	0.391292	0.373926	0.996123
	C128	C	0.020799	0.616478	0.384818
	C129	C	1.003969	0.615314	0.626574
	C130	C	0.020520	0.372412	0.627618
	C131	C	1.003360	0.373482	0.385147
	C132	C	0.889705	0.503521	0.128023
	C133	C	0.133722	0.487796	0.126726
	C134	C	0.134902	0.503167	0.882434
	C135	C	0.890777	0.487126	0.883985
	C136	C	0.133622	0.871105	0.514978
	C137	C	0.131593	0.114478	0.498294
	C138	C	0.889583	0.116293	0.514821
	C139	C	0.891617	0.873143	0.497206
	C140	C	0.518696	0.116465	0.883369
	C141	C	0.503400	0.116170	0.126037
	C142	C	0.519459	0.873277	0.126134
	C143	C	0.502309	0.873483	0.884504
	C144	C	0.389587	0.881367	0.685451
	C145	C	0.631243	0.107415	0.683984
	C146	C	0.635086	0.881570	0.325096
	C147	C	0.388854	0.106504	0.325884
	C148	C	0.691290	0.374159	0.891487
	C149	C	0.689384	0.615688	0.118775
	C150	C	0.333930	0.616120	0.891525
	C151	C	0.333568	0.374838	0.118153
	C152	C	0.898914	0.674413	0.384581
	C153	C	0.126161	0.671852	0.626036
	C154	C	0.898341	0.315262	0.629424
	C155	C	0.124736	0.314476	0.384061
	C156	C	0.898408	0.374014	0.685751
	C157	C	0.126985	0.613030	0.681614
	C158	C	0.898444	0.616313	0.327957
	C159	C	0.125607	0.373602	0.327599
	C160	C	0.389226	0.675460	0.892398
	C161	C	0.633856	0.674797	0.117801
	C162	C	0.635452	0.314507	0.891970
	C163	C	0.389448	0.315748	0.117784
	C164	C	0.692402	0.881354	0.383758
	C165	C	0.690164	0.106994	0.626749
	C166	C	0.333071	0.880887	0.626903
	C167	C	0.330401	0.106064	0.383578
	C168	C	0.889571	0.383158	0.186530
	C169	C	0.132912	0.608507	0.183924
	C170	C	0.134116	0.382147	0.826271
	C171	C	0.892005	0.608106	0.827009
	C172	C	0.190757	0.872847	0.392701
	C173	C	0.187338	0.111770	0.620748
	C174	C	0.833903	0.114901	0.392233
	C175	C	0.834653	0.874647	0.619638
	C176	C	0.396628	0.173998	0.884720
	C177	C	0.625423	0.172756	0.125554
	C178	C	0.397340	0.816133	0.126975
	C179	C	0.624650	0.816203	0.883321
	C180	C	0.396996	0.874306	0.183946
	C181	C	0.625694	0.114899	0.182834
	C182	C	0.395188	0.114446	0.829104
	C183	C	0.625277	0.875376	0.827646
	C184	C	0.889321	0.174301	0.393410
	C185	C	0.132049	0.171774	0.619811
	C186	C	0.134929	0.814025	0.393542
	C187	C	0.891406	0.816305	0.619263
	C188	C	0.191833	0.382070	0.884316
	C189	C	0.189711	0.609005	0.124201
	C190	C	0.832789	0.382562	0.127392
	C191	C	0.833185	0.608021	0.884341
	C192	C	0.411144	0.086938	0.605078
	C193	C	0.609618	0.902159	0.604280
	C194	C	0.609733	0.085953	0.406670
	C195	C	0.414304	0.902062	0.408362
	C196	C	0.609009	0.395394	0.097900
	C197	C	0.608358	0.593039	0.912198
	C198	C	0.414195	0.593174	0.098366
	C199	C	0.415571	0.397001	0.911595
	C200	C	0.106049	0.592583	0.408260
	C201	C	0.918413	0.593036	0.603973
	C202	C	0.105620	0.395139	0.603221
	C203	C	0.918650	0.397798	0.409577
	C204	C	0.913239	0.587534	0.104272
	C205	C	0.110477	0.403605	0.103868
	C206	C	0.111139	0.587691	0.905292
	C207	C	0.914405	0.402819	0.907838
	C208	C	0.109548	0.893885	0.600255
	C209	C	0.107501	0.091377	0.413634
	C210	C	0.912815	0.092892	0.599669
	C211	C	0.915780	0.896394	0.412387
	C212	C	0.604256	0.092864	0.906217
	C213	C	0.418152	0.093120	0.102631
	C214	C	0.604603	0.896639	0.102200
	C215	C	0.417305	0.896853	0.908959
	Zn216	Zn	0.509926	-0.005604	0.756201
	Zn217	Zn	0.511365	-0.005913	0.254383
	Zn218	Zn	0.760926	0.495209	0.005516
	Zn219	Zn	0.263263	0.495246	0.004666
	Zn220	Zn	0.012211	0.744209	0.506212
	Zn221	Zn	0.011264	0.244411	0.506361
	Zn222	Zn	0.012628	0.494858	0.754381
	Zn223	Zn	0.011813	0.495559	0.257117
	Zn224	Zn	0.511201	0.745030	0.005249
	Zn225	Zn	0.511299	0.244729	0.005098
	Zn226	Zn	0.762493	-0.005968	0.505682
	Zn227	Zn	0.260295	-0.006653	0.506304
	N228	N	0.423422	0.957963	0.686400
	N229	N	0.596304	0.031453	0.684577
	N230	N	0.599107	0.957375	0.324851
	N231	N	0.425043	0.030755	0.326156
	N232	N	0.690505	0.409189	0.967930
	N233	N	0.688785	0.580170	0.042459
	N234	N	0.334560	0.580395	0.967984
	N235	N	0.334534	0.410248	0.041700
	N236	N	0.976018	0.674608	0.419317
	N237	N	0.048518	0.673416	0.592394
	N238	N	0.975368	0.313972	0.593995
	N239	N	0.047593	0.314276	0.418909
	N240	N	0.975279	0.408603	0.684717
	N241	N	0.050099	0.578521	0.681951
	N242	N	0.975411	0.581184	0.327847
	N243	N	0.049013	0.409528	0.328040
	N244	N	0.423654	0.676038	0.969283
	N245	N	0.598978	0.675300	0.040954
	N246	N	0.600380	0.313057	0.968905
	N247	N	0.424911	0.315259	0.041110
	N248	N	0.692017	0.957302	0.419019
	N249	N	0.691415	0.030727	0.592362
	N250	N	0.332216	0.957109	0.592013
	N251	N	0.331092	0.030219	0.419394
	N252	N	0.924113	0.459456	0.187249
	N253	N	0.098692	0.532149	0.185671
	N254	N	0.099688	0.458620	0.824810
	N255	N	0.927038	0.531849	0.826647
	N256	N	0.189927	0.907672	0.469345
	N257	N	0.187170	0.077040	0.544097
	N258	N	0.833859	0.079674	0.468761
	N259	N	0.834733	0.909282	0.542847
	N260	N	0.474387	0.175082	0.917836
	N261	N	0.548280	0.173732	0.091149
	N262	N	0.474590	0.815346	0.092001
	N263	N	0.547284	0.814943	0.917932
	N264	N	0.473997	0.908782	0.183826
	N265	N	0.548635	0.080324	0.183345
	N266	N	0.472277	0.079453	0.828079
	N267	N	0.548262	0.910217	0.828121
	N268	N	0.923223	0.175414	0.470559
	N269	N	0.098145	0.173737	0.542559
	N270	N	0.100197	0.812865	0.470618
	N271	N	0.925851	0.814962	0.542081
	N272	N	0.192360	0.458469	0.918452
	N273	N	0.190201	0.532941	0.089365
	N274	N	0.832657	0.458428	0.091743
	N275	N	0.832275	0.531734	0.918998
	O276	O	-0.097896	0.047465	-0.002499
	H277	H	-0.107686	0.055156	0.002346
	H278	H	-0.092845	0.061222	-0.013911
	O279	O	0.504622	0.554504	0.540542
	H280	H	0.498196	0.576371	0.540292
	H281	H	0.524461	0.554671	0.536946
	O282	O	1.024635	0.114454	-0.077350
	H283	H	1.001152	0.128943	-0.094790
	H284	H	1.030482	0.119166	-0.079061
	O285	O	-0.453497	1.502212	-0.382459
	H286	H	-0.452231	1.495060	-0.386627
	H287	H	-0.449140	1.487819	-0.398360
	O288	O	0.379121	0.657385	0.326620
	H289	H	0.374953	0.658933	0.332663
	H290	H	0.397218	0.634419	0.316254
	O291	O	0.514413	0.460456	0.437632
	H292	H	0.516009	0.455646	0.435297
	H293	H	0.501963	0.470840	0.437841
	O294	O	0.984138	0.914371	0.901742
	H295	H	0.984705	0.917474	0.906313
	H296	H	0.977157	0.904808	0.898046
	O297	O	-0.002215	0.112455	0.054698
	H298	H	0.012739	0.120374	0.052802
	H299	H	0.001140	0.106938	0.040731
	O300	O	0.586341	0.467550	0.508162
	H301	H	0.577412	0.470101	0.499416
	H302	H	0.606911	0.469011	0.505137
	O303	O	-0.007285	1.128925	0.946859
	H304	H	-0.018282	1.126445	0.937327
	H305	H	-0.007421	1.121942	0.946424
	O306	O	0.409328	0.435594	0.690223
	H307	H	0.408854	0.441314	0.703225
	H308	H	0.418742	0.426935	0.680818
	O309	O	1.078336	0.176720	0.111338
	H310	H	1.079373	0.167478	0.101584
	H311	H	1.065630	0.175345	0.103238
	O312	O	-0.446739	0.485793	0.463935
	H313	H	-0.447630	0.503770	0.449222
	H314	H	-0.443232	0.470553	0.462337
	O315	O	0.411738	0.425390	0.529000
	H316	H	0.406337	0.427260	0.545803
	H317	H	0.412426	0.428116	0.512453
	O318	O	0.556211	0.354292	0.489614
	H319	H	0.558273	0.347793	0.504038
	H320	H	0.538691	0.345517	0.483622
	O321	O	0.573310	0.451098	0.341598
	H322	H	0.558499	0.454544	0.348584
	H323	H	0.579096	0.440268	0.358247
	O324	O	0.640018	0.335011	0.306610
	H325	H	0.637479	0.334249	0.306410
	H326	H	0.633319	0.324286	0.296685
	O327	O	0.072356	0.946100	1.108632
	H328	H	0.076721	0.932856	1.101574
	H329	H	0.058000	0.943887	1.116728
	O330	O	0.662652	0.662902	0.645905
	H331	H	0.671744	0.670142	0.634961
	H332	H	0.655915	0.654971	0.651148
	O333	O	-0.100414	0.954027	1.033644
	H334	H	-0.097882	0.949380	1.042893
	H335	H	-0.108364	0.947310	1.041491
	O336	O	1.091936	1.040114	1.066415
	H337	H	1.105710	1.052127	1.065627
	H338	H	1.089297	1.033383	1.069457
	O339	O	0.600864	0.632861	0.647070
	H340	H	0.594558	0.636760	0.651587
	H341	H	0.601402	0.636481	0.642500
	O342	O	0.958450	0.070280	0.043333
	H343	H	0.969425	0.064942	0.039111
	H344	H	0.956964	0.095436	0.052508
	O345	O	0.420431	0.508589	0.575658
	H346	H	0.428538	0.510638	0.574745
	H347	H	0.430618	0.511738	0.582659
	O348	O	0.888409	0.934754	1.007911
	H349	H	0.875438	0.924385	1.015848
	H350	H	0.909376	0.947636	1.004118
	O351	O	1.018147	0.960988	0.036710
	H352	H	1.012098	0.957822	0.037443
	H353	H	1.010435	0.979669	0.038269
	O354	O	0.470883	0.556433	0.390235
	H355	H	0.461759	0.566695	0.389178
	H356	H	0.468324	0.554713	0.382449
	O357	O	0.550697	0.459381	0.501800
	H358	H	0.543534	0.470208	0.513339
	H359	H	0.550393	0.455202	0.508478
	O360	O	0.030425	-0.119111	-0.008068
	H361	H	0.032577	-0.110533	-0.007372
	H362	H	0.037116	-0.121184	-0.007888
	O363	O	0.504646	0.488699	0.493254
	H364	H	0.509932	0.487349	0.490819
	H365	H	0.512268	0.500832	0.501363
	O366	O	0.513617	0.514428	0.551694
	H367	H	0.500788	0.523986	0.547871
	H368	H	0.513824	0.511648	0.567766
	O369	O	-0.114155	-0.062155	0.057634
	H370	H	-0.117071	-0.066443	0.052503
	H371	H	-0.121414	-0.060849	0.054920
	O372	O	0.396727	0.608069	0.502224
	H373	H	0.398573	0.597668	0.516179
	H374	H	0.380822	0.617131	0.505301
	O375	O	0.558649	0.382075	0.471416
	H376	H	0.566152	0.385617	0.460302
	H377	H	0.574323	0.363873	0.459221
	O378	O	0.459284	0.474633	0.518295
	H379	H	0.463563	0.470501	0.520128
	H380	H	0.462829	0.458091	0.519044
	O381	O	0.042734	0.888551	0.940597
	H382	H	0.036672	0.876267	0.953651
	H383	H	0.035498	0.878670	0.939522
	O384	O	0.138531	1.034189	0.135085
	H385	H	0.136879	1.037190	0.141921
	H386	H	0.134256	1.032312	0.140043
	O387	O	0.933104	0.118474	0.985445
	H388	H	0.941562	0.125454	0.987726
	H389	H	0.946242	0.120970	0.973574
	O390	O	0.031690	1.058485	-0.140032
	H391	H	0.019523	1.056516	-0.149377
	H392	H	0.039358	1.052130	-0.143591
	O393	O	1.025454	0.972782	-0.034009
	H394	H	1.020090	0.968258	-0.032173
	H395	H	1.041774	0.975431	-0.022659
	O396	O	0.568043	0.574400	0.439808
	H397	H	0.573130	0.569644	0.439171
	H398	H	0.563788	0.576755	0.420396
	O399	O	0.083522	0.876616	1.050925
	H400	H	0.081388	0.880304	1.065880
	H401	H	0.078791	0.871084	1.053872
	O402	O	0.536347	0.390776	0.583751
	H403	H	0.531433	0.380835	0.594004
	H404	H	0.535723	0.407064	0.593821
	O405	O	0.490014	0.340228	0.455831
	H406	H	0.496687	0.339248	0.450138
	H407	H	0.474589	0.329787	0.463792
