data_Molecule from HDF5

_cell_length_a		16.345586
_cell_length_b		16.277726
_cell_length_c		16.341966
_cell_angle_alpha	90.007259
_cell_angle_beta	89.973442
_cell_angle_gamma	89.968077
_symmetry_space_group_name_H-M	'P 1'
_symmetry_Int_Tables_number		1

loop_
	_symmetry_equiv_pos_as_xyz
	x,y,z

loop_
	_atom_site_label
	_atom_site_type_symbol
	_atom_site_fract_x
	_atom_site_fract_y
	_atom_site_fract_z
	H0	H	0.401676	0.835759	0.713927
	H1	H	0.596035	0.163896	0.713908
	H2	H	0.598387	0.836946	0.284971
	H3	H	0.400804	0.163793	0.285152
	H4	H	0.714836	0.401907	0.836859
	H5	H	0.713691	0.597758	0.163894
	H6	H	0.284687	0.598665	0.836824
	H7	H	0.285428	0.402260	0.163576
	H8	H	0.836895	0.715043	0.402437
	H9	H	0.163638	0.714247	0.597348
	H10	H	0.836476	0.286870	0.596984
	H11	H	0.163128	0.285502	0.401805
	H12	H	0.837631	0.402076	0.714968
	H13	H	0.163354	0.598791	0.714657
	H14	H	0.836896	0.598866	0.285672
	H15	H	0.163288	0.401914	0.285375
	H16	H	0.402256	0.714423	0.836453
	H17	H	0.597610	0.714883	0.163517
	H18	H	0.597964	0.285423	0.836284
	H19	H	0.403801	0.286893	0.163967
	H20	H	0.712576	0.835704	0.403175
	H21	H	0.713342	0.163561	0.598813
	H22	H	0.285571	0.835848	0.597502
	H23	H	0.285826	0.163953	0.401921
	H24	H	0.902378	0.336093	0.214104
	H25	H	0.097528	0.664396	0.213795
	H26	H	0.099699	0.336388	0.785198
	H27	H	0.902323	0.663656	0.785627
	H28	H	0.215626	0.900292	0.337600
	H29	H	0.214607	0.098171	0.662949
	H30	H	0.783978	0.098848	0.337098
	H31	H	0.785293	0.900865	0.663430
	H32	H	0.336922	0.214410	0.902446
	H33	H	0.663901	0.212074	0.095837
	H34	H	0.336538	0.786018	0.097370
	H35	H	0.663569	0.786906	0.902764
	H36	H	0.337005	0.900920	0.215097
	H37	H	0.662698	0.098899	0.215038
	H38	H	0.336395	0.098487	0.785479
	H39	H	0.662537	0.901423	0.784955
	H40	H	0.902150	0.214311	0.336361
	H41	H	0.097266	0.213858	0.663236
	H42	H	0.096637	0.786493	0.336279
	H43	H	0.902663	0.784644	0.662807
	H44	H	0.214784	0.336488	0.902341
	H45	H	0.214047	0.664482	0.097741
	H46	H	0.786054	0.336381	0.098612
	H47	H	0.786341	0.663423	0.902692
	H48	H	0.406568	0.112035	0.578415
	H49	H	0.588549	0.886297	0.587315
	H50	H	0.588527	0.113038	0.415612
	H51	H	0.399381	0.880244	0.401801
	H52	H	0.590191	0.411555	0.113247
	H53	H	0.586487	0.598681	0.885071
	H54	H	0.410552	0.592234	0.114440
	H55	H	0.408732	0.405517	0.884702
	H56	H	0.114406	0.589639	0.407536
	H57	H	0.885468	0.585683	0.597475
	H58	H	0.114955	0.410383	0.592251
	H59	H	0.878990	0.396740	0.399027
	H60	H	0.117591	0.406039	0.596514
	H61	H	0.881505	0.599428	0.597990
	H62	H	0.116818	0.593273	0.401522
	H63	H	0.887020	0.405326	0.417996
	H64	H	0.405383	0.599209	0.117573
	H65	H	0.601446	0.596408	0.881035
	H66	H	0.590928	0.399713	0.116545
	H67	H	0.404692	0.406103	0.883122
	H68	H	0.602306	0.119020	0.406791
	H69	H	0.600444	0.881411	0.591810
	H70	H	0.394551	0.122016	0.600193
	H71	H	0.415403	0.885449	0.401630
	H72	H	0.906755	0.614911	0.087557
	H73	H	0.100362	0.382191	0.092083
	H74	H	0.104708	0.620192	0.904441
	H75	H	0.913877	0.384259	0.905450
	H76	H	0.096545	0.899818	0.619424
	H77	H	0.104532	0.094659	0.380113
	H78	H	0.904367	0.096155	0.617207
	H79	H	0.905684	0.908635	0.385012
	H80	H	0.617975	0.087689	0.892796
	H81	H	0.381816	0.090903	0.102646
	H82	H	0.612568	0.910320	0.086303
	H83	H	0.383925	0.906492	0.906738
	H84	H	0.615756	0.911301	0.099291
	H85	H	0.381285	0.103136	0.091460
	H86	H	0.618817	0.106316	0.909440
	H87	H	0.383937	0.906942	0.906918
	H88	H	0.903872	0.091015	0.614758
	H89	H	0.090202	0.082509	0.387965
	H90	H	0.098309	0.914904	0.615230
	H91	H	0.906642	0.906172	0.383708
	H92	H	0.084564	0.616775	0.897712
	H93	H	0.092199	0.382437	0.100104
	H94	H	0.901979	0.618945	0.096316
	H95	H	0.904811	0.384720	0.913412
	H96	H	0.419515	0.113976	0.601388
	H97	H	0.590353	0.882107	0.600321
	H98	H	0.587186	0.117444	0.399030
	H99	H	0.406731	0.886029	0.416040
	H100	H	0.600672	0.407094	0.117806
	H101	H	0.593396	0.584413	0.887124
	H102	H	0.402149	0.590652	0.116208
	H103	H	0.406996	0.409188	0.885240
	H104	H	0.116194	0.596803	0.407768
	H105	H	0.886403	0.593668	0.585481
	H106	H	0.116316	0.404061	0.590075
	H107	H	0.885478	0.417445	0.401027
	H108	H	0.912031	0.616160	0.096372
	H109	H	0.089362	0.386669	0.089841
	H110	H	0.089543	0.612227	0.918513
	H111	H	0.902922	0.380869	0.902433
	H112	H	0.084724	0.907572	0.613644
	H113	H	0.085669	0.102244	0.383670
	H114	H	0.908528	0.094051	0.615166
	H115	H	0.903964	0.906753	0.383140
	H116	H	0.610236	0.083857	0.916422
	H117	H	0.387627	0.088342	0.087186
	H118	H	0.618444	0.899750	0.092951
	H119	H	0.384056	0.907304	0.906758
	C120	C	0.378540	0.007772	0.621478
	C121	C	0.621015	0.991705	0.621714
	C122	C	0.621072	0.008285	0.378851
	C123	C	0.378645	0.992126	0.378659
	C124	C	0.622116	0.377872	0.008054
	C125	C	0.621879	0.621538	0.992355
	C126	C	0.378213	0.621631	0.008019
	C127	C	0.378499	0.378528	0.992194
	C128	C	0.008042	0.621800	0.378186
	C129	C	0.992606	0.621296	0.621313
	C130	C	0.008356	0.378385	0.621638
	C131	C	0.991859	0.378198	0.378043
	C132	C	0.878811	0.508142	0.121496
	C133	C	0.122068	0.492069	0.121976
	C134	C	0.121909	0.508481	0.878391
	C135	C	0.878790	0.491517	0.878839
	C136	C	0.121504	0.878925	0.508416
	C137	C	0.121552	0.121272	0.491707
	C138	C	0.877771	0.122104	0.507731
	C139	C	0.877909	0.878495	0.491716
	C140	C	0.507845	0.121023	0.878417
	C141	C	0.491866	0.121540	0.121310
	C142	C	0.507911	0.878712	0.121171
	C143	C	0.491705	0.878329	0.878355
	C144	C	0.381545	0.884349	0.675834
	C145	C	0.617223	0.114898	0.676369
	C146	C	0.618290	0.885209	0.323816
	C147	C	0.380826	0.115159	0.323514
	C148	C	0.677244	0.380966	0.885396
	C149	C	0.676723	0.619110	0.114910
	C150	C	0.323035	0.619189	0.885281
	C151	C	0.323585	0.381370	0.114933
	C152	C	0.885412	0.676855	0.381678
	C153	C	0.114942	0.676445	0.618361
	C154	C	0.885594	0.323999	0.618436
	C155	C	0.114780	0.323746	0.381462
	C156	C	0.885901	0.381265	0.676824
	C157	C	0.114662	0.619469	0.676962
	C158	C	0.885169	0.619094	0.323909
	C159	C	0.114794	0.381540	0.323606
	C160	C	0.381603	0.676346	0.885021
	C161	C	0.618599	0.676861	0.114887
	C162	C	0.618869	0.323564	0.884888
	C163	C	0.382400	0.324278	0.115265
	C164	C	0.675709	0.885001	0.381896
	C165	C	0.675474	0.114801	0.619167
	C166	C	0.323751	0.884637	0.618206
	C167	C	0.323536	0.115099	0.381428
	C168	C	0.882147	0.384746	0.175754
	C169	C	0.118541	0.615617	0.176164
	C170	C	0.120012	0.385262	0.823320
	C171	C	0.881600	0.614631	0.823759
	C172	C	0.176844	0.880745	0.385561
	C173	C	0.176299	0.118564	0.614494
	C174	C	0.822942	0.118814	0.385244
	C175	C	0.823220	0.880821	0.614727
	C176	C	0.385219	0.176545	0.881596
	C177	C	0.614919	0.175262	0.117440
	C178	C	0.385435	0.823425	0.118452
	C179	C	0.614693	0.824372	0.881770
	C180	C	0.385389	0.880828	0.176626
	C181	C	0.614338	0.119175	0.176592
	C182	C	0.385081	0.118763	0.823713
	C183	C	0.614274	0.881051	0.823340
	C184	C	0.881334	0.176331	0.384876
	C185	C	0.118209	0.176145	0.614499
	C186	C	0.118083	0.824147	0.385121
	C187	C	0.881391	0.823185	0.614619
	C188	C	0.177295	0.385376	0.881134
	C189	C	0.175892	0.615640	0.118109
	C190	C	0.824169	0.384941	0.118619
	C191	C	0.823819	0.614694	0.881548
	C192	C	0.400428	0.093844	0.599758
	C193	C	0.599406	0.905442	0.599710
	C194	C	0.599029	0.094372	0.400669
	C195	C	0.400801	0.906080	0.400179
	C196	C	0.600274	0.399533	0.093782
	C197	C	0.600159	0.599542	0.906391
	C198	C	0.399560	0.600197	0.093853
	C199	C	0.400478	0.400371	0.906615
	C200	C	0.093837	0.599813	0.399489
	C201	C	0.906625	0.599409	0.599892
	C202	C	0.094294	0.400457	0.599608
	C203	C	0.906073	0.400068	0.399518
	C204	C	0.900463	0.594329	0.099772
	C205	C	0.100454	0.405963	0.100593
	C206	C	0.099414	0.594277	0.900394
	C207	C	0.900846	0.405533	0.900767
	C208	C	0.099575	0.900915	0.593786
	C209	C	0.099747	0.099550	0.406052
	C210	C	0.899431	0.100263	0.593607
	C211	C	0.899229	0.900510	0.406075
	C212	C	0.593542	0.098944	0.899921
	C213	C	0.405842	0.100269	0.100074
	C214	C	0.593422	0.900748	0.099428
	C215	C	0.406065	0.900395	0.900280
	Zn216	Zn	0.499383	-0.000865	0.750023
	Zn217	Zn	0.499626	0.000397	0.250100
	Zn218	Zn	0.750463	0.499740	0.000295
	Zn219	Zn	0.249688	0.500055	0.000146
	Zn220	Zn	0.000240	0.750188	0.500071
	Zn221	Zn	0.000069	0.249966	0.499748
	Zn222	Zn	0.000647	0.499711	0.750497
	Zn223	Zn	-0.000082	0.500465	0.249802
	Zn224	Zn	0.500165	0.750124	-0.000356
	Zn225	Zn	0.500305	0.249710	-0.000130
	Zn226	Zn	0.749098	0.000317	0.500365
	Zn227	Zn	0.250488	-0.000341	0.499713
	N228	N	0.414825	0.961939	0.677956
	N229	N	0.584383	0.037128	0.678268
	N230	N	0.585243	0.962976	0.321382
	N231	N	0.414416	0.037677	0.321669
	N232	N	0.679180	0.413917	0.963017
	N233	N	0.678527	0.585303	0.037768
	N234	N	0.321110	0.585577	0.962477
	N235	N	0.321144	0.414290	0.037525
	N236	N	0.962760	0.678388	0.414842
	N237	N	0.037943	0.677542	0.584437
	N238	N	0.962762	0.322471	0.584564
	N239	N	0.037358	0.321660	0.414665
	N240	N	0.963289	0.414593	0.678494
	N241	N	0.037473	0.585592	0.678587
	N242	N	0.962401	0.585627	0.321582
	N243	N	0.037421	0.414713	0.321442
	N244	N	0.415185	0.678007	0.962265
	N245	N	0.585282	0.678448	0.037549
	N246	N	0.585550	0.321364	0.962134
	N247	N	0.415922	0.322408	0.037937
	N248	N	0.677054	0.962422	0.415721
	N249	N	0.677612	0.037257	0.585829
	N250	N	0.321765	0.962386	0.585254
	N251	N	0.322036	0.037530	0.414803
	N252	N	0.915319	0.462349	0.177723
	N253	N	0.085781	0.537786	0.178661
	N254	N	0.086420	0.462765	0.821371
	N255	N	0.914926	0.537000	0.821936
	N256	N	0.179107	0.913916	0.462988
	N257	N	0.178558	0.085200	0.537163
	N258	N	0.820593	0.086031	0.462828
	N259	N	0.820947	0.914647	0.537528
	N260	N	0.462591	0.177873	0.915136
	N261	N	0.537726	0.176786	0.083855
	N262	N	0.462484	0.822135	0.084582
	N263	N	0.537491	0.822582	0.915264
	N264	N	0.462642	0.914518	0.178619
	N265	N	0.536809	0.086259	0.178952
	N266	N	0.462166	0.085127	0.821620
	N267	N	0.536793	0.913840	0.821238
	N268	N	0.914605	0.178445	0.462149
	N269	N	0.084696	0.177811	0.537319
	N270	N	0.084221	0.822933	0.462292
	N271	N	0.914668	0.821706	0.537339
	N272	N	0.178428	0.462858	0.914787
	N273	N	0.178193	0.537823	0.085215
	N274	N	0.822123	0.462657	0.085494
	N275	N	0.821993	0.537117	0.915158
