data_Molecule from HDF5

_cell_length_a		16.296384
_cell_length_b		16.204688
_cell_length_c		16.327972
_cell_angle_alpha	90.161985
_cell_angle_beta	89.918584
_cell_angle_gamma	89.992364
_symmetry_space_group_name_H-M	'P 1'
_symmetry_Int_Tables_number		1

loop_
	_symmetry_equiv_pos_as_xyz
	x,y,z

loop_
	_atom_site_label
	_atom_site_type_symbol
	_atom_site_fract_x
	_atom_site_fract_y
	_atom_site_fract_z
	H0	H	0.400599	0.847862	0.715918
	H1	H	0.597431	0.177178	0.716615
	H2	H	0.600661	0.850333	0.285179
	H3	H	0.399303	0.177484	0.287399
	H4	H	0.716708	0.413318	0.837273
	H5	H	0.718572	0.613581	0.162566
	H6	H	0.287620	0.612811	0.836938
	H7	H	0.285910	0.414695	0.163218
	H8	H	0.836278	0.724833	0.402797
	H9	H	0.163816	0.728387	0.597855
	H10	H	0.836099	0.301181	0.596345
	H11	H	0.164281	0.298195	0.402821
	H12	H	0.838908	0.412599	0.715619
	H13	H	0.165475	0.610727	0.713216
	H14	H	0.838738	0.613181	0.283911
	H15	H	0.164699	0.412042	0.284432
	H16	H	0.405532	0.726734	0.837053
	H17	H	0.601038	0.728094	0.163768
	H18	H	0.599593	0.297589	0.838147
	H19	H	0.404314	0.301271	0.165071
	H20	H	0.712941	0.848438	0.403056
	H21	H	0.713587	0.177281	0.601221
	H22	H	0.284568	0.848492	0.599734
	H23	H	0.285439	0.177282	0.404870
	H24	H	0.902257	0.348977	0.212804
	H25	H	0.101587	0.677024	0.215034
	H26	H	0.101705	0.347919	0.785144
	H27	H	0.904176	0.676454	0.786105
	H28	H	0.217598	0.909610	0.338619
	H29	H	0.213800	0.112419	0.663797
	H30	H	0.783028	0.111665	0.338764
	H31	H	0.784929	0.913857	0.664739
	H32	H	0.337506	0.226851	0.905983
	H33	H	0.664853	0.228601	0.101046
	H34	H	0.338385	0.798485	0.098338
	H35	H	0.665418	0.800436	0.901451
	H36	H	0.337035	0.914166	0.215269
	H37	H	0.662956	0.115213	0.219429
	H38	H	0.336502	0.112130	0.788229
	H39	H	0.663001	0.912855	0.783803
	H40	H	0.902031	0.224865	0.336069
	H41	H	0.096710	0.227346	0.664004
	H42	H	0.098021	0.797905	0.336914
	H43	H	0.901046	0.797555	0.663539
	H44	H	0.217120	0.348185	0.900441
	H45	H	0.215029	0.677836	0.097042
	H46	H	0.787992	0.349224	0.096006
	H47	H	0.788290	0.677222	0.900077
	H48	H	0.398411	0.132592	0.597473
	H49	H	0.593119	0.895795	0.592007
	H50	H	0.588676	0.128729	0.412054
	H51	H	0.405915	0.892487	0.395172
	H52	H	0.603417	0.430881	0.116152
	H53	H	0.598393	0.610436	0.881915
	H54	H	0.414311	0.605354	0.114355
	H55	H	0.410698	0.418926	0.884720
	H56	H	0.119437	0.609338	0.404088
	H57	H	0.884834	0.609713	0.589489
	H58	H	0.117762	0.413579	0.586879
	H59	H	0.881235	0.407410	0.405146
	H60	H	0.115112	0.426620	0.589480
	H61	H	0.886815	0.598681	0.593089
	H62	H	0.115781	0.606501	0.413312
	H63	H	0.888291	0.424581	0.413576
	H64	H	0.406231	0.611050	0.118641
	H65	H	0.599091	0.603270	0.883792
	H66	H	0.585351	0.424785	0.112689
	H67	H	0.408366	0.418441	0.884098
	H68	H	0.594900	0.130636	0.412955
	H69	H	0.593807	0.894570	0.596009
	H70	H	0.411906	0.130024	0.601936
	H71	H	0.420630	0.900490	0.411581
	H72	H	0.915475	0.628520	0.092038
	H73	H	0.087982	0.398195	0.087690
	H74	H	0.093630	0.631256	0.899339
	H75	H	0.901975	0.393183	0.907660
	H76	H	0.082957	0.926872	0.611560
	H77	H	0.089349	0.096082	0.388541
	H78	H	0.903199	0.116544	0.619632
	H79	H	0.908242	0.929675	0.388121
	H80	H	0.620493	0.107467	0.901859
	H81	H	0.383968	0.104738	0.098467
	H82	H	0.616436	0.922076	0.091781
	H83	H	0.386181	0.917472	0.916634
	H84	H	0.617232	0.925233	0.096682
	H85	H	0.383957	0.110776	0.095511
	H86	H	0.615600	0.109238	0.914062
	H87	H	0.386673	0.928184	0.906556
	H88	H	0.899359	0.098605	0.616928
	H89	H	0.088539	0.112771	0.383734
	H90	H	0.090650	0.910284	0.619087
	H91	H	0.912510	0.909588	0.383883
	H92	H	0.091718	0.626774	0.911157
	H93	H	0.101063	0.395708	0.088453
	H94	H	0.907744	0.629441	0.088860
	H95	H	0.913727	0.394541	0.899534
	H96	H	0.407723	0.127154	0.588322
	H97	H	0.590313	0.896850	0.594799
	H98	H	0.592093	0.131252	0.406792
	H99	H	0.398108	0.895589	0.416953
	H100	H	0.598903	0.412190	0.120212
	H101	H	0.592572	0.606887	0.885098
	H102	H	0.404350	0.600892	0.116133
	H103	H	0.409095	0.420781	0.885434
	H104	H	0.115734	0.599291	0.404898
	H105	H	0.882588	0.606638	0.600435
	H106	H	0.120488	0.417769	0.599249
	H107	H	0.882144	0.424439	0.393848
	H108	H	0.908774	0.631633	0.096443
	H109	H	0.093538	0.394339	0.098945
	H110	H	0.102662	0.631250	0.907214
	H111	H	0.913842	0.397995	0.913631
	H112	H	0.101511	0.926428	0.617513
	H113	H	0.103531	0.103961	0.382064
	H114	H	0.916312	0.104714	0.613305
	H115	H	0.893830	0.917112	0.381204
	H116	H	0.614502	0.097583	0.908042
	H117	H	0.386501	0.105721	0.092127
	H118	H	0.618882	0.919219	0.096619
	H119	H	0.381862	0.914490	0.903259
	C120	C	0.377495	0.020930	0.623926
	C121	C	0.621279	1.004210	0.623269
	C122	C	0.620969	0.021737	0.380861
	C123	C	0.378724	1.005024	0.379929
	C124	C	0.624178	0.392025	0.008969
	C125	C	0.625051	0.635723	0.991484
	C126	C	0.380758	0.634853	0.008562
	C127	C	0.380343	0.391497	0.992478
	C128	C	0.009172	0.633704	0.378564
	C129	C	0.992788	0.634041	0.622094
	C130	C	0.009744	0.390997	0.620829
	C131	C	0.992360	0.390331	0.376659
	C132	C	0.880976	0.521815	0.120845
	C133	C	0.123395	0.504452	0.121210
	C134	C	0.124248	0.521030	0.877768
	C135	C	0.881147	0.504143	0.878405
	C136	C	0.121181	0.890979	0.508713
	C137	C	0.121531	0.134220	0.492159
	C138	C	0.877808	0.134470	0.508864
	C139	C	0.877372	0.890795	0.492509
	C140	C	0.509188	0.133674	0.880472
	C141	C	0.492546	0.136072	0.124285
	C142	C	0.509495	0.892329	0.123060
	C143	C	0.492750	0.891422	0.879400
	C144	C	0.380400	0.897124	0.678159
	C145	C	0.618063	0.128166	0.678510
	C146	C	0.619825	0.898919	0.323923
	C147	C	0.379642	0.128428	0.325208
	C148	C	0.678664	0.393326	0.886155
	C149	C	0.680810	0.634140	0.113965
	C150	C	0.325503	0.633020	0.885845
	C151	C	0.324326	0.394461	0.114865
	C152	C	0.885852	0.688297	0.381433
	C153	C	0.115527	0.689911	0.618909
	C154	C	0.885674	0.337908	0.617273
	C155	C	0.115384	0.335221	0.380739
	C156	C	0.887194	0.392866	0.677004
	C157	C	0.116150	0.631694	0.676397
	C158	C	0.886918	0.632592	0.322567
	C159	C	0.115598	0.392295	0.322404
	C160	C	0.384196	0.689612	0.885913
	C161	C	0.622203	0.690799	0.114593
	C162	C	0.620946	0.335395	0.886852
	C163	C	0.383093	0.338044	0.115860
	C164	C	0.675680	0.897854	0.382680
	C165	C	0.675753	0.128098	0.621046
	C166	C	0.322552	0.897436	0.620729
	C167	C	0.323235	0.128268	0.383702
	C168	C	0.882395	0.398123	0.175327
	C169	C	0.121583	0.627770	0.177052
	C170	C	0.122301	0.397277	0.822434
	C171	C	0.883765	0.627408	0.823447
	C172	C	0.178458	0.890922	0.386817
	C173	C	0.176000	0.132394	0.615083
	C174	C	0.821823	0.131929	0.386798
	C175	C	0.822638	0.893388	0.615685
	C176	C	0.386072	0.189154	0.884272
	C177	C	0.615732	0.191178	0.121791
	C178	C	0.386967	0.836443	0.119591
	C179	C	0.616056	0.837176	0.881163
	C180	C	0.386355	0.894057	0.177650
	C181	C	0.614883	0.134726	0.180490
	C182	C	0.385831	0.132229	0.825732
	C183	C	0.614914	0.893096	0.822631
	C184	C	0.880951	0.188286	0.385628
	C185	C	0.117966	0.189865	0.615016
	C186	C	0.119157	0.835126	0.385909
	C187	C	0.880488	0.835599	0.615298
	C188	C	0.179479	0.397501	0.880025
	C189	C	0.178026	0.628346	0.118433
	C190	C	0.825705	0.398148	0.117297
	C191	C	0.825962	0.627700	0.880242
	C192	C	0.399526	0.107760	0.602244
	C193	C	0.599148	0.918037	0.600859
	C194	C	0.598398	0.107871	0.403755
	C195	C	0.401489	0.918534	0.401585
	C196	C	0.602351	0.415714	0.094422
	C197	C	0.603137	0.613471	0.905738
	C198	C	0.402101	0.612414	0.094183
	C199	C	0.402787	0.413045	0.906736
	C200	C	0.094922	0.611555	0.400939
	C201	C	0.906995	0.611874	0.600755
	C202	C	0.095627	0.412827	0.598406
	C203	C	0.906106	0.412238	0.397943
	C204	C	0.903876	0.607701	0.098732
	C205	C	0.100873	0.418420	0.098428
	C206	C	0.102442	0.607295	0.899567
	C207	C	0.903254	0.417677	0.900524
	C208	C	0.098362	0.914340	0.593839
	C209	C	0.100068	0.111054	0.406832
	C210	C	0.899786	0.112870	0.594457
	C211	C	0.898709	0.912414	0.406665
	C212	C	0.594709	0.111232	0.901772
	C213	C	0.406989	0.113601	0.102028
	C214	C	0.595272	0.915272	0.101465
	C215	C	0.407105	0.913522	0.902187
	Zn216	Zn	0.499777	0.012394	0.751164
	Zn217	Zn	0.500320	0.014157	0.252375
	Zn218	Zn	0.753137	0.513844	-0.000467
	Zn219	Zn	0.251863	0.513057	-0.000185
	Zn220	Zn	-0.000167	0.762297	0.499829
	Zn221	Zn	-0.000351	0.262896	0.499586
	Zn222	Zn	0.002220	0.511680	0.750356
	Zn223	Zn	0.001574	0.513056	0.249447
	Zn224	Zn	0.502330	0.763287	0.000769
	Zn225	Zn	0.501810	0.263113	0.001787
	Zn226	Zn	0.748973	0.012595	0.501620
	Zn227	Zn	0.250138	0.012122	0.501201
	N228	N	0.413601	0.975241	0.680246
	N229	N	0.584821	0.050266	0.679907
	N230	N	0.586330	0.977017	0.322837
	N231	N	0.413402	0.050603	0.322855
	N232	N	0.680885	0.427793	0.963212
	N233	N	0.682779	0.600874	0.036495
	N234	N	0.323368	0.599443	0.963072
	N235	N	0.322561	0.426962	0.037070
	N236	N	0.963014	0.689204	0.415744
	N237	N	0.037931	0.691592	0.585975
	N238	N	0.962846	0.336640	0.582935
	N239	N	0.037723	0.333876	0.413809
	N240	N	0.965382	0.425011	0.679455
	N241	N	0.038850	0.597531	0.678410
	N242	N	0.964545	0.599408	0.320818
	N243	N	0.037963	0.425632	0.319710
	N244	N	0.417760	0.690847	0.963170
	N245	N	0.588134	0.691800	0.037448
	N246	N	0.587747	0.334715	0.964233
	N247	N	0.417381	0.336252	0.038823
	N248	N	0.676194	0.975169	0.417614
	N249	N	0.677808	0.049841	0.587516
	N250	N	0.320715	0.975471	0.587715
	N251	N	0.322462	0.050229	0.416967
	N252	N	0.915903	0.476066	0.177733
	N253	N	0.088518	0.549630	0.179022
	N254	N	0.088556	0.475039	0.820873
	N255	N	0.917329	0.549572	0.822262
	N256	N	0.179946	0.924938	0.464088
	N257	N	0.178438	0.098412	0.537840
	N258	N	0.819802	0.099225	0.464317
	N259	N	0.820599	0.926881	0.538367
	N260	N	0.463556	0.190337	0.917625
	N261	N	0.538805	0.192075	0.087476
	N262	N	0.464609	0.835136	0.086415
	N263	N	0.539095	0.835856	0.915757
	N264	N	0.463687	0.928123	0.179891
	N265	N	0.537393	0.101161	0.182076
	N266	N	0.463273	0.098445	0.823247
	N267	N	0.537314	0.926187	0.821398
	N268	N	0.915157	0.189961	0.462585
	N269	N	0.085013	0.191300	0.537587
	N270	N	0.084254	0.834932	0.462706
	N271	N	0.913608	0.833681	0.537741
	N272	N	0.181006	0.475549	0.913552
	N273	N	0.179403	0.550653	0.084422
	N274	N	0.824700	0.476022	0.084126
	N275	N	0.824160	0.549791	0.913738
	O276	O	-0.063875	0.033086	-0.058267
	H277	H	-0.063217	0.028751	-0.045218
	H278	H	-0.062066	0.033666	-0.065207
	O279	O	0.463996	0.411204	0.458349
	H280	H	0.468324	0.419648	0.461382
	H281	H	0.467581	0.403672	0.453014
	O282	O	0.525290	0.585381	0.519349
	H283	H	0.528368	0.586776	0.520973
	H284	H	0.532241	0.582051	0.506562
	O285	O	0.997144	0.003077	1.027039
	H286	H	1.004390	0.004372	1.027751
	H287	H	1.004281	-0.008186	1.027781
	O288	O	1.021433	-0.031423	0.108519
	H289	H	1.022994	-0.029868	0.117681
	H290	H	1.013093	-0.030499	0.104779
	O291	O	0.515264	0.513112	0.500599
	H292	H	0.515939	0.515723	0.498944
	H293	H	0.513016	0.510182	0.501707
	O294	O	1.046400	0.035445	0.981811
	H295	H	1.051177	0.031952	0.986116
	H296	H	1.047686	0.030493	0.981702
	O297	O	-0.010129	0.001885	0.006666
	H298	H	-0.009011	0.003752	-0.001652
	H299	H	-0.020329	-0.004745	0.002342
	O300	O	1.078923	0.031456	0.037424
	H301	H	1.089491	0.039859	0.043425
	H302	H	1.082164	0.030716	0.034147
	O303	O	0.436689	0.522554	0.544717
	H304	H	0.437363	0.511742	0.537991
	H305	H	0.440808	0.528143	0.547387
	O306	O	1.019227	0.005886	-0.032769
	H307	H	1.022536	-0.002532	-0.048232
	H308	H	1.010498	0.009553	-0.028117
	O309	O	-0.025826	-0.009100	1.037717
	H310	H	-0.028696	-0.010829	1.033237
	H311	H	-0.025389	-0.002551	1.040901
	O312	O	1.039001	1.063134	1.052102
	H313	H	1.034963	1.055448	1.049810
	H314	H	1.042643	1.063717	1.047679
	O315	O	0.558775	0.476310	0.471161
	H316	H	0.559356	0.481614	0.476508
	H317	H	0.559329	0.482045	0.476087
	O318	O	-0.077510	0.003933	0.053492
	H319	H	-0.068889	0.011301	0.062072
	H320	H	-0.083894	-0.002405	0.055607
	O321	O	0.069559	0.999999	0.990931
	H322	H	0.068517	0.992716	0.995222
	H323	H	0.072148	1.001741	0.992813
	O324	O	0.492274	0.572551	0.530496
	H325	H	0.485277	0.573366	0.535677
	H326	H	0.492923	0.581665	0.521765
	O327	O	0.421700	0.507978	0.450818
	H328	H	0.425829	0.498437	0.453934
	H329	H	0.417482	0.501157	0.449314
	O330	O	0.533661	0.550539	0.459259
	H331	H	0.525508	0.545700	0.460061
	H332	H	0.523716	0.554320	0.452283
	O333	O	0.510259	0.504861	0.466665
	H334	H	0.507662	0.498745	0.465130
	H335	H	0.514925	0.505320	0.465621
	O336	O	0.522760	0.527315	0.479139
	H337	H	0.529850	0.529383	0.488108
	H338	H	0.514203	0.527336	0.482240
	O339	O	0.985776	1.012289	-0.033438
	H340	H	0.986347	1.009420	-0.030544
	H341	H	0.990709	1.020222	-0.032999
	O342	O	0.556941	0.555710	0.491776
	H343	H	0.563921	0.566120	0.500513
	H344	H	0.547179	0.555910	0.499808
	O345	O	1.028042	0.005887	0.993530
	H346	H	1.017665	-0.000881	0.998684
	H347	H	1.033071	0.003928	0.993646
	O348	O	0.064551	-0.021783	-0.107882
	H349	H	0.076359	-0.028114	-0.120969
	H350	H	0.054726	-0.015196	-0.116844
	O351	O	0.063030	0.968123	0.900802
	H352	H	0.056251	0.969976	0.898060
	H353	H	0.056275	0.971529	0.913305
	O354	O	0.468128	0.510507	0.510044
	H355	H	0.473154	0.515559	0.511650
	H356	H	0.477774	0.502780	0.497567
	O357	O	-0.035922	1.022734	1.020276
	H358	H	-0.021024	1.031733	1.011415
	H359	H	-0.043561	1.020529	1.025367
