data_Molecule from HDF5

_cell_length_a		16.495764
_cell_length_b		16.375919
_cell_length_c		16.306293
_cell_angle_alpha	90.167070
_cell_angle_beta	89.963184
_cell_angle_gamma	89.977102
_symmetry_space_group_name_H-M	'P 1'
_symmetry_Int_Tables_number		1

loop_
	_symmetry_equiv_pos_as_xyz
	x,y,z

loop_
	_atom_site_label
	_atom_site_type_symbol
	_atom_site_fract_x
	_atom_site_fract_y
	_atom_site_fract_z
	H0	H	0.393540	0.817681	0.710512
	H1	H	0.594392	0.140266	0.708496
	H2	H	0.598587	0.818865	0.271180
	H3	H	0.392952	0.139265	0.275050
	H4	H	0.714207	0.375012	0.831163
	H5	H	0.714494	0.586208	0.151205
	H6	H	0.273023	0.585069	0.831255
	H7	H	0.273147	0.375460	0.150210
	H8	H	0.837103	0.701963	0.384739
	H9	H	0.151368	0.702904	0.598548
	H10	H	0.837809	0.255743	0.596984
	H11	H	0.155124	0.260217	0.387373
	H12	H	0.835691	0.375380	0.711266
	H13	H	0.152267	0.586088	0.714024
	H14	H	0.834698	0.581437	0.272793
	H15	H	0.153266	0.374640	0.269314
	H16	H	0.389370	0.699889	0.831238
	H17	H	0.596172	0.697742	0.151828
	H18	H	0.598586	0.259124	0.830986
	H19	H	0.390302	0.261903	0.151650
	H20	H	0.717387	0.820272	0.383843
	H21	H	0.713865	0.139076	0.595504
	H22	H	0.273614	0.818651	0.599374
	H23	H	0.275876	0.138041	0.390027
	H24	H	0.890422	0.319803	0.209896
	H25	H	0.097365	0.639285	0.212209
	H26	H	0.099595	0.320657	0.768927
	H27	H	0.887474	0.638031	0.768395
	H28	H	0.219546	0.867639	0.333543
	H29	H	0.215138	0.082637	0.651636
	H30	H	0.772731	0.085831	0.332822
	H31	H	0.774578	0.873231	0.651325
	H32	H	0.336224	0.201193	0.885933
	H33	H	0.651155	0.203240	0.099316
	H34	H	0.337786	0.754059	0.100465
	H35	H	0.652257	0.756067	0.886095
	H36	H	0.337590	0.870580	0.216769
	H37	H	0.652104	0.085622	0.213796
	H38	H	0.335831	0.083151	0.770433
	H39	H	0.654205	0.873749	0.771858
	H40	H	0.892121	0.197429	0.330504
	H41	H	0.102695	0.201643	0.649873
	H42	H	0.100246	0.757415	0.331456
	H43	H	0.890039	0.758426	0.651028
	H44	H	0.218349	0.322755	0.880273
	H45	H	0.216488	0.638628	0.099787
	H46	H	0.771307	0.322267	0.097388
	H47	H	0.769355	0.636660	0.881468
	H48	H	0.408886	0.091880	0.586080
	H49	H	0.584361	0.865708	0.580638
	H50	H	0.582978	0.092348	0.403918
	H51	H	0.408291	0.866293	0.409567
	H52	H	0.582028	0.392458	0.104644
	H53	H	0.577242	0.568899	0.878382
	H54	H	0.402611	0.572516	0.107201
	H55	H	0.397475	0.387720	0.873118
	H56	H	0.109133	0.576872	0.406069
	H57	H	0.881895	0.570440	0.578317
	H58	H	0.107896	0.386791	0.578758
	H59	H	0.882499	0.392575	0.398426
	H60	H	0.106212	0.391919	0.576735
	H61	H	0.884522	0.566141	0.575516
	H62	H	0.102961	0.561704	0.407908
	H63	H	0.879107	0.382272	0.395869
	H64	H	0.400232	0.562795	0.103903
	H65	H	0.586207	0.569814	0.875269
	H66	H	0.584226	0.389396	0.106413
	H67	H	0.405622	0.398730	0.879828
	H68	H	0.586300	0.091951	0.405290
	H69	H	0.588685	0.864449	0.579004
	H70	H	0.406437	0.088458	0.573885
	H71	H	0.400913	0.862839	0.403063
	H72	H	0.903874	0.592679	0.080099
	H73	H	0.084144	0.365752	0.079762
	H74	H	0.080685	0.595420	0.895432
	H75	H	0.904614	0.365493	0.903677
	H76	H	0.083567	0.890711	0.604843
	H77	H	0.087876	0.065155	0.377254
	H78	H	0.904518	0.069143	0.605802
	H79	H	0.904391	0.883478	0.374170
	H80	H	0.604864	0.069397	0.907636
	H81	H	0.381148	0.073834	0.078896
	H82	H	0.605086	0.890239	0.075347
	H83	H	0.383219	0.889552	0.906019
	H84	H	0.605986	0.893186	0.082161
	H85	H	0.383350	0.066144	0.080255
	H86	H	0.607033	0.065397	0.898412
	H87	H	0.383348	0.892634	0.901569
	H88	H	0.905761	0.065871	0.604610
	H89	H	0.083768	0.067147	0.378042
	H90	H	0.083604	0.891614	0.604262
	H91	H	0.900658	0.898502	0.378468
	H92	H	0.076104	0.588630	0.908955
	H93	H	0.082776	0.367173	0.077644
	H94	H	0.903224	0.595323	0.082186
	H95	H	0.904625	0.366014	0.902215
	H96	H	0.397388	0.094103	0.581766
	H97	H	0.587474	0.862865	0.583304
	H98	H	0.585956	0.092838	0.402450
	H99	H	0.410796	0.864945	0.399407
	H100	H	0.585710	0.392802	0.105394
	H101	H	0.583225	0.560924	0.878512
	H102	H	0.409942	0.566543	0.102916
	H103	H	0.412022	0.385144	0.876153
	H104	H	0.109378	0.566077	0.393267
	H105	H	0.881981	0.565113	0.581203
	H106	H	0.107686	0.391540	0.582079
	H107	H	0.883055	0.384738	0.406244
	H108	H	0.905654	0.593716	0.081634
	H109	H	0.085371	0.366716	0.077000
	H110	H	0.090397	0.593971	0.907627
	H111	H	0.905841	0.367066	0.902995
	H112	H	0.082269	0.890912	0.604698
	H113	H	0.086629	0.069772	0.375575
	H114	H	0.907961	0.068876	0.605036
	H115	H	0.915207	0.892976	0.380753
	H116	H	0.609139	0.074978	0.900499
	H117	H	0.379480	0.069856	0.086747
	H118	H	0.607744	0.886255	0.080974
	H119	H	0.380887	0.887441	0.900734
	C120	C	0.373486	-0.013985	0.613129
	C121	C	0.616648	0.970249	0.612641
	C122	C	0.617086	-0.012705	0.370624
	C123	C	0.374286	0.970176	0.371777
	C124	C	0.615766	0.358728	-0.000192
	C125	C	0.614778	0.599613	0.982903
	C126	C	0.372258	0.600716	-0.000423
	C127	C	0.373131	0.359078	0.982163
	C128	C	0.002562	0.600212	0.370065
	C129	C	0.986286	0.600897	0.612174
	C130	C	0.003314	0.357547	0.612491
	C131	C	0.986622	0.355982	0.368334
	C132	C	0.872448	0.488511	0.112817
	C133	C	0.115588	0.471836	0.111699
	C134	C	0.115870	0.488444	0.869593
	C135	C	0.872575	0.470991	0.869645
	C136	C	0.116487	0.857022	0.499550
	C137	C	0.117543	0.099712	0.482717
	C138	C	0.874250	0.099960	0.499652
	C139	C	0.874211	0.858524	0.482997
	C140	C	0.502646	0.101168	0.869907
	C141	C	0.485754	0.101955	0.113968
	C142	C	0.502341	0.857028	0.112970
	C143	C	0.486585	0.857013	0.870067
	C144	C	0.373744	0.865742	0.672047
	C145	C	0.615343	0.091687	0.670263
	C146	C	0.618129	0.867141	0.310444
	C147	C	0.373789	0.090856	0.314001
	C148	C	0.675091	0.356134	0.879395
	C149	C	0.673991	0.602706	0.103389
	C150	C	0.312814	0.603335	0.879113
	C151	C	0.313285	0.357364	0.102363
	C152	C	0.883926	0.660919	0.367114
	C153	C	0.104413	0.662424	0.616142
	C154	C	0.884818	0.296174	0.615301
	C155	C	0.106765	0.298520	0.367684
	C156	C	0.883874	0.355675	0.672087
	C157	C	0.104672	0.604059	0.673705
	C158	C	0.882868	0.600914	0.311390
	C159	C	0.106100	0.355757	0.309203
	C160	C	0.370616	0.660559	0.879188
	C161	C	0.615401	0.658812	0.103647
	C162	C	0.616990	0.298874	0.879262
	C163	C	0.371646	0.300893	0.103303
	C164	C	0.677158	0.867772	0.366683
	C165	C	0.674308	0.091253	0.613756
	C166	C	0.314170	0.866107	0.616396
	C167	C	0.315038	0.089931	0.370675
	C168	C	0.871307	0.368179	0.171240
	C169	C	0.116992	0.591312	0.172703
	C170	C	0.118353	0.369014	0.808332
	C171	C	0.869357	0.590490	0.808419
	C172	C	0.178419	0.851483	0.380719
	C173	C	0.176083	0.101444	0.603233
	C174	C	0.813598	0.103107	0.380042
	C175	C	0.814327	0.855360	0.603225
	C176	C	0.383437	0.160801	0.867702
	C177	C	0.603917	0.162896	0.116938
	C178	C	0.384499	0.795219	0.117354
	C179	C	0.605262	0.796384	0.867825
	C180	C	0.384563	0.853366	0.175398
	C181	C	0.604239	0.104479	0.174402
	C182	C	0.383482	0.102236	0.809994
	C183	C	0.606229	0.855286	0.811016
	C184	C	0.873069	0.158676	0.379021
	C185	C	0.119757	0.160434	0.602455
	C186	C	0.119009	0.796350	0.379692
	C187	C	0.871863	0.798151	0.602992
	C188	C	0.177496	0.369941	0.864140
	C189	C	0.176181	0.590878	0.116441
	C190	C	0.812132	0.369188	0.115095
	C191	C	0.810568	0.589591	0.864680
	C192	C	0.397407	0.069700	0.587824
	C193	C	0.593460	0.886271	0.588144
	C194	C	0.592219	0.070693	0.396321
	C195	C	0.399390	0.886388	0.396876
	C196	C	0.591090	0.384131	0.083674
	C197	C	0.589649	0.573852	0.899149
	C198	C	0.397083	0.574916	0.082938
	C199	C	0.397888	0.383488	0.898347
	C200	C	0.085580	0.575385	0.395216
	C201	C	0.904286	0.574926	0.585913
	C202	C	0.085709	0.382772	0.586762
	C203	C	0.903286	0.379692	0.392993
	C204	C	0.897047	0.572018	0.088242
	C205	C	0.090993	0.388259	0.085503
	C206	C	0.089783	0.571147	0.896349
	C207	C	0.897828	0.388033	0.895588
	C208	C	0.090633	0.883420	0.582946
	C209	C	0.093190	0.074513	0.398909
	C210	C	0.898866	0.075143	0.583445
	C211	C	0.899566	0.884417	0.399635
	C212	C	0.585456	0.076858	0.894887
	C213	C	0.402859	0.076913	0.088971
	C214	C	0.584691	0.882628	0.086877
	C215	C	0.403933	0.882442	0.895589
	Zn216	Zn	0.494988	-0.021572	0.741055
	Zn217	Zn	0.495018	-0.021091	0.242473
	Zn218	Zn	0.744324	0.480338	-0.009406
	Zn219	Zn	0.244221	0.479903	-0.009566
	Zn220	Zn	-0.005363	0.730372	0.490541
	Zn221	Zn	-0.004203	0.227793	0.490512
	Zn222	Zn	-0.006244	0.479921	0.742196
	Zn223	Zn	-0.005338	0.479452	0.240793
	Zn224	Zn	0.494278	0.727549	-0.008885
	Zn225	Zn	0.493579	0.231019	-0.008291
	Zn226	Zn	0.745726	-0.021324	0.491811
	Zn227	Zn	0.245062	-0.023245	0.492359
	N228	N	0.409647	0.941433	0.670288
	N229	N	0.580362	0.015694	0.669857
	N230	N	0.581483	0.942536	0.312705
	N231	N	0.409695	0.015116	0.314423
	N232	N	0.674512	0.392649	0.955361
	N233	N	0.673674	0.566640	0.027152
	N234	N	0.313457	0.567076	0.954984
	N235	N	0.313915	0.392820	0.026048
	N236	N	0.959272	0.660401	0.402995
	N237	N	0.029966	0.660527	0.578634
	N238	N	0.960148	0.297073	0.579067
	N239	N	0.031309	0.298394	0.403443
	N240	N	0.958473	0.393011	0.670595
	N241	N	0.030361	0.566299	0.671365
	N242	N	0.957667	0.563862	0.313165
	N243	N	0.030273	0.390643	0.309339
	N244	N	0.406525	0.659224	0.955171
	N245	N	0.579444	0.656880	0.027646
	N246	N	0.581226	0.300029	0.955403
	N247	N	0.407931	0.301796	0.027518
	N248	N	0.676650	0.943564	0.403195
	N249	N	0.675572	0.014644	0.579054
	N250	N	0.313791	0.941993	0.580554
	N251	N	0.314948	0.013451	0.405356
	N252	N	0.908227	0.443300	0.169871
	N253	N	0.079819	0.516298	0.169674
	N254	N	0.080680	0.443817	0.811466
	N255	N	0.907054	0.515768	0.811165
	N256	N	0.176844	0.888742	0.456310
	N257	N	0.174686	0.064119	0.527823
	N258	N	0.814054	0.067396	0.456239
	N259	N	0.815530	0.892125	0.527528
	N260	N	0.458419	0.160430	0.904182
	N261	N	0.529018	0.161546	0.080101
	N262	N	0.458708	0.797399	0.079127
	N263	N	0.529943	0.797272	0.903878
	N264	N	0.458775	0.891199	0.172687
	N265	N	0.529714	0.067049	0.172723
	N266	N	0.458586	0.065925	0.811061
	N267	N	0.531315	0.892179	0.812114
	N268	N	0.910072	0.157043	0.454512
	N269	N	0.084006	0.159589	0.526398
	N270	N	0.081231	0.799705	0.454772
	N271	N	0.908473	0.800010	0.527220
	N272	N	0.176002	0.445290	0.901553
	N273	N	0.175370	0.515364	0.079095
	N274	N	0.812644	0.445090	0.079474
	N275	N	0.812633	0.514547	0.902245
	O276	O	0.396544	0.552368	0.561164
	H277	H	0.405413	0.550924	0.546137
	H278	H	0.386484	0.561866	0.559046
	O279	O	0.408886	0.438016	0.362849
	H280	H	0.415307	0.430315	0.361939
	H281	H	0.419432	0.425285	0.369854
	O282	O	0.612797	0.440440	0.487520
	H283	H	0.613006	0.441380	0.483591
	H284	H	0.608205	0.435988	0.482584
	O285	O	1.108257	-0.047954	-0.177022
	H286	H	1.102549	-0.027810	-0.157271
	H287	H	1.120836	-0.060111	-0.182110
	O288	O	0.389669	0.369232	0.424466
	H289	H	0.396653	0.367006	0.417884
	H290	H	0.396515	0.364651	0.429371
	O291	O	0.642815	0.489302	0.477002
	H292	H	0.651275	0.491713	0.486317
	H293	H	0.647469	0.486713	0.483430
	O294	O	0.298145	0.458033	0.652853
	H295	H	0.295390	0.446641	0.659131
	H296	H	0.291963	0.456412	0.662032
	O297	O	1.177390	1.155897	1.177386
	H298	H	1.188723	1.169456	1.149979
	H299	H	1.144206	1.152025	1.185634
	O300	O	-0.542287	0.618951	-0.522425
	H301	H	-0.541735	0.635843	-0.525537
	H302	H	-0.547635	0.608994	-0.517852
	O303	O	0.522249	0.372488	0.614519
	H304	H	0.513057	0.372394	0.595346
	H305	H	0.521792	0.357242	0.615782
	O306	O	1.093888	-0.050379	0.156937
	H307	H	1.094291	-0.041999	0.144748
	H308	H	1.113418	-0.060577	0.156601
	O309	O	0.469734	0.650016	0.575788
	H310	H	0.480188	0.644264	0.590763
	H311	H	0.464205	0.651638	0.583561
	O312	O	1.218980	1.000146	0.205066
	H313	H	1.250005	1.010061	0.238480
	H314	H	1.216976	1.022248	0.187872
	O315	O	1.531801	1.564384	0.494692
	H316	H	1.525003	1.581858	0.501618
	H317	H	1.531867	1.566461	0.488978
	O318	O	0.516719	0.591952	0.600801
	H319	H	0.521700	0.580076	0.589115
	H320	H	0.520603	0.596579	0.603077
	O321	O	0.788318	0.079289	1.072039
	H322	H	0.788517	0.053440	1.078079
	H323	H	0.789270	0.063035	1.056788
	O324	O	-0.156261	0.144158	0.811704
	H325	H	-0.113296	0.155214	0.800085
	H326	H	-0.164427	0.140988	0.847926
	O327	O	0.547512	0.485568	0.483137
	H328	H	0.551680	0.488952	0.484571
	H329	H	0.557356	0.485788	0.492130
	O330	O	0.499293	0.508340	0.308271
	H331	H	0.497066	0.505423	0.317224
	H332	H	0.492680	0.514126	0.302493
	O333	O	1.038322	0.986236	0.958829
	H334	H	1.029666	0.971272	0.967136
	H335	H	1.024851	0.986084	0.960652
	O336	O	0.613017	0.549479	0.483554
	H337	H	0.619422	0.544401	0.483597
	H338	H	0.607734	0.550396	0.486177
	O339	O	0.955998	0.016091	1.118717
	H340	H	0.967946	0.022566	1.123047
	H341	H	0.954325	-0.002039	1.121430
	O342	O	0.162973	1.056383	0.935366
	H343	H	0.159885	1.075199	0.944312
	H344	H	0.162397	1.063318	0.953885
	O345	O	0.033718	1.180439	0.961167
	H346	H	0.013340	1.172550	0.953110
	H347	H	0.017326	1.179263	0.972285
	O348	O	1.001592	0.826763	1.054684
	H349	H	1.016355	0.840548	1.050725
	H350	H	0.996337	0.835487	1.046715
	O351	O	-0.063341	0.124992	0.078927
	H352	H	-0.067640	0.108591	0.070752
	H353	H	-0.079048	0.130345	0.079547
	O354	O	1.114485	0.795531	-0.089535
	H355	H	1.134376	0.790798	-0.065538
	H356	H	1.118905	0.810419	-0.097563
	O357	O	0.003501	0.785299	-0.207048
	H358	H	0.009842	0.763183	-0.227387
	H359	H	0.007435	0.800036	-0.207759
	O360	O	0.296442	0.455564	0.544247
	H361	H	0.303726	0.446577	0.551007
	H362	H	0.299568	0.447643	0.542502
	O363	O	0.587038	0.478042	0.432636
	H364	H	0.575476	0.504463	0.435960
	H365	H	0.591349	0.477929	0.427589
	O366	O	0.562028	0.362520	0.539372
	H367	H	0.575748	0.371415	0.529315
	H368	H	0.565233	0.355582	0.536141
	O369	O	-0.221035	0.765601	0.014541
	H370	H	-0.219788	0.754194	0.005083
	H371	H	-0.223458	0.753151	0.027010
	O372	O	0.385731	0.548032	0.361264
	H373	H	0.380139	0.539809	0.354521
	H374	H	0.396023	0.548711	0.358395
	O375	O	0.566148	0.335917	0.462155
	H376	H	0.571112	0.327029	0.457369
	H377	H	0.558121	0.342092	0.465344
	O378	O	-0.161224	0.911145	0.198469
	H379	H	-0.163717	0.904698	0.204343
	H380	H	-0.148588	0.905048	0.212337
	O381	O	1.013879	0.186557	1.201495
	H382	H	1.011218	0.203425	1.221742
	H383	H	1.005519	0.184852	1.195542
	O384	O	0.389857	0.367869	0.493058
	H385	H	0.392727	0.373011	0.494922
	H386	H	0.396477	0.363131	0.494851
	O387	O	0.916287	0.988025	-0.034903
	H388	H	0.917944	1.005561	-0.028436
	H389	H	0.901176	0.979158	-0.038588
	O390	O	0.488551	0.480494	0.538152
	H391	H	0.491029	0.489030	0.539993
	H392	H	0.483958	0.472746	0.532386
	O393	O	1.205479	0.193885	1.014586
	H394	H	1.183204	0.202158	1.004372
	H395	H	1.221976	0.223406	1.019496
	O396	O	-0.185357	0.804128	1.173416
	H397	H	-0.158107	0.816535	1.183440
	H398	H	-0.173169	0.792754	1.145066
	O399	O	-0.152891	0.946696	0.874649
	H400	H	-0.164078	0.938461	0.859287
	H401	H	-0.152836	0.945813	0.865721
	O402	O	0.997830	0.181315	0.783879
	H403	H	1.011489	0.156533	0.789636
	H404	H	1.000680	0.200368	0.757134
	O405	O	0.116153	0.094906	-0.218115
	H406	H	0.140777	0.072130	-0.219953
	H407	H	0.106064	0.071370	-0.212586
	O408	O	1.566793	1.458274	1.553706
	H409	H	1.551318	1.461600	1.544458
	H410	H	1.566501	1.469498	1.566344
	O411	O	0.548997	1.396751	0.326246
	H412	H	0.560689	1.410181	0.320364
	H413	H	0.556426	1.410632	0.335643
	O414	O	0.189952	-0.209312	0.901027
	H415	H	0.203546	-0.221181	0.909902
	H416	H	0.196509	-0.175663	0.912869
	O417	O	-0.118384	-0.163892	0.921504
	H418	H	-0.113225	-0.168847	0.924135
	H419	H	-0.103462	-0.164093	0.937289
	O420	O	-0.221965	1.020782	-0.225955
	H421	H	-0.240580	1.033621	-0.241792
	H422	H	-0.231169	1.033559	-0.228905
	O423	O	0.799512	0.193246	-0.026520
	H424	H	0.796868	0.167338	-0.019181
	H425	H	0.772203	0.218585	-0.028446
	O426	O	0.000597	-0.220028	1.141101
	H427	H	0.022267	-0.223833	1.131872
	H428	H	0.007847	-0.212989	1.133742
	O429	O	1.206474	0.843456	1.028272
	H430	H	1.205554	0.839872	1.025367
	H431	H	1.210065	0.861711	1.041059
