data_Molecule from HDF5

_cell_length_a		16.268651
_cell_length_b		16.258110
_cell_length_c		16.377668
_cell_angle_alpha	89.946461
_cell_angle_beta	90.123848
_cell_angle_gamma	90.019239
_symmetry_space_group_name_H-M	'P 1'
_symmetry_Int_Tables_number		1

loop_
	_symmetry_equiv_pos_as_xyz
	x,y,z

loop_
	_atom_site_label
	_atom_site_type_symbol
	_atom_site_fract_x
	_atom_site_fract_y
	_atom_site_fract_z
	H0	H	0.404915	0.837379	0.714304
	H1	H	0.602949	0.164952	0.714279
	H2	H	0.602058	0.836265	0.286982
	H3	H	0.403908	0.163741	0.283058
	H4	H	0.717932	0.400697	0.834895
	H5	H	0.720376	0.598560	0.160669
	H6	H	0.288832	0.598436	0.835554
	H7	H	0.289519	0.401204	0.161198
	H8	H	0.840141	0.715661	0.398340
	H9	H	0.167988	0.714199	0.595103
	H10	H	0.839537	0.287144	0.594646
	H11	H	0.168076	0.288177	0.401072
	H12	H	0.840830	0.400804	0.712813
	H13	H	0.166104	0.602409	0.714460
	H14	H	0.840497	0.599732	0.281878
	H15	H	0.167505	0.401794	0.284164
	H16	H	0.404809	0.714724	0.835877
	H17	H	0.603203	0.713658	0.161947
	H18	H	0.602054	0.283851	0.835762
	H19	H	0.406300	0.285884	0.161941
	H20	H	0.716095	0.836434	0.404054
	H21	H	0.718510	0.165095	0.597492
	H22	H	0.289105	0.837599	0.597951
	H23	H	0.290834	0.165223	0.402183
	H24	H	0.905836	0.336171	0.211970
	H25	H	0.103867	0.664394	0.212538
	H26	H	0.102933	0.337799	0.781981
	H27	H	0.903550	0.664068	0.782425
	H28	H	0.219926	0.903531	0.336591
	H29	H	0.218398	0.099859	0.662346
	H30	H	0.787330	0.100263	0.336799
	H31	H	0.791390	0.902339	0.662466
	H32	H	0.339504	0.213281	0.901870
	H33	H	0.668509	0.212786	0.096564
	H34	H	0.339855	0.785843	0.096398
	H35	H	0.668060	0.786730	0.903106
	H36	H	0.340330	0.900544	0.214368
	H37	H	0.667355	0.099328	0.215435
	H38	H	0.340713	0.100166	0.783665
	H39	H	0.667422	0.899550	0.784023
	H40	H	0.907063	0.213407	0.334336
	H41	H	0.102747	0.217148	0.660732
	H42	H	0.102753	0.787550	0.335111
	H43	H	0.906541	0.784781	0.660761
	H44	H	0.217736	0.336780	0.899542
	H45	H	0.218335	0.664706	0.094802
	H46	H	0.791491	0.335405	0.094189
	H47	H	0.788618	0.663974	0.899555
	H48	H	0.417432	0.116287	0.593696
	H49	H	0.596443	0.883764	0.597180
	H50	H	0.604020	0.120567	0.405581
	H51	H	0.408678	0.882263	0.402559
	H52	H	0.596216	0.405441	0.113761
	H53	H	0.599178	0.593571	0.882113
	H54	H	0.413210	0.602707	0.116345
	H55	H	0.406732	0.400166	0.880217
	H56	H	0.123108	0.598550	0.399463
	H57	H	0.888561	0.596614	0.583587
	H58	H	0.118996	0.410331	0.587773
	H59	H	0.885339	0.405623	0.401181
	H60	H	0.119926	0.410949	0.593467
	H61	H	0.889471	0.585655	0.590538
	H62	H	0.119177	0.595949	0.410451
	H63	H	0.887272	0.406082	0.406060
	H64	H	0.401710	0.588651	0.115258
	H65	H	0.595261	0.590466	0.883685
	H66	H	0.600142	0.404415	0.114650
	H67	H	0.407182	0.413884	0.883385
	H68	H	0.590404	0.118075	0.399836
	H69	H	0.594796	0.885617	0.590473
	H70	H	0.409163	0.116926	0.588716
	H71	H	0.416838	0.885529	0.407008
	H72	H	0.904915	0.617316	0.086121
	H73	H	0.097967	0.384895	0.087390
	H74	H	0.097149	0.617633	0.906448
	H75	H	0.914429	0.383657	0.898017
	H76	H	0.099802	0.907719	0.614540
	H77	H	0.099865	0.101815	0.380208
	H78	H	0.912182	0.097361	0.615441
	H79	H	0.914737	0.911010	0.385521
	H80	H	0.618500	0.085559	0.904100
	H81	H	0.384569	0.092026	0.103841
	H82	H	0.616550	0.909995	0.085965
	H83	H	0.386186	0.908660	0.900284
	H84	H	0.621648	0.912749	0.102717
	H85	H	0.386935	0.102326	0.085615
	H86	H	0.623553	0.097982	0.901600
	H87	H	0.386925	0.903015	0.909302
	H88	H	0.909662	0.093342	0.614173
	H89	H	0.102951	0.087353	0.383560
	H90	H	0.094912	0.909152	0.613451
	H91	H	0.910204	0.901847	0.381027
	H92	H	0.096891	0.617768	0.903494
	H93	H	0.100165	0.381918	0.094838
	H94	H	0.912655	0.618653	0.098325
	H95	H	0.913545	0.386321	0.909382
	H96	H	0.408695	0.119751	0.598101
	H97	H	0.601228	0.883952	0.592640
	H98	H	0.593286	0.114606	0.413585
	H99	H	0.408183	0.885258	0.412125
	H100	H	0.599113	0.408298	0.113506
	H101	H	0.594091	0.595741	0.882982
	H102	H	0.419215	0.586861	0.110065
	H103	H	0.418343	0.405188	0.885049
	H104	H	0.119389	0.587499	0.402450
	H105	H	0.884153	0.596740	0.595646
	H106	H	0.121274	0.405809	0.591220
	H107	H	0.887291	0.410056	0.403007
	H108	H	0.918658	0.613711	0.086644
	H109	H	0.092694	0.384959	0.093397
	H110	H	0.094821	0.616700	0.904629
	H111	H	0.904281	0.381850	0.903952
	H112	H	0.095886	0.904402	0.614588
	H113	H	0.088786	0.093025	0.385581
	H114	H	0.914345	0.093678	0.612566
	H115	H	0.904701	0.911554	0.382428
	H116	H	0.618882	0.094255	0.913923
	H117	H	0.392349	0.081974	0.087331
	H118	H	0.624017	0.896865	0.095427
	H119	H	0.390321	0.912749	0.908710
	C120	C	0.382646	0.009676	0.621411
	C121	C	0.626168	0.992650	0.621906
	C122	C	0.624628	0.009064	0.378857
	C123	C	0.382598	0.992349	0.378290
	C124	C	0.626048	0.377629	0.006044
	C125	C	0.625473	0.621380	0.990441
	C126	C	0.382229	0.621761	0.006703
	C127	C	0.382576	0.378270	0.990357
	C128	C	0.012462	0.622361	0.375795
	C129	C	0.995164	0.622074	0.618873
	C130	C	0.011880	0.379826	0.618951
	C131	C	0.995415	0.379050	0.375754
	C132	C	0.883318	0.508230	0.118600
	C133	C	0.125925	0.492199	0.120094
	C134	C	0.125079	0.509105	0.876501
	C135	C	0.881882	0.492160	0.875440
	C136	C	0.125892	0.879159	0.506511
	C137	C	0.126031	0.122843	0.490623
	C138	C	0.882899	0.122981	0.506642
	C139	C	0.882348	0.879190	0.490423
	C140	C	0.512260	0.121348	0.878017
	C141	C	0.495863	0.121115	0.121018
	C142	C	0.512224	0.877818	0.122202
	C143	C	0.495957	0.878938	0.877799
	C144	C	0.384433	0.886110	0.676364
	C145	C	0.623415	0.115956	0.676638
	C146	C	0.622670	0.885655	0.324378
	C147	C	0.384264	0.115390	0.322182
	C148	C	0.680197	0.380570	0.883647
	C149	C	0.682005	0.618910	0.112169
	C150	C	0.327187	0.618787	0.884048
	C151	C	0.326992	0.380449	0.112505
	C152	C	0.888988	0.677546	0.378109
	C153	C	0.118691	0.677333	0.616359
	C154	C	0.888728	0.324586	0.615471
	C155	C	0.118927	0.324903	0.379653
	C156	C	0.889205	0.381190	0.674158
	C157	C	0.117825	0.621581	0.675587
	C158	C	0.889063	0.620146	0.320162
	C159	C	0.118634	0.381757	0.321839
	C160	C	0.384306	0.677249	0.884509
	C161	C	0.623562	0.675948	0.112930
	C162	C	0.622591	0.322273	0.884010
	C163	C	0.385382	0.323382	0.113153
	C164	C	0.679092	0.885678	0.382731
	C165	C	0.680945	0.116193	0.618797
	C166	C	0.327183	0.886350	0.618504
	C167	C	0.328032	0.115961	0.381060
	C168	C	0.885475	0.385002	0.173865
	C169	C	0.124095	0.615472	0.174787
	C170	C	0.122887	0.386118	0.820869
	C171	C	0.884027	0.615461	0.820656
	C172	C	0.181541	0.882459	0.384749
	C173	C	0.180601	0.120334	0.613558
	C174	C	0.826268	0.120505	0.384746
	C175	C	0.828278	0.881507	0.613202
	C176	C	0.388656	0.175788	0.880899
	C177	C	0.619158	0.175797	0.117869
	C178	C	0.388830	0.823531	0.117850
	C179	C	0.618916	0.823704	0.881409
	C180	C	0.389033	0.880057	0.176723
	C181	C	0.618848	0.119234	0.176685
	C182	C	0.389254	0.119369	0.822663
	C183	C	0.618862	0.880209	0.822571
	C184	C	0.885678	0.176745	0.383559
	C185	C	0.123604	0.178799	0.612625
	C186	C	0.123275	0.824829	0.384025
	C187	C	0.885849	0.823424	0.612588
	C188	C	0.179668	0.385638	0.879487
	C189	C	0.180828	0.615681	0.116325
	C190	C	0.828832	0.384543	0.115209
	C191	C	0.826617	0.615265	0.878515
	C192	C	0.405095	0.095407	0.599821
	C193	C	0.603968	0.906683	0.599946
	C194	C	0.602392	0.095447	0.400137
	C195	C	0.404790	0.906622	0.400642
	C196	C	0.604767	0.399635	0.091961
	C197	C	0.602868	0.599611	0.904973
	C198	C	0.404931	0.599365	0.091881
	C199	C	0.404401	0.400036	0.904993
	C200	C	0.098116	0.600443	0.397521
	C201	C	0.909712	0.599454	0.596529
	C202	C	0.097906	0.402602	0.597261
	C203	C	0.909128	0.400795	0.397093
	C204	C	0.905498	0.594309	0.096717
	C205	C	0.103566	0.406199	0.098294
	C206	C	0.102916	0.595130	0.898428
	C207	C	0.904345	0.406078	0.897218
	C208	C	0.103552	0.900799	0.592153
	C209	C	0.103887	0.100596	0.405177
	C210	C	0.905456	0.101331	0.592066
	C211	C	0.903601	0.901670	0.405025
	C212	C	0.598186	0.099132	0.900160
	C213	C	0.409992	0.098603	0.098851
	C214	C	0.598547	0.900224	0.101052
	C215	C	0.409960	0.901473	0.899670
	Zn216	Zn	0.504117	0.000203	0.749624
	Zn217	Zn	0.503552	0.000222	0.250065
	Zn218	Zn	0.754625	0.499735	-0.002399
	Zn219	Zn	0.253783	0.500159	-0.001859
	Zn220	Zn	0.003918	0.750115	0.497647
	Zn221	Zn	0.004227	0.251807	0.497438
	Zn222	Zn	0.003635	0.501208	0.747519
	Zn223	Zn	0.003775	0.500545	0.247999
	Zn224	Zn	0.503809	0.750299	-0.000922
	Zn225	Zn	0.503853	0.249085	-0.000833
	Zn226	Zn	0.753842	0.001574	0.499193
	Zn227	Zn	0.254494	0.001599	0.499614
	N228	N	0.418474	0.963517	0.678176
	N229	N	0.590059	0.038083	0.678629
	N230	N	0.589473	0.963411	0.321760
	N231	N	0.417360	0.037607	0.320334
	N232	N	0.682559	0.414180	0.960764
	N233	N	0.683049	0.585444	0.035035
	N234	N	0.325668	0.585354	0.961067
	N235	N	0.325342	0.414073	0.035389
	N236	N	0.966429	0.678941	0.412038
	N237	N	0.041601	0.677586	0.581590
	N238	N	0.966246	0.323843	0.581596
	N239	N	0.041258	0.323391	0.412688
	N240	N	0.966631	0.414762	0.676349
	N241	N	0.040300	0.587941	0.677282
	N242	N	0.966704	0.586597	0.318400
	N243	N	0.040774	0.414575	0.319188
	N244	N	0.417915	0.679144	0.961734
	N245	N	0.589112	0.677642	0.036161
	N246	N	0.589798	0.320384	0.961277
	N247	N	0.419279	0.321798	0.036195
	N248	N	0.680542	0.963433	0.415840
	N249	N	0.682800	0.038653	0.585454
	N250	N	0.326130	0.963922	0.584944
	N251	N	0.326828	0.038600	0.415145
	N252	N	0.918841	0.462771	0.175899
	N253	N	0.090576	0.537669	0.177336
	N254	N	0.089660	0.463782	0.818966
	N255	N	0.917611	0.537797	0.818805
	N256	N	0.183376	0.915243	0.462049
	N257	N	0.182296	0.086469	0.536604
	N258	N	0.824593	0.087842	0.462276
	N259	N	0.825952	0.915565	0.536188
	N260	N	0.466123	0.177080	0.914904
	N261	N	0.541801	0.176809	0.083872
	N262	N	0.466317	0.822047	0.084730
	N263	N	0.541564	0.823044	0.915195
	N264	N	0.466905	0.913228	0.179439
	N265	N	0.541091	0.085931	0.178797
	N266	N	0.467131	0.086493	0.820622
	N267	N	0.541300	0.913897	0.820377
	N268	N	0.920175	0.178366	0.460257
	N269	N	0.090207	0.180557	0.535361
	N270	N	0.089396	0.822737	0.460927
	N271	N	0.918786	0.821904	0.535380
	N272	N	0.181069	0.463075	0.913420
	N273	N	0.182005	0.538118	0.083046
	N274	N	0.827193	0.462241	0.081796
	N275	N	0.825416	0.537732	0.911928
	O276	O	0.558507	0.498905	0.540614
	H277	H	0.554502	0.501621	0.535950
	H278	H	0.564213	0.501465	0.545702
	O279	O	-0.052029	-0.001368	-0.009153
	H280	H	-0.062054	-0.004292	-0.010524
	H281	H	-0.054110	-0.010129	-0.013772
	O282	O	0.533623	0.510453	0.503364
	H283	H	0.533713	0.515292	0.499243
	H284	H	0.525087	0.503905	0.498128
	O285	O	0.503866	0.561677	0.491477
	H286	H	0.497968	0.565207	0.492868
	H287	H	0.500927	0.572787	0.499835
	O288	O	0.939636	-0.012794	-0.007247
	H289	H	0.934123	-0.012963	-0.014751
	H290	H	0.942118	0.005198	-0.010829
	O291	O	-0.498298	0.508803	-0.504238
	H292	H	-0.492988	0.509294	-0.505123
	H293	H	-0.493773	0.506136	-0.509171
	O294	O	0.437522	0.528348	0.531051
	H295	H	0.442787	0.519856	0.526350
	H296	H	0.439079	0.521504	0.530806
	O297	O	-0.066098	1.024293	0.007458
	H298	H	-0.059797	1.022069	0.010660
	H299	H	-0.065801	1.025212	0.011818
	O300	O	0.963688	0.032174	0.995070
	H301	H	0.955208	0.026438	1.001698
	H302	H	0.971938	0.033992	0.991697
	O303	O	0.455438	0.556997	0.520553
	H304	H	0.457439	0.561012	0.521315
	H305	H	0.463085	0.555830	0.523869
	O306	O	0.512185	1.528557	1.519121
	H307	H	0.513038	1.534167	1.517240
	H308	H	0.511578	1.528260	1.518248
	O309	O	0.466380	0.559621	0.577233
	H310	H	0.454506	0.567834	0.580003
	H311	H	0.455886	0.560195	0.572576
