data_Molecule from HDF5

_cell_length_a		16.672416
_cell_length_b		16.672816
_cell_length_c		16.615338
_cell_angle_alpha	89.972294
_cell_angle_beta	90.090748
_cell_angle_gamma	90.031585
_symmetry_space_group_name_H-M	'P 1'
_symmetry_Int_Tables_number		1

loop_
	_symmetry_equiv_pos_as_xyz
	x,y,z

loop_
	_atom_site_label
	_atom_site_type_symbol
	_atom_site_fract_x
	_atom_site_fract_y
	_atom_site_fract_z
	H0	H	0.371223	0.825379	0.693349
	H1	H	0.579191	0.136845	0.692650
	H2	H	0.581483	0.827557	0.250194
	H3	H	0.367847	0.134731	0.249532
	H4	H	0.696901	0.377070	0.818429
	H5	H	0.700057	0.589487	0.127981
	H6	H	0.250806	0.590334	0.821474
	H7	H	0.254129	0.375940	0.128307
	H8	H	0.822629	0.706753	0.363933
	H9	H	0.127093	0.707939	0.584087
	H10	H	0.821155	0.259932	0.579574
	H11	H	0.130780	0.261164	0.369534
	H12	H	0.820427	0.376651	0.694560
	H13	H	0.128529	0.589434	0.697705
	H14	H	0.821955	0.588612	0.249907
	H15	H	0.130693	0.378203	0.253860
	H16	H	0.368553	0.705041	0.820446
	H17	H	0.583350	0.705065	0.128332
	H18	H	0.581875	0.260060	0.818649
	H19	H	0.369840	0.259223	0.128363
	H20	H	0.698331	0.826972	0.365971
	H21	H	0.695653	0.136005	0.578059
	H22	H	0.253530	0.826083	0.578980
	H23	H	0.251381	0.133799	0.364970
	H24	H	0.872159	0.326104	0.193141
	H25	H	0.082451	0.635122	0.195958
	H26	H	0.082171	0.327612	0.751554
	H27	H	0.867820	0.634873	0.748530
	H28	H	0.199915	0.871570	0.319690
	H29	H	0.197250	0.086920	0.628389
	H30	H	0.755942	0.084961	0.317176
	H31	H	0.754372	0.875702	0.629292
	H32	H	0.319888	0.199268	0.872650
	H33	H	0.629861	0.205142	0.081353
	H34	H	0.321577	0.759384	0.078770
	H35	H	0.631923	0.760305	0.868154
	H36	H	0.321225	0.875897	0.194793
	H37	H	0.628843	0.090359	0.198890
	H38	H	0.318863	0.081788	0.756512
	H39	H	0.631762	0.876358	0.752436
	H40	H	0.871231	0.201446	0.317591
	H41	H	0.081078	0.202250	0.628443
	H42	H	0.082576	0.757277	0.319795
	H43	H	0.869977	0.759690	0.628510
	H44	H	0.199846	0.329543	0.865266
	H45	H	0.197891	0.635688	0.080100
	H46	H	0.755890	0.326251	0.076757
	H47	H	0.751632	0.635520	0.864713
	H48	H	0.381549	0.094139	0.562815
	H49	H	0.568723	0.867480	0.562666
	H50	H	0.556472	0.088964	0.385579
	H51	H	0.391258	0.872204	0.386866
	H52	H	0.560441	0.386613	0.085971
	H53	H	0.566551	0.572255	0.862105
	H54	H	0.389139	0.566078	0.083584
	H55	H	0.381764	0.389128	0.859535
	H56	H	0.086142	0.569625	0.385903
	H57	H	0.864789	0.570452	0.557542
	H58	H	0.088374	0.391612	0.566355
	H59	H	0.864339	0.392251	0.384588
	H60	H	0.087147	0.389011	0.562185
	H61	H	0.866123	0.566065	0.559548
	H62	H	0.084601	0.569704	0.389336
	H63	H	0.862960	0.391410	0.381239
	H64	H	0.391572	0.572365	0.085379
	H65	H	0.564776	0.567673	0.864179
	H66	H	0.572006	0.394264	0.087254
	H67	H	0.386403	0.399205	0.863916
	H68	H	0.568832	0.090907	0.393443
	H69	H	0.563720	0.869006	0.566811
	H70	H	0.386392	0.093536	0.567093
	H71	H	0.385701	0.870626	0.388393
	H72	H	0.887384	0.593531	0.061896
	H73	H	0.066365	0.369351	0.063918
	H74	H	0.063206	0.589445	0.893565
	H75	H	0.880622	0.368429	0.882461
	H76	H	0.063415	0.892621	0.584497
	H77	H	0.063454	0.069453	0.362845
	H78	H	0.882912	0.075150	0.588612
	H79	H	0.885236	0.892261	0.361146
	H80	H	0.588222	0.070560	0.883145
	H81	H	0.364875	0.070899	0.059408
	H82	H	0.586331	0.892305	0.059607
	H83	H	0.365467	0.890697	0.886072
	H84	H	0.585123	0.896748	0.059402
	H85	H	0.366450	0.068480	0.060332
	H86	H	0.588844	0.072280	0.881756
	H87	H	0.365475	0.893612	0.883233
	H88	H	0.882320	0.066983	0.585620
	H89	H	0.062817	0.072403	0.361787
	H90	H	0.064436	0.898416	0.582581
	H91	H	0.886293	0.895389	0.362896
	H92	H	0.066360	0.594341	0.884560
	H93	H	0.062701	0.369920	0.063663
	H94	H	0.886485	0.592916	0.062920
	H95	H	0.891401	0.370845	0.880502
	H96	H	0.387026	0.090853	0.560690
	H97	H	0.563055	0.870804	0.560376
	H98	H	0.568158	0.095755	0.379402
	H99	H	0.387115	0.869943	0.382806
	H100	H	0.560637	0.399704	0.081259
	H101	H	0.560977	0.572048	0.863120
	H102	H	0.384985	0.570907	0.085964
	H103	H	0.392909	0.389091	0.863398
	H104	H	0.083921	0.566884	0.386966
	H105	H	0.864295	0.569307	0.562226
	H106	H	0.086139	0.393729	0.562231
	H107	H	0.863011	0.388959	0.384296
	H108	H	0.887466	0.593108	0.062761
	H109	H	0.065144	0.370865	0.060723
	H110	H	0.056562	0.590205	0.884510
	H111	H	0.887087	0.373512	0.890552
	H112	H	0.059079	0.895290	0.581636
	H113	H	0.065687	0.070258	0.360729
	H114	H	0.889911	0.071417	0.584476
	H115	H	0.888126	0.892314	0.363021
	H116	H	0.588177	0.072540	0.883901
	H117	H	0.365683	0.069949	0.062540
	H118	H	0.586459	0.894999	0.063301
	H119	H	0.364153	0.889963	0.881921
	C120	C	0.353217	-0.010200	0.595315
	C121	C	0.596586	0.972265	0.594411
	C122	C	0.597177	-0.010127	0.352113
	C123	C	0.354119	0.972409	0.352125
	C124	C	0.596565	0.361040	-0.017955
	C125	C	0.597842	0.603836	0.965224
	C126	C	0.355083	0.602953	-0.017077
	C127	C	0.354710	0.360487	0.965202
	C128	C	-0.016296	0.602512	0.352785
	C129	C	0.966718	0.602383	0.594155
	C130	C	-0.015665	0.359706	0.595520
	C131	C	0.966626	0.359765	0.352056
	C132	C	0.855112	0.490275	0.094226
	C133	C	0.097252	0.472531	0.095172
	C134	C	0.096275	0.490346	0.852918
	C135	C	0.853525	0.473004	0.851264
	C136	C	0.096169	0.860740	0.481301
	C137	C	0.096842	0.102530	0.464433
	C138	C	0.854262	0.102305	0.482126
	C139	C	0.853940	0.860298	0.464910
	C140	C	0.484707	0.102143	0.852401
	C141	C	0.467569	0.103089	0.094912
	C142	C	0.484089	0.861655	0.093622
	C143	C	0.467810	0.859658	0.851711
	C144	C	0.352106	0.872580	0.654166
	C145	C	0.597950	0.089697	0.653328
	C146	C	0.599784	0.873744	0.290927
	C147	C	0.349887	0.088177	0.290070
	C148	C	0.656538	0.358795	0.865027
	C149	C	0.659565	0.607534	0.081508
	C150	C	0.292716	0.607030	0.867288
	C151	C	0.294443	0.357699	0.081832
	C152	C	0.868477	0.665050	0.347322
	C153	C	0.081622	0.665842	0.600115
	C154	C	0.867727	0.299755	0.597830
	C155	C	0.083969	0.301122	0.350938
	C156	C	0.867552	0.357830	0.655046
	C157	C	0.082159	0.607157	0.656832
	C158	C	0.868144	0.606488	0.290549
	C159	C	0.084050	0.359105	0.293516
	C160	C	0.350659	0.664466	0.866807
	C161	C	0.601257	0.664609	0.081868
	C162	C	0.599548	0.300514	0.865215
	C163	C	0.352353	0.300186	0.081938
	C164	C	0.657855	0.873548	0.348452
	C165	C	0.655989	0.089331	0.596383
	C166	C	0.293677	0.872691	0.597024
	C167	C	0.292133	0.087979	0.347486
	C168	C	0.853142	0.372852	0.153561
	C169	C	0.099975	0.588945	0.155437
	C170	C	0.100071	0.374395	0.791663
	C171	C	0.849967	0.588921	0.789573
	C172	C	0.158335	0.855237	0.365755
	C173	C	0.157235	0.104780	0.581565
	C174	C	0.795567	0.103528	0.364257
	C175	C	0.794188	0.857613	0.582329
	C176	C	0.366508	0.159701	0.853021
	C177	C	0.583263	0.164707	0.099187
	C178	C	0.367696	0.800650	0.096370
	C179	C	0.584948	0.800149	0.849778
	C180	C	0.367568	0.858170	0.154426
	C181	C	0.582968	0.107489	0.157467
	C182	C	0.366160	0.101704	0.795345
	C183	C	0.584965	0.857973	0.792188
	C184	C	0.853102	0.161346	0.364463
	C185	C	0.099421	0.162127	0.581773
	C186	C	0.099841	0.798510	0.365799
	C187	C	0.851448	0.799804	0.581957
	C188	C	0.158631	0.375390	0.848324
	C189	C	0.157716	0.588945	0.098093
	C190	C	0.795535	0.373156	0.095649
	C191	C	0.792504	0.589184	0.847438
	C192	C	0.377939	0.071681	0.570572
	C193	C	0.572155	0.890584	0.570182
	C194	C	0.571532	0.070827	0.378470
	C195	C	0.380529	0.891989	0.378716
	C196	C	0.571574	0.386384	0.063524
	C197	C	0.571626	0.578079	0.884271
	C198	C	0.381192	0.577088	0.063844
	C199	C	0.379980	0.385553	0.883561
	C200	C	0.064000	0.576039	0.379739
	C201	C	0.886107	0.576039	0.567303
	C202	C	0.065955	0.384392	0.570618
	C203	C	0.884692	0.383930	0.376421
	C204	C	0.879943	0.571982	0.069469
	C205	C	0.071989	0.391142	0.069798
	C206	C	0.069621	0.570530	0.879799
	C207	C	0.879079	0.391983	0.877170
	C208	C	0.069895	0.887997	0.562048
	C209	C	0.071360	0.077730	0.382981
	C210	C	0.878245	0.078105	0.564491
	C211	C	0.879279	0.885734	0.383592
	C212	C	0.567004	0.078544	0.876074
	C213	C	0.386656	0.077046	0.068443
	C214	C	0.564963	0.887501	0.068046
	C215	C	0.386222	0.884378	0.876477
	Zn216	Zn	0.475971	-0.018671	0.723190
	Zn217	Zn	0.475482	-0.018255	0.223760
	Zn218	Zn	0.725861	0.481918	-0.026450
	Zn219	Zn	0.225774	0.481978	-0.026024
	Zn220	Zn	-0.025127	0.731697	0.473534
	Zn221	Zn	-0.024569	0.231183	0.473432
	Zn222	Zn	-0.024402	0.481485	0.723413
	Zn223	Zn	-0.024602	0.481670	0.223676
	Zn224	Zn	0.476503	0.731602	-0.026303
	Zn225	Zn	0.475925	0.231852	-0.026748
	Zn226	Zn	0.725747	-0.018813	0.473548
	Zn227	Zn	0.225288	-0.019027	0.472950
	N228	N	0.388163	0.946561	0.653356
	N229	N	0.561728	0.015837	0.652441
	N230	N	0.562701	0.947184	0.293157
	N231	N	0.387728	0.015244	0.292696
	N232	N	0.654988	0.395852	0.938664
	N233	N	0.657763	0.570418	0.007913
	N234	N	0.295269	0.569345	0.940452
	N235	N	0.295762	0.394636	0.008133
	N236	N	0.941473	0.662966	0.385243
	N237	N	0.008584	0.663242	0.561954
	N238	N	0.941645	0.300505	0.561565
	N239	N	0.009831	0.301263	0.386563
	N240	N	0.941352	0.394009	0.654172
	N241	N	0.009669	0.568272	0.653248
	N242	N	0.940935	0.568190	0.293714
	N243	N	0.009898	0.394755	0.293975
	N244	N	0.388992	0.661972	0.939579
	N245	N	0.563785	0.662485	0.008377
	N246	N	0.562926	0.301680	0.939051
	N247	N	0.389088	0.301731	0.008184
	N248	N	0.656498	0.946961	0.385709
	N249	N	0.655746	0.015220	0.560695
	N250	N	0.294041	0.946918	0.561181
	N251	N	0.294557	0.014911	0.385445
	N252	N	0.889147	0.446948	0.153277
	N253	N	0.063006	0.515273	0.154038
	N254	N	0.061860	0.447096	0.794271
	N255	N	0.887369	0.515700	0.792003
	N256	N	0.156059	0.893285	0.438776
	N257	N	0.155818	0.068382	0.507522
	N258	N	0.795813	0.067833	0.438703
	N259	N	0.795322	0.894497	0.508428
	N260	N	0.441378	0.160439	0.887432
	N261	N	0.510333	0.162154	0.061066
	N262	N	0.441393	0.802304	0.059503
	N263	N	0.510876	0.800711	0.885871
	N264	N	0.440822	0.895539	0.152831
	N265	N	0.509783	0.069877	0.155013
	N266	N	0.440837	0.066902	0.794455
	N267	N	0.510862	0.893982	0.792888
	N268	N	0.888859	0.160849	0.438951
	N269	N	0.062431	0.161098	0.507967
	N270	N	0.061726	0.801812	0.438814
	N271	N	0.887864	0.801238	0.508043
	N272	N	0.156473	0.448428	0.885820
	N273	N	0.156059	0.515464	0.061276
	N274	N	0.796219	0.447400	0.060010
	N275	N	0.794492	0.516023	0.885180
	O276	O	-0.209087	1.166641	0.151618
	H277	H	-0.187098	1.157274	0.131344
	H278	H	-0.203202	1.141860	0.132604
	O279	O	0.554645	0.518541	0.248503
	H280	H	0.554941	0.516349	0.260706
	H281	H	0.528612	0.525756	0.238165
	O282	O	1.191688	-0.234483	0.952786
	H283	H	1.211999	-0.253186	0.930112
	H284	H	1.184229	-0.229794	0.937251
	O285	O	0.405765	0.421023	0.248876
	H286	H	0.410061	0.419350	0.246619
	H287	H	0.421780	0.408757	0.262009
	O288	O	0.499690	0.573149	0.613673
	H289	H	0.500710	0.580733	0.600280
	H290	H	0.492391	0.587435	0.624687
	O291	O	1.186390	0.770770	0.767571
	H292	H	1.216215	0.738318	0.733802
	H293	H	1.170081	0.790764	0.770385
	O294	O	1.213371	-0.041966	0.970789
	H295	H	1.206316	-0.029586	0.976861
	H296	H	1.219210	-0.045723	0.970099
	O297	O	1.011094	1.206192	-0.086326
	H298	H	1.004643	1.203150	-0.090433
	H299	H	0.994485	1.204662	-0.107703
	O300	O	-0.206721	-0.060363	0.942993
	H301	H	-0.194670	-0.080989	0.938213
	H302	H	-0.202281	-0.071422	0.940496
	O303	O	0.443471	0.713078	0.509629
	H304	H	0.453121	0.710987	0.510125
	H305	H	0.439816	0.716669	0.487783
	O306	O	0.407968	0.545376	0.414089
	H307	H	0.425384	0.545844	0.418894
	H308	H	0.403338	0.551155	0.409399
	O309	O	0.505371	0.704700	0.697063
	H310	H	0.515578	0.710711	0.706822
	H311	H	0.515999	0.722454	0.709266
	O312	O	0.272936	0.370451	0.652364
	H313	H	0.276809	0.363967	0.667729
	H314	H	0.265299	0.394506	0.650233
	O315	O	1.486705	1.325148	1.346926
	H316	H	1.494252	1.308584	1.319764
	H317	H	1.509484	1.335994	1.358792
	O318	O	0.699410	0.253919	0.445108
	H319	H	0.711153	0.252887	0.417767
	H320	H	0.717023	0.237422	0.423475
	O321	O	-0.034685	0.758579	0.852624
	H322	H	-0.031000	0.762053	0.841644
	H323	H	-0.030266	0.763101	0.850744
	O324	O	1.029669	0.911492	0.202533
	H325	H	1.042106	0.914282	0.211993
	H326	H	1.033739	0.912870	0.203119
	O327	O	0.015777	-0.032984	0.832974
	H328	H	0.031721	-0.018397	0.830335
	H329	H	0.025933	-0.026426	0.833657
	O330	O	0.704186	0.607088	0.460870
	H331	H	0.710200	0.624246	0.461463
	H332	H	0.707799	0.616575	0.456577
	O333	O	0.700071	0.447710	0.250697
	H334	H	0.701366	0.461018	0.241200
	H335	H	0.709516	0.441322	0.234606
	O336	O	0.254253	0.699514	0.453300
	H337	H	0.270552	0.693779	0.429663
	H338	H	0.229956	0.725458	0.449763
	O339	O	1.163320	-0.210588	1.160241
	H340	H	1.160661	-0.186611	1.133495
	H341	H	1.133065	-0.199440	1.147866
	O342	O	0.693915	0.512810	-0.306793
	H343	H	0.691706	0.516336	-0.303870
	H344	H	0.704302	0.506746	-0.289560
	O345	O	0.105438	0.889334	0.858838
	H346	H	0.092039	0.912883	0.843882
	H347	H	0.112640	0.894760	0.864522
	O348	O	0.461764	0.517389	0.507818
	H349	H	0.481467	0.521962	0.527474
	H350	H	0.462120	0.503502	0.504291
	O351	O	0.685016	1.270398	0.265423
	H352	H	0.712970	1.252788	0.234801
	H353	H	0.664111	1.297013	0.258329
	O354	O	0.506672	-0.560346	0.547688
	H355	H	0.511381	-0.556074	0.552876
	H356	H	0.520347	-0.549278	0.532739
	O357	O	1.192855	-0.000984	1.189865
	H358	H	1.217809	0.005696	1.208221
	H359	H	1.191855	0.024033	1.178695
	O360	O	0.748156	1.014696	1.014146
	H361	H	0.749505	0.999559	1.001886
	H362	H	0.754153	0.998955	1.004848
	O363	O	0.098303	-0.147740	-0.242953
	H364	H	0.112862	-0.162246	-0.239700
	H365	H	0.121153	-0.158904	-0.272459
	O366	O	0.603953	0.412147	0.421995
	H367	H	0.613642	0.435095	0.427176
	H368	H	0.613102	0.404461	0.425391
	O369	O	0.454227	0.266269	0.347322
	H370	H	0.458898	0.261691	0.341047
	H371	H	0.470448	0.252197	0.357855
	O372	O	0.761317	0.762203	0.001056
	H373	H	0.771428	0.746926	-0.002787
	H374	H	0.757942	0.739962	0.000552
	O375	O	1.438808	0.251732	0.553388
	H376	H	1.418547	0.247635	0.570046
	H377	H	1.428523	0.242183	0.570760
	O378	O	0.245606	0.431437	0.440327
	H379	H	0.247602	0.435244	0.444124
	H380	H	0.251162	0.415628	0.450601
	O381	O	-0.199701	0.819124	0.793234
	H382	H	-0.192389	0.824733	0.788797
	H383	H	-0.186685	0.828839	0.811304
	O384	O	0.762670	0.195672	0.933513
	H385	H	0.763827	0.187952	0.952686
	H386	H	0.749500	0.198659	0.943653
	O387	O	1.261733	0.512893	0.261085
	H388	H	1.262754	0.502841	0.250528
	H389	H	1.259248	0.507023	0.264967
	O390	O	0.268770	0.698209	0.258685
	H391	H	0.259851	0.655305	0.267369
	H392	H	0.232364	0.725316	0.226675
	O393	O	0.350176	0.504539	0.703991
	H394	H	0.350761	0.514041	0.701597
	H395	H	0.349535	0.502895	0.703872
	O396	O	0.118681	1.044417	0.821562
	H397	H	0.109064	1.048985	0.829708
	H398	H	0.115626	1.029677	0.804142
	O399	O	-0.080560	0.012013	0.846528
	H400	H	-0.072057	0.020829	0.840838
	H401	H	-0.083112	0.006352	0.837288
	O402	O	0.562492	0.597244	0.347466
	H403	H	0.554520	0.599281	0.367071
	H404	H	0.555496	0.620889	0.328135
	O405	O	0.913700	0.014645	1.169918
	H406	H	0.922626	0.009124	1.171462
	H407	H	0.924418	0.014615	1.154638
	O408	O	-0.230793	0.186783	-0.235948
	H409	H	-0.264803	0.220525	-0.264316
	H410	H	-0.238660	0.184561	-0.191285
	O411	O	0.951727	0.901744	0.753241
	H412	H	0.958632	0.905588	0.757864
	H413	H	0.944041	0.910673	0.749789
	O414	O	1.019761	0.036564	1.083331
	H415	H	1.024575	0.032860	1.077728
	H416	H	1.025776	0.040098	1.069002
	O417	O	0.516317	0.261917	0.534887
	H418	H	0.533898	0.264485	0.539300
	H419	H	0.518752	0.255578	0.547427
	O420	O	0.282830	0.671604	0.664731
	H421	H	0.292003	0.643882	0.650459
	H422	H	0.303568	0.663254	0.639473
	O423	O	0.191335	0.200987	1.002258
	H424	H	0.204331	0.218129	0.999459
	H425	H	0.184753	0.196932	1.015210
	O426	O	0.616778	0.412079	0.613049
	H427	H	0.613555	0.420118	0.603743
	H428	H	0.615381	0.417393	0.610386
	O429	O	0.753703	1.013269	0.752329
	H430	H	0.744918	1.016857	0.740081
	H431	H	0.744763	1.041494	0.740026
	O432	O	-0.038663	1.114518	1.014544
	H433	H	-0.030067	1.127885	0.998132
	H434	H	-0.033464	1.115486	1.030045
	O435	O	1.031632	0.837671	0.986822
	H436	H	1.036697	0.844270	0.974366
	H437	H	1.047811	0.834518	0.981988
	O438	O	0.500462	-0.646123	0.698267
	H439	H	0.494797	-0.651672	0.696697
	H440	H	0.495166	-0.650847	0.701613
	O441	O	-0.332946	0.288553	-0.332502
	H442	H	-0.350002	0.304430	-0.353853
	H443	H	-0.349131	0.314224	-0.348348
	O444	O	0.262352	0.262515	0.495213
	H445	H	0.249472	0.238817	0.505064
	H446	H	0.274578	0.262833	0.510410
	O447	O	-0.335842	1.664604	0.296962
	H448	H	-0.359228	1.651594	0.297977
	H449	H	-0.314198	1.683919	0.281962
	O450	O	-0.614420	0.495506	1.504696
	H451	H	-0.608512	0.489226	1.497133
	H452	H	-0.603175	0.495377	1.491405
	O453	O	0.284810	0.583973	0.536775
	H454	H	0.288261	0.583960	0.525949
	H455	H	0.281034	0.583829	0.523288
	O456	O	0.774997	-0.219777	1.167878
	H457	H	0.787138	-0.221886	1.134844
	H458	H	0.773789	-0.178270	1.174547
	O459	O	0.944354	1.203872	-0.248280
	H460	H	0.934175	1.227325	-0.272553
	H461	H	0.904392	1.203722	-0.251431
	O462	O	0.284457	0.293783	0.283036
	H463	H	0.299456	0.303873	0.311313
	H464	H	0.305528	0.316793	0.294840
	O465	O	0.925567	-0.019161	0.054212
	H466	H	0.927826	-0.021440	0.051781
	H467	H	0.929162	-0.017533	0.054021
	O468	O	0.670795	0.556318	0.520292
	H469	H	0.683159	0.578394	0.512981
	H470	H	0.655173	0.559307	0.517320
	O471	O	0.996492	0.830294	1.008222
	H472	H	0.993332	0.824981	1.018358
	H473	H	1.014809	0.831702	0.991973
	O474	O	0.145042	0.160986	0.838865
	H475	H	0.147000	0.170461	0.869407
	H476	H	0.127840	0.161887	0.840292
	O477	O	0.678209	0.686647	0.678232
	H478	H	0.664100	0.667476	0.668506
	H479	H	0.702599	0.695356	0.682215
	O480	O	0.236225	0.234801	0.716550
	H481	H	0.225000	0.239740	0.709510
	H482	H	0.217250	0.229753	0.727524
	O483	O	0.530143	0.667072	0.390660
	H484	H	0.527142	0.670618	0.367164
	H485	H	0.529791	0.675845	0.385685
	O486	O	1.185672	0.192477	1.184994
	H487	H	1.216666	0.226332	1.216330
	H488	H	1.170031	0.190277	1.166098
	O489	O	0.752192	0.951684	0.189481
	H490	H	0.753098	0.958061	0.199312
	H491	H	0.745706	0.960296	0.199028
	O492	O	-0.017869	0.115162	0.099486
	H493	H	-0.010946	0.130218	0.118994
	H494	H	-0.019742	0.109570	0.094972
	O495	O	-0.004463	1.177319	1.143412
	H496	H	-0.001498	1.168154	1.134683
	H497	H	0.007332	1.188267	1.164160
	O498	O	0.950772	0.764024	1.188758
	H499	H	0.940909	0.759412	1.204160
	H500	H	0.935433	0.763567	1.194572
	O501	O	0.423850	0.628100	0.297639
	H502	H	0.401613	0.612934	0.306507
	H503	H	0.415985	0.642965	0.282021
