data_Molecule from HDF5

_cell_length_a		16.222669
_cell_length_b		16.293740
_cell_length_c		16.298195
_cell_angle_alpha	89.926467
_cell_angle_beta	89.728131
_cell_angle_gamma	90.023487
_symmetry_space_group_name_H-M	'P 1'
_symmetry_Int_Tables_number		1

loop_
	_symmetry_equiv_pos_as_xyz
	x,y,z

loop_
	_atom_site_label
	_atom_site_type_symbol
	_atom_site_fract_x
	_atom_site_fract_y
	_atom_site_fract_z
	H0	H	0.389541	0.835762	0.710894
	H1	H	0.587794	0.163541	0.710550
	H2	H	0.589638	0.836875	0.278870
	H3	H	0.389110	0.163445	0.279523
	H4	H	0.703482	0.401296	0.830278
	H5	H	0.702347	0.597485	0.157288
	H6	H	0.275021	0.599104	0.830306
	H7	H	0.272239	0.400408	0.157084
	H8	H	0.824036	0.713941	0.394650
	H9	H	0.151679	0.716186	0.590912
	H10	H	0.823586	0.287859	0.590633
	H11	H	0.152043	0.285355	0.392354
	H12	H	0.825108	0.398646	0.710213
	H13	H	0.152069	0.599909	0.706514
	H14	H	0.824460	0.598695	0.279699
	H15	H	0.152598	0.402255	0.278440
	H16	H	0.390117	0.716612	0.831222
	H17	H	0.588748	0.714605	0.157689
	H18	H	0.589173	0.284354	0.831113
	H19	H	0.388763	0.285115	0.157156
	H20	H	0.702122	0.836140	0.397072
	H21	H	0.702033	0.164262	0.592427
	H22	H	0.273691	0.835497	0.593341
	H23	H	0.275257	0.164392	0.398502
	H24	H	0.888266	0.337443	0.209289
	H25	H	0.087197	0.663852	0.207158
	H26	H	0.088656	0.336728	0.776567
	H27	H	0.889665	0.663348	0.777010
	H28	H	0.204593	0.901651	0.331007
	H29	H	0.200452	0.097895	0.659218
	H30	H	0.773910	0.098785	0.330360
	H31	H	0.773837	0.902468	0.657699
	H32	H	0.323911	0.213734	0.896684
	H33	H	0.652662	0.214546	0.092210
	H34	H	0.325854	0.783718	0.096383
	H35	H	0.652096	0.785625	0.894385
	H36	H	0.325359	0.900203	0.211191
	H37	H	0.653598	0.098233	0.206894
	H38	H	0.324489	0.099296	0.781393
	H39	H	0.652359	0.901101	0.779819
	H40	H	0.889227	0.215079	0.329942
	H41	H	0.086075	0.216471	0.657218
	H42	H	0.087082	0.787060	0.329032
	H43	H	0.886875	0.783724	0.655936
	H44	H	0.204565	0.336106	0.893245
	H45	H	0.201745	0.664111	0.090265
	H46	H	0.773745	0.336629	0.091506
	H47	H	0.774973	0.664074	0.894775
	H48	H	0.396444	0.113014	0.582275
	H49	H	0.580215	0.882079	0.596035
	H50	H	0.579790	0.117460	0.398850
	H51	H	0.388643	0.884310	0.408768
	H52	H	0.574309	0.395908	0.111492
	H53	H	0.581909	0.594597	0.877787
	H54	H	0.389034	0.591889	0.111616
	H55	H	0.399046	0.408070	0.878683
	H56	H	0.107451	0.604787	0.403759
	H57	H	0.873551	0.589900	0.582151
	H58	H	0.105235	0.409974	0.585278
	H59	H	0.869933	0.403179	0.400776
	H60	H	0.105161	0.405920	0.583505
	H61	H	0.871172	0.589735	0.589017
	H62	H	0.100208	0.584773	0.405340
	H63	H	0.873191	0.409419	0.404127
	H64	H	0.398122	0.586598	0.107928
	H65	H	0.581531	0.592584	0.878361
	H66	H	0.592051	0.407365	0.113588
	H67	H	0.396885	0.403496	0.876813
	H68	H	0.579357	0.115826	0.402844
	H69	H	0.574634	0.887113	0.584788
	H70	H	0.386736	0.119269	0.590956
	H71	H	0.395026	0.880453	0.392946
	H72	H	0.893888	0.615334	0.081331
	H73	H	0.083810	0.382853	0.087823
	H74	H	0.083052	0.617187	0.896481
	H75	H	0.892913	0.380964	0.891485
	H76	H	0.073673	0.911524	0.606971
	H77	H	0.077891	0.093147	0.378782
	H78	H	0.892376	0.099675	0.612258
	H79	H	0.898096	0.909732	0.378494
	H80	H	0.606991	0.105701	0.907720
	H81	H	0.371925	0.093009	0.087378
	H82	H	0.605110	0.905729	0.084314
	H83	H	0.370651	0.898271	0.909544
	H84	H	0.605584	0.909835	0.087782
	H85	H	0.372151	0.091669	0.088606
	H86	H	0.600268	0.082118	0.909830
	H87	H	0.376285	0.916812	0.909465
	H88	H	0.891163	0.088922	0.609538
	H89	H	0.083594	0.096125	0.377108
	H90	H	0.077611	0.897762	0.611031
	H91	H	0.896714	0.903645	0.376639
	H92	H	0.078702	0.614419	0.899742
	H93	H	0.076890	0.383708	0.089088
	H94	H	0.890664	0.618677	0.090226
	H95	H	0.906393	0.387437	0.902009
	H96	H	0.400262	0.116124	0.595693
	H97	H	0.587691	0.883279	0.584443
	H98	H	0.583191	0.116639	0.401351
	H99	H	0.405904	0.887372	0.405191
	H100	H	0.575215	0.416546	0.105678
	H101	H	0.580527	0.593316	0.877892
	H102	H	0.398689	0.597450	0.110370
	H103	H	0.394055	0.407507	0.877431
	H104	H	0.109410	0.592417	0.386850
	H105	H	0.870502	0.596041	0.584960
	H106	H	0.103096	0.408900	0.581306
	H107	H	0.870540	0.409299	0.396337
	H108	H	0.900608	0.615904	0.089135
	H109	H	0.080251	0.385046	0.082483
	H110	H	0.084156	0.615141	0.902023
	H111	H	0.890440	0.384352	0.908837
	H112	H	0.087716	0.908814	0.611722
	H113	H	0.083456	0.090150	0.379185
	H114	H	0.900809	0.093347	0.607533
	H115	H	0.891639	0.907896	0.375639
	H116	H	0.608827	0.091208	0.888027
	H117	H	0.371758	0.093793	0.089718
	H118	H	0.607122	0.905275	0.088836
	H119	H	0.368111	0.908425	0.892945
	C120	C	0.366273	0.007917	0.617889
	C121	C	0.609363	0.992499	0.616210
	C122	C	0.610274	0.008681	0.372530
	C123	C	0.367481	0.991914	0.373739
	C124	C	0.609992	0.378119	0.002291
	C125	C	0.610260	0.622275	0.985742
	C126	C	0.367108	0.621568	0.002531
	C127	C	0.366798	0.377893	0.985392
	C128	C	-0.003091	0.622331	0.370872
	C129	C	0.979839	0.621474	0.613973
	C130	C	-0.003295	0.379089	0.613694
	C131	C	0.979696	0.378691	0.371308
	C132	C	0.866380	0.508571	0.115598
	C133	C	0.109462	0.491817	0.114559
	C134	C	0.111288	0.508095	0.870054
	C135	C	0.867420	0.492043	0.871584
	C136	C	0.109093	0.878194	0.501922
	C137	C	0.109592	0.122137	0.486159
	C138	C	0.866055	0.122581	0.502007
	C139	C	0.866068	0.878384	0.484969
	C140	C	0.496888	0.121663	0.873633
	C141	C	0.480443	0.121610	0.116167
	C142	C	0.497918	0.877868	0.116853
	C143	C	0.480035	0.879100	0.874430
	C144	C	0.368678	0.884724	0.672979
	C145	C	0.607694	0.114997	0.671963
	C146	C	0.608807	0.885592	0.317296
	C147	C	0.369298	0.114742	0.318126
	C148	C	0.665819	0.380671	0.879359
	C149	C	0.665121	0.618793	0.108454
	C150	C	0.312567	0.619595	0.879290
	C151	C	0.310302	0.379987	0.108246
	C152	C	0.873376	0.676723	0.373852
	C153	C	0.102737	0.678046	0.611765
	C154	C	0.872919	0.324066	0.612108
	C155	C	0.103119	0.323534	0.372855
	C156	C	0.873610	0.379201	0.671255
	C157	C	0.103106	0.619971	0.668851
	C158	C	0.873433	0.619189	0.317017
	C159	C	0.103276	0.381343	0.315791
	C160	C	0.369683	0.678084	0.879879
	C161	C	0.608680	0.677214	0.108490
	C162	C	0.608522	0.322600	0.879661
	C163	C	0.368198	0.322881	0.108468
	C164	C	0.665384	0.885348	0.375585
	C165	C	0.664469	0.115377	0.613141
	C166	C	0.311029	0.884769	0.614652
	C167	C	0.312398	0.115055	0.377004
	C168	C	0.868240	0.385954	0.171224
	C169	C	0.107467	0.614890	0.169550
	C170	C	0.109527	0.385513	0.814134
	C171	C	0.869872	0.614693	0.815817
	C172	C	0.166120	0.880814	0.379479
	C173	C	0.163688	0.119240	0.609774
	C174	C	0.811517	0.119558	0.379055
	C175	C	0.811107	0.881435	0.608358
	C176	C	0.373336	0.176651	0.876108
	C177	C	0.603775	0.176804	0.113115
	C178	C	0.374807	0.821944	0.115967
	C179	C	0.603392	0.823792	0.875274
	C180	C	0.374442	0.880049	0.172894
	C181	C	0.604315	0.119098	0.170125
	C182	C	0.373423	0.119455	0.818783
	C183	C	0.603349	0.880998	0.818162
	C184	C	0.868873	0.177284	0.378910
	C185	C	0.106753	0.178020	0.608776
	C186	C	0.107392	0.824267	0.378486
	C187	C	0.867306	0.822288	0.607505
	C188	C	0.166792	0.385235	0.872494
	C189	C	0.164401	0.615199	0.111280
	C190	C	0.811524	0.385492	0.112522
	C191	C	0.812443	0.615101	0.874168
	C192	C	0.388052	0.093900	0.596125
	C193	C	0.587350	0.906419	0.594579
	C194	C	0.587522	0.094440	0.394681
	C195	C	0.389848	0.906335	0.395882
	C196	C	0.587139	0.400176	0.087887
	C197	C	0.587857	0.600221	0.900072
	C198	C	0.388810	0.598747	0.087846
	C199	C	0.389832	0.400026	0.899932
	C200	C	0.083248	0.600556	0.392470
	C201	C	0.894114	0.598535	0.592023
	C202	C	0.082154	0.401869	0.590320
	C203	C	0.893541	0.400666	0.393752
	C204	C	0.888500	0.594460	0.093316
	C205	C	0.087040	0.406103	0.092753
	C206	C	0.088530	0.593609	0.892595
	C207	C	0.889938	0.406327	0.894231
	C208	C	0.086353	0.899802	0.587753
	C209	C	0.088099	0.099647	0.400579
	C210	C	0.888107	0.100413	0.587616
	C211	C	0.888727	0.900673	0.399109
	C212	C	0.583091	0.099484	0.895391
	C213	C	0.394251	0.099493	0.094752
	C214	C	0.583840	0.900473	0.093770
	C215	C	0.393865	0.901339	0.897256
	Zn216	Zn	0.488275	-0.000194	0.746317
	Zn217	Zn	0.489324	-0.000131	0.244438
	Zn218	Zn	0.738159	0.500311	-0.006408
	Zn219	Zn	0.238445	0.499680	-0.006551
	Zn220	Zn	-0.012330	0.749885	0.492089
	Zn221	Zn	-0.012008	0.251035	0.493080
	Zn222	Zn	-0.011035	0.499266	0.741816
	Zn223	Zn	-0.011546	0.500561	0.243568
	Zn224	Zn	0.489287	0.750878	-0.005235
	Zn225	Zn	0.488341	0.249581	-0.005687
	Zn226	Zn	0.738076	0.000348	0.494066
	Zn227	Zn	0.237700	-0.000225	0.495046
	N228	N	0.402085	0.962261	0.675231
	N229	N	0.574192	0.037439	0.674089
	N230	N	0.575442	0.963289	0.315147
	N231	N	0.402695	0.037121	0.315764
	N232	N	0.666644	0.414608	0.956521
	N233	N	0.666470	0.585407	0.030997
	N234	N	0.310847	0.585066	0.956311
	N235	N	0.309187	0.413363	0.030617
	N236	N	0.951288	0.678697	0.406589
	N237	N	0.025205	0.678918	0.578111
	N238	N	0.950206	0.323672	0.577110
	N239	N	0.025284	0.321728	0.406502
	N240	N	0.951298	0.412836	0.672368
	N241	N	0.025597	0.585683	0.670534
	N242	N	0.951361	0.586079	0.314886
	N243	N	0.025551	0.415140	0.314822
	N244	N	0.402777	0.679678	0.957507
	N245	N	0.575126	0.679421	0.031104
	N246	N	0.574796	0.320589	0.957327
	N247	N	0.402860	0.321688	0.031415
	N248	N	0.666336	0.962800	0.409343
	N249	N	0.665661	0.038076	0.579439
	N250	N	0.309380	0.962283	0.581057
	N251	N	0.311432	0.037824	0.411147
	N252	N	0.901727	0.463546	0.173106
	N253	N	0.073954	0.537332	0.171603
	N254	N	0.075839	0.462978	0.812587
	N255	N	0.903559	0.537330	0.814386
	N256	N	0.167094	0.913849	0.457121
	N257	N	0.165423	0.084965	0.532601
	N258	N	0.809599	0.086188	0.456475
	N259	N	0.810318	0.915486	0.531121
	N260	N	0.451099	0.178155	0.909501
	N261	N	0.525751	0.178619	0.080389
	N262	N	0.452466	0.820520	0.081970
	N263	N	0.525680	0.822460	0.909448
	N264	N	0.452146	0.913962	0.173675
	N265	N	0.526515	0.085437	0.172447
	N266	N	0.451215	0.085927	0.817087
	N267	N	0.525603	0.914910	0.817708
	N268	N	0.902232	0.179147	0.456398
	N269	N	0.074179	0.180177	0.531070
	N270	N	0.073010	0.822389	0.455791
	N271	N	0.900740	0.820276	0.529734
	N272	N	0.168338	0.462569	0.906315
	N273	N	0.165705	0.537677	0.077726
	N274	N	0.810422	0.462623	0.078485
	N275	N	0.810738	0.537686	0.908077
	O276	O	-0.095659	-0.074370	0.008676
	H277	H	-0.093281	-0.075179	0.012376
	H278	H	-0.091540	-0.080509	0.012334
	O279	O	1.008068	0.997414	0.026519
	H280	H	1.022097	0.989965	0.014399
	H281	H	1.012672	1.011627	0.028029
	O282	O	0.412548	0.354671	0.550522
	H283	H	0.412669	0.357899	0.554295
	H284	H	0.411716	0.353055	0.551976
	O285	O	-0.083193	1.054345	0.939874
	H286	H	-0.087128	1.055698	0.938529
	H287	H	-0.087402	1.058475	0.942782
	O288	O	0.501258	0.570871	0.460137
	H289	H	0.495772	0.580931	0.457183
	H290	H	0.497613	0.571174	0.460032
	O291	O	1.022260	1.076496	1.001510
	H292	H	1.024828	1.080243	1.006822
	H293	H	1.024066	1.086375	1.002709
	O294	O	0.982620	0.965032	1.013758
	H295	H	0.977216	0.954176	1.018743
	H296	H	0.990259	0.969106	1.010814
	O297	O	1.024885	0.056482	1.058284
	H298	H	1.022547	0.061766	1.066210
	H299	H	1.030848	0.056419	1.055700
	O300	O	0.454563	0.444932	0.535436
	H301	H	0.467783	0.452375	0.540283
	H302	H	0.460252	0.440815	0.536957
	O303	O	0.999958	0.030584	-0.060955
	H304	H	1.010797	0.031760	-0.062624
	H305	H	0.986069	0.034188	-0.073884
	O306	O	0.065718	1.017256	1.055801
	H307	H	0.070965	1.025065	1.059577
	H308	H	0.058092	1.013363	1.057061
	O309	O	0.504083	0.569129	0.460121
	H310	H	0.491782	0.576399	0.450648
	H311	H	0.501508	0.565134	0.462912
	O312	O	0.999663	-0.004792	0.966416
	H313	H	1.002595	-0.008305	0.966500
	H314	H	0.995358	0.001318	0.971612
	O315	O	0.415323	0.595565	0.519018
	H316	H	0.419891	0.591710	0.521859
	H317	H	0.404947	0.593387	0.526798
	O318	O	0.519062	0.482178	0.495026
	H319	H	0.520887	0.488415	0.488252
	H320	H	0.517713	0.478061	0.491872
	O321	O	1.044601	1.040323	1.008697
	H322	H	1.044195	1.055167	1.008137
	H323	H	1.043881	1.028322	0.999433
	O324	O	1.001809	1.030847	1.011724
	H325	H	0.996817	1.024953	1.016425
	H326	H	1.012060	1.028937	1.021441
	O327	O	0.533807	0.454247	0.455414
	H328	H	0.535979	0.451641	0.458963
	H329	H	0.537854	0.460279	0.453884
	O330	O	0.982730	-0.005125	0.952772
	H331	H	0.977577	-0.000561	0.958145
	H332	H	0.974473	-0.003895	0.951219
	O333	O	0.992577	0.936342	-0.052433
	H334	H	0.989547	0.924689	-0.041646
	H335	H	0.991715	0.935776	-0.051420
	O336	O	0.452174	0.533023	0.483808
	H337	H	0.458749	0.539534	0.486247
	H338	H	0.440367	0.531456	0.477898
	O339	O	0.370599	0.523801	0.567804
	H340	H	0.375603	0.533425	0.581780
	H341	H	0.372552	0.518154	0.576998
	O342	O	0.056360	1.063377	0.021961
	H343	H	0.061979	1.069969	0.020913
	H344	H	0.053424	1.057737	0.025607
	O345	O	0.056313	-0.017069	-0.114058
	H346	H	0.047152	-0.015794	-0.116729
	H347	H	0.057230	-0.011119	-0.123372
	O348	O	0.452239	0.505093	0.536159
	H349	H	0.450807	0.493297	0.522698
	H350	H	0.442869	0.496306	0.550363
	O351	O	0.402420	0.388428	0.596646
	H352	H	0.393968	0.385246	0.605132
	H353	H	0.421799	0.391595	0.597506
	O354	O	0.521791	0.489678	0.501852
	H355	H	0.515831	0.486177	0.502611
	H356	H	0.518253	0.493993	0.514836
	O357	O	0.487589	0.503135	0.524164
	H358	H	0.493813	0.504674	0.528952
	H359	H	0.484671	0.499813	0.514736
	O360	O	0.556125	-0.449911	0.393034
	H361	H	0.543246	-0.443141	0.397689
	H362	H	0.550622	-0.444203	0.382542
	O363	O	0.529021	0.359035	0.429252
	H364	H	0.531713	0.365127	0.430616
	H365	H	0.527644	0.356998	0.428272
	O366	O	0.116867	-0.200485	0.877603
	H367	H	0.121710	-0.191507	0.894796
	H368	H	0.121122	-0.198790	0.868729
	O369	O	0.444950	0.520200	0.566828
	H370	H	0.441747	0.511162	0.574232
	H371	H	0.461797	0.514564	0.566248
