data_Molecule from HDF5

_cell_length_a		16.776589
_cell_length_b		16.674664
_cell_length_c		16.495136
_cell_angle_alpha	90.089554
_cell_angle_beta	89.932632
_cell_angle_gamma	90.096587
_symmetry_space_group_name_H-M	'P 1'
_symmetry_Int_Tables_number		1

loop_
	_symmetry_equiv_pos_as_xyz
	x,y,z

loop_
	_atom_site_label
	_atom_site_type_symbol
	_atom_site_fract_x
	_atom_site_fract_y
	_atom_site_fract_z
	H0	H	0.366885	0.826678	0.696612
	H1	H	0.578252	0.135226	0.696957
	H2	H	0.573360	0.822615	0.259107
	H3	H	0.370050	0.135714	0.253555
	H4	H	0.697462	0.373174	0.821059
	H5	H	0.693771	0.588052	0.130448
	H6	H	0.251749	0.586494	0.819487
	H7	H	0.253364	0.376152	0.130518
	H8	H	0.822952	0.707251	0.364972
	H9	H	0.127273	0.704472	0.583070
	H10	H	0.820365	0.257600	0.582590
	H11	H	0.125998	0.257702	0.366608
	H12	H	0.818265	0.378284	0.695269
	H13	H	0.127245	0.586942	0.697619
	H14	H	0.820587	0.588373	0.251973
	H15	H	0.127085	0.376691	0.252939
	H16	H	0.366314	0.703874	0.820201
	H17	H	0.576829	0.701683	0.130998
	H18	H	0.582422	0.256582	0.821564
	H19	H	0.371269	0.261693	0.131562
	H20	H	0.693631	0.825238	0.370741
	H21	H	0.696902	0.134532	0.583307
	H22	H	0.248974	0.827782	0.582622
	H23	H	0.249057	0.133491	0.364534
	H24	H	0.866856	0.328009	0.197083
	H25	H	0.075522	0.636547	0.192812
	H26	H	0.078591	0.325920	0.752475
	H27	H	0.870413	0.636631	0.754753
	H28	H	0.190923	0.879868	0.317009
	H29	H	0.196941	0.089380	0.629211
	H30	H	0.755810	0.082433	0.317469
	H31	H	0.751963	0.873879	0.631034
	H32	H	0.322657	0.207257	0.864381
	H33	H	0.627221	0.203557	0.081070
	H34	H	0.319645	0.759278	0.080603
	H35	H	0.626027	0.756652	0.865138
	H36	H	0.318817	0.877739	0.195159
	H37	H	0.629969	0.082828	0.193432
	H38	H	0.322652	0.090334	0.748441
	H39	H	0.625988	0.872306	0.748959
	H40	H	0.872098	0.197916	0.317500
	H41	H	0.077169	0.201212	0.631586
	H42	H	0.076085	0.762978	0.317460
	H43	H	0.868699	0.760156	0.630993
	H44	H	0.196271	0.326894	0.866890
	H45	H	0.196653	0.633714	0.081902
	H46	H	0.746866	0.330147	0.085043
	H47	H	0.751452	0.635595	0.867924
	H48	H	0.392535	0.088879	0.561079
	H49	H	0.565653	0.869983	0.558983
	H50	H	0.564357	0.091872	0.386382
	H51	H	0.380579	0.871828	0.393772
	H52	H	0.563796	0.393834	0.087457
	H53	H	0.561901	0.568713	0.862161
	H54	H	0.386385	0.572265	0.088031
	H55	H	0.384033	0.393697	0.862343
	H56	H	0.084037	0.573133	0.386487
	H57	H	0.862152	0.571597	0.565811
	H58	H	0.082876	0.393954	0.563138
	H59	H	0.862569	0.391935	0.386563
	H60	H	0.084823	0.390422	0.565913
	H61	H	0.864309	0.571804	0.559915
	H62	H	0.082462	0.568663	0.387674
	H63	H	0.861741	0.389827	0.385718
	H64	H	0.381435	0.568211	0.088048
	H65	H	0.563452	0.570507	0.861330
	H66	H	0.560470	0.397633	0.085625
	H67	H	0.387294	0.393196	0.862784
	H68	H	0.570644	0.094300	0.385234
	H69	H	0.561106	0.869510	0.565035
	H70	H	0.381678	0.089470	0.554629
	H71	H	0.377116	0.866418	0.382802
	H72	H	0.884576	0.591062	0.059122
	H73	H	0.061279	0.368392	0.065375
	H74	H	0.064268	0.592075	0.887165
	H75	H	0.884979	0.372106	0.891309
	H76	H	0.062236	0.892431	0.588150
	H77	H	0.059400	0.065505	0.365185
	H78	H	0.881371	0.072007	0.589860
	H79	H	0.890175	0.888436	0.363246
	H80	H	0.582870	0.065838	0.886678
	H81	H	0.359492	0.077331	0.069090
	H82	H	0.584650	0.887448	0.062113
	H83	H	0.362986	0.889208	0.886886
	H84	H	0.583868	0.892422	0.065271
	H85	H	0.364735	0.072271	0.058274
	H86	H	0.583434	0.070207	0.889706
	H87	H	0.366231	0.893190	0.890600
	H88	H	0.882116	0.066512	0.588214
	H89	H	0.060163	0.072758	0.361984
	H90	H	0.062771	0.894283	0.587784
	H91	H	0.877620	0.889712	0.359392
	H92	H	0.061723	0.591829	0.887119
	H93	H	0.062177	0.370376	0.060485
	H94	H	0.880961	0.594236	0.063106
	H95	H	0.881623	0.369566	0.887503
	H96	H	0.382881	0.094641	0.566032
	H97	H	0.558266	0.872103	0.558628
	H98	H	0.565615	0.094379	0.379772
	H99	H	0.388661	0.871106	0.384560
	H100	H	0.558788	0.392944	0.086822
	H101	H	0.564315	0.568026	0.862222
	H102	H	0.387505	0.566310	0.085503
	H103	H	0.385362	0.391343	0.861971
	H104	H	0.084356	0.569621	0.383700
	H105	H	0.864613	0.566603	0.563131
	H106	H	0.083860	0.389297	0.561306
	H107	H	0.862606	0.389303	0.388103
	H108	H	0.886951	0.593190	0.064974
	H109	H	0.066162	0.367607	0.062969
	H110	H	0.063282	0.590244	0.889199
	H111	H	0.886891	0.371413	0.886111
	H112	H	0.060935	0.893237	0.587296
	H113	H	0.065855	0.068187	0.361688
	H114	H	0.886417	0.070711	0.587841
	H115	H	0.883914	0.899691	0.364883
	H116	H	0.580131	0.065936	0.891282
	H117	H	0.364322	0.065088	0.068525
	H118	H	0.586439	0.887769	0.067532
	H119	H	0.364158	0.895236	0.884958
	C120	C	0.351889	-0.010537	0.595234
	C121	C	0.594703	0.972253	0.595408
	C122	C	0.596127	-0.010591	0.353196
	C123	C	0.351503	0.972381	0.353770
	C124	C	0.595011	0.360628	-0.015708
	C125	C	0.594548	0.602089	0.965510
	C126	C	0.352575	0.601388	-0.016138
	C127	C	0.352815	0.359720	0.965366
	C128	C	-0.017548	0.603396	0.352862
	C129	C	0.965310	0.602758	0.596152
	C130	C	-0.017991	0.358970	0.596658
	C131	C	0.964364	0.358884	0.353302
	C132	C	0.851091	0.491156	0.096603
	C133	C	0.094758	0.471767	0.095451
	C134	C	0.095249	0.489315	0.853712
	C135	C	0.852629	0.473249	0.855009
	C136	C	0.093496	0.861505	0.483402
	C137	C	0.094240	0.101990	0.466143
	C138	C	0.852727	0.100819	0.484100
	C139	C	0.852375	0.859961	0.466239
	C140	C	0.481898	0.101779	0.854319
	C141	C	0.465342	0.102677	0.097022
	C142	C	0.482366	0.858602	0.096656
	C143	C	0.465318	0.859357	0.853307
	C144	C	0.348600	0.873293	0.656624
	C145	C	0.597169	0.088731	0.656872
	C146	C	0.593976	0.870427	0.296859
	C147	C	0.350494	0.088768	0.293098
	C148	C	0.656657	0.355823	0.867668
	C149	C	0.653786	0.605464	0.083459
	C150	C	0.292265	0.604413	0.866342
	C151	C	0.293483	0.357768	0.083778
	C152	C	0.868114	0.665541	0.348214
	C153	C	0.080779	0.664084	0.600353
	C154	C	0.866196	0.298542	0.600099
	C155	C	0.080054	0.298479	0.349192
	C156	C	0.865325	0.358224	0.656298
	C157	C	0.080922	0.605595	0.657467
	C158	C	0.867185	0.606343	0.291876
	C159	C	0.080316	0.357324	0.292392
	C160	C	0.349062	0.662715	0.866744
	C161	C	0.595629	0.661897	0.083828
	C162	C	0.599506	0.297927	0.868141
	C163	C	0.351788	0.301075	0.084202
	C164	C	0.653666	0.871739	0.352423
	C165	C	0.656069	0.088207	0.600369
	C166	C	0.289897	0.874081	0.599972
	C167	C	0.290584	0.087974	0.348444
	C168	C	0.848043	0.374725	0.157548
	C169	C	0.095236	0.589232	0.154143
	C170	C	0.096878	0.372617	0.792789
	C171	C	0.851313	0.589913	0.794625
	C172	C	0.151826	0.860485	0.364587
	C173	C	0.155611	0.106416	0.583150
	C174	C	0.794898	0.101425	0.365039
	C175	C	0.792313	0.856629	0.583929
	C176	C	0.368138	0.165311	0.848078
	C177	C	0.581441	0.162495	0.098881
	C178	C	0.365663	0.799835	0.098305
	C179	C	0.579979	0.797469	0.848047
	C180	C	0.365406	0.858586	0.155415
	C181	C	0.582663	0.102952	0.155149
	C182	C	0.367833	0.107020	0.790477
	C183	C	0.580024	0.855149	0.790245
	C184	C	0.852633	0.158893	0.364977
	C185	C	0.096268	0.161931	0.584281
	C186	C	0.094774	0.802481	0.364830
	C187	C	0.850553	0.800208	0.584180
	C188	C	0.155616	0.373097	0.849429
	C189	C	0.155129	0.587905	0.098795
	C190	C	0.788795	0.375796	0.101733
	C191	C	0.792336	0.589459	0.851005
	C192	C	0.378133	0.070044	0.568332
	C193	C	0.569034	0.891630	0.568561
	C194	C	0.573322	0.072044	0.376954
	C195	C	0.375427	0.890992	0.379792
	C196	C	0.568638	0.387203	0.065554
	C197	C	0.569994	0.576482	0.883244
	C198	C	0.377939	0.576022	0.065769
	C199	C	0.378256	0.385396	0.883518
	C200	C	0.062735	0.577818	0.378852
	C201	C	0.884611	0.577291	0.570240
	C202	C	0.062855	0.383957	0.570748
	C203	C	0.883540	0.383505	0.379454
	C204	C	0.876827	0.571792	0.069954
	C205	C	0.070161	0.390054	0.070080
	C206	C	0.070344	0.570149	0.880137
	C207	C	0.877368	0.392117	0.880973
	C208	C	0.068976	0.886220	0.566317
	C209	C	0.069026	0.076222	0.384260
	C210	C	0.876318	0.076819	0.567045
	C211	C	0.877091	0.885301	0.383983
	C212	C	0.561548	0.074719	0.881554
	C213	C	0.383809	0.078455	0.072278
	C214	C	0.563820	0.882481	0.072100
	C215	C	0.385316	0.885380	0.880113
	Zn216	Zn	0.473487	-0.019291	0.724143
	Zn217	Zn	0.473894	-0.019626	0.225797
	Zn218	Zn	0.722697	0.481877	-0.024861
	Zn219	Zn	0.224228	0.480501	-0.025395
	Zn220	Zn	-0.026491	0.732050	0.475196
	Zn221	Zn	-0.026581	0.229846	0.474618
	Zn222	Zn	-0.026799	0.481205	0.725264
	Zn223	Zn	-0.026901	0.481152	0.224375
	Zn224	Zn	0.473355	0.729947	-0.025496
	Zn225	Zn	0.473811	0.231856	-0.024591
	Zn226	Zn	0.723772	-0.019708	0.475172
	Zn227	Zn	0.222470	-0.018506	0.474617
	N228	N	0.386486	0.946345	0.653920
	N229	N	0.559799	0.015451	0.654139
	N230	N	0.559046	0.944894	0.296871
	N231	N	0.387674	0.015816	0.296186
	N232	N	0.653979	0.394254	0.941125
	N233	N	0.653218	0.568920	0.008875
	N234	N	0.294074	0.567117	0.940337
	N235	N	0.293534	0.393128	0.008712
	N236	N	0.940907	0.663829	0.385593
	N237	N	0.007742	0.662545	0.562826
	N238	N	0.939919	0.298699	0.563841
	N239	N	0.006847	0.299161	0.386428
	N240	N	0.938469	0.395027	0.654380
	N241	N	0.008163	0.568078	0.655029
	N242	N	0.939360	0.568213	0.294645
	N243	N	0.007299	0.394087	0.294636
	N244	N	0.386140	0.660805	0.940737
	N245	N	0.559475	0.660270	0.009251
	N246	N	0.561772	0.300757	0.941710
	N247	N	0.387791	0.301917	0.009481
	N248	N	0.655360	0.946910	0.386352
	N249	N	0.654765	0.014588	0.563076
	N250	N	0.291778	0.947494	0.562506
	N251	N	0.290990	0.014387	0.385540
	N252	N	0.885952	0.447558	0.154767
	N253	N	0.058221	0.515821	0.152158
	N254	N	0.059733	0.445808	0.795378
	N255	N	0.888197	0.516542	0.796919
	N256	N	0.151542	0.896162	0.439672
	N257	N	0.154540	0.069685	0.508618
	N258	N	0.794702	0.066164	0.440192
	N259	N	0.793163	0.893229	0.509472
	N260	N	0.440083	0.162126	0.887160
	N261	N	0.507464	0.162364	0.063537
	N262	N	0.439497	0.799521	0.062410
	N263	N	0.507470	0.799751	0.886554
	N264	N	0.439039	0.894258	0.154654
	N265	N	0.509227	0.066334	0.154353
	N266	N	0.439475	0.067743	0.794550
	N267	N	0.507425	0.892913	0.793125
	N268	N	0.887770	0.158850	0.440178
	N269	N	0.058913	0.159330	0.510448
	N270	N	0.059539	0.802776	0.440067
	N271	N	0.887026	0.801908	0.509870
	N272	N	0.154742	0.446653	0.886777
	N273	N	0.155051	0.513715	0.063050
	N274	N	0.790270	0.449393	0.064728
	N275	N	0.793002	0.515738	0.887853
	O276	O	-0.217931	1.174415	0.160607
	H277	H	-0.194644	1.152605	0.147773
	H278	H	-0.206094	1.159521	0.135656
	O279	O	0.454274	0.370867	0.379541
	H280	H	0.442567	0.371826	0.369418
	H281	H	0.461372	0.397355	0.373650
	O282	O	1.193699	-0.238113	0.952614
	H283	H	1.189837	-0.229746	0.954951
	H284	H	1.213624	-0.257655	0.938378
	O285	O	0.402291	0.367873	0.304596
	H286	H	0.412987	0.367208	0.301467
	H287	H	0.419633	0.376746	0.311042
	O288	O	0.633260	0.680750	0.629888
	H289	H	0.641352	0.653947	0.635425
	H290	H	0.601244	0.676425	0.632926
	O291	O	1.235817	0.719348	0.717351
	H292	H	1.239835	0.709871	0.710353
	H293	H	1.203953	0.731133	0.714120
	O294	O	1.190599	-0.031806	0.998408
	H295	H	1.192283	-0.034790	0.980619
	H296	H	1.200017	-0.033551	1.000101
	O297	O	1.029034	1.139958	-0.026117
	H298	H	1.025084	1.150800	-0.019179
	H299	H	1.017478	1.141017	-0.049352
	O300	O	-0.190724	-0.102735	0.977483
	H301	H	-0.193698	-0.110630	0.996340
	H302	H	-0.194601	-0.110428	0.969056
	O303	O	0.638730	0.354799	0.467224
	H304	H	0.645080	0.343824	0.450523
	H305	H	0.646404	0.343364	0.452863
	O306	O	0.527901	0.396199	0.696230
	H307	H	0.502853	0.388456	0.699288
	H308	H	0.519845	0.417549	0.691364
	O309	O	0.490779	0.690178	0.692348
	H310	H	0.485344	0.697795	0.679014
	H311	H	0.487574	0.704828	0.702134
	O312	O	0.398469	0.401006	0.570709
	H313	H	0.397367	0.410987	0.562063
	H314	H	0.395177	0.412687	0.590860
	O315	O	1.504396	1.261037	1.258559
	H316	H	1.526436	1.254296	1.264602
	H317	H	1.509019	1.240906	1.243803
	O318	O	0.631359	0.358043	0.382606
	H319	H	0.639582	0.363148	0.353629
	H320	H	0.646147	0.340718	0.394782
	O321	O	0.008265	0.781322	0.769283
	H322	H	-0.005408	0.781493	0.765395
	H323	H	-0.009590	0.790842	0.769079
	O324	O	0.957066	0.955733	0.087190
	H325	H	0.971418	0.958541	0.099948
	H326	H	0.955091	0.965433	0.085720
	O327	O	-0.237780	-0.201107	0.973130
	H328	H	-0.249052	-0.186529	0.964347
	H329	H	-0.255280	-0.217684	0.963732
	O330	O	0.708572	0.537518	0.417393
	H331	H	0.705264	0.542606	0.430687
	H332	H	0.704616	0.544851	0.418871
	O333	O	0.697548	0.454253	0.260081
	H334	H	0.706622	0.464858	0.259184
	H335	H	0.708505	0.457434	0.245436
	O336	O	0.242490	0.706787	0.441459
	H337	H	0.236869	0.706240	0.430035
	H338	H	0.220690	0.724675	0.426463
	O339	O	1.161881	-0.211639	1.162711
	H340	H	1.149618	-0.195629	1.138542
	H341	H	1.142415	-0.192374	1.144999
	O342	O	0.690068	0.518756	-0.315101
	H343	H	0.691637	0.504790	-0.314863
	H344	H	0.688853	0.498356	-0.316233
	O345	O	0.013249	0.748914	0.994225
	H346	H	0.009948	0.745729	0.991284
	H347	H	-0.002128	0.748179	0.989828
	O348	O	0.496438	0.563912	0.301265
	H349	H	0.484735	0.588496	0.305158
	H350	H	0.493441	0.554839	0.302222
	O351	O	0.685059	1.266762	0.271553
	H352	H	0.715840	1.238497	0.235169
	H353	H	0.672650	1.299256	0.268138
	O354	O	0.407250	-0.499721	0.645058
	H355	H	0.401860	-0.485283	0.650058
	H356	H	0.397508	-0.497908	0.636903
	O357	O	1.193152	-0.016255	1.160111
	H358	H	1.205093	0.007390	1.186480
	H359	H	1.198993	0.002082	1.147199
	O360	O	0.934752	1.035908	0.911407
	H361	H	0.937731	1.037100	0.920788
	H362	H	0.935104	1.037163	0.903798
	O363	O	0.183603	-0.072764	-0.181313
	H364	H	0.199847	-0.068267	-0.185380
	H365	H	0.172743	-0.087431	-0.173442
	O366	O	0.429596	0.511244	0.424352
	H367	H	0.430142	0.506161	0.423179
	H368	H	0.435017	0.509613	0.414515
	O369	O	0.312545	0.347438	0.421775
	H370	H	0.311255	0.350341	0.428103
	H371	H	0.312005	0.330495	0.428911
	O372	O	1.021577	0.817871	-0.105276
	H373	H	0.988725	0.807551	-0.114634
	H374	H	1.027308	0.824380	-0.071200
	O375	O	1.444097	0.285112	0.661482
	H376	H	1.432722	0.304276	0.641572
	H377	H	1.437416	0.268900	0.675805
	O378	O	0.395604	0.624709	0.476429
	H379	H	0.408808	0.642204	0.480828
	H380	H	0.385819	0.617725	0.449759
	O381	O	-0.193613	0.791542	0.802417
	H382	H	-0.211087	0.785169	0.797689
	H383	H	-0.187774	0.796936	0.807978
	O384	O	0.761268	0.200926	0.953677
	H385	H	0.750531	0.204968	0.936630
	H386	H	0.748883	0.194441	0.952107
	O387	O	1.263967	0.509255	0.272023
	H388	H	1.271188	0.507167	0.273285
	H389	H	1.267870	0.494934	0.255577
	O390	O	0.261138	0.692414	0.266368
	H391	H	0.253085	0.654178	0.276336
	H392	H	0.226286	0.720861	0.232779
	O393	O	0.399665	0.437697	0.503544
	H394	H	0.399675	0.470264	0.507266
	H395	H	0.398933	0.431116	0.513655
	O396	O	0.154313	1.034099	0.859437
	H397	H	0.162822	1.046278	0.862013
	H398	H	0.157596	1.031354	0.862847
	O399	O	-0.209090	0.045193	0.952541
	H400	H	-0.193861	0.036470	0.957544
	H401	H	-0.207577	0.045521	0.970615
	O402	O	0.426968	0.699841	0.261945
	H403	H	0.392756	0.697560	0.274961
	H404	H	0.412388	0.729846	0.231497
	O405	O	1.061827	-0.032627	0.807256
	H406	H	1.060011	-0.046289	0.791613
	H407	H	1.065372	-0.057063	0.809545
	O408	O	-0.232387	0.188809	-0.228349
	H409	H	-0.254699	0.211256	-0.233734
	H410	H	-0.229052	0.189743	-0.231672
	O411	O	0.925275	0.931271	0.793498
	H412	H	0.918538	0.955740	0.779329
	H413	H	0.911880	0.922947	0.808813
	O414	O	0.883492	0.030019	1.178345
	H415	H	0.881509	0.017185	1.180536
	H416	H	0.906801	0.019683	1.183545
	O417	O	0.540239	0.253701	0.521320
	H418	H	0.553491	0.250069	0.510349
	H419	H	0.539982	0.248703	0.531693
	O420	O	0.391192	0.631394	0.617646
	H421	H	0.400670	0.622089	0.606787
	H422	H	0.386529	0.639223	0.628477
	O423	O	0.199043	0.200702	1.003950
	H424	H	0.208557	0.214026	1.005749
	H425	H	0.201541	0.208934	1.006250
	O426	O	0.704806	0.419190	0.536795
	H427	H	0.699551	0.413083	0.523096
	H428	H	0.697721	0.408388	0.520294
	O429	O	0.748997	1.005133	0.756212
	H430	H	0.722939	1.013950	0.727774
	H431	H	0.760747	1.035819	0.764213
	O432	O	0.038075	1.124426	0.861731
	H433	H	0.020789	1.125198	0.857538
	H434	H	0.046421	1.106975	0.861260
	O435	O	0.967451	0.807307	0.996382
	H436	H	0.971594	0.809547	0.979459
	H437	H	0.958655	0.796388	1.001876
	O438	O	0.413739	-0.328152	0.544580
	H439	H	0.378413	-0.324256	0.535379
	H440	H	0.422136	-0.333612	0.539169
	O441	O	-0.334483	0.290783	-0.333713
	H442	H	-0.372174	0.310552	-0.330148
	H443	H	-0.335267	0.309547	-0.368214
	O444	O	0.248793	0.257586	0.495895
	H445	H	0.248901	0.248613	0.519584
	H446	H	0.237480	0.242735	0.514577
	O447	O	-0.328392	1.671832	0.281897
	H448	H	-0.327337	1.681608	0.284384
	H449	H	-0.331474	1.656777	0.308372
	O450	O	-0.746825	0.454190	1.690019
	H451	H	-0.759199	0.433863	1.697345
	H452	H	-0.761436	0.459781	1.686572
	O453	O	0.516639	0.516276	0.493802
	H454	H	0.521732	0.533124	0.493928
	H455	H	0.501619	0.507932	0.484941
	O456	O	0.769877	-0.223944	1.177860
	H457	H	0.772558	-0.238494	1.195368
	H458	H	0.767591	-0.210577	1.145307
	O459	O	0.938780	1.205954	-0.243664
	H460	H	0.916736	1.208463	-0.256733
	H461	H	0.936661	1.212532	-0.262511
	O462	O	0.252208	0.261337	0.250964
	H463	H	0.271717	0.283707	0.277084
	H464	H	0.272028	0.275722	0.242403
	O465	O	0.919637	0.217301	0.029861
	H466	H	0.910174	0.216941	0.039882
	H467	H	0.919488	0.217812	0.009637
	O468	O	0.704496	0.700006	0.491427
	H469	H	0.721055	0.713119	0.499267
	H470	H	0.694983	0.701552	0.531351
	O471	O	1.065681	0.965735	0.954774
	H472	H	1.067866	0.969622	0.957822
	H473	H	1.069551	0.980095	0.959671
	O474	O	0.162940	0.168568	0.790670
	H475	H	0.153977	0.149898	0.813742
	H476	H	0.137889	0.145994	0.797977
	O477	O	0.728672	0.816346	0.808339
	H478	H	0.714189	0.827612	0.784294
	H479	H	0.729497	0.807029	0.814179
	O480	O	0.257681	0.272036	0.689884
	H481	H	0.278375	0.285930	0.682009
	H482	H	0.228205	0.238538	0.722773
	O483	O	0.489904	0.547980	0.329142
	H484	H	0.504357	0.554780	0.329213
	H485	H	0.489182	0.552576	0.334192
	O486	O	1.176303	0.147258	1.179041
	H487	H	1.196291	0.182920	1.202413
	H488	H	1.164282	0.151562	1.168538
	O489	O	0.748671	0.941468	0.194364
	H490	H	0.754076	0.923845	0.199028
	H491	H	0.735470	0.943949	0.218898
	O492	O	-0.003665	0.198913	0.188791
	H493	H	0.002478	0.199053	0.183764
	H494	H	0.003788	0.217453	0.200890
	O495	O	0.023615	1.019211	1.159057
	H496	H	0.041274	1.025979	1.150053
	H497	H	0.032868	1.019431	1.157901
	O498	O	0.938634	0.766361	1.185486
	H499	H	0.937131	0.768066	1.197242
	H500	H	0.930520	0.753588	1.194634
	O501	O	0.236892	0.497575	0.475859
	H502	H	0.244555	0.489070	0.471153
	H503	H	0.240358	0.487886	0.475769
