data_Molecule from HDF5

_cell_length_a		16.389297
_cell_length_b		16.571464
_cell_length_c		16.414842
_cell_angle_alpha	90.105043
_cell_angle_beta	90.195121
_cell_angle_gamma	89.821779
_symmetry_space_group_name_H-M	'P 1'
_symmetry_Int_Tables_number		1

loop_
	_symmetry_equiv_pos_as_xyz
	x,y,z

loop_
	_atom_site_label
	_atom_site_type_symbol
	_atom_site_fract_x
	_atom_site_fract_y
	_atom_site_fract_z
	H0	H	0.409832	0.843367	0.718579
	H1	H	0.617105	0.159951	0.721414
	H2	H	0.618037	0.843796	0.278944
	H3	H	0.411627	0.160230	0.281747
	H4	H	0.728991	0.400281	0.838818
	H5	H	0.731172	0.604893	0.160402
	H6	H	0.293145	0.603003	0.839854
	H7	H	0.298237	0.405904	0.160851
	H8	H	0.852788	0.725272	0.396087
	H9	H	0.172060	0.723302	0.607029
	H10	H	0.853885	0.282460	0.606712
	H11	H	0.169614	0.283374	0.395616
	H12	H	0.851408	0.402504	0.717308
	H13	H	0.172063	0.605467	0.720905
	H14	H	0.851995	0.609102	0.280277
	H15	H	0.171298	0.402659	0.282931
	H16	H	0.406798	0.721335	0.840170
	H17	H	0.619448	0.724984	0.158101
	H18	H	0.615762	0.281016	0.840400
	H19	H	0.412068	0.285702	0.159589
	H20	H	0.733293	0.843802	0.397247
	H21	H	0.731699	0.160948	0.604175
	H22	H	0.293386	0.843653	0.601297
	H23	H	0.294428	0.159776	0.397958
	H24	H	0.905996	0.346928	0.223286
	H25	H	0.116832	0.661431	0.222157
	H26	H	0.116492	0.345931	0.779778
	H27	H	0.907567	0.661044	0.780740
	H28	H	0.229162	0.898883	0.339131
	H29	H	0.232863	0.104685	0.657910
	H30	H	0.790939	0.107829	0.341618
	H31	H	0.793025	0.900786	0.659847
	H32	H	0.352584	0.220928	0.895010
	H33	H	0.670615	0.223481	0.106454
	H34	H	0.353019	0.782757	0.103002
	H35	H	0.670484	0.778669	0.892837
	H36	H	0.352628	0.898623	0.218304
	H37	H	0.671625	0.104348	0.219667
	H38	H	0.351767	0.101968	0.782555
	H39	H	0.672362	0.896995	0.779642
	H40	H	0.902889	0.226825	0.343012
	H41	H	0.120722	0.225812	0.657074
	H42	H	0.118599	0.779053	0.342932
	H43	H	0.908397	0.783738	0.659747
	H44	H	0.229858	0.344205	0.898703
	H45	H	0.233971	0.660815	0.105530
	H46	H	0.792556	0.345253	0.103869
	H47	H	0.789113	0.660194	0.895698
	H48	H	0.419588	0.113955	0.585494
	H49	H	0.602579	0.887897	0.597158
	H50	H	0.608806	0.116309	0.411647
	H51	H	0.422222	0.887430	0.405572
	H52	H	0.612410	0.416976	0.114595
	H53	H	0.599308	0.591616	0.887595
	H54	H	0.425453	0.591840	0.111670
	H55	H	0.415817	0.410660	0.883121
	H56	H	0.127390	0.593476	0.405569
	H57	H	0.899188	0.592711	0.589563
	H58	H	0.126733	0.410777	0.591673
	H59	H	0.900108	0.418080	0.416373
	H60	H	0.124562	0.412747	0.585733
	H61	H	0.897398	0.597003	0.590778
	H62	H	0.125636	0.598527	0.416037
	H63	H	0.897408	0.417300	0.408474
	H64	H	0.423828	0.597492	0.113973
	H65	H	0.598820	0.588414	0.888769
	H66	H	0.591997	0.417326	0.107662
	H67	H	0.423175	0.413704	0.886544
	H68	H	0.597821	0.114667	0.402199
	H69	H	0.596450	0.893528	0.585555
	H70	H	0.419113	0.116874	0.594293
	H71	H	0.424570	0.888654	0.409126
	H72	H	0.917436	0.615009	0.084921
	H73	H	0.103062	0.391328	0.091825
	H74	H	0.107445	0.617372	0.910612
	H75	H	0.921930	0.393401	0.915857
	H76	H	0.102303	0.915349	0.612601
	H77	H	0.099666	0.098081	0.384920
	H78	H	0.925501	0.090180	0.612452
	H79	H	0.928658	0.916562	0.390424
	H80	H	0.628275	0.098094	0.911312
	H81	H	0.397623	0.098870	0.086155
	H82	H	0.625375	0.910657	0.084364
	H83	H	0.403246	0.916050	0.917634
	H84	H	0.624023	0.915735	0.087057
	H85	H	0.400024	0.089651	0.087338
	H86	H	0.623287	0.089258	0.916810
	H87	H	0.398379	0.917056	0.900819
	H88	H	0.927401	0.097317	0.614129
	H89	H	0.104109	0.093376	0.385248
	H90	H	0.101782	0.912048	0.613120
	H91	H	0.925175	0.909301	0.386192
	H92	H	0.099102	0.616267	0.905680
	H93	H	0.102622	0.391464	0.091398
	H94	H	0.920691	0.617783	0.093995
	H95	H	0.914691	0.387181	0.906022
	H96	H	0.427445	0.112974	0.591105
	H97	H	0.609864	0.889263	0.584582
	H98	H	0.596628	0.110511	0.415638
	H99	H	0.420207	0.887776	0.408928
	H100	H	0.600433	0.399849	0.116076
	H101	H	0.596299	0.590814	0.888366
	H102	H	0.420033	0.592318	0.114413
	H103	H	0.423366	0.405513	0.883901
	H104	H	0.122105	0.587036	0.414469
	H105	H	0.899319	0.596082	0.585867
	H106	H	0.124834	0.416797	0.590875
	H107	H	0.896291	0.410856	0.413744
	H108	H	0.926862	0.613173	0.087690
	H109	H	0.103267	0.391746	0.091814
	H110	H	0.099008	0.614619	0.915611
	H111	H	0.927880	0.390291	0.904245
	H112	H	0.105065	0.914084	0.614305
	H113	H	0.098325	0.091762	0.387205
	H114	H	0.919892	0.094713	0.615374
	H115	H	0.919781	0.916808	0.386713
	H116	H	0.626845	0.088607	0.905823
	H117	H	0.395690	0.094531	0.094940
	H118	H	0.626940	0.910947	0.090240
	H119	H	0.395784	0.902550	0.909755
	C120	C	0.391173	0.009691	0.620360
	C121	C	0.634692	0.994308	0.621674
	C122	C	0.634369	0.010027	0.378054
	C123	C	0.391468	0.992813	0.377358
	C124	C	0.633521	0.379712	0.008025
	C125	C	0.631752	0.622657	0.992582
	C126	C	0.390774	0.624277	0.007939
	C127	C	0.391414	0.381368	0.990968
	C128	C	0.019900	0.625557	0.379783
	C129	C	1.004112	0.625362	0.621477
	C130	C	0.020516	0.381980	0.621518
	C131	C	1.002957	0.383671	0.380269
	C132	C	0.890062	0.511468	0.121477
	C133	C	0.134350	0.495626	0.122760
	C134	C	0.133186	0.511729	0.879345
	C135	C	0.889471	0.494654	0.877746
	C136	C	0.134570	0.880820	0.508356
	C137	C	0.133439	0.124957	0.490722
	C138	C	0.890876	0.125589	0.509141
	C139	C	0.892773	0.883239	0.492790
	C140	C	0.520635	0.122525	0.879048
	C141	C	0.503690	0.124054	0.120873
	C142	C	0.520480	0.881256	0.119096
	C143	C	0.504212	0.879845	0.877550
	C144	C	0.391154	0.890641	0.678605
	C145	C	0.635907	0.112690	0.681592
	C146	C	0.636708	0.891355	0.318641
	C147	C	0.391901	0.112597	0.320462
	C148	C	0.690888	0.380108	0.887223
	C149	C	0.691882	0.624044	0.112203
	C150	C	0.331818	0.623540	0.887802
	C151	C	0.335841	0.384255	0.112438
	C152	C	0.900498	0.685478	0.377752
	C153	C	0.124164	0.683685	0.624433
	C154	C	0.901213	0.322447	0.624401
	C155	C	0.122694	0.324210	0.378153
	C156	C	0.900082	0.382235	0.679663
	C157	C	0.124159	0.624927	0.681041
	C158	C	0.899951	0.627655	0.320022
	C159	C	0.123226	0.383163	0.321728
	C160	C	0.388266	0.682424	0.888160
	C161	C	0.636233	0.683958	0.111098
	C162	C	0.634533	0.320848	0.887956
	C163	C	0.392241	0.324827	0.111923
	C164	C	0.694241	0.891424	0.377573
	C165	C	0.693185	0.113150	0.623304
	C166	C	0.333133	0.890639	0.620465
	C167	C	0.333620	0.112191	0.378046
	C168	C	0.887991	0.393788	0.182376
	C169	C	0.135283	0.614229	0.182017
	C170	C	0.134784	0.392944	0.820065
	C171	C	0.887922	0.613601	0.819397
	C172	C	0.191685	0.879449	0.387896
	C173	C	0.193738	0.125165	0.610038
	C174	C	0.830320	0.126759	0.389547
	C175	C	0.833045	0.881906	0.612401
	C176	C	0.400431	0.181220	0.876961
	C177	C	0.623049	0.183326	0.123986
	C178	C	0.400645	0.822429	0.121292
	C179	C	0.623293	0.819348	0.875086
	C180	C	0.400478	0.880146	0.178478
	C181	C	0.623612	0.123967	0.180198
	C182	C	0.400176	0.122014	0.820883
	C183	C	0.624293	0.878432	0.818842
	C184	C	0.886259	0.185907	0.390235
	C185	C	0.137492	0.184917	0.609814
	C186	C	0.136461	0.819971	0.389740
	C187	C	0.890493	0.823812	0.612329
	C188	C	0.191324	0.392140	0.879114
	C189	C	0.193777	0.613857	0.124183
	C190	C	0.831506	0.392648	0.122811
	C191	C	0.829152	0.612963	0.876816
	C192	C	0.415017	0.092816	0.596870
	C193	C	0.610124	0.911627	0.596450
	C194	C	0.608768	0.092489	0.402790
	C195	C	0.415568	0.909539	0.401118
	C196	C	0.608768	0.404151	0.091223
	C197	C	0.605773	0.597649	0.909732
	C198	C	0.415778	0.600617	0.091579
	C199	C	0.414242	0.403620	0.906636
	C200	C	0.103308	0.600341	0.404766
	C201	C	0.920484	0.602029	0.596131
	C202	C	0.103760	0.406358	0.596557
	C203	C	0.919819	0.408350	0.405518
	C204	C	0.914693	0.593866	0.096200
	C205	C	0.110035	0.412926	0.098601
	C206	C	0.108730	0.594522	0.903548
	C207	C	0.914312	0.411890	0.901691
	C208	C	0.110018	0.906426	0.591717
	C209	C	0.108118	0.101184	0.407541
	C210	C	0.916814	0.101042	0.592239
	C211	C	0.917575	0.907194	0.409545
	C212	C	0.604402	0.098839	0.904069
	C213	C	0.419712	0.100868	0.096393
	C214	C	0.603708	0.905512	0.094390
	C215	C	0.420867	0.904747	0.902125
	Zn216	Zn	0.512892	0.002112	0.749856
	Zn217	Zn	0.512557	0.001336	0.248278
	Zn218	Zn	0.760756	0.502219	-0.000024
	Zn219	Zn	0.262483	0.503018	0.000201
	Zn220	Zn	0.013061	0.754243	0.500742
	Zn221	Zn	0.011527	0.254087	0.500319
	Zn222	Zn	0.012224	0.503448	0.749500
	Zn223	Zn	0.011292	0.504111	0.250999
	Zn224	Zn	0.512105	0.752125	-0.000462
	Zn225	Zn	0.511694	0.252152	-0.000616
	Zn226	Zn	0.763471	0.003180	0.500478
	Zn227	Zn	0.261870	0.001636	0.498559
	N228	N	0.426611	0.965642	0.678586
	N229	N	0.600476	0.037680	0.680938
	N230	N	0.600387	0.966192	0.318674
	N231	N	0.426792	0.037150	0.319766
	N232	N	0.690506	0.415996	0.962886
	N233	N	0.689007	0.586437	0.037577
	N234	N	0.332856	0.588448	0.963543
	N235	N	0.335049	0.418439	0.036241
	N236	N	0.976250	0.684323	0.414031
	N237	N	0.048442	0.684125	0.588090
	N238	N	0.977045	0.322121	0.589141
	N239	N	0.046879	0.324234	0.413575
	N240	N	0.975464	0.418515	0.678075
	N241	N	0.048453	0.589704	0.679649
	N242	N	0.975517	0.591362	0.320909
	N243	N	0.047723	0.419353	0.322715
	N244	N	0.424136	0.683003	0.964030
	N245	N	0.599453	0.683120	0.035662
	N246	N	0.600065	0.320180	0.964125
	N247	N	0.425571	0.322614	0.035241
	N248	N	0.693076	0.966391	0.413568
	N249	N	0.692446	0.038407	0.586812
	N250	N	0.333076	0.965653	0.584933
	N251	N	0.333209	0.036632	0.412541
	N252	N	0.923625	0.468633	0.181591
	N253	N	0.098900	0.539736	0.181236
	N254	N	0.099077	0.468075	0.820114
	N255	N	0.924445	0.538871	0.819549
	N256	N	0.190726	0.916488	0.463039
	N257	N	0.191573	0.088617	0.534970
	N258	N	0.832797	0.090104	0.464704
	N259	N	0.834291	0.918234	0.537207
	N260	N	0.476423	0.181596	0.912776
	N261	N	0.547357	0.183567	0.087845
	N262	N	0.476118	0.823031	0.085010
	N263	N	0.547582	0.820069	0.910766
	N264	N	0.475882	0.916142	0.177371
	N265	N	0.548342	0.087746	0.178354
	N266	N	0.476032	0.086524	0.821817
	N267	N	0.549086	0.915201	0.819956
	N268	N	0.923006	0.185483	0.465577
	N269	N	0.100847	0.185190	0.534434
	N270	N	0.101934	0.820744	0.465714
	N271	N	0.926647	0.824361	0.536958
	N272	N	0.190613	0.467033	0.915104
	N273	N	0.193259	0.539102	0.088120
	N274	N	0.832632	0.466899	0.085712
	N275	N	0.830025	0.537953	0.912200
	O276	O	-0.126292	1.003040	-0.004962
	H277	H	-0.119528	0.999290	-0.007334
	H278	H	-0.130498	1.005049	-0.019624
	O279	O	0.821359	-0.055440	1.202937
	H280	H	0.791005	-0.045880	1.221342
	H281	H	0.839887	-0.046441	1.202986
	O282	O	0.418401	0.636130	0.485653
	H283	H	0.416708	0.625361	0.481628
	H284	H	0.401443	0.655321	0.479473
	O285	O	0.571260	1.498455	0.587360
	H286	H	0.582193	1.491438	0.589365
	H287	H	0.583126	1.503946	0.594102
	O288	O	0.411197	0.481142	0.647877
	H289	H	0.407143	0.500306	0.646488
	H290	H	0.415894	0.487886	0.653733
	O291	O	0.425257	0.468659	0.500197
	H292	H	0.417725	0.461573	0.499832
	H293	H	0.421073	0.463065	0.491895
	O294	O	0.214734	0.209206	1.164074
	H295	H	0.242916	0.238234	1.163500
	H296	H	0.198159	0.210848	1.141774
	O297	O	0.302752	0.290528	0.288083
	H298	H	0.309948	0.293404	0.276801
	H299	H	0.310808	0.293733	0.298190
	O300	O	0.479899	0.340839	0.679381
	H301	H	0.475062	0.350970	0.681657
	H302	H	0.474389	0.339751	0.683703
	O303	O	0.140952	0.117654	0.990664
	H304	H	0.133765	0.121938	0.973522
	H305	H	0.126426	0.114768	0.988283
	O306	O	0.722706	0.328672	0.335567
	H307	H	0.716831	0.322643	0.313640
	H308	H	0.725699	0.339269	0.335638
	O309	O	0.324802	0.316892	0.505284
	H310	H	0.330573	0.335495	0.498801
	H311	H	0.303498	0.293297	0.488175
	O312	O	0.205277	1.174268	0.757768
	H313	H	0.198337	1.186830	0.744997
	H314	H	0.208585	1.169162	0.756976
	O315	O	0.622560	0.490726	0.662283
	H316	H	0.627700	0.499467	0.662332
	H317	H	0.633156	0.484783	0.676794
	O318	O	1.149263	0.187834	-0.041386
	H319	H	1.152124	0.185568	-0.047601
	H320	H	1.140226	0.185724	-0.057598
	O321	O	-0.051999	0.094225	0.088210
	H322	H	-0.048288	0.078176	0.094595
	H323	H	-0.053020	0.092715	0.086830
	O324	O	0.721109	0.619929	0.627797
	H325	H	0.722346	0.623394	0.615297
	H326	H	0.741647	0.637001	0.642030
	O327	O	0.595587	0.319901	0.550235
	H328	H	0.608504	0.316964	0.544836
	H329	H	0.583708	0.325515	0.548148
	O330	O	0.081461	0.897554	0.169741
	H331	H	0.082727	0.893780	0.164987
	H332	H	0.081570	0.915150	0.167361
	O333	O	0.430817	0.636470	0.413211
	H334	H	0.424856	0.647333	0.389702
	H335	H	0.419162	0.649498	0.418601
	O336	O	0.171067	-0.115131	0.046268
	H337	H	0.171996	-0.106654	0.056159
	H338	H	0.179852	-0.133105	0.042083
	O339	O	-0.015353	1.176655	1.133337
	H340	H	-0.007259	1.179537	1.138034
	H341	H	-0.006655	1.160251	1.140718
	O342	O	0.226977	1.039395	1.213674
	H343	H	0.236777	1.059549	1.216919
	H344	H	0.238649	1.046471	1.225940
	O345	O	1.003847	1.077237	0.138675
	H346	H	1.023383	1.070173	0.129393
	H347	H	1.009183	1.081429	0.157486
	O348	O	0.348314	0.384752	0.700720
	H349	H	0.337534	0.383819	0.711901
	H350	H	0.343215	0.383279	0.695307
	O351	O	-0.081041	0.842271	1.071431
	H352	H	-0.070127	0.836754	1.065523
	H353	H	-0.071590	0.844938	1.066525
	O354	O	-0.427919	0.603948	0.337479
	H355	H	-0.451232	0.618949	0.344523
	H356	H	-0.417123	0.596971	0.332113
	O357	O	-0.291165	0.498813	0.382828
	H358	H	-0.290979	0.504846	0.401880
	H359	H	-0.292881	0.503157	0.373084
	O360	O	0.453702	0.458968	0.317661
	H361	H	0.455293	0.465272	0.328640
	H362	H	0.452468	0.456071	0.315168
	O363	O	0.142062	0.008379	1.025028
	H364	H	0.138006	0.008057	1.014265
	H365	H	0.144225	0.013368	1.032904
	O366	O	0.451066	0.372624	0.515221
	H367	H	0.448260	0.374284	0.503846
	H368	H	0.454239	0.367843	0.509296
	O369	O	0.343933	0.588155	0.476968
	H370	H	0.327812	0.601561	0.483492
	H371	H	0.349140	0.584085	0.494575
	O372	O	0.809953	-0.175891	1.020626
	H373	H	0.820519	-0.177800	1.013620
	H374	H	0.800186	-0.183378	1.016949
	O375	O	0.446223	0.589350	0.438436
	H376	H	0.438107	0.580212	0.459868
	H377	H	0.458769	0.581939	0.433007
	O378	O	1.016535	0.984736	0.785944
	H379	H	1.012410	0.994517	0.787897
	H380	H	0.997347	0.970238	0.785819
	O381	O	0.854660	0.190461	0.816600
	H382	H	0.847464	0.199723	0.849500
	H383	H	0.869309	0.183836	0.809911
	O384	O	0.373637	0.577436	0.583009
	H385	H	0.372994	0.561267	0.573635
	H386	H	0.385491	0.584948	0.597757
	O387	O	0.211319	-0.102296	0.795147
	H388	H	0.224407	-0.089948	0.791615
	H389	H	0.196201	-0.084449	0.789513
	O390	O	0.044261	-0.087784	0.172137
	H391	H	0.034931	-0.094229	0.181975
	H392	H	0.039459	-0.069192	0.176073
	O393	O	1.140419	0.876533	0.992628
	H394	H	1.151907	0.871276	0.997384
	H395	H	1.152715	0.875638	0.984507
	O396	O	0.890122	0.182555	0.082683
	H397	H	0.900796	0.171996	0.083095
	H398	H	0.894302	0.174091	0.075071
	O399	O	0.823111	-0.118770	1.179850
	H400	H	0.827164	-0.126099	1.175131
	H401	H	0.815390	-0.097859	1.163383
	O402	O	1.094193	0.891677	0.977149
	H403	H	1.084410	0.897580	0.985089
	H404	H	1.090142	0.882127	0.969600
	O405	O	1.661659	0.588737	-0.440612
	H406	H	1.663502	0.572559	-0.451912
	H407	H	1.650369	0.575989	-0.450653
	O408	O	0.807462	0.039843	-0.206897
	H409	H	0.801265	0.047409	-0.214979
	H410	H	0.789322	0.055494	-0.220399
	O411	O	0.793697	1.221827	-0.054652
	H412	H	0.779409	1.231744	-0.043445
	H413	H	0.779749	1.222618	-0.044844
	O414	O	-0.117338	0.872766	0.834800
	H415	H	-0.098454	0.853261	0.835948
	H416	H	-0.131436	0.882389	0.856065
	O417	O	0.518435	0.584297	0.309575
	H418	H	0.527805	0.572537	0.307187
	H419	H	0.523458	0.592909	0.314351
	O420	O	0.045147	-0.199927	-0.115578
	H421	H	0.063069	-0.200214	-0.112518
	H422	H	0.059416	-0.213179	-0.125230
	O423	O	0.525891	0.449763	0.466759
	H424	H	0.525075	0.448929	0.473288
	H425	H	0.533366	0.459569	0.460638
	O426	O	0.712342	0.625506	0.558606
	H427	H	0.721277	0.634854	0.574427
	H428	H	0.698001	0.625984	0.544859
	O429	O	0.656729	0.332104	0.478016
	H430	H	0.660487	0.331761	0.469914
	H431	H	0.662017	0.321971	0.466088
	O432	O	-0.077844	-0.035412	-0.012053
	H433	H	-0.082879	-0.040991	-0.019146
	H434	H	-0.077053	-0.058101	-0.001861
	O435	O	0.329737	0.683066	0.308532
	H436	H	0.324324	0.686048	0.329639
	H437	H	0.337247	0.678994	0.300281
	O438	O	0.154220	0.079905	-0.051970
	H439	H	0.138635	0.079989	-0.040006
	H440	H	0.155200	0.066117	-0.050360
	O441	O	0.944126	0.265497	-0.234823
	H442	H	0.933479	0.262324	-0.229585
	H443	H	0.946183	0.282121	-0.255269
	O444	O	0.122262	0.816105	0.800851
	H445	H	0.137717	0.806420	0.798584
	H446	H	0.134112	0.834697	0.792159
	O447	O	0.561099	0.678687	0.694176
	H448	H	0.586563	0.670833	0.689384
	H449	H	0.567172	0.694409	0.693640
	O450	O	0.448750	0.691889	0.485103
	H451	H	0.463715	0.698646	0.473187
	H452	H	0.422535	0.681437	0.486068
	O453	O	0.588163	0.340131	0.313272
	H454	H	0.591876	0.339002	0.326349
	H455	H	0.595998	0.340053	0.312166
