data_Molecule from HDF5

_cell_length_a		16.378400
_cell_length_b		16.294858
_cell_length_c		16.250868
_cell_angle_alpha	90.028731
_cell_angle_beta	90.000533
_cell_angle_gamma	90.028787
_symmetry_space_group_name_H-M	'P 1'
_symmetry_Int_Tables_number		1

loop_
	_symmetry_equiv_pos_as_xyz
	x,y,z

loop_
	_atom_site_label
	_atom_site_type_symbol
	_atom_site_fract_x
	_atom_site_fract_y
	_atom_site_fract_z
	H0	H	0.419831	0.861612	0.716268
	H1	H	0.615069	0.189967	0.716824
	H2	H	0.614141	0.861218	0.289698
	H3	H	0.420286	0.190048	0.289651
	H4	H	0.732415	0.427842	0.839989
	H5	H	0.731008	0.626269	0.167678
	H6	H	0.302064	0.623845	0.839044
	H7	H	0.301523	0.425549	0.167290
	H8	H	0.854541	0.740991	0.406728
	H9	H	0.179485	0.741366	0.602378
	H10	H	0.854196	0.311390	0.602730
	H11	H	0.179745	0.311552	0.405000
	H12	H	0.853762	0.429154	0.717996
	H13	H	0.179925	0.623693	0.717427
	H14	H	0.853807	0.624318	0.290617
	H15	H	0.180379	0.428080	0.289344
	H16	H	0.420122	0.738532	0.837962
	H17	H	0.613573	0.739440	0.167010
	H18	H	0.614831	0.313994	0.838247
	H19	H	0.417855	0.310966	0.167086
	H20	H	0.733411	0.862321	0.403040
	H21	H	0.733224	0.189282	0.602470
	H22	H	0.302172	0.862891	0.601664
	H23	H	0.301851	0.188520	0.402908
	H24	H	0.918967	0.362224	0.218346
	H25	H	0.113571	0.690787	0.216077
	H26	H	0.113514	0.361998	0.790448
	H27	H	0.919331	0.690549	0.790254
	H28	H	0.231316	0.927698	0.339604
	H29	H	0.232774	0.125522	0.666404
	H30	H	0.803478	0.124556	0.339738
	H31	H	0.802743	0.927489	0.666598
	H32	H	0.353870	0.241000	0.904887
	H33	H	0.680631	0.240374	0.100758
	H34	H	0.353749	0.811516	0.100577
	H35	H	0.679490	0.809862	0.902453
	H36	H	0.354017	0.928665	0.217313
	H37	H	0.680309	0.123865	0.217465
	H38	H	0.353755	0.124756	0.788265
	H39	H	0.680382	0.928952	0.788914
	H40	H	0.920177	0.239646	0.339991
	H41	H	0.114271	0.239188	0.667754
	H42	H	0.113734	0.812696	0.339487
	H43	H	0.921800	0.814321	0.668134
	H44	H	0.231331	0.361961	0.905403
	H45	H	0.233088	0.688927	0.103084
	H46	H	0.802234	0.362191	0.102364
	H47	H	0.801476	0.689371	0.904929
	H48	H	0.420765	0.145303	0.604256
	H49	H	0.609949	0.910026	0.595645
	H50	H	0.617949	0.142357	0.414777
	H51	H	0.409472	0.907427	0.416883
	H52	H	0.612777	0.433761	0.120394
	H53	H	0.613725	0.621169	0.883852
	H54	H	0.425201	0.611099	0.117243
	H55	H	0.430782	0.439338	0.890557
	H56	H	0.132727	0.623749	0.413814
	H57	H	0.902471	0.622618	0.590670
	H58	H	0.133036	0.435255	0.600725
	H59	H	0.905962	0.444757	0.414356
	H60	H	0.134287	0.428597	0.598819
	H61	H	0.901941	0.613554	0.600508
	H62	H	0.131705	0.614271	0.411568
	H63	H	0.898073	0.430970	0.400363
	H64	H	0.429731	0.622155	0.117939
	H65	H	0.612072	0.613006	0.889067
	H66	H	0.609353	0.434738	0.118379
	H67	H	0.425175	0.422399	0.884630
	H68	H	0.612680	0.144365	0.401968
	H69	H	0.609871	0.910470	0.593964
	H70	H	0.434128	0.139033	0.594876
	H71	H	0.426458	0.905962	0.395023
	H72	H	0.925716	0.640952	0.094028
	H73	H	0.111324	0.409323	0.098279
	H74	H	0.126807	0.648626	0.906302
	H75	H	0.926268	0.410884	0.912979
	H76	H	0.114237	0.930518	0.622558
	H77	H	0.118989	0.119836	0.384155
	H78	H	0.930025	0.112572	0.617111
	H79	H	0.920003	0.913832	0.379174
	H80	H	0.636380	0.127171	0.902252
	H81	H	0.401319	0.119613	0.096318
	H82	H	0.629004	0.941580	0.094643
	H83	H	0.401810	0.934610	0.908697
	H84	H	0.636147	0.929642	0.105014
	H85	H	0.401789	0.120030	0.095789
	H86	H	0.631091	0.122999	0.918331
	H87	H	0.400769	0.930351	0.906816
	H88	H	0.926646	0.127976	0.622441
	H89	H	0.107331	0.112112	0.389854
	H90	H	0.112231	0.937750	0.619609
	H91	H	0.909144	0.946407	0.385961
	H92	H	0.098583	0.642383	0.899486
	H93	H	0.108090	0.410486	0.097497
	H94	H	0.917929	0.643493	0.096029
	H95	H	0.920453	0.409634	0.912573
	H96	H	0.418378	0.141467	0.587665
	H97	H	0.611906	0.909504	0.594754
	H98	H	0.604412	0.139450	0.412215
	H99	H	0.436182	0.915777	0.419384
	H100	H	0.609752	0.430883	0.120552
	H101	H	0.605099	0.619854	0.887901
	H102	H	0.419116	0.620212	0.120958
	H103	H	0.413187	0.436642	0.885045
	H104	H	0.134869	0.620949	0.404975
	H105	H	0.897934	0.625261	0.602866
	H106	H	0.132091	0.433211	0.594069
	H107	H	0.901766	0.424786	0.420066
	H108	H	0.923895	0.642827	0.102525
	H109	H	0.110330	0.410349	0.094774
	H110	H	0.108752	0.636585	0.926986
	H111	H	0.923958	0.409675	0.907498
	H112	H	0.106975	0.931678	0.619916
	H113	H	0.106063	0.126410	0.385743
	H114	H	0.914941	0.116322	0.622251
	H115	H	0.942388	0.937347	0.393334
	H116	H	0.630574	0.110907	0.905927
	H117	H	0.401757	0.119693	0.095574
	H118	H	0.632661	0.925600	0.088477
	H119	H	0.402016	0.931095	0.911694
	C120	C	0.396019	0.034010	0.624156
	C121	C	0.638962	1.018047	0.624070
	C122	C	0.639305	0.033629	0.381485
	C123	C	0.395989	1.017629	0.381699
	C124	C	0.638595	0.405219	0.011385
	C125	C	0.638535	0.647169	0.995158
	C126	C	0.396138	0.646420	0.010633
	C127	C	0.395128	0.404107	0.995249
	C128	C	0.025556	0.647982	0.382214
	C129	C	1.008667	0.648389	0.625585
	C130	C	0.025120	0.404277	0.625976
	C131	C	1.009364	0.404777	0.382388
	C132	C	0.894326	0.534163	0.125972
	C133	C	0.138877	0.518150	0.125600
	C134	C	0.139092	0.534222	0.882409
	C135	C	0.895607	0.518232	0.883014
	C136	C	0.138938	0.904771	0.512119
	C137	C	0.138959	0.147589	0.494755
	C138	C	0.896008	0.147172	0.512168
	C139	C	0.895836	0.904527	0.494714
	C140	C	0.525043	0.148691	0.880315
	C141	C	0.509390	0.148002	0.124430
	C142	C	0.525245	0.904173	0.124401
	C143	C	0.509048	0.904204	0.880675
	C144	C	0.399130	0.910589	0.678618
	C145	C	0.636058	0.140878	0.679333
	C146	C	0.635593	0.910367	0.326970
	C147	C	0.399592	0.140945	0.327386
	C148	C	0.693988	0.407476	0.888479
	C149	C	0.693289	0.645653	0.118630
	C150	C	0.340716	0.644039	0.887490
	C151	C	0.339944	0.406198	0.118483
	C152	C	0.902997	0.703278	0.385290
	C153	C	0.131109	0.703165	0.622570
	C154	C	0.902814	0.349234	0.623148
	C155	C	0.131461	0.349515	0.384867
	C156	C	0.902474	0.407910	0.680443
	C157	C	0.131501	0.644489	0.679231
	C158	C	0.902706	0.645171	0.328033
	C159	C	0.131643	0.407495	0.327186
	C160	C	0.398987	0.701223	0.887097
	C161	C	0.635148	0.702334	0.118294
	C162	C	0.635605	0.350756	0.887710
	C163	C	0.397538	0.348832	0.118408
	C164	C	0.694733	0.910853	0.383263
	C165	C	0.694411	0.140762	0.622069
	C166	C	0.340736	0.911145	0.621715
	C167	C	0.340666	0.140327	0.383456
	C168	C	0.897955	0.410955	0.180453
	C169	C	0.135276	0.641285	0.179689
	C170	C	0.135032	0.410925	0.827956
	C171	C	0.899077	0.641865	0.828592
	C172	C	0.193270	0.907585	0.388358
	C173	C	0.193980	0.145061	0.617986
	C174	C	0.841290	0.144908	0.388689
	C175	C	0.841014	0.907205	0.618010
	C176	C	0.402660	0.203439	0.883735
	C177	C	0.631867	0.202552	0.121376
	C178	C	0.402645	0.849042	0.121571
	C179	C	0.631397	0.848597	0.882638
	C180	C	0.402403	0.907440	0.179182
	C181	C	0.631688	0.144877	0.179490
	C182	C	0.402619	0.145475	0.825974
	C183	C	0.631717	0.907446	0.825876
	C184	C	0.899232	0.201962	0.388779
	C185	C	0.135315	0.201629	0.618631
	C186	C	0.135315	0.850229	0.388475
	C187	C	0.899846	0.850841	0.618740
	C188	C	0.193313	0.410917	0.884975
	C189	C	0.194436	0.640595	0.123251
	C190	C	0.839726	0.411134	0.122951
	C191	C	0.840301	0.641170	0.885181
	C192	C	0.417945	0.119901	0.602052
	C193	C	0.616884	0.932037	0.601552
	C194	C	0.618051	0.119642	0.403327
	C195	C	0.417539	0.931771	0.403902
	C196	C	0.616931	0.426754	0.097632
	C197	C	0.616676	0.624487	0.909066
	C198	C	0.418128	0.624337	0.096609
	C199	C	0.416669	0.426323	0.909148
	C200	C	0.110911	0.626178	0.403789
	C201	C	0.922972	0.626995	0.604390
	C202	C	0.110929	0.425924	0.604422
	C203	C	0.924100	0.426967	0.404972
	C204	C	0.916059	0.620284	0.103891
	C205	C	0.116665	0.432008	0.103227
	C206	C	0.117812	0.620256	0.904409
	C207	C	0.917161	0.432409	0.904748
	C208	C	0.117708	0.926928	0.598426
	C209	C	0.117222	0.125797	0.408722
	C210	C	0.917494	0.125211	0.598410
	C211	C	0.917529	0.926167	0.408376
	C212	C	0.610630	0.126790	0.902453
	C213	C	0.423754	0.126177	0.102402
	C214	C	0.610534	0.925884	0.102485
	C215	C	0.423651	0.925807	0.902606
	Zn216	Zn	0.516871	0.025872	0.752522
	Zn217	Zn	0.517249	0.025917	0.253244
	Zn218	Zn	0.766776	0.526485	0.003785
	Zn219	Zn	0.267372	0.525584	0.004042
	Zn220	Zn	0.017469	0.776546	0.503792
	Zn221	Zn	0.017053	0.275592	0.504134
	Zn222	Zn	0.016897	0.526678	0.754442
	Zn223	Zn	0.016863	0.526210	0.253415
	Zn224	Zn	0.517465	0.775403	0.002275
	Zn225	Zn	0.517288	0.277087	0.003001
	Zn226	Zn	0.767981	0.025905	0.502730
	Zn227	Zn	0.267566	0.026311	0.502574
	N228	N	0.432679	0.987994	0.680344
	N229	N	0.602309	0.063485	0.680483
	N230	N	0.601887	0.987640	0.325706
	N231	N	0.433217	0.063646	0.325971
	N232	N	0.695789	0.440449	0.966194
	N233	N	0.695410	0.612032	0.040994
	N234	N	0.338741	0.610862	0.965404
	N235	N	0.338179	0.439504	0.040703
	N236	N	0.980215	0.705230	0.418267
	N237	N	0.053726	0.705463	0.589893
	N238	N	0.980151	0.346905	0.590078
	N239	N	0.054301	0.347770	0.418484
	N240	N	0.979515	0.441322	0.682303
	N241	N	0.054489	0.611087	0.681439
	N242	N	0.979747	0.611512	0.325981
	N243	N	0.054750	0.441185	0.325598
	N244	N	0.432643	0.702768	0.964635
	N245	N	0.601822	0.703279	0.040664
	N246	N	0.601365	0.349346	0.965151
	N247	N	0.431344	0.347548	0.040952
	N248	N	0.697263	0.988671	0.416200
	N249	N	0.696305	0.063256	0.588446
	N250	N	0.338555	0.988869	0.588775
	N251	N	0.338480	0.062658	0.416540
	N252	N	0.931027	0.488465	0.182318
	N253	N	0.101404	0.563923	0.181005
	N254	N	0.101971	0.488521	0.826235
	N255	N	0.933011	0.564638	0.827264
	N256	N	0.195619	0.940729	0.466310
	N257	N	0.196261	0.112047	0.540075
	N258	N	0.839226	0.111690	0.466444
	N259	N	0.838422	0.939658	0.539960
	N260	N	0.479904	0.205718	0.916782
	N261	N	0.554755	0.204588	0.087835
	N262	N	0.479853	0.846899	0.088170
	N263	N	0.554371	0.846583	0.916191
	N264	N	0.479322	0.941078	0.180882
	N265	N	0.554579	0.111616	0.181459
	N266	N	0.479673	0.111925	0.824023
	N267	N	0.554848	0.941435	0.824973
	N268	N	0.932489	0.203549	0.466502
	N269	N	0.101892	0.203357	0.541044
	N270	N	0.102394	0.848433	0.466195
	N271	N	0.933477	0.849416	0.541140
	N272	N	0.195843	0.488559	0.918181
	N273	N	0.196722	0.562796	0.090521
	N274	N	0.837684	0.488856	0.089764
	N275	N	0.837965	0.563386	0.918020
	O276	O	-0.505763	-0.503089	0.478770
	H277	H	-0.508253	-0.507226	0.472436
	H278	H	-0.500975	-0.510495	0.476571
	O279	O	0.539050	-0.489342	0.488113
	H280	H	0.535387	-0.490721	0.475571
	H281	H	0.540833	-0.477900	0.480970
	O282	O	0.498544	0.430317	0.523616
	H283	H	0.499243	0.427634	0.526091
	H284	H	0.497940	0.438669	0.529799
	O285	O	-0.491432	-0.523038	0.500384
	H286	H	-0.490156	-0.528810	0.503285
	H287	H	-0.491640	-0.525840	0.508834
	O288	O	0.506772	0.463400	0.459585
	H289	H	0.507156	0.460848	0.468129
	H290	H	0.497453	0.465372	0.458990
	O291	O	-0.491607	0.516109	0.424929
	H292	H	-0.481764	0.521049	0.432787
	H293	H	-0.494103	0.516557	0.424481
	O294	O	0.485799	0.509615	0.458421
	H295	H	0.488026	0.505850	0.452289
	H296	H	0.486157	0.510966	0.450806
	O297	O	0.513859	-0.544329	0.457046
	H298	H	0.508940	-0.551553	0.451387
	H299	H	0.504973	-0.544625	0.458225
