data_Molecule from HDF5

_cell_length_a		16.249993
_cell_length_b		16.306742
_cell_length_c		16.320919
_cell_angle_alpha	90.542852
_cell_angle_beta	90.133696
_cell_angle_gamma	90.232985
_symmetry_space_group_name_H-M	'P 1'
_symmetry_Int_Tables_number		1

loop_
	_symmetry_equiv_pos_as_xyz
	x,y,z

loop_
	_atom_site_label
	_atom_site_type_symbol
	_atom_site_fract_x
	_atom_site_fract_y
	_atom_site_fract_z
	H0	H	0.399325	0.835807	0.701499
	H1	H	0.604763	0.159157	0.708438
	H2	H	0.600864	0.837392	0.267543
	H3	H	0.400050	0.160719	0.272011
	H4	H	0.715229	0.395778	0.826119
	H5	H	0.715355	0.601380	0.151345
	H6	H	0.281234	0.597135	0.826453
	H7	H	0.282363	0.399135	0.150303
	H8	H	0.836628	0.713078	0.387831
	H9	H	0.162915	0.716557	0.590396
	H10	H	0.838073	0.279674	0.586589
	H11	H	0.162301	0.281610	0.384551
	H12	H	0.836706	0.396158	0.703272
	H13	H	0.162122	0.602161	0.707080
	H14	H	0.835872	0.596422	0.273794
	H15	H	0.161680	0.397059	0.270320
	H16	H	0.398459	0.710546	0.824885
	H17	H	0.599796	0.717628	0.150339
	H18	H	0.598839	0.279428	0.826830
	H19	H	0.396291	0.282779	0.151262
	H20	H	0.714526	0.835259	0.384932
	H21	H	0.717883	0.160508	0.588864
	H22	H	0.283839	0.836027	0.585446
	H23	H	0.285342	0.160414	0.387104
	H24	H	0.897120	0.335480	0.203375
	H25	H	0.098956	0.660593	0.206711
	H26	H	0.103225	0.338189	0.767253
	H27	H	0.897607	0.661487	0.772415
	H28	H	0.214470	0.899154	0.322831
	H29	H	0.218868	0.101112	0.648779
	H30	H	0.783727	0.097641	0.324309
	H31	H	0.782464	0.897589	0.647935
	H32	H	0.336880	0.214133	0.885737
	H33	H	0.660702	0.218618	0.091759
	H34	H	0.335404	0.784034	0.084985
	H35	H	0.662411	0.779997	0.886069
	H36	H	0.336778	0.899039	0.201751
	H37	H	0.662914	0.101393	0.204323
	H38	H	0.337567	0.097735	0.770038
	H39	H	0.662655	0.895154	0.769832
	H40	H	0.899206	0.213591	0.324535
	H41	H	0.105877	0.219718	0.647669
	H42	H	0.099077	0.780797	0.325121
	H43	H	0.899329	0.784198	0.650072
	H44	H	0.214461	0.335858	0.886428
	H45	H	0.215518	0.661136	0.090524
	H46	H	0.780735	0.336701	0.089241
	H47	H	0.784432	0.661802	0.891104
	H48	H	0.412012	0.111561	0.573326
	H49	H	0.599342	0.883093	0.568819
	H50	H	0.594811	0.119361	0.381494
	H51	H	0.415954	0.885936	0.398660
	H52	H	0.592705	0.404649	0.105842
	H53	H	0.593234	0.589537	0.871726
	H54	H	0.403854	0.589779	0.104380
	H55	H	0.397767	0.413909	0.873036
	H56	H	0.114708	0.589936	0.400539
	H57	H	0.883822	0.590141	0.580798
	H58	H	0.112917	0.418616	0.580645
	H59	H	0.882577	0.400239	0.397176
	H60	H	0.118338	0.405239	0.584237
	H61	H	0.883157	0.591605	0.582074
	H62	H	0.115226	0.587051	0.396046
	H63	H	0.885462	0.409120	0.401030
	H64	H	0.411509	0.590656	0.102858
	H65	H	0.591857	0.587222	0.873660
	H66	H	0.592718	0.413919	0.103659
	H67	H	0.418602	0.409059	0.878048
	H68	H	0.580040	0.109078	0.401479
	H69	H	0.594741	0.878747	0.587491
	H70	H	0.405047	0.116137	0.582047
	H71	H	0.399566	0.880928	0.397918
	H72	H	0.904158	0.611880	0.072574
	H73	H	0.093597	0.379613	0.086003
	H74	H	0.093366	0.614150	0.899829
	H75	H	0.903403	0.381721	0.895018
	H76	H	0.100377	0.908764	0.604058
	H77	H	0.093588	0.104351	0.366218
	H78	H	0.917316	0.090976	0.600228
	H79	H	0.910371	0.909952	0.373779
	H80	H	0.614330	0.086224	0.897312
	H81	H	0.386249	0.088191	0.073677
	H82	H	0.617962	0.896991	0.075606
	H83	H	0.380562	0.899731	0.887306
	H84	H	0.610971	0.913555	0.069777
	H85	H	0.383099	0.084899	0.085662
	H86	H	0.615458	0.090975	0.899439
	H87	H	0.384383	0.900647	0.900737
	H88	H	0.907676	0.093311	0.603568
	H89	H	0.106254	0.082382	0.369010
	H90	H	0.090628	0.914522	0.599299
	H91	H	0.913198	0.899648	0.371305
	H92	H	0.088947	0.614415	0.897527
	H93	H	0.082414	0.384360	0.079697
	H94	H	0.901556	0.618380	0.090644
	H95	H	0.910762	0.384167	0.891778
	H96	H	0.416775	0.113181	0.584539
	H97	H	0.580749	0.886542	0.576256
	H98	H	0.606445	0.115628	0.405060
	H99	H	0.409950	0.879712	0.383621
	H100	H	0.585116	0.408634	0.101881
	H101	H	0.589335	0.589415	0.872716
	H102	H	0.406604	0.596284	0.105074
	H103	H	0.405231	0.394012	0.868926
	H104	H	0.116979	0.592295	0.396064
	H105	H	0.883198	0.592289	0.580553
	H106	H	0.113262	0.407790	0.570105
	H107	H	0.883009	0.408153	0.391445
	H108	H	0.918644	0.612430	0.085690
	H109	H	0.094395	0.383105	0.073186
	H110	H	0.089749	0.612236	0.902373
	H111	H	0.909158	0.386131	0.900211
	H112	H	0.089681	0.902534	0.603643
	H113	H	0.081392	0.083361	0.377396
	H114	H	0.909589	0.083799	0.598827
	H115	H	0.902662	0.902708	0.369310
	H116	H	0.612844	0.086812	0.902468
	H117	H	0.380184	0.096878	0.081028
	H118	H	0.617873	0.911907	0.087928
	H119	H	0.385519	0.911896	0.892545
	C120	C	0.380196	0.006539	0.608343
	C121	C	0.622702	0.989481	0.609183
	C122	C	0.622356	0.007281	0.365194
	C123	C	0.379343	0.989792	0.365259
	C124	C	0.620428	0.377374	-0.003103
	C125	C	0.620863	0.620130	0.979931
	C126	C	0.377372	0.619937	-0.003338
	C127	C	0.376834	0.376691	0.980410
	C128	C	0.007809	0.618494	0.368263
	C129	C	0.991202	0.621588	0.611057
	C130	C	0.008187	0.378144	0.608712
	C131	C	0.990991	0.376135	0.365827
	C132	C	0.877400	0.506783	0.110906
	C133	C	0.120293	0.489615	0.110349
	C134	C	0.120205	0.506709	0.867840
	C135	C	0.878158	0.491260	0.867156
	C136	C	0.122572	0.877633	0.495409
	C137	C	0.124042	0.121375	0.477843
	C138	C	0.880584	0.118853	0.494441
	C139	C	0.878504	0.875738	0.478391
	C140	C	0.507528	0.117991	0.868103
	C141	C	0.490683	0.121000	0.110589
	C142	C	0.507584	0.877553	0.107448
	C143	C	0.491204	0.874656	0.864335
	C144	C	0.379989	0.884379	0.663383
	C145	C	0.623413	0.110921	0.668454
	C146	C	0.620798	0.885385	0.306772
	C147	C	0.380550	0.112174	0.309971
	C148	C	0.676804	0.376653	0.874796
	C149	C	0.677026	0.620606	0.102608
	C150	C	0.320190	0.617005	0.874657
	C151	C	0.320243	0.378508	0.102114
	C152	C	0.885079	0.674594	0.368771
	C153	C	0.113788	0.678671	0.610445
	C154	C	0.886526	0.319012	0.607241
	C155	C	0.113325	0.319610	0.365495
	C156	C	0.885801	0.376975	0.665097
	C157	C	0.113385	0.621790	0.668663
	C158	C	0.884641	0.616534	0.312283
	C159	C	0.113113	0.376782	0.308486
	C160	C	0.378336	0.673755	0.873941
	C161	C	0.619648	0.678418	0.101992
	C162	C	0.619326	0.318461	0.875303
	C163	C	0.376958	0.320471	0.102193
	C164	C	0.677391	0.884476	0.365173
	C165	C	0.679529	0.111821	0.608775
	C166	C	0.322740	0.884608	0.605578
	C167	C	0.323659	0.112132	0.367557
	C168	C	0.877709	0.384429	0.165505
	C169	C	0.119163	0.612127	0.167777
	C170	C	0.120913	0.385826	0.807930
	C171	C	0.878613	0.613059	0.811203
	C172	C	0.177022	0.878965	0.372245
	C173	C	0.180780	0.121111	0.600008
	C174	C	0.822611	0.117415	0.372800
	C175	C	0.821539	0.877897	0.600030
	C176	C	0.385295	0.174946	0.867315
	C177	C	0.612416	0.179378	0.110603
	C178	C	0.384572	0.822053	0.105113
	C179	C	0.613575	0.818275	0.865892
	C180	C	0.385196	0.879237	0.163286
	C181	C	0.613527	0.120671	0.166667
	C182	C	0.385837	0.117439	0.809283
	C183	C	0.613865	0.875898	0.808502
	C184	C	0.880330	0.175032	0.372772
	C185	C	0.124511	0.180016	0.599454
	C186	C	0.120189	0.819825	0.373274
	C187	C	0.879587	0.821295	0.600868
	C188	C	0.176657	0.384782	0.867096
	C189	C	0.177045	0.612272	0.110040
	C190	C	0.819957	0.384931	0.108446
	C191	C	0.822044	0.613192	0.870050
	C192	C	0.404292	0.091606	0.586485
	C193	C	0.598682	0.904558	0.584806
	C194	C	0.600276	0.092575	0.389055
	C195	C	0.401882	0.904463	0.386890
	C196	C	0.597059	0.401919	0.081702
	C197	C	0.598214	0.595804	0.894847
	C198	C	0.400501	0.598482	0.081787
	C199	C	0.400456	0.399099	0.895499
	C200	C	0.093388	0.596212	0.390873
	C201	C	0.905714	0.598111	0.587847
	C202	C	0.092992	0.403187	0.585135
	C203	C	0.905877	0.399084	0.389562
	C204	C	0.901013	0.592168	0.089170
	C205	C	0.097084	0.404368	0.086534
	C206	C	0.097193	0.591585	0.892612
	C207	C	0.901173	0.406014	0.889133
	C208	C	0.100042	0.901588	0.580423
	C209	C	0.100582	0.097190	0.392945
	C210	C	0.904617	0.095993	0.578967
	C211	C	0.901983	0.897762	0.393366
	C212	C	0.592229	0.094800	0.892640
	C213	C	0.405245	0.096933	0.086991
	C214	C	0.593314	0.900909	0.084614
	C215	C	0.405574	0.897440	0.886880
	Zn216	Zn	0.500509	-0.002578	0.737879
	Zn217	Zn	0.500259	-0.001148	0.237392
	Zn218	Zn	0.749519	0.498791	-0.011043
	Zn219	Zn	0.249055	0.498020	-0.011395
	Zn220	Zn	0.000034	0.748028	0.487956
	Zn221	Zn	0.001081	0.248626	0.486598
	Zn222	Zn	-0.000772	0.499276	0.738532
	Zn223	Zn	-0.001115	0.497644	0.239136
	Zn224	Zn	0.499288	0.748084	-0.013131
	Zn225	Zn	0.498339	0.248398	-0.011061
	Zn226	Zn	0.750841	-0.002279	0.486460
	Zn227	Zn	0.251685	-0.000802	0.486561
	N228	N	0.415109	0.961219	0.664964
	N229	N	0.588828	0.033958	0.668688
	N230	N	0.587399	0.962681	0.306653
	N231	N	0.414738	0.035188	0.308455
	N232	N	0.677685	0.412443	0.951584
	N233	N	0.678040	0.585101	0.025784
	N234	N	0.319293	0.584248	0.952046
	N235	N	0.319887	0.412417	0.025357
	N236	N	0.962584	0.676076	0.402897
	N237	N	0.036742	0.678700	0.575185
	N238	N	0.963657	0.319509	0.572875
	N239	N	0.036449	0.318934	0.400264
	N240	N	0.962615	0.412769	0.666296
	N241	N	0.036201	0.587077	0.669132
	N242	N	0.961923	0.582469	0.311495
	N243	N	0.035924	0.411063	0.308296
	N244	N	0.413298	0.675763	0.950560
	N245	N	0.585297	0.677911	0.024885
	N246	N	0.585023	0.318936	0.952211
	N247	N	0.411651	0.319261	0.025339
	N248	N	0.678170	0.961210	0.401063
	N249	N	0.679313	0.035167	0.572707
	N250	N	0.322773	0.961628	0.571931
	N251	N	0.322983	0.035158	0.401149
	N252	N	0.912734	0.461304	0.167233
	N253	N	0.084586	0.534959	0.168013
	N254	N	0.086464	0.462603	0.808488
	N255	N	0.912412	0.536037	0.809222
	N256	N	0.178643	0.914032	0.449207
	N257	N	0.180533	0.085415	0.523482
	N258	N	0.822900	0.082834	0.449262
	N259	N	0.820694	0.911057	0.522809
	N260	N	0.461928	0.175535	0.903296
	N261	N	0.535011	0.179707	0.076496
	N262	N	0.461932	0.820965	0.071095
	N263	N	0.536335	0.817531	0.899975
	N264	N	0.462830	0.913120	0.164801
	N265	N	0.536708	0.084984	0.166749
	N266	N	0.462687	0.082698	0.809724
	N267	N	0.536674	0.910120	0.807498
	N268	N	0.915842	0.175810	0.449322
	N269	N	0.089900	0.180320	0.522469
	N270	N	0.086954	0.818769	0.450657
	N271	N	0.914368	0.820036	0.524236
	N272	N	0.176335	0.461088	0.903658
	N273	N	0.177844	0.535090	0.075039
	N274	N	0.819556	0.462128	0.075383
	N275	N	0.821482	0.536266	0.904030
	O276	O	0.968317	0.079742	1.078279
	H277	H	0.960177	0.085780	1.080920
	H278	H	0.969328	0.079498	1.078882
	O279	O	0.459087	0.492520	0.517324
	H280	H	0.454789	0.494951	0.517564
	H281	H	0.460613	0.502063	0.517364
	O282	O	0.402093	0.619312	0.360249
	H283	H	0.400355	0.625936	0.365592
	H284	H	0.397012	0.609724	0.360903
	O285	O	0.524265	0.610237	0.380214
	H286	H	0.519911	0.598762	0.371483
	H287	H	0.519064	0.618059	0.375632
	O288	O	0.426787	0.499644	0.507004
	H289	H	0.415281	0.486495	0.522717
	H290	H	0.421562	0.500562	0.497731
	O291	O	-0.034538	-0.115708	0.998787
	H292	H	-0.016710	-0.112466	0.986827
	H293	H	-0.039661	-0.119875	0.996064
	O294	O	1.122292	0.965625	0.004728
	H295	H	1.128252	0.960928	0.000609
	H296	H	1.121496	0.971512	0.006954
	O297	O	1.016158	0.951037	-0.056194
	H298	H	1.006405	0.956731	-0.065365
	H299	H	1.019643	0.949743	-0.055542
	O300	O	0.587857	0.527103	0.504741
	H301	H	0.585967	0.525845	0.515079
	H302	H	0.584308	0.523034	0.502295
	O303	O	0.488172	0.466458	0.483680
	H304	H	0.499049	0.469927	0.485118
	H305	H	0.483259	0.450999	0.491239
	O306	O	0.021089	1.095339	0.870462
	H307	H	0.029373	1.112240	0.866660
	H308	H	0.025099	1.090637	0.869210
	O309	O	0.488919	0.343329	0.544711
	H310	H	0.494662	0.338799	0.550144
	H311	H	0.502265	0.355170	0.556234
	O312	O	0.962240	1.019429	0.892131
	H313	H	0.957914	1.011588	0.881083
	H314	H	0.958998	1.015556	0.907879
	O315	O	1.089965	0.891002	-0.023542
	H316	H	1.090573	0.887541	-0.021925
	H317	H	1.092492	0.898233	-0.033625
	O318	O	0.994103	-0.107775	0.885364
	H319	H	1.007712	-0.112152	0.897553
	H320	H	1.003829	-0.104675	0.881403
	O321	O	0.486465	0.479301	0.477573
	H322	H	0.485018	0.487847	0.477688
	H323	H	0.484128	0.492989	0.476889
	O324	O	-0.082803	1.065446	1.067559
	H325	H	-0.084220	1.070157	1.064149
	H326	H	-0.082166	1.059702	1.074833
	O327	O	-0.068737	1.051360	0.984050
	H328	H	-0.066258	1.047847	0.977713
	H329	H	-0.072570	1.060040	0.971088
	O330	O	-0.505911	-0.544249	-0.419696
	H331	H	-0.502202	-0.542912	-0.426029
	H332	H	-0.503129	-0.540549	-0.442562
	O333	O	0.363310	0.632192	0.478342
	H334	H	0.360484	0.629820	0.476331
	H335	H	0.373962	0.632235	0.479598
	O336	O	-0.100023	-0.021317	0.066212
	H337	H	-0.091993	-0.016105	0.052965
	H338	H	-0.107734	-0.016231	0.064131
	O339	O	0.089157	0.002712	-0.079498
	H340	H	0.086397	0.001743	-0.071221
	H341	H	0.087346	0.008164	-0.074507
	O342	O	0.925996	-0.081419	0.968409
	H343	H	0.923797	-0.071522	0.994010
	H344	H	0.928496	-0.091054	0.959663
	O345	O	-0.116043	1.033900	0.925483
	H346	H	-0.116962	1.026967	0.931642
	H347	H	-0.118718	1.018784	0.941469
	O348	O	0.481385	0.462657	0.544457
	H349	H	0.478287	0.470833	0.533321
	H350	H	0.484028	0.461405	0.556314
	O351	O	0.568290	0.408562	0.539773
	H352	H	0.570012	0.413913	0.536903
	H353	H	0.584579	0.407550	0.538007
	O354	O	-0.465576	1.483675	0.556293
	H355	H	-0.467313	1.484329	0.555311
	H356	H	-0.461264	1.497487	0.568662
	O357	O	0.613569	0.598848	0.502338
	H358	H	0.617395	0.602280	0.489369
	H359	H	0.607926	0.607190	0.492298
	O360	O	1.039920	-0.016037	0.997582
	H361	H	1.040066	-0.007843	1.000849
	H362	H	1.026635	-0.006218	0.996375
	O363	O	0.421543	0.490715	0.606864
	H364	H	0.414121	0.489493	0.600546
	H365	H	0.424833	0.483680	0.615541
	O366	O	1.113985	0.910390	0.034452
	H367	H	1.113914	0.923262	0.038897
	H368	H	1.126384	0.912459	0.012905
	O369	O	1.058772	0.004424	0.092971
	H370	H	1.059292	0.000436	0.096445
	H371	H	1.058293	0.002799	0.094912
	O372	O	0.501178	0.601979	0.579878
	H373	H	0.495133	0.613467	0.568985
	H374	H	0.509546	0.589292	0.587118
	O375	O	1.054295	0.185036	0.984894
	H376	H	1.052516	0.194594	0.993073
	H377	H	1.046751	0.188238	0.984007
	O378	O	-0.068139	1.151826	-0.154357
	H379	H	-0.091512	1.134642	-0.156424
	H380	H	-0.073063	1.163731	-0.166395
	O381	O	-0.507883	1.317186	1.377666
	H382	H	-0.509755	1.311952	1.380042
	H383	H	-0.508688	1.316477	1.373342
	O384	O	1.034756	1.008747	0.074590
	H385	H	1.031518	1.010163	0.071315
	H386	H	1.035112	1.000717	0.080056
	O387	O	0.823561	0.097423	0.883803
	H388	H	0.837748	0.093923	0.890274
	H389	H	0.807351	0.090787	0.865834
	O390	O	1.584209	0.508843	0.452391
	H391	H	1.587236	0.509856	0.450022
	H392	H	1.590595	0.508719	0.468446
	O393	O	0.425667	0.468054	0.411987
	H394	H	0.414033	0.457532	0.400989
	H395	H	0.426083	0.465207	0.407327
