data_Molecule from HDF5

_cell_length_a		16.595658
_cell_length_b		16.556476
_cell_length_c		16.636261
_cell_angle_alpha	90.034597
_cell_angle_beta	90.014832
_cell_angle_gamma	89.980468
_symmetry_space_group_name_H-M	'P 1'
_symmetry_Int_Tables_number		1

loop_
	_symmetry_equiv_pos_as_xyz
	x,y,z

loop_
	_atom_site_label
	_atom_site_type_symbol
	_atom_site_fract_x
	_atom_site_fract_y
	_atom_site_fract_z
	H0	H	0.395810	0.880600	0.708917
	H1	H	0.607630	0.191430	0.711099
	H2	H	0.606957	0.881509	0.266515
	H3	H	0.395466	0.191805	0.265449
	H4	H	0.723523	0.431187	0.831059
	H5	H	0.723813	0.642215	0.143706
	H6	H	0.281452	0.640990	0.832209
	H7	H	0.278114	0.429019	0.140967
	H8	H	0.844968	0.759085	0.383105
	H9	H	0.157336	0.756991	0.591450
	H10	H	0.845537	0.315134	0.593854
	H11	H	0.156588	0.315325	0.383168
	H12	H	0.845566	0.431812	0.709544
	H13	H	0.157129	0.642540	0.709022
	H14	H	0.845963	0.643427	0.265639
	H15	H	0.156109	0.430416	0.265405
	H16	H	0.397363	0.758278	0.832404
	H17	H	0.607722	0.758693	0.143483
	H18	H	0.607940	0.313744	0.832271
	H19	H	0.396039	0.313989	0.141950
	H20	H	0.722475	0.880622	0.383268
	H21	H	0.724902	0.191238	0.596164
	H22	H	0.281487	0.879626	0.590971
	H23	H	0.280512	0.193051	0.383465
	H24	H	0.893726	0.382003	0.210886
	H25	H	0.108655	0.692482	0.210661
	H26	H	0.109149	0.382087	0.764646
	H27	H	0.900454	0.694996	0.769246
	H28	H	0.222613	0.932469	0.332423
	H29	H	0.220631	0.140117	0.644448
	H30	H	0.775671	0.145248	0.334331
	H31	H	0.777929	0.929153	0.643132
	H32	H	0.346687	0.259076	0.882595
	H33	H	0.657267	0.259209	0.095485
	H34	H	0.346097	0.814402	0.092954
	H35	H	0.657860	0.815050	0.882399
	H36	H	0.346935	0.929200	0.210791
	H37	H	0.655659	0.144792	0.213196
	H38	H	0.346117	0.142156	0.767082
	H39	H	0.656652	0.929090	0.764203
	H40	H	0.891852	0.260667	0.334140
	H41	H	0.102103	0.255242	0.645065
	H42	H	0.105774	0.816433	0.331666
	H43	H	0.896263	0.814692	0.644172
	H44	H	0.226425	0.382923	0.879286
	H45	H	0.224203	0.693052	0.094077
	H46	H	0.780919	0.380471	0.092913
	H47	H	0.782949	0.694809	0.884048
	H48	H	0.404619	0.151917	0.579559
	H49	H	0.591943	0.923257	0.577615
	H50	H	0.586379	0.146748	0.401911
	H51	H	0.415250	0.926969	0.404414
	H52	H	0.588117	0.444818	0.097970
	H53	H	0.594115	0.623144	0.876899
	H54	H	0.410963	0.627298	0.100803
	H55	H	0.411419	0.450385	0.875575
	H56	H	0.111370	0.623083	0.399037
	H57	H	0.888003	0.627532	0.577672
	H58	H	0.112981	0.452919	0.581560
	H59	H	0.889034	0.449096	0.398145
	H60	H	0.115346	0.441128	0.578233
	H61	H	0.889310	0.625142	0.577127
	H62	H	0.113957	0.627006	0.396501
	H63	H	0.890503	0.448911	0.402155
	H64	H	0.413322	0.622798	0.098585
	H65	H	0.588622	0.626988	0.876396
	H66	H	0.596725	0.446754	0.100332
	H67	H	0.417199	0.452124	0.878143
	H68	H	0.590667	0.148860	0.402688
	H69	H	0.585890	0.925483	0.578077
	H70	H	0.415895	0.149716	0.583485
	H71	H	0.406306	0.922155	0.399665
	H72	H	0.910030	0.650106	0.077298
	H73	H	0.087702	0.425506	0.078113
	H74	H	0.087608	0.647180	0.899301
	H75	H	0.908382	0.425109	0.903090
	H76	H	0.093458	0.946643	0.600597
	H77	H	0.090445	0.124772	0.376724
	H78	H	0.910339	0.123922	0.598682
	H79	H	0.912525	0.951260	0.378314
	H80	H	0.616206	0.131228	0.899051
	H81	H	0.390957	0.119210	0.081787
	H82	H	0.614707	0.945385	0.078011
	H83	H	0.390638	0.947042	0.900648
	H84	H	0.612152	0.948313	0.074025
	H85	H	0.387947	0.132184	0.077272
	H86	H	0.610281	0.121474	0.906346
	H87	H	0.391519	0.949964	0.899703
	H88	H	0.914656	0.121132	0.596631
	H89	H	0.090173	0.127702	0.375849
	H90	H	0.091270	0.948102	0.599536
	H91	H	0.915362	0.946327	0.378096
	H92	H	0.092143	0.649600	0.901546
	H93	H	0.088016	0.428378	0.073384
	H94	H	0.917791	0.648237	0.078497
	H95	H	0.910561	0.422241	0.891164
	H96	H	0.413442	0.147484	0.572050
	H97	H	0.588989	0.925904	0.572163
	H98	H	0.588298	0.149317	0.398557
	H99	H	0.415283	0.924047	0.393466
	H100	H	0.591729	0.453174	0.096588
	H101	H	0.594184	0.628816	0.874400
	H102	H	0.416670	0.627425	0.099298
	H103	H	0.416485	0.445931	0.876255
	H104	H	0.112448	0.627229	0.401676
	H105	H	0.888513	0.625321	0.579633
	H106	H	0.109810	0.449342	0.570113
	H107	H	0.891198	0.452572	0.399242
	H108	H	0.914123	0.646628	0.071546
	H109	H	0.092353	0.425325	0.075093
	H110	H	0.091321	0.650292	0.896212
	H111	H	0.920037	0.427179	0.898036
	H112	H	0.090653	0.945814	0.600515
	H113	H	0.092568	0.126245	0.375018
	H114	H	0.915712	0.126771	0.599334
	H115	H	0.909994	0.946500	0.375922
	H116	H	0.613627	0.118861	0.893148
	H117	H	0.394099	0.122722	0.069038
	H118	H	0.612610	0.950748	0.078958
	H119	H	0.389988	0.947776	0.897432
	C120	C	0.379818	0.045674	0.609311
	C121	C	0.621936	1.027816	0.609198
	C122	C	0.621604	0.045479	0.367975
	C123	C	0.380088	1.027834	0.366830
	C124	C	0.624544	0.415041	-0.004199
	C125	C	0.623926	0.658400	0.979209
	C126	C	0.381549	0.657927	-0.003589
	C127	C	0.381289	0.415902	0.978822
	C128	C	0.009842	0.658539	0.366534
	C129	C	0.992518	0.657839	0.609003
	C130	C	0.009903	0.415340	0.609387
	C131	C	0.992683	0.416073	0.366658
	C132	C	0.880486	0.545517	0.108803
	C133	C	0.122669	0.528958	0.108422
	C134	C	0.123016	0.545965	0.866388
	C135	C	0.881273	0.528820	0.866250
	C136	C	0.123286	0.915197	0.496754
	C137	C	0.122342	0.158172	0.479156
	C138	C	0.879571	0.157475	0.496419
	C139	C	0.879907	0.914993	0.479998
	C140	C	0.510337	0.157245	0.866879
	C141	C	0.493561	0.157597	0.109172
	C142	C	0.509936	0.915631	0.108952
	C143	C	0.493483	0.915309	0.866342
	C144	C	0.377380	0.927723	0.669183
	C145	C	0.625630	0.144772	0.670840
	C146	C	0.624874	0.928234	0.306813
	C147	C	0.377450	0.145319	0.306335
	C148	C	0.683916	0.412516	0.878285
	C149	C	0.683635	0.660615	0.096790
	C150	C	0.321843	0.659580	0.878863
	C151	C	0.319393	0.411699	0.094844
	C152	C	0.892121	0.718902	0.364304
	C153	C	0.110733	0.716982	0.609970
	C154	C	0.892216	0.355599	0.611835
	C155	C	0.109750	0.355499	0.364626
	C156	C	0.892504	0.413196	0.669653
	C157	C	0.110397	0.660076	0.668441
	C158	C	0.892435	0.661459	0.305984
	C159	C	0.109675	0.412779	0.306220
	C160	C	0.379340	0.717699	0.878861
	C161	C	0.625785	0.718408	0.096705
	C162	C	0.626342	0.354322	0.878779
	C163	C	0.377911	0.354509	0.095409
	C164	C	0.682251	0.927822	0.364714
	C165	C	0.683742	0.144628	0.613575
	C166	C	0.320637	0.927288	0.610402
	C167	C	0.320411	0.146032	0.364823
	C168	C	0.876741	0.428693	0.170065
	C169	C	0.126293	0.645730	0.169990
	C170	C	0.127069	0.428931	0.805049
	C171	C	0.880771	0.647592	0.807969
	C172	C	0.182573	0.913743	0.379094
	C173	C	0.181025	0.159067	0.597326
	C174	C	0.817094	0.161849	0.380524
	C175	C	0.818787	0.911557	0.596672
	C176	C	0.393374	0.218545	0.864350
	C177	C	0.610345	0.219001	0.113075
	C178	C	0.392897	0.854624	0.111203
	C179	C	0.610787	0.854712	0.863657
	C180	C	0.393107	0.911788	0.169662
	C181	C	0.609699	0.161850	0.171526
	C182	C	0.393033	0.160359	0.806924
	C183	C	0.610207	0.911471	0.804932
	C184	C	0.874948	0.219395	0.380269
	C185	C	0.122411	0.216490	0.597565
	C186	C	0.124494	0.856143	0.378832
	C187	C	0.877648	0.854538	0.597018
	C188	C	0.184975	0.429313	0.862414
	C189	C	0.183910	0.645950	0.112038
	C190	C	0.820302	0.427973	0.111430
	C191	C	0.822738	0.647474	0.865320
	C192	C	0.404421	0.128122	0.585199
	C193	C	0.596170	0.946136	0.583345
	C194	C	0.596046	0.127075	0.393881
	C195	C	0.405097	0.945734	0.392226
	C196	C	0.599388	0.440790	0.077096
	C197	C	0.599373	0.633499	0.897342
	C198	C	0.406471	0.632908	0.078177
	C199	C	0.407586	0.442018	0.897652
	C200	C	0.091418	0.632969	0.392069
	C201	C	0.910158	0.633097	0.584952
	C202	C	0.091560	0.440618	0.583774
	C203	C	0.911325	0.442717	0.392366
	C204	C	0.906635	0.627120	0.083175
	C205	C	0.096763	0.447505	0.082702
	C206	C	0.097427	0.627766	0.891938
	C207	C	0.905821	0.446327	0.890543
	C208	C	0.098764	0.939813	0.578981
	C209	C	0.097897	0.133434	0.397085
	C210	C	0.906116	0.131182	0.577184
	C211	C	0.905354	0.940842	0.398535
	C212	C	0.592134	0.131260	0.892147
	C213	C	0.412199	0.131885	0.083313
	C214	C	0.591831	0.941070	0.084082
	C215	C	0.411915	0.941019	0.892021
	Zn216	Zn	0.501260	0.036361	0.738137
	Zn217	Zn	0.501071	0.036886	0.238269
	Zn218	Zn	0.752593	0.537081	-0.012748
	Zn219	Zn	0.251895	0.537153	-0.012274
	Zn220	Zn	0.001557	0.786611	0.488276
	Zn221	Zn	0.000303	0.287022	0.487943
	Zn222	Zn	0.002043	0.536867	0.737641
	Zn223	Zn	0.001428	0.537121	0.237817
	Zn224	Zn	0.502394	0.787052	-0.012117
	Zn225	Zn	0.502176	0.286476	-0.012350
	Zn226	Zn	0.750645	0.036848	0.488391
	Zn227	Zn	0.251307	0.037123	0.487670
	N228	N	0.413334	1.002375	0.668836
	N229	N	0.588005	0.070966	0.668452
	N230	N	0.587803	1.002331	0.308667
	N231	N	0.413570	0.070756	0.307331
	N232	N	0.683113	0.449485	0.952194
	N233	N	0.682771	0.624006	0.022680
	N234	N	0.322842	0.623423	0.953126
	N235	N	0.321476	0.449141	0.021393
	N236	N	0.966204	0.717229	0.401099
	N237	N	0.036404	0.715608	0.573576
	N238	N	0.966181	0.357080	0.574888
	N239	N	0.035770	0.357397	0.401226
	N240	N	0.966701	0.449870	0.668322
	N241	N	0.036026	0.623879	0.667904
	N242	N	0.966641	0.624756	0.307015
	N243	N	0.035728	0.449899	0.307381
	N244	N	0.415582	0.717019	0.952980
	N245	N	0.589506	0.717218	0.022600
	N246	N	0.590335	0.355533	0.952949
	N247	N	0.415946	0.357083	0.022115
	N248	N	0.680622	1.001872	0.401927
	N249	N	0.681620	0.070849	0.576012
	N250	N	0.321658	1.001731	0.574196
	N251	N	0.321988	0.071917	0.401832
	N252	N	0.913369	0.503002	0.168915
	N253	N	0.089023	0.571847	0.168382
	N254	N	0.089119	0.502534	0.807498
	N255	N	0.916119	0.572582	0.808091
	N256	N	0.181975	0.949644	0.453440
	N257	N	0.181201	0.123841	0.522621
	N258	N	0.819904	0.123710	0.453763
	N259	N	0.820029	0.948564	0.522718
	N260	N	0.467572	0.216857	0.900815
	N261	N	0.537172	0.216590	0.074777
	N262	N	0.466639	0.856911	0.074132
	N263	N	0.537109	0.856865	0.900977
	N264	N	0.467016	0.949128	0.168362
	N265	N	0.536131	0.124418	0.169123
	N266	N	0.466894	0.123073	0.808467
	N267	N	0.536216	0.948495	0.806530
	N268	N	0.913210	0.216723	0.453265
	N269	N	0.086828	0.216311	0.523030
	N270	N	0.088376	0.856741	0.453177
	N271	N	0.914703	0.856394	0.523316
	N272	N	0.182509	0.502978	0.900064
	N273	N	0.181852	0.572102	0.074495
	N274	N	0.822357	0.501812	0.074129
	N275	N	0.822610	0.572468	0.900606
	O276	O	0.001529	1.246259	0.176172
	H277	H	0.005910	1.271989	0.195382
	H278	H	0.028552	1.236698	0.182522
	O279	O	0.192380	0.227299	-0.194343
	H280	H	0.179911	0.207363	-0.173186
	H281	H	0.168307	0.209016	-0.181108
	O282	O	1.224044	0.049015	0.976011
	H283	H	1.224103	0.037651	0.994344
	H284	H	1.233723	0.034225	0.964340
	O285	O	-0.213329	0.123336	1.074289
	H286	H	-0.215183	0.139318	1.084616
	H287	H	-0.199827	0.111165	1.084208
	O288	O	0.524664	0.744858	0.698738
	H289	H	0.522434	0.746196	0.706969
	H290	H	0.522596	0.756009	0.691651
	O291	O	-0.290556	0.329270	0.510267
	H292	H	-0.310543	0.320828	0.509568
	H293	H	-0.280281	0.326361	0.515083
	O294	O	1.222443	-0.181385	0.958831
	H295	H	1.221078	-0.177455	0.928429
	H296	H	1.247575	-0.205673	0.942741
	O297	O	0.282145	0.323215	0.267684
	H298	H	0.299428	0.346050	0.284479
	H299	H	0.266611	0.304700	0.239550
	O300	O	-0.631755	-0.561111	0.570397
	H301	H	-0.633628	-0.557482	0.579406
	H302	H	-0.646683	-0.576082	0.574728
	O303	O	0.537350	0.326792	0.277198
	H304	H	0.531688	0.309713	0.272825
	H305	H	0.517995	0.326964	0.285790
	O306	O	0.187572	-0.074538	1.143518
	H307	H	0.186112	-0.068838	1.144531
	H308	H	0.179911	-0.072386	1.146697
	O309	O	0.518120	0.436617	0.520805
	H310	H	0.522259	0.439036	0.525374
	H311	H	0.523213	0.440115	0.507938
	O312	O	0.312453	0.508805	0.424981
	H313	H	0.303257	0.513280	0.425163
	H314	H	0.310867	0.488711	0.439742
	O315	O	1.660918	0.507518	1.565511
	H316	H	1.666250	0.500495	1.567749
	H317	H	1.667479	0.517349	1.581835
	O318	O	0.675992	0.718203	0.304020
	H319	H	0.659109	0.702376	0.307660
	H320	H	0.676154	0.711711	0.306487
	O321	O	-0.173920	0.811994	0.992214
	H322	H	-0.174272	0.817326	1.024739
	H323	H	-0.200044	0.789922	0.998048
	O324	O	1.217778	1.005443	-0.228330
	H325	H	1.245214	0.999662	-0.240772
	H326	H	1.222283	0.963652	-0.228567
	O327	O	-0.033445	0.236864	1.016357
	H328	H	-0.025497	0.240545	1.039491
	H329	H	-0.050126	0.242382	1.006524
	O330	O	0.434663	0.348294	0.634760
	H331	H	0.429071	0.329904	0.652065
	H332	H	0.447731	0.361483	0.629470
	O333	O	0.364105	0.529223	0.579568
	H334	H	0.366230	0.532384	0.578654
	H335	H	0.362367	0.521840	0.578654
	O336	O	0.478373	0.746855	0.275109
	H337	H	0.479443	0.754166	0.270076
	H338	H	0.477587	0.739790	0.266807
	O339	O	0.709722	0.336538	1.286470
	H340	H	0.710614	0.345291	1.325785
	H341	H	0.668747	0.339481	1.283902
	O342	O	-0.219235	0.256555	-0.043568
	H343	H	-0.235085	0.273783	-0.032317
	H344	H	-0.228333	0.252932	-0.050847
	O345	O	-0.118733	0.912829	0.777353
	H346	H	-0.121618	0.917748	0.787606
	H347	H	-0.114166	0.923991	0.787448
	O348	O	0.862326	0.070638	0.794269
	H349	H	0.862300	0.081202	0.791588
	H350	H	0.847592	0.082630	0.790122
	O351	O	0.799038	0.240465	0.781449
	H352	H	0.802822	0.242186	0.791507
	H353	H	0.818095	0.229110	0.793343
	O354	O	-0.444025	-0.525759	0.714173
	H355	H	-0.448836	-0.505670	0.709996
	H356	H	-0.423957	-0.519366	0.719708
	O357	O	0.312316	0.721595	0.674365
	H358	H	0.330725	0.696590	0.663486
	H359	H	0.331137	0.709199	0.653172
	O360	O	0.542502	-0.501200	1.446325
	H361	H	0.543278	-0.494174	1.444954
	H362	H	0.538378	-0.504917	1.451127
	O363	O	0.043231	-0.166516	-0.217018
	H364	H	0.020786	-0.161456	-0.220940
	H365	H	0.020544	-0.160328	-0.207875
	O366	O	0.285371	0.562226	0.269936
	H367	H	0.284699	0.575243	0.290582
	H368	H	0.256970	0.569627	0.248095
	O369	O	0.446869	0.505012	0.284793
	H370	H	0.429948	0.506069	0.280669
	H371	H	0.442164	0.498807	0.284096
	O372	O	1.025553	0.920528	0.049835
	H373	H	1.029884	0.905141	0.061169
	H374	H	1.041080	0.917497	0.048554
	O375	O	1.006282	0.025273	-0.046680
	H376	H	1.009364	0.021646	-0.038852
	H377	H	1.010685	0.019634	-0.051375
	O378	O	0.292968	0.330009	0.693950
	H379	H	0.332183	0.340258	0.702702
	H380	H	0.264734	0.298194	0.729496
	O381	O	1.166400	0.254073	1.202008
	H382	H	1.167319	0.238440	1.213657
	H383	H	1.175441	0.256970	1.169523
	O384	O	0.377103	0.598471	1.531761
	H385	H	0.373166	0.616173	1.534718
	H386	H	0.387775	0.594452	1.522675
	O387	O	0.940769	1.024338	0.133755
	H388	H	0.950119	1.029932	0.143029
	H389	H	0.931768	1.011461	0.129436
	O390	O	0.471069	0.749929	0.548512
	H391	H	0.459658	0.744465	0.533245
	H392	H	0.487777	0.757300	0.538408
	O393	O	0.911481	-0.068854	0.916833
	H394	H	0.890219	-0.069144	0.925914
	H395	H	0.908812	-0.067578	0.936459
	O396	O	-0.003967	0.918032	1.070712
	H397	H	-0.021054	0.910730	1.072575
	H398	H	0.004485	0.927961	1.081481
	O399	O	-0.212799	-0.000237	1.200988
	H400	H	-0.202932	0.021412	1.207535
	H401	H	-0.214094	0.012717	1.218496
	O402	O	0.281377	0.332376	0.513983
	H403	H	0.275321	0.326430	0.543217
	H404	H	0.265923	0.315401	0.535874
	O405	O	1.679435	-0.283066	1.662531
	H406	H	1.687321	-0.273713	1.624129
	H407	H	1.648713	-0.272378	1.666155
	O408	O	-0.287432	-0.492687	-0.727452
	H409	H	-0.286657	-0.507693	-0.731314
	H410	H	-0.277064	-0.496872	-0.740540
	O411	O	0.021482	0.056816	0.943323
	H412	H	0.015109	0.065013	0.939543
	H413	H	0.014978	0.056198	0.937527
	O414	O	0.622122	0.331695	0.548401
	H415	H	0.617301	0.340442	0.562185
	H416	H	0.606018	0.332071	0.546439
	O417	O	-0.016549	0.031338	0.213468
	H418	H	-0.014535	0.027504	0.199490
	H419	H	-0.018455	0.032580	0.209214
	O420	O	0.687449	0.626948	0.426790
	H421	H	0.687611	0.608319	0.422329
	H422	H	0.690817	0.605458	0.429750
	O423	O	0.287863	-0.254831	1.448834
	H424	H	0.277697	-0.247492	1.444636
	H425	H	0.281422	-0.259338	1.442813
	O426	O	0.570815	0.352982	0.565793
	H427	H	0.561620	0.357202	0.562035
	H428	H	0.577012	0.345858	0.579161
	O429	O	0.777390	0.950656	0.764946
	H430	H	0.769685	0.947737	0.769404
	H431	H	0.770956	0.945254	0.766869
	O432	O	0.398077	0.382156	0.388844
	H433	H	0.392709	0.388670	0.402473
	H434	H	0.392926	0.392030	0.392461
	O435	O	-0.204762	0.830529	0.191859
	H436	H	-0.195572	0.828936	0.202715
	H437	H	-0.216646	0.867035	0.203170
	O438	O	0.212135	-0.031345	0.056829
	H439	H	0.208436	-0.040714	0.043419
	H440	H	0.198093	-0.038215	0.052229
	O441	O	0.062414	-1.184446	0.035402
	H442	H	0.067239	-1.191317	0.023493
	H443	H	0.070851	-1.181010	0.030977
	O444	O	0.721615	0.572836	-0.287519
	H445	H	0.728746	0.593635	-0.275620
	H446	H	0.736866	0.593778	-0.280020
	O447	O	0.556226	0.742703	0.443141
	H448	H	0.570168	0.747016	0.447959
	H449	H	0.550802	0.743281	0.443244
	O450	O	0.354228	0.546670	0.706836
	H451	H	0.352111	0.529098	0.701338
	H452	H	0.347778	0.548160	0.721901
	O453	O	0.302000	0.738694	0.287115
	H454	H	0.302983	0.722877	0.306565
	H455	H	0.305971	0.758838	0.265450
	O456	O	0.710708	0.719120	0.496894
	H457	H	0.722015	0.718230	0.487279
	H458	H	0.722846	0.717475	0.477530
	O459	O	0.917929	0.864571	0.132539
	H460	H	0.911281	0.853884	0.136409
	H461	H	0.903785	0.856298	0.146073
	O462	O	0.815593	0.014297	-0.042472
	H463	H	0.813891	0.023966	-0.029947
	H464	H	0.811418	0.004607	-0.037697
	O465	O	0.851475	0.197423	0.128612
	H466	H	0.851108	0.207627	0.118654
	H467	H	0.843220	0.212866	0.139042
	O468	O	0.081900	1.246911	-0.056425
	H469	H	0.073447	1.242685	-0.050168
	H470	H	0.065918	1.249089	-0.063213
	O471	O	1.197120	0.056319	1.199767
	H472	H	1.197870	0.053381	1.197746
	H473	H	1.202444	0.068817	1.207612
	O474	O	0.202504	1.246461	0.027305
	H475	H	0.207246	1.245952	0.015295
	H476	H	0.199424	1.242822	0.014127
	O477	O	1.211610	0.829032	1.779589
	H478	H	1.177905	0.815667	1.766420
	H479	H	1.218069	0.801093	1.753810
	O480	O	0.551791	0.500630	0.591579
	H481	H	0.547317	0.480712	0.601810
	H482	H	0.551350	0.499995	0.605938
	O483	O	0.558656	0.582963	0.269394
	H484	H	0.551849	0.558545	0.275688
	H485	H	0.559718	0.573718	0.262970
	O486	O	0.978175	0.235889	0.788137
	H487	H	0.979270	0.229886	0.774174
	H488	H	0.982268	0.230362	0.794232
	O489	O	1.046530	1.067378	-0.235913
	H490	H	1.070842	1.055246	-0.236488
	H491	H	1.040211	1.051205	-0.232445
