data_Molecule from HDF5

_cell_length_a		16.319323
_cell_length_b		16.334416
_cell_length_c		16.327118
_cell_angle_alpha	90.108903
_cell_angle_beta	90.009076
_cell_angle_gamma	89.939032
_symmetry_space_group_name_H-M	'P 1'
_symmetry_Int_Tables_number		1

loop_
	_symmetry_equiv_pos_as_xyz
	x,y,z

loop_
	_atom_site_label
	_atom_site_type_symbol
	_atom_site_fract_x
	_atom_site_fract_y
	_atom_site_fract_z
	H0	H	0.405520	0.830774	0.710177
	H1	H	0.600827	0.157959	0.709257
	H2	H	0.601459	0.831004	0.281457
	H3	H	0.406287	0.158057	0.283238
	H4	H	0.717333	0.396487	0.832479
	H5	H	0.717631	0.593272	0.158877
	H6	H	0.288360	0.592171	0.832377
	H7	H	0.289755	0.397560	0.159174
	H8	H	0.840303	0.708176	0.397695
	H9	H	0.166951	0.708954	0.593772
	H10	H	0.840292	0.280872	0.593208
	H11	H	0.166782	0.279546	0.397113
	H12	H	0.840101	0.397360	0.709379
	H13	H	0.167593	0.591515	0.709549
	H14	H	0.840373	0.592038	0.282221
	H15	H	0.166794	0.395669	0.281064
	H16	H	0.404651	0.708469	0.832074
	H17	H	0.600799	0.708395	0.158458
	H18	H	0.601924	0.279300	0.832796
	H19	H	0.405599	0.280877	0.159111
	H20	H	0.716552	0.830202	0.399082
	H21	H	0.718641	0.157024	0.594414
	H22	H	0.289209	0.830456	0.592675
	H23	H	0.289500	0.157386	0.398788
	H24	H	0.906324	0.330753	0.209279
	H25	H	0.101022	0.657451	0.210245
	H26	H	0.103072	0.331400	0.779675
	H27	H	0.904618	0.657240	0.781324
	H28	H	0.217561	0.895007	0.331616
	H29	H	0.215921	0.091135	0.658791
	H30	H	0.789901	0.090384	0.332207
	H31	H	0.788887	0.895520	0.657962
	H32	H	0.340103	0.209328	0.897459
	H33	H	0.666714	0.208739	0.095099
	H34	H	0.339404	0.780217	0.093294
	H35	H	0.666677	0.778494	0.897239
	H36	H	0.339553	0.897482	0.209289
	H37	H	0.666933	0.091073	0.209924
	H38	H	0.339910	0.092331	0.781808
	H39	H	0.667363	0.894632	0.780822
	H40	H	0.904447	0.208071	0.332176
	H41	H	0.101552	0.208431	0.658130
	H42	H	0.101559	0.779071	0.332033
	H43	H	0.905891	0.780508	0.658727
	H44	H	0.218360	0.331080	0.896602
	H45	H	0.216690	0.657845	0.093423
	H46	H	0.789511	0.330746	0.092937
	H47	H	0.788095	0.657342	0.897035
	H48	H	0.410712	0.108319	0.586155
	H49	H	0.591902	0.882424	0.578927
	H50	H	0.599026	0.111303	0.401941
	H51	H	0.409715	0.879383	0.407884
	H52	H	0.593412	0.399060	0.111770
	H53	H	0.591074	0.584561	0.881378
	H54	H	0.409282	0.576170	0.107590
	H55	H	0.412887	0.399095	0.879766
	H56	H	0.121124	0.590187	0.403020
	H57	H	0.884801	0.595464	0.592985
	H58	H	0.120365	0.399603	0.588868
	H59	H	0.885660	0.398527	0.398062
	H60	H	0.119338	0.401749	0.587900
	H61	H	0.889885	0.587511	0.580182
	H62	H	0.118384	0.585384	0.405710
	H63	H	0.887785	0.398560	0.407094
	H64	H	0.420235	0.595664	0.110952
	H65	H	0.596107	0.591815	0.877787
	H66	H	0.599944	0.399630	0.113236
	H67	H	0.408075	0.399505	0.878339
	H68	H	0.596955	0.111219	0.400682
	H69	H	0.607668	0.874773	0.588331
	H70	H	0.405023	0.111278	0.589945
	H71	H	0.405493	0.876099	0.399222
	H72	H	0.909291	0.612062	0.094434
	H73	H	0.105219	0.373147	0.096427
	H74	H	0.084127	0.604501	0.909634
	H75	H	0.916768	0.382074	0.905811
	H76	H	0.090103	0.894667	0.611367
	H77	H	0.086419	0.082880	0.382772
	H78	H	0.912302	0.088064	0.610788
	H79	H	0.900888	0.900322	0.376058
	H80	H	0.617858	0.085012	0.906205
	H81	H	0.388523	0.086455	0.085604
	H82	H	0.618215	0.898431	0.084634
	H83	H	0.392202	0.907827	0.910444
	H84	H	0.617813	0.905553	0.088939
	H85	H	0.386333	0.086015	0.093304
	H86	H	0.619709	0.085016	0.899549
	H87	H	0.385854	0.904947	0.890589
	H88	H	0.909545	0.088829	0.612138
	H89	H	0.097520	0.097406	0.375396
	H90	H	0.105707	0.899093	0.614049
	H91	H	0.914116	0.907127	0.382101
	H92	H	0.109792	0.611623	0.910919
	H93	H	0.086534	0.380387	0.092862
	H94	H	0.914590	0.608449	0.088286
	H95	H	0.903576	0.377879	0.906879
	H96	H	0.411731	0.110705	0.593279
	H97	H	0.590938	0.877531	0.597798
	H98	H	0.597363	0.110349	0.403355
	H99	H	0.415313	0.878561	0.398800
	H100	H	0.596605	0.405168	0.110993
	H101	H	0.600738	0.583242	0.879321
	H102	H	0.398613	0.594342	0.116991
	H103	H	0.410495	0.403952	0.880927
	H104	H	0.120367	0.585350	0.399440
	H105	H	0.888459	0.580472	0.594283
	H106	H	0.120327	0.401628	0.590402
	H107	H	0.889162	0.406025	0.402010
	H108	H	0.906055	0.610020	0.085986
	H109	H	0.100147	0.379988	0.078036
	H110	H	0.096642	0.613977	0.887857
	H111	H	0.910422	0.376088	0.894438
	H112	H	0.094903	0.909658	0.607935
	H113	H	0.105479	0.079766	0.378681
	H114	H	0.910448	0.085927	0.611737
	H115	H	0.914484	0.891820	0.377736
	H116	H	0.620242	0.090465	0.903430
	H117	H	0.385716	0.093129	0.090007
	H118	H	0.621252	0.898312	0.092401
	H119	H	0.384992	0.889633	0.904120
	C120	C	0.381624	0.002106	0.617289
	C121	C	0.625360	0.985982	0.617386
	C122	C	0.625614	0.002847	0.374018
	C123	C	0.381739	0.985872	0.374151
	C124	C	0.625337	0.372483	0.004165
	C125	C	0.624276	0.615111	0.987168
	C126	C	0.381209	0.616387	0.003698
	C127	C	0.382465	0.373127	0.987499
	C128	C	0.011698	0.615356	0.374412
	C129	C	0.995693	0.616100	0.617413
	C130	C	0.012064	0.372740	0.617405
	C131	C	0.995321	0.372392	0.373899
	C132	C	0.882079	0.502452	0.117312
	C133	C	0.125490	0.485848	0.117633
	C134	C	0.125219	0.502268	0.874193
	C135	C	0.881594	0.486243	0.873989
	C136	C	0.125179	0.872210	0.503492
	C137	C	0.124699	0.115377	0.486797
	C138	C	0.881865	0.115601	0.503728
	C139	C	0.881857	0.872197	0.486789
	C140	C	0.511463	0.115442	0.874566
	C141	C	0.495000	0.116179	0.117817
	C142	C	0.511292	0.872558	0.116990
	C143	C	0.495689	0.872487	0.873883
	C144	C	0.384637	0.879399	0.672030
	C145	C	0.622076	0.108950	0.672023
	C146	C	0.622287	0.879579	0.319540
	C147	C	0.384835	0.109048	0.319899
	C148	C	0.680256	0.375059	0.881443
	C149	C	0.679411	0.613296	0.110202
	C150	C	0.326241	0.613044	0.880970
	C151	C	0.327503	0.376255	0.110458
	C152	C	0.888991	0.670065	0.377582
	C153	C	0.118365	0.671083	0.614567
	C154	C	0.889085	0.318493	0.614250
	C155	C	0.118203	0.317523	0.376807
	C156	C	0.888956	0.376451	0.671775
	C157	C	0.118660	0.613209	0.672273
	C158	C	0.888992	0.612124	0.320142
	C159	C	0.118174	0.374934	0.318895
	C160	C	0.384017	0.670722	0.880767
	C161	C	0.621288	0.670280	0.110120
	C162	C	0.622677	0.317119	0.881458
	C163	C	0.384692	0.318268	0.110356
	C164	C	0.679850	0.879452	0.377710
	C165	C	0.680194	0.108787	0.614766
	C166	C	0.326760	0.879263	0.614062
	C167	C	0.326900	0.108784	0.377363
	C168	C	0.885002	0.379466	0.171766
	C169	C	0.122138	0.608636	0.172680
	C170	C	0.122954	0.379879	0.818265
	C171	C	0.884084	0.608728	0.819029
	C172	C	0.179888	0.874645	0.380542
	C173	C	0.178765	0.112175	0.609755
	C174	C	0.827174	0.112032	0.380846
	C175	C	0.827300	0.875247	0.609701
	C176	C	0.388868	0.171055	0.876949
	C177	C	0.618073	0.170636	0.115149
	C178	C	0.388342	0.818087	0.113956
	C179	C	0.618125	0.816461	0.876146
	C180	C	0.388391	0.876093	0.171763
	C181	C	0.618112	0.112557	0.172441
	C182	C	0.388673	0.112993	0.819582
	C183	C	0.618383	0.874264	0.818527
	C184	C	0.884306	0.170305	0.380972
	C185	C	0.121816	0.170302	0.609481
	C186	C	0.122446	0.816863	0.380678
	C187	C	0.885132	0.817767	0.609747
	C188	C	0.180422	0.379698	0.876230
	C189	C	0.179541	0.608760	0.114577
	C190	C	0.826859	0.379732	0.114219
	C191	C	0.826537	0.608943	0.876915
	C192	C	0.403018	0.088033	0.595812
	C193	C	0.603492	0.900354	0.595023
	C194	C	0.604173	0.088727	0.395577
	C195	C	0.403690	0.900229	0.395511
	C196	C	0.603148	0.394713	0.089916
	C197	C	0.602571	0.592914	0.901637
	C198	C	0.403030	0.595084	0.089591
	C199	C	0.404145	0.394584	0.901798
	C200	C	0.097978	0.593328	0.396419
	C201	C	0.909707	0.594116	0.595550
	C202	C	0.097851	0.394480	0.595466
	C203	C	0.909486	0.394697	0.395991
	C204	C	0.903706	0.588023	0.095948
	C205	C	0.103803	0.399953	0.095523
	C206	C	0.103165	0.588039	0.896270
	C207	C	0.903744	0.400869	0.895888
	C208	C	0.103264	0.894308	0.589133
	C209	C	0.102758	0.093271	0.400869
	C210	C	0.904177	0.093929	0.589535
	C211	C	0.903402	0.893568	0.400919
	C212	C	0.597152	0.093202	0.896535
	C213	C	0.409101	0.094827	0.096275
	C214	C	0.597001	0.894343	0.095177
	C215	C	0.409791	0.894388	0.895579
	Zn216	Zn	0.504073	-0.005933	0.745755
	Zn217	Zn	0.503301	-0.005765	0.245775
	Zn218	Zn	0.753138	0.494732	-0.004458
	Zn219	Zn	0.253672	0.494032	-0.004491
	Zn220	Zn	0.003539	0.743875	0.495544
	Zn221	Zn	0.003355	0.243708	0.495204
	Zn222	Zn	0.003765	0.494559	0.746011
	Zn223	Zn	0.003633	0.493822	0.245875
	Zn224	Zn	0.503356	0.743885	-0.004746
	Zn225	Zn	0.503604	0.244170	-0.003664
	Zn226	Zn	0.753953	-0.005916	0.496219
	Zn227	Zn	0.252840	-0.006121	0.495228
	N228	N	0.417829	0.956617	0.674288
	N229	N	0.588544	0.031718	0.673438
	N230	N	0.589192	0.956943	0.317151
	N231	N	0.418353	0.031655	0.317808
	N232	N	0.681866	0.408883	0.958610
	N233	N	0.681189	0.579364	0.032935
	N234	N	0.324471	0.579967	0.958405
	N235	N	0.325775	0.409384	0.033128
	N236	N	0.966467	0.671930	0.410552
	N237	N	0.040928	0.672879	0.581235
	N238	N	0.966541	0.316194	0.580873
	N239	N	0.040805	0.315858	0.410332
	N240	N	0.966499	0.409308	0.674107
	N241	N	0.041339	0.579695	0.674063
	N242	N	0.966611	0.579014	0.318062
	N243	N	0.040684	0.408256	0.317013
	N244	N	0.417376	0.672860	0.958162
	N245	N	0.587942	0.671764	0.032719
	N246	N	0.589451	0.315336	0.958886
	N247	N	0.418403	0.316334	0.033043
	N248	N	0.681701	0.957027	0.411112
	N249	N	0.682478	0.031363	0.581579
	N250	N	0.324719	0.956668	0.580681
	N251	N	0.324985	0.031446	0.410409
	N252	N	0.918739	0.456521	0.173599
	N253	N	0.089209	0.531100	0.174701
	N254	N	0.089475	0.457193	0.816916
	N255	N	0.917688	0.531567	0.817284
	N256	N	0.181757	0.908272	0.457897
	N257	N	0.180665	0.078812	0.532366
	N258	N	0.825619	0.078646	0.458210
	N259	N	0.825110	0.908192	0.532371
	N260	N	0.466278	0.172563	0.910628
	N261	N	0.540683	0.172713	0.081612
	N262	N	0.465779	0.815694	0.080690
	N263	N	0.540914	0.815481	0.910046
	N264	N	0.465796	0.909306	0.173654
	N265	N	0.540675	0.079412	0.174198
	N266	N	0.465815	0.079003	0.818051
	N267	N	0.541234	0.908455	0.817008
	N268	N	0.917429	0.172569	0.458434
	N269	N	0.088961	0.172460	0.531902
	N270	N	0.088718	0.815554	0.457860
	N271	N	0.918416	0.815744	0.532275
	N272	N	0.181759	0.456753	0.910372
	N273	N	0.181770	0.531369	0.081142
	N274	N	0.824675	0.457198	0.081063
	N275	N	0.824806	0.531755	0.910398
	O276	O	0.993754	-0.040509	0.950342
	H277	H	0.994105	-0.041278	0.949233
	H278	H	0.991973	-0.033722	0.945686
	O279	O	0.013163	0.961991	0.969508
	H280	H	0.018471	0.954994	0.973628
	H281	H	0.007993	0.966913	0.965246
	O282	O	0.998152	0.956710	-0.038875
	H283	H	0.986935	0.956034	-0.042249
	H284	H	0.999593	0.957078	-0.048012
	O285	O	-0.020504	0.964694	0.924880
	H286	H	-0.008461	0.964454	0.942579
	H287	H	-0.022161	0.961391	0.916397
