data_Molecule from HDF5

_cell_length_a		16.380823
_cell_length_b		16.313245
_cell_length_c		16.243202
_cell_angle_alpha	89.993606
_cell_angle_beta	89.945976
_cell_angle_gamma	90.024853
_symmetry_space_group_name_H-M	'P 1'
_symmetry_Int_Tables_number		1

loop_
	_symmetry_equiv_pos_as_xyz
	x,y,z

loop_
	_atom_site_label
	_atom_site_type_symbol
	_atom_site_fract_x
	_atom_site_fract_y
	_atom_site_fract_z
	H0	H	0.415208	0.859545	0.715658
	H1	H	0.610125	0.186994	0.715053
	H2	H	0.610233	0.859086	0.286740
	H3	H	0.415014	0.185980	0.287026
	H4	H	0.726730	0.425237	0.835614
	H5	H	0.728151	0.623349	0.163510
	H6	H	0.299978	0.622026	0.835196
	H7	H	0.297002	0.424285	0.163763
	H8	H	0.850170	0.737695	0.401735
	H9	H	0.175643	0.737335	0.597002
	H10	H	0.849883	0.307637	0.599698
	H11	H	0.175388	0.306615	0.399010
	H12	H	0.849122	0.425960	0.714062
	H13	H	0.175547	0.621755	0.714577
	H14	H	0.849668	0.619911	0.286367
	H15	H	0.175942	0.424556	0.284745
	H16	H	0.415893	0.737723	0.835877
	H17	H	0.609803	0.736861	0.164773
	H18	H	0.610971	0.309272	0.836502
	H19	H	0.414240	0.310195	0.164362
	H20	H	0.728017	0.859864	0.402220
	H21	H	0.729269	0.186014	0.601542
	H22	H	0.296892	0.859725	0.601554
	H23	H	0.296626	0.184584	0.400662
	H24	H	0.915053	0.359626	0.213796
	H25	H	0.109827	0.687192	0.212923
	H26	H	0.108642	0.358826	0.787417
	H27	H	0.916063	0.687405	0.786517
	H28	H	0.227056	0.924540	0.336803
	H29	H	0.226675	0.120965	0.664657
	H30	H	0.796742	0.123372	0.337218
	H31	H	0.797961	0.923352	0.664626
	H32	H	0.349665	0.238555	0.902929
	H33	H	0.675055	0.239230	0.099831
	H34	H	0.350206	0.807870	0.099469
	H35	H	0.675570	0.808678	0.901575
	H36	H	0.349274	0.925130	0.214390
	H37	H	0.675811	0.120896	0.215027
	H38	H	0.349164	0.120929	0.787465
	H39	H	0.676545	0.927811	0.787576
	H40	H	0.913972	0.238573	0.336527
	H41	H	0.109346	0.236565	0.665096
	H42	H	0.110654	0.809494	0.336176
	H43	H	0.915665	0.809424	0.664933
	H44	H	0.227746	0.360356	0.901021
	H45	H	0.228239	0.686239	0.099779
	H46	H	0.796405	0.360522	0.099401
	H47	H	0.797399	0.687163	0.899157
	H48	H	0.424334	0.137026	0.594672
	H49	H	0.596851	0.907711	0.601053
	H50	H	0.600207	0.137435	0.405675
	H51	H	0.413142	0.904735	0.409139
	H52	H	0.606513	0.432084	0.116589
	H53	H	0.610573	0.618695	0.881976
	H54	H	0.419532	0.617814	0.117352
	H55	H	0.412448	0.431428	0.881106
	H56	H	0.127853	0.615299	0.408692
	H57	H	0.895358	0.622894	0.593454
	H58	H	0.127309	0.432485	0.592584
	H59	H	0.898672	0.430563	0.409207
	H60	H	0.129369	0.429274	0.595338
	H61	H	0.899273	0.614081	0.587528
	H62	H	0.129883	0.616103	0.402495
	H63	H	0.898216	0.431884	0.406617
	H64	H	0.417887	0.615292	0.116532
	H65	H	0.605043	0.612127	0.884952
	H66	H	0.605264	0.433542	0.116053
	H67	H	0.423518	0.438042	0.886702
	H68	H	0.605845	0.136153	0.414632
	H69	H	0.604752	0.911318	0.582182
	H70	H	0.416656	0.137843	0.587458
	H71	H	0.421028	0.904853	0.401379
	H72	H	0.919667	0.638836	0.090723
	H73	H	0.104858	0.407367	0.091705
	H74	H	0.108610	0.638134	0.913936
	H75	H	0.921622	0.405536	0.897742
	H76	H	0.113536	0.934163	0.618500
	H77	H	0.105818	0.110600	0.385798
	H78	H	0.914601	0.114523	0.618549
	H79	H	0.917506	0.924883	0.381968
	H80	H	0.625105	0.109754	0.911064
	H81	H	0.395720	0.120278	0.093395
	H82	H	0.628452	0.934820	0.097917
	H83	H	0.399989	0.932323	0.914820
	H84	H	0.630203	0.924618	0.095186
	H85	H	0.397367	0.115209	0.094062
	H86	H	0.631751	0.118729	0.897505
	H87	H	0.397503	0.934946	0.902321
	H88	H	0.924426	0.111500	0.614350
	H89	H	0.101132	0.117156	0.384525
	H90	H	0.098542	0.933853	0.614493
	H91	H	0.916274	0.934684	0.384406
	H92	H	0.112172	0.642939	0.901203
	H93	H	0.105853	0.407683	0.089804
	H94	H	0.918536	0.639679	0.092322
	H95	H	0.924460	0.411390	0.913865
	H96	H	0.415477	0.140940	0.597141
	H97	H	0.616392	0.902670	0.597402
	H98	H	0.610402	0.141031	0.406181
	H99	H	0.422748	0.908567	0.411659
	H100	H	0.604332	0.432048	0.116890
	H101	H	0.602196	0.620538	0.883109
	H102	H	0.420542	0.615182	0.115752
	H103	H	0.424342	0.424445	0.883331
	H104	H	0.129678	0.621477	0.406289
	H105	H	0.896158	0.612977	0.598961
	H106	H	0.127945	0.427625	0.591764
	H107	H	0.897431	0.429459	0.406957
	H108	H	0.920002	0.638962	0.092580
	H109	H	0.106693	0.407105	0.092041
	H110	H	0.099318	0.638372	0.903705
	H111	H	0.908847	0.405284	0.909781
	H112	H	0.105132	0.921246	0.619726
	H113	H	0.108728	0.117420	0.382767
	H114	H	0.922542	0.121186	0.617924
	H115	H	0.924820	0.930607	0.385317
	H116	H	0.628508	0.127155	0.912459
	H117	H	0.396585	0.118227	0.098045
	H118	H	0.626136	0.931321	0.088002
	H119	H	0.395292	0.923532	0.907160
	C120	C	0.390691	0.030970	0.622486
	C121	C	0.634523	1.014780	0.622571
	C122	C	0.634251	0.030871	0.379569
	C123	C	0.390761	1.013989	0.379099
	C124	C	0.633899	0.403535	0.008206
	C125	C	0.634643	0.645819	0.991615
	C126	C	0.391414	0.644829	0.007916
	C127	C	0.391235	0.402556	0.991861
	C128	C	0.021424	0.645401	0.377936
	C129	C	1.004485	0.645177	0.621661
	C130	C	0.020500	0.401482	0.622009
	C131	C	1.005196	0.401285	0.378131
	C132	C	0.890818	0.531428	0.121175
	C133	C	0.134263	0.515116	0.120527
	C134	C	0.134820	0.531622	0.877890
	C135	C	0.890666	0.515764	0.878426
	C136	C	0.134268	0.901441	0.509263
	C137	C	0.133703	0.143928	0.492396
	C138	C	0.891406	0.144751	0.508581
	C139	C	0.891549	0.901950	0.492499
	C140	C	0.520577	0.146153	0.878973
	C141	C	0.504267	0.146138	0.123201
	C142	C	0.520672	0.901941	0.122028
	C143	C	0.504810	0.902010	0.879325
	C144	C	0.394373	0.908168	0.677638
	C145	C	0.631238	0.138300	0.677347
	C146	C	0.631399	0.907968	0.324201
	C147	C	0.393830	0.137050	0.324451
	C148	C	0.688938	0.404927	0.884713
	C149	C	0.690074	0.643608	0.114682
	C150	C	0.337203	0.642701	0.884486
	C151	C	0.335459	0.404191	0.115085
	C152	C	0.898729	0.699828	0.381042
	C153	C	0.127236	0.699651	0.618145
	C154	C	0.898217	0.346266	0.619660
	C155	C	0.126979	0.344973	0.379336
	C156	C	0.898083	0.404408	0.677147
	C157	C	0.127081	0.642026	0.676303
	C158	C	0.898548	0.641602	0.323500
	C159	C	0.127306	0.403498	0.322272
	C160	C	0.395007	0.700047	0.884807
	C161	C	0.631274	0.699929	0.115390
	C162	C	0.631503	0.347372	0.885218
	C163	C	0.393982	0.347754	0.115430
	C164	C	0.689810	0.908181	0.381568
	C165	C	0.690466	0.137642	0.621117
	C166	C	0.335362	0.908326	0.621150
	C167	C	0.335285	0.136275	0.381283
	C168	C	0.893523	0.408701	0.176695
	C169	C	0.130814	0.638118	0.175586
	C170	C	0.130756	0.408250	0.823849
	C171	C	0.894771	0.638630	0.823775
	C172	C	0.189248	0.904104	0.385606
	C173	C	0.188633	0.141739	0.615877
	C174	C	0.835190	0.143226	0.385964
	C175	C	0.836362	0.903734	0.615806
	C176	C	0.398105	0.200339	0.882135
	C177	C	0.626419	0.201206	0.120447
	C178	C	0.398397	0.846639	0.119329
	C179	C	0.627174	0.846768	0.881283
	C180	C	0.397994	0.904726	0.176592
	C181	C	0.626922	0.142426	0.177629
	C182	C	0.397957	0.142251	0.824384
	C183	C	0.627707	0.905592	0.824635
	C184	C	0.893521	0.200470	0.385514
	C185	C	0.130722	0.199175	0.615989
	C186	C	0.131387	0.847198	0.385246
	C187	C	0.894576	0.846820	0.615907
	C188	C	0.189845	0.408986	0.880408
	C189	C	0.189550	0.637885	0.119194
	C190	C	0.835012	0.409097	0.119388
	C191	C	0.835938	0.638516	0.880055
	C192	C	0.412585	0.116660	0.599800
	C193	C	0.612508	0.929513	0.600278
	C194	C	0.611983	0.116102	0.402127
	C195	C	0.412627	0.928143	0.400848
	C196	C	0.612041	0.426121	0.094006
	C197	C	0.612414	0.623705	0.905474
	C198	C	0.412891	0.622624	0.094296
	C199	C	0.413425	0.424792	0.905923
	C200	C	0.106971	0.623971	0.399502
	C201	C	0.919154	0.623231	0.599620
	C202	C	0.105959	0.423378	0.599753
	C203	C	0.920115	0.423920	0.400962
	C204	C	0.912990	0.617104	0.098469
	C205	C	0.112219	0.429597	0.097899
	C206	C	0.113219	0.617573	0.899899
	C207	C	0.912191	0.429501	0.900656
	C208	C	0.112135	0.923232	0.595258
	C209	C	0.111649	0.121712	0.406621
	C210	C	0.913980	0.122182	0.594566
	C211	C	0.913068	0.923710	0.406031
	C212	C	0.606349	0.124887	0.900555
	C213	C	0.418616	0.124374	0.101450
	C214	C	0.606289	0.923818	0.100212
	C215	C	0.419633	0.923818	0.901651
	Zn216	Zn	0.512774	0.023441	0.750587
	Zn217	Zn	0.512413	0.023154	0.251170
	Zn218	Zn	0.762406	0.524136	-0.000760
	Zn219	Zn	0.263194	0.523974	-0.000205
	Zn220	Zn	0.012616	0.773765	0.500078
	Zn221	Zn	0.012971	0.272883	0.500016
	Zn222	Zn	0.012378	0.523219	0.750482
	Zn223	Zn	0.013197	0.523121	0.249496
	Zn224	Zn	0.512808	0.773389	0.000813
	Zn225	Zn	0.512557	0.275131	0.000541
	Zn226	Zn	0.763102	0.022981	0.501142
	Zn227	Zn	0.262483	0.022109	0.500889
	N228	N	0.428292	0.985394	0.678340
	N229	N	0.597095	0.061242	0.678437
	N230	N	0.597554	0.985138	0.322891
	N231	N	0.427751	0.060102	0.323215
	N232	N	0.690329	0.439345	0.962001
	N233	N	0.692168	0.610777	0.036661
	N234	N	0.334889	0.609083	0.962152
	N235	N	0.333799	0.437890	0.037365
	N236	N	0.976046	0.702442	0.413805
	N237	N	0.050101	0.701778	0.584997
	N238	N	0.975471	0.344040	0.586189
	N239	N	0.050077	0.343639	0.413510
	N240	N	0.974989	0.438271	0.678262
	N241	N	0.049740	0.608984	0.678647
	N242	N	0.975803	0.608568	0.321338
	N243	N	0.050743	0.438106	0.321595
	N244	N	0.428115	0.701412	0.962601
	N245	N	0.597614	0.701455	0.037821
	N246	N	0.598049	0.346212	0.962994
	N247	N	0.427881	0.346853	0.037949
	N248	N	0.691769	0.985471	0.415241
	N249	N	0.692439	0.060090	0.587638
	N250	N	0.333045	0.985735	0.587604
	N251	N	0.333355	0.058685	0.414569
	N252	N	0.927911	0.485660	0.177611
	N253	N	0.097009	0.560864	0.176369
	N254	N	0.097367	0.485539	0.822237
	N255	N	0.927798	0.561159	0.822568
	N256	N	0.191180	0.937078	0.463600
	N257	N	0.190767	0.108055	0.538244
	N258	N	0.833937	0.109346	0.463526
	N259	N	0.834466	0.937261	0.538023
	N260	N	0.475286	0.202866	0.915207
	N261	N	0.548982	0.203926	0.087726
	N262	N	0.475729	0.845062	0.085985
	N263	N	0.549936	0.844514	0.914676
	N264	N	0.475043	0.938182	0.178479
	N265	N	0.549973	0.108759	0.179338
	N266	N	0.475364	0.109306	0.822429
	N267	N	0.550818	0.939254	0.823291
	N268	N	0.927615	0.201673	0.462850
	N269	N	0.097324	0.200670	0.538268
	N270	N	0.097748	0.845452	0.462924
	N271	N	0.928322	0.845694	0.538267
	N272	N	0.192480	0.486868	0.913215
	N273	N	0.191779	0.560634	0.085532
	N274	N	0.833147	0.486528	0.085808
	N275	N	0.833382	0.560958	0.913308
	O276	O	-0.084106	-0.040244	1.097218
	H277	H	-0.087583	-0.041812	1.098241
	H278	H	-0.092560	-0.040483	1.098340
	O279	O	0.498288	-0.584218	0.489869
	H280	H	0.494732	-0.585390	0.483725
	H281	H	0.503978	-0.586386	0.489118
	O282	O	0.495303	0.446605	0.462639
	H283	H	0.491519	0.438916	0.462120
	H284	H	0.496392	0.438051	0.458085
	O285	O	-0.309996	-0.357863	0.340198
	H286	H	-0.314479	-0.367230	0.345153
	H287	H	-0.312431	-0.360025	0.345029
	O288	O	0.530472	0.432080	0.519421
	H289	H	0.519536	0.425433	0.537207
	H290	H	0.517981	0.435139	0.513264
	O291	O	-0.450689	0.408968	0.427973
	H292	H	-0.446512	0.405549	0.430237
	H293	H	-0.445790	0.414032	0.425749
	O294	O	0.481621	0.462718	0.448588
	H295	H	0.480625	0.454401	0.434202
	H296	H	0.497061	0.460887	0.440105
	O297	O	0.577580	-0.505644	0.460504
	H298	H	0.583841	-0.498119	0.457920
	H299	H	0.574026	-0.499215	0.469428
