data_Molecule from HDF5

_cell_length_a		16.390873
_cell_length_b		16.356022
_cell_length_c		16.438435
_cell_angle_alpha	89.945138
_cell_angle_beta	90.064822
_cell_angle_gamma	89.968155
_symmetry_space_group_name_H-M	'P 1'
_symmetry_Int_Tables_number		1

loop_
	_symmetry_equiv_pos_as_xyz
	x,y,z

loop_
	_atom_site_label
	_atom_site_type_symbol
	_atom_site_fract_x
	_atom_site_fract_y
	_atom_site_fract_z
	H0	H	0.394836	0.837357	0.712897
	H1	H	0.605366	0.155444	0.711300
	H2	H	0.605316	0.835591	0.271964
	H3	H	0.395792	0.155617	0.271177
	H4	H	0.721267	0.392170	0.832253
	H5	H	0.722269	0.599445	0.150816
	H6	H	0.280190	0.602381	0.832381
	H7	H	0.279451	0.389558	0.149271
	H8	H	0.840001	0.714695	0.387543
	H9	H	0.160753	0.714938	0.593564
	H10	H	0.840302	0.277529	0.595339
	H11	H	0.159755	0.274617	0.387799
	H12	H	0.841276	0.392209	0.711395
	H13	H	0.160283	0.600756	0.711874
	H14	H	0.840829	0.598526	0.271533
	H15	H	0.159728	0.389038	0.270029
	H16	H	0.396223	0.717322	0.833237
	H17	H	0.605043	0.714622	0.151576
	H18	H	0.604799	0.276843	0.831944
	H19	H	0.397162	0.275630	0.150752
	H20	H	0.719793	0.835984	0.388716
	H21	H	0.719854	0.155696	0.595123
	H22	H	0.281204	0.836019	0.594789
	H23	H	0.280871	0.155942	0.387662
	H24	H	0.894700	0.336364	0.212827
	H25	H	0.106673	0.654042	0.213238
	H26	H	0.107599	0.336999	0.768663
	H27	H	0.893531	0.654804	0.769222
	H28	H	0.220960	0.891877	0.332860
	H29	H	0.223651	0.103375	0.649698
	H30	H	0.779702	0.100786	0.332114
	H31	H	0.779387	0.890654	0.650137
	H32	H	0.343349	0.220388	0.883017
	H33	H	0.661273	0.214780	0.094569
	H34	H	0.342490	0.772909	0.097394
	H35	H	0.660515	0.774880	0.887831
	H36	H	0.341022	0.889014	0.213214
	H37	H	0.659960	0.100269	0.212078
	H38	H	0.343091	0.104698	0.767467
	H39	H	0.658719	0.887921	0.768509
	H40	H	0.894865	0.217634	0.333243
	H41	H	0.105091	0.216648	0.650772
	H42	H	0.105265	0.775541	0.332230
	H43	H	0.894519	0.774142	0.649628
	H44	H	0.223701	0.337585	0.883919
	H45	H	0.221772	0.654976	0.096570
	H46	H	0.779512	0.336377	0.097356
	H47	H	0.780895	0.655870	0.887156
	H48	H	0.415073	0.108892	0.578695
	H49	H	0.588545	0.881471	0.582757
	H50	H	0.592589	0.111338	0.400216
	H51	H	0.412402	0.879513	0.394595
	H52	H	0.591853	0.403251	0.105814
	H53	H	0.586332	0.585572	0.879464
	H54	H	0.414478	0.575428	0.100585
	H55	H	0.415111	0.404720	0.878325
	H56	H	0.114661	0.589366	0.405654
	H57	H	0.889410	0.580582	0.578590
	H58	H	0.109254	0.416239	0.575836
	H59	H	0.884694	0.399134	0.403766
	H60	H	0.118169	0.407276	0.592608
	H61	H	0.884807	0.585784	0.586757
	H62	H	0.112033	0.579743	0.404519
	H63	H	0.891149	0.412395	0.408967
	H64	H	0.417686	0.589164	0.104088
	H65	H	0.593606	0.589450	0.876292
	H66	H	0.594118	0.407226	0.105867
	H67	H	0.409200	0.407706	0.877664
	H68	H	0.588496	0.110489	0.398320
	H69	H	0.588268	0.882648	0.579664
	H70	H	0.409546	0.110076	0.577772
	H71	H	0.416686	0.886173	0.407328
	H72	H	0.906494	0.609495	0.075961
	H73	H	0.089862	0.382766	0.077360
	H74	H	0.095519	0.610399	0.905508
	H75	H	0.919238	0.385348	0.904464
	H76	H	0.096346	0.908499	0.605739
	H77	H	0.096847	0.084357	0.376388
	H78	H	0.911165	0.081500	0.602891
	H79	H	0.906836	0.907558	0.377442
	H80	H	0.614939	0.088851	0.904754
	H81	H	0.386607	0.087256	0.079753
	H82	H	0.617134	0.899151	0.084189
	H83	H	0.389889	0.910062	0.906862
	H84	H	0.611271	0.907578	0.074995
	H85	H	0.388405	0.083776	0.079711
	H86	H	0.612163	0.080577	0.904497
	H87	H	0.388251	0.909135	0.899751
	H88	H	0.913292	0.089111	0.604972
	H89	H	0.085451	0.078978	0.382167
	H90	H	0.084883	0.910621	0.601240
	H91	H	0.911854	0.908580	0.379620
	H92	H	0.087893	0.611168	0.895521
	H93	H	0.093643	0.380639	0.081099
	H94	H	0.910110	0.612093	0.087884
	H95	H	0.905756	0.381989	0.906519
	H96	H	0.411717	0.110362	0.583305
	H97	H	0.591181	0.881311	0.580763
	H98	H	0.588957	0.109062	0.403194
	H99	H	0.403300	0.880204	0.405846
	H100	H	0.589329	0.406671	0.105031
	H101	H	0.594161	0.580881	0.879212
	H102	H	0.404423	0.584335	0.106761
	H103	H	0.414466	0.411209	0.880199
	H104	H	0.114974	0.584592	0.396513
	H105	H	0.886059	0.590475	0.577601
	H106	H	0.116211	0.396148	0.574168
	H107	H	0.887099	0.411470	0.393899
	H108	H	0.918960	0.606809	0.079522
	H109	H	0.088247	0.381431	0.082585
	H110	H	0.084034	0.605321	0.906190
	H111	H	0.911748	0.379384	0.894532
	H112	H	0.088085	0.899742	0.605976
	H113	H	0.085257	0.092005	0.377809
	H114	H	0.905675	0.086836	0.607188
	H115	H	0.910628	0.903821	0.377297
	H116	H	0.616053	0.084251	0.897000
	H117	H	0.387189	0.084678	0.082750
	H118	H	0.613946	0.912214	0.087420
	H119	H	0.387990	0.903815	0.904003
	C120	C	0.379305	0.004742	0.612683
	C121	C	0.621540	0.987205	0.612471
	C122	C	0.621261	0.004309	0.369949
	C123	C	0.379101	0.987513	0.370324
	C124	C	0.623278	0.374261	0.000031
	C125	C	0.623064	0.616888	0.983499
	C126	C	0.380014	0.616381	-0.000595
	C127	C	0.379995	0.374294	0.982809
	C128	C	0.008757	0.616858	0.369950
	C129	C	0.992183	0.617459	0.612653
	C130	C	0.008894	0.374888	0.612417
	C131	C	0.992126	0.374501	0.370162
	C132	C	0.879788	0.503693	0.112569
	C133	C	0.122886	0.486820	0.112686
	C134	C	0.122192	0.504255	0.869557
	C135	C	0.879670	0.487533	0.869797
	C136	C	0.121789	0.874293	0.499655
	C137	C	0.121675	0.117587	0.483560
	C138	C	0.878438	0.117702	0.499954
	C139	C	0.877812	0.874203	0.482769
	C140	C	0.509447	0.117506	0.869604
	C141	C	0.492676	0.117151	0.112410
	C142	C	0.509186	0.873417	0.113864
	C143	C	0.493061	0.874508	0.870699
	C144	C	0.376932	0.884962	0.672678
	C145	C	0.623614	0.107466	0.671891
	C146	C	0.623441	0.883846	0.311283
	C147	C	0.377435	0.107716	0.310943
	C148	C	0.681969	0.373285	0.880201
	C149	C	0.682622	0.618269	0.103282
	C150	C	0.319741	0.620163	0.880247
	C151	C	0.319282	0.371369	0.101744
	C152	C	0.888347	0.675653	0.368787
	C153	C	0.112554	0.676245	0.613673
	C154	C	0.888577	0.316366	0.613746
	C155	C	0.111975	0.314320	0.368869
	C156	C	0.888928	0.373623	0.671560
	C157	C	0.112479	0.618705	0.671741
	C158	C	0.888707	0.618009	0.310713
	C159	C	0.112035	0.371180	0.310165
	C160	C	0.377682	0.677457	0.880723
	C161	C	0.624306	0.675557	0.103503
	C162	C	0.623834	0.315828	0.879893
	C163	C	0.377988	0.314513	0.102337
	C164	C	0.680351	0.883849	0.369616
	C165	C	0.680473	0.107666	0.613857
	C166	C	0.320440	0.884271	0.613767
	C167	C	0.319994	0.107848	0.368828
	C168	C	0.877060	0.384128	0.172876
	C169	C	0.125230	0.606471	0.173139
	C170	C	0.125556	0.384753	0.808701
	C171	C	0.876372	0.607232	0.809737
	C172	C	0.181361	0.872808	0.380316
	C173	C	0.182858	0.120917	0.602228
	C174	C	0.818997	0.119550	0.380259
	C175	C	0.818373	0.871961	0.602364
	C176	C	0.390661	0.179381	0.865939
	C177	C	0.612931	0.176056	0.113669
	C178	C	0.389823	0.812967	0.115845
	C179	C	0.612451	0.814210	0.868801
	C180	C	0.389202	0.870945	0.173514
	C181	C	0.612403	0.118864	0.172124
	C182	C	0.390476	0.121644	0.808196
	C183	C	0.611620	0.870770	0.809552
	C184	C	0.876606	0.177574	0.380578
	C185	C	0.123679	0.177239	0.603023
	C186	C	0.123549	0.815047	0.379912
	C187	C	0.876164	0.814088	0.602045
	C188	C	0.183366	0.385232	0.866246
	C189	C	0.182349	0.606818	0.114953
	C190	C	0.819735	0.384045	0.114939
	C191	C	0.820029	0.607675	0.868482
	C192	C	0.404761	0.088091	0.587382
	C193	C	0.596623	0.903792	0.588171
	C194	C	0.596958	0.088505	0.393793
	C195	C	0.403654	0.903831	0.395274
	C196	C	0.598767	0.398630	0.083807
	C197	C	0.598674	0.592582	0.900115
	C198	C	0.405152	0.590408	0.082194
	C199	C	0.405400	0.400342	0.900096
	C200	C	0.092110	0.591885	0.395031
	C201	C	0.908543	0.592710	0.588224
	C202	C	0.092775	0.399597	0.587986
	C203	C	0.909255	0.400257	0.394959
	C204	C	0.904944	0.587686	0.088043
	C205	C	0.097694	0.403461	0.087578
	C206	C	0.096340	0.587168	0.895029
	C207	C	0.905065	0.403879	0.894756
	C208	C	0.096965	0.899231	0.582690
	C209	C	0.096356	0.092295	0.400472
	C210	C	0.902997	0.093014	0.583369
	C211	C	0.902534	0.899511	0.399553
	C212	C	0.592632	0.091753	0.894983
	C213	C	0.409282	0.092333	0.087905
	C214	C	0.592348	0.898895	0.089097
	C215	C	0.410130	0.900400	0.896258
	Zn216	Zn	0.500917	-0.003878	0.741455
	Zn217	Zn	0.500236	-0.004359	0.241748
	Zn218	Zn	0.751867	0.495494	-0.008706
	Zn219	Zn	0.250819	0.496139	-0.009217
	Zn220	Zn	0.000087	0.746157	0.490842
	Zn221	Zn	0.000249	0.246229	0.492220
	Zn222	Zn	0.000265	0.495925	0.741315
	Zn223	Zn	0.001092	0.495212	0.240857
	Zn224	Zn	0.501226	0.745352	-0.008383
	Zn225	Zn	0.501690	0.245767	-0.008818
	Zn226	Zn	0.749579	-0.003830	0.491430
	Zn227	Zn	0.250179	-0.003631	0.491600
	N228	N	0.412561	0.961063	0.672327
	N229	N	0.587704	0.031635	0.671386
	N230	N	0.587343	0.959682	0.311632
	N231	N	0.413348	0.031749	0.311726
	N232	N	0.681881	0.408552	0.956101
	N233	N	0.682116	0.582643	0.027611
	N234	N	0.321089	0.582756	0.955136
	N235	N	0.320370	0.407833	0.026396
	N236	N	0.964050	0.674968	0.404849
	N237	N	0.036784	0.675782	0.577771
	N238	N	0.964371	0.317111	0.577822
	N239	N	0.036589	0.316126	0.405305
	N240	N	0.964772	0.409294	0.670832
	N241	N	0.036485	0.583185	0.671435
	N242	N	0.964462	0.582151	0.311226
	N243	N	0.036603	0.407952	0.310692
	N244	N	0.414423	0.675182	0.955680
	N245	N	0.588126	0.674938	0.028155
	N246	N	0.588297	0.316306	0.955685
	N247	N	0.415015	0.316204	0.027386
	N248	N	0.679173	0.959798	0.405410
	N249	N	0.679312	0.031966	0.577690
	N250	N	0.321543	0.959978	0.577489
	N251	N	0.320810	0.032036	0.404961
	N252	N	0.913744	0.459637	0.171293
	N253	N	0.088917	0.530828	0.171903
	N254	N	0.088123	0.459944	0.810544
	N255	N	0.912803	0.531560	0.810507
	N256	N	0.180401	0.909037	0.455672
	N257	N	0.181698	0.084528	0.526826
	N258	N	0.819916	0.083051	0.455529
	N259	N	0.819302	0.908867	0.527144
	N260	N	0.465653	0.176952	0.903533
	N261	N	0.537338	0.175264	0.077330
	N262	N	0.465498	0.814021	0.079916
	N263	N	0.537671	0.816636	0.906236
	N264	N	0.464547	0.907712	0.172563
	N265	N	0.536620	0.082937	0.171593
	N266	N	0.465406	0.083930	0.810355
	N267	N	0.536417	0.907861	0.810743
	N268	N	0.912523	0.176814	0.456168
	N269	N	0.086387	0.175323	0.528153
	N270	N	0.087221	0.815902	0.455076
	N271	N	0.912209	0.815321	0.526658
	N272	N	0.181429	0.460423	0.903290
	N273	N	0.181256	0.531261	0.078318
	N274	N	0.821401	0.459469	0.078167
	N275	N	0.822119	0.532119	0.905252
	O276	O	0.580496	0.383725	0.370928
	H277	H	0.596036	0.397123	0.367366
	H278	H	0.562462	0.376257	0.356531
	O279	O	0.625274	0.510409	0.584355
	H280	H	0.617991	0.514941	0.584370
	H281	H	0.626821	0.524666	0.587110
	O282	O	0.480030	0.647730	0.536061
	H283	H	0.477689	0.640825	0.537856
	H284	H	0.469632	0.647542	0.523949
	O285	O	0.889807	-0.064753	0.016077
	H286	H	0.869728	-0.058276	-0.001513
	H287	H	0.879148	-0.072886	0.015629
	O288	O	0.207252	-0.001155	0.985652
	H289	H	0.189932	0.001938	0.994287
	H290	H	0.210100	-0.003071	0.985787
	O291	O	0.582489	0.653575	0.457822
	H292	H	0.569093	0.653584	0.448855
	H293	H	0.583732	0.667241	0.449964
	O294	O	0.348745	0.366109	0.593287
	H295	H	0.368782	0.359450	0.576559
	H296	H	0.348857	0.363780	0.592714
	O297	O	1.205125	1.021169	1.187321
	H298	H	1.195974	1.013437	1.180913
	H299	H	1.224855	1.012079	1.205769
	O300	O	0.139341	0.088704	-0.133974
	H301	H	0.123955	0.092066	-0.122892
	H302	H	0.138715	0.067936	-0.113846
	O303	O	0.454576	0.624226	0.392708
	H304	H	0.448599	0.629961	0.393413
	H305	H	0.466992	0.627117	0.394284
	O306	O	0.959072	0.184336	0.004629
	H307	H	0.950270	0.159111	0.004632
	H308	H	0.966197	0.196015	0.006799
	O309	O	0.439765	0.397353	0.578541
	H310	H	0.444731	0.413964	0.583824
	H311	H	0.430503	0.394211	0.558839
	O312	O	1.024206	0.781827	-0.221715
	H313	H	1.067655	0.792001	-0.208446
	H314	H	1.033574	0.752554	-0.254470
	O315	O	0.577716	0.703738	0.233225
	H316	H	0.561881	0.696871	0.216921
	H317	H	0.576517	0.715585	0.240297
	O318	O	0.530231	0.366769	0.554920
	H319	H	0.521462	0.366344	0.539812
	H320	H	0.528068	0.364441	0.561296
	O321	O	0.835651	-0.198053	1.145432
	H322	H	0.820742	-0.185493	1.132912
	H323	H	0.822853	-0.192974	1.149306
	O324	O	-0.020711	-0.145382	1.107953
	H325	H	-0.000528	-0.137929	1.102164
	H326	H	-0.049248	-0.162066	1.098157
	O327	O	0.517170	0.524245	0.421553
	H328	H	0.501970	0.521685	0.422530
	H329	H	0.518499	0.524461	0.423788
	O330	O	0.388649	0.506906	0.646189
	H331	H	0.372291	0.492796	0.660628
	H332	H	0.395182	0.489812	0.650126
	O333	O	1.206643	0.792829	0.972516
	H334	H	1.203409	0.781262	0.977322
	H335	H	1.212838	0.793656	0.976293
	O336	O	0.405538	0.592433	0.403249
	H337	H	0.397159	0.592836	0.415524
	H338	H	0.386943	0.590983	0.399451
	O339	O	0.863346	0.208120	0.903191
	H340	H	0.857912	0.210542	0.912186
	H341	H	0.861037	0.222880	0.876977
	O342	O	-0.206199	0.987761	1.130500
	H343	H	-0.198943	0.994438	1.117336
	H344	H	-0.198079	0.998534	1.127038
	O345	O	-0.041410	0.893246	0.886516
	H346	H	-0.022594	0.895304	0.874950
	H347	H	-0.035355	0.895499	0.895132
	O348	O	0.653816	0.419004	0.346728
	H349	H	0.662928	0.420843	0.350580
	H350	H	0.652564	0.435255	0.344246
	O351	O	-0.076647	-0.015065	0.017173
	H352	H	-0.077226	-0.025981	0.017608
	H353	H	-0.083459	-0.018230	-0.000301
	O354	O	1.214247	0.972432	-0.224160
	H355	H	1.238200	0.982600	-0.240780
	H356	H	1.219514	0.996914	-0.209140
	O357	O	-0.171296	0.931740	-0.041987
	H358	H	-0.174786	0.911544	-0.033944
	H359	H	-0.162441	0.924083	-0.055699
	O360	O	0.443159	0.432827	0.423635
	H361	H	0.442585	0.423180	0.403204
	H362	H	0.450316	0.432697	0.435229
	O363	O	0.549140	0.335072	0.561403
	H364	H	0.556467	0.334974	0.569771
	H365	H	0.558201	0.340157	0.558444
	O366	O	0.429592	0.565605	0.281531
	H367	H	0.437355	0.583903	0.277985
	H368	H	0.410815	0.558656	0.281497
	O369	O	0.608009	0.415662	0.506236
	H370	H	0.605177	0.420644	0.497055
	H371	H	0.620872	0.416593	0.504352
	O372	O	0.540348	0.503184	0.472986
	H373	H	0.530884	0.510675	0.480429
	H374	H	0.543760	0.505327	0.482864
	O375	O	0.637158	0.556010	0.607556
	H376	H	0.641363	0.556468	0.596449
	H377	H	0.632217	0.549250	0.602162
	O378	O	0.389911	0.564535	0.539422
	H379	H	0.390285	0.559755	0.547802
	H380	H	0.400989	0.560510	0.549745
	O381	O	0.435132	0.655669	0.479611
	H382	H	0.431938	0.654668	0.478076
	H383	H	0.426632	0.662278	0.484374
	O384	O	0.182334	0.813042	0.810507
	H385	H	0.187854	0.823914	0.827771
	H386	H	0.194525	0.848338	0.816993
	O387	O	0.995783	0.788653	0.136115
	H388	H	0.967233	0.777702	0.148318
	H389	H	0.978812	0.795066	0.135376
	O390	O	0.378889	0.491792	0.528635
	H391	H	0.387461	0.479026	0.538319
	H392	H	0.398118	0.491495	0.515036
	O393	O	1.112163	0.177128	1.135009
	H394	H	1.129004	0.144115	1.131506
	H395	H	1.108381	0.170023	1.121765
	O396	O	0.216438	1.207003	1.013102
	H397	H	0.219404	1.223474	1.008720
	H398	H	0.212975	1.221088	1.018781
	O399	O	-0.080589	1.061824	0.855538
	H400	H	-0.094464	1.050152	0.840711
	H401	H	-0.063238	1.056105	0.848684
	O402	O	0.959078	-0.091798	0.831804
	H403	H	0.972267	-0.122226	0.822570
	H404	H	0.956811	-0.084271	0.837376
	O405	O	-0.189195	0.184736	-0.162727
	H406	H	-0.188141	0.184469	-0.153187
	H407	H	-0.173381	0.186466	-0.159860
	O408	O	1.472730	1.306356	1.338728
	H409	H	1.485162	1.299473	1.319282
	H410	H	1.465429	1.321229	1.333815
	O411	O	0.849874	1.032661	-0.071582
	H412	H	0.856743	1.047487	-0.069811
	H413	H	0.847578	1.037634	-0.085487
	O414	O	0.005369	0.168012	1.096153
	H415	H	0.011483	0.180551	1.091423
	H416	H	-0.010777	0.161540	1.102538
	O417	O	0.119563	-0.027732	1.025765
	H418	H	0.126162	-0.007193	1.035269
	H419	H	0.096485	-0.034510	1.019960
	O420	O	-0.065801	1.114798	0.209077
	H421	H	-0.066453	1.147312	0.207895
	H422	H	-0.057465	1.112034	0.212544
	O423	O	1.007155	0.159706	-0.170973
	H424	H	1.006566	0.142333	-0.170369
	H425	H	0.995476	0.162818	-0.185034
	O426	O	0.035146	-0.108810	1.134315
	H427	H	0.041053	-0.095318	1.134146
	H428	H	0.022654	-0.110560	1.139950
	O429	O	0.605613	0.585895	0.628926
	H430	H	0.609777	0.585763	0.626187
	H431	H	0.598861	0.591964	0.625589
