data_Molecule from HDF5

_cell_length_a		16.281408
_cell_length_b		16.197235
_cell_length_c		16.493650
_cell_angle_alpha	89.858703
_cell_angle_beta	89.602323
_cell_angle_gamma	89.728118
_symmetry_space_group_name_H-M	'P 1'
_symmetry_Int_Tables_number		1

loop_
	_symmetry_equiv_pos_as_xyz
	x,y,z

loop_
	_atom_site_label
	_atom_site_type_symbol
	_atom_site_fract_x
	_atom_site_fract_y
	_atom_site_fract_z
	H0	H	0.405819	0.835500	0.722767
	H1	H	0.614447	0.158490	0.721074
	H2	H	0.616307	0.834508	0.284218
	H3	H	0.406989	0.157897	0.282103
	H4	H	0.732330	0.393735	0.845259
	H5	H	0.725034	0.594921	0.166274
	H6	H	0.291644	0.600959	0.844412
	H7	H	0.290581	0.391968	0.163783
	H8	H	0.846282	0.713970	0.406705
	H9	H	0.172912	0.713138	0.600564
	H10	H	0.846393	0.284423	0.601268
	H11	H	0.171716	0.280502	0.400259
	H12	H	0.850425	0.393415	0.724123
	H13	H	0.170341	0.604246	0.723805
	H14	H	0.846938	0.602365	0.287328
	H15	H	0.170053	0.393548	0.282643
	H16	H	0.411766	0.713788	0.842460
	H17	H	0.610367	0.713628	0.164554
	H18	H	0.615894	0.278564	0.843319
	H19	H	0.409887	0.277104	0.164055
	H20	H	0.727921	0.834069	0.402083
	H21	H	0.721553	0.162117	0.598155
	H22	H	0.293614	0.834716	0.603051
	H23	H	0.293283	0.159831	0.398651
	H24	H	0.907789	0.335160	0.223366
	H25	H	0.109858	0.660623	0.218283
	H26	H	0.117771	0.336762	0.782015
	H27	H	0.906037	0.659533	0.786175
	H28	H	0.229906	0.895360	0.342394
	H29	H	0.229692	0.102925	0.660879
	H30	H	0.794441	0.098422	0.340285
	H31	H	0.791623	0.897373	0.662669
	H32	H	0.348699	0.214837	0.903748
	H33	H	0.675020	0.209001	0.099410
	H34	H	0.348181	0.781918	0.103071
	H35	H	0.674357	0.780795	0.903328
	H36	H	0.351146	0.891435	0.224803
	H37	H	0.672442	0.099748	0.220893
	H38	H	0.349551	0.103560	0.783933
	H39	H	0.672487	0.893305	0.782727
	H40	H	0.909983	0.216073	0.341043
	H41	H	0.110004	0.215080	0.662219
	H42	H	0.112165	0.779483	0.342171
	H43	H	0.907552	0.781595	0.663779
	H44	H	0.228708	0.333701	0.902025
	H45	H	0.224820	0.660487	0.101954
	H46	H	0.797863	0.331481	0.104768
	H47	H	0.796021	0.660090	0.907375
	H48	H	0.424836	0.113193	0.598540
	H49	H	0.600096	0.880437	0.595120
	H50	H	0.611226	0.116479	0.408829
	H51	H	0.423980	0.882536	0.413017
	H52	H	0.611474	0.408468	0.119490
	H53	H	0.603677	0.590993	0.890290
	H54	H	0.426417	0.585050	0.113347
	H55	H	0.418606	0.407890	0.890332
	H56	H	0.121485	0.581183	0.412603
	H57	H	0.898626	0.579473	0.592832
	H58	H	0.126252	0.406455	0.595769
	H59	H	0.893856	0.403351	0.417810
	H60	H	0.125417	0.405843	0.590353
	H61	H	0.891561	0.589658	0.607109
	H62	H	0.127710	0.588215	0.401840
	H63	H	0.896612	0.415739	0.414563
	H64	H	0.416416	0.599051	0.121076
	H65	H	0.607822	0.586099	0.889769
	H66	H	0.594176	0.406465	0.113949
	H67	H	0.422819	0.408363	0.892448
	H68	H	0.595851	0.114896	0.400297
	H69	H	0.598791	0.882658	0.591467
	H70	H	0.422213	0.110416	0.587504
	H71	H	0.420815	0.882162	0.415067
	H72	H	0.916375	0.613317	0.095155
	H73	H	0.098381	0.381877	0.094241
	H74	H	0.102387	0.613777	0.911126
	H75	H	0.923903	0.381493	0.913592
	H76	H	0.106802	0.905874	0.617749
	H77	H	0.097596	0.084722	0.390728
	H78	H	0.918367	0.085961	0.614364
	H79	H	0.928806	0.914153	0.394254
	H80	H	0.624366	0.076928	0.905585
	H81	H	0.399154	0.087720	0.081823
	H82	H	0.626123	0.910728	0.098878
	H83	H	0.396978	0.906908	0.913925
	H84	H	0.629216	0.899254	0.095767
	H85	H	0.398661	0.074254	0.099743
	H86	H	0.629961	0.092252	0.902544
	H87	H	0.395650	0.909124	0.909675
	H88	H	0.917743	0.096060	0.617501
	H89	H	0.100679	0.093052	0.387308
	H90	H	0.099290	0.912591	0.613698
	H91	H	0.922593	0.893364	0.385030
	H92	H	0.096075	0.611675	0.912083
	H93	H	0.101266	0.381508	0.094472
	H94	H	0.917124	0.614318	0.096839
	H95	H	0.920166	0.380558	0.912979
	H96	H	0.413691	0.115077	0.594143
	H97	H	0.603168	0.880966	0.591524
	H98	H	0.597097	0.109875	0.416584
	H99	H	0.420877	0.881558	0.411574
	H100	H	0.603739	0.391481	0.121503
	H101	H	0.601061	0.585149	0.892169
	H102	H	0.408666	0.582282	0.118528
	H103	H	0.422058	0.404739	0.890136
	H104	H	0.125586	0.594351	0.414086
	H105	H	0.893508	0.597126	0.589903
	H106	H	0.123974	0.411133	0.592541
	H107	H	0.891824	0.407500	0.405688
	H108	H	0.918405	0.613105	0.096405
	H109	H	0.099331	0.380863	0.096646
	H110	H	0.099958	0.611407	0.916239
	H111	H	0.923218	0.380331	0.910326
	H112	H	0.096724	0.902627	0.615948
	H113	H	0.106843	0.086012	0.387569
	H114	H	0.909137	0.089928	0.617354
	H115	H	0.906914	0.911759	0.385982
	H116	H	0.624400	0.088565	0.917715
	H117	H	0.391290	0.095853	0.101287
	H118	H	0.624574	0.906772	0.087560
	H119	H	0.394334	0.904893	0.909951
	C120	C	0.389009	0.005763	0.624067
	C121	C	0.630503	0.988909	0.622277
	C122	C	0.632382	0.005722	0.380003
	C123	C	0.390431	0.989041	0.381317
	C124	C	0.634406	0.372651	0.012921
	C125	C	0.633094	0.617402	0.996405
	C126	C	0.388137	0.619138	0.011624
	C127	C	0.390093	0.375166	0.996270
	C128	C	0.017516	0.619213	0.381514
	C129	C	1.001527	0.619494	0.625336
	C130	C	0.018937	0.377006	0.623873
	C131	C	1.000708	0.376988	0.381422
	C132	C	0.888219	0.505479	0.126228
	C133	C	0.129916	0.488767	0.124347
	C134	C	0.131958	0.505509	0.881831
	C135	C	0.890616	0.488361	0.883198
	C136	C	0.132151	0.875991	0.510341
	C137	C	0.131824	0.119312	0.493704
	C138	C	0.886641	0.120316	0.509815
	C139	C	0.888238	0.876299	0.494337
	C140	C	0.519272	0.118103	0.879801
	C141	C	0.503306	0.116272	0.123577
	C142	C	0.520219	0.874620	0.124923
	C143	C	0.502671	0.875633	0.880947
	C144	C	0.387656	0.883920	0.682623
	C145	C	0.631575	0.110613	0.680572
	C146	C	0.633922	0.883107	0.323461
	C147	C	0.388512	0.109861	0.321796
	C148	C	0.692932	0.374017	0.892628
	C149	C	0.687868	0.615784	0.117538
	C150	C	0.330958	0.619635	0.891837
	C151	C	0.330644	0.373501	0.116066
	C152	C	0.895168	0.676272	0.385035
	C153	C	0.123929	0.676018	0.622208
	C154	C	0.896025	0.321161	0.622918
	C155	C	0.122927	0.319131	0.380998
	C156	C	0.898000	0.375367	0.683863
	C157	C	0.122645	0.621780	0.683429
	C158	C	0.895658	0.620724	0.325657
	C159	C	0.122196	0.375457	0.322619
	C160	C	0.390551	0.675949	0.890988
	C161	C	0.630639	0.674762	0.116807
	C162	C	0.634973	0.316642	0.891929
	C163	C	0.390137	0.316349	0.116195
	C164	C	0.689830	0.882949	0.381863
	C165	C	0.685189	0.112497	0.619458
	C166	C	0.331509	0.883454	0.623618
	C167	C	0.331903	0.110764	0.380094
	C168	C	0.888657	0.383358	0.184270
	C169	C	0.129519	0.611562	0.180507
	C170	C	0.135372	0.384512	0.822238
	C171	C	0.888538	0.610788	0.825852
	C172	C	0.190676	0.875757	0.390189
	C173	C	0.190006	0.120752	0.613258
	C174	C	0.832056	0.118955	0.388704
	C175	C	0.830371	0.877566	0.614863
	C176	C	0.397532	0.176543	0.882568
	C177	C	0.625975	0.171770	0.120604
	C178	C	0.397335	0.818904	0.123797
	C179	C	0.625444	0.819283	0.882708
	C180	C	0.398891	0.873473	0.184097
	C181	C	0.624683	0.117223	0.180806
	C182	C	0.397898	0.120806	0.823102
	C183	C	0.624224	0.874604	0.822448
	C184	C	0.889559	0.177397	0.388990
	C185	C	0.130365	0.176907	0.614030
	C186	C	0.131985	0.818199	0.390227
	C187	C	0.888087	0.819688	0.615244
	C188	C	0.190194	0.382963	0.882261
	C189	C	0.186492	0.611661	0.122278
	C190	C	0.834143	0.381464	0.125070
	C191	C	0.833321	0.610963	0.885851
	C192	C	0.413208	0.090747	0.600370
	C193	C	0.607246	0.903652	0.599591
	C194	C	0.608413	0.091460	0.402145
	C195	C	0.415050	0.903998	0.406089
	C196	C	0.610166	0.395523	0.096603
	C197	C	0.610632	0.594213	0.912412
	C198	C	0.410502	0.595654	0.095791
	C199	C	0.414096	0.400068	0.912654
	C200	C	0.102866	0.594893	0.403228
	C201	C	0.916779	0.595697	0.603185
	C202	C	0.103439	0.400888	0.599738
	C203	C	0.916146	0.401682	0.405721
	C204	C	0.910660	0.591166	0.102917
	C205	C	0.106525	0.403622	0.101726
	C206	C	0.106719	0.590339	0.906092
	C207	C	0.915271	0.402876	0.905716
	C208	C	0.108021	0.900019	0.593927
	C209	C	0.108449	0.095040	0.410028
	C210	C	0.908603	0.097308	0.594529
	C211	C	0.912421	0.899555	0.410206
	C212	C	0.604394	0.093077	0.902153
	C213	C	0.418592	0.092757	0.100845
	C214	C	0.604714	0.898588	0.101010
	C215	C	0.417637	0.899922	0.904438
	Zn216	Zn	0.510437	-0.003114	0.751855
	Zn217	Zn	0.511328	-0.003491	0.252541
	Zn218	Zn	0.762177	0.495218	0.005128
	Zn219	Zn	0.259025	0.496755	0.003709
	Zn220	Zn	0.009427	0.747390	0.503143
	Zn221	Zn	0.009439	0.248693	0.502324
	Zn222	Zn	0.010777	0.497552	0.753713
	Zn223	Zn	0.008705	0.498034	0.253453
	Zn224	Zn	0.511161	0.747453	0.003265
	Zn225	Zn	0.511906	0.244752	0.003301
	Zn226	Zn	0.758713	-0.002213	0.501850
	Zn227	Zn	0.261480	-0.002123	0.502241
	N228	N	0.422457	0.961111	0.683228
	N229	N	0.598227	0.032815	0.682526
	N230	N	0.598823	0.960483	0.322079
	N231	N	0.424362	0.032940	0.322715
	N232	N	0.692902	0.408025	0.968743
	N233	N	0.689590	0.580886	0.041638
	N234	N	0.329461	0.584816	0.967814
	N235	N	0.330479	0.409368	0.040351
	N236	N	0.972101	0.675560	0.418870
	N237	N	0.047613	0.674727	0.586959
	N238	N	0.972078	0.321889	0.586445
	N239	N	0.046501	0.319880	0.416964
	N240	N	0.975375	0.409473	0.684570
	N241	N	0.045741	0.587300	0.685520
	N242	N	0.972844	0.585970	0.323238
	N243	N	0.045254	0.410774	0.322744
	N244	N	0.425424	0.675753	0.966625
	N245	N	0.597173	0.675804	0.040522
	N246	N	0.598975	0.315647	0.967500
	N247	N	0.426386	0.317285	0.040652
	N248	N	0.689171	0.960256	0.416084
	N249	N	0.684439	0.035872	0.583682
	N250	N	0.332243	0.960284	0.588004
	N251	N	0.333270	0.034389	0.416659
	N252	N	0.921504	0.461498	0.185129
	N253	N	0.094939	0.534263	0.181962
	N254	N	0.100027	0.461712	0.821720
	N255	N	0.923242	0.533293	0.823932
	N256	N	0.190932	0.910999	0.465937
	N257	N	0.190961	0.085704	0.537372
	N258	N	0.830161	0.084293	0.464881
	N259	N	0.830222	0.911948	0.538476
	N260	N	0.474207	0.175027	0.917029
	N261	N	0.549654	0.171055	0.085433
	N262	N	0.473610	0.819704	0.087497
	N263	N	0.548793	0.819643	0.918373
	N264	N	0.476248	0.907194	0.185132
	N265	N	0.547521	0.083349	0.182687
	N266	N	0.474812	0.085178	0.821311
	N267	N	0.546785	0.908779	0.821204
	N268	N	0.922978	0.178180	0.465344
	N269	N	0.095075	0.176331	0.538546
	N270	N	0.096370	0.818101	0.465955
	N271	N	0.923369	0.818971	0.539378
	N272	N	0.188510	0.459512	0.918305
	N273	N	0.186923	0.534320	0.088094
	N274	N	0.833489	0.458441	0.089833
	N275	N	0.834714	0.533761	0.920861
	O276	O	-0.002256	0.021313	-0.073163
	H277	H	-0.010538	0.021210	-0.064027
	H278	H	-0.006115	0.023017	-0.070664
	O279	O	0.489043	0.379012	0.447680
	H280	H	0.478422	0.388540	0.432257
	H281	H	0.495302	0.370948	0.462188
	O282	O	0.976457	0.127709	-0.051428
	H283	H	0.975972	0.121763	-0.053664
	H284	H	0.969468	0.141462	-0.052957
	O285	O	-0.570096	1.641989	-0.386520
	H286	H	-0.560967	1.643170	-0.383209
	H287	H	-0.573104	1.637212	-0.389544
	O288	O	0.655116	0.619012	0.525410
	H289	H	0.660266	0.612988	0.524670
	H290	H	0.651989	0.617301	0.518527
	O291	O	0.388087	0.650131	0.453286
	H292	H	0.378392	0.646026	0.452856
	H293	H	0.387653	0.654427	0.467628
	O294	O	1.037318	1.017060	1.041367
	H295	H	1.037987	1.011844	1.039398
	H296	H	1.044481	1.008763	1.036228
	O297	O	0.080850	0.012070	0.062073
	H298	H	0.076278	0.008124	0.059159
	H299	H	0.082874	0.005692	0.063661
	O300	O	0.496869	0.407106	0.365463
	H301	H	0.497918	0.410474	0.357629
	H302	H	0.490510	0.411509	0.372779
	O303	O	0.039324	0.969021	0.813491
	H304	H	0.024796	0.956104	0.798155
	H305	H	0.058914	0.971662	0.811382
	O306	O	0.422591	0.366741	0.607480
	H307	H	0.427647	0.359469	0.597452
	H308	H	0.425155	0.383419	0.614769
	O309	O	1.064427	0.038782	0.054624
	H310	H	1.062023	0.046122	0.047894
	H311	H	1.061687	0.038295	0.057938
	O312	O	-0.240446	0.249197	0.724184
	H313	H	-0.237951	0.239792	0.723085
	H314	H	-0.241075	0.255432	0.721147
	O315	O	0.534110	0.540448	0.428068
	H316	H	0.545785	0.538694	0.420566
	H317	H	0.527425	0.531352	0.423844
	O318	O	0.571309	0.483007	0.356398
	H319	H	0.578185	0.466938	0.349366
	H320	H	0.569080	0.484738	0.346340
	O321	O	0.542795	0.506944	0.519213
	H322	H	0.526711	0.512093	0.517516
	H323	H	0.550598	0.494987	0.522074
	O324	O	0.585562	0.452380	0.566486
	H325	H	0.578034	0.448866	0.573844
	H326	H	0.584653	0.463449	0.572556
	O327	O	0.097287	1.005433	0.920635
	H328	H	0.101857	1.016938	0.918162
	H329	H	0.108787	1.014975	0.902137
	O330	O	0.610341	0.538999	0.678567
	H331	H	0.604899	0.540030	0.690940
	H332	H	0.625014	0.542177	0.652011
	O333	O	-0.106614	1.008700	1.112120
	H334	H	-0.115577	1.007138	1.115122
	H335	H	-0.115743	0.999399	1.114446
	O336	O	1.043007	1.025286	0.971445
	H337	H	1.046294	1.037696	0.979243
	H338	H	1.040675	1.025947	0.973474
	O339	O	0.474687	0.679760	0.325463
	H340	H	0.464082	0.683069	0.322535
	H341	H	0.475754	0.681210	0.317507
	O342	O	1.068052	0.025452	0.016081
	H343	H	1.062347	0.031828	0.023183
	H344	H	1.068563	0.024173	0.014976
	O345	O	0.435723	0.356318	0.577693
	H346	H	0.439554	0.359636	0.586114
	H347	H	0.422992	0.351228	0.580189
	O348	O	1.009484	0.940093	0.949674
	H349	H	1.010930	0.931542	0.958425
	H350	H	1.014369	0.934602	0.948694
	O351	O	1.056520	0.975673	-0.084214
	H352	H	1.052952	0.992633	-0.075625
	H353	H	1.053088	0.971867	-0.089995
	O354	O	0.473752	0.533122	0.390097
	H355	H	0.462459	0.536189	0.383295
	H356	H	0.473429	0.538888	0.404812
	O357	O	0.605010	0.581923	0.537167
	H358	H	0.618669	0.588280	0.518389
	H359	H	0.606925	0.576353	0.533660
	O360	O	-0.029867	0.004385	0.052577
	H361	H	-0.027464	-0.010132	0.059217
	H362	H	-0.038532	0.002213	0.034697
	O363	O	0.660066	0.330491	0.452380
	H364	H	0.668990	0.329891	0.460346
	H365	H	0.661401	0.332604	0.443487
	O366	O	0.581299	0.418397	0.533406
	H367	H	0.581533	0.438468	0.539016
	H368	H	0.570949	0.420177	0.536555
	O369	O	0.013006	0.015426	0.082858
	H370	H	0.010951	0.009183	0.090418
	H371	H	0.012142	0.014269	0.081637
	O372	O	0.401129	0.437270	0.485767
	H373	H	0.398280	0.434928	0.473963
	H374	H	0.404429	0.431256	0.495302
	O375	O	0.315043	0.429876	0.608170
	H376	H	0.289291	0.417478	0.618395
	H377	H	0.320561	0.428060	0.583379
	O378	O	0.311587	0.585393	0.425002
	H379	H	0.323386	0.598789	0.423602
	H380	H	0.303661	0.581447	0.426294
	O381	O	-0.023096	0.916779	0.965857
	H382	H	-0.028851	0.918436	0.959759
	H383	H	-0.021322	0.919627	0.956880
	O384	O	-0.068986	0.817269	0.100612
	H385	H	-0.071755	0.817828	0.103830
	H386	H	-0.053353	0.812419	0.088742
	O387	O	1.059034	-0.041864	1.001309
	H388	H	1.064814	-0.044009	1.003224
	H389	H	1.076358	-0.030382	0.997833
	O390	O	-0.047961	0.939808	0.063463
	H391	H	-0.056373	0.942299	0.060628
	H392	H	-0.044651	0.940286	0.057144
	O393	O	1.109901	0.888578	-0.005581
	H394	H	1.112665	0.872303	-0.004461
	H395	H	1.111901	0.893276	-0.013984
	O396	O	0.428086	0.597518	0.684572
	H397	H	0.420712	0.586004	0.696140
	H398	H	0.432908	0.598742	0.685733
	O399	O	0.035388	0.954378	1.026704
	H400	H	0.035505	0.946429	1.023459
	H401	H	0.034719	0.954800	1.027256
	O402	O	0.524050	0.580962	0.613692
	H403	H	0.522241	0.573303	0.605170
	H404	H	0.524188	0.577235	0.615819
	O405	O	0.559578	0.475301	0.715920
	H406	H	0.570600	0.472057	0.707983
	H407	H	0.555046	0.485402	0.731677
