data_Molecule from HDF5

_cell_length_a		16.293641
_cell_length_b		16.225085
_cell_length_c		16.300379
_cell_angle_alpha	89.785526
_cell_angle_beta	89.812606
_cell_angle_gamma	90.153597
_symmetry_space_group_name_H-M	'P 1'
_symmetry_Int_Tables_number		1

loop_
	_symmetry_equiv_pos_as_xyz
	x,y,z

loop_
	_atom_site_label
	_atom_site_type_symbol
	_atom_site_fract_x
	_atom_site_fract_y
	_atom_site_fract_z
	H0	H	0.403873	0.834567	0.709961
	H1	H	0.603421	0.163030	0.709612
	H2	H	0.602755	0.834458	0.281434
	H3	H	0.407251	0.162738	0.280193
	H4	H	0.718973	0.400158	0.831673
	H5	H	0.717258	0.596654	0.158445
	H6	H	0.289599	0.599047	0.830402
	H7	H	0.286261	0.399563	0.157485
	H8	H	0.839582	0.712735	0.396564
	H9	H	0.168221	0.713770	0.589852
	H10	H	0.840208	0.285521	0.592673
	H11	H	0.168679	0.288294	0.395667
	H12	H	0.840645	0.398709	0.710114
	H13	H	0.167459	0.600012	0.708729
	H14	H	0.840204	0.597749	0.280477
	H15	H	0.167431	0.402230	0.278267
	H16	H	0.405697	0.714512	0.831266
	H17	H	0.600604	0.711612	0.159071
	H18	H	0.601197	0.286552	0.831058
	H19	H	0.403083	0.283306	0.158465
	H20	H	0.718827	0.835209	0.396521
	H21	H	0.718118	0.163931	0.592572
	H22	H	0.286833	0.835997	0.594738
	H23	H	0.291925	0.164553	0.395787
	H24	H	0.904202	0.336267	0.209955
	H25	H	0.100152	0.665195	0.204218
	H26	H	0.101916	0.335371	0.779117
	H27	H	0.905445	0.664048	0.779114
	H28	H	0.218374	0.903744	0.330437
	H29	H	0.217861	0.097860	0.658374
	H30	H	0.789194	0.099818	0.330980
	H31	H	0.788092	0.899050	0.657358
	H32	H	0.339735	0.212841	0.896860
	H33	H	0.667501	0.213524	0.092424
	H34	H	0.339795	0.782782	0.095607
	H35	H	0.668450	0.786861	0.898817
	H36	H	0.340620	0.898453	0.211883
	H37	H	0.667589	0.096765	0.208095
	H38	H	0.339723	0.097064	0.780651
	H39	H	0.667129	0.900260	0.780097
	H40	H	0.907415	0.214419	0.329974
	H41	H	0.102094	0.214075	0.658828
	H42	H	0.101360	0.788443	0.329161
	H43	H	0.905027	0.783996	0.657273
	H44	H	0.218293	0.334602	0.894349
	H45	H	0.218226	0.663614	0.091461
	H46	H	0.789396	0.334518	0.092799
	H47	H	0.788110	0.663762	0.894641
	H48	H	0.408141	0.116088	0.584906
	H49	H	0.593004	0.880319	0.599403
	H50	H	0.597512	0.116769	0.398625
	H51	H	0.415429	0.881032	0.394386
	H52	H	0.592279	0.406682	0.109973
	H53	H	0.598162	0.590166	0.879265
	H54	H	0.399163	0.584247	0.111683
	H55	H	0.410680	0.406688	0.878840
	H56	H	0.119875	0.595327	0.399720
	H57	H	0.888018	0.592690	0.586063
	H58	H	0.118332	0.407690	0.578818
	H59	H	0.892833	0.410644	0.415184
	H60	H	0.118459	0.416474	0.590778
	H61	H	0.887253	0.590693	0.586954
	H62	H	0.120929	0.593628	0.398386
	H63	H	0.887522	0.417541	0.390176
	H64	H	0.418157	0.584877	0.106403
	H65	H	0.594364	0.593368	0.878454
	H66	H	0.597168	0.400767	0.113177
	H67	H	0.410948	0.405658	0.879284
	H68	H	0.594742	0.114720	0.402028
	H69	H	0.588192	0.887377	0.579558
	H70	H	0.409660	0.117684	0.592516
	H71	H	0.414743	0.886132	0.412200
	H72	H	0.908890	0.614889	0.079929
	H73	H	0.100396	0.382605	0.083549
	H74	H	0.091756	0.615751	0.893424
	H75	H	0.911840	0.383295	0.900587
	H76	H	0.097257	0.904956	0.610850
	H77	H	0.104949	0.095520	0.376206
	H78	H	0.913517	0.089166	0.608897
	H79	H	0.907192	0.902448	0.374502
	H80	H	0.616277	0.088581	0.908679
	H81	H	0.384682	0.094479	0.093853
	H82	H	0.620774	0.902162	0.089365
	H83	H	0.391202	0.909595	0.913328
	H84	H	0.618959	0.904969	0.084735
	H85	H	0.387737	0.093936	0.082230
	H86	H	0.620435	0.087308	0.893864
	H87	H	0.387533	0.913506	0.892156
	H88	H	0.913624	0.094686	0.610592
	H89	H	0.097071	0.090121	0.380351
	H90	H	0.096964	0.908386	0.610048
	H91	H	0.907991	0.912821	0.378328
	H92	H	0.093276	0.612310	0.908374
	H93	H	0.094871	0.381014	0.093244
	H94	H	0.903426	0.619047	0.089525
	H95	H	0.911133	0.384457	0.902948
	H96	H	0.415546	0.114535	0.587999
	H97	H	0.608416	0.880047	0.584267
	H98	H	0.599701	0.115629	0.403042
	H99	H	0.399616	0.879050	0.403854
	H100	H	0.600298	0.408546	0.111996
	H101	H	0.599305	0.594591	0.877335
	H102	H	0.409712	0.601763	0.113848
	H103	H	0.409742	0.406200	0.877456
	H104	H	0.121824	0.595674	0.397856
	H105	H	0.887615	0.592380	0.588492
	H106	H	0.123327	0.401766	0.591524
	H107	H	0.882869	0.392978	0.398836
	H108	H	0.914842	0.616599	0.090172
	H109	H	0.089365	0.385720	0.084152
	H110	H	0.105463	0.618385	0.900794
	H111	H	0.908815	0.382386	0.901292
	H112	H	0.094448	0.906426	0.610105
	H113	H	0.095846	0.099830	0.377653
	H114	H	0.908087	0.092152	0.610162
	H115	H	0.916151	0.905575	0.378826
	H116	H	0.622189	0.100635	0.901442
	H117	H	0.389250	0.084189	0.089178
	H118	H	0.619876	0.907902	0.090073
	H119	H	0.382731	0.893408	0.901454
	C120	C	0.381911	0.007599	0.616837
	C121	C	0.625207	0.991031	0.616134
	C122	C	0.626044	0.007241	0.372948
	C123	C	0.382696	0.990933	0.374296
	C124	C	0.624944	0.377377	0.003495
	C125	C	0.625190	0.620613	0.986499
	C126	C	0.381254	0.620148	0.002667
	C127	C	0.381047	0.377185	0.986389
	C128	C	0.012513	0.622499	0.371264
	C129	C	0.995539	0.621505	0.615725
	C130	C	0.012076	0.378601	0.615858
	C131	C	0.996018	0.378951	0.372345
	C132	C	0.881344	0.508039	0.115072
	C133	C	0.123745	0.491607	0.114549
	C134	C	0.125411	0.507379	0.872248
	C135	C	0.881806	0.491445	0.872428
	C136	C	0.125101	0.878963	0.501945
	C137	C	0.126671	0.122900	0.486611
	C138	C	0.882937	0.121229	0.502157
	C139	C	0.881509	0.877507	0.485085
	C140	C	0.511595	0.120509	0.873036
	C141	C	0.495393	0.119948	0.116634
	C142	C	0.511894	0.876166	0.117397
	C143	C	0.495444	0.877295	0.873817
	C144	C	0.383415	0.884059	0.672332
	C145	C	0.623118	0.114117	0.671424
	C146	C	0.623144	0.883759	0.318741
	C147	C	0.386344	0.114058	0.318334
	C148	C	0.680320	0.380251	0.880127
	C149	C	0.679751	0.617428	0.109550
	C150	C	0.326929	0.618897	0.879460
	C151	C	0.324755	0.378831	0.109121
	C152	C	0.888730	0.675956	0.375586
	C153	C	0.119070	0.676470	0.611675
	C154	C	0.889137	0.322985	0.613107
	C155	C	0.119628	0.325549	0.375302
	C156	C	0.889191	0.379482	0.671388
	C157	C	0.118521	0.620157	0.670901
	C158	C	0.889046	0.618820	0.317711
	C159	C	0.118770	0.382086	0.316481
	C160	C	0.384865	0.676245	0.879828
	C161	C	0.621427	0.674341	0.110159
	C162	C	0.621961	0.323636	0.879922
	C163	C	0.382998	0.321320	0.109447
	C164	C	0.681176	0.884267	0.375554
	C165	C	0.680878	0.114379	0.613783
	C166	C	0.325506	0.884488	0.615022
	C167	C	0.329058	0.114977	0.375961
	C168	C	0.883564	0.384897	0.171464
	C169	C	0.121128	0.615456	0.168021
	C170	C	0.122862	0.384215	0.816728
	C171	C	0.884665	0.615149	0.817018
	C172	C	0.180499	0.882750	0.379049
	C173	C	0.180671	0.119357	0.609492
	C174	C	0.827555	0.119802	0.379440
	C175	C	0.826265	0.878763	0.608509
	C176	C	0.388565	0.175198	0.875903
	C177	C	0.618594	0.175410	0.113272
	C178	C	0.388821	0.820720	0.115637
	C179	C	0.619027	0.823505	0.877472
	C180	C	0.389179	0.878297	0.173314
	C181	C	0.618763	0.117402	0.170564
	C182	C	0.388582	0.117797	0.818098
	C183	C	0.618460	0.879780	0.818256
	C184	C	0.886216	0.176661	0.379003
	C185	C	0.123080	0.177012	0.609692
	C186	C	0.122376	0.825416	0.378520
	C187	C	0.884117	0.821533	0.608365
	C188	C	0.180477	0.383875	0.874174
	C189	C	0.179593	0.614948	0.111537
	C190	C	0.826550	0.384049	0.113431
	C191	C	0.826272	0.614952	0.874301
	C192	C	0.404426	0.093933	0.594836
	C193	C	0.603025	0.904799	0.594222
	C194	C	0.603843	0.093452	0.394791
	C195	C	0.403706	0.904462	0.396940
	C196	C	0.603060	0.398950	0.089350
	C197	C	0.603558	0.599186	0.900537
	C198	C	0.402801	0.597223	0.088519
	C199	C	0.403706	0.399633	0.900642
	C200	C	0.098649	0.601380	0.392409
	C201	C	0.909771	0.598759	0.593822
	C202	C	0.097985	0.401836	0.593734
	C203	C	0.909785	0.400556	0.394832
	C204	C	0.902624	0.594439	0.092974
	C205	C	0.101487	0.405339	0.093192
	C206	C	0.103447	0.593333	0.894401
	C207	C	0.904069	0.405648	0.895121
	C208	C	0.102776	0.900411	0.588087
	C209	C	0.105643	0.101654	0.400272
	C210	C	0.905000	0.098446	0.587720
	C211	C	0.903694	0.900365	0.399572
	C212	C	0.597409	0.098616	0.894844
	C213	C	0.409584	0.097391	0.094914
	C214	C	0.597668	0.898417	0.094500
	C215	C	0.409430	0.899043	0.895755
	Zn216	Zn	0.503490	-0.001117	0.744634
	Zn217	Zn	0.503958	-0.001882	0.245565
	Zn218	Zn	0.753262	0.499106	-0.005639
	Zn219	Zn	0.252506	0.498881	-0.005974
	Zn220	Zn	0.003959	0.749918	0.493532
	Zn221	Zn	0.004607	0.250892	0.494320
	Zn222	Zn	0.003819	0.499592	0.743762
	Zn223	Zn	0.003211	0.500633	0.243354
	Zn224	Zn	0.503248	0.748459	-0.004627
	Zn225	Zn	0.503553	0.248885	-0.004999
	Zn226	Zn	0.753934	-0.000626	0.494487
	Zn227	Zn	0.253931	0.000397	0.494719
	N228	N	0.417763	0.961642	0.673597
	N229	N	0.589370	0.036271	0.672908
	N230	N	0.589492	0.961480	0.316922
	N231	N	0.418823	0.035964	0.317081
	N232	N	0.682252	0.413027	0.957864
	N233	N	0.682048	0.584740	0.031761
	N234	N	0.324608	0.584711	0.956836
	N235	N	0.323475	0.412860	0.031755
	N236	N	0.966590	0.678328	0.408320
	N237	N	0.041679	0.677400	0.578167
	N238	N	0.966585	0.322619	0.579233
	N239	N	0.042203	0.323364	0.409011
	N240	N	0.966657	0.413540	0.673070
	N241	N	0.040738	0.586605	0.673370
	N242	N	0.966817	0.586585	0.314751
	N243	N	0.040684	0.414571	0.314594
	N244	N	0.417634	0.677263	0.957471
	N245	N	0.588265	0.676379	0.032589
	N246	N	0.588203	0.321808	0.957370
	N247	N	0.417203	0.320223	0.032009
	N248	N	0.682757	0.962034	0.408664
	N249	N	0.682255	0.036823	0.579863
	N250	N	0.324541	0.962308	0.581176
	N251	N	0.326882	0.037233	0.410251
	N252	N	0.917048	0.462812	0.172535
	N253	N	0.086758	0.537854	0.169675
	N254	N	0.089182	0.461776	0.815540
	N255	N	0.918344	0.537423	0.815667
	N256	N	0.182164	0.915208	0.456974
	N257	N	0.183280	0.086828	0.531833
	N258	N	0.825352	0.086044	0.457073
	N259	N	0.824305	0.912725	0.531043
	N260	N	0.465999	0.177046	0.909306
	N261	N	0.540939	0.177160	0.080464
	N262	N	0.466114	0.819522	0.081436
	N263	N	0.541588	0.821876	0.911406
	N264	N	0.466629	0.912181	0.174429
	N265	N	0.541351	0.083310	0.172556
	N266	N	0.466125	0.084486	0.816138
	N267	N	0.540722	0.912534	0.815891
	N268	N	0.919961	0.177764	0.456166
	N269	N	0.090351	0.179332	0.531996
	N270	N	0.088641	0.823009	0.456080
	N271	N	0.917740	0.820614	0.530822
	N272	N	0.182070	0.461517	0.908113
	N273	N	0.181273	0.536837	0.079069
	N274	N	0.825252	0.461566	0.079003
	N275	N	0.824512	0.537222	0.908102
	O276	O	0.962227	0.983635	-0.016712
	H277	H	0.958099	0.988596	-0.017183
	H278	H	0.959915	0.979906	-0.015473
	O279	O	-0.013204	-0.055169	1.020309
	H280	H	-0.003068	-0.049986	1.015025
	H281	H	-0.003958	-0.065395	1.025703
	O282	O	-0.028989	0.072587	0.022962
	H283	H	-0.035827	0.070838	0.018641
	H284	H	-0.029900	0.073428	0.024803
	O285	O	0.490526	0.498051	0.544017
	H286	H	0.487855	0.493092	0.546708
	H287	H	0.480738	0.492566	0.541324
	O288	O	-0.042042	0.054114	-0.061236
	H289	H	-0.043356	0.052837	-0.060187
	H290	H	-0.036442	0.051498	-0.056505
	O291	O	-0.027459	0.990145	-0.035578
	H292	H	-0.029808	0.995339	-0.046980
	H293	H	-0.034159	1.000164	-0.030161
	O294	O	0.041033	0.963595	-0.067763
	H295	H	0.031660	0.956770	-0.069686
	H296	H	0.034077	0.965600	-0.066869
	O297	O	0.526887	0.470701	0.551829
	H298	H	0.526132	0.465479	0.546544
	H299	H	0.528419	0.464016	0.560595
	O300	O	0.480318	0.534031	0.481080
	H301	H	0.475851	0.533272	0.479840
	H302	H	0.489139	0.517756	0.476942
	O303	O	1.036848	-0.021319	0.999478
	H304	H	1.034921	-0.029390	1.008458
	H305	H	1.041646	-0.018883	1.001165
	O306	O	0.061966	0.984922	0.909951
	H307	H	0.062817	0.986813	0.903344
	H308	H	0.061031	0.977953	0.911901
	O309	O	-0.046355	1.017597	1.002967
	H310	H	-0.045395	1.022569	0.994810
	H311	H	-0.046216	1.024575	1.003411
	O312	O	0.030541	-0.032738	1.006112
	H313	H	0.036594	-0.031363	1.002330
	H314	H	0.036903	-0.035955	1.010724
	O315	O	0.467232	0.456716	0.479501
	H316	H	0.456504	0.463410	0.478899
	H317	H	0.467260	0.460964	0.482225
	O318	O	0.075531	-0.059937	0.930069
	H319	H	0.083657	-0.058264	0.923357
	H320	H	0.076918	-0.061901	0.928941
	O321	O	0.463691	0.512477	0.559116
	H322	H	0.467480	0.514352	0.565149
	H323	H	0.466886	0.514845	0.558391
	O324	O	1.031565	0.024250	0.931572
	H325	H	1.034981	0.024831	0.936105
	H326	H	1.034215	0.023353	0.931031
	O327	O	1.001635	0.969837	1.017914
	H328	H	0.991571	0.960963	1.021036
	H329	H	0.996674	0.976115	1.017809
	O330	O	0.443766	0.450194	0.544776
	H331	H	0.426892	0.433045	0.555026
	H332	H	0.453688	0.455736	0.548213
	O333	O	0.551319	0.531138	0.491897
	H334	H	0.547851	0.528765	0.489856
	H335	H	0.553010	0.527729	0.496753
	O336	O	0.494788	0.445081	0.501792
	H337	H	0.502161	0.448216	0.501787
	H338	H	0.495795	0.446864	0.499941
	O339	O	0.516628	0.480043	0.548293
	H340	H	0.519446	0.479875	0.556630
	H341	H	0.516185	0.486528	0.548569
	O342	O	0.442358	0.473052	0.578609
	H343	H	0.446501	0.487407	0.582658
	H344	H	0.443797	0.473368	0.575094
	O345	O	0.515550	0.503659	0.500623
	H346	H	0.526682	0.511812	0.497609
	H347	H	0.513847	0.514344	0.499389
