data_Molecule from HDF5

_cell_length_a		16.294507
_cell_length_b		16.292622
_cell_length_c		16.336993
_cell_angle_alpha	90.738123
_cell_angle_beta	89.910259
_cell_angle_gamma	89.681953
_symmetry_space_group_name_H-M	'P 1'
_symmetry_Int_Tables_number		1

loop_
	_symmetry_equiv_pos_as_xyz
	x,y,z

loop_
	_atom_site_label
	_atom_site_type_symbol
	_atom_site_fract_x
	_atom_site_fract_y
	_atom_site_fract_z
	H0	H	0.405602	0.832433	0.715337
	H1	H	0.606491	0.157144	0.719784
	H2	H	0.608771	0.834691	0.278745
	H3	H	0.402906	0.157494	0.285815
	H4	H	0.722431	0.392121	0.837590
	H5	H	0.722865	0.598698	0.161669
	H6	H	0.287343	0.598190	0.839318
	H7	H	0.287955	0.396177	0.161114
	H8	H	0.843551	0.710180	0.398214
	H9	H	0.167688	0.711928	0.600876
	H10	H	0.841222	0.282773	0.597074
	H11	H	0.166931	0.273007	0.396003
	H12	H	0.844308	0.393348	0.716884
	H13	H	0.168232	0.596889	0.716558
	H14	H	0.842938	0.592867	0.285200
	H15	H	0.167557	0.387656	0.279678
	H16	H	0.404866	0.711618	0.838363
	H17	H	0.607118	0.715970	0.161701
	H18	H	0.610443	0.273298	0.839866
	H19	H	0.405793	0.283078	0.162750
	H20	H	0.720997	0.832136	0.398182
	H21	H	0.720066	0.158110	0.602801
	H22	H	0.289404	0.832367	0.600443
	H23	H	0.286476	0.156133	0.401701
	H24	H	0.905845	0.330859	0.212137
	H25	H	0.106308	0.655279	0.221004
	H26	H	0.110523	0.331847	0.780136
	H27	H	0.904980	0.657470	0.784359
	H28	H	0.225650	0.888816	0.337818
	H29	H	0.219501	0.095937	0.662853
	H30	H	0.787075	0.092416	0.337624
	H31	H	0.789549	0.897145	0.662113
	H32	H	0.343366	0.211673	0.903492
	H33	H	0.668971	0.211514	0.102191
	H34	H	0.344147	0.780903	0.100758
	H35	H	0.667754	0.777750	0.898183
	H36	H	0.343359	0.897366	0.214644
	H37	H	0.667272	0.097940	0.219021
	H38	H	0.343564	0.098220	0.785002
	H39	H	0.667547	0.893243	0.782425
	H40	H	0.904016	0.207073	0.335751
	H41	H	0.106079	0.214567	0.660295
	H42	H	0.107631	0.774519	0.336588
	H43	H	0.906399	0.780375	0.661432
	H44	H	0.225692	0.333339	0.896912
	H45	H	0.218760	0.658202	0.102473
	H46	H	0.789917	0.332472	0.098127
	H47	H	0.789752	0.657408	0.900972
	H48	H	0.409399	0.110459	0.590111
	H49	H	0.601972	0.877920	0.590461
	H50	H	0.592376	0.108551	0.414701
	H51	H	0.412057	0.877883	0.405315
	H52	H	0.596827	0.398869	0.116940
	H53	H	0.599163	0.576506	0.887985
	H54	H	0.412626	0.585485	0.114122
	H55	H	0.420009	0.412449	0.888836
	H56	H	0.119265	0.579896	0.411162
	H57	H	0.892616	0.581800	0.592022
	H58	H	0.118209	0.407089	0.585306
	H59	H	0.887777	0.397412	0.403586
	H60	H	0.122090	0.403895	0.592672
	H61	H	0.888170	0.588717	0.596450
	H62	H	0.121713	0.581682	0.407091
	H63	H	0.890281	0.401508	0.408514
	H64	H	0.419665	0.591668	0.114941
	H65	H	0.589623	0.589994	0.886576
	H66	H	0.605526	0.408186	0.116804
	H67	H	0.422072	0.395694	0.885347
	H68	H	0.600813	0.112167	0.412489
	H69	H	0.594138	0.878774	0.595172
	H70	H	0.411420	0.111427	0.597287
	H71	H	0.419842	0.879462	0.403711
	H72	H	0.920570	0.608834	0.095791
	H73	H	0.091511	0.381026	0.086698
	H74	H	0.092183	0.609018	0.908446
	H75	H	0.909565	0.377056	0.903857
	H76	H	0.104204	0.906695	0.615191
	H77	H	0.095645	0.082406	0.385320
	H78	H	0.900316	0.084211	0.616488
	H79	H	0.914745	0.893990	0.382657
	H80	H	0.624178	0.087398	0.902856
	H81	H	0.392716	0.087637	0.084961
	H82	H	0.625377	0.901020	0.098184
	H83	H	0.388481	0.900067	0.907883
	H84	H	0.620231	0.901568	0.079693
	H85	H	0.388951	0.085020	0.101149
	H86	H	0.620171	0.089344	0.915584
	H87	H	0.391485	0.906503	0.910521
	H88	H	0.922455	0.082462	0.610150
	H89	H	0.096609	0.081914	0.384971
	H90	H	0.090671	0.907396	0.609989
	H91	H	0.906696	0.903239	0.382588
	H92	H	0.098446	0.609166	0.911436
	H93	H	0.103430	0.379079	0.083042
	H94	H	0.914206	0.608464	0.087195
	H95	H	0.921837	0.379371	0.901968
	H96	H	0.416174	0.108668	0.592044
	H97	H	0.595234	0.881560	0.586610
	H98	H	0.593563	0.111138	0.405856
	H99	H	0.417101	0.881801	0.411666
	H100	H	0.593607	0.410372	0.113078
	H101	H	0.604606	0.590140	0.881100
	H102	H	0.410304	0.593650	0.117580
	H103	H	0.407875	0.403817	0.882441
	H104	H	0.120606	0.584273	0.410823
	H105	H	0.890661	0.589657	0.588025
	H106	H	0.120745	0.398813	0.585492
	H107	H	0.889721	0.403799	0.402086
	H108	H	0.910542	0.612278	0.096557
	H109	H	0.099808	0.376849	0.094866
	H110	H	0.097472	0.611953	0.905212
	H111	H	0.916076	0.381241	0.913113
	H112	H	0.095506	0.895378	0.616113
	H113	H	0.095764	0.081039	0.385156
	H114	H	0.913847	0.101520	0.617616
	H115	H	0.918474	0.905193	0.386334
	H116	H	0.618878	0.077307	0.909443
	H117	H	0.386615	0.099825	0.094731
	H118	H	0.618268	0.917266	0.091858
	H119	H	0.388226	0.906308	0.903810
	C120	C	0.383283	0.003228	0.622363
	C121	C	0.626648	0.986948	0.621890
	C122	C	0.626625	0.003782	0.378661
	C123	C	0.384596	0.986636	0.378756
	C124	C	0.628586	0.373638	0.008858
	C125	C	0.628129	0.617579	0.991584
	C126	C	0.383930	0.619142	0.009036
	C127	C	0.386189	0.375947	0.992411
	C128	C	0.013918	0.612744	0.379206
	C129	C	0.997535	0.616826	0.621944
	C130	C	0.013319	0.373651	0.618701
	C131	C	0.996571	0.369940	0.374956
	C132	C	0.884973	0.502680	0.120969
	C133	C	0.127261	0.486119	0.120741
	C134	C	0.128216	0.503278	0.877007
	C135	C	0.885376	0.486499	0.877433
	C136	C	0.127869	0.871394	0.507291
	C137	C	0.125538	0.114150	0.491699
	C138	C	0.882667	0.116469	0.507429
	C139	C	0.883851	0.872885	0.491101
	C140	C	0.514358	0.116464	0.879704
	C141	C	0.496967	0.119712	0.123689
	C142	C	0.514173	0.876953	0.119699
	C143	C	0.496706	0.873429	0.877548
	C144	C	0.385610	0.881157	0.677616
	C145	C	0.625740	0.108563	0.680397
	C146	C	0.627276	0.882574	0.318644
	C147	C	0.383310	0.108883	0.323742
	C148	C	0.684846	0.372712	0.886457
	C149	C	0.684758	0.618386	0.113182
	C150	C	0.326145	0.617749	0.887719
	C151	C	0.327522	0.377042	0.113331
	C152	C	0.891952	0.670921	0.379281
	C153	C	0.119084	0.673729	0.620855
	C154	C	0.890733	0.319508	0.617348
	C155	C	0.118387	0.311437	0.375679
	C156	C	0.892242	0.374504	0.677111
	C157	C	0.119328	0.616603	0.678567
	C158	C	0.891532	0.612563	0.322929
	C159	C	0.118751	0.368825	0.318177
	C160	C	0.384936	0.674171	0.887011
	C161	C	0.626935	0.676609	0.113092
	C162	C	0.628702	0.313981	0.887609
	C163	C	0.386492	0.320887	0.114232
	C164	C	0.683145	0.881292	0.378231
	C165	C	0.682503	0.109170	0.622170
	C166	C	0.327707	0.881014	0.620345
	C167	C	0.325655	0.108099	0.381409
	C168	C	0.885938	0.379967	0.174935
	C169	C	0.125822	0.607402	0.180973
	C170	C	0.129580	0.381070	0.818879
	C171	C	0.885730	0.608542	0.822360
	C172	C	0.186100	0.870327	0.385839
	C173	C	0.181362	0.115085	0.613780
	C174	C	0.825933	0.113148	0.385596
	C175	C	0.827669	0.875942	0.613237
	C176	C	0.392273	0.174107	0.881951
	C177	C	0.619638	0.174582	0.122430
	C178	C	0.392201	0.820049	0.119526
	C179	C	0.619303	0.816395	0.878583
	C180	C	0.392002	0.877505	0.176648
	C181	C	0.618802	0.118129	0.180822
	C182	C	0.392186	0.117142	0.823469
	C183	C	0.619169	0.873819	0.821036
	C184	C	0.883957	0.169955	0.384782
	C185	C	0.124936	0.174325	0.612614
	C186	C	0.127396	0.813375	0.385092
	C187	C	0.885749	0.818026	0.613110
	C188	C	0.186952	0.381863	0.876838
	C189	C	0.181556	0.608946	0.121803
	C190	C	0.828158	0.380850	0.118140
	C191	C	0.828289	0.608745	0.880320
	C192	C	0.405903	0.088157	0.599840
	C193	C	0.603783	0.901478	0.597582
	C194	C	0.602645	0.088756	0.403811
	C195	C	0.409234	0.901816	0.400679
	C196	C	0.605485	0.398634	0.093577
	C197	C	0.604647	0.592781	0.907058
	C198	C	0.407416	0.596812	0.093654
	C199	C	0.409833	0.397866	0.907597
	C200	C	0.098394	0.588822	0.402793
	C201	C	0.912523	0.593522	0.598799
	C202	C	0.098332	0.396706	0.594904
	C203	C	0.911456	0.393975	0.397928
	C204	C	0.908117	0.587621	0.099389
	C205	C	0.104928	0.401111	0.095471
	C206	C	0.103343	0.588131	0.901239
	C207	C	0.908878	0.401322	0.899786
	C208	C	0.103821	0.895969	0.591903
	C209	C	0.102704	0.088968	0.407035
	C210	C	0.905676	0.095479	0.592656
	C211	C	0.906567	0.894439	0.405858
	C212	C	0.599213	0.092003	0.902556
	C213	C	0.411467	0.097620	0.100565
	C214	C	0.599179	0.899847	0.096643
	C215	C	0.411752	0.897167	0.900567
	Zn216	Zn	0.505281	-0.004699	0.750263
	Zn217	Zn	0.505334	-0.003598	0.249840
	Zn218	Zn	0.756680	0.494763	-0.000495
	Zn219	Zn	0.255861	0.496399	0.000051
	Zn220	Zn	0.005349	0.743155	0.498629
	Zn221	Zn	0.004122	0.244233	0.497968
	Zn222	Zn	0.006859	0.494052	0.748428
	Zn223	Zn	0.005852	0.493046	0.248902
	Zn224	Zn	0.505713	0.746993	0.000115
	Zn225	Zn	0.506595	0.246274	0.001292
	Zn226	Zn	0.754543	-0.004827	0.500039
	Zn227	Zn	0.255766	-0.006460	0.500088
	N228	N	0.419089	0.958401	0.679225
	N229	N	0.591960	0.031351	0.680372
	N230	N	0.592808	0.959868	0.318896
	N231	N	0.419474	0.032555	0.322166
	N232	N	0.684886	0.409256	0.962873
	N233	N	0.685415	0.582180	0.036820
	N234	N	0.325376	0.584224	0.964487
	N235	N	0.327474	0.410828	0.036696
	N236	N	0.969003	0.671249	0.413508
	N237	N	0.042147	0.674059	0.586250
	N238	N	0.967244	0.318751	0.581676
	N239	N	0.041317	0.311782	0.409970
	N240	N	0.969643	0.407651	0.677956
	N241	N	0.042772	0.581869	0.679279
	N242	N	0.968183	0.576769	0.322873
	N243	N	0.042080	0.404574	0.317504
	N244	N	0.420131	0.675183	0.963448
	N245	N	0.592449	0.676243	0.036309
	N246	N	0.594642	0.314201	0.964697
	N247	N	0.422157	0.319817	0.037878
	N248	N	0.682833	0.957867	0.414726
	N249	N	0.683026	0.032380	0.586288
	N250	N	0.326082	0.957877	0.586744
	N251	N	0.326464	0.031007	0.414854
	N252	N	0.920564	0.456652	0.176877
	N253	N	0.093040	0.529795	0.180617
	N254	N	0.093798	0.457715	0.818884
	N255	N	0.920665	0.531602	0.820641
	N256	N	0.186664	0.905497	0.462767
	N257	N	0.181925	0.078416	0.537492
	N258	N	0.824793	0.080822	0.462920
	N259	N	0.826580	0.909253	0.536382
	N260	N	0.469154	0.173612	0.916335
	N261	N	0.542815	0.175805	0.087795
	N262	N	0.469082	0.819723	0.084820
	N263	N	0.542151	0.815853	0.912879
	N264	N	0.468664	0.912399	0.176855
	N265	N	0.541335	0.084846	0.181794
	N266	N	0.469192	0.082072	0.821931
	N267	N	0.541984	0.908334	0.820192
	N268	N	0.918319	0.172420	0.461648
	N269	N	0.090795	0.173804	0.535700
	N270	N	0.091967	0.813844	0.461610
	N271	N	0.919935	0.815877	0.536122
	N272	N	0.186238	0.458947	0.912217
	N273	N	0.182621	0.532528	0.085120
	N274	N	0.827227	0.458162	0.085274
	N275	N	0.827736	0.531658	0.913820
	O276	O	0.137636	0.025308	0.007731
	H277	H	0.135693	0.017753	0.002220
	H278	H	0.143737	0.018269	0.006588
	O279	O	0.554825	0.373846	0.636346
	H280	H	0.553017	0.378431	0.628452
	H281	H	0.576987	0.375713	0.629851
	O282	O	1.008176	-0.041689	0.004609
	H283	H	0.998041	-0.032715	0.010536
	H284	H	1.001099	-0.044138	0.014083
	O285	O	-0.329883	1.571817	-0.340405
	H286	H	-0.335958	1.593176	-0.333081
	H287	H	-0.306237	1.579526	-0.335456
	O288	O	0.650663	0.651281	0.541878
	H289	H	0.638217	0.643117	0.525677
	H290	H	0.661374	0.660687	0.533900
	O291	O	0.525707	0.642499	0.473860
	H292	H	0.512398	0.641413	0.485861
	H293	H	0.520648	0.647219	0.467690
	O294	O	0.907904	0.980047	1.054168
	H295	H	0.905254	0.987492	1.038127
	H296	H	0.904660	0.984374	1.043770
	O297	O	-0.034956	0.079038	-0.047883
	H298	H	-0.031594	0.076052	-0.043330
	H299	H	-0.029060	0.068691	-0.049041
	O300	O	0.538747	0.628129	0.520333
	H301	H	0.519464	0.623477	0.507115
	H302	H	0.524308	0.624795	0.528238
	O303	O	0.114688	0.919484	0.867122
	H304	H	0.125824	0.905757	0.850666
	H305	H	0.112171	0.904664	0.873480
	O306	O	0.421315	0.482744	0.441846
	H307	H	0.415034	0.485653	0.454610
	H308	H	0.431496	0.484906	0.443815
	O309	O	1.083083	-0.000305	0.105742
	H310	H	1.087549	0.018685	0.112508
	H311	H	1.104019	-0.002471	0.101614
	O312	O	0.074774	0.080379	1.036575
	H313	H	0.069351	0.079122	1.033616
	H314	H	0.080907	0.076787	1.033843
	O315	O	0.489888	0.667100	0.595099
	H316	H	0.499266	0.670094	0.616188
	H317	H	0.495111	0.676889	0.592655
	O318	O	0.426070	0.393391	0.605281
	H319	H	0.431872	0.379121	0.601790
	H320	H	0.416382	0.398592	0.598949
	O321	O	0.465310	0.527184	0.352814
	H322	H	0.476295	0.516730	0.354432
	H323	H	0.449598	0.502523	0.341607
	O324	O	0.649038	0.320913	0.465386
	H325	H	0.646731	0.315807	0.465609
	H326	H	0.644286	0.319799	0.464560
	O327	O	0.151107	0.899716	0.927398
	H328	H	0.138048	0.895828	0.930005
	H329	H	0.149397	0.889214	0.926508
	O330	O	0.653307	0.391146	0.381637
	H331	H	0.657704	0.370916	0.390837
	H332	H	0.661005	0.393590	0.378577
	O333	O	-0.045870	0.980552	0.945038
	H334	H	-0.041531	0.975864	0.937975
	H335	H	-0.035801	0.971288	0.953970
	O336	O	1.030449	0.927357	0.942670
	H337	H	1.027524	0.918151	0.952664
	H338	H	1.034984	0.921535	0.943024
	O339	O	0.358070	0.443261	0.664618
	H340	H	0.355961	0.443847	0.669034
	H341	H	0.372129	0.428062	0.660924
	O342	O	0.911096	-0.049434	-0.075182
	H343	H	0.905313	-0.048481	-0.081173
	H344	H	0.904224	-0.043440	-0.071565
	O345	O	0.409107	0.630066	0.470075
	H346	H	0.408644	0.634725	0.473125
	H347	H	0.404431	0.628218	0.473797
	O348	O	0.941557	0.950770	0.951299
	H349	H	0.937282	0.947202	0.957388
	H350	H	0.950299	0.953512	0.959351
	O351	O	0.980263	1.038735	0.111733
	H352	H	0.987830	1.036474	0.112957
	H353	H	0.975643	1.049059	0.107168
	O354	O	0.465498	0.587057	0.374767
	H355	H	0.458711	0.606393	0.372556
	H356	H	0.462681	0.564880	0.359721
	O357	O	0.450485	0.378697	0.359189
	H358	H	0.446202	0.365517	0.352620
	H359	H	0.446968	0.391232	0.351375
	O360	O	0.108009	-0.071428	0.037193
	H361	H	0.107683	-0.079061	0.035829
	H362	H	0.106318	-0.076202	0.030342
	O363	O	0.522732	0.417382	0.528946
	H364	H	0.512734	0.414425	0.530361
	H365	H	0.532350	0.407993	0.508999
	O366	O	0.514391	0.383246	0.514851
	H367	H	0.503386	0.381364	0.511567
	H368	H	0.525591	0.401491	0.521649
	O369	O	0.467768	0.316889	0.332349
	H370	H	0.469255	0.307235	0.338404
	H371	H	0.478975	0.306867	0.324245
	O372	O	0.392113	0.560772	0.598685
	H373	H	0.397353	0.558456	0.599911
	H374	H	0.379215	0.553281	0.603782
	O375	O	0.523890	0.428728	0.593638
	H376	H	0.517958	0.430936	0.600000
	H377	H	0.532136	0.441538	0.595981
	O378	O	0.376513	0.626240	0.368472
	H379	H	0.392362	0.616899	0.368497
	H380	H	0.362721	0.626799	0.368932
	O381	O	-0.094732	1.085039	0.984786
	H382	H	-0.083158	1.073991	0.975913
	H383	H	-0.102891	1.102942	0.983233
	O384	O	0.016022	1.041963	0.108385
	H385	H	0.023151	1.037641	0.099538
	H386	H	0.018449	1.049793	0.104809
	O387	O	0.882216	-0.020543	0.973966
	H388	H	0.880116	-0.024040	0.977396
	H389	H	0.887773	-0.015050	0.981281
	O390	O	-0.047928	0.978221	-0.094771
	H391	H	-0.051075	0.985612	-0.092697
	H392	H	-0.048440	0.983837	-0.108260
	O393	O	0.975848	0.928603	-0.003378
	H394	H	0.973475	0.909857	-0.003169
	H395	H	0.982904	0.936426	-0.000615
	O396	O	0.520238	0.437806	0.412027
	H397	H	0.527673	0.431844	0.426282
	H398	H	0.525659	0.421828	0.427171
	O399	O	0.031782	1.056810	0.970823
	H400	H	0.024160	1.053114	0.979214
	H401	H	0.035693	1.053988	0.960955
	O402	O	0.851134	0.810614	0.884656
	H403	H	0.846210	0.815114	0.877048
	H404	H	0.843550	0.817143	0.895708
	O405	O	0.361029	0.376820	0.562129
	H406	H	0.369731	0.364850	0.569746
	H407	H	0.369142	0.390286	0.557377
