data_Molecule from HDF5

_cell_length_a		16.247787
_cell_length_b		16.299834
_cell_length_c		16.269284
_cell_angle_alpha	89.830631
_cell_angle_beta	90.341646
_cell_angle_gamma	89.844259
_symmetry_space_group_name_H-M	'P 1'
_symmetry_Int_Tables_number		1

loop_
	_symmetry_equiv_pos_as_xyz
	x,y,z

loop_
	_atom_site_label
	_atom_site_type_symbol
	_atom_site_fract_x
	_atom_site_fract_y
	_atom_site_fract_z
	H0	H	0.407719	0.846525	0.717591
	H1	H	0.605226	0.172992	0.719240
	H2	H	0.604404	0.847203	0.288561
	H3	H	0.405618	0.173743	0.287009
	H4	H	0.718385	0.413023	0.839547
	H5	H	0.720540	0.609085	0.167184
	H6	H	0.289287	0.607588	0.839761
	H7	H	0.295153	0.413745	0.168931
	H8	H	0.842059	0.725807	0.404835
	H9	H	0.170067	0.723453	0.604506
	H10	H	0.840648	0.294555	0.602571
	H11	H	0.168642	0.295139	0.405071
	H12	H	0.840995	0.410542	0.718323
	H13	H	0.168951	0.607956	0.720935
	H14	H	0.841934	0.610687	0.288366
	H15	H	0.169047	0.412027	0.291338
	H16	H	0.404913	0.725267	0.838152
	H17	H	0.605560	0.725776	0.166040
	H18	H	0.603369	0.295959	0.839374
	H19	H	0.407791	0.295275	0.166615
	H20	H	0.720346	0.847133	0.404343
	H21	H	0.719887	0.174556	0.601229
	H22	H	0.291146	0.846899	0.601409
	H23	H	0.289849	0.173640	0.402708
	H24	H	0.907838	0.347258	0.218493
	H25	H	0.103867	0.673866	0.218443
	H26	H	0.104308	0.345685	0.790837
	H27	H	0.903687	0.672495	0.786532
	H28	H	0.218518	0.912405	0.338450
	H29	H	0.222213	0.109196	0.666052
	H30	H	0.789720	0.110600	0.339389
	H31	H	0.791828	0.912294	0.666851
	H32	H	0.340541	0.224702	0.902728
	H33	H	0.669375	0.222400	0.100577
	H34	H	0.341421	0.796085	0.101048
	H35	H	0.668840	0.795571	0.903979
	H36	H	0.341126	0.912112	0.214648
	H37	H	0.669234	0.107736	0.216929
	H38	H	0.341464	0.109827	0.786514
	H39	H	0.669735	0.911841	0.790262
	H40	H	0.904064	0.227207	0.339782
	H41	H	0.105942	0.225172	0.666695
	H42	H	0.105383	0.794687	0.339734
	H43	H	0.907398	0.795803	0.667434
	H44	H	0.220326	0.345713	0.907321
	H45	H	0.220627	0.673984	0.103109
	H46	H	0.790130	0.347368	0.103173
	H47	H	0.788626	0.673742	0.903104
	H48	H	0.415836	0.124311	0.593196
	H49	H	0.598630	0.894542	0.597896
	H50	H	0.595460	0.124684	0.413649
	H51	H	0.414065	0.893243	0.406010
	H52	H	0.597390	0.422043	0.117961
	H53	H	0.601653	0.609905	0.883730
	H54	H	0.418469	0.609137	0.119140
	H55	H	0.406582	0.423453	0.887207
	H56	H	0.119994	0.605112	0.421442
	H57	H	0.890177	0.603453	0.592306
	H58	H	0.122366	0.416322	0.602444
	H59	H	0.889594	0.419746	0.413277
	H60	H	0.121231	0.413132	0.594059
	H61	H	0.889472	0.601617	0.597158
	H62	H	0.121574	0.593827	0.407450
	H63	H	0.888250	0.420898	0.408335
	H64	H	0.406692	0.606468	0.122310
	H65	H	0.599621	0.595705	0.888284
	H66	H	0.593242	0.411694	0.119721
	H67	H	0.418844	0.418485	0.889033
	H68	H	0.604224	0.129099	0.408837
	H69	H	0.598184	0.894892	0.595113
	H70	H	0.411157	0.125933	0.592627
	H71	H	0.413816	0.894607	0.412106
	H72	H	0.921546	0.625631	0.099706
	H73	H	0.102629	0.394383	0.092627
	H74	H	0.099765	0.627578	0.904522
	H75	H	0.911004	0.393119	0.909713
	H76	H	0.101921	0.917036	0.620369
	H77	H	0.099782	0.102105	0.386439
	H78	H	0.907862	0.101732	0.620858
	H79	H	0.910454	0.922353	0.387542
	H80	H	0.622174	0.099026	0.906572
	H81	H	0.389282	0.106534	0.086606
	H82	H	0.623997	0.914847	0.102309
	H83	H	0.390929	0.926365	0.908169
	H84	H	0.621678	0.913721	0.089925
	H85	H	0.389706	0.095833	0.096340
	H86	H	0.623863	0.109689	0.908145
	H87	H	0.386222	0.914104	0.904008
	H88	H	0.916731	0.098168	0.616947
	H89	H	0.093361	0.103002	0.387622
	H90	H	0.098692	0.919882	0.618147
	H91	H	0.917839	0.917697	0.388344
	H92	H	0.088115	0.623146	0.912849
	H93	H	0.104737	0.391007	0.104689
	H94	H	0.910527	0.624039	0.086200
	H95	H	0.914403	0.395143	0.912088
	H96	H	0.413037	0.127178	0.596208
	H97	H	0.600080	0.893976	0.595820
	H98	H	0.594348	0.127414	0.403993
	H99	H	0.409091	0.893054	0.408568
	H100	H	0.604532	0.413991	0.121832
	H101	H	0.588074	0.605241	0.888610
	H102	H	0.413938	0.598118	0.117259
	H103	H	0.408714	0.410909	0.884203
	H104	H	0.127080	0.611534	0.405791
	H105	H	0.887900	0.607067	0.596041
	H106	H	0.119333	0.422226	0.595230
	H107	H	0.887683	0.416079	0.410319
	H108	H	0.905668	0.630232	0.101860
	H109	H	0.093878	0.395555	0.100894
	H110	H	0.101673	0.625097	0.918582
	H111	H	0.910486	0.394445	0.913692
	H112	H	0.097552	0.915489	0.619281
	H113	H	0.096799	0.107704	0.385183
	H114	H	0.915919	0.108047	0.619805
	H115	H	0.910638	0.914200	0.385037
	H116	H	0.619834	0.103674	0.915906
	H117	H	0.384843	0.108875	0.100379
	H118	H	0.619733	0.923724	0.095507
	H119	H	0.389554	0.915616	0.916838
	C120	C	0.384642	0.018165	0.623413
	C121	C	0.627454	1.002463	0.624600
	C122	C	0.627179	0.019137	0.380645
	C123	C	0.383258	1.001806	0.380093
	C124	C	0.626632	0.388264	0.011440
	C125	C	0.626003	0.632016	0.994948
	C126	C	0.383559	0.632957	0.011425
	C127	C	0.383567	0.388868	0.994856
	C128	C	0.014384	0.632676	0.382272
	C129	C	0.997139	0.631919	0.625367
	C130	C	0.012827	0.388276	0.625506
	C131	C	0.996702	0.389602	0.382841
	C132	C	0.883911	0.518972	0.125032
	C133	C	0.128269	0.502004	0.126973
	C134	C	0.125691	0.517033	0.883895
	C135	C	0.882591	0.501781	0.882008
	C136	C	0.127546	0.888787	0.510942
	C137	C	0.126733	0.132298	0.494534
	C138	C	0.883767	0.132274	0.511545
	C139	C	0.884266	0.889235	0.495090
	C140	C	0.513525	0.132688	0.880909
	C141	C	0.496516	0.131333	0.123592
	C142	C	0.513872	0.888855	0.124062
	C143	C	0.497028	0.889372	0.881232
	C144	C	0.386834	0.895445	0.679675
	C145	C	0.625216	0.124835	0.680405
	C146	C	0.624563	0.895919	0.326474
	C147	C	0.385028	0.124805	0.324747
	C148	C	0.680936	0.392041	0.888394
	C149	C	0.681937	0.629027	0.118202
	C150	C	0.327259	0.629596	0.888263
	C151	C	0.331035	0.392271	0.119218
	C152	C	0.890982	0.688023	0.384240
	C153	C	0.120827	0.686131	0.624656
	C154	C	0.889545	0.332784	0.622805
	C155	C	0.119719	0.333434	0.385209
	C156	C	0.889577	0.390346	0.680352
	C157	C	0.120172	0.628354	0.682480
	C158	C	0.891048	0.630907	0.326282
	C159	C	0.120067	0.391719	0.328753
	C160	C	0.385045	0.687535	0.887513
	C161	C	0.625081	0.687260	0.117677
	C162	C	0.623751	0.333732	0.888403
	C163	C	0.387248	0.333875	0.118373
	C164	C	0.682368	0.895914	0.383929
	C165	C	0.682097	0.125605	0.621941
	C166	C	0.329366	0.895534	0.621668
	C167	C	0.327544	0.124739	0.382223
	C168	C	0.886908	0.396055	0.180509
	C169	C	0.124832	0.625100	0.180993
	C170	C	0.124120	0.394556	0.828648
	C171	C	0.883868	0.624183	0.825410
	C172	C	0.181418	0.891657	0.387706
	C173	C	0.183394	0.129369	0.617329
	C174	C	0.827367	0.131024	0.388379
	C175	C	0.829680	0.891801	0.618187
	C176	C	0.390012	0.187662	0.882289
	C177	C	0.620224	0.185468	0.121227
	C178	C	0.390577	0.833524	0.121549
	C179	C	0.620158	0.833801	0.883994
	C180	C	0.390505	0.891230	0.178233
	C181	C	0.620405	0.127955	0.178681
	C182	C	0.390368	0.130319	0.824491
	C183	C	0.620606	0.891418	0.827160
	C184	C	0.884597	0.188604	0.388554
	C185	C	0.125790	0.187426	0.617654
	C186	C	0.125020	0.833125	0.388411
	C187	C	0.886959	0.833485	0.618138
	C188	C	0.181656	0.394465	0.886809
	C189	C	0.182725	0.625147	0.123680
	C190	C	0.828716	0.395957	0.123155
	C191	C	0.826692	0.624804	0.883317
	C192	C	0.406828	0.103661	0.600819
	C193	C	0.605489	0.916690	0.602614
	C194	C	0.604775	0.104902	0.402389
	C195	C	0.405770	0.915902	0.402253
	C196	C	0.604829	0.409638	0.097734
	C197	C	0.603160	0.610006	0.909013
	C198	C	0.406447	0.611262	0.097179
	C199	C	0.404987	0.411249	0.908969
	C200	C	0.100593	0.610201	0.405148
	C201	C	0.911341	0.610436	0.602146
	C202	C	0.098530	0.410678	0.603813
	C203	C	0.910632	0.412298	0.404479
	C204	C	0.906117	0.604308	0.102534
	C205	C	0.106661	0.415859	0.105621
	C206	C	0.103119	0.603157	0.905572
	C207	C	0.905263	0.416376	0.905069
	C208	C	0.105826	0.911007	0.597172
	C209	C	0.103601	0.110674	0.408632
	C210	C	0.906710	0.109237	0.597076
	C211	C	0.906518	0.911713	0.409326
	C212	C	0.599804	0.110534	0.903488
	C213	C	0.410169	0.110076	0.101267
	C214	C	0.599715	0.911058	0.102428
	C215	C	0.411213	0.912031	0.903116
	Zn216	Zn	0.505684	0.010230	0.753368
	Zn217	Zn	0.505160	0.010206	0.252281
	Zn218	Zn	0.754603	0.510758	0.003378
	Zn219	Zn	0.255689	0.510115	0.004513
	Zn220	Zn	0.006416	0.760602	0.503561
	Zn221	Zn	0.004777	0.260600	0.503687
	Zn222	Zn	0.004379	0.509342	0.753878
	Zn223	Zn	0.005580	0.510961	0.254593
	Zn224	Zn	0.505268	0.761502	0.002620
	Zn225	Zn	0.504197	0.260494	0.002980
	Zn226	Zn	0.755503	0.010952	0.502628
	Zn227	Zn	0.255767	0.010213	0.501658
	N228	N	0.420661	0.972688	0.680791
	N229	N	0.592054	0.047283	0.682266
	N230	N	0.590843	0.973348	0.324410
	N231	N	0.419068	0.047423	0.323391
	N232	N	0.682806	0.425110	0.965924
	N233	N	0.682825	0.595522	0.040695
	N234	N	0.326086	0.596447	0.965959
	N235	N	0.329091	0.426079	0.041548
	N236	N	0.968725	0.689266	0.417905
	N237	N	0.043626	0.688365	0.589927
	N238	N	0.967245	0.331194	0.589659
	N239	N	0.041859	0.331966	0.418072
	N240	N	0.967045	0.424043	0.682154
	N241	N	0.042166	0.595503	0.683275
	N242	N	0.968871	0.597214	0.324880
	N243	N	0.042605	0.425909	0.327084
	N244	N	0.419131	0.689939	0.965171
	N245	N	0.590899	0.689138	0.040194
	N246	N	0.590700	0.331373	0.966144
	N247	N	0.418903	0.331325	0.040155
	N248	N	0.683951	0.973593	0.416899
	N249	N	0.683490	0.048483	0.587990
	N250	N	0.327780	0.972899	0.587639
	N251	N	0.326270	0.047209	0.415780
	N252	N	0.920876	0.473317	0.181576
	N253	N	0.091819	0.547568	0.183188
	N254	N	0.089936	0.471991	0.826818
	N255	N	0.917861	0.546912	0.824415
	N256	N	0.183170	0.925371	0.465114
	N257	N	0.184296	0.095975	0.539676
	N258	N	0.826781	0.096444	0.465685
	N259	N	0.827839	0.925560	0.540679
	N260	N	0.467610	0.189158	0.916559
	N261	N	0.542299	0.187584	0.087617
	N262	N	0.468250	0.831772	0.088554
	N263	N	0.542395	0.832319	0.916757
	N264	N	0.468189	0.924877	0.180126
	N265	N	0.542487	0.095105	0.180461
	N266	N	0.468401	0.097135	0.823168
	N267	N	0.542990	0.925514	0.825512
	N268	N	0.918860	0.189675	0.466052
	N269	N	0.091135	0.189043	0.540410
	N270	N	0.092254	0.831275	0.466249
	N271	N	0.920220	0.831831	0.540504
	N272	N	0.182844	0.471939	0.920233
	N273	N	0.185079	0.547430	0.090848
	N274	N	0.826658	0.473260	0.089327
	N275	N	0.825702	0.547539	0.917717
	O276	O	0.049160	-0.066833	-0.053166
	H277	H	0.047380	-0.065409	-0.048802
	H278	H	0.059117	-0.060257	-0.047417
	O279	O	0.454168	0.478723	0.497181
	H280	H	0.451627	0.469090	0.490377
	H281	H	0.462904	0.469224	0.507468
	O282	O	0.446984	0.516788	0.467278
	H283	H	0.445967	0.504744	0.463557
	H284	H	0.443562	0.515291	0.471306
	O285	O	1.075893	0.020487	0.939871
	H286	H	1.076202	0.023705	0.939269
	H287	H	1.081742	0.027382	0.935600
	O288	O	1.044320	-0.009081	-0.076823
	H289	H	1.038574	-0.000892	-0.074320
	H290	H	1.043968	-0.002582	-0.072968
	O291	O	0.464518	0.511938	0.470085
	H292	H	0.468180	0.512028	0.464071
	H293	H	0.464968	0.506399	0.459446
	O294	O	0.925239	0.058346	1.056402
	H295	H	0.926008	0.057734	1.050476
	H296	H	0.915455	0.059439	1.057283
	O297	O	0.042149	-0.021120	0.026486
	H298	H	0.047242	-0.021799	0.024889
	H299	H	0.049652	-0.019084	0.027008
	O300	O	1.025102	0.026525	0.046070
	H301	H	1.014538	0.017921	0.044373
	H302	H	1.034163	0.026001	0.055805
	O303	O	0.544093	0.471497	0.513476
	H304	H	0.540725	0.466688	0.512956
	H305	H	0.556068	0.469039	0.516443
	O306	O	1.100155	-0.040257	-0.041286
	H307	H	1.108108	-0.045319	-0.045959
	H308	H	1.105514	-0.025801	-0.048484
	O309	O	0.003711	0.019454	0.935227
	H310	H	-0.003341	0.015150	0.940078
	H311	H	0.010582	0.010797	0.931644
	O312	O	0.980917	1.078839	1.009634
	H313	H	0.981289	1.087471	1.016914
	H314	H	0.978745	1.080841	1.003465
	O315	O	0.483459	0.532293	0.524277
	H316	H	0.468549	0.526785	0.524533
	H317	H	0.475720	0.532178	0.510243
	O318	O	-0.005390	0.008448	-0.017248
	H319	H	-0.014089	-0.001296	-0.016080
	H320	H	-0.004775	0.013288	-0.018889
	O321	O	-0.046256	0.968007	1.038225
	H322	H	-0.047384	0.965252	1.043350
	H323	H	-0.053874	0.971185	1.039227
	O324	O	0.455761	0.500701	0.577271
	H325	H	0.459088	0.510710	0.574009
	H326	H	0.470142	0.514707	0.579433
	O327	O	0.470443	0.532557	0.453346
	H328	H	0.466927	0.521976	0.455108
	H329	H	0.472518	0.526187	0.452726
	O330	O	0.460471	0.532820	0.528530
	H331	H	0.462447	0.531883	0.536397
	H332	H	0.457979	0.537932	0.528284
	O333	O	0.478516	0.491516	0.533496
	H334	H	0.490190	0.505632	0.545878
	H335	H	0.474795	0.491512	0.530764
	O336	O	0.503757	0.540604	0.512072
	H337	H	0.501749	0.543043	0.510193
	H338	H	0.498839	0.551288	0.513799
	O339	O	0.917102	1.121451	-0.097250
	H340	H	0.912740	1.128715	-0.106849
	H341	H	0.920229	1.125018	-0.107613
	O342	O	0.474953	0.428457	0.561048
	H343	H	0.468331	0.423219	0.569532
	H344	H	0.466257	0.418884	0.564175
	O345	O	0.569204	0.492976	0.520165
	H346	H	0.567981	0.504425	0.521713
	H347	H	0.578374	0.497297	0.523205
	O348	O	0.000865	0.007954	0.010236
	H349	H	-0.012316	0.003653	0.007637
	H350	H	-0.006286	0.005350	0.011839
	O351	O	0.024594	1.063703	1.032402
	H352	H	0.033032	1.062995	1.031964
	H353	H	0.022920	1.053732	1.025293
	O354	O	0.566757	0.556951	0.492976
	H355	H	0.567619	0.555177	0.496443
	H356	H	0.573852	0.563598	0.487223
	O357	O	0.043015	0.912508	1.002945
	H358	H	0.050844	0.904057	0.989380
	H359	H	0.049314	0.908416	1.007632
