data_Molecule from HDF5

_cell_length_a		16.295275
_cell_length_b		16.338895
_cell_length_c		16.347690
_cell_angle_alpha	89.950443
_cell_angle_beta	89.897692
_cell_angle_gamma	89.943399
_symmetry_space_group_name_H-M	'P 1'
_symmetry_Int_Tables_number		1

loop_
	_symmetry_equiv_pos_as_xyz
	x,y,z

loop_
	_atom_site_label
	_atom_site_type_symbol
	_atom_site_fract_x
	_atom_site_fract_y
	_atom_site_fract_z
	H0	H	0.401127	0.836879	0.715038
	H1	H	0.598183	0.163585	0.714187
	H2	H	0.598228	0.836925	0.285233
	H3	H	0.400759	0.163450	0.284470
	H4	H	0.714292	0.401903	0.837141
	H5	H	0.713230	0.596861	0.163262
	H6	H	0.286818	0.597851	0.836662
	H7	H	0.284670	0.400187	0.163063
	H8	H	0.837096	0.715175	0.400895
	H9	H	0.163264	0.714682	0.598452
	H10	H	0.836470	0.285584	0.598864
	H11	H	0.163356	0.285383	0.402085
	H12	H	0.837017	0.401292	0.715491
	H13	H	0.163794	0.597830	0.713797
	H14	H	0.837151	0.599260	0.284932
	H15	H	0.163169	0.400745	0.284275
	H16	H	0.402373	0.714879	0.837278
	H17	H	0.597133	0.713267	0.163343
	H18	H	0.599087	0.284757	0.837257
	H19	H	0.402033	0.284448	0.162897
	H20	H	0.713927	0.836506	0.402374
	H21	H	0.714055	0.163237	0.596360
	H22	H	0.285670	0.836749	0.598326
	H23	H	0.285669	0.163874	0.402815
	H24	H	0.902078	0.336872	0.215197
	H25	H	0.098623	0.662712	0.215197
	H26	H	0.098908	0.336975	0.784913
	H27	H	0.901147	0.662912	0.784741
	H28	H	0.214724	0.902513	0.336355
	H29	H	0.213926	0.097270	0.663716
	H30	H	0.785396	0.098800	0.336599
	H31	H	0.784726	0.901016	0.662717
	H32	H	0.336630	0.215193	0.901977
	H33	H	0.664313	0.213821	0.097392
	H34	H	0.336859	0.785672	0.098701
	H35	H	0.663799	0.786677	0.903377
	H36	H	0.336462	0.901766	0.215056
	H37	H	0.663847	0.096957	0.213134
	H38	H	0.336186	0.099033	0.785922
	H39	H	0.663750	0.902583	0.786212
	H40	H	0.901944	0.215713	0.336970
	H41	H	0.097478	0.214055	0.663013
	H42	H	0.099483	0.784697	0.337654
	H43	H	0.901266	0.784989	0.662920
	H44	H	0.214555	0.336754	0.902365
	H45	H	0.213267	0.663843	0.097128
	H46	H	0.786126	0.336786	0.097883
	H47	H	0.785814	0.663180	0.902280
	H48	H	0.412584	0.112530	0.586774
	H49	H	0.584544	0.886308	0.592322
	H50	H	0.582406	0.113734	0.406476
	H51	H	0.400968	0.884002	0.410058
	H52	H	0.597921	0.403087	0.119458
	H53	H	0.596688	0.599360	0.881497
	H54	H	0.403100	0.589598	0.116390
	H55	H	0.404043	0.402843	0.882438
	H56	H	0.116976	0.583157	0.394916
	H57	H	0.885947	0.592253	0.585170
	H58	H	0.118000	0.405694	0.597136
	H59	H	0.885229	0.408656	0.410955
	H60	H	0.116788	0.403402	0.590787
	H61	H	0.884108	0.586334	0.598509
	H62	H	0.120171	0.605771	0.406373
	H63	H	0.884075	0.410372	0.403501
	H64	H	0.411274	0.592132	0.114653
	H65	H	0.597940	0.588701	0.884147
	H66	H	0.593612	0.412571	0.114096
	H67	H	0.404857	0.413356	0.885273
	H68	H	0.598959	0.115173	0.414898
	H69	H	0.597935	0.884340	0.587285
	H70	H	0.398169	0.117584	0.590602
	H71	H	0.408189	0.882605	0.400232
	H72	H	0.909134	0.615451	0.094950
	H73	H	0.095234	0.384343	0.090148
	H74	H	0.089930	0.614427	0.906734
	H75	H	0.903964	0.382393	0.904688
	H76	H	0.095350	0.905682	0.617102
	H77	H	0.092634	0.092048	0.385182
	H78	H	0.905769	0.086146	0.614184
	H79	H	0.915471	0.916530	0.389314
	H80	H	0.611599	0.089825	0.916456
	H81	H	0.383049	0.095408	0.095711
	H82	H	0.615871	0.909546	0.093905
	H83	H	0.382163	0.903208	0.906439
	H84	H	0.618575	0.903878	0.096358
	H85	H	0.384668	0.095293	0.088806
	H86	H	0.615819	0.084894	0.899098
	H87	H	0.384938	0.907603	0.910633
	H88	H	0.912117	0.096502	0.614457
	H89	H	0.092803	0.094193	0.384157
	H90	H	0.092611	0.909679	0.614583
	H91	H	0.912162	0.892851	0.381424
	H92	H	0.095560	0.615904	0.908475
	H93	H	0.092766	0.383885	0.095738
	H94	H	0.907234	0.614903	0.090586
	H95	H	0.910484	0.384163	0.904582
	H96	H	0.409429	0.117752	0.601828
	H97	H	0.594637	0.881962	0.601106
	H98	H	0.597888	0.119776	0.397709
	H99	H	0.412532	0.887148	0.410539
	H100	H	0.587312	0.403092	0.114923
	H101	H	0.588164	0.594113	0.885524
	H102	H	0.405701	0.597659	0.117857
	H103	H	0.414103	0.406272	0.886536
	H104	H	0.110608	0.586571	0.419272
	H105	H	0.880605	0.600922	0.595831
	H106	H	0.114812	0.410075	0.591827
	H107	H	0.881914	0.403099	0.406249
	H108	H	0.904560	0.616279	0.093908
	H109	H	0.089460	0.385346	0.091314
	H110	H	0.093569	0.616947	0.902966
	H111	H	0.907187	0.384548	0.909751
	H112	H	0.090565	0.904890	0.615825
	H113	H	0.094637	0.092784	0.384222
	H114	H	0.899960	0.096355	0.618075
	H115	H	0.892607	0.909737	0.380646
	H116	H	0.618949	0.101758	0.905025
	H117	H	0.385249	0.089143	0.092521
	H118	H	0.616354	0.904338	0.090121
	H119	H	0.383232	0.909787	0.904484
	C120	C	0.378073	0.007925	0.621879
	C121	C	0.620974	0.991996	0.621369
	C122	C	0.621286	0.008140	0.378391
	C123	C	0.378492	0.992664	0.378547
	C124	C	0.621604	0.378204	0.008400
	C125	C	0.622018	0.621874	0.991586
	C126	C	0.378467	0.621958	0.008361
	C127	C	0.378931	0.378415	0.992132
	C128	C	0.008101	0.620949	0.378740
	C129	C	0.991923	0.621568	0.621319
	C130	C	0.008501	0.378490	0.621659
	C131	C	0.991442	0.378230	0.378266
	C132	C	0.878422	0.508043	0.121844
	C133	C	0.121213	0.491978	0.121186
	C134	C	0.121904	0.508107	0.877887
	C135	C	0.878895	0.491648	0.878422
	C136	C	0.121679	0.878385	0.508236
	C137	C	0.121598	0.121543	0.492094
	C138	C	0.878156	0.121679	0.507930
	C139	C	0.878365	0.878295	0.491490
	C140	C	0.507849	0.121619	0.878549
	C141	C	0.492237	0.121384	0.120912
	C142	C	0.508419	0.878362	0.121596
	C143	C	0.491796	0.878356	0.878644
	C144	C	0.380536	0.885619	0.677086
	C145	C	0.618864	0.114832	0.676312
	C146	C	0.618584	0.885299	0.323745
	C147	C	0.380412	0.114851	0.322806
	C148	C	0.676433	0.381300	0.885545
	C149	C	0.676069	0.618146	0.114536
	C150	C	0.323909	0.619043	0.885620
	C151	C	0.323139	0.380314	0.114407
	C152	C	0.885546	0.676835	0.380956
	C153	C	0.114810	0.676572	0.618771
	C154	C	0.885211	0.323827	0.619223
	C155	C	0.114494	0.323064	0.381117
	C156	C	0.885274	0.381187	0.676933
	C157	C	0.114840	0.618692	0.676137
	C158	C	0.885451	0.619067	0.323583
	C159	C	0.114578	0.380312	0.322856
	C160	C	0.381408	0.677094	0.885844
	C161	C	0.618451	0.675883	0.114500
	C162	C	0.619118	0.323189	0.885860
	C163	C	0.381031	0.322479	0.114466
	C164	C	0.676211	0.885194	0.381553
	C165	C	0.676499	0.114627	0.617930
	C166	C	0.323239	0.885439	0.618979
	C167	C	0.323225	0.115127	0.381546
	C168	C	0.881019	0.385580	0.177313
	C169	C	0.118969	0.614539	0.176636
	C170	C	0.119424	0.385603	0.822859
	C171	C	0.881352	0.614374	0.823360
	C172	C	0.176920	0.881352	0.385400
	C173	C	0.176143	0.118357	0.614908
	C174	C	0.823222	0.119296	0.385183
	C175	C	0.823266	0.881063	0.614426
	C176	C	0.385130	0.176962	0.881394
	C177	C	0.615295	0.176147	0.118346
	C178	C	0.385359	0.823514	0.119012
	C179	C	0.614721	0.823645	0.881755
	C180	C	0.385252	0.881403	0.176462
	C181	C	0.615203	0.118488	0.176036
	C182	C	0.384840	0.119156	0.823909
	C183	C	0.614695	0.881301	0.823667
	C184	C	0.881046	0.177333	0.385544
	C185	C	0.118665	0.176630	0.614448
	C186	C	0.119738	0.822904	0.385738
	C187	C	0.880912	0.823275	0.614488
	C188	C	0.176815	0.385460	0.881271
	C189	C	0.175952	0.614783	0.118191
	C190	C	0.823354	0.385521	0.119165
	C191	C	0.824207	0.614678	0.881825
	C192	C	0.400403	0.093924	0.599593
	C193	C	0.598955	0.906353	0.600029
	C194	C	0.599447	0.093961	0.400048
	C195	C	0.400793	0.906658	0.400611
	C196	C	0.599519	0.400049	0.094062
	C197	C	0.600573	0.600634	0.905858
	C198	C	0.400303	0.599781	0.094200
	C199	C	0.401186	0.400911	0.906743
	C200	C	0.093783	0.598574	0.400520
	C201	C	0.905966	0.599537	0.599547
	C202	C	0.094235	0.400079	0.599812
	C203	C	0.905874	0.400833	0.400433
	C204	C	0.900607	0.593541	0.099799
	C205	C	0.099000	0.406495	0.099015
	C206	C	0.099623	0.593856	0.899664
	C207	C	0.900824	0.405855	0.899970
	C208	C	0.099307	0.900209	0.593704
	C209	C	0.099722	0.099496	0.406551
	C210	C	0.899815	0.099494	0.593552
	C211	C	0.900282	0.899935	0.405969
	C212	C	0.593564	0.098970	0.900471
	C213	C	0.406451	0.099625	0.098962
	C214	C	0.594507	0.899719	0.099834
	C215	C	0.405546	0.900459	0.900729
	Zn216	Zn	0.499607	0.000085	0.750165
	Zn217	Zn	0.500090	0.000102	0.249503
	Zn218	Zn	0.749962	0.499916	-0.000032
	Zn219	Zn	0.250208	0.500180	0.000263
	Zn220	Zn	0.000042	0.749625	0.499777
	Zn221	Zn	-0.000193	0.250367	0.500351
	Zn222	Zn	0.000132	0.500225	0.749306
	Zn223	Zn	0.000330	0.500206	0.250177
	Zn224	Zn	0.500176	0.750104	0.000589
	Zn225	Zn	0.500279	0.249979	0.000128
	Zn226	Zn	0.749801	-0.000139	0.499287
	Zn227	Zn	0.249642	0.000035	0.500360
	N228	N	0.413797	0.963052	0.679018
	N229	N	0.585140	0.037734	0.678498
	N230	N	0.585379	0.962782	0.321563
	N231	N	0.414159	0.037574	0.320991
	N232	N	0.677957	0.414762	0.962788
	N233	N	0.678302	0.585093	0.037249
	N234	N	0.321961	0.585441	0.962829
	N235	N	0.321810	0.414406	0.037404
	N236	N	0.962738	0.677852	0.414898
	N237	N	0.037490	0.678265	0.585239
	N238	N	0.962617	0.321903	0.585621
	N239	N	0.037212	0.321846	0.414938
	N240	N	0.962770	0.414590	0.678492
	N241	N	0.037515	0.585112	0.677550
	N242	N	0.962662	0.585091	0.322202
	N243	N	0.037177	0.413897	0.320931
	N244	N	0.414489	0.678979	0.963259
	N245	N	0.585491	0.678110	0.037067
	N246	N	0.585829	0.321079	0.963224
	N247	N	0.415167	0.321484	0.037443
	N248	N	0.677944	0.962590	0.414833
	N249	N	0.677986	0.037360	0.584451
	N250	N	0.321794	0.962687	0.585286
	N251	N	0.322142	0.038007	0.415477
	N252	N	0.914710	0.462716	0.178918
	N253	N	0.085792	0.537015	0.178773
	N254	N	0.085838	0.462795	0.820834
	N255	N	0.914409	0.536957	0.821014
	N256	N	0.178290	0.915027	0.462461
	N257	N	0.177997	0.084871	0.537756
	N258	N	0.821529	0.085207	0.462209
	N259	N	0.821454	0.914359	0.537171
	N260	N	0.462729	0.178732	0.914449
	N261	N	0.537873	0.178011	0.084841
	N262	N	0.462991	0.821616	0.085530
	N263	N	0.537253	0.822031	0.915183
	N264	N	0.462634	0.914793	0.178045
	N265	N	0.537831	0.085162	0.177623
	N266	N	0.462078	0.085286	0.822159
	N267	N	0.537105	0.914666	0.821765
	N268	N	0.914251	0.179104	0.462977
	N269	N	0.085489	0.178478	0.537171
	N270	N	0.085890	0.821178	0.462976
	N271	N	0.914547	0.821307	0.537177
	N272	N	0.178356	0.462678	0.914871
	N273	N	0.177382	0.537725	0.084517
	N274	N	0.821815	0.462560	0.085291
	N275	N	0.822447	0.537234	0.915271
