data_Molecule from HDF5

_cell_length_a		16.611547
_cell_length_b		16.368763
_cell_length_c		16.514051
_cell_angle_alpha	90.023489
_cell_angle_beta	90.024499
_cell_angle_gamma	89.852996
_symmetry_space_group_name_H-M	'P 1'
_symmetry_Int_Tables_number		1

loop_
	_symmetry_equiv_pos_as_xyz
	x,y,z

loop_
	_atom_site_label
	_atom_site_type_symbol
	_atom_site_fract_x
	_atom_site_fract_y
	_atom_site_fract_z
	H0	H	0.388823	0.846169	0.730015
	H1	H	0.597830	0.164098	0.726793
	H2	H	0.597387	0.845627	0.288701
	H3	H	0.387153	0.162393	0.285505
	H4	H	0.718765	0.395817	0.851058
	H5	H	0.718363	0.612230	0.161520
	H6	H	0.266948	0.617083	0.853088
	H7	H	0.271613	0.395764	0.163406
	H8	H	0.838425	0.721013	0.407009
	H9	H	0.152430	0.725902	0.614501
	H10	H	0.839518	0.281858	0.612456
	H11	H	0.151077	0.277706	0.400217
	H12	H	0.841960	0.393428	0.732883
	H13	H	0.151434	0.611259	0.732496
	H14	H	0.839091	0.606339	0.288145
	H15	H	0.151135	0.392929	0.282786
	H16	H	0.388383	0.726845	0.849800
	H17	H	0.597335	0.724387	0.164679
	H18	H	0.599662	0.284176	0.849271
	H19	H	0.391447	0.283314	0.164902
	H20	H	0.715429	0.846218	0.402563
	H21	H	0.716688	0.162505	0.613926
	H22	H	0.270917	0.846696	0.616696
	H23	H	0.269088	0.160672	0.399137
	H24	H	0.890775	0.343645	0.227465
	H25	H	0.098843	0.661690	0.228112
	H26	H	0.105575	0.346199	0.783529
	H27	H	0.889887	0.660885	0.785395
	H28	H	0.218226	0.895971	0.351959
	H29	H	0.220482	0.113828	0.662841
	H30	H	0.773327	0.109849	0.350098
	H31	H	0.773891	0.898650	0.664789
	H32	H	0.338026	0.226183	0.903901
	H33	H	0.652294	0.225321	0.112384
	H34	H	0.337852	0.784806	0.110636
	H35	H	0.651606	0.785017	0.904728
	H36	H	0.340234	0.898114	0.231485
	H37	H	0.651457	0.111522	0.231479
	H38	H	0.338415	0.110810	0.785960
	H39	H	0.651039	0.899685	0.785919
	H40	H	0.891745	0.222912	0.348399
	H41	H	0.101132	0.226529	0.664141
	H42	H	0.097327	0.784715	0.348809
	H43	H	0.892324	0.783198	0.665462
	H44	H	0.222580	0.348058	0.897840
	H45	H	0.215594	0.661364	0.113538
	H46	H	0.773292	0.345535	0.112913
	H47	H	0.772955	0.660784	0.900134
	H48	H	0.404411	0.117155	0.593678
	H49	H	0.584535	0.890954	0.598838
	H50	H	0.584742	0.118130	0.421597
	H51	H	0.405512	0.890927	0.419627
	H52	H	0.589016	0.413592	0.122324
	H53	H	0.585385	0.597184	0.891703
	H54	H	0.404991	0.592895	0.119409
	H55	H	0.406523	0.420065	0.896928
	H56	H	0.109455	0.591619	0.414889
	H57	H	0.885163	0.590909	0.598449
	H58	H	0.107925	0.409684	0.591256
	H59	H	0.884720	0.411697	0.421384
	H60	H	0.103297	0.420558	0.591183
	H61	H	0.884247	0.592912	0.597568
	H62	H	0.109940	0.593902	0.416207
	H63	H	0.886070	0.419062	0.416611
	H64	H	0.404841	0.592534	0.119580
	H65	H	0.587483	0.588600	0.893876
	H66	H	0.586669	0.420436	0.118733
	H67	H	0.409808	0.419493	0.897221
	H68	H	0.585652	0.120311	0.418566
	H69	H	0.583234	0.891981	0.595161
	H70	H	0.407630	0.116870	0.596870
	H71	H	0.409209	0.892052	0.419602
	H72	H	0.897010	0.620232	0.098522
	H73	H	0.085431	0.389490	0.094385
	H74	H	0.077717	0.616924	0.914663
	H75	H	0.910091	0.390796	0.918143
	H76	H	0.085853	0.919414	0.619833
	H77	H	0.078461	0.089672	0.397936
	H78	H	0.908386	0.097552	0.620424
	H79	H	0.900536	0.913621	0.393206
	H80	H	0.611725	0.100601	0.910216
	H81	H	0.385114	0.093243	0.094746
	H82	H	0.603576	0.918564	0.089538
	H83	H	0.381723	0.915693	0.917928
	H84	H	0.607064	0.921669	0.104161
	H85	H	0.384201	0.091043	0.098424
	H86	H	0.604737	0.096638	0.926467
	H87	H	0.382787	0.917222	0.917541
	H88	H	0.898769	0.092424	0.621544
	H89	H	0.084871	0.090165	0.395171
	H90	H	0.080439	0.915439	0.618735
	H91	H	0.905540	0.914695	0.395167
	H92	H	0.078967	0.612420	0.926724
	H93	H	0.083634	0.389870	0.095205
	H94	H	0.912318	0.616181	0.104238
	H95	H	0.909044	0.392791	0.924391
	H96	H	0.407750	0.114985	0.592540
	H97	H	0.586305	0.890210	0.595448
	H98	H	0.582177	0.118621	0.418453
	H99	H	0.407441	0.892670	0.422984
	H100	H	0.581396	0.413888	0.118721
	H101	H	0.579257	0.592114	0.896461
	H102	H	0.404813	0.592751	0.119194
	H103	H	0.407218	0.416968	0.896463
	H104	H	0.108966	0.591803	0.417663
	H105	H	0.885047	0.590929	0.596264
	H106	H	0.108551	0.416520	0.600641
	H107	H	0.881683	0.412093	0.412781
	H108	H	0.908406	0.613192	0.088016
	H109	H	0.083770	0.390433	0.093427
	H110	H	0.088860	0.618215	0.920770
	H111	H	0.904224	0.388921	0.920443
	H112	H	0.085924	0.913092	0.621727
	H113	H	0.082760	0.084079	0.398180
	H114	H	0.907449	0.086757	0.618150
	H115	H	0.903809	0.909594	0.392753
	H116	H	0.605076	0.084198	0.913384
	H117	H	0.382800	0.095438	0.098181
	H118	H	0.609046	0.907571	0.098212
	H119	H	0.381779	0.916479	0.916555
	C120	C	0.373643	0.012249	0.628291
	C121	C	0.616307	0.995865	0.628740
	C122	C	0.615908	0.013942	0.386928
	C123	C	0.373343	0.995944	0.387003
	C124	C	0.617639	0.382543	0.016140
	C125	C	0.615805	0.625277	0.997739
	C126	C	0.371793	0.626632	0.016038
	C127	C	0.374732	0.384183	0.999625
	C128	C	0.004989	0.623808	0.385976
	C129	C	0.987723	0.624968	0.630233
	C130	C	0.004458	0.381539	0.628532
	C131	C	0.987072	0.380393	0.384429
	C132	C	0.873915	0.511628	0.128621
	C133	C	0.116295	0.494571	0.128069
	C134	C	0.117080	0.512054	0.886464
	C135	C	0.874965	0.494812	0.887369
	C136	C	0.116420	0.882847	0.516257
	C137	C	0.115998	0.123744	0.499527
	C138	C	0.873810	0.124471	0.515601
	C139	C	0.872872	0.881583	0.498620
	C140	C	0.503511	0.126600	0.885262
	C141	C	0.487423	0.125923	0.129558
	C142	C	0.503302	0.883646	0.129052
	C143	C	0.485523	0.883538	0.885430
	C144	C	0.370567	0.893659	0.689832
	C145	C	0.617295	0.115881	0.688001
	C146	C	0.616881	0.893574	0.327884
	C147	C	0.369428	0.114610	0.325620
	C148	C	0.678009	0.378672	0.897945
	C149	C	0.676989	0.629147	0.115318
	C150	C	0.309116	0.632410	0.899291
	C151	C	0.313001	0.379141	0.116778
	C152	C	0.885959	0.682045	0.386720
	C153	C	0.105241	0.685953	0.632719
	C154	C	0.886905	0.321030	0.631467
	C155	C	0.104324	0.318452	0.381871
	C156	C	0.888279	0.376528	0.691494
	C157	C	0.104935	0.628776	0.691489
	C158	C	0.886349	0.625039	0.327660
	C159	C	0.104477	0.376017	0.323457
	C160	C	0.369612	0.687416	0.897803
	C161	C	0.616921	0.684966	0.116752
	C162	C	0.618874	0.322773	0.897194
	C163	C	0.372535	0.323008	0.117503
	C164	C	0.675544	0.894038	0.384352
	C165	C	0.676453	0.115042	0.631891
	C166	C	0.312026	0.893821	0.633187
	C167	C	0.311024	0.114022	0.382576
	C168	C	0.872185	0.391745	0.188060
	C169	C	0.117871	0.613618	0.188677
	C170	C	0.122209	0.393660	0.824439
	C171	C	0.872074	0.613463	0.825935
	C172	C	0.177052	0.879077	0.398384
	C173	C	0.178526	0.129925	0.616503
	C174	C	0.813699	0.127461	0.397136
	C175	C	0.813698	0.879977	0.617341
	C176	C	0.385327	0.186715	0.884489
	C177	C	0.605089	0.185576	0.131157
	C178	C	0.385214	0.824075	0.130220
	C179	C	0.604287	0.824271	0.885118
	C180	C	0.386036	0.880686	0.189816
	C181	C	0.604656	0.128817	0.190602
	C182	C	0.385346	0.128999	0.826107
	C183	C	0.603965	0.880976	0.825966
	C184	C	0.873033	0.183613	0.396447
	C185	C	0.119076	0.186034	0.617134
	C186	C	0.117219	0.823558	0.397032
	C187	C	0.872582	0.822600	0.617750
	C188	C	0.180805	0.394669	0.881156
	C189	C	0.175725	0.613830	0.131272
	C190	C	0.813759	0.392615	0.130994
	C191	C	0.813948	0.613561	0.883136
	C192	C	0.399392	0.094821	0.601907
	C193	C	0.591637	0.912721	0.603578
	C194	C	0.591285	0.097214	0.412168
	C195	C	0.399838	0.913482	0.413341
	C196	C	0.592740	0.408471	0.098368
	C197	C	0.591069	0.600001	0.915562
	C198	C	0.397293	0.600110	0.098050
	C199	C	0.400397	0.410941	0.918115
	C200	C	0.087831	0.599511	0.409515
	C201	C	0.906094	0.599025	0.604819
	C202	C	0.085483	0.408055	0.602184
	C203	C	0.905469	0.406599	0.409703
	C204	C	0.898685	0.594843	0.104014
	C205	C	0.091497	0.411548	0.101727
	C206	C	0.089762	0.594324	0.913092
	C207	C	0.900539	0.412261	0.913623
	C208	C	0.091234	0.908518	0.598674
	C209	C	0.089649	0.095876	0.418362
	C210	C	0.897859	0.099562	0.598420
	C211	C	0.896412	0.905666	0.415395
	C212	C	0.585698	0.101012	0.909702
	C213	C	0.405281	0.100598	0.104205
	C214	C	0.585320	0.908829	0.104291
	C215	C	0.403529	0.909072	0.910006
	Zn216	Zn	0.494649	0.004542	0.756504
	Zn217	Zn	0.494636	0.005049	0.259236
	Zn218	Zn	0.745330	0.503815	0.006965
	Zn219	Zn	0.244762	0.504196	0.007768
	Zn220	Zn	-0.003756	0.753324	0.507790
	Zn221	Zn	-0.004508	0.252759	0.507283
	Zn222	Zn	-0.003953	0.502328	0.758022
	Zn223	Zn	-0.004448	0.502278	0.256551
	Zn224	Zn	0.494368	0.754298	0.007039
	Zn225	Zn	0.495920	0.254703	0.007472
	Zn226	Zn	0.744187	0.004431	0.507625
	Zn227	Zn	0.245168	0.003589	0.507827
	N228	N	0.408097	0.968324	0.686958
	N229	N	0.580472	0.040756	0.686170
	N230	N	0.580741	0.969202	0.329104
	N231	N	0.407717	0.040106	0.328487
	N232	N	0.677599	0.414868	0.973017
	N233	N	0.676395	0.592738	0.040354
	N234	N	0.310513	0.595179	0.973813
	N235	N	0.314463	0.416758	0.042515
	N236	N	0.960857	0.681611	0.422102
	N237	N	0.031225	0.683766	0.595371
	N238	N	0.960112	0.323787	0.593241
	N239	N	0.030437	0.321044	0.419164
	N240	N	0.962415	0.413660	0.689657
	N241	N	0.030983	0.591509	0.690041
	N242	N	0.961609	0.589990	0.326765
	N243	N	0.030485	0.413644	0.324847
	N244	N	0.408135	0.683986	0.971347
	N245	N	0.579345	0.682650	0.042817
	N246	N	0.581950	0.324871	0.971669
	N247	N	0.410127	0.325874	0.043639
	N248	N	0.675131	0.969799	0.420299
	N249	N	0.676253	0.039233	0.596082
	N250	N	0.313873	0.968744	0.595484
	N251	N	0.313436	0.039119	0.419941
	N252	N	0.908769	0.466865	0.186769
	N253	N	0.081795	0.538276	0.186882
	N254	N	0.083113	0.467718	0.827743
	N255	N	0.909401	0.538576	0.828330
	N256	N	0.176709	0.914967	0.473654
	N257	N	0.176684	0.091919	0.542365
	N258	N	0.813992	0.091397	0.472320
	N259	N	0.813627	0.915690	0.542059
	N260	N	0.459937	0.185457	0.920445
	N261	N	0.531265	0.183543	0.093720
	N262	N	0.459121	0.825874	0.093059
	N263	N	0.529715	0.825398	0.920964
	N264	N	0.460462	0.917065	0.189240
	N265	N	0.530276	0.092315	0.189537
	N266	N	0.459987	0.092724	0.826218
	N267	N	0.529173	0.917103	0.826048
	N268	N	0.909465	0.182234	0.471131
	N269	N	0.080994	0.182343	0.543265
	N270	N	0.080173	0.825665	0.471474
	N271	N	0.908552	0.823261	0.542949
	N272	N	0.177747	0.469426	0.918853
	N273	N	0.175005	0.538413	0.094679
	N274	N	0.814669	0.468126	0.094811
	N275	N	0.815583	0.538755	0.920624
	O276	O	0.489103	0.354847	0.416522
	H277	H	0.466583	0.352048	0.430381
	H278	H	0.494092	0.340187	0.416491
	O279	O	0.525151	0.717705	0.724652
	H280	H	0.508944	0.725490	0.711226
	H281	H	0.535636	0.740617	0.735966
	O282	O	1.054744	0.798802	0.104794
	H283	H	1.035969	0.805618	0.079503
	H284	H	1.026495	0.793635	0.138266
	O285	O	0.332205	0.425090	0.441114
	H286	H	0.337341	0.445896	0.411844
	H287	H	0.325051	0.449536	0.461203
	O288	O	0.156924	-0.036752	0.107516
	H289	H	0.170678	-0.052960	0.124267
	H290	H	0.155312	-0.049513	0.119143
	O291	O	1.171823	1.144331	0.189074
	H292	H	1.167530	1.160434	0.171491
	H293	H	1.147589	1.157625	0.183072
	O294	O	0.189423	0.869539	0.167376
	H295	H	0.181057	0.890059	0.157974
	H296	H	0.169641	0.882450	0.164037
	O297	O	0.641635	0.364784	0.350814
	H298	H	0.629939	0.359172	0.376971
	H299	H	0.620809	0.362355	0.359616
	O300	O	0.463858	0.288838	0.726629
	H301	H	0.446256	0.277389	0.744769
	H302	H	0.433430	0.279500	0.732960
	O303	O	0.360264	0.532538	0.723056
	H304	H	0.365769	0.553448	0.732534
	H305	H	0.379038	0.539352	0.715095
	O306	O	-0.173251	1.070755	1.025007
	H307	H	-0.168777	1.061997	1.037940
	H308	H	-0.157315	1.067403	1.023780
	O309	O	0.712952	0.693080	0.562260
	H310	H	0.723856	0.702890	0.584862
	H311	H	0.730177	0.686317	0.562339
	O312	O	0.549258	0.566151	0.569248
	H313	H	0.547913	0.553328	0.575298
	H314	H	0.553627	0.564630	0.576856
	O315	O	-0.173428	-0.161846	0.842883
	H316	H	-0.150875	-0.144887	0.859024
	H317	H	-0.163269	-0.146462	0.855065
	O318	O	-0.057446	0.786351	0.220713
	H319	H	-0.060982	0.764397	0.250434
	H320	H	-0.098289	0.793059	0.222964
	O321	O	0.484106	0.430350	0.298061
	H322	H	0.488755	0.443144	0.295604
	H323	H	0.465954	0.430356	0.308354
	O324	O	0.806658	0.193412	0.865307
	H325	H	0.801346	0.189474	0.901029
	H326	H	0.792692	0.173514	0.862540
	O327	O	0.858191	0.100386	0.979030
	H328	H	0.857703	0.090186	0.986819
	H329	H	0.838741	0.115790	0.968126
	O330	O	0.874861	0.046208	0.135389
	H331	H	0.893978	0.018229	0.131931
	H332	H	0.858492	0.025211	0.127489
	O333	O	0.791273	0.916998	0.946755
	H334	H	0.796051	0.929480	0.949256
	H335	H	0.775548	0.928314	0.954647
	O336	O	0.997972	0.215052	1.115666
	H337	H	0.999786	0.229173	1.128460
	H338	H	0.972384	0.196396	1.115865
	O339	O	0.303609	0.315039	0.696528
	H340	H	0.295845	0.316315	0.652035
	H341	H	0.296274	0.358497	0.697479
	O342	O	0.660657	0.440313	0.608009
	H343	H	0.660700	0.438963	0.633411
	H344	H	0.650938	0.444679	0.624788
	O345	O	0.202584	0.205243	0.053883
	H346	H	0.209301	0.218810	0.047664
	H347	H	0.203342	0.211272	0.038644
	O348	O	1.188555	0.003534	0.802706
	H349	H	1.186261	0.017761	0.801221
	H350	H	1.200835	0.005688	0.791371
	O351	O	0.966609	0.858055	-0.013418
	H352	H	0.973724	0.866303	-0.018681
	H353	H	0.969406	0.865530	-0.028056
	O354	O	0.272891	0.501687	0.632111
	H355	H	0.294625	0.525070	0.651455
	H356	H	0.255634	0.510456	0.655032
	O357	O	0.951612	0.964280	0.789344
	H358	H	0.970201	0.975978	0.796663
	H359	H	0.967482	0.954389	0.783556
	O360	O	0.740901	0.741955	0.271472
	H361	H	0.733763	0.754440	0.275507
	H362	H	0.713780	0.713698	0.289719
	O363	O	0.711446	0.496914	0.692196
	H364	H	0.728870	0.519998	0.712223
	H365	H	0.696303	0.514060	0.693053
	O366	O	0.593827	0.464994	0.413031
	H367	H	0.605514	0.450706	0.426368
	H368	H	0.599960	0.450736	0.427331
	O369	O	0.362900	0.712722	0.296833
	H370	H	0.400379	0.707620	0.294756
	H371	H	0.352764	0.741779	0.273719
	O372	O	0.283783	0.290161	0.530766
	H373	H	0.262976	0.264452	0.525782
	H374	H	0.286296	0.316183	0.504998
	O375	O	0.048958	1.018397	0.934264
	H376	H	0.062967	1.015503	0.935202
	H377	H	0.028304	1.024878	0.929336
	O378	O	0.809541	0.038659	0.068030
	H379	H	0.812647	0.032573	0.054526
	H380	H	0.812507	0.037210	0.080541
	O381	O	0.802244	0.086929	-0.183123
	H382	H	0.785809	0.099430	-0.204096
	H383	H	0.824986	0.072503	-0.185318
	O384	O	0.657201	-0.401277	0.493229
	H385	H	0.657492	-0.394099	0.478333
	H386	H	0.662461	-0.431542	0.511173
	O387	O	0.025157	0.791438	0.790203
	H388	H	0.048267	0.797472	0.794754
	H389	H	0.026137	0.768457	0.768537
	O390	O	0.047854	0.217044	0.952289
	H391	H	0.028333	0.221351	0.917349
	H392	H	0.045537	0.209719	0.970571
	O393	O	0.778188	0.974750	0.221590
	H394	H	0.763025	0.980463	0.231427
	H395	H	0.778229	0.957795	0.230867
	O396	O	0.280670	0.523965	0.294977
	H397	H	0.256220	0.539321	0.276458
	H398	H	0.283647	0.548655	0.301499
	O399	O	0.470303	0.712054	0.500200
	H400	H	0.473766	0.715734	0.502795
	H401	H	0.466645	0.715579	0.487081
	O402	O	0.186740	0.067097	0.973409
	H403	H	0.188931	0.072416	0.989720
	H404	H	0.198023	0.055116	0.969543
	O405	O	0.200034	-0.197387	-0.012217
	H406	H	0.196761	-0.214601	-0.000589
	H407	H	0.199043	-0.203827	0.000476
	O408	O	0.687993	0.695390	0.701520
	H409	H	0.704385	0.713185	0.712104
	H410	H	0.661897	0.697665	0.699180
	O411	O	0.337079	0.684450	0.568416
	H412	H	0.340898	0.692927	0.552434
	H413	H	0.321742	0.692918	0.550184
	O414	O	0.306033	0.704204	0.410998
	H415	H	0.298913	0.716830	0.394273
	H416	H	0.321576	0.703998	0.383348
	O417	O	0.700961	0.356858	0.476388
	H418	H	0.701102	0.350917	0.476105
	H419	H	0.714853	0.347947	0.486372
	O420	O	0.632173	0.698172	0.379126
	H421	H	0.618576	0.685376	0.387480
	H422	H	0.639940	0.684102	0.394138
	O423	O	0.164029	1.004498	0.217686
	H424	H	0.173152	1.029233	0.229150
	H425	H	0.145304	1.021671	0.222580
	O426	O	0.958655	1.200578	0.796682
	H427	H	0.931724	1.199602	0.804933
	H428	H	0.949437	1.226082	0.775879
	O429	O	0.509450	0.312881	0.511633
	H430	H	0.501454	0.321289	0.521186
	H431	H	0.498467	0.308416	0.525779
	O432	O	0.533412	0.286340	0.365418
	H433	H	0.527820	0.277386	0.356963
	H434	H	0.530111	0.293676	0.367493
	O435	O	-0.036884	0.200343	0.122752
	H436	H	-0.032052	0.220965	0.154646
	H437	H	-0.024308	0.182136	0.103561
	O438	O	1.183947	-0.175391	-0.179333
	H439	H	1.180907	-0.144607	-0.174779
	H440	H	1.186033	-0.179181	-0.147894
	O441	O	0.524699	0.412399	0.418667
	H442	H	0.521720	0.419945	0.408606
	H443	H	0.534257	0.408908	0.429615
	O444	O	0.084744	1.069000	0.875182
	H445	H	0.108341	1.074502	0.877072
	H446	H	0.087245	1.088891	0.875741
	O447	O	0.449986	0.591504	0.311940
	H448	H	0.459552	0.583863	0.316609
	H449	H	0.462591	0.594166	0.317417
	O450	O	0.497475	0.440377	0.638360
	H451	H	0.495880	0.430035	0.608081
	H452	H	0.480770	0.442226	0.641951
	O453	O	0.362958	0.533873	0.538075
	H454	H	0.348664	0.523207	0.544351
	H455	H	0.375944	0.546161	0.542614
	O456	O	0.911500	-0.059000	0.204722
	H457	H	0.903860	-0.065300	0.204743
	H458	H	0.910835	-0.069646	0.182378
	O459	O	0.705983	0.488416	0.290721
	H460	H	0.723592	0.466897	0.269433
	H461	H	0.705216	0.455731	0.307546
	O462	O	0.481125	0.494827	0.694736
	H463	H	0.478486	0.489531	0.699289
	H464	H	0.475758	0.494482	0.689372
	O465	O	0.864143	-0.200527	0.016150
	H466	H	0.878043	-0.206459	0.008930
	H467	H	0.858009	-0.186544	0.001651
