data_Molecule from HDF5

_cell_length_a		16.260256
_cell_length_b		16.255132
_cell_length_c		16.316539
_cell_angle_alpha	89.952822
_cell_angle_beta	90.009675
_cell_angle_gamma	90.056603
_symmetry_space_group_name_H-M	'P 1'
_symmetry_Int_Tables_number		1

loop_
	_symmetry_equiv_pos_as_xyz
	x,y,z

loop_
	_atom_site_label
	_atom_site_type_symbol
	_atom_site_fract_x
	_atom_site_fract_y
	_atom_site_fract_z
	H0	H	0.399888	0.833886	0.714407
	H1	H	0.599182	0.161569	0.712951
	H2	H	0.599406	0.834084	0.282884
	H3	H	0.399917	0.161174	0.283950
	H4	H	0.715394	0.398757	0.835494
	H5	H	0.717036	0.598446	0.160369
	H6	H	0.286540	0.596665	0.834779
	H7	H	0.283889	0.398524	0.161008
	H8	H	0.836729	0.711692	0.398211
	H9	H	0.164471	0.711380	0.596022
	H10	H	0.836465	0.282549	0.595206
	H11	H	0.163953	0.281545	0.397575
	H12	H	0.836361	0.397447	0.711680
	H13	H	0.163742	0.596521	0.712712
	H14	H	0.836519	0.596685	0.281978
	H15	H	0.163613	0.397312	0.281534
	H16	H	0.399941	0.714559	0.836271
	H17	H	0.598674	0.712279	0.161761
	H18	H	0.599502	0.282834	0.835961
	H19	H	0.400677	0.283218	0.161957
	H20	H	0.713300	0.832758	0.400479
	H21	H	0.716196	0.160376	0.598046
	H22	H	0.284550	0.833331	0.598104
	H23	H	0.286243	0.160596	0.400840
	H24	H	0.899779	0.334411	0.212448
	H25	H	0.101203	0.660007	0.214123
	H26	H	0.098922	0.333128	0.783029
	H27	H	0.900615	0.660372	0.779858
	H28	H	0.215964	0.897981	0.335132
	H29	H	0.215325	0.097056	0.661027
	H30	H	0.784922	0.094510	0.335151
	H31	H	0.784978	0.896030	0.661768
	H32	H	0.335976	0.212334	0.900950
	H33	H	0.663597	0.213457	0.098097
	H34	H	0.336374	0.782886	0.098814
	H35	H	0.663510	0.784161	0.901237
	H36	H	0.335634	0.899737	0.213743
	H37	H	0.663052	0.098243	0.215153
	H38	H	0.336598	0.098593	0.782899
	H39	H	0.663399	0.897009	0.783039
	H40	H	0.901934	0.210059	0.333774
	H41	H	0.099759	0.212877	0.660097
	H42	H	0.099706	0.782724	0.334512
	H43	H	0.901641	0.780614	0.661096
	H44	H	0.215127	0.333919	0.898611
	H45	H	0.213665	0.661967	0.095237
	H46	H	0.784195	0.334908	0.096976
	H47	H	0.785335	0.662111	0.897033
	H48	H	0.409634	0.113384	0.591523
	H49	H	0.594451	0.877366	0.601937
	H50	H	0.590601	0.116144	0.396355
	H51	H	0.414675	0.881957	0.404407
	H52	H	0.582817	0.419684	0.107119
	H53	H	0.588054	0.594434	0.882621
	H54	H	0.412448	0.603622	0.117285
	H55	H	0.414489	0.393172	0.880539
	H56	H	0.112458	0.585409	0.411168
	H57	H	0.881508	0.594176	0.592390
	H58	H	0.120728	0.397187	0.596123
	H59	H	0.885663	0.408496	0.406988
	H60	H	0.114573	0.401778	0.580771
	H61	H	0.886233	0.588586	0.584268
	H62	H	0.118005	0.585065	0.396835
	H63	H	0.881541	0.404124	0.398705
	H64	H	0.392644	0.588792	0.118668
	H65	H	0.597120	0.594435	0.879980
	H66	H	0.585661	0.390922	0.117113
	H67	H	0.394243	0.405373	0.877694
	H68	H	0.584635	0.109285	0.413432
	H69	H	0.582365	0.883613	0.591016
	H70	H	0.406377	0.113793	0.590396
	H71	H	0.406056	0.881459	0.412155
	H72	H	0.900455	0.615341	0.085476
	H73	H	0.092474	0.379063	0.096155
	H74	H	0.089718	0.613771	0.902348
	H75	H	0.913046	0.383017	0.902510
	H76	H	0.097106	0.909318	0.613776
	H77	H	0.095865	0.084854	0.382142
	H78	H	0.909445	0.091934	0.614457
	H79	H	0.903784	0.894232	0.378150
	H80	H	0.616751	0.090829	0.904134
	H81	H	0.381515	0.086471	0.102982
	H82	H	0.612945	0.913810	0.088590
	H83	H	0.386099	0.911429	0.908195
	H84	H	0.619237	0.906104	0.101905
	H85	H	0.381156	0.100866	0.089063
	H86	H	0.616386	0.091928	0.908657
	H87	H	0.382345	0.907144	0.901294
	H88	H	0.905357	0.089236	0.614621
	H89	H	0.089198	0.090450	0.382162
	H90	H	0.085752	0.905093	0.610792
	H91	H	0.899206	0.912847	0.382861
	H92	H	0.094191	0.613126	0.907943
	H93	H	0.087411	0.383462	0.086564
	H94	H	0.909874	0.617103	0.099609
	H95	H	0.906711	0.383118	0.911604
	H96	H	0.407129	0.114716	0.593786
	H97	H	0.598976	0.881104	0.585177
	H98	H	0.603530	0.115798	0.411123
	H99	H	0.403978	0.877638	0.401160
	H100	H	0.608726	0.409480	0.118958
	H101	H	0.592850	0.586583	0.883399
	H102	H	0.413692	0.579724	0.109218
	H103	H	0.413424	0.416002	0.887576
	H104	H	0.119490	0.598066	0.405013
	H105	H	0.884456	0.583633	0.593100
	H106	H	0.114791	0.412861	0.593582
	H107	H	0.883768	0.398576	0.407129
	H108	H	0.916586	0.610517	0.084426
	H109	H	0.098697	0.379834	0.087027
	H110	H	0.096730	0.614857	0.901207
	H111	H	0.902192	0.379200	0.902346
	H112	H	0.094442	0.897939	0.616422
	H113	H	0.096694	0.093492	0.379675
	H114	H	0.910187	0.086487	0.612724
	H115	H	0.917242	0.905645	0.385129
	H116	H	0.615220	0.087807	0.907045
	H117	H	0.388564	0.083275	0.084656
	H118	H	0.616825	0.897898	0.086566
	H119	H	0.383354	0.901879	0.909143
	C120	C	0.378177	0.005747	0.620846
	C121	C	0.621552	0.988735	0.621185
	C122	C	0.621107	0.005188	0.377973
	C123	C	0.379182	0.988969	0.377582
	C124	C	0.621490	0.377295	0.006764
	C125	C	0.621887	0.620309	0.989858
	C126	C	0.378177	0.619872	0.007080
	C127	C	0.378103	0.376102	0.989952
	C128	C	0.008632	0.618541	0.375603
	C129	C	0.992058	0.618216	0.618637
	C130	C	0.008713	0.375036	0.618983
	C131	C	0.991816	0.375068	0.375188
	C132	C	0.879229	0.506336	0.118819
	C133	C	0.121839	0.488976	0.118599
	C134	C	0.121986	0.505775	0.875466
	C135	C	0.878426	0.489853	0.875735
	C136	C	0.121890	0.875185	0.506298
	C137	C	0.122406	0.118938	0.488838
	C138	C	0.879009	0.118120	0.506063
	C139	C	0.878280	0.874619	0.490072
	C140	C	0.508195	0.119487	0.877280
	C141	C	0.491494	0.119838	0.121217
	C142	C	0.508082	0.876813	0.120860
	C143	C	0.491733	0.877215	0.877565
	C144	C	0.379837	0.882705	0.676387
	C145	C	0.619716	0.112303	0.675716
	C146	C	0.619264	0.882649	0.321631
	C147	C	0.380416	0.112167	0.322016
	C148	C	0.676986	0.378945	0.884112
	C149	C	0.678274	0.618513	0.112105
	C150	C	0.323659	0.617448	0.883890
	C151	C	0.322502	0.378216	0.112678
	C152	C	0.885471	0.673830	0.377539
	C153	C	0.115514	0.673539	0.616429
	C154	C	0.885349	0.320188	0.616194
	C155	C	0.114774	0.319204	0.377099
	C156	C	0.885588	0.377266	0.674245
	C157	C	0.115097	0.616649	0.674434
	C158	C	0.885519	0.616372	0.319960
	C159	C	0.114768	0.376985	0.319582
	C160	C	0.380199	0.676083	0.884741
	C161	C	0.619624	0.675074	0.112715
	C162	C	0.619667	0.320964	0.884425
	C163	C	0.380606	0.321108	0.113074
	C164	C	0.675899	0.881947	0.380075
	C165	C	0.677844	0.111800	0.618605
	C166	C	0.322661	0.882359	0.618464
	C167	C	0.323911	0.111943	0.380115
	C168	C	0.880118	0.383219	0.174195
	C169	C	0.120152	0.611738	0.174829
	C170	C	0.119335	0.382126	0.820909
	C171	C	0.880468	0.612010	0.818669
	C172	C	0.177335	0.878106	0.383525
	C173	C	0.177440	0.117008	0.612035
	C174	C	0.823154	0.115250	0.383522
	C175	C	0.822727	0.875772	0.612686
	C176	C	0.385016	0.174961	0.879738
	C177	C	0.614530	0.175640	0.118758
	C178	C	0.384971	0.821157	0.118878
	C179	C	0.614784	0.821776	0.880340
	C180	C	0.384804	0.878689	0.176437
	C181	C	0.614496	0.118148	0.176675
	C182	C	0.385431	0.118375	0.821144
	C183	C	0.614713	0.878447	0.821942
	C184	C	0.881307	0.172684	0.382890
	C185	C	0.119819	0.174476	0.611694
	C186	C	0.120067	0.820050	0.383317
	C187	C	0.881263	0.819035	0.612619
	C188	C	0.177389	0.382672	0.878092
	C189	C	0.176146	0.612808	0.115821
	C190	C	0.822485	0.383665	0.116926
	C191	C	0.823227	0.612954	0.876983
	C192	C	0.400893	0.091745	0.598429
	C193	C	0.598679	0.902987	0.599296
	C194	C	0.599123	0.091348	0.400416
	C195	C	0.401661	0.902721	0.399496
	C196	C	0.599025	0.400056	0.092295
	C197	C	0.599356	0.598215	0.904415
	C198	C	0.399848	0.597390	0.092986
	C199	C	0.400663	0.398326	0.904162
	C200	C	0.094378	0.596192	0.397908
	C201	C	0.906408	0.595513	0.596463
	C202	C	0.094569	0.397377	0.596684
	C203	C	0.905844	0.397317	0.397604
	C204	C	0.902302	0.592105	0.096385
	C205	C	0.099604	0.403072	0.096355
	C206	C	0.099824	0.591751	0.897424
	C207	C	0.900655	0.403960	0.898819
	C208	C	0.098956	0.897400	0.591559
	C209	C	0.100400	0.096372	0.403482
	C210	C	0.901751	0.095693	0.591548
	C211	C	0.900415	0.897437	0.404330
	C212	C	0.593914	0.096849	0.899931
	C213	C	0.405792	0.096858	0.098781
	C214	C	0.593995	0.899317	0.098845
	C215	C	0.406115	0.900129	0.899746
	Zn216	Zn	0.499724	-0.002440	0.749188
	Zn217	Zn	0.499922	-0.002440	0.249409
	Zn218	Zn	0.750450	0.498515	-0.002321
	Zn219	Zn	0.250310	0.497589	-0.002128
	Zn220	Zn	0.000385	0.746636	0.497474
	Zn221	Zn	0.000536	0.246939	0.496982
	Zn222	Zn	0.000350	0.496679	0.747236
	Zn223	Zn	0.000498	0.497023	0.247158
	Zn224	Zn	0.499738	0.748681	-0.000895
	Zn225	Zn	0.499901	0.247965	-0.000958
	Zn226	Zn	0.749670	-0.003497	0.499253
	Zn227	Zn	0.250583	-0.002982	0.498441
	N228	N	0.413378	0.960432	0.678176
	N229	N	0.585529	0.034866	0.677516
	N230	N	0.586200	0.960440	0.320149
	N231	N	0.414318	0.034562	0.320366
	N232	N	0.678141	0.413272	0.961207
	N233	N	0.680038	0.585447	0.034617
	N234	N	0.322366	0.583028	0.960999
	N235	N	0.320953	0.411794	0.035239
	N236	N	0.962771	0.675432	0.411503
	N237	N	0.037973	0.674903	0.582549
	N238	N	0.962748	0.318721	0.582456
	N239	N	0.037243	0.318080	0.411124
	N240	N	0.963537	0.410705	0.676111
	N241	N	0.037398	0.583095	0.676184
	N242	N	0.963270	0.582691	0.318680
	N243	N	0.037366	0.410949	0.318379
	N244	N	0.413196	0.677773	0.962452
	N245	N	0.585224	0.676276	0.035776
	N246	N	0.585544	0.320014	0.961626
	N247	N	0.414451	0.319753	0.035690
	N248	N	0.677048	0.959265	0.414444
	N249	N	0.679123	0.034048	0.585421
	N250	N	0.321590	0.959977	0.584630
	N251	N	0.323087	0.034434	0.413730
	N252	N	0.914758	0.460558	0.175634
	N253	N	0.087135	0.533780	0.176550
	N254	N	0.085875	0.459757	0.818918
	N255	N	0.914158	0.534436	0.817918
	N256	N	0.178682	0.911425	0.460956
	N257	N	0.179233	0.083264	0.534770
	N258	N	0.821354	0.082268	0.461278
	N259	N	0.820829	0.909671	0.535389
	N260	N	0.462320	0.175807	0.913888
	N261	N	0.536978	0.176664	0.084957
	N262	N	0.462559	0.819916	0.085175
	N263	N	0.537517	0.820824	0.914192
	N264	N	0.462358	0.912606	0.177800
	N265	N	0.536930	0.084439	0.178733
	N266	N	0.463115	0.084641	0.819426
	N267	N	0.537008	0.912091	0.820110
	N268	N	0.915251	0.174380	0.460104
	N269	N	0.086342	0.175811	0.534261
	N270	N	0.086090	0.818300	0.460537
	N271	N	0.914921	0.818046	0.535279
	N272	N	0.179152	0.460479	0.911320
	N273	N	0.177424	0.535449	0.081648
	N274	N	0.822079	0.461122	0.083091
	N275	N	0.822013	0.535864	0.911713
	O276	O	0.969458	1.019936	-0.097786
	H277	H	0.961862	1.028885	-0.108319
	H278	H	0.969965	1.030553	-0.091649
	O279	O	0.387712	0.433418	0.584659
	H280	H	0.389087	0.435892	0.580848
	H281	H	0.380263	0.432748	0.583259
	O282	O	0.051386	-0.011469	0.029918
	H283	H	0.055237	-0.018199	0.024480
	H284	H	0.046816	-0.008572	0.023091
	O285	O	0.543673	0.478959	0.470944
	H286	H	0.542366	0.475160	0.473667
	H287	H	0.540479	0.484177	0.468587
	O288	O	-0.039291	-0.080800	-0.019686
	H289	H	-0.036152	-0.081750	-0.025890
	H290	H	-0.043248	-0.089347	-0.022276
	O291	O	0.006356	1.026270	-0.051536
	H292	H	0.013797	1.033680	-0.060941
	H293	H	0.001957	1.030844	-0.047897
	O294	O	0.002701	0.948315	-0.033244
	H295	H	-0.003439	0.933927	-0.030384
	H296	H	0.000855	0.951475	-0.038930
	O297	O	0.496118	0.509188	0.496666
	H298	H	0.505813	0.509803	0.491645
	H299	H	0.494681	0.507606	0.501952
	O300	O	0.548040	0.467589	0.561069
	H301	H	0.552231	0.463972	0.551019
	H302	H	0.548689	0.467546	0.564946
	O303	O	0.939220	-0.058799	0.999217
	H304	H	0.939522	-0.052451	0.998248
	H305	H	0.943141	-0.054010	0.998804
	O306	O	0.044641	1.005002	1.013917
	H307	H	0.034546	1.010519	1.020307
	H308	H	0.039784	0.995811	1.005405
	O309	O	-0.031800	1.027309	0.964138
	H310	H	-0.035839	1.023624	0.953073
	H311	H	-0.017605	1.033666	0.959488
	O312	O	0.005239	0.031450	0.889256
	H313	H	0.006624	0.027082	0.888532
	H314	H	0.012327	0.034607	0.893709
	O315	O	0.478763	0.457923	0.485654
	H316	H	0.472584	0.456476	0.483950
	H317	H	0.478216	0.462640	0.489937
	O318	O	-0.050331	-0.107473	0.994744
	H319	H	-0.050470	-0.105510	1.002859
	H320	H	-0.068354	-0.123161	0.999844
	O321	O	0.542869	0.493924	0.505265
	H322	H	0.536180	0.497196	0.510111
	H323	H	0.543548	0.491813	0.499740
	O324	O	1.058446	-0.042178	1.000685
	H325	H	1.058614	-0.028907	1.004450
	H326	H	1.055312	-0.057750	1.010121
	O327	O	1.068612	0.998187	0.878229
	H328	H	1.081485	0.989422	0.876198
	H329	H	1.070335	0.991828	0.882641
	O330	O	0.440984	0.430464	0.529414
	H331	H	0.436270	0.428675	0.529076
	H332	H	0.448867	0.426150	0.535333
	O333	O	0.478235	0.516662	0.570415
	H334	H	0.473988	0.524215	0.576569
	H335	H	0.471276	0.520864	0.583411
	O336	O	0.455600	0.523446	0.505539
	H337	H	0.448719	0.529566	0.506753
	H338	H	0.461938	0.521318	0.504202
	O339	O	0.519375	0.454170	0.549593
	H340	H	0.527192	0.452687	0.553825
	H341	H	0.522377	0.454547	0.538470
	O342	O	0.598000	0.547178	0.505828
	H343	H	0.601140	0.552255	0.506057
	H344	H	0.592930	0.537899	0.509284
	O345	O	0.491457	0.478084	0.538040
	H346	H	0.491856	0.480278	0.543708
	H347	H	0.489735	0.475371	0.528750
