data_Molecule from HDF5

_cell_length_a		16.382943
_cell_length_b		16.335165
_cell_length_c		16.434590
_cell_angle_alpha	90.092127
_cell_angle_beta	90.029256
_cell_angle_gamma	89.812162
_symmetry_space_group_name_H-M	'P 1'
_symmetry_Int_Tables_number		1

loop_
	_symmetry_equiv_pos_as_xyz
	x,y,z

loop_
	_atom_site_label
	_atom_site_type_symbol
	_atom_site_fract_x
	_atom_site_fract_y
	_atom_site_fract_z
	H0	H	0.396167	0.838784	0.715831
	H1	H	0.606080	0.158051	0.715530
	H2	H	0.604796	0.836967	0.274601
	H3	H	0.398324	0.159334	0.277112
	H4	H	0.720880	0.396082	0.836061
	H5	H	0.719020	0.602891	0.156851
	H6	H	0.278722	0.603347	0.837432
	H7	H	0.282718	0.395829	0.155472
	H8	H	0.838720	0.715264	0.396285
	H9	H	0.160954	0.716500	0.598667
	H10	H	0.839093	0.282538	0.596935
	H11	H	0.161037	0.279840	0.394492
	H12	H	0.841392	0.396013	0.716212
	H13	H	0.161052	0.602207	0.715298
	H14	H	0.839724	0.602632	0.277523
	H15	H	0.161008	0.395568	0.278243
	H16	H	0.395751	0.717442	0.835825
	H17	H	0.601271	0.718202	0.156033
	H18	H	0.605873	0.278961	0.835493
	H19	H	0.400012	0.279351	0.154997
	H20	H	0.719822	0.836794	0.391488
	H21	H	0.720083	0.158575	0.597593
	H22	H	0.282247	0.837987	0.597411
	H23	H	0.281196	0.158596	0.392230
	H24	H	0.897426	0.338092	0.214823
	H25	H	0.102935	0.659066	0.215939
	H26	H	0.110794	0.340694	0.772532
	H27	H	0.895362	0.659321	0.775822
	H28	H	0.218239	0.894193	0.334189
	H29	H	0.223740	0.104219	0.652953
	H30	H	0.779808	0.102481	0.334906
	H31	H	0.777394	0.891867	0.652975
	H32	H	0.342266	0.218538	0.891552
	H33	H	0.662572	0.217197	0.099699
	H34	H	0.340356	0.780421	0.097254
	H35	H	0.661268	0.778580	0.892733
	H36	H	0.340786	0.895540	0.212835
	H37	H	0.660969	0.101918	0.216429
	H38	H	0.343084	0.104683	0.774530
	H39	H	0.660976	0.892990	0.774830
	H40	H	0.894227	0.220197	0.336448
	H41	H	0.106017	0.218800	0.654586
	H42	H	0.101735	0.778168	0.335116
	H43	H	0.895192	0.778075	0.654957
	H44	H	0.222041	0.339587	0.892392
	H45	H	0.220822	0.658857	0.101445
	H46	H	0.781633	0.339304	0.100493
	H47	H	0.781874	0.660677	0.894787
	H48	H	0.404749	0.114645	0.582959
	H49	H	0.588856	0.885948	0.578915
	H50	H	0.590614	0.113177	0.402587
	H51	H	0.417697	0.887418	0.408587
	H52	H	0.583377	0.406885	0.106794
	H53	H	0.596868	0.588412	0.881112
	H54	H	0.411704	0.589081	0.109425
	H55	H	0.411740	0.405341	0.881014
	H56	H	0.113530	0.585313	0.404359
	H57	H	0.886551	0.586802	0.588800
	H58	H	0.109136	0.418689	0.579925
	H59	H	0.885002	0.409639	0.401375
	H60	H	0.118246	0.410687	0.596962
	H61	H	0.885658	0.589837	0.587160
	H62	H	0.116374	0.590263	0.403083
	H63	H	0.884696	0.405311	0.406311
	H64	H	0.410666	0.590596	0.109614
	H65	H	0.590210	0.583639	0.884933
	H66	H	0.595781	0.402012	0.112736
	H67	H	0.408399	0.412265	0.882131
	H68	H	0.586395	0.110599	0.404406
	H69	H	0.594101	0.882620	0.585869
	H70	H	0.417103	0.112434	0.589505
	H71	H	0.399470	0.880933	0.405801
	H72	H	0.911052	0.610925	0.080803
	H73	H	0.098749	0.383143	0.084568
	H74	H	0.088797	0.609696	0.915918
	H75	H	0.909160	0.385564	0.908028
	H76	H	0.089931	0.904082	0.609988
	H77	H	0.089574	0.091692	0.380639
	H78	H	0.906236	0.091291	0.609982
	H79	H	0.913417	0.906169	0.382783
	H80	H	0.614442	0.083062	0.904650
	H81	H	0.387687	0.089589	0.085255
	H82	H	0.616573	0.904316	0.084442
	H83	H	0.385140	0.902558	0.904624
	H84	H	0.612670	0.911208	0.080968
	H85	H	0.389161	0.089754	0.083433
	H86	H	0.616739	0.088193	0.904232
	H87	H	0.390333	0.912615	0.909089
	H88	H	0.908809	0.084433	0.607222
	H89	H	0.093259	0.085726	0.382110
	H90	H	0.096229	0.909941	0.609549
	H91	H	0.908293	0.906015	0.380273
	H92	H	0.095641	0.615555	0.903946
	H93	H	0.090483	0.382495	0.093602
	H94	H	0.903072	0.617013	0.089913
	H95	H	0.912646	0.385905	0.903421
	H96	H	0.415387	0.108304	0.576196
	H97	H	0.584918	0.884787	0.587417
	H98	H	0.590298	0.110925	0.407872
	H99	H	0.412462	0.880088	0.391082
	H100	H	0.595204	0.415850	0.108139
	H101	H	0.589183	0.592241	0.882060
	H102	H	0.410501	0.589055	0.109454
	H103	H	0.416015	0.411513	0.883527
	H104	H	0.113982	0.589348	0.408813
	H105	H	0.887852	0.587561	0.584991
	H106	H	0.116141	0.398253	0.579763
	H107	H	0.888119	0.410972	0.407131
	H108	H	0.915977	0.613511	0.093234
	H109	H	0.087745	0.388100	0.082800
	H110	H	0.080878	0.611494	0.903092
	H111	H	0.914939	0.387142	0.909010
	H112	H	0.088548	0.911802	0.606429
	H113	H	0.086184	0.086365	0.383844
	H114	H	0.913696	0.090483	0.607916
	H115	H	0.910505	0.910328	0.382423
	H116	H	0.614316	0.086746	0.908849
	H117	H	0.388340	0.088321	0.084471
	H118	H	0.614661	0.911346	0.089026
	H119	H	0.385996	0.912269	0.898070
	C120	C	0.380537	0.006356	0.614962
	C121	C	0.621997	0.990069	0.615968
	C122	C	0.621297	0.005737	0.373331
	C123	C	0.378912	0.989439	0.371879
	C124	C	0.623635	0.376521	0.004084
	C125	C	0.621877	0.620110	0.988307
	C126	C	0.379208	0.620458	0.004058
	C127	C	0.380953	0.378256	0.987574
	C128	C	0.008249	0.619476	0.374820
	C129	C	0.992183	0.619788	0.617718
	C130	C	0.009292	0.377455	0.617736
	C131	C	0.992145	0.377386	0.374475
	C132	C	0.879218	0.507590	0.118526
	C133	C	0.122904	0.490413	0.118404
	C134	C	0.121911	0.507183	0.875479
	C135	C	0.880127	0.491597	0.875548
	C136	C	0.122413	0.876283	0.503132
	C137	C	0.122026	0.119637	0.486984
	C138	C	0.877724	0.120438	0.503047
	C139	C	0.878531	0.876032	0.486755
	C140	C	0.510288	0.118996	0.874003
	C141	C	0.493623	0.120398	0.116883
	C142	C	0.508825	0.877688	0.115527
	C143	C	0.492498	0.876101	0.872286
	C144	C	0.378391	0.886544	0.675214
	C145	C	0.624252	0.110509	0.675472
	C146	C	0.622984	0.885071	0.314346
	C147	C	0.378737	0.110936	0.315300
	C148	C	0.682343	0.376404	0.884122
	C149	C	0.679971	0.621623	0.108754
	C150	C	0.318850	0.621911	0.884721
	C151	C	0.322195	0.376853	0.107539
	C152	C	0.887274	0.677137	0.375875
	C153	C	0.113094	0.677484	0.617587
	C154	C	0.887906	0.320366	0.617288
	C155	C	0.112850	0.318787	0.374569
	C156	C	0.888883	0.377034	0.676363
	C157	C	0.112869	0.620986	0.676143
	C158	C	0.887773	0.620641	0.316971
	C159	C	0.113009	0.376387	0.316908
	C160	C	0.377433	0.678562	0.883861
	C161	C	0.621384	0.679082	0.108196
	C162	C	0.624961	0.318175	0.883709
	C163	C	0.380691	0.319099	0.107456
	C164	C	0.680401	0.884951	0.372214
	C165	C	0.681045	0.110473	0.616982
	C166	C	0.321531	0.885908	0.616477
	C167	C	0.320555	0.110461	0.372535
	C168	C	0.878468	0.386814	0.176459
	C169	C	0.122737	0.611030	0.176898
	C170	C	0.126809	0.388046	0.813744
	C171	C	0.877189	0.611441	0.815709
	C172	C	0.179687	0.875210	0.382516
	C173	C	0.182738	0.121731	0.606030
	C174	C	0.818885	0.121488	0.383107
	C175	C	0.817899	0.873986	0.605881
	C176	C	0.390472	0.179414	0.872448
	C177	C	0.614092	0.178710	0.118705
	C178	C	0.388317	0.819804	0.115875
	C179	C	0.612827	0.817106	0.872520
	C180	C	0.388541	0.876818	0.173761
	C181	C	0.613263	0.121150	0.176784
	C182	C	0.390558	0.122513	0.814402
	C183	C	0.612774	0.874183	0.813895
	C184	C	0.876117	0.180092	0.383776
	C185	C	0.123993	0.178931	0.606665
	C186	C	0.121475	0.817612	0.383012
	C187	C	0.876365	0.816919	0.606678
	C188	C	0.182524	0.387422	0.873239
	C189	C	0.181110	0.610990	0.119614
	C190	C	0.820842	0.387166	0.119307
	C191	C	0.820458	0.612048	0.874754
	C192	C	0.405243	0.090040	0.590046
	C193	C	0.596707	0.906206	0.591176
	C194	C	0.596457	0.089586	0.398067
	C195	C	0.402879	0.904921	0.395192
	C196	C	0.598761	0.401042	0.087646
	C197	C	0.598779	0.595235	0.904366
	C198	C	0.403866	0.596548	0.087767
	C199	C	0.405201	0.402724	0.903917
	C200	C	0.092738	0.595346	0.398500
	C201	C	0.908373	0.595290	0.593937
	C202	C	0.092730	0.401994	0.592912
	C203	C	0.907860	0.401520	0.397929
	C204	C	0.903102	0.591860	0.094635
	C205	C	0.099151	0.406324	0.093960
	C206	C	0.095918	0.590482	0.900721
	C207	C	0.905202	0.407951	0.899878
	C208	C	0.098717	0.901490	0.586815
	C209	C	0.096933	0.095012	0.403718
	C210	C	0.902369	0.095777	0.586533
	C211	C	0.903422	0.900501	0.403724
	C212	C	0.593449	0.093402	0.898819
	C213	C	0.410072	0.096118	0.091727
	C214	C	0.592801	0.901953	0.091506
	C215	C	0.408859	0.901572	0.896817
	Zn216	Zn	0.501350	-0.001296	0.744635
	Zn217	Zn	0.500818	-0.002132	0.244428
	Zn218	Zn	0.751274	0.498992	-0.003098
	Zn219	Zn	0.251080	0.499310	-0.003912
	Zn220	Zn	0.000323	0.747833	0.496524
	Zn221	Zn	-0.000172	0.248875	0.495651
	Zn222	Zn	0.001322	0.499148	0.746489
	Zn223	Zn	0.000432	0.498455	0.245996
	Zn224	Zn	0.499997	0.748972	-0.004882
	Zn225	Zn	0.502422	0.247953	-0.005416
	Zn226	Zn	0.750032	-0.002263	0.494583
	Zn227	Zn	0.251113	-0.002229	0.494534
	N228	N	0.414164	0.962507	0.674504
	N229	N	0.588396	0.034487	0.674796
	N230	N	0.587070	0.961255	0.314891
	N231	N	0.413939	0.034535	0.314651
	N232	N	0.681738	0.411742	0.960226
	N233	N	0.680450	0.585716	0.033021
	N234	N	0.319937	0.586499	0.960502
	N235	N	0.322421	0.412800	0.032094
	N236	N	0.963374	0.676504	0.411129
	N237	N	0.036833	0.677206	0.582282
	N238	N	0.963908	0.320269	0.581903
	N239	N	0.036682	0.319251	0.409384
	N240	N	0.965354	0.411352	0.677113
	N241	N	0.036777	0.585979	0.676394
	N242	N	0.964188	0.585527	0.316393
	N243	N	0.036613	0.411714	0.316368
	N244	N	0.414235	0.677761	0.958968
	N245	N	0.586246	0.678338	0.032219
	N246	N	0.589484	0.317866	0.959458
	N247	N	0.416617	0.319801	0.031866
	N248	N	0.679597	0.960957	0.408170
	N249	N	0.679885	0.034553	0.580751
	N250	N	0.322801	0.961403	0.579596
	N251	N	0.320274	0.033706	0.406747
	N252	N	0.914087	0.462801	0.176103
	N253	N	0.087235	0.535082	0.176190
	N254	N	0.089537	0.463576	0.815022
	N255	N	0.913875	0.535600	0.816294
	N256	N	0.180242	0.911077	0.458241
	N257	N	0.181699	0.085503	0.530508
	N258	N	0.819849	0.084927	0.458514
	N259	N	0.819277	0.910322	0.530563
	N260	N	0.465997	0.177372	0.908880
	N261	N	0.538828	0.178181	0.081886
	N262	N	0.464292	0.820236	0.080521
	N263	N	0.536759	0.818010	0.907753
	N264	N	0.464517	0.912191	0.173630
	N265	N	0.537428	0.085791	0.175813
	N266	N	0.465891	0.085765	0.815095
	N267	N	0.536702	0.910005	0.813364
	N268	N	0.912171	0.179273	0.459212
	N269	N	0.086811	0.177655	0.531718
	N270	N	0.086600	0.818005	0.459193
	N271	N	0.913310	0.817915	0.531764
	N272	N	0.179355	0.462412	0.911055
	N273	N	0.181376	0.534813	0.083960
	N274	N	0.821125	0.463236	0.083976
	N275	N	0.822278	0.536520	0.911373
	O276	O	0.534011	0.669399	0.526833
	H277	H	0.541587	0.676624	0.522152
	H278	H	0.537540	0.679115	0.517721
	O279	O	0.459884	0.479180	0.415929
	H280	H	0.469428	0.501468	0.406006
	H281	H	0.455613	0.473409	0.425759
	O282	O	0.569773	0.441826	0.546366
	H283	H	0.567881	0.442623	0.548998
	H284	H	0.562719	0.448036	0.550977
	O285	O	1.010661	-0.208260	-0.177235
	H286	H	1.033343	-0.217182	-0.178144
	H287	H	1.037210	-0.213006	-0.186715
	O288	O	-0.125743	-0.166341	1.028158
	H289	H	-0.120410	-0.156266	1.019108
	H290	H	-0.123148	-0.174053	1.043240
	O291	O	0.339232	0.637346	0.406432
	H292	H	0.340844	0.648151	0.418087
	H293	H	0.336624	0.641345	0.398839
	O294	O	0.522179	0.338922	0.372525
	H295	H	0.519619	0.325082	0.368119
	H296	H	0.521624	0.331791	0.395032
	O297	O	0.980311	0.898550	1.044643
	H298	H	0.968297	0.894130	1.061050
	H299	H	0.984078	0.905644	1.034099
	O300	O	-0.145547	0.006529	-0.137866
	H301	H	-0.154990	0.011991	-0.160787
	H302	H	-0.113828	-0.018020	-0.148530
	O303	O	0.559427	0.507981	0.615469
	H304	H	0.562080	0.508572	0.608977
	H305	H	0.562411	0.511775	0.619840
	O306	O	0.818331	0.112006	-0.188573
	H307	H	0.824015	0.111207	-0.170158
	H308	H	0.809404	0.069039	-0.185285
	O309	O	0.482072	0.401568	0.602079
	H310	H	0.501980	0.405445	0.596946
	H311	H	0.480975	0.389449	0.602828
	O312	O	0.787740	1.172177	-0.062872
	H313	H	0.791669	1.157934	-0.065581
	H314	H	0.767108	1.189271	-0.063729
	O315	O	0.629426	0.578849	0.589597
	H316	H	0.616913	0.591011	0.589603
	H317	H	0.630931	0.574524	0.590027
	O318	O	0.354983	0.617170	0.483642
	H319	H	0.356955	0.623611	0.467695
	H320	H	0.356518	0.630654	0.486056
	O321	O	1.061269	0.015375	1.056884
	H322	H	1.050169	0.006533	1.045290
	H323	H	1.065263	0.019680	1.056539
	O324	O	-0.034141	0.171330	1.036526
	H325	H	-0.026301	0.170096	1.033755
	H326	H	-0.033736	0.170937	1.037171
	O327	O	0.394764	0.501359	0.681397
	H328	H	0.389809	0.515483	0.694025
	H329	H	0.410615	0.514934	0.678687
	O330	O	0.642021	0.361636	0.602950
	H331	H	0.625828	0.356180	0.586517
	H332	H	0.658017	0.372078	0.600699
	O333	O	1.091452	1.013341	0.797060
	H334	H	1.087224	1.014285	0.788267
	H335	H	1.082567	1.028270	0.801600
	O336	O	0.311064	0.410237	0.410524
	H337	H	0.305350	0.405121	0.417531
	H338	H	0.319464	0.415402	0.428783
	O339	O	1.013092	-0.099479	1.110475
	H340	H	1.010039	-0.093369	1.111293
	H341	H	1.024246	-0.092304	1.106776
	O342	O	0.148130	1.015157	0.814569
	H343	H	0.126204	1.047143	0.814546
	H344	H	0.149098	1.018161	0.828557
	O345	O	-0.118506	1.100463	1.105762
	H346	H	-0.125343	1.091825	1.085592
	H347	H	-0.111517	1.116874	1.111707
	O348	O	0.502164	0.522460	0.312097
	H349	H	0.500912	0.513620	0.310738
	H350	H	0.512450	0.510068	0.308228
	O351	O	0.161615	0.137063	0.183700
	H352	H	0.169033	0.155452	0.188080
	H353	H	0.137540	0.140876	0.178216
	O354	O	0.898735	0.925402	0.176689
	H355	H	0.886745	0.923319	0.172815
	H356	H	0.886106	0.938659	0.180545
	O357	O	-0.027511	1.061084	-0.068635
	H358	H	-0.011354	1.063850	-0.077534
	H359	H	-0.024707	1.072783	-0.063280
	O360	O	0.479365	0.435101	0.482034
	H361	H	0.481713	0.435902	0.477007
	H362	H	0.481722	0.431821	0.473950
	O363	O	0.604941	0.434952	0.463124
	H364	H	0.612698	0.433306	0.454316
	H365	H	0.586755	0.442043	0.450413
	O366	O	0.590439	0.514505	0.537985
	H367	H	0.588813	0.510301	0.541238
	H368	H	0.590132	0.516659	0.528910
	O369	O	0.661652	0.591987	0.480447
	H370	H	0.656929	0.587653	0.474509
	H371	H	0.662126	0.588717	0.489805
	O372	O	0.444304	0.676245	0.564689
	H373	H	0.455364	0.691026	0.566418
	H374	H	0.438870	0.672004	0.562706
	O375	O	0.452558	0.324311	0.521273
	H376	H	0.444139	0.332771	0.524972
	H377	H	0.437248	0.324540	0.536720
	O378	O	0.526110	0.531512	0.574116
	H379	H	0.519354	0.529223	0.575249
	H380	H	0.519905	0.527739	0.573893
	O381	O	0.609372	0.397148	0.385880
	H382	H	0.601368	0.398202	0.395599
	H383	H	0.617564	0.398498	0.365023
	O384	O	-0.049055	1.200235	0.778287
	H385	H	-0.087461	1.195027	0.788818
	H386	H	-0.052092	1.229741	0.748276
	O387	O	1.013295	0.913585	0.147886
	H388	H	0.996330	0.908595	0.163615
	H389	H	1.026416	0.932798	0.142072
	O390	O	0.392359	0.603627	0.451820
	H391	H	0.377845	0.610467	0.453418
	H392	H	0.394233	0.606205	0.446386
	O393	O	0.820401	-0.009631	1.081713
	H394	H	0.814729	-0.002608	1.084848
	H395	H	0.815281	-0.005184	1.052870
	O396	O	0.192259	0.809108	0.879246
	H397	H	0.201046	0.801534	0.898447
	H398	H	0.179663	0.835703	0.887374
	O399	O	0.294792	0.682975	0.602575
	H400	H	0.291133	0.709663	0.591996
	H401	H	0.299466	0.682648	0.617167
	O402	O	0.987775	-0.012115	0.936473
	H403	H	0.990171	-0.019603	0.935897
	H404	H	0.993305	-0.022675	0.940911
	O405	O	0.166714	0.167392	-0.077332
	H406	H	0.164186	0.169013	-0.068693
	H407	H	0.161902	0.164315	-0.074482
	O408	O	1.193004	0.984861	1.110530
	H409	H	1.193859	0.997841	1.105300
	H410	H	1.215813	0.975529	1.121228
	O411	O	1.009768	0.848091	0.044073
	H412	H	1.002766	0.848852	0.052587
	H413	H	1.002688	0.857394	0.056493
	O414	O	0.102827	0.183944	0.980759
	H415	H	0.112602	0.195112	0.970740
	H416	H	0.092130	0.186880	0.971573
	O417	O	0.295302	0.285867	0.645505
	H418	H	0.286526	0.297804	0.654912
	H419	H	0.310462	0.288331	0.665255
	O420	O	-0.175463	0.852749	-0.046129
	H421	H	-0.183965	0.851391	-0.035429
	H422	H	-0.154201	0.834962	-0.052448
	O423	O	1.111705	-0.106231	0.057305
	H424	H	1.121829	-0.104317	0.061804
	H425	H	1.094452	-0.100419	0.057474
	O426	O	0.101215	0.172320	1.178004
	H427	H	0.095367	0.165158	1.181789
	H428	H	0.113927	0.184930	1.178958
	O429	O	0.590647	0.502171	0.369858
	H430	H	0.592984	0.508033	0.373914
	H431	H	0.596488	0.489600	0.369206
