data_Molecule from HDF5

_cell_length_a		16.205430
_cell_length_b		16.353502
_cell_length_c		16.233110
_cell_angle_alpha	90.200675
_cell_angle_beta	90.193111
_cell_angle_gamma	89.830688
_symmetry_space_group_name_H-M	'P 1'
_symmetry_Int_Tables_number		1

loop_
	_symmetry_equiv_pos_as_xyz
	x,y,z

loop_
	_atom_site_label
	_atom_site_type_symbol
	_atom_site_fract_x
	_atom_site_fract_y
	_atom_site_fract_z
	H0	H	0.388947	0.836216	0.712638
	H1	H	0.587869	0.161898	0.716837
	H2	H	0.586249	0.835390	0.284555
	H3	H	0.388857	0.162285	0.282762
	H4	H	0.701951	0.400760	0.832448
	H5	H	0.701569	0.595775	0.162298
	H6	H	0.274717	0.596253	0.833310
	H7	H	0.274607	0.400804	0.161048
	H8	H	0.824647	0.717497	0.395499
	H9	H	0.151432	0.715236	0.598250
	H10	H	0.823463	0.286290	0.596396
	H11	H	0.150518	0.282085	0.396279
	H12	H	0.822873	0.404711	0.709532
	H13	H	0.151629	0.599520	0.712178
	H14	H	0.823492	0.599581	0.283286
	H15	H	0.152609	0.402013	0.284774
	H16	H	0.386516	0.715263	0.834683
	H17	H	0.589651	0.714759	0.161493
	H18	H	0.591505	0.279488	0.835016
	H19	H	0.390429	0.284819	0.161553
	H20	H	0.703244	0.836819	0.399554
	H21	H	0.702621	0.162865	0.599312
	H22	H	0.273112	0.836270	0.595465
	H23	H	0.272604	0.162911	0.398801
	H24	H	0.890026	0.337858	0.212128
	H25	H	0.087218	0.663984	0.213760
	H26	H	0.088463	0.337747	0.780553
	H27	H	0.888105	0.664416	0.783760
	H28	H	0.199680	0.902619	0.333198
	H29	H	0.201787	0.098412	0.661888
	H30	H	0.772139	0.098788	0.333989
	H31	H	0.775625	0.905235	0.662833
	H32	H	0.325232	0.214147	0.897939
	H33	H	0.652110	0.214352	0.100859
	H34	H	0.324219	0.784242	0.096249
	H35	H	0.652141	0.781550	0.897263
	H36	H	0.323506	0.900878	0.210726
	H37	H	0.652120	0.096946	0.213591
	H38	H	0.324445	0.097689	0.784143
	H39	H	0.652298	0.898650	0.782532
	H40	H	0.885719	0.215350	0.334171
	H41	H	0.087953	0.216146	0.661408
	H42	H	0.088033	0.783598	0.334989
	H43	H	0.888182	0.785545	0.661542
	H44	H	0.202491	0.336585	0.897918
	H45	H	0.204432	0.662905	0.096402
	H46	H	0.776657	0.336285	0.094112
	H47	H	0.770434	0.662204	0.898451
	H48	H	0.394002	0.115174	0.590622
	H49	H	0.586521	0.884705	0.583194
	H50	H	0.572531	0.111530	0.410234
	H51	H	0.378140	0.880090	0.406910
	H52	H	0.587850	0.405368	0.116345
	H53	H	0.580339	0.592887	0.880287
	H54	H	0.405776	0.597429	0.113222
	H55	H	0.394804	0.403831	0.879843
	H56	H	0.105968	0.591065	0.401487
	H57	H	0.870358	0.592515	0.589869
	H58	H	0.102919	0.404651	0.582317
	H59	H	0.871730	0.410710	0.403929
	H60	H	0.102537	0.414885	0.589802
	H61	H	0.869649	0.595530	0.591192
	H62	H	0.105784	0.598961	0.406846
	H63	H	0.868659	0.405585	0.401353
	H64	H	0.389563	0.596660	0.118292
	H65	H	0.580854	0.588786	0.881680
	H66	H	0.580277	0.409286	0.112830
	H67	H	0.397754	0.406043	0.881466
	H68	H	0.588419	0.117019	0.408177
	H69	H	0.584983	0.881843	0.597500
	H70	H	0.394532	0.115686	0.593247
	H71	H	0.398917	0.881080	0.388534
	H72	H	0.895645	0.617352	0.095622
	H73	H	0.085931	0.382243	0.095066
	H74	H	0.073968	0.615560	0.899915
	H75	H	0.889424	0.380809	0.894407
	H76	H	0.071823	0.898738	0.614355
	H77	H	0.087413	0.095327	0.377014
	H78	H	0.893593	0.088831	0.613620
	H79	H	0.900128	0.901210	0.380976
	H80	H	0.605714	0.095561	0.913733
	H81	H	0.371110	0.088119	0.094782
	H82	H	0.603099	0.905624	0.084106
	H83	H	0.369012	0.902243	0.901302
	H84	H	0.604913	0.911100	0.094863
	H85	H	0.368939	0.098193	0.091142
	H86	H	0.601868	0.081029	0.909872
	H87	H	0.372829	0.904184	0.911858
	H88	H	0.901367	0.096848	0.613700
	H89	H	0.078276	0.082847	0.384270
	H90	H	0.092137	0.904548	0.619566
	H91	H	0.887402	0.906794	0.379013
	H92	H	0.081135	0.612464	0.914325
	H93	H	0.074512	0.386180	0.091736
	H94	H	0.898055	0.614501	0.088402
	H95	H	0.905696	0.386944	0.899749
	H96	H	0.396766	0.114960	0.590772
	H97	H	0.573037	0.886850	0.589128
	H98	H	0.577415	0.117162	0.395089
	H99	H	0.402821	0.889473	0.414355
	H100	H	0.580616	0.400160	0.114548
	H101	H	0.576533	0.590590	0.881755
	H102	H	0.397444	0.582626	0.111137
	H103	H	0.397527	0.401694	0.879796
	H104	H	0.102835	0.589572	0.409972
	H105	H	0.869875	0.595642	0.588953
	H106	H	0.107176	0.403989	0.594334
	H107	H	0.870796	0.405673	0.407408
	H108	H	0.890742	0.617476	0.088936
	H109	H	0.083163	0.386591	0.083268
	H110	H	0.090073	0.618812	0.901599
	H111	H	0.892337	0.386174	0.912081
	H112	H	0.078639	0.918400	0.610097
	H113	H	0.070622	0.098383	0.381414
	H114	H	0.891290	0.099128	0.617500
	H115	H	0.898213	0.914427	0.383902
	H116	H	0.608338	0.091027	0.899545
	H117	H	0.373175	0.090795	0.084583
	H118	H	0.608042	0.899665	0.094065
	H119	H	0.373895	0.912432	0.904275
	C120	C	0.366679	0.007224	0.619566
	C121	C	0.610250	0.991477	0.620351
	C122	C	0.609101	0.007701	0.376076
	C123	C	0.364911	0.991325	0.374950
	C124	C	0.611555	0.375904	0.006018
	C125	C	0.609251	0.620165	0.989307
	C126	C	0.367735	0.620417	0.006075
	C127	C	0.367837	0.376684	0.988861
	C128	C	-0.003765	0.622329	0.376591
	C129	C	0.978841	0.622740	0.619341
	C130	C	-0.003739	0.379202	0.618237
	C131	C	0.978861	0.378442	0.375824
	C132	C	0.867174	0.508639	0.118837
	C133	C	0.110978	0.492108	0.119817
	C134	C	0.110312	0.508136	0.875468
	C135	C	0.865992	0.492257	0.874402
	C136	C	0.109497	0.878504	0.506517
	C137	C	0.108541	0.121344	0.489276
	C138	C	0.865488	0.123050	0.506392
	C139	C	0.866601	0.879127	0.489400
	C140	C	0.497263	0.119016	0.877798
	C141	C	0.479680	0.120331	0.119604
	C142	C	0.496815	0.876999	0.119197
	C143	C	0.479891	0.876636	0.876077
	C144	C	0.369121	0.884659	0.674126
	C145	C	0.608007	0.113557	0.677751
	C146	C	0.607057	0.884584	0.321344
	C147	C	0.367897	0.113654	0.320183
	C148	C	0.666027	0.378856	0.882322
	C149	C	0.664565	0.617151	0.113106
	C150	C	0.312125	0.617417	0.882556
	C151	C	0.312398	0.380143	0.112156
	C152	C	0.873293	0.678276	0.377183
	C153	C	0.102334	0.677745	0.618217
	C154	C	0.872437	0.324423	0.616351
	C155	C	0.102149	0.321725	0.377108
	C156	C	0.872208	0.383313	0.672666
	C157	C	0.102490	0.619995	0.674686
	C158	C	0.872791	0.619969	0.320872
	C159	C	0.103065	0.381020	0.321483
	C160	C	0.367645	0.676621	0.883264
	C161	C	0.608675	0.676154	0.112613
	C162	C	0.610469	0.318996	0.883442
	C163	C	0.369845	0.322308	0.112541
	C164	C	0.665250	0.885307	0.378858
	C165	C	0.664632	0.114368	0.619108
	C166	C	0.311187	0.884976	0.616217
	C167	C	0.310170	0.113983	0.378049
	C168	C	0.869772	0.386079	0.174010
	C169	C	0.108515	0.614895	0.175893
	C170	C	0.108363	0.386216	0.818915
	C171	C	0.867912	0.615226	0.820898
	C172	C	0.163338	0.881476	0.382595
	C173	C	0.164499	0.119402	0.612573
	C174	C	0.809396	0.119862	0.383340
	C175	C	0.812210	0.883155	0.613426
	C176	C	0.374068	0.175499	0.878657
	C177	C	0.603296	0.175675	0.119201
	C178	C	0.373337	0.822011	0.116528
	C179	C	0.603332	0.820183	0.877406
	C180	C	0.372627	0.880207	0.173218
	C181	C	0.603279	0.117629	0.175485
	C182	C	0.373667	0.117500	0.822166
	C183	C	0.603566	0.878553	0.820711
	C184	C	0.866147	0.177772	0.383197
	C185	C	0.107598	0.177681	0.612269
	C186	C	0.107893	0.822316	0.383412
	C187	C	0.868173	0.823855	0.612821
	C188	C	0.165310	0.385629	0.877505
	C189	C	0.166654	0.614375	0.117699
	C190	C	0.813561	0.385377	0.115235
	C191	C	0.809011	0.614026	0.877591
	C192	C	0.388675	0.093033	0.597902
	C193	C	0.588239	0.906500	0.596719
	C194	C	0.586240	0.093137	0.398113
	C195	C	0.386949	0.905461	0.396819
	C196	C	0.589354	0.398318	0.092242
	C197	C	0.585992	0.597445	0.903303
	C198	C	0.390921	0.598667	0.091874
	C199	C	0.390184	0.397644	0.902680
	C200	C	0.082582	0.599877	0.399473
	C201	C	0.892326	0.600981	0.596541
	C202	C	0.082067	0.401165	0.595544
	C203	C	0.892879	0.400732	0.397763
	C204	C	0.888700	0.594142	0.097361
	C205	C	0.088003	0.407035	0.096814
	C206	C	0.088020	0.593664	0.898522
	C207	C	0.889041	0.406648	0.895699
	C208	C	0.087377	0.900517	0.592368
	C209	C	0.085398	0.098789	0.403036
	C210	C	0.888716	0.101471	0.592614
	C211	C	0.888964	0.900950	0.403536
	C212	C	0.583181	0.096100	0.901085
	C213	C	0.393319	0.098767	0.096905
	C214	C	0.583096	0.899039	0.097575
	C215	C	0.394088	0.899383	0.899115
	Zn216	Zn	0.488478	-0.001158	0.748928
	Zn217	Zn	0.487779	-0.001276	0.246943
	Zn218	Zn	0.738204	0.499325	-0.002698
	Zn219	Zn	0.239671	0.499194	-0.002796
	Zn220	Zn	-0.012143	0.750242	0.498437
	Zn221	Zn	-0.012793	0.250196	0.497109
	Zn222	Zn	-0.012142	0.501293	0.746133
	Zn223	Zn	-0.012037	0.500895	0.248474
	Zn224	Zn	0.488978	0.748494	-0.002133
	Zn225	Zn	0.488997	0.247716	-0.001568
	Zn226	Zn	0.738236	0.000840	0.498325
	Zn227	Zn	0.237167	0.000147	0.497719
	N228	N	0.402521	0.961864	0.676425
	N229	N	0.574817	0.036261	0.678504
	N230	N	0.572918	0.961729	0.319492
	N231	N	0.401490	0.036201	0.318409
	N232	N	0.666841	0.413486	0.959674
	N233	N	0.665002	0.583011	0.035425
	N234	N	0.312214	0.583101	0.959716
	N235	N	0.311085	0.413361	0.034328
	N236	N	0.951202	0.679993	0.410929
	N237	N	0.024389	0.679418	0.584514
	N238	N	0.950469	0.321842	0.583184
	N239	N	0.024217	0.319885	0.409995
	N240	N	0.950072	0.416853	0.673863
	N241	N	0.024603	0.586680	0.675610
	N242	N	0.950431	0.585696	0.320550
	N243	N	0.025606	0.415870	0.320411
	N244	N	0.401545	0.678685	0.961073
	N245	N	0.575215	0.678103	0.034644
	N246	N	0.577428	0.316841	0.961497
	N247	N	0.403404	0.319825	0.034834
	N248	N	0.666712	0.962793	0.412190
	N249	N	0.666291	0.037604	0.584090
	N250	N	0.309682	0.962354	0.582757
	N251	N	0.308443	0.036836	0.411308
	N252	N	0.902494	0.463552	0.176382
	N253	N	0.074873	0.537598	0.177650
	N254	N	0.074713	0.463556	0.817500
	N255	N	0.902578	0.538266	0.818812
	N256	N	0.164601	0.915810	0.460067
	N257	N	0.165033	0.085138	0.535058
	N258	N	0.808606	0.086779	0.461148
	N259	N	0.811054	0.916746	0.535817
	N260	N	0.451872	0.176523	0.912736
	N261	N	0.525368	0.177623	0.085303
	N262	N	0.451387	0.820148	0.083580
	N263	N	0.525420	0.818872	0.911286
	N264	N	0.450378	0.913858	0.174837
	N265	N	0.525579	0.083783	0.175759
	N266	N	0.451279	0.083198	0.821520
	N267	N	0.525993	0.912771	0.819672
	N268	N	0.900241	0.179855	0.460818
	N269	N	0.073776	0.179373	0.534274
	N270	N	0.074760	0.820521	0.461169
	N271	N	0.901326	0.821335	0.534996
	N272	N	0.166711	0.462595	0.911726
	N273	N	0.168493	0.537116	0.083970
	N274	N	0.811760	0.462549	0.081511
	N275	N	0.807687	0.536614	0.910020
	O276	O	0.091992	-0.020995	-0.010864
	H277	H	0.097372	-0.026576	-0.004440
	H278	H	0.103594	-0.025777	-0.013179
	O279	O	1.073503	1.121354	0.011537
	H280	H	1.077572	1.120932	0.004639
	H281	H	1.072881	1.120712	0.018468
	O282	O	0.468263	0.482916	0.560265
	H283	H	0.467536	0.495879	0.563472
	H284	H	0.471766	0.477902	0.558477
	O285	O	0.001704	0.985558	1.055593
	H286	H	0.012146	0.993808	1.059213
	H287	H	0.009113	0.976218	1.053207
	O288	O	0.569277	0.498182	0.583803
	H289	H	0.559789	0.495330	0.585442
	H290	H	0.566417	0.492609	0.587156
	O291	O	0.960536	0.961630	0.920102
	H292	H	0.955520	0.961945	0.920844
	H293	H	0.960993	0.956170	0.911271
	O294	O	0.969672	1.056667	0.988816
	H295	H	0.973469	1.057602	0.980601
	H296	H	0.967371	1.063845	0.990005
	O297	O	0.971457	0.021618	1.031012
	H298	H	0.962073	0.039498	1.034448
	H299	H	0.976499	0.020660	1.038209
	O300	O	0.455273	0.484506	0.540418
	H301	H	0.450615	0.489617	0.546856
	H302	H	0.451139	0.484330	0.542813
	O303	O	0.950223	0.044061	0.021279
	H304	H	0.943159	0.043360	0.008718
	H305	H	0.940674	0.043783	0.020626
	O306	O	-0.011288	0.998002	0.974551
	H307	H	-0.002946	0.996613	0.973798
	H308	H	-0.013175	0.992081	0.963310
	O309	O	0.397858	0.514631	0.569435
	H310	H	0.409335	0.503370	0.572930
	H311	H	0.389767	0.518178	0.567903
	O312	O	0.997850	-0.075776	0.942909
	H313	H	1.006891	-0.071880	0.938601
	H314	H	0.986752	-0.072795	0.952859
	O315	O	0.473776	0.510508	0.470893
	H316	H	0.478200	0.518430	0.473951
	H317	H	0.473530	0.505284	0.470009
	O318	O	0.405394	0.503779	0.469793
	H319	H	0.399334	0.510113	0.461151
	H320	H	0.410366	0.510702	0.465094
	O321	O	0.991278	1.028908	1.074541
	H322	H	0.991962	1.038399	1.076514
	H323	H	0.988607	1.022747	1.085524
	O324	O	0.908714	0.987174	1.029014
	H325	H	0.905195	0.985095	1.023470
	H326	H	0.902594	0.987768	1.023809
	O327	O	0.552941	0.472272	0.527274
	H328	H	0.564935	0.463511	0.527920
	H329	H	0.553280	0.470476	0.515884
	O330	O	0.997268	0.032730	0.933311
	H331	H	0.998450	0.029662	0.940479
	H332	H	1.004865	0.036350	0.934630
	O333	O	0.941405	1.043513	0.077588
	H334	H	0.946213	1.038438	0.076265
	H335	H	0.943457	1.059942	0.079983
	O336	O	0.435930	0.523999	0.407118
	H337	H	0.436593	0.528659	0.407023
	H338	H	0.429303	0.527220	0.407501
	O339	O	0.518149	0.508185	0.426970
	H340	H	0.521521	0.501175	0.435734
	H341	H	0.523427	0.506158	0.430640
	O342	O	0.036256	1.053224	-0.006381
	H343	H	0.029159	1.058510	0.000161
	H344	H	0.027908	1.062309	-0.009614
	O345	O	-0.035239	0.030014	-0.007049
	H346	H	-0.032046	0.027451	-0.006107
	H347	H	-0.037125	0.027688	-0.001134
	O348	O	0.474762	0.585575	0.467730
	H349	H	0.474325	0.579004	0.475552
	H350	H	0.477908	0.586713	0.462274
	O351	O	0.494582	0.468690	0.607761
	H352	H	0.491268	0.461849	0.604214
	H353	H	0.488467	0.462545	0.611310
	O354	O	0.547820	0.407717	0.441969
	H355	H	0.552614	0.401490	0.437997
	H356	H	0.544995	0.406073	0.444384
	O357	O	0.294859	0.720859	0.188698
	H358	H	0.290599	0.722016	0.194338
	H359	H	0.297141	0.715953	0.183860
	O360	O	0.459378	-0.507151	0.418513
	H361	H	0.448053	-0.502171	0.405692
	H362	H	0.461245	-0.499216	0.427827
	O363	O	0.442448	0.487115	0.495640
	H364	H	0.439959	0.489555	0.489373
	H365	H	0.442549	0.490080	0.490198
	O366	O	0.445095	-0.556261	0.524621
	H367	H	0.444381	-0.562024	0.536560
	H368	H	0.440861	-0.561328	0.533589
	O369	O	0.490395	0.514540	0.482928
	H370	H	0.484257	0.530424	0.480114
	H371	H	0.489646	0.508593	0.480464
