data_Molecule from HDF5

_cell_length_a		16.353677
_cell_length_b		16.274714
_cell_length_c		16.341310
_cell_angle_alpha	90.051831
_cell_angle_beta	90.084371
_cell_angle_gamma	89.990841
_symmetry_space_group_name_H-M	'P 1'
_symmetry_Int_Tables_number		1

loop_
	_symmetry_equiv_pos_as_xyz
	x,y,z

loop_
	_atom_site_label
	_atom_site_type_symbol
	_atom_site_fract_x
	_atom_site_fract_y
	_atom_site_fract_z
	H0	H	0.404841	0.827985	0.706406
	H1	H	0.600140	0.155701	0.707846
	H2	H	0.598711	0.827966	0.280433
	H3	H	0.404136	0.156448	0.279566
	H4	H	0.717444	0.392931	0.830884
	H5	H	0.717152	0.590499	0.156518
	H6	H	0.288648	0.589733	0.830516
	H7	H	0.287881	0.394082	0.156614
	H8	H	0.838813	0.704980	0.397234
	H9	H	0.165649	0.706827	0.592231
	H10	H	0.837855	0.279923	0.589339
	H11	H	0.165192	0.277912	0.397483
	H12	H	0.838722	0.394005	0.707919
	H13	H	0.165083	0.590448	0.709511
	H14	H	0.839521	0.591586	0.277576
	H15	H	0.165132	0.393250	0.279075
	H16	H	0.405214	0.705129	0.830099
	H17	H	0.599510	0.706239	0.156704
	H18	H	0.599952	0.278097	0.830406
	H19	H	0.405551	0.278527	0.157728
	H20	H	0.715217	0.828777	0.396497
	H21	H	0.715776	0.156400	0.591471
	H22	H	0.288388	0.828404	0.590431
	H23	H	0.286076	0.155781	0.394240
	H24	H	0.904501	0.327955	0.207227
	H25	H	0.100148	0.656010	0.208564
	H26	H	0.098677	0.327404	0.781993
	H27	H	0.904361	0.655295	0.779913
	H28	H	0.216933	0.893168	0.331076
	H29	H	0.217068	0.091362	0.656764
	H30	H	0.786435	0.090897	0.330549
	H31	H	0.787077	0.893927	0.656431
	H32	H	0.338921	0.206294	0.896207
	H33	H	0.666193	0.207181	0.091926
	H34	H	0.338658	0.778614	0.090194
	H35	H	0.665348	0.777430	0.895791
	H36	H	0.339018	0.893012	0.208350
	H37	H	0.665412	0.091641	0.209705
	H38	H	0.338954	0.090120	0.779344
	H39	H	0.665621	0.892926	0.778775
	H40	H	0.902960	0.206753	0.330054
	H41	H	0.097754	0.205051	0.657865
	H42	H	0.100130	0.777565	0.330780
	H43	H	0.905888	0.779586	0.657863
	H44	H	0.216255	0.328649	0.896498
	H45	H	0.216642	0.656916	0.092900
	H46	H	0.787289	0.328988	0.092309
	H47	H	0.788881	0.655870	0.896460
	H48	H	0.419826	0.104601	0.585556
	H49	H	0.589760	0.877321	0.587023
	H50	H	0.589890	0.105835	0.405509
	H51	H	0.408277	0.874040	0.394729
	H52	H	0.593472	0.403403	0.107586
	H53	H	0.590015	0.579094	0.881262
	H54	H	0.400694	0.582989	0.111217
	H55	H	0.408941	0.395627	0.877412
	H56	H	0.116829	0.582491	0.400846
	H57	H	0.888261	0.584909	0.578832
	H58	H	0.117752	0.402661	0.589224
	H59	H	0.884970	0.397317	0.396296
	H60	H	0.119270	0.395442	0.593003
	H61	H	0.887588	0.577543	0.592549
	H62	H	0.119408	0.585678	0.397533
	H63	H	0.886467	0.398013	0.403321
	H64	H	0.415226	0.579663	0.106393
	H65	H	0.593292	0.594055	0.875716
	H66	H	0.595059	0.394825	0.110565
	H67	H	0.405262	0.399251	0.877064
	H68	H	0.601721	0.109952	0.402336
	H69	H	0.598298	0.877061	0.581131
	H70	H	0.400894	0.108269	0.578165
	H71	H	0.414328	0.878126	0.401851
	H72	H	0.906669	0.609537	0.088518
	H73	H	0.095798	0.377884	0.079873
	H74	H	0.096987	0.608193	0.906062
	H75	H	0.898474	0.373915	0.906110
	H76	H	0.088577	0.906078	0.605656
	H77	H	0.095108	0.075598	0.380517
	H78	H	0.907070	0.085448	0.609140
	H79	H	0.901919	0.905750	0.377884
	H80	H	0.621133	0.088519	0.895685
	H81	H	0.388399	0.089925	0.076557
	H82	H	0.618947	0.894702	0.087270
	H83	H	0.385006	0.892571	0.900643
	H84	H	0.616511	0.901743	0.083538
	H85	H	0.390162	0.074611	0.087765
	H86	H	0.617802	0.087868	0.905188
	H87	H	0.388408	0.902347	0.904703
	H88	H	0.909173	0.084622	0.609082
	H89	H	0.086391	0.088978	0.378893
	H90	H	0.093905	0.888950	0.612577
	H91	H	0.915834	0.899577	0.380456
	H92	H	0.100810	0.611135	0.897237
	H93	H	0.101985	0.373727	0.089945
	H94	H	0.912950	0.608191	0.088043
	H95	H	0.911051	0.372537	0.888772
	H96	H	0.405222	0.113773	0.597772
	H97	H	0.598535	0.872741	0.591026
	H98	H	0.592252	0.110769	0.393249
	H99	H	0.404331	0.876675	0.404045
	H100	H	0.601719	0.400882	0.110566
	H101	H	0.605133	0.582653	0.875684
	H102	H	0.411370	0.593555	0.111514
	H103	H	0.410155	0.400249	0.878520
	H104	H	0.118293	0.587368	0.402302
	H105	H	0.883579	0.592654	0.591380
	H106	H	0.118014	0.395711	0.585007
	H107	H	0.887163	0.403527	0.398670
	H108	H	0.909024	0.606799	0.082994
	H109	H	0.089719	0.377459	0.090498
	H110	H	0.091326	0.607628	0.897780
	H111	H	0.919155	0.380244	0.907516
	H112	H	0.105955	0.903548	0.611572
	H113	H	0.102058	0.088991	0.375056
	H114	H	0.908886	0.087130	0.609418
	H115	H	0.904324	0.890681	0.374589
	H116	H	0.616611	0.079705	0.899022
	H117	H	0.383162	0.090578	0.095487
	H118	H	0.618840	0.901136	0.091913
	H119	H	0.386014	0.901377	0.894135
	C120	C	0.380522	0.000479	0.615092
	C121	C	0.623681	0.983821	0.615194
	C122	C	0.623057	0.000524	0.372173
	C123	C	0.380210	0.984357	0.371588
	C124	C	0.624411	0.370911	0.001928
	C125	C	0.623959	0.613345	0.985434
	C126	C	0.380891	0.613709	0.002087
	C127	C	0.380739	0.370485	0.985778
	C128	C	0.010306	0.613702	0.371982
	C129	C	0.994317	0.613342	0.615666
	C130	C	0.010293	0.370285	0.616044
	C131	C	0.993674	0.370692	0.371844
	C132	C	0.881269	0.500214	0.114966
	C133	C	0.124201	0.484693	0.115429
	C134	C	0.124005	0.500347	0.872487
	C135	C	0.880876	0.483448	0.872618
	C136	C	0.123997	0.870786	0.502237
	C137	C	0.122992	0.113273	0.485736
	C138	C	0.880013	0.113900	0.501413
	C139	C	0.880021	0.870386	0.485440
	C140	C	0.510388	0.113712	0.872203
	C141	C	0.494931	0.114096	0.115417
	C142	C	0.510170	0.870684	0.115635
	C143	C	0.494404	0.870201	0.871616
	C144	C	0.383741	0.877137	0.669261
	C145	C	0.620857	0.106984	0.669957
	C146	C	0.619793	0.877136	0.317722
	C147	C	0.382979	0.107329	0.316827
	C148	C	0.679655	0.372610	0.879515
	C149	C	0.679246	0.610890	0.107863
	C150	C	0.326239	0.610622	0.879098
	C151	C	0.326150	0.373573	0.108328
	C152	C	0.887607	0.667884	0.375526
	C153	C	0.116923	0.668633	0.612577
	C154	C	0.886857	0.316532	0.611293
	C155	C	0.116652	0.315730	0.375922
	C156	C	0.887237	0.373106	0.670198
	C157	C	0.116820	0.610796	0.670778
	C158	C	0.887819	0.611175	0.316555
	C159	C	0.116589	0.372811	0.317095
	C160	C	0.384068	0.668056	0.879030
	C161	C	0.620853	0.668341	0.108138
	C162	C	0.621230	0.315642	0.879309
	C163	C	0.384875	0.316502	0.108891
	C164	C	0.677540	0.877285	0.375395
	C165	C	0.678538	0.107263	0.612560
	C166	C	0.326004	0.877261	0.611750
	C167	C	0.324737	0.107137	0.374033
	C168	C	0.883896	0.377061	0.169854
	C169	C	0.120759	0.607583	0.170369
	C170	C	0.119813	0.376823	0.818868
	C171	C	0.883345	0.606657	0.817592
	C172	C	0.178872	0.872820	0.379691
	C173	C	0.178619	0.111512	0.608303
	C174	C	0.824510	0.111470	0.379046
	C175	C	0.825081	0.873080	0.608088
	C176	C	0.387492	0.168558	0.875308
	C177	C	0.617457	0.169438	0.112746
	C178	C	0.387475	0.815914	0.111539
	C179	C	0.616970	0.815491	0.875036
	C180	C	0.387602	0.872848	0.170245
	C181	C	0.617145	0.111698	0.170911
	C182	C	0.387565	0.110913	0.817197
	C183	C	0.616762	0.872717	0.816498
	C184	C	0.882633	0.168864	0.378844
	C185	C	0.119334	0.167809	0.608773
	C186	C	0.120768	0.815533	0.379487
	C187	C	0.884145	0.816489	0.608694
	C188	C	0.178019	0.377244	0.876078
	C189	C	0.178953	0.607619	0.113131
	C190	C	0.825988	0.377260	0.112362
	C191	C	0.826110	0.606812	0.875303
	C192	C	0.402204	0.086645	0.593455
	C193	C	0.602006	0.897837	0.592986
	C194	C	0.601311	0.086579	0.394249
	C195	C	0.402329	0.898402	0.393566
	C196	C	0.603035	0.393278	0.087535
	C197	C	0.602244	0.591713	0.899664
	C198	C	0.402658	0.591789	0.087647
	C199	C	0.401892	0.391975	0.899827
	C200	C	0.096075	0.591541	0.393708
	C201	C	0.908549	0.591426	0.593999
	C202	C	0.096155	0.391538	0.595276
	C203	C	0.908304	0.392911	0.393266
	C204	C	0.903094	0.586037	0.093053
	C205	C	0.102351	0.398432	0.093115
	C206	C	0.102662	0.586883	0.893952
	C207	C	0.902994	0.397779	0.894569
	C208	C	0.102527	0.893160	0.587820
	C209	C	0.101114	0.090959	0.400217
	C210	C	0.901856	0.091935	0.587138
	C211	C	0.901195	0.892131	0.399743
	C212	C	0.596170	0.091981	0.893739
	C213	C	0.409469	0.091795	0.093134
	C214	C	0.595804	0.892797	0.094081
	C215	C	0.408796	0.892189	0.893453
	Zn216	Zn	0.502310	-0.007930	0.743280
	Zn217	Zn	0.502009	-0.007632	0.243707
	Zn218	Zn	0.752968	0.491853	-0.006581
	Zn219	Zn	0.252779	0.492492	-0.006105
	Zn220	Zn	0.002082	0.742231	0.493951
	Zn221	Zn	0.001907	0.242321	0.493495
	Zn222	Zn	0.001872	0.491737	0.744739
	Zn223	Zn	0.002526	0.492353	0.243449
	Zn224	Zn	0.502306	0.741989	-0.006354
	Zn225	Zn	0.502629	0.242269	-0.006214
	Zn226	Zn	0.751468	-0.007585	0.493779
	Zn227	Zn	0.252267	-0.007539	0.493598
	N228	N	0.416942	0.954853	0.671401
	N229	N	0.587720	0.029378	0.671773
	N230	N	0.586566	0.954709	0.315940
	N231	N	0.416802	0.029997	0.315416
	N232	N	0.681574	0.406295	0.956630
	N233	N	0.681141	0.577580	0.030538
	N234	N	0.324092	0.577511	0.956570
	N235	N	0.323554	0.406421	0.030854
	N236	N	0.964644	0.669463	0.409271
	N237	N	0.039730	0.669958	0.579005
	N238	N	0.964231	0.314561	0.578364
	N239	N	0.039467	0.314372	0.409141
	N240	N	0.964800	0.405932	0.673100
	N241	N	0.039641	0.577235	0.672938
	N242	N	0.965342	0.578120	0.314484
	N243	N	0.039301	0.406280	0.314603
	N244	N	0.417475	0.669873	0.956340
	N245	N	0.587039	0.669687	0.031023
	N246	N	0.587498	0.314449	0.956402
	N247	N	0.418239	0.314773	0.031613
	N248	N	0.679606	0.955084	0.408488
	N249	N	0.680293	0.029718	0.579016
	N250	N	0.324065	0.954924	0.578722
	N251	N	0.323146	0.029726	0.407623
	N252	N	0.917553	0.454536	0.171672
	N253	N	0.087754	0.529904	0.172094
	N254	N	0.086802	0.454635	0.816859
	N255	N	0.916799	0.529134	0.815908
	N256	N	0.180899	0.906557	0.456892
	N257	N	0.181098	0.078543	0.530817
	N258	N	0.822932	0.077828	0.456123
	N259	N	0.822541	0.906145	0.530717
	N260	N	0.464926	0.170601	0.908541
	N261	N	0.540469	0.170766	0.078870
	N262	N	0.464784	0.814509	0.078329
	N263	N	0.540029	0.814006	0.908741
	N264	N	0.464809	0.906191	0.172889
	N265	N	0.539929	0.078118	0.172673
	N266	N	0.464817	0.077330	0.815343
	N267	N	0.539482	0.906076	0.814504
	N268	N	0.916379	0.170565	0.456041
	N269	N	0.085302	0.168984	0.531749
	N270	N	0.087282	0.814148	0.456635
	N271	N	0.917348	0.814617	0.531397
	N272	N	0.180877	0.455076	0.908541
	N273	N	0.180971	0.529934	0.079670
	N274	N	0.824286	0.454774	0.078999
	N275	N	0.824485	0.529226	0.908702
	O276	O	1.028367	0.002236	1.012893
	H277	H	1.026571	0.009761	1.015627
	H278	H	1.030887	0.001187	1.010678
	O279	O	0.044482	1.069158	1.026220
	H280	H	0.037654	1.064468	1.031445
	H281	H	0.050932	1.066746	1.022677
	O282	O	1.059701	1.016502	0.028377
	H283	H	1.059767	1.020929	0.026786
	H284	H	1.052276	1.003533	0.029047
	O285	O	0.043085	1.049161	1.025162
	H286	H	0.049867	1.051314	1.022212
	H287	H	0.040897	1.063441	1.029061
