data_Molecule from HDF5

_cell_length_a		16.280210
_cell_length_b		16.289324
_cell_length_c		16.281324
_cell_angle_alpha	89.951081
_cell_angle_beta	89.850191
_cell_angle_gamma	89.976256
_symmetry_space_group_name_H-M	'P 1'
_symmetry_Int_Tables_number		1

loop_
	_symmetry_equiv_pos_as_xyz
	x,y,z

loop_
	_atom_site_label
	_atom_site_type_symbol
	_atom_site_fract_x
	_atom_site_fract_y
	_atom_site_fract_z
	H0	H	0.401972	0.833883	0.715039
	H1	H	0.600644	0.160705	0.715181
	H2	H	0.599134	0.833423	0.285616
	H3	H	0.402575	0.160981	0.284275
	H4	H	0.716266	0.398366	0.836374
	H5	H	0.714984	0.595421	0.163525
	H6	H	0.287170	0.596852	0.836378
	H7	H	0.285408	0.397706	0.162792
	H8	H	0.837659	0.712723	0.401611
	H9	H	0.164318	0.710687	0.597561
	H10	H	0.837698	0.282672	0.599177
	H11	H	0.164163	0.280205	0.398034
	H12	H	0.837854	0.397721	0.715785
	H13	H	0.164422	0.595122	0.712275
	H14	H	0.836951	0.596624	0.285078
	H15	H	0.164552	0.397835	0.283103
	H16	H	0.402265	0.712197	0.836172
	H17	H	0.600161	0.712600	0.162643
	H18	H	0.599385	0.284067	0.835975
	H19	H	0.402013	0.282328	0.163187
	H20	H	0.716199	0.833644	0.401362
	H21	H	0.715321	0.161156	0.598269
	H22	H	0.286584	0.833767	0.599900
	H23	H	0.286085	0.160802	0.400464
	H24	H	0.902916	0.334491	0.214358
	H25	H	0.100403	0.661240	0.213956
	H26	H	0.101233	0.333852	0.783276
	H27	H	0.904520	0.661092	0.786153
	H28	H	0.216874	0.897945	0.336732
	H29	H	0.216965	0.096377	0.663060
	H30	H	0.786652	0.097658	0.336712
	H31	H	0.785866	0.899396	0.663301
	H32	H	0.338447	0.213140	0.900493
	H33	H	0.665263	0.211937	0.097624
	H34	H	0.337251	0.782286	0.098720
	H35	H	0.664590	0.782231	0.899684
	H36	H	0.337740	0.897735	0.214949
	H37	H	0.665500	0.095390	0.212220
	H38	H	0.337683	0.096175	0.785361
	H39	H	0.664851	0.899815	0.785299
	H40	H	0.901037	0.213313	0.337127
	H41	H	0.101463	0.213598	0.662934
	H42	H	0.100255	0.782833	0.336401
	H43	H	0.901704	0.783784	0.663730
	H44	H	0.216894	0.333892	0.900458
	H45	H	0.216332	0.661482	0.097184
	H46	H	0.787552	0.333923	0.098204
	H47	H	0.787363	0.660668	0.901486
	H48	H	0.418341	0.108726	0.587170
	H49	H	0.589283	0.880584	0.597194
	H50	H	0.592519	0.114744	0.401172
	H51	H	0.398551	0.879646	0.410960
	H52	H	0.587624	0.402815	0.115476
	H53	H	0.598996	0.581482	0.883713
	H54	H	0.407671	0.591892	0.117008
	H55	H	0.407533	0.397932	0.880834
	H56	H	0.118899	0.589059	0.397087
	H57	H	0.883770	0.590202	0.594233
	H58	H	0.113897	0.408976	0.584521
	H59	H	0.884972	0.395897	0.412325
	H60	H	0.117737	0.409036	0.597130
	H61	H	0.883470	0.592348	0.593594
	H62	H	0.119499	0.599366	0.409854
	H63	H	0.888436	0.413863	0.410491
	H64	H	0.407477	0.587366	0.115344
	H65	H	0.584906	0.592072	0.885649
	H66	H	0.599514	0.397039	0.120495
	H67	H	0.404830	0.410955	0.884025
	H68	H	0.591861	0.112043	0.409055
	H69	H	0.592068	0.883724	0.586695
	H70	H	0.398560	0.114787	0.585688
	H71	H	0.410313	0.878293	0.396076
	H72	H	0.917806	0.613102	0.095791
	H73	H	0.083280	0.385345	0.091135
	H74	H	0.092379	0.612085	0.910630
	H75	H	0.917586	0.383380	0.907391
	H76	H	0.104134	0.911874	0.617098
	H77	H	0.100394	0.086625	0.382964
	H78	H	0.906319	0.092379	0.618101
	H79	H	0.920159	0.904216	0.386318
	H80	H	0.614553	0.083599	0.908711
	H81	H	0.383769	0.091385	0.097295
	H82	H	0.617705	0.900312	0.088337
	H83	H	0.386180	0.900416	0.916314
	H84	H	0.615793	0.907969	0.090750
	H85	H	0.385803	0.094083	0.087325
	H86	H	0.620486	0.091213	0.898016
	H87	H	0.387666	0.914236	0.904821
	H88	H	0.906945	0.087539	0.615722
	H89	H	0.088582	0.083137	0.387408
	H90	H	0.082822	0.908509	0.612311
	H91	H	0.903545	0.893730	0.378873
	H92	H	0.099448	0.614996	0.905200
	H93	H	0.098819	0.383025	0.082569
	H94	H	0.905673	0.611968	0.082622
	H95	H	0.903360	0.380938	0.913869
	H96	H	0.408486	0.116631	0.603027
	H97	H	0.599375	0.879227	0.593369
	H98	H	0.599058	0.114761	0.406351
	H99	H	0.416914	0.885534	0.412913
	H100	H	0.599876	0.410314	0.115639
	H101	H	0.599810	0.597577	0.879435
	H102	H	0.412223	0.590656	0.114428
	H103	H	0.416577	0.406829	0.886102
	H104	H	0.113857	0.583060	0.412046
	H105	H	0.883847	0.590303	0.592269
	H106	H	0.118937	0.398217	0.590067
	H107	H	0.882126	0.404183	0.396196
	H108	H	0.900579	0.617477	0.098710
	H109	H	0.097702	0.378118	0.099720
	H110	H	0.091304	0.613229	0.901489
	H111	H	0.905756	0.377789	0.899317
	H112	H	0.095124	0.892226	0.620430
	H113	H	0.090203	0.095457	0.383603
	H114	H	0.910386	0.091001	0.616036
	H115	H	0.901496	0.914195	0.384757
	H116	H	0.618271	0.097396	0.910640
	H117	H	0.387278	0.083493	0.091061
	H118	H	0.618812	0.902395	0.096260
	H119	H	0.380409	0.898339	0.900039
	C120	C	0.379907	0.005398	0.620985
	C121	C	0.622338	0.989201	0.621152
	C122	C	0.623219	0.005708	0.377546
	C123	C	0.379839	0.989283	0.377984
	C124	C	0.623806	0.375387	0.008523
	C125	C	0.622523	0.618550	0.991395
	C126	C	0.380027	0.618769	0.007724
	C127	C	0.380014	0.375808	0.991322
	C128	C	0.009229	0.619118	0.378042
	C129	C	0.992003	0.619135	0.621538
	C130	C	0.009128	0.376040	0.620616
	C131	C	0.993188	0.375518	0.377296
	C132	C	0.879508	0.506172	0.121410
	C133	C	0.122854	0.489539	0.120398
	C134	C	0.123275	0.505581	0.877119
	C135	C	0.880130	0.488876	0.878246
	C136	C	0.123096	0.875127	0.508596
	C137	C	0.122496	0.118347	0.491931
	C138	C	0.879391	0.119196	0.508510
	C139	C	0.879498	0.876126	0.491726
	C140	C	0.509903	0.119363	0.877423
	C141	C	0.493460	0.118503	0.120516
	C142	C	0.509352	0.874947	0.121074
	C143	C	0.492916	0.875839	0.878245
	C144	C	0.381711	0.882734	0.677106
	C145	C	0.620252	0.112152	0.676662
	C146	C	0.620311	0.882479	0.322833
	C147	C	0.381872	0.112096	0.322302
	C148	C	0.678388	0.378021	0.885293
	C149	C	0.677238	0.615851	0.114529
	C150	C	0.324903	0.616689	0.884968
	C151	C	0.323753	0.377349	0.114045
	C152	C	0.886129	0.674277	0.380781
	C153	C	0.115237	0.673702	0.618233
	C154	C	0.886437	0.320591	0.619388
	C155	C	0.115492	0.318900	0.378586
	C156	C	0.886436	0.378058	0.676871
	C157	C	0.115345	0.616086	0.675300
	C158	C	0.885922	0.616640	0.323161
	C159	C	0.115722	0.377094	0.321039
	C160	C	0.382124	0.674255	0.884940
	C161	C	0.620223	0.674267	0.114072
	C162	C	0.620123	0.321506	0.884974
	C163	C	0.381829	0.320164	0.114271
	C164	C	0.678330	0.882505	0.380402
	C165	C	0.677297	0.112406	0.618589
	C166	C	0.324769	0.882415	0.619334
	C167	C	0.324081	0.111981	0.380159
	C168	C	0.882278	0.383171	0.176459
	C169	C	0.120985	0.612686	0.175719
	C170	C	0.121197	0.382625	0.821505
	C171	C	0.883288	0.612246	0.823701
	C172	C	0.178407	0.877741	0.385352
	C173	C	0.178768	0.116860	0.614477
	C174	C	0.824675	0.117204	0.385466
	C175	C	0.823876	0.878946	0.614602
	C176	C	0.386938	0.174933	0.880088
	C177	C	0.616546	0.173567	0.117928
	C178	C	0.386183	0.820028	0.118983
	C179	C	0.615814	0.820221	0.879658
	C180	C	0.386420	0.877460	0.176547
	C181	C	0.616602	0.115754	0.175042
	C182	C	0.386508	0.116785	0.823129
	C183	C	0.615999	0.878655	0.822879
	C184	C	0.881556	0.174939	0.385758
	C185	C	0.120962	0.174665	0.614552
	C186	C	0.120734	0.820268	0.385311
	C187	C	0.881593	0.821555	0.614872
	C188	C	0.178552	0.382519	0.879749
	C189	C	0.178497	0.612687	0.117920
	C190	C	0.824934	0.383016	0.118820
	C191	C	0.825026	0.611865	0.880774
	C192	C	0.402131	0.091221	0.598486
	C193	C	0.600102	0.903484	0.598902
	C194	C	0.601155	0.091649	0.399152
	C195	C	0.402082	0.903305	0.400219
	C196	C	0.602045	0.396991	0.094790
	C197	C	0.600919	0.596803	0.905168
	C198	C	0.402474	0.596374	0.093469
	C199	C	0.402826	0.398720	0.905789
	C200	C	0.094985	0.596991	0.399741
	C201	C	0.905807	0.597373	0.599689
	C202	C	0.094682	0.398716	0.597202
	C203	C	0.907304	0.397989	0.399827
	C204	C	0.901719	0.592129	0.099045
	C205	C	0.100104	0.404312	0.097785
	C206	C	0.100978	0.591256	0.899429
	C207	C	0.902409	0.402957	0.900402
	C208	C	0.100667	0.897443	0.594221
	C209	C	0.099831	0.095157	0.406729
	C210	C	0.901469	0.096894	0.594309
	C211	C	0.901761	0.897704	0.405612
	C212	C	0.595619	0.097278	0.899374
	C213	C	0.407673	0.096278	0.098450
	C214	C	0.595327	0.897088	0.098374
	C215	C	0.407103	0.897832	0.900539
	Zn216	Zn	0.501210	-0.002502	0.749445
	Zn217	Zn	0.501585	-0.002767	0.248882
	Zn218	Zn	0.751336	0.497260	-0.000433
	Zn219	Zn	0.252026	0.497402	-0.000642
	Zn220	Zn	0.000933	0.747239	0.500015
	Zn221	Zn	0.000909	0.247130	0.499940
	Zn222	Zn	0.001195	0.497513	0.749120
	Zn223	Zn	0.001386	0.497976	0.249281
	Zn224	Zn	0.500852	0.746937	-0.000680
	Zn225	Zn	0.501768	0.247328	-0.000364
	Zn226	Zn	0.751343	-0.002246	0.499807
	Zn227	Zn	0.251432	-0.003242	0.500073
	N228	N	0.415223	0.960214	0.678387
	N229	N	0.586745	0.034617	0.678217
	N230	N	0.586947	0.960013	0.320886
	N231	N	0.415639	0.034601	0.320705
	N232	N	0.680627	0.410830	0.963095
	N233	N	0.678755	0.581952	0.037217
	N234	N	0.323524	0.582921	0.962462
	N235	N	0.322358	0.411092	0.036626
	N236	N	0.963578	0.675876	0.414129
	N237	N	0.037413	0.675664	0.585510
	N238	N	0.963748	0.319326	0.585117
	N239	N	0.038269	0.317930	0.412923
	N240	N	0.963847	0.411829	0.677779
	N241	N	0.037781	0.582796	0.677340
	N242	N	0.963509	0.582821	0.321418
	N243	N	0.038482	0.411343	0.320079
	N244	N	0.415495	0.675696	0.962321
	N245	N	0.587008	0.676017	0.036418
	N246	N	0.587086	0.319596	0.962696
	N247	N	0.415969	0.318957	0.036883
	N248	N	0.680411	0.960147	0.413548
	N249	N	0.678850	0.034934	0.584857
	N250	N	0.323374	0.959784	0.585215
	N251	N	0.322555	0.034461	0.413866
	N252	N	0.915432	0.460859	0.178212
	N253	N	0.087145	0.535432	0.177478
	N254	N	0.087793	0.460234	0.819580
	N255	N	0.916541	0.534700	0.821836
	N256	N	0.180289	0.910859	0.462907
	N257	N	0.179598	0.082411	0.537384
	N258	N	0.823247	0.083150	0.462719
	N259	N	0.822615	0.912290	0.536955
	N260	N	0.464671	0.176707	0.913143
	N261	N	0.538992	0.175386	0.084613
	N262	N	0.463682	0.818538	0.085042
	N263	N	0.538312	0.818590	0.913548
	N264	N	0.463986	0.910900	0.177908
	N265	N	0.539202	0.082012	0.176577
	N266	N	0.463827	0.082994	0.821171
	N267	N	0.538638	0.912597	0.821780
	N268	N	0.914893	0.176275	0.463261
	N269	N	0.086928	0.175798	0.537330
	N270	N	0.086827	0.818778	0.462796
	N271	N	0.915527	0.819607	0.537422
	N272	N	0.180030	0.459855	0.913538
	N273	N	0.179781	0.535061	0.084220
	N274	N	0.823063	0.460589	0.085270
	N275	N	0.822928	0.534155	0.913884
	O276	O	0.520698	0.500492	0.454261
	H277	H	0.518326	0.497884	0.454854
	H278	H	0.519220	0.496372	0.442816
	O279	O	0.519813	0.495110	0.525351
	H280	H	0.520346	0.495532	0.536695
	H281	H	0.519062	0.483692	0.529505
	O282	O	0.423715	0.456767	0.533396
	H283	H	0.424383	0.463764	0.528668
	H284	H	0.416805	0.450714	0.534798
	O285	O	-0.000789	1.011039	1.081983
	H286	H	-0.004804	1.012329	1.085009
	H287	H	-0.009384	1.016483	1.084842
	O288	O	0.466942	0.514219	0.461762
	H289	H	0.465784	0.517829	0.460437
	H290	H	0.465762	0.512531	0.475775
	O291	O	-0.017320	0.032279	1.022152
	H292	H	-0.015536	0.030661	1.020976
	H293	H	-0.009821	0.028383	1.015413
	O294	O	-0.000660	1.016477	0.959938
	H295	H	0.003621	1.016281	0.965552
	H296	H	0.001370	1.008280	0.959804
	O297	O	0.472860	0.528657	0.518825
	H298	H	0.482674	0.510878	0.520372
	H299	H	0.462062	0.522531	0.522845
	O300	O	0.464829	0.460638	0.506328
	H301	H	0.465787	0.473197	0.499845
	H302	H	0.472662	0.466084	0.506037
	O303	O	0.443573	0.488502	0.537667
	H304	H	0.443906	0.493466	0.551671
	H305	H	0.450372	0.488908	0.541922
	O306	O	1.069220	0.058750	0.947615
	H307	H	1.076642	0.058055	0.948012
	H308	H	1.073662	0.058172	0.943478
	O309	O	0.446061	0.479552	0.588632
	H310	H	0.452698	0.480416	0.596421
	H311	H	0.456691	0.484347	0.579961
	O312	O	0.000757	0.044037	-0.045478
	H313	H	0.002150	0.045926	-0.051385
	H314	H	-0.007805	0.046231	-0.050495
	O315	O	1.055658	0.077875	1.085651
	H316	H	1.055917	0.081255	1.100740
	H317	H	1.057652	0.078126	1.098021
	O318	O	0.021451	0.025036	0.051496
	H319	H	0.016282	0.034902	0.047322
	H320	H	0.019197	0.020608	0.042514
	O321	O	0.452904	0.476030	0.503596
	H322	H	0.445008	0.484125	0.491856
	H323	H	0.453485	0.470256	0.496870
	O324	O	1.077212	0.035419	0.003932
	H325	H	1.079099	0.038241	0.011425
	H326	H	1.080545	0.045466	0.011483
	O327	O	0.915853	1.004805	0.010286
	H328	H	0.910938	1.004195	0.005602
	H329	H	0.919710	1.006536	0.007877
	O330	O	1.015994	1.008660	0.082413
	H331	H	1.016874	1.007581	0.088445
	H332	H	1.022861	1.018879	0.080908
	O333	O	0.514666	0.562165	0.495236
	H334	H	0.518008	0.568375	0.502437
	H335	H	0.514533	0.562445	0.494889
