data_Molecule from HDF5

_cell_length_a		16.360883
_cell_length_b		16.237028
_cell_length_c		16.357855
_cell_angle_alpha	90.097079
_cell_angle_beta	90.075514
_cell_angle_gamma	90.014895
_symmetry_space_group_name_H-M	'P 1'
_symmetry_Int_Tables_number		1

loop_
	_symmetry_equiv_pos_as_xyz
	x,y,z

loop_
	_atom_site_label
	_atom_site_type_symbol
	_atom_site_fract_x
	_atom_site_fract_y
	_atom_site_fract_z
	H0	H	0.406104	0.838562	0.715123
	H1	H	0.603664	0.166217	0.716204
	H2	H	0.604107	0.838876	0.286967
	H3	H	0.406391	0.165938	0.285994
	H4	H	0.721640	0.403074	0.838917
	H5	H	0.720315	0.601404	0.165251
	H6	H	0.288935	0.602332	0.839034
	H7	H	0.289705	0.403053	0.164367
	H8	H	0.841426	0.716130	0.404324
	H9	H	0.169065	0.716231	0.598264
	H10	H	0.841325	0.288975	0.598378
	H11	H	0.169302	0.289512	0.405162
	H12	H	0.842198	0.404599	0.716163
	H13	H	0.167882	0.603156	0.717316
	H14	H	0.842601	0.601316	0.285652
	H15	H	0.168055	0.403346	0.286044
	H16	H	0.406283	0.717345	0.837892
	H17	H	0.602812	0.717372	0.164450
	H18	H	0.602311	0.288382	0.837992
	H19	H	0.408657	0.289444	0.165342
	H20	H	0.719012	0.839005	0.403105
	H21	H	0.719545	0.166761	0.600326
	H22	H	0.290422	0.839310	0.598952
	H23	H	0.292047	0.167817	0.403196
	H24	H	0.909072	0.338442	0.213861
	H25	H	0.105042	0.666453	0.217629
	H26	H	0.103866	0.338858	0.786833
	H27	H	0.907505	0.667747	0.788775
	H28	H	0.221612	0.902630	0.338574
	H29	H	0.220906	0.102681	0.663841
	H30	H	0.789775	0.101687	0.337509
	H31	H	0.788071	0.902355	0.663083
	H32	H	0.341890	0.217165	0.903864
	H33	H	0.669208	0.215744	0.098939
	H34	H	0.342342	0.788898	0.098062
	H35	H	0.669222	0.789170	0.903728
	H36	H	0.342717	0.902266	0.216575
	H37	H	0.668047	0.101114	0.216446
	H38	H	0.342120	0.102058	0.785836
	H39	H	0.667261	0.902213	0.784474
	H40	H	0.909041	0.215778	0.336774
	H41	H	0.100756	0.215468	0.665113
	H42	H	0.102254	0.788141	0.337789
	H43	H	0.907903	0.789517	0.664574
	H44	H	0.218880	0.338747	0.903778
	H45	H	0.221014	0.666732	0.101968
	H46	H	0.792049	0.339000	0.099138
	H47	H	0.791593	0.667164	0.904195
	H48	H	0.415738	0.116742	0.589608
	H49	H	0.593712	0.887739	0.592050
	H50	H	0.606363	0.122754	0.405748
	H51	H	0.421125	0.888695	0.408104
	H52	H	0.606191	0.401990	0.121482
	H53	H	0.605097	0.592606	0.885107
	H54	H	0.417759	0.598669	0.116251
	H55	H	0.403580	0.416664	0.885437
	H56	H	0.119794	0.597168	0.411226
	H57	H	0.892798	0.592439	0.588803
	H58	H	0.119974	0.412508	0.595748
	H59	H	0.888754	0.411899	0.403321
	H60	H	0.121571	0.408976	0.597439
	H61	H	0.888087	0.591951	0.603397
	H62	H	0.119507	0.592596	0.410312
	H63	H	0.888200	0.406151	0.406604
	H64	H	0.407908	0.597941	0.118259
	H65	H	0.594780	0.590645	0.888594
	H66	H	0.603953	0.418563	0.115668
	H67	H	0.421424	0.413660	0.890324
	H68	H	0.591110	0.119289	0.402537
	H69	H	0.600613	0.886144	0.590012
	H70	H	0.407815	0.120938	0.594448
	H71	H	0.408194	0.886741	0.415676
	H72	H	0.906216	0.620028	0.088820
	H73	H	0.096065	0.384515	0.104367
	H74	H	0.107855	0.622568	0.907428
	H75	H	0.927283	0.393071	0.913074
	H76	H	0.098443	0.908880	0.616508
	H77	H	0.090101	0.093567	0.388561
	H78	H	0.909874	0.096807	0.616659
	H79	H	0.913733	0.907766	0.385383
	H80	H	0.623271	0.099210	0.902583
	H81	H	0.389872	0.098240	0.091001
	H82	H	0.619823	0.910055	0.093821
	H83	H	0.389460	0.912319	0.903586
	H84	H	0.621174	0.911813	0.096350
	H85	H	0.390641	0.091605	0.095588
	H86	H	0.619081	0.098276	0.913898
	H87	H	0.388308	0.905530	0.909337
	H88	H	0.910966	0.093635	0.615990
	H89	H	0.101285	0.104996	0.381994
	H90	H	0.100631	0.910524	0.616766
	H91	H	0.908493	0.909979	0.384540
	H92	H	0.091003	0.619458	0.900783
	H93	H	0.091418	0.390578	0.088311
	H94	H	0.910494	0.623347	0.102267
	H95	H	0.900261	0.386432	0.918345
	H96	H	0.416522	0.119672	0.599371
	H97	H	0.598302	0.884894	0.596427
	H98	H	0.596852	0.116726	0.416392
	H99	H	0.408580	0.882905	0.401125
	H100	H	0.590714	0.407382	0.114785
	H101	H	0.597612	0.600812	0.885031
	H102	H	0.413141	0.589533	0.115054
	H103	H	0.411190	0.399807	0.882591
	H104	H	0.121527	0.595198	0.406944
	H105	H	0.886750	0.604875	0.596157
	H106	H	0.119694	0.408556	0.592996
	H107	H	0.891156	0.411522	0.409901
	H108	H	0.919668	0.617027	0.093496
	H109	H	0.108428	0.383894	0.091447
	H110	H	0.094658	0.615486	0.918555
	H111	H	0.911097	0.381180	0.893129
	H112	H	0.097707	0.911792	0.615994
	H113	H	0.106704	0.089300	0.385279
	H114	H	0.913308	0.096097	0.615925
	H115	H	0.912584	0.912787	0.386599
	H116	H	0.619032	0.088561	0.906411
	H117	H	0.387280	0.098433	0.099092
	H118	H	0.621690	0.908278	0.096182
	H119	H	0.392398	0.913887	0.911784
	C120	C	0.384366	0.010887	0.622265
	C121	C	0.626273	0.994439	0.622215
	C122	C	0.626327	0.011299	0.380018
	C123	C	0.384211	0.994776	0.379926
	C124	C	0.627926	0.380672	0.009596
	C125	C	0.627364	0.623809	0.993746
	C126	C	0.383716	0.624451	0.009000
	C127	C	0.383635	0.381161	0.993887
	C128	C	0.012879	0.624220	0.380204
	C129	C	0.997125	0.624656	0.623760
	C130	C	0.012989	0.381058	0.623399
	C131	C	0.997087	0.381170	0.379147
	C132	C	0.884533	0.511538	0.122650
	C133	C	0.127372	0.494418	0.123502
	C134	C	0.126257	0.510912	0.880245
	C135	C	0.884227	0.495333	0.879966
	C136	C	0.127442	0.881106	0.508924
	C137	C	0.127329	0.124673	0.493113
	C138	C	0.883247	0.124163	0.508561
	C139	C	0.883082	0.881252	0.493054
	C140	C	0.513021	0.124121	0.879515
	C141	C	0.497161	0.124265	0.123455
	C142	C	0.513661	0.880965	0.123450
	C143	C	0.497334	0.881170	0.879321
	C144	C	0.385875	0.887590	0.677525
	C145	C	0.624126	0.117572	0.677956
	C146	C	0.624144	0.887891	0.324688
	C147	C	0.386081	0.117430	0.324180
	C148	C	0.682935	0.382796	0.887116
	C149	C	0.682355	0.621685	0.116378
	C150	C	0.327523	0.622491	0.887229
	C151	C	0.328255	0.383456	0.115940
	C152	C	0.890353	0.679075	0.383090
	C153	C	0.119993	0.679117	0.619589
	C154	C	0.890011	0.326835	0.619392
	C155	C	0.120242	0.326662	0.383334
	C156	C	0.890703	0.383888	0.678273
	C157	C	0.119721	0.622500	0.678300
	C158	C	0.890855	0.621895	0.324342
	C159	C	0.119748	0.383113	0.324300
	C160	C	0.385922	0.679755	0.886828
	C161	C	0.623804	0.679092	0.116221
	C162	C	0.623924	0.325789	0.886717
	C163	C	0.387601	0.327015	0.116502
	C164	C	0.681166	0.887745	0.382407
	C165	C	0.681678	0.117704	0.620484
	C166	C	0.328464	0.887805	0.619639
	C167	C	0.329080	0.118243	0.382248
	C168	C	0.887760	0.387668	0.176751
	C169	C	0.125287	0.617751	0.179343
	C170	C	0.124169	0.387708	0.824633
	C171	C	0.886870	0.618576	0.825786
	C172	C	0.182663	0.883036	0.386725
	C173	C	0.182627	0.122646	0.615462
	C174	C	0.827901	0.122271	0.386151
	C175	C	0.826907	0.882958	0.614809
	C176	C	0.390430	0.179234	0.882800
	C177	C	0.620268	0.178430	0.119853
	C178	C	0.390913	0.826161	0.119839
	C179	C	0.620106	0.826384	0.882657
	C180	C	0.391205	0.882955	0.178444
	C181	C	0.619640	0.121637	0.178364
	C182	C	0.390676	0.122100	0.824017
	C183	C	0.619267	0.882537	0.823443
	C184	C	0.887144	0.178676	0.385612
	C185	C	0.123409	0.179109	0.616007
	C186	C	0.123674	0.825938	0.386399
	C187	C	0.886303	0.826583	0.615548
	C188	C	0.181212	0.387596	0.882873
	C189	C	0.182948	0.617770	0.122013
	C190	C	0.830147	0.387897	0.119522
	C191	C	0.829064	0.618372	0.883098
	C192	C	0.406676	0.096741	0.600608
	C193	C	0.604035	0.908519	0.599486
	C194	C	0.604495	0.097459	0.401876
	C195	C	0.405929	0.908485	0.402100
	C196	C	0.606677	0.402649	0.095277
	C197	C	0.605400	0.601356	0.908241
	C198	C	0.406259	0.601914	0.094468
	C199	C	0.405652	0.403541	0.908111
	C200	C	0.098208	0.601747	0.402848
	C201	C	0.911257	0.602880	0.602528
	C202	C	0.098495	0.403243	0.601698
	C203	C	0.911639	0.403298	0.400501
	C204	C	0.905921	0.597909	0.101149
	C205	C	0.105235	0.408569	0.101110
	C206	C	0.104346	0.596982	0.902389
	C207	C	0.906185	0.409154	0.901694
	C208	C	0.105425	0.903639	0.594390
	C209	C	0.105702	0.102494	0.407404
	C210	C	0.905187	0.102024	0.594076
	C211	C	0.905227	0.903587	0.407532
	C212	C	0.598445	0.101925	0.901166
	C213	C	0.411526	0.102354	0.101595
	C214	C	0.598977	0.903224	0.101739
	C215	C	0.412049	0.903983	0.901597
	Zn216	Zn	0.505355	0.002333	0.750577
	Zn217	Zn	0.505148	0.002641	0.252157
	Zn218	Zn	0.756442	0.502689	0.001512
	Zn219	Zn	0.254687	0.502896	0.001772
	Zn220	Zn	0.005118	0.752916	0.501738
	Zn221	Zn	0.004993	0.252796	0.500884
	Zn222	Zn	0.005344	0.503418	0.752006
	Zn223	Zn	0.005307	0.502898	0.250807
	Zn224	Zn	0.505710	0.753033	0.000804
	Zn225	Zn	0.505300	0.252540	0.001929
	Zn226	Zn	0.754287	0.002763	0.500675
	Zn227	Zn	0.256205	0.003168	0.500797
	N228	N	0.419883	0.965104	0.679241
	N229	N	0.590609	0.039845	0.679205
	N230	N	0.590603	0.965660	0.323226
	N231	N	0.419742	0.039801	0.323110
	N232	N	0.685224	0.416263	0.964285
	N233	N	0.684482	0.587869	0.039134
	N234	N	0.326387	0.588588	0.964258
	N235	N	0.325820	0.416413	0.038410
	N236	N	0.967310	0.680397	0.417119
	N237	N	0.042793	0.680396	0.586101
	N238	N	0.967025	0.325139	0.585844
	N239	N	0.043091	0.325246	0.416675
	N240	N	0.968140	0.416899	0.680879
	N241	N	0.042356	0.589525	0.680985
	N242	N	0.968141	0.588653	0.322554
	N243	N	0.042479	0.416446	0.321776
	N244	N	0.420271	0.680924	0.963647
	N245	N	0.590534	0.680642	0.039045
	N246	N	0.590397	0.324299	0.963949
	N247	N	0.421138	0.325522	0.039521
	N248	N	0.682580	0.965301	0.416043
	N249	N	0.683117	0.040160	0.586436
	N250	N	0.327487	0.965276	0.585906
	N251	N	0.327824	0.040804	0.416235
	N252	N	0.920982	0.465450	0.178663
	N253	N	0.091528	0.540127	0.180447
	N254	N	0.090629	0.465376	0.823129
	N255	N	0.920564	0.541001	0.823993
	N256	N	0.185057	0.916478	0.464016
	N257	N	0.185045	0.089461	0.538027
	N258	N	0.825440	0.089041	0.463422
	N259	N	0.824866	0.916125	0.537378
	N260	N	0.467326	0.180569	0.916523
	N261	N	0.542971	0.180262	0.086383
	N262	N	0.467791	0.824905	0.086142
	N263	N	0.543314	0.825432	0.916876
	N264	N	0.468662	0.916223	0.180889
	N265	N	0.542281	0.088805	0.180751
	N266	N	0.467902	0.088537	0.821856
	N267	N	0.541967	0.915830	0.821437
	N268	N	0.920836	0.179915	0.462727
	N269	N	0.089692	0.180338	0.538964
	N270	N	0.089960	0.824862	0.463434
	N271	N	0.920541	0.825582	0.538908
	N272	N	0.182546	0.465092	0.916780
	N273	N	0.184085	0.540315	0.087748
	N274	N	0.828115	0.465794	0.086488
	N275	N	0.827519	0.540642	0.916224
	O276	O	-0.025581	0.012888	0.950844
	H277	H	-0.026949	0.013835	0.947128
	H278	H	-0.027213	0.013128	0.948704
	O279	O	0.480949	0.514655	0.547410
	H280	H	0.475079	0.514099	0.542311
	H281	H	0.478321	0.522379	0.548519
	O282	O	0.482102	0.510598	0.474757
	H283	H	0.479842	0.501281	0.468220
	H284	H	0.490186	0.510626	0.471089
	O285	O	0.469549	0.522630	0.503637
	H286	H	0.467958	0.515855	0.505836
	H287	H	0.461118	0.523220	0.506483
	O288	O	0.432822	0.581859	0.520467
	H289	H	0.436957	0.576326	0.515891
	H290	H	0.432568	0.574195	0.518001
	O291	O	-0.409075	0.718998	0.635033
	H292	H	-0.406776	0.726964	0.642973
	H293	H	-0.402840	0.721310	0.635798
	O294	O	0.439122	0.541397	0.483755
	H295	H	0.432350	0.547811	0.487449
	H296	H	0.443274	0.547161	0.495963
	O297	O	0.984868	-0.012520	-0.022330
	H298	H	0.988496	-0.014313	-0.027039
	H299	H	0.983403	-0.016957	-0.027971
