data_Molecule from HDF5

_cell_length_a		16.424730
_cell_length_b		16.343330
_cell_length_c		16.485739
_cell_angle_alpha	89.972356
_cell_angle_beta	90.095139
_cell_angle_gamma	90.050778
_symmetry_space_group_name_H-M	'P 1'
_symmetry_Int_Tables_number		1

loop_
	_symmetry_equiv_pos_as_xyz
	x,y,z

loop_
	_atom_site_label
	_atom_site_type_symbol
	_atom_site_fract_x
	_atom_site_fract_y
	_atom_site_fract_z
	H0	H	0.396161	0.841245	0.728079
	H1	H	0.607590	0.160301	0.728207
	H2	H	0.604121	0.841518	0.288709
	H3	H	0.395318	0.160057	0.285628
	H4	H	0.723626	0.395323	0.849963
	H5	H	0.724071	0.607316	0.165342
	H6	H	0.278385	0.608609	0.851170
	H7	H	0.279334	0.395171	0.166236
	H8	H	0.841842	0.718662	0.408111
	H9	H	0.161442	0.721533	0.614830
	H10	H	0.843786	0.277413	0.615605
	H11	H	0.160889	0.279655	0.405918
	H12	H	0.842901	0.394142	0.729909
	H13	H	0.160563	0.606953	0.732190
	H14	H	0.843343	0.605205	0.288325
	H15	H	0.159212	0.391032	0.285510
	H16	H	0.397624	0.721052	0.848476
	H17	H	0.606592	0.722598	0.166254
	H18	H	0.605957	0.280609	0.848670
	H19	H	0.395482	0.278446	0.165913
	H20	H	0.720276	0.841361	0.405007
	H21	H	0.723597	0.160139	0.613586
	H22	H	0.282859	0.840254	0.610296
	H23	H	0.280859	0.160903	0.402365
	H24	H	0.893522	0.341596	0.231905
	H25	H	0.106678	0.659885	0.231002
	H26	H	0.108297	0.341910	0.787798
	H27	H	0.896522	0.660067	0.788662
	H28	H	0.223813	0.892980	0.350167
	H29	H	0.225592	0.104678	0.665965
	H30	H	0.780316	0.107922	0.350791
	H31	H	0.779736	0.895627	0.666954
	H32	H	0.342276	0.223674	0.900354
	H33	H	0.659568	0.221792	0.110560
	H34	H	0.343541	0.779631	0.112378
	H35	H	0.661549	0.782971	0.904449
	H36	H	0.344131	0.893111	0.230160
	H37	H	0.658979	0.108680	0.229102
	H38	H	0.342477	0.107724	0.783834
	H39	H	0.658944	0.895291	0.785293
	H40	H	0.895715	0.224524	0.352255
	H41	H	0.108400	0.220447	0.668107
	H42	H	0.107190	0.777626	0.350549
	H43	H	0.900104	0.782310	0.668417
	H44	H	0.224990	0.343374	0.902219
	H45	H	0.222333	0.660396	0.115631
	H46	H	0.779135	0.341207	0.114386
	H47	H	0.783905	0.661387	0.906911
	H48	H	0.420898	0.110753	0.592115
	H49	H	0.591853	0.887529	0.594249
	H50	H	0.587134	0.114300	0.418064
	H51	H	0.412128	0.885852	0.414328
	H52	H	0.588237	0.407507	0.120769
	H53	H	0.593991	0.596429	0.891765
	H54	H	0.413110	0.590232	0.120905
	H55	H	0.408858	0.412538	0.894636
	H56	H	0.115108	0.588475	0.418617
	H57	H	0.889221	0.591124	0.597517
	H58	H	0.114476	0.410972	0.597497
	H59	H	0.889911	0.415472	0.419066
	H60	H	0.113829	0.414633	0.598794
	H61	H	0.890104	0.588169	0.599271
	H62	H	0.115129	0.590237	0.420905
	H63	H	0.888439	0.410219	0.420342
	H64	H	0.413026	0.591346	0.120673
	H65	H	0.596139	0.587865	0.894188
	H66	H	0.595200	0.414681	0.120563
	H67	H	0.412929	0.420763	0.898173
	H68	H	0.593108	0.115668	0.420578
	H69	H	0.590184	0.886053	0.599548
	H70	H	0.407602	0.114054	0.590552
	H71	H	0.417445	0.889524	0.418401
	H72	H	0.914497	0.610960	0.091035
	H73	H	0.084453	0.389941	0.095631
	H74	H	0.091494	0.614502	0.922169
	H75	H	0.913412	0.388188	0.923877
	H76	H	0.095036	0.911657	0.621424
	H77	H	0.092552	0.084690	0.397312
	H78	H	0.923107	0.093954	0.619967
	H79	H	0.911000	0.908313	0.394478
	H80	H	0.617088	0.093498	0.910586
	H81	H	0.387159	0.092067	0.094234
	H82	H	0.610626	0.916423	0.089236
	H83	H	0.386449	0.910476	0.914534
	H84	H	0.616153	0.918700	0.106438
	H85	H	0.390205	0.086058	0.093000
	H86	H	0.613910	0.094742	0.923076
	H87	H	0.388300	0.910272	0.920905
	H88	H	0.903677	0.093409	0.626878
	H89	H	0.084812	0.090212	0.397937
	H90	H	0.092271	0.914336	0.619962
	H91	H	0.909154	0.912171	0.394699
	H92	H	0.089385	0.615301	0.916563
	H93	H	0.092470	0.388543	0.093579
	H94	H	0.905671	0.617236	0.100378
	H95	H	0.906748	0.384014	0.918645
	H96	H	0.413709	0.116462	0.602334
	H97	H	0.586626	0.888812	0.596115
	H98	H	0.592035	0.117531	0.414905
	H99	H	0.410778	0.888150	0.421747
	H100	H	0.586104	0.416761	0.117112
	H101	H	0.587828	0.591772	0.896126
	H102	H	0.411890	0.590757	0.121358
	H103	H	0.418104	0.412469	0.896783
	H104	H	0.114610	0.587369	0.420775
	H105	H	0.888409	0.591223	0.600968
	H106	H	0.115519	0.412182	0.601381
	H107	H	0.890965	0.413791	0.424242
	H108	H	0.919222	0.613756	0.104519
	H109	H	0.089509	0.386147	0.101336
	H110	H	0.086170	0.612656	0.921456
	H111	H	0.915774	0.386029	0.915070
	H112	H	0.090981	0.909847	0.621051
	H113	H	0.092468	0.093455	0.394288
	H114	H	0.912067	0.076694	0.617777
	H115	H	0.912613	0.910856	0.396497
	H116	H	0.611300	0.083586	0.917151
	H117	H	0.387628	0.087500	0.099241
	H118	H	0.618184	0.902747	0.097872
	H119	H	0.389556	0.915414	0.917931
	C120	C	0.381207	0.008626	0.627838
	C121	C	0.622338	0.992678	0.628837
	C122	C	0.622460	0.010235	0.386417
	C123	C	0.380198	0.992656	0.385260
	C124	C	0.622510	0.379995	0.015602
	C125	C	0.624022	0.623621	0.999039
	C126	C	0.380306	0.623240	0.016459
	C127	C	0.379841	0.380871	1.000349
	C128	C	0.009997	0.621084	0.388569
	C129	C	0.994049	0.622341	0.631291
	C130	C	0.010381	0.379073	0.631495
	C131	C	0.993802	0.379101	0.388326
	C132	C	0.879630	0.509075	0.130955
	C133	C	0.121863	0.492901	0.130277
	C134	C	0.122586	0.509649	0.887744
	C135	C	0.880462	0.491958	0.887502
	C136	C	0.124224	0.879053	0.516301
	C137	C	0.123511	0.121540	0.500767
	C138	C	0.880528	0.121815	0.517483
	C139	C	0.879610	0.878881	0.500441
	C140	C	0.509232	0.123359	0.884532
	C141	C	0.492789	0.121790	0.127826
	C142	C	0.510513	0.879598	0.129525
	C143	C	0.493118	0.880142	0.886016
	C144	C	0.378393	0.888944	0.687929
	C145	C	0.625233	0.112431	0.688615
	C146	C	0.623347	0.889588	0.327957
	C147	C	0.377025	0.112318	0.325099
	C148	C	0.683169	0.377431	0.897179
	C149	C	0.683629	0.625615	0.118351
	C150	C	0.318823	0.626210	0.898134
	C151	C	0.319545	0.377092	0.118919
	C152	C	0.889998	0.679827	0.388242
	C153	C	0.113516	0.682084	0.633328
	C154	C	0.891349	0.317705	0.633935
	C155	C	0.113015	0.318805	0.386415
	C156	C	0.890801	0.376010	0.690871
	C157	C	0.112995	0.624830	0.691749
	C158	C	0.890461	0.623245	0.328932
	C159	C	0.112173	0.374681	0.326554
	C160	C	0.378610	0.682248	0.896832
	C161	C	0.625248	0.683014	0.118485
	C162	C	0.624482	0.320065	0.896647
	C163	C	0.377210	0.318870	0.118494
	C164	C	0.680824	0.889383	0.386059
	C165	C	0.683069	0.112383	0.631277
	C166	C	0.321875	0.888533	0.629249
	C167	C	0.320268	0.112711	0.383439
	C168	C	0.875949	0.389274	0.191322
	C169	C	0.124710	0.612118	0.190986
	C170	C	0.126174	0.389938	0.827556
	C171	C	0.878601	0.612138	0.828194
	C172	C	0.183931	0.875367	0.397477
	C173	C	0.185096	0.123614	0.618936
	C174	C	0.820097	0.125978	0.398626
	C175	C	0.820093	0.877445	0.619559
	C176	C	0.389926	0.183674	0.882072
	C177	C	0.612157	0.181930	0.129278
	C178	C	0.391138	0.819365	0.131002
	C179	C	0.613063	0.821556	0.885154
	C180	C	0.391415	0.876072	0.189506
	C181	C	0.611648	0.125624	0.188437
	C182	C	0.389965	0.125780	0.824139
	C183	C	0.612242	0.877919	0.826180
	C184	C	0.877660	0.184121	0.399218
	C185	C	0.126589	0.180954	0.620123
	C186	C	0.125791	0.817810	0.397932
	C187	C	0.879829	0.820984	0.620378
	C188	C	0.184408	0.390759	0.884678
	C189	C	0.182042	0.612667	0.133102
	C190	C	0.818852	0.389169	0.132904
	C191	C	0.822382	0.612921	0.887006
	C192	C	0.406858	0.092060	0.602482
	C193	C	0.596909	0.909311	0.603819
	C194	C	0.597879	0.093898	0.410580
	C195	C	0.405862	0.909590	0.410597
	C196	C	0.597182	0.405610	0.098220
	C197	C	0.599453	0.599063	0.915899
	C198	C	0.405437	0.598095	0.099148
	C199	C	0.405692	0.407586	0.918009
	C200	C	0.093199	0.595974	0.413025
	C201	C	0.911028	0.597223	0.606344
	C202	C	0.093091	0.405075	0.606382
	C203	C	0.911260	0.405547	0.413842
	C204	C	0.905600	0.592232	0.105858
	C205	C	0.096043	0.409722	0.104365
	C206	C	0.096487	0.592637	0.912774
	C207	C	0.904941	0.408078	0.912017
	C208	C	0.099735	0.904649	0.599171
	C209	C	0.097576	0.096706	0.418112
	C210	C	0.905842	0.095645	0.599846
	C211	C	0.903865	0.903280	0.417028
	C212	C	0.592332	0.098025	0.909654
	C213	C	0.409873	0.095801	0.102624
	C214	C	0.593497	0.905375	0.104932
	C215	C	0.409718	0.905051	0.910719
	Zn216	Zn	0.501165	0.001078	0.757035
	Zn217	Zn	0.501317	0.001590	0.257543
	Zn218	Zn	0.752091	0.501005	0.008299
	Zn219	Zn	0.250778	0.501953	0.009524
	Zn220	Zn	0.002555	0.750675	0.509322
	Zn221	Zn	0.002412	0.250590	0.510147
	Zn222	Zn	0.001381	0.500029	0.759254
	Zn223	Zn	0.001549	0.499911	0.259005
	Zn224	Zn	0.501922	0.752116	0.007371
	Zn225	Zn	0.500296	0.251079	0.006951
	Zn226	Zn	0.750805	0.001115	0.508188
	Zn227	Zn	0.252986	0.000603	0.506811
	N228	N	0.414597	0.964854	0.687141
	N229	N	0.587928	0.037098	0.687138
	N230	N	0.587899	0.965720	0.327964
	N231	N	0.413460	0.036757	0.326073
	N232	N	0.682109	0.414051	0.972274
	N233	N	0.682979	0.589328	0.043231
	N234	N	0.319454	0.590449	0.973735
	N235	N	0.321222	0.414782	0.044542
	N236	N	0.965364	0.678513	0.424548
	N237	N	0.038444	0.680775	0.596571
	N238	N	0.966795	0.319282	0.597885
	N239	N	0.038638	0.321577	0.424253
	N240	N	0.965835	0.413178	0.689608
	N241	N	0.037549	0.588533	0.690837
	N242	N	0.965997	0.587284	0.328983
	N243	N	0.036805	0.411346	0.327675
	N244	N	0.415874	0.680737	0.971477
	N245	N	0.588917	0.682027	0.043331
	N246	N	0.587528	0.321503	0.971315
	N247	N	0.413964	0.321145	0.043528
	N248	N	0.680680	0.965456	0.421455
	N249	N	0.681214	0.036956	0.594660
	N250	N	0.323592	0.963980	0.592561
	N251	N	0.321791	0.037067	0.419813
	N252	N	0.913026	0.464616	0.190291
	N253	N	0.088207	0.536533	0.189330
	N254	N	0.088379	0.464764	0.829333
	N255	N	0.913620	0.535793	0.828136
	N256	N	0.183079	0.912679	0.471996
	N257	N	0.183479	0.087773	0.543617
	N258	N	0.821687	0.088129	0.473029
	N259	N	0.819562	0.912483	0.543712
	N260	N	0.465097	0.182426	0.918617
	N261	N	0.537163	0.179760	0.092274
	N262	N	0.466184	0.821457	0.094400
	N263	N	0.538050	0.823151	0.921855
	N264	N	0.466660	0.912971	0.188689
	N265	N	0.536287	0.088908	0.187584
	N266	N	0.465359	0.089388	0.825224
	N267	N	0.536570	0.913610	0.826607
	N268	N	0.914715	0.181739	0.474101
	N269	N	0.089125	0.180053	0.545538
	N270	N	0.089432	0.819948	0.472911
	N271	N	0.916019	0.821796	0.545269
	N272	N	0.182396	0.466307	0.921379
	N273	N	0.180426	0.537368	0.095939
	N274	N	0.820857	0.464821	0.096179
	N275	N	0.823209	0.537157	0.923050
	O276	O	0.367367	0.329140	0.696098
	H277	H	0.364273	0.338487	0.703416
	H278	H	0.375434	0.339713	0.680229
	O279	O	0.556272	0.594110	0.309434
	H280	H	0.566101	0.588524	0.330232
	H281	H	0.565111	0.571139	0.306906
	O282	O	0.322303	0.492677	0.301353
	H283	H	0.325996	0.510570	0.297609
	H284	H	0.302769	0.501361	0.293925
	O285	O	1.197046	1.084689	-0.026670
	H286	H	1.177238	1.088661	-0.021166
	H287	H	1.205889	1.114492	-0.017359
	O288	O	0.523719	0.335817	0.652954
	H289	H	0.523835	0.328553	0.667063
	H290	H	0.513401	0.317874	0.645896
	O291	O	0.680838	0.359905	0.328971
	H292	H	0.682050	0.340815	0.362860
	H293	H	0.655387	0.350720	0.317717
	O294	O	0.953528	0.824340	0.850302
	H295	H	0.946509	0.843232	0.865142
	H296	H	0.956083	0.808711	0.843861
	O297	O	0.466335	0.470776	0.691564
	H298	H	0.486582	0.474726	0.690967
	H299	H	0.472000	0.464447	0.708207
	O300	O	0.489642	0.385433	0.362052
	H301	H	0.479821	0.382517	0.362672
	H302	H	0.466720	0.404280	0.365926
	O303	O	0.703134	0.483207	0.365670
	H304	H	0.694051	0.444536	0.375823
	H305	H	0.729552	0.476354	0.335948
	O306	O	0.152118	-0.089384	1.130224
	H307	H	0.137619	-0.088562	1.115585
	H308	H	0.154176	-0.091243	1.109908
	O309	O	1.085073	-0.020066	-0.043633
	H310	H	1.086058	-0.034883	-0.043969
	H311	H	1.098403	-0.020846	-0.044730
	O312	O	0.351148	0.447805	0.394784
	H313	H	0.353316	0.461406	0.375999
	H314	H	0.354351	0.457774	0.399200
	O315	O	0.107831	-0.150818	0.818879
	H316	H	0.099174	-0.138833	0.821654
	H317	H	0.103049	-0.140773	0.803577
	O318	O	-0.044193	0.072785	0.140826
	H319	H	-0.041098	0.078812	0.132711
	H320	H	-0.046973	0.061463	0.147926
	O321	O	1.129945	-0.054615	0.190654
	H322	H	1.140518	-0.067930	0.210012
	H323	H	1.136800	-0.050807	0.171696
	O324	O	0.853273	-0.199740	1.078930
	H325	H	0.830964	-0.193643	1.086603
	H326	H	0.856771	-0.221557	1.091586
	O327	O	0.437081	0.665064	0.303146
	H328	H	0.456168	0.649838	0.308734
	H329	H	0.441590	0.683776	0.276681
	O330	O	0.057845	1.087045	0.805515
	H331	H	0.056854	1.095207	0.798050
	H332	H	0.055713	1.098240	0.807763
	O333	O	0.000214	0.867581	0.066595
	H334	H	-0.012462	0.879275	0.076930
	H335	H	0.009162	0.874994	0.056863
	O336	O	0.987491	0.967070	-0.064109
	H337	H	0.981780	0.969168	-0.071240
	H338	H	0.991437	0.956576	-0.059406
	O339	O	-0.001088	0.873491	0.870248
	H340	H	0.011341	0.880347	0.888526
	H341	H	-0.004375	0.887289	0.881766
	O342	O	0.708699	0.543948	0.711406
	H343	H	0.727252	0.541001	0.730305
	H344	H	0.710515	0.555083	0.695767
	O345	O	-0.127534	-0.119918	1.202882
	H346	H	-0.131936	-0.127995	1.220155
	H347	H	-0.110073	-0.120601	1.195404
	O348	O	0.302190	0.702400	0.474835
	H349	H	0.294284	0.690190	0.471117
	H350	H	0.299307	0.718242	0.479217
	O351	O	0.926090	0.815005	0.198090
	H352	H	0.923764	0.813879	0.212809
	H353	H	0.914627	0.814911	0.196630
	O354	O	0.956215	1.070821	1.129429
	H355	H	0.969169	1.052558	1.136105
	H356	H	0.966801	1.067118	1.119788
	O357	O	-0.141861	0.042935	0.157534
	H358	H	-0.140342	0.040157	0.145135
	H359	H	-0.156324	0.042592	0.168221
	O360	O	0.680354	0.674680	0.694433
	H361	H	0.684768	0.663448	0.685848
	H362	H	0.666507	0.683853	0.704196
	O363	O	1.193538	0.155814	0.089807
	H364	H	1.189199	0.133990	0.120868
	H365	H	1.189231	0.173329	0.098061
	O366	O	0.189659	-0.149793	0.935126
	H367	H	0.197859	-0.154157	0.941850
	H368	H	0.195090	-0.141587	0.911091
	O369	O	0.474606	0.375892	0.486829
	H370	H	0.478107	0.376408	0.491764
	H371	H	0.477112	0.381405	0.475916
	O372	O	0.675407	0.447730	0.494669
	H373	H	0.672024	0.467489	0.490485
	H374	H	0.680580	0.444193	0.485459
	O375	O	0.206366	0.120197	1.154814
	H376	H	0.206879	0.111179	1.163690
	H377	H	0.220109	0.127936	1.157887
	O378	O	-0.092798	-0.001498	0.023679
	H379	H	-0.094728	-0.009642	0.028433
	H380	H	-0.094133	0.001642	0.016432
	O381	O	0.022848	1.096302	-0.167631
	H382	H	0.016682	1.089858	-0.175563
	H383	H	0.011001	1.093993	-0.165170
	O384	O	0.501192	0.616390	0.592766
	H385	H	0.513180	0.614141	0.594005
	H386	H	0.503209	0.631350	0.599375
	O387	O	0.622671	0.382203	0.495805
	H388	H	0.621507	0.389638	0.506200
	H389	H	0.624257	0.379182	0.498329
	O390	O	0.905480	0.869098	-0.067576
	H391	H	0.912724	0.886616	-0.070024
	H392	H	0.889676	0.864359	-0.065299
	O393	O	0.367563	0.634062	0.349029
	H394	H	0.378695	0.623182	0.358240
	H395	H	0.380069	0.646787	0.354039
	O396	O	0.509795	0.678337	0.693466
	H397	H	0.505334	0.695960	0.708880
	H398	H	0.506707	0.665100	0.685305
	O399	O	0.574917	0.411758	0.526591
	H400	H	0.585164	0.409676	0.536393
	H401	H	0.583601	0.424479	0.526438
	O402	O	0.853851	1.073007	-0.160249
	H403	H	0.854941	1.075154	-0.158368
	H404	H	0.858249	1.073469	-0.168815
	O405	O	0.367341	0.589205	0.527309
	H406	H	0.361032	0.591966	0.525200
	H407	H	0.372104	0.584350	0.549481
	O408	O	0.301056	0.510458	0.646018
	H409	H	0.292568	0.504993	0.672234
	H410	H	0.311949	0.494787	0.635759
	O411	O	1.047176	1.198932	0.946635
	H412	H	1.048708	1.198811	0.925304
	H413	H	1.054582	1.202059	0.953801
	O414	O	0.559186	0.373940	0.619509
	H415	H	0.560271	0.370907	0.635526
	H416	H	0.538622	0.383683	0.613008
	O417	O	-0.183431	1.176525	0.858652
	H418	H	-0.187482	1.158960	0.871287
	H419	H	-0.181545	1.179266	0.878767
	O420	O	-0.130789	1.073643	1.032590
	H421	H	-0.115441	1.080444	1.036855
	H422	H	-0.132205	1.069752	1.043669
	O423	O	0.074180	1.194957	0.189595
	H424	H	0.050614	1.178166	0.183742
	H425	H	0.071284	1.197795	0.213326
	O426	O	0.503611	0.383414	0.398947
	H427	H	0.503608	0.385047	0.394855
	H428	H	0.490944	0.381470	0.397109
	O429	O	0.303468	0.299675	0.571133
	H430	H	0.310852	0.304204	0.560068
	H431	H	0.297698	0.290846	0.571644
	O432	O	0.591577	0.665767	0.382094
	H433	H	0.583740	0.658809	0.375477
	H434	H	0.576932	0.654735	0.386099
	O435	O	-0.161182	0.146156	0.056655
	H436	H	-0.159579	0.140194	0.078312
	H437	H	-0.151358	0.146875	0.044894
	O438	O	0.700050	0.704423	0.533026
	H439	H	0.688299	0.721718	0.535131
	H440	H	0.708986	0.715064	0.544789
	O441	O	0.474441	0.534936	0.604510
	H442	H	0.476743	0.525424	0.609417
	H443	H	0.445413	0.527428	0.602378
