data_Molecule from HDF5

_cell_length_a		16.486911
_cell_length_b		16.605118
_cell_length_c		16.442879
_cell_angle_alpha	89.956219
_cell_angle_beta	89.930577
_cell_angle_gamma	90.005872
_symmetry_space_group_name_H-M	'P 1'
_symmetry_Int_Tables_number		1

loop_
	_symmetry_equiv_pos_as_xyz
	x,y,z

loop_
	_atom_site_label
	_atom_site_type_symbol
	_atom_site_fract_x
	_atom_site_fract_y
	_atom_site_fract_z
	H0	H	0.390051	0.843419	0.728051
	H1	H	0.598359	0.156361	0.727891
	H2	H	0.601363	0.842444	0.283859
	H3	H	0.391250	0.157025	0.286551
	H4	H	0.718941	0.392134	0.851087
	H5	H	0.717284	0.606069	0.165994
	H6	H	0.278287	0.600276	0.849164
	H7	H	0.275436	0.395102	0.167073
	H8	H	0.837306	0.724769	0.395336
	H9	H	0.151029	0.718482	0.608063
	H10	H	0.837784	0.274959	0.615899
	H11	H	0.152363	0.280374	0.403828
	H12	H	0.837600	0.392075	0.731756
	H13	H	0.152982	0.600069	0.722959
	H14	H	0.836910	0.606448	0.281940
	H15	H	0.153618	0.397895	0.289951
	H16	H	0.390461	0.719888	0.851133
	H17	H	0.603362	0.723576	0.164729
	H18	H	0.603894	0.275256	0.852091
	H19	H	0.389805	0.278082	0.166001
	H20	H	0.719231	0.843219	0.398794
	H21	H	0.717621	0.154217	0.613972
	H22	H	0.274977	0.842427	0.609271
	H23	H	0.272744	0.156650	0.400943
	H24	H	0.891083	0.342114	0.227514
	H25	H	0.100704	0.655974	0.229094
	H26	H	0.096566	0.341165	0.788802
	H27	H	0.890317	0.656273	0.785413
	H28	H	0.215317	0.894934	0.348346
	H29	H	0.213553	0.103034	0.664862
	H30	H	0.772372	0.105553	0.349154
	H31	H	0.770909	0.892202	0.663912
	H32	H	0.338209	0.221288	0.902221
	H33	H	0.650608	0.224908	0.116534
	H34	H	0.337671	0.778671	0.113657
	H35	H	0.651396	0.776139	0.899777
	H36	H	0.336249	0.896210	0.227581
	H37	H	0.651526	0.107496	0.231687
	H38	H	0.337366	0.104050	0.787296
	H39	H	0.651547	0.893459	0.784379
	H40	H	0.888128	0.221790	0.349336
	H41	H	0.100758	0.221559	0.664143
	H42	H	0.100165	0.777389	0.348494
	H43	H	0.885892	0.775214	0.663581
	H44	H	0.213499	0.341205	0.905747
	H45	H	0.214916	0.656808	0.110113
	H46	H	0.772156	0.343844	0.114067
	H47	H	0.772110	0.655604	0.900886
	H48	H	0.400469	0.112837	0.593254
	H49	H	0.580538	0.890212	0.589779
	H50	H	0.583907	0.108497	0.422444
	H51	H	0.412774	0.890356	0.418230
	H52	H	0.584163	0.413683	0.119677
	H53	H	0.579043	0.596481	0.895243
	H54	H	0.407252	0.587543	0.121209
	H55	H	0.408944	0.409476	0.896243
	H56	H	0.107929	0.599566	0.421231
	H57	H	0.881713	0.584328	0.594594
	H58	H	0.106323	0.406476	0.591245
	H59	H	0.883831	0.412474	0.421457
	H60	H	0.104671	0.414137	0.596735
	H61	H	0.879248	0.589552	0.597415
	H62	H	0.100328	0.582551	0.426387
	H63	H	0.881284	0.412274	0.415569
	H64	H	0.406321	0.592909	0.123404
	H65	H	0.591451	0.585214	0.894007
	H66	H	0.578885	0.414199	0.117544
	H67	H	0.403483	0.404173	0.892504
	H68	H	0.583995	0.110307	0.417722
	H69	H	0.587184	0.885924	0.595005
	H70	H	0.401954	0.114493	0.601217
	H71	H	0.398148	0.888491	0.424262
	H72	H	0.905465	0.609389	0.089233
	H73	H	0.087577	0.384358	0.102392
	H74	H	0.091683	0.614136	0.914220
	H75	H	0.910980	0.388134	0.914842
	H76	H	0.080753	0.903655	0.620775
	H77	H	0.084797	0.093396	0.391504
	H78	H	0.914289	0.082743	0.614157
	H79	H	0.916036	0.911829	0.397934
	H80	H	0.609519	0.089133	0.915913
	H81	H	0.380429	0.091709	0.099158
	H82	H	0.607454	0.909061	0.093217
	H83	H	0.382344	0.908027	0.920487
	H84	H	0.605560	0.913548	0.092792
	H85	H	0.383821	0.090345	0.091371
	H86	H	0.607461	0.090930	0.921661
	H87	H	0.383236	0.911700	0.919196
	H88	H	0.907148	0.095691	0.622176
	H89	H	0.086030	0.086213	0.393141
	H90	H	0.088075	0.909775	0.619814
	H91	H	0.903947	0.904815	0.392116
	H92	H	0.084241	0.612664	0.911702
	H93	H	0.079688	0.388263	0.098190
	H94	H	0.903357	0.612274	0.098822
	H95	H	0.907277	0.390653	0.925276
	H96	H	0.407652	0.111113	0.596510
	H97	H	0.578829	0.887996	0.598632
	H98	H	0.579704	0.108353	0.420274
	H99	H	0.401549	0.884063	0.409445
	H100	H	0.580379	0.410258	0.120198
	H101	H	0.576913	0.581047	0.900640
	H102	H	0.401851	0.588695	0.123257
	H103	H	0.401248	0.411866	0.894551
	H104	H	0.107810	0.585020	0.408626
	H105	H	0.880950	0.589529	0.591244
	H106	H	0.108657	0.405887	0.600659
	H107	H	0.881053	0.406843	0.419452
	H108	H	0.913091	0.609597	0.096347
	H109	H	0.088311	0.387696	0.093142
	H110	H	0.086704	0.610683	0.918601
	H111	H	0.900621	0.386090	0.918080
	H112	H	0.079521	0.912111	0.617186
	H113	H	0.079600	0.089552	0.394950
	H114	H	0.898422	0.082088	0.619463
	H115	H	0.903037	0.919066	0.396482
	H116	H	0.606359	0.084945	0.920093
	H117	H	0.384850	0.084242	0.097221
	H118	H	0.607563	0.912259	0.096908
	H119	H	0.381603	0.908503	0.916941
	C120	C	0.372252	0.008868	0.628644
	C121	C	0.615233	0.990972	0.628092
	C122	C	0.616178	0.006597	0.385737
	C123	C	0.372471	0.991372	0.385258
	C124	C	0.615357	0.379035	0.015856
	C125	C	0.616579	0.621222	0.999849
	C126	C	0.374081	0.620604	0.017646
	C127	C	0.373152	0.377225	0.999324
	C128	C	0.001894	0.621893	0.384414
	C129	C	0.984981	0.619445	0.626258
	C130	C	0.002602	0.376552	0.629397
	C131	C	0.986353	0.378950	0.387119
	C132	C	0.874322	0.507748	0.128103
	C133	C	0.116615	0.490742	0.129276
	C134	C	0.117299	0.507850	0.885071
	C135	C	0.873264	0.491358	0.885756
	C136	C	0.115417	0.877205	0.514838
	C137	C	0.115106	0.120938	0.497948
	C138	C	0.873126	0.120161	0.514788
	C139	C	0.873329	0.877954	0.498703
	C140	C	0.503458	0.120418	0.886956
	C141	C	0.486392	0.121810	0.129425
	C142	C	0.503119	0.879079	0.127948
	C143	C	0.486307	0.877127	0.885899
	C144	C	0.371049	0.890476	0.688147
	C145	C	0.617264	0.108790	0.688355
	C146	C	0.619491	0.889394	0.324217
	C147	C	0.371822	0.109799	0.325940
	C148	C	0.677782	0.374831	0.898172
	C149	C	0.677497	0.624265	0.118224
	C150	C	0.316869	0.619957	0.897309
	C151	C	0.314775	0.376506	0.119172
	C152	C	0.884258	0.683656	0.378782
	C153	C	0.103880	0.678717	0.627360
	C154	C	0.884755	0.315501	0.633287
	C155	C	0.105036	0.319776	0.385519
	C156	C	0.884633	0.373632	0.690995
	C157	C	0.105023	0.619649	0.684103
	C158	C	0.884087	0.624667	0.322305
	C159	C	0.105622	0.378462	0.328769
	C160	C	0.372459	0.679572	0.898333
	C161	C	0.620728	0.682850	0.117663
	C162	C	0.620410	0.316789	0.898466
	C163	C	0.371831	0.318233	0.118765
	C164	C	0.678014	0.889663	0.381543
	C165	C	0.676371	0.108193	0.631447
	C166	C	0.313878	0.890002	0.629144
	C167	C	0.313100	0.109599	0.383225
	C168	C	0.872109	0.389503	0.188104
	C169	C	0.118562	0.609073	0.188728
	C170	C	0.116087	0.388651	0.827943
	C171	C	0.871125	0.608986	0.825048
	C172	C	0.175459	0.875846	0.395667
	C173	C	0.174311	0.121918	0.617301
	C174	C	0.812305	0.123539	0.396612
	C175	C	0.811305	0.874232	0.616789
	C176	C	0.385410	0.181115	0.884055
	C177	C	0.603852	0.183755	0.133946
	C178	C	0.384814	0.818859	0.131593
	C179	C	0.604098	0.816439	0.882147
	C180	C	0.384195	0.877401	0.188374
	C181	C	0.604299	0.125237	0.191093
	C182	C	0.384792	0.122660	0.826998
	C183	C	0.604564	0.875001	0.824853
	C184	C	0.870085	0.181299	0.396664
	C185	C	0.118030	0.180822	0.616928
	C186	C	0.117867	0.817684	0.395775
	C187	C	0.868233	0.815880	0.616281
	C188	C	0.174516	0.388779	0.885729
	C189	C	0.175638	0.609481	0.129891
	C190	C	0.813083	0.390234	0.131560
	C191	C	0.812493	0.608773	0.882632
	C192	C	0.396373	0.091254	0.604106
	C193	C	0.589607	0.909353	0.601849
	C194	C	0.589896	0.087813	0.412460
	C195	C	0.397044	0.909134	0.410044
	C196	C	0.588658	0.405316	0.097879
	C197	C	0.590085	0.595056	0.917879
	C198	C	0.398248	0.596628	0.100940
	C199	C	0.397599	0.401475	0.916061
	C200	C	0.083887	0.596405	0.411042
	C201	C	0.902176	0.594731	0.601740
	C202	C	0.084985	0.401640	0.603626
	C203	C	0.903344	0.403619	0.411909
	C204	C	0.899909	0.589066	0.102108
	C205	C	0.092307	0.408305	0.104838
	C206	C	0.094192	0.590911	0.908213
	C207	C	0.898834	0.409539	0.911861
	C208	C	0.090134	0.901597	0.597715
	C209	C	0.090482	0.096742	0.414809
	C210	C	0.899120	0.094243	0.597222
	C211	C	0.900004	0.904428	0.416642
	C212	C	0.586151	0.095492	0.911950
	C213	C	0.404358	0.096067	0.103352
	C214	C	0.585358	0.904435	0.101849
	C215	C	0.403745	0.902275	0.911598
	Zn216	Zn	0.494367	-0.000477	0.758214
	Zn217	Zn	0.494822	-0.000735	0.256910
	Zn218	Zn	0.744737	0.499458	0.008060
	Zn219	Zn	0.245785	0.498973	0.008150
	Zn220	Zn	-0.006884	0.749498	0.505838
	Zn221	Zn	-0.005868	0.248957	0.506766
	Zn222	Zn	-0.005722	0.499276	0.755930
	Zn223	Zn	-0.005265	0.499195	0.257644
	Zn224	Zn	0.495154	0.749030	0.008346
	Zn225	Zn	0.495052	0.249734	0.008012
	Zn226	Zn	0.745065	-0.001267	0.506890
	Zn227	Zn	0.242853	-0.000270	0.506319
	N228	N	0.406554	0.965345	0.688122
	N229	N	0.580041	0.034823	0.686386
	N230	N	0.581870	0.963210	0.326601
	N231	N	0.408014	0.035348	0.326937
	N232	N	0.674564	0.413113	0.972093
	N233	N	0.675192	0.586570	0.043844
	N234	N	0.317504	0.584125	0.972544
	N235	N	0.315331	0.412444	0.043786
	N236	N	0.958467	0.682092	0.416635
	N237	N	0.028203	0.678974	0.592458
	N238	N	0.959101	0.317255	0.595521
	N239	N	0.029595	0.319875	0.420997
	N240	N	0.959014	0.410712	0.688776
	N241	N	0.029881	0.583801	0.683844
	N242	N	0.958293	0.587034	0.325560
	N243	N	0.030762	0.414666	0.329766
	N244	N	0.407304	0.680157	0.974152
	N245	N	0.583535	0.680937	0.042934
	N246	N	0.582241	0.319236	0.972799
	N247	N	0.407298	0.318459	0.043127
	N248	N	0.676164	0.963561	0.418924
	N249	N	0.675226	0.033960	0.594468
	N250	N	0.314062	0.964729	0.593216
	N251	N	0.313225	0.034890	0.419081
	N252	N	0.909241	0.463634	0.186429
	N253	N	0.082674	0.534392	0.188438
	N254	N	0.081529	0.463863	0.827081
	N255	N	0.908064	0.534892	0.826812
	N256	N	0.173875	0.912379	0.470527
	N257	N	0.172521	0.085271	0.542328
	N258	N	0.814140	0.086251	0.471244
	N259	N	0.814145	0.911962	0.542439
	N260	N	0.460271	0.180029	0.920501
	N261	N	0.529447	0.181857	0.096558
	N262	N	0.459699	0.819611	0.094941
	N263	N	0.529528	0.817801	0.919408
	N264	N	0.459099	0.913969	0.186545
	N265	N	0.530185	0.087375	0.188441
	N266	N	0.459316	0.085570	0.828730
	N267	N	0.530073	0.911947	0.826813
	N268	N	0.906964	0.179531	0.471479
	N269	N	0.081791	0.180320	0.541759
	N270	N	0.081104	0.818626	0.470852
	N271	N	0.905843	0.818103	0.541761
	N272	N	0.175669	0.463984	0.920425
	N273	N	0.174656	0.534959	0.093603
	N274	N	0.814274	0.464571	0.094999
	N275	N	0.813776	0.534551	0.919572
	O276	O	0.522208	0.290019	0.299468
	H277	H	0.508014	0.283529	0.297577
	H278	H	0.508102	0.274314	0.298876
	O279	O	0.714948	0.277253	0.478872
	H280	H	0.720184	0.277136	0.448594
	H281	H	0.739876	0.256513	0.483085
	O282	O	0.907408	1.024232	-0.206092
	H283	H	0.923595	1.006682	-0.204253
	H284	H	0.888903	1.023666	-0.223353
	O285	O	0.316194	0.678026	0.318317
	H286	H	0.312023	0.697874	0.328289
	H287	H	0.340953	0.678481	0.309222
	O288	O	-0.562056	-0.496490	-0.275368
	H289	H	-0.583838	-0.504116	-0.268830
	H290	H	-0.560391	-0.516688	-0.273192
	O291	O	0.799601	1.108275	-0.168411
	H292	H	0.815364	1.098210	-0.151169
	H293	H	0.784257	1.075352	-0.174517
	O294	O	0.041713	0.983309	-0.940679
	H295	H	0.032067	0.980358	-0.946134
	H296	H	0.052213	0.988764	-0.924402
	O297	O	0.607785	0.441830	0.572531
	H298	H	0.610538	0.434320	0.557016
	H299	H	0.621067	0.441126	0.571153
	O300	O	0.531797	0.570088	0.472441
	H301	H	0.526197	0.563479	0.474225
	H302	H	0.530337	0.568495	0.462598
	O303	O	1.075305	0.793706	0.094737
	H304	H	1.083980	0.792058	0.068003
	H305	H	1.066908	0.806190	0.088886
	O306	O	0.186725	1.002464	1.183323
	H307	H	0.184004	1.032019	1.173609
	H308	H	0.197753	1.006084	1.210726
	O309	O	0.547533	0.632610	0.294658
	H310	H	0.559617	0.624980	0.288479
	H311	H	0.551598	0.631439	0.294879
	O312	O	0.562486	0.381922	0.606157
	H313	H	0.581946	0.382698	0.628271
	H314	H	0.548360	0.398881	0.612928
	O315	O	0.069110	0.919597	1.206090
	H316	H	0.058678	0.919493	1.189187
	H317	H	0.062973	0.939307	1.206751
	O318	O	0.606667	0.508469	-0.519425
	H319	H	0.619498	0.500390	-0.514064
	H320	H	0.605917	0.503002	-0.529291
	O321	O	1.025440	0.210676	1.216740
	H322	H	1.015312	0.211778	1.228601
	H323	H	1.026007	0.210403	1.214832
	O324	O	1.618733	0.702796	1.470665
	H325	H	1.628046	0.707900	1.473813
	H326	H	1.606154	0.701028	1.479277
	O327	O	0.808751	-0.184110	1.189280
	H328	H	0.830922	-0.190820	1.164458
	H329	H	0.828611	-0.196564	1.168557
	O330	O	0.889049	0.206405	-0.206025
	H331	H	0.880910	0.208419	-0.180120
	H332	H	0.884181	0.208257	-0.214150
	O333	O	0.662995	1.691629	1.699051
	H334	H	0.633936	1.673913	1.694499
	H335	H	0.666665	1.685869	1.668879
	O336	O	0.787185	-0.104291	1.869497
	H337	H	0.798875	-0.098717	1.870907
	H338	H	0.779370	-0.106028	1.838108
	O339	O	-0.101079	0.930290	0.962818
	H340	H	-0.101307	0.942452	0.951567
	H341	H	-0.116637	0.923680	0.952359
	O342	O	1.000789	0.112998	-0.167819
	H343	H	0.990471	0.112858	-0.162734
	H344	H	1.006153	0.133360	-0.179237
	O345	O	-0.226020	-0.024846	0.224124
	H346	H	-0.238735	-0.056790	0.235982
	H347	H	-0.233204	-0.048836	0.238242
	O348	O	0.971175	-0.208461	1.216875
	H349	H	0.985027	-0.222553	1.218823
	H350	H	0.984802	-0.209645	1.224310
	O351	O	0.379813	0.624877	0.487281
	H352	H	0.388886	0.631531	0.478249
	H353	H	0.362717	0.627476	0.489977
	O354	O	0.688449	0.306426	0.314437
	H355	H	0.705603	0.308562	0.314688
	H356	H	0.644866	0.305164	0.304874
	O357	O	1.409701	0.553209	0.493448
	H358	H	1.415807	0.539230	0.491912
	H359	H	1.405267	0.531186	0.492688
	O360	O	0.711255	0.493498	0.345976
	H361	H	0.719143	0.486928	0.338887
	H362	H	0.715310	0.517153	0.338677
	O363	O	-0.026036	0.074689	0.049368
	H364	H	-0.018099	0.044961	0.050637
	H365	H	-0.040492	0.076779	0.048003
	O366	O	0.901405	0.789555	-0.072667
	H367	H	0.901547	0.773899	-0.075177
	H368	H	0.900633	0.799097	-0.090828
	O369	O	0.526049	0.313949	0.606818
	H370	H	0.548034	0.317921	0.590760
	H371	H	0.540586	0.300804	0.621352
	O372	O	0.367330	0.300159	0.670798
	H373	H	0.369136	0.297215	0.647591
	H374	H	0.397732	0.297649	0.672497
	O375	O	0.060633	1.149921	1.057884
	H376	H	0.058430	1.144350	1.057996
	H377	H	0.083623	1.150404	1.059440
	O378	O	0.787404	0.146562	0.041656
	H379	H	0.792652	0.137670	0.060376
	H380	H	0.771210	0.138254	0.040191
	O381	O	0.440977	0.714073	-0.460126
	H382	H	0.436106	0.711143	-0.458628
	H383	H	0.448104	0.714336	-0.466350
	O384	O	0.201359	-1.211998	0.799631
	H385	H	0.202126	-1.169553	0.794075
	H386	H	0.234000	-1.240932	0.765794
	O387	O	-0.159831	1.072697	1.107903
	H388	H	-0.156868	1.063704	1.104427
	H389	H	-0.146131	1.069884	1.103420
	O390	O	0.137358	0.196569	0.866710
	H391	H	0.120885	0.187411	0.877656
	H392	H	0.112520	0.191191	0.883539
	O393	O	1.208784	0.965907	-0.208225
	H394	H	1.222571	0.979156	-0.212413
	H395	H	1.216283	0.975505	-0.208687
	O396	O	0.318136	0.472263	0.349923
	H397	H	0.313464	0.479705	0.348358
	H398	H	0.316420	0.493566	0.352330
	O399	O	-0.203574	0.982630	-0.003286
	H400	H	-0.199610	0.977991	-0.014021
	H401	H	-0.193175	0.981944	0.007521
	O402	O	0.204273	-0.039644	0.975329
	H403	H	0.210018	-0.065620	0.978580
	H404	H	0.195684	-0.041702	0.979851
	O405	O	-0.348552	-0.505772	0.729753
	H406	H	-0.328718	-0.498872	0.744373
	H407	H	-0.358627	-0.495760	0.728355
	O408	O	0.310770	0.690570	0.691866
	H409	H	0.337959	0.677702	0.682571
	H410	H	0.320762	0.664882	0.668654
	O411	O	0.273895	0.463810	0.726471
	H412	H	0.277102	0.417949	0.722195
	H413	H	0.243726	0.457007	0.757329
	O414	O	1.099042	0.799061	0.953476
	H415	H	1.102263	0.790336	0.940739
	H416	H	1.097276	0.797785	0.918570
	O417	O	0.294987	0.316812	0.518378
	H418	H	0.295618	0.313995	0.532045
	H419	H	0.297633	0.316259	0.523525
	O420	O	0.959682	1.042798	1.207404
	H421	H	0.959353	1.030023	1.215159
	H422	H	0.964070	1.043596	1.204221
	O423	O	0.206965	1.207909	0.036775
	H424	H	0.214191	1.204239	0.043652
	H425	H	0.212649	1.222736	0.040339
	O426	O	0.938007	0.898024	0.808567
	H427	H	0.961397	0.913772	0.818286
	H428	H	0.959377	0.882655	0.796864
	O429	O	0.634975	0.494269	0.420885
	H430	H	0.625607	0.478129	0.416467
	H431	H	0.644221	0.507034	0.417540
	O432	O	0.203404	-0.042371	-0.004442
	H433	H	0.211153	-0.040856	0.009288
	H434	H	0.202760	-0.072584	-0.006085
	O435	O	0.188531	0.193897	0.202135
	H436	H	0.188831	0.202223	0.208242
	H437	H	0.178891	0.203546	0.195893
	O438	O	1.247122	0.221553	-0.217732
	H439	H	1.271124	0.224963	-0.217921
	H440	H	1.217246	0.196147	-0.202927
	O441	O	0.641337	0.713746	0.490229
	H442	H	0.658260	0.732926	0.479203
	H443	H	0.636482	0.696914	0.477018
	O444	O	-0.095564	1.107496	0.988415
	H445	H	-0.096073	1.089142	1.002777
	H446	H	-0.090464	1.122158	0.983637
	O447	O	0.506280	0.714804	0.691542
	H448	H	0.512536	0.707286	0.688286
	H449	H	0.506499	0.718189	0.703175
	O450	O	0.364307	0.357313	0.332641
	H451	H	0.361415	0.388213	0.332623
	H452	H	0.371615	0.354823	0.355499
	O453	O	0.680589	0.478035	0.648428
	H454	H	0.680087	0.461772	0.633999
	H455	H	0.698082	0.474211	0.676442
	O456	O	1.445781	0.292574	0.463863
	H457	H	1.467712	0.288105	0.474799
	H458	H	1.438736	0.310339	0.470587
	O459	O	0.374292	0.493277	0.355909
	H460	H	0.355547	0.504808	0.337349
	H461	H	0.386295	0.497265	0.360355
	O462	O	0.284130	0.509234	0.516052
	H463	H	0.286186	0.492534	0.535823
	H464	H	0.283173	0.510102	0.498492
	O465	O	0.996533	-0.206233	-0.130612
	H466	H	0.997661	-0.219315	-0.144669
	H467	H	1.015233	-0.208479	-0.122341
