data_Molecule from HDF5

_cell_length_a		16.270848
_cell_length_b		16.263048
_cell_length_c		16.291441
_cell_angle_alpha	89.744899
_cell_angle_beta	90.080057
_cell_angle_gamma	90.336668
_symmetry_space_group_name_H-M	'P 1'
_symmetry_Int_Tables_number		1

loop_
	_symmetry_equiv_pos_as_xyz
	x,y,z

loop_
	_atom_site_label
	_atom_site_type_symbol
	_atom_site_fract_x
	_atom_site_fract_y
	_atom_site_fract_z
	H0	H	0.405526	0.849129	0.716882
	H1	H	0.604668	0.176529	0.715182
	H2	H	0.604115	0.849079	0.286628
	H3	H	0.405034	0.175111	0.284664
	H4	H	0.719424	0.414714	0.837787
	H5	H	0.721082	0.612569	0.164677
	H6	H	0.289186	0.613174	0.839030
	H7	H	0.289326	0.412664	0.165028
	H8	H	0.842075	0.727511	0.401285
	H9	H	0.169242	0.726803	0.598292
	H10	H	0.841753	0.295846	0.601040
	H11	H	0.169648	0.300332	0.403456
	H12	H	0.841365	0.411068	0.716970
	H13	H	0.167449	0.613439	0.717407
	H14	H	0.842264	0.612468	0.285420
	H15	H	0.169758	0.416653	0.287532
	H16	H	0.406695	0.727408	0.837644
	H17	H	0.603292	0.726829	0.165431
	H18	H	0.602116	0.299942	0.837440
	H19	H	0.403666	0.295452	0.164785
	H20	H	0.718791	0.849284	0.403576
	H21	H	0.721727	0.176099	0.601288
	H22	H	0.289184	0.848752	0.602617
	H23	H	0.292334	0.176484	0.402964
	H24	H	0.905912	0.349728	0.217640
	H25	H	0.106399	0.676626	0.214283
	H26	H	0.103283	0.349122	0.786440
	H27	H	0.905523	0.675962	0.785051
	H28	H	0.219911	0.914897	0.338271
	H29	H	0.221553	0.110931	0.665624
	H30	H	0.790402	0.113498	0.338832
	H31	H	0.790003	0.911865	0.664842
	H32	H	0.340643	0.226627	0.901894
	H33	H	0.668042	0.228077	0.099163
	H34	H	0.341009	0.795581	0.100923
	H35	H	0.668409	0.798670	0.902461
	H36	H	0.341231	0.911379	0.216486
	H37	H	0.668653	0.112766	0.215592
	H38	H	0.340692	0.110722	0.786243
	H39	H	0.668404	0.914461	0.787560
	H40	H	0.908744	0.227738	0.338461
	H41	H	0.107412	0.228930	0.665108
	H42	H	0.102935	0.800806	0.337690
	H43	H	0.904673	0.795025	0.664274
	H44	H	0.219272	0.348839	0.902665
	H45	H	0.221389	0.675782	0.099171
	H46	H	0.790377	0.348753	0.101031
	H47	H	0.791035	0.676142	0.900126
	H48	H	0.422031	0.124287	0.587775
	H49	H	0.593512	0.897424	0.595125
	H50	H	0.592751	0.127603	0.405425
	H51	H	0.411512	0.895175	0.408206
	H52	H	0.595965	0.416919	0.117618
	H53	H	0.593976	0.610424	0.885462
	H54	H	0.406119	0.590798	0.115940
	H55	H	0.409567	0.420342	0.885258
	H56	H	0.115923	0.600529	0.418495
	H57	H	0.885969	0.612882	0.592624
	H58	H	0.122781	0.427871	0.605329
	H59	H	0.890659	0.422757	0.410982
	H60	H	0.124605	0.410816	0.594884
	H61	H	0.891911	0.599298	0.585259
	H62	H	0.125699	0.603001	0.392882
	H63	H	0.889434	0.420037	0.406712
	H64	H	0.427475	0.606085	0.114486
	H65	H	0.603867	0.608081	0.882747
	H66	H	0.600842	0.419677	0.118379
	H67	H	0.412796	0.422581	0.886354
	H68	H	0.597562	0.126951	0.414305
	H69	H	0.600163	0.896282	0.591353
	H70	H	0.403813	0.130211	0.588916
	H71	H	0.412178	0.895928	0.409217
	H72	H	0.914262	0.629550	0.093638
	H73	H	0.094323	0.394026	0.102079
	H74	H	0.092803	0.632171	0.894054
	H75	H	0.913328	0.395744	0.907515
	H76	H	0.094676	0.922537	0.616956
	H77	H	0.101254	0.104530	0.385834
	H78	H	0.915501	0.106780	0.618094
	H79	H	0.921166	0.920012	0.387348
	H80	H	0.626532	0.122678	0.903240
	H81	H	0.386612	0.104722	0.096994
	H82	H	0.619654	0.920209	0.087203
	H83	H	0.386798	0.920003	0.903294
	H84	H	0.619171	0.926561	0.097410
	H85	H	0.388333	0.106325	0.091602
	H86	H	0.615110	0.104948	0.924596
	H87	H	0.388128	0.914159	0.910630
	H88	H	0.910496	0.104119	0.619193
	H89	H	0.095824	0.106326	0.387525
	H90	H	0.097172	0.915330	0.618526
	H91	H	0.906764	0.913125	0.381984
	H92	H	0.087037	0.621576	0.919008
	H93	H	0.091657	0.399068	0.091281
	H94	H	0.913637	0.629480	0.092393
	H95	H	0.912780	0.397293	0.912439
	H96	H	0.414399	0.131826	0.604214
	H97	H	0.599365	0.894424	0.598553
	H98	H	0.602282	0.131387	0.406219
	H99	H	0.410361	0.895166	0.409785
	H100	H	0.596325	0.422260	0.116421
	H101	H	0.597639	0.600806	0.886671
	H102	H	0.405063	0.615550	0.123539
	H103	H	0.412956	0.418663	0.885381
	H104	H	0.126245	0.623553	0.409327
	H105	H	0.887158	0.599141	0.601234
	H106	H	0.116712	0.426935	0.585521
	H107	H	0.889218	0.418164	0.410995
	H108	H	0.912882	0.629502	0.093354
	H109	H	0.102612	0.394592	0.094531
	H110	H	0.111956	0.631692	0.913294
	H111	H	0.908155	0.395813	0.909256
	H112	H	0.102022	0.921579	0.619081
	H113	H	0.099523	0.110776	0.384752
	H114	H	0.914773	0.101230	0.616746
	H115	H	0.907054	0.929152	0.386924
	H116	H	0.620172	0.093592	0.897821
	H117	H	0.389671	0.100676	0.093154
	H118	H	0.623740	0.915771	0.097533
	H119	H	0.389817	0.923447	0.911568
	C120	C	0.383891	0.020904	0.623091
	C121	C	0.626742	1.004397	0.623427
	C122	C	0.626508	0.020829	0.379911
	C123	C	0.383363	1.003602	0.380223
	C124	C	0.625935	0.391674	0.009421
	C125	C	0.627373	0.634958	0.992959
	C126	C	0.383707	0.633920	0.010197
	C127	C	0.382283	0.390930	0.993377
	C128	C	0.014556	0.636520	0.378407
	C129	C	0.996574	0.633599	0.622101
	C130	C	0.013466	0.390929	0.624227
	C131	C	0.997581	0.392604	0.380822
	C132	C	0.883800	0.521260	0.122833
	C133	C	0.126170	0.503898	0.123231
	C134	C	0.125932	0.520759	0.879970
	C135	C	0.882807	0.504410	0.879834
	C136	C	0.126504	0.891987	0.509771
	C137	C	0.128320	0.135618	0.493680
	C138	C	0.884879	0.133740	0.510229
	C139	C	0.883170	0.890862	0.493377
	C140	C	0.512413	0.134870	0.879325
	C141	C	0.496033	0.134121	0.123128
	C142	C	0.512800	0.891022	0.122822
	C143	C	0.496549	0.890968	0.880085
	C144	C	0.385099	0.897883	0.679305
	C145	C	0.625369	0.127395	0.677985
	C146	C	0.624347	0.898035	0.324477
	C147	C	0.385285	0.126448	0.323505
	C148	C	0.681177	0.394570	0.886485
	C149	C	0.683103	0.632841	0.115845
	C150	C	0.328104	0.632334	0.887416
	C151	C	0.326902	0.392275	0.116285
	C152	C	0.891045	0.690477	0.380514
	C153	C	0.119982	0.688914	0.619158
	C154	C	0.890759	0.333973	0.621814
	C155	C	0.120789	0.338087	0.382985
	C156	C	0.890425	0.391229	0.679304
	C157	C	0.119279	0.632379	0.678114
	C158	C	0.891324	0.633362	0.322883
	C159	C	0.120780	0.395847	0.325559
	C160	C	0.386291	0.689649	0.886879
	C161	C	0.624770	0.689836	0.116218
	C162	C	0.623166	0.337083	0.886356
	C163	C	0.383838	0.333937	0.116062
	C164	C	0.681494	0.898099	0.382615
	C165	C	0.683704	0.127106	0.621403
	C166	C	0.327526	0.897763	0.622178
	C167	C	0.329267	0.127155	0.382410
	C168	C	0.885333	0.398480	0.179502
	C169	C	0.125583	0.627611	0.177179
	C170	C	0.124047	0.397838	0.824297
	C171	C	0.885166	0.626880	0.823087
	C172	C	0.181465	0.895237	0.386933
	C173	C	0.183997	0.132493	0.616535
	C174	C	0.829600	0.132325	0.387252
	C175	C	0.827727	0.891914	0.615924
	C176	C	0.389482	0.188875	0.881707
	C177	C	0.619136	0.190244	0.120356
	C178	C	0.389777	0.834353	0.120749
	C179	C	0.619526	0.836235	0.882185
	C180	C	0.389819	0.891904	0.178436
	C181	C	0.619232	0.133028	0.178577
	C182	C	0.389700	0.131366	0.823994
	C183	C	0.619429	0.894071	0.825165
	C184	C	0.887959	0.189648	0.387157
	C185	C	0.126811	0.190637	0.616458
	C186	C	0.123261	0.838460	0.386511
	C187	C	0.884916	0.833735	0.615644
	C188	C	0.181694	0.397748	0.882233
	C189	C	0.182873	0.627149	0.119915
	C190	C	0.827899	0.398184	0.121250
	C191	C	0.828547	0.627200	0.881035
	C192	C	0.406892	0.106573	0.600380
	C193	C	0.604162	0.918327	0.601547
	C194	C	0.604204	0.106560	0.402100
	C195	C	0.404889	0.917591	0.402532
	C196	C	0.604092	0.413216	0.095245
	C197	C	0.604980	0.613103	0.907287
	C198	C	0.406402	0.611111	0.095898
	C199	C	0.405057	0.413757	0.907756
	C200	C	0.100487	0.615324	0.400399
	C201	C	0.910679	0.610595	0.599548
	C202	C	0.099127	0.414797	0.601807
	C203	C	0.911948	0.413998	0.403066
	C204	C	0.906858	0.607367	0.099853
	C205	C	0.102914	0.418272	0.102252
	C206	C	0.103900	0.606281	0.902201
	C207	C	0.904980	0.418283	0.903093
	C208	C	0.104364	0.913413	0.596048
	C209	C	0.105583	0.113584	0.408139
	C210	C	0.907115	0.111128	0.595854
	C211	C	0.905369	0.913821	0.407510
	C212	C	0.598457	0.113507	0.902063
	C213	C	0.410163	0.110973	0.100569
	C214	C	0.598574	0.914226	0.100599
	C215	C	0.410566	0.912765	0.902032
	Zn216	Zn	0.505142	0.012666	0.751701
	Zn217	Zn	0.504789	0.012148	0.251751
	Zn218	Zn	0.754954	0.513311	0.001040
	Zn219	Zn	0.254373	0.512103	0.002134
	Zn220	Zn	0.004991	0.762755	0.500977
	Zn221	Zn	0.006218	0.263573	0.502265
	Zn222	Zn	0.004048	0.512606	0.751780
	Zn223	Zn	0.005774	0.513667	0.251564
	Zn224	Zn	0.505236	0.762570	0.001519
	Zn225	Zn	0.504131	0.263022	0.001559
	Zn226	Zn	0.755238	0.012894	0.501641
	Zn227	Zn	0.255737	0.012440	0.502022
	N228	N	0.419350	0.975344	0.680131
	N229	N	0.591056	0.049924	0.679670
	N230	N	0.590717	0.975440	0.322857
	N231	N	0.418380	0.048825	0.322019
	N232	N	0.683009	0.427635	0.964002
	N233	N	0.684726	0.599444	0.038373
	N234	N	0.326394	0.598301	0.964934
	N235	N	0.325947	0.426869	0.039062
	N236	N	0.968517	0.692618	0.414089
	N237	N	0.042731	0.689627	0.584998
	N238	N	0.968422	0.333458	0.588554
	N239	N	0.043412	0.335959	0.416572
	N240	N	0.967734	0.425934	0.680915
	N241	N	0.041387	0.598762	0.680035
	N242	N	0.969026	0.600422	0.321434
	N243	N	0.043136	0.429235	0.324176
	N244	N	0.420318	0.690597	0.964300
	N245	N	0.590718	0.691200	0.038908
	N246	N	0.589360	0.335229	0.963794
	N247	N	0.417585	0.333108	0.038510
	N248	N	0.682923	0.975506	0.416231
	N249	N	0.684747	0.049480	0.588112
	N250	N	0.326493	0.975211	0.587969
	N251	N	0.327949	0.049733	0.416870
	N252	N	0.919176	0.476178	0.180747
	N253	N	0.090924	0.550205	0.179336
	N254	N	0.090286	0.475192	0.822569
	N255	N	0.918313	0.549219	0.822278
	N256	N	0.183288	0.927942	0.464657
	N257	N	0.184800	0.098669	0.539310
	N258	N	0.827686	0.098264	0.464707
	N259	N	0.826517	0.926645	0.538824
	N260	N	0.466809	0.190905	0.915571
	N261	N	0.541484	0.191091	0.086804
	N262	N	0.467222	0.833561	0.087081
	N263	N	0.542064	0.834380	0.915856
	N264	N	0.467357	0.926479	0.179775
	N265	N	0.541611	0.098861	0.180377
	N266	N	0.467441	0.098378	0.822653
	N267	N	0.541950	0.927375	0.823819
	N268	N	0.921836	0.190437	0.464551
	N269	N	0.092858	0.192769	0.539137
	N270	N	0.089638	0.836422	0.463928
	N271	N	0.918716	0.832997	0.538222
	N272	N	0.182953	0.475150	0.916123
	N273	N	0.183348	0.549561	0.087033
	N274	N	0.826682	0.475830	0.087168
	N275	N	0.826983	0.549793	0.915468
	O276	O	0.007484	0.048048	-0.074898
	H277	H	0.021673	0.040263	-0.080621
	H278	H	0.021538	0.045612	-0.072404
	O279	O	0.461804	0.463356	0.524630
	H280	H	0.457424	0.451383	0.513307
	H281	H	0.457551	0.467159	0.516575
	O282	O	0.480894	0.486720	0.610899
	H283	H	0.480499	0.492261	0.613108
	H284	H	0.487592	0.483168	0.603626
	O285	O	1.007669	-0.010797	1.081472
	H286	H	1.010090	-0.007864	1.080779
	H287	H	0.999983	-0.004727	1.071725
	O288	O	0.984879	-0.042797	-0.056762
	H289	H	0.982184	-0.042942	-0.052718
	H290	H	0.986027	-0.052771	-0.068212
	O291	O	0.583366	0.462361	0.435201
	H292	H	0.582698	0.464942	0.446498
	H293	H	0.598338	0.456908	0.422837
	O294	O	0.991208	0.031153	0.998257
	H295	H	0.988926	0.035121	0.997182
	H296	H	0.973879	0.031152	0.998522
	O297	O	-0.034411	-0.036050	-0.001150
	H298	H	-0.034057	-0.042473	-0.006908
	H299	H	-0.036836	-0.029798	0.002662
	O300	O	0.919425	0.087507	-0.062958
	H301	H	0.920128	0.096126	-0.065969
	H302	H	0.922094	0.083153	-0.064607
	O303	O	0.445857	0.432244	0.487528
	H304	H	0.451132	0.424235	0.483492
	H305	H	0.443616	0.422457	0.491038
	O306	O	0.962306	0.052855	-0.106006
	H307	H	0.954792	0.045985	-0.107294
	H308	H	0.961545	0.058681	-0.096681
	O309	O	0.116579	-0.041870	0.956703
	H310	H	0.121417	-0.040484	0.962973
	H311	H	0.125092	-0.035419	0.962440
	O312	O	1.043455	1.084064	0.986811
	H313	H	1.050042	1.084817	0.979169
	H314	H	1.033946	1.074384	0.986893
	O315	O	0.519978	0.428980	0.513644
	H316	H	0.528286	0.421837	0.515234
	H317	H	0.517902	0.426652	0.511386
	O318	O	0.013205	-0.021569	0.049311
	H319	H	0.001847	-0.014597	0.050208
	H320	H	0.012075	-0.016133	0.054083
	O321	O	-0.102689	0.994974	1.036439
	H322	H	-0.096499	0.995237	1.030473
	H323	H	-0.106530	0.982156	1.049686
	O324	O	0.520815	0.433501	0.453162
	H325	H	0.528451	0.452586	0.456765
	H326	H	0.524463	0.422786	0.442030
	O327	O	0.574574	0.480085	0.514463
	H328	H	0.564039	0.476642	0.514911
	H329	H	0.582544	0.478220	0.522800
	O330	O	0.607139	0.431276	0.460735
	H331	H	0.619264	0.433648	0.444191
	H332	H	0.608036	0.427280	0.470231
	O333	O	0.519981	0.465984	0.501556
	H334	H	0.525260	0.470103	0.497132
	H335	H	0.512492	0.457476	0.496323
	O336	O	0.526420	0.504789	0.510801
	H337	H	0.522657	0.512267	0.503104
	H338	H	0.516648	0.503844	0.518192
	O339	O	0.996342	1.009508	-0.005526
	H340	H	1.008993	1.005232	-0.006292
	H341	H	1.002445	1.008219	-0.012487
	O342	O	0.504134	0.493267	0.605512
	H343	H	0.494546	0.492312	0.607670
	H344	H	0.513350	0.488451	0.615597
	O345	O	0.452986	0.557175	0.556243
	H346	H	0.449728	0.552079	0.550768
	H347	H	0.453595	0.559609	0.561044
	O348	O	-0.105566	0.098709	0.063892
	H349	H	-0.110688	0.086334	0.060524
	H350	H	-0.088525	0.104330	0.064486
	O351	O	0.008924	1.010266	1.126658
	H352	H	0.008351	1.011951	1.128790
	H353	H	-0.003352	1.010729	1.127780
	O354	O	0.543391	0.537797	0.477000
	H355	H	0.543641	0.544203	0.482303
	H356	H	0.535613	0.541149	0.472104
	O357	O	0.034353	0.940531	1.078894
	H358	H	0.034383	0.930837	1.087450
	H359	H	0.029545	0.949111	1.070351
