data_Molecule from HDF5

_cell_length_a		16.538495
_cell_length_b		16.463096
_cell_length_c		16.648109
_cell_angle_alpha	89.879401
_cell_angle_beta	89.946898
_cell_angle_gamma	90.004003
_symmetry_space_group_name_H-M	'P 1'
_symmetry_Int_Tables_number		1

loop_
	_symmetry_equiv_pos_as_xyz
	x,y,z

loop_
	_atom_site_label
	_atom_site_type_symbol
	_atom_site_fract_x
	_atom_site_fract_y
	_atom_site_fract_z
	H0	H	0.388987	0.857566	0.725625
	H1	H	0.602733	0.170937	0.723532
	H2	H	0.606221	0.858714	0.278678
	H3	H	0.389853	0.168959	0.278189
	H4	H	0.719879	0.408518	0.847620
	H5	H	0.720775	0.619377	0.157523
	H6	H	0.272170	0.623723	0.850423
	H7	H	0.273782	0.404289	0.156882
	H8	H	0.841682	0.733037	0.400378
	H9	H	0.155179	0.737297	0.608820
	H10	H	0.841570	0.293166	0.608244
	H11	H	0.154115	0.291808	0.396395
	H12	H	0.842099	0.408643	0.724466
	H13	H	0.153991	0.623689	0.727919
	H14	H	0.843401	0.620971	0.280491
	H15	H	0.151181	0.401939	0.275225
	H16	H	0.391413	0.737844	0.848916
	H17	H	0.603951	0.735556	0.158481
	H18	H	0.605861	0.289866	0.848744
	H19	H	0.392714	0.290225	0.158170
	H20	H	0.722094	0.859186	0.394586
	H21	H	0.718710	0.170711	0.607942
	H22	H	0.275126	0.856864	0.607633
	H23	H	0.275926	0.171484	0.396991
	H24	H	0.893438	0.357177	0.223438
	H25	H	0.104168	0.671316	0.223495
	H26	H	0.105379	0.356380	0.781797
	H27	H	0.894527	0.672091	0.782583
	H28	H	0.219339	0.909783	0.345773
	H29	H	0.217772	0.117794	0.659393
	H30	H	0.778171	0.117633	0.347058
	H31	H	0.775258	0.906052	0.658153
	H32	H	0.341004	0.234732	0.900137
	H33	H	0.656142	0.229009	0.104183
	H34	H	0.339630	0.793266	0.107111
	H35	H	0.655065	0.794885	0.899520
	H36	H	0.341282	0.904183	0.227485
	H37	H	0.653843	0.114252	0.222447
	H38	H	0.340101	0.118910	0.783174
	H39	H	0.652934	0.906860	0.779404
	H40	H	0.894979	0.233917	0.347074
	H41	H	0.102004	0.234792	0.659193
	H42	H	0.102591	0.794002	0.345018
	H43	H	0.893910	0.791211	0.658140
	H44	H	0.220789	0.356394	0.898144
	H45	H	0.219624	0.671629	0.107090
	H46	H	0.781484	0.354876	0.103463
	H47	H	0.777784	0.671506	0.898217
	H48	H	0.407661	0.126355	0.590210
	H49	H	0.582456	0.902801	0.589056
	H50	H	0.579152	0.121907	0.419057
	H51	H	0.411447	0.901798	0.412877
	H52	H	0.593409	0.420400	0.117508
	H53	H	0.582854	0.603076	0.892566
	H54	H	0.405712	0.599856	0.115136
	H55	H	0.411357	0.427519	0.893338
	H56	H	0.110966	0.605020	0.418058
	H57	H	0.887504	0.603082	0.593510
	H58	H	0.111732	0.427202	0.597290
	H59	H	0.887733	0.430825	0.410796
	H60	H	0.111691	0.421199	0.591107
	H61	H	0.887646	0.601760	0.591451
	H62	H	0.109127	0.596308	0.412794
	H63	H	0.883051	0.421957	0.409504
	H64	H	0.413571	0.599144	0.112264
	H65	H	0.589195	0.606812	0.889428
	H66	H	0.589826	0.425664	0.114845
	H67	H	0.413284	0.425246	0.893051
	H68	H	0.591611	0.127921	0.417152
	H69	H	0.587503	0.901613	0.589462
	H70	H	0.406142	0.127750	0.593929
	H71	H	0.409140	0.902876	0.418001
	H72	H	0.910468	0.628615	0.095809
	H73	H	0.086525	0.402264	0.090245
	H74	H	0.085004	0.624892	0.914721
	H75	H	0.907998	0.399212	0.907263
	H76	H	0.084049	0.918429	0.614625
	H77	H	0.083072	0.101536	0.393213
	H78	H	0.902133	0.101348	0.616957
	H79	H	0.908615	0.916915	0.388195
	H80	H	0.610373	0.099800	0.911424
	H81	H	0.388220	0.095611	0.086450
	H82	H	0.609742	0.923812	0.093777
	H83	H	0.382964	0.924435	0.911603
	H84	H	0.608581	0.925546	0.091235
	H85	H	0.383162	0.099623	0.098907
	H86	H	0.611465	0.102494	0.909757
	H87	H	0.385661	0.924806	0.917499
	H88	H	0.911521	0.099019	0.612750
	H89	H	0.086995	0.107811	0.389978
	H90	H	0.092702	0.927260	0.614479
	H91	H	0.901887	0.928546	0.389725
	H92	H	0.085824	0.625868	0.915787
	H93	H	0.084681	0.402023	0.090020
	H94	H	0.910963	0.625918	0.089049
	H95	H	0.914379	0.402551	0.913826
	H96	H	0.410238	0.126770	0.593843
	H97	H	0.583976	0.901288	0.593514
	H98	H	0.582640	0.127262	0.406780
	H99	H	0.405664	0.900355	0.414589
	H100	H	0.586865	0.418817	0.115955
	H101	H	0.589437	0.598835	0.891664
	H102	H	0.410903	0.605933	0.115489
	H103	H	0.410852	0.425132	0.891732
	H104	H	0.113407	0.604470	0.407674
	H105	H	0.887392	0.600285	0.593043
	H106	H	0.109177	0.429243	0.589499
	H107	H	0.887109	0.424308	0.418631
	H108	H	0.904706	0.628665	0.091560
	H109	H	0.085417	0.402169	0.089187
	H110	H	0.085774	0.625943	0.914705
	H111	H	0.905152	0.400395	0.916447
	H112	H	0.081536	0.929817	0.609968
	H113	H	0.090785	0.100715	0.390863
	H114	H	0.909874	0.108233	0.617104
	H115	H	0.914459	0.927684	0.394324
	H116	H	0.610061	0.102939	0.912176
	H117	H	0.383071	0.108574	0.088502
	H118	H	0.609182	0.927355	0.094626
	H119	H	0.386119	0.930045	0.913876
	C120	C	0.375477	0.022986	0.624309
	C121	C	0.618045	1.005296	0.623355
	C122	C	0.618412	0.022822	0.381479
	C123	C	0.375800	1.005166	0.381786
	C124	C	0.621588	0.390422	0.012515
	C125	C	0.619587	0.635250	0.994041
	C126	C	0.376720	0.635527	0.012156
	C127	C	0.378453	0.392670	0.995058
	C128	C	0.007471	0.634493	0.381462
	C129	C	0.990671	0.635501	0.624850
	C130	C	0.007139	0.393249	0.624576
	C131	C	0.989136	0.392508	0.380661
	C132	C	0.878092	0.522667	0.122857
	C133	C	0.118586	0.505763	0.122999
	C134	C	0.119894	0.522251	0.881717
	C135	C	0.877315	0.505339	0.881028
	C136	C	0.118907	0.892735	0.510016
	C137	C	0.119473	0.135620	0.494307
	C138	C	0.876651	0.134881	0.511951
	C139	C	0.876038	0.891565	0.493954
	C140	C	0.506648	0.134823	0.880686
	C141	C	0.488823	0.132884	0.123234
	C142	C	0.505729	0.892093	0.125602
	C143	C	0.488809	0.893722	0.881972
	C144	C	0.371701	0.904700	0.685168
	C145	C	0.621087	0.123312	0.683771
	C146	C	0.623092	0.905658	0.319823
	C147	C	0.372142	0.122602	0.319550
	C148	C	0.680732	0.389332	0.894724
	C149	C	0.680372	0.637706	0.111048
	C150	C	0.314219	0.640538	0.896169
	C151	C	0.315934	0.387792	0.111042
	C152	C	0.888995	0.694163	0.380727
	C153	C	0.108064	0.697206	0.627615
	C154	C	0.888978	0.333284	0.626244
	C155	C	0.106699	0.331477	0.377981
	C156	C	0.889249	0.390475	0.684390
	C157	C	0.107476	0.640355	0.686533
	C158	C	0.890004	0.638213	0.321398
	C159	C	0.105372	0.386582	0.317719
	C160	C	0.373025	0.697624	0.895611
	C161	C	0.622195	0.695492	0.111431
	C162	C	0.623864	0.330417	0.895358
	C163	C	0.374854	0.330921	0.111580
	C164	C	0.680759	0.905723	0.377480
	C165	C	0.679103	0.123279	0.626435
	C166	C	0.315388	0.904208	0.626139
	C167	C	0.315817	0.123998	0.378716
	C168	C	0.875458	0.404279	0.182924
	C169	C	0.121891	0.623923	0.183369
	C170	C	0.123528	0.403980	0.821415
	C171	C	0.875622	0.624475	0.822095
	C172	C	0.179403	0.890960	0.392707
	C173	C	0.178683	0.137084	0.612236
	C174	C	0.817906	0.136396	0.393916
	C175	C	0.815727	0.888394	0.611147
	C176	C	0.388181	0.194959	0.880527
	C177	C	0.608130	0.190611	0.123904
	C178	C	0.387277	0.832156	0.126433
	C179	C	0.607377	0.833954	0.880379
	C180	C	0.388161	0.887457	0.186422
	C181	C	0.607124	0.133727	0.182570
	C182	C	0.387551	0.137331	0.822563
	C183	C	0.606052	0.889666	0.820511
	C184	C	0.875831	0.194245	0.394063
	C185	C	0.121334	0.195475	0.612003
	C186	C	0.121086	0.833440	0.392174
	C187	C	0.874488	0.830954	0.611300
	C188	C	0.180860	0.403885	0.879480
	C189	C	0.179475	0.624170	0.125544
	C190	C	0.819788	0.403037	0.123228
	C191	C	0.817589	0.624158	0.879540
	C192	C	0.400748	0.105562	0.599647
	C193	C	0.592104	0.923178	0.597778
	C194	C	0.591799	0.104517	0.407257
	C195	C	0.401414	0.923145	0.407845
	C196	C	0.596873	0.414792	0.094684
	C197	C	0.594422	0.610243	0.912534
	C198	C	0.402661	0.609152	0.093216
	C199	C	0.404272	0.418755	0.913772
	C200	C	0.089831	0.609222	0.405934
	C201	C	0.908739	0.609370	0.599535
	C202	C	0.089456	0.418670	0.599835
	C203	C	0.907367	0.418435	0.405781
	C204	C	0.902179	0.606037	0.099033
	C205	C	0.092773	0.423581	0.097153
	C206	C	0.093305	0.604244	0.907556
	C207	C	0.902022	0.422326	0.905416
	C208	C	0.093248	0.917830	0.591701
	C209	C	0.094391	0.110528	0.412752
	C210	C	0.900800	0.109967	0.594181
	C211	C	0.901170	0.916889	0.412013
	C212	C	0.589156	0.109204	0.904288
	C213	C	0.406333	0.108340	0.098475
	C214	C	0.587940	0.918057	0.100495
	C215	C	0.406453	0.919223	0.907078
	Zn216	Zn	0.496503	0.013950	0.751920
	Zn217	Zn	0.496379	0.013305	0.253342
	Zn218	Zn	0.748921	0.513867	0.002602
	Zn219	Zn	0.248366	0.513388	0.003456
	Zn220	Zn	-0.001017	0.763210	0.501857
	Zn221	Zn	-0.002175	0.264389	0.503139
	Zn222	Zn	-0.000920	0.513934	0.753355
	Zn223	Zn	-0.001515	0.514189	0.252297
	Zn224	Zn	0.497869	0.764701	0.003395
	Zn225	Zn	0.498312	0.262699	0.003320
	Zn226	Zn	0.747375	0.014211	0.502720
	Zn227	Zn	0.247900	0.014128	0.502360
	N228	N	0.408477	0.979488	0.683945
	N229	N	0.583935	0.048808	0.682178
	N230	N	0.584691	0.979397	0.322240
	N231	N	0.408827	0.047720	0.321538
	N232	N	0.679554	0.425884	0.968744
	N233	N	0.678870	0.601020	0.037091
	N234	N	0.316462	0.602396	0.969523
	N235	N	0.318169	0.425667	0.037566
	N236	N	0.963155	0.691880	0.417298
	N237	N	0.034293	0.694247	0.589923
	N238	N	0.963537	0.334664	0.589829
	N239	N	0.033350	0.334974	0.416653
	N240	N	0.963946	0.426833	0.683612
	N241	N	0.033360	0.602732	0.685040
	N242	N	0.964617	0.601713	0.321749
	N243	N	0.031237	0.423862	0.319148
	N244	N	0.411516	0.694287	0.968604
	N245	N	0.585102	0.694369	0.037608
	N246	N	0.587916	0.330837	0.969728
	N247	N	0.413207	0.333931	0.038485
	N248	N	0.677952	0.979633	0.415375
	N249	N	0.677394	0.048712	0.589520
	N250	N	0.317595	0.978687	0.588890
	N251	N	0.318090	0.050064	0.416622
	N252	N	0.910949	0.479665	0.182825
	N253	N	0.085293	0.549023	0.182302
	N254	N	0.086391	0.478707	0.822619
	N255	N	0.912004	0.549491	0.822796
	N256	N	0.178225	0.927055	0.466954
	N257	N	0.177788	0.100799	0.538057
	N258	N	0.818427	0.100185	0.468279
	N259	N	0.816268	0.925124	0.536940
	N260	N	0.463310	0.193758	0.915635
	N261	N	0.533576	0.190170	0.087751
	N262	N	0.461651	0.834657	0.089605
	N263	N	0.533299	0.836021	0.917731
	N264	N	0.463032	0.923722	0.186236
	N265	N	0.531831	0.098723	0.182398
	N266	N	0.462306	0.100932	0.822209
	N267	N	0.531210	0.925930	0.821319
	N268	N	0.911730	0.193486	0.468451
	N269	N	0.085522	0.195149	0.537547
	N270	N	0.084436	0.834185	0.466321
	N271	N	0.910959	0.832613	0.537205
	N272	N	0.179036	0.478741	0.915964
	N273	N	0.177582	0.549557	0.088788
	N274	N	0.820989	0.477901	0.086794
	N275	N	0.818277	0.548873	0.915173
	O276	O	0.927164	1.224396	0.075793
	H277	H	0.943569	1.217347	0.071979
	H278	H	0.914275	1.226171	0.056067
	O279	O	-0.197180	0.211131	0.803606
	H280	H	-0.217214	0.209653	0.784519
	H281	H	-0.195902	0.204675	0.829103
	O282	O	0.710868	0.548421	0.721672
	H283	H	0.709624	0.531498	0.739116
	H284	H	0.709725	0.531579	0.727773
	O285	O	0.565336	0.443667	0.310564
	H286	H	0.576009	0.432377	0.302418
	H287	H	0.555568	0.423211	0.316733
	O288	O	1.625593	-0.427003	0.542829
	H289	H	1.621485	-0.414786	0.531263
	H290	H	1.633890	-0.415671	0.532076
	O291	O	0.400276	0.420363	0.300725
	H292	H	0.400489	0.429288	0.310370
	H293	H	0.396198	0.428620	0.305965
	O294	O	0.203016	0.074102	-0.120026
	H295	H	0.216405	0.058203	-0.110176
	H296	H	0.198286	0.067638	-0.128148
	O297	O	1.191205	0.199123	0.112889
	H298	H	1.205421	0.203550	0.133260
	H299	H	1.193828	0.194574	0.088221
	O300	O	0.274915	0.326404	0.518444
	H301	H	0.248332	0.305937	0.510008
	H302	H	0.278614	0.355170	0.495213
	O303	O	-0.300329	-0.279018	-0.294112
	H304	H	-0.293508	-0.324174	-0.292736
	H305	H	-0.298548	-0.263883	-0.275166
	O306	O	0.942524	-0.195526	0.016796
	H307	H	0.929691	-0.208964	0.021014
	H308	H	0.951997	-0.194110	0.042580
	O309	O	0.458654	0.408088	0.467966
	H310	H	0.448850	0.397340	0.466454
	H311	H	0.462854	0.422983	0.461468
	O312	O	0.422429	0.511950	0.528164
	H313	H	0.434177	0.517019	0.527583
	H314	H	0.417931	0.502185	0.518753
	O315	O	0.415869	0.602370	0.707401
	H316	H	0.417554	0.596529	0.708982
	H317	H	0.424635	0.591939	0.703422
	O318	O	0.968379	1.227047	-0.213776
	H319	H	0.964911	1.248763	-0.233154
	H320	H	0.942699	1.227926	-0.211035
	O321	O	0.121599	1.209009	0.960188
	H322	H	0.136181	1.223773	0.941884
	H323	H	0.131465	1.191388	0.940747
	O324	O	1.198613	-0.185915	0.803623
	H325	H	1.196716	-0.169597	0.829260
	H326	H	1.190876	-0.185139	0.799064
	O327	O	0.486231	0.522447	0.453357
	H328	H	0.494578	0.535353	0.446896
	H329	H	0.487146	0.534993	0.443680
	O330	O	1.141473	0.965936	0.163734
	H331	H	1.138874	0.965400	0.167905
	H332	H	1.129276	0.976593	0.167038
	O333	O	0.564872	0.733399	0.427601
	H334	H	0.558072	0.718910	0.438033
	H335	H	0.575957	0.739942	0.453781
	O336	O	-0.163758	0.902167	-0.040535
	H337	H	-0.165141	0.902716	-0.039301
	H338	H	-0.161339	0.900869	-0.048277
	O339	O	0.282661	0.482966	0.722439
	H340	H	0.301664	0.504037	0.708595
	H341	H	0.254808	0.491790	0.752920
	O342	O	-0.305928	0.636574	0.387504
	H343	H	-0.309496	0.609263	0.374453
	H344	H	-0.317285	0.637509	0.399549
	O345	O	0.283670	0.723815	0.480284
	H346	H	0.262503	0.718185	0.491285
	H347	H	0.289582	0.735697	0.481078
	O348	O	0.347432	0.565491	0.514820
	H349	H	0.355556	0.568106	0.515297
	H350	H	0.342254	0.571425	0.511031
	O351	O	0.015818	-0.182993	0.818985
	H352	H	0.010014	-0.197112	0.807453
	H353	H	0.028059	-0.176012	0.825447
	O354	O	0.975111	-0.022695	0.843280
	H355	H	0.980156	-0.025797	0.845634
	H356	H	0.978638	-0.011992	0.840127
	O357	O	0.701374	0.497035	0.294493
	H358	H	0.723636	0.481605	0.268831
	H359	H	0.690444	0.465260	0.298573
	O360	O	0.342593	0.437307	0.377050
	H361	H	0.365834	0.450150	0.373507
	H362	H	0.330769	0.455918	0.359186
	O363	O	0.675826	0.313315	0.297222
	H364	H	0.695920	0.281251	0.272143
	H365	H	0.650390	0.304692	0.308578
	O366	O	0.793504	-0.188802	1.126941
	H367	H	0.790885	-0.153161	1.117868
	H368	H	0.772752	-0.208240	1.138000
	O369	O	0.082675	0.136334	0.825434
	H370	H	0.090348	0.135298	0.837171
	H371	H	0.094088	0.158169	0.817735
	O372	O	0.145415	0.809407	1.001626
	H373	H	0.130977	0.802575	1.012482
	H374	H	0.153003	0.804081	1.014011
	O375	O	1.129629	-0.011467	0.036676
	H376	H	1.126961	-0.008579	0.050891
	H377	H	1.123458	-0.037799	0.031088
	O378	O	0.384512	0.298478	0.391507
	H379	H	0.383661	0.313490	0.400326
	H380	H	0.399662	0.294078	0.399382
	O381	O	0.562811	0.500457	0.511625
	H382	H	0.564809	0.489984	0.497711
	H383	H	0.560879	0.497098	0.515701
	O384	O	0.674332	0.460009	0.497660
	H385	H	0.669033	0.444281	0.499191
	H386	H	0.685633	0.464960	0.493253
	O387	O	-0.194860	1.093905	1.055977
	H388	H	-0.185712	1.094186	1.044086
	H389	H	-0.190731	1.074884	1.046516
	O390	O	-0.215536	1.223398	0.968397
	H391	H	-0.223495	1.233912	0.966839
	H392	H	-0.229856	1.221734	0.974128
	O393	O	1.018477	0.222418	0.216064
	H394	H	1.030367	0.230426	0.196510
	H395	H	1.032816	0.247028	0.233278
	O396	O	0.299595	0.655997	0.650796
	H397	H	0.318889	0.646593	0.657413
	H398	H	0.295394	0.646772	0.643751
	O399	O	0.539294	0.435913	0.689292
	H400	H	0.520579	0.425424	0.693038
	H401	H	0.544217	0.418145	0.690920
	O402	O	0.804251	-0.011989	1.202768
	H403	H	0.792752	-0.013380	1.195881
	H404	H	0.820275	-0.009802	1.205118
	O405	O	0.688465	0.363077	0.507149
	H406	H	0.701831	0.367004	0.493075
	H407	H	0.694388	0.367562	0.495576
	O408	O	0.784212	1.041726	0.785978
	H409	H	0.778711	1.046881	0.779329
	H410	H	0.777566	1.035918	0.772473
	O411	O	1.043161	0.979369	0.018810
	H412	H	1.048450	0.972589	0.009173
	H413	H	1.032541	0.997008	0.015112
	O414	O	-0.250407	-0.236238	0.262466
	H415	H	-0.270907	-0.268023	0.284415
	H416	H	-0.270097	-0.242249	0.249414
	O417	O	0.307273	0.320810	0.697345
	H418	H	0.298432	0.311227	0.644812
	H419	H	0.300160	0.374226	0.704581
	O420	O	1.037161	-0.026650	1.034871
	H421	H	1.037924	-0.033533	1.035126
	H422	H	1.028987	-0.010405	1.029390
	O423	O	1.308022	0.696872	0.318334
	H424	H	1.323519	0.717352	0.319697
	H425	H	1.329519	0.709543	0.335917
	O426	O	0.714546	0.738382	0.531035
	H427	H	0.730344	0.750740	0.549714
	H428	H	0.719163	0.747887	0.551619
	O429	O	1.034405	1.058503	0.216501
	H430	H	1.051262	1.070005	0.205135
	H431	H	1.037437	1.065198	0.221078
	O432	O	0.963503	0.047312	0.994056
	H433	H	0.959847	0.045607	0.983911
	H434	H	0.972654	0.058154	0.987175
	O435	O	0.205087	0.129634	0.204451
	H436	H	0.206970	0.128696	0.223964
	H437	H	0.208297	0.130890	0.209704
	O438	O	0.270116	0.533856	0.282379
	H439	H	0.265384	0.562694	0.275197
	H440	H	0.257339	0.563602	0.268231
	O441	O	0.523825	0.732807	0.716629
	H442	H	0.527302	0.744693	0.737319
	H443	H	0.540869	0.727374	0.724987
	O444	O	0.794991	0.213584	0.205582
	H445	H	0.805997	0.195277	0.196102
	H446	H	0.819861	0.191481	0.190141
	O447	O	0.466284	0.733427	0.548991
	H448	H	0.474573	0.728175	0.579411
	H449	H	0.455687	0.732250	0.548041
	O450	O	0.974071	-0.192051	0.208195
	H451	H	0.954171	-0.199867	0.222171
	H452	H	0.946825	-0.195264	0.220814
	O453	O	0.692059	0.358801	0.643960
	H454	H	0.693955	0.381568	0.622440
	H455	H	0.680920	0.363422	0.626890
	O456	O	0.039032	0.946179	1.103646
	H457	H	0.028845	0.945629	1.120298
	H458	H	0.024767	0.951028	1.104767
	O459	O	0.509178	0.287719	0.535270
	H460	H	0.506733	0.289514	0.536733
	H461	H	0.505355	0.281076	0.556088
	O462	O	0.465316	0.734880	0.286508
	H463	H	0.481761	0.745038	0.277337
	H464	H	0.482492	0.754242	0.289647
	O465	O	0.594509	0.359445	0.383398
	H466	H	0.588413	0.371276	0.367626
	H467	H	0.588334	0.359083	0.396191
	O468	O	-0.090225	0.870203	-0.147510
	H469	H	-0.077076	0.877826	-0.141392
	H470	H	-0.073697	0.878222	-0.140981
	O471	O	0.472567	0.296864	0.729684
	H472	H	0.455664	0.271025	0.751028
	H473	H	0.436960	0.294785	0.725029
	O474	O	0.986662	0.949542	-0.119220
	H475	H	0.986550	0.954020	-0.110476
	H476	H	0.994438	0.948293	-0.115924
	O477	O	0.128541	-0.028493	0.810877
	H478	H	0.119222	-0.031086	0.813961
	H479	H	0.132940	-0.025586	0.799791
