data_Molecule from HDF5

_cell_length_a		16.307265
_cell_length_b		16.354830
_cell_length_c		16.192004
_cell_angle_alpha	89.930891
_cell_angle_beta	89.953198
_cell_angle_gamma	90.075169
_symmetry_space_group_name_H-M	'P 1'
_symmetry_Int_Tables_number		1

loop_
	_symmetry_equiv_pos_as_xyz
	x,y,z

loop_
	_atom_site_label
	_atom_site_type_symbol
	_atom_site_fract_x
	_atom_site_fract_y
	_atom_site_fract_z
	H0	H	0.407504	0.834114	0.709099
	H1	H	0.601771	0.160949	0.709024
	H2	H	0.602824	0.835200	0.280299
	H3	H	0.406951	0.161267	0.281068
	H4	H	0.719803	0.399860	0.831303
	H5	H	0.718917	0.596854	0.159747
	H6	H	0.290873	0.596358	0.830714
	H7	H	0.291005	0.398907	0.160603
	H8	H	0.841505	0.714810	0.395438
	H9	H	0.167001	0.714558	0.597364
	H10	H	0.840966	0.281940	0.597072
	H11	H	0.167401	0.283357	0.397141
	H12	H	0.840159	0.400045	0.711265
	H13	H	0.167981	0.595211	0.709654
	H14	H	0.840581	0.596038	0.282289
	H15	H	0.167961	0.401532	0.282890
	H16	H	0.406837	0.711656	0.830384
	H17	H	0.605140	0.713595	0.159306
	H18	H	0.603232	0.284432	0.830518
	H19	H	0.405870	0.283008	0.159361
	H20	H	0.720413	0.835337	0.396308
	H21	H	0.720661	0.160520	0.594673
	H22	H	0.289858	0.835017	0.594501
	H23	H	0.289195	0.160219	0.394450
	H24	H	0.905449	0.334892	0.211620
	H25	H	0.103597	0.661708	0.211135
	H26	H	0.101540	0.335206	0.782780
	H27	H	0.906977	0.661531	0.781876
	H28	H	0.218815	0.898742	0.331084
	H29	H	0.219088	0.095877	0.660246
	H30	H	0.791466	0.096878	0.331131
	H31	H	0.789731	0.898343	0.659709
	H32	H	0.341610	0.213711	0.894447
	H33	H	0.666372	0.214506	0.095245
	H34	H	0.340627	0.781701	0.095365
	H35	H	0.666734	0.781549	0.894088
	H36	H	0.340802	0.899841	0.209901
	H37	H	0.668027	0.096517	0.208873
	H38	H	0.340356	0.094246	0.781957
	H39	H	0.668446	0.900283	0.781468
	H40	H	0.904253	0.213554	0.332396
	H41	H	0.103143	0.211881	0.659959
	H42	H	0.103469	0.782558	0.332247
	H43	H	0.905504	0.783410	0.661016
	H44	H	0.219078	0.335884	0.896984
	H45	H	0.220551	0.661286	0.095560
	H46	H	0.787510	0.335459	0.097179
	H47	H	0.788618	0.661014	0.895194
	H48	H	0.417137	0.114657	0.596048
	H49	H	0.602061	0.879801	0.591024
	H50	H	0.597239	0.114693	0.396488
	H51	H	0.413142	0.880882	0.396499
	H52	H	0.592346	0.404460	0.111562
	H53	H	0.594618	0.590214	0.879138
	H54	H	0.412902	0.595147	0.114154
	H55	H	0.409834	0.411514	0.879744
	H56	H	0.119783	0.592753	0.406046
	H57	H	0.888721	0.583483	0.595879
	H58	H	0.117493	0.409035	0.585729
	H59	H	0.889595	0.409576	0.404494
	H60	H	0.121481	0.405192	0.595341
	H61	H	0.883610	0.600766	0.591997
	H62	H	0.119579	0.589012	0.404852
	H63	H	0.885785	0.402174	0.399988
	H64	H	0.407916	0.589079	0.113051
	H65	H	0.597849	0.592214	0.877891
	H66	H	0.598251	0.403182	0.113499
	H67	H	0.416178	0.402771	0.878870
	H68	H	0.593655	0.111293	0.406191
	H69	H	0.593539	0.882263	0.589925
	H70	H	0.414847	0.110101	0.579155
	H71	H	0.416187	0.884812	0.406385
	H72	H	0.910559	0.612378	0.084458
	H73	H	0.097177	0.382253	0.092249
	H74	H	0.098270	0.614412	0.903975
	H75	H	0.908885	0.381646	0.903141
	H76	H	0.097158	0.910174	0.611114
	H77	H	0.091928	0.084647	0.382496
	H78	H	0.914937	0.095582	0.613807
	H79	H	0.912904	0.905616	0.379346
	H80	H	0.622369	0.097805	0.899569
	H81	H	0.388106	0.090512	0.083289
	H82	H	0.618937	0.904955	0.083194
	H83	H	0.388196	0.905684	0.899242
	H84	H	0.619974	0.907405	0.088362
	H85	H	0.388675	0.087856	0.088282
	H86	H	0.618591	0.092321	0.908187
	H87	H	0.387383	0.900003	0.902559
	H88	H	0.906539	0.090534	0.615139
	H89	H	0.094195	0.099766	0.377180
	H90	H	0.092677	0.902797	0.611677
	H91	H	0.914166	0.906757	0.379683
	H92	H	0.098643	0.614716	0.903823
	H93	H	0.095633	0.384368	0.088050
	H94	H	0.908602	0.615387	0.091245
	H95	H	0.913843	0.383524	0.903695
	H96	H	0.401486	0.117075	0.588321
	H97	H	0.599307	0.882821	0.583230
	H98	H	0.604539	0.115208	0.405141
	H99	H	0.405848	0.880478	0.405026
	H100	H	0.596843	0.408461	0.111665
	H101	H	0.599306	0.587995	0.879052
	H102	H	0.415214	0.588243	0.109451
	H103	H	0.405950	0.401731	0.875983
	H104	H	0.120540	0.591728	0.403064
	H105	H	0.891492	0.590380	0.578866
	H106	H	0.121265	0.398740	0.586274
	H107	H	0.888588	0.401886	0.408857
	H108	H	0.915717	0.612091	0.089730
	H109	H	0.100459	0.381624	0.088536
	H110	H	0.098384	0.614922	0.903587
	H111	H	0.910344	0.383090	0.907421
	H112	H	0.100906	0.902917	0.615104
	H113	H	0.105995	0.089545	0.376620
	H114	H	0.913932	0.086305	0.610746
	H115	H	0.915014	0.905174	0.379808
	H116	H	0.621130	0.087259	0.898715
	H117	H	0.387677	0.093516	0.088651
	H118	H	0.620705	0.901954	0.088152
	H119	H	0.389436	0.904966	0.905811
	C120	C	0.382588	0.005990	0.616932
	C121	C	0.626768	0.989159	0.616827
	C122	C	0.627124	0.006341	0.373246
	C123	C	0.382757	0.989545	0.373324
	C124	C	0.625283	0.376675	0.003788
	C125	C	0.625954	0.619162	0.986975
	C126	C	0.383314	0.619134	0.003363
	C127	C	0.382654	0.376413	0.986992
	C128	C	0.012265	0.620083	0.375005
	C129	C	0.995788	0.619872	0.617881
	C130	C	0.012071	0.375814	0.618186
	C131	C	0.995831	0.376373	0.375215
	C132	C	0.882302	0.505756	0.117892
	C133	C	0.126589	0.490427	0.118269
	C134	C	0.126625	0.506976	0.874843
	C135	C	0.882451	0.490346	0.874985
	C136	C	0.126216	0.876360	0.504424
	C137	C	0.126002	0.119746	0.487346
	C138	C	0.883361	0.119356	0.504477
	C139	C	0.884195	0.876430	0.487773
	C140	C	0.512723	0.120204	0.873213
	C141	C	0.495808	0.119350	0.115901
	C142	C	0.512184	0.876006	0.116185
	C143	C	0.496076	0.875554	0.873612
	C144	C	0.386281	0.883111	0.671827
	C145	C	0.623059	0.112214	0.671165
	C146	C	0.624184	0.884059	0.317750
	C147	C	0.385924	0.112208	0.318349
	C148	C	0.681155	0.379366	0.880082
	C149	C	0.681443	0.617729	0.110490
	C150	C	0.328477	0.616516	0.879969
	C151	C	0.328020	0.378462	0.111055
	C152	C	0.890045	0.676370	0.376046
	C153	C	0.118737	0.675352	0.616056
	C154	C	0.889426	0.320389	0.616935
	C155	C	0.118770	0.321364	0.377101
	C156	C	0.888923	0.379385	0.673426
	C157	C	0.119243	0.616361	0.672245
	C158	C	0.889503	0.617409	0.319583
	C159	C	0.119113	0.379971	0.320248
	C160	C	0.385952	0.674044	0.879663
	C161	C	0.624468	0.675175	0.110345
	C162	C	0.623593	0.321873	0.879859
	C163	C	0.385067	0.320749	0.110407
	C164	C	0.682301	0.883989	0.375471
	C165	C	0.682482	0.111766	0.614836
	C166	C	0.327846	0.883547	0.614877
	C167	C	0.327362	0.111694	0.374795
	C168	C	0.884693	0.383643	0.173768
	C169	C	0.123750	0.613222	0.173009
	C170	C	0.122606	0.384179	0.819959
	C171	C	0.885525	0.612808	0.819460
	C172	C	0.181451	0.878398	0.380604
	C173	C	0.180954	0.116286	0.611056
	C174	C	0.828805	0.117089	0.380472
	C175	C	0.827828	0.878242	0.610900
	C176	C	0.390114	0.175418	0.874834
	C177	C	0.618058	0.175810	0.114977
	C178	C	0.389585	0.819864	0.115113
	C179	C	0.618448	0.819971	0.874515
	C180	C	0.389553	0.878375	0.172334
	C181	C	0.618847	0.116947	0.171312
	C182	C	0.389440	0.116317	0.818637
	C183	C	0.619386	0.879443	0.819024
	C184	C	0.885076	0.175137	0.381248
	C185	C	0.123649	0.174111	0.611176
	C186	C	0.124011	0.820653	0.380988
	C187	C	0.885200	0.820992	0.611446
	C188	C	0.180940	0.384399	0.876872
	C189	C	0.182387	0.612690	0.115926
	C190	C	0.825973	0.383986	0.116920
	C191	C	0.826903	0.612379	0.876128
	C192	C	0.404541	0.091593	0.594466
	C193	C	0.604859	0.903892	0.594660
	C194	C	0.605034	0.091745	0.395898
	C195	C	0.404992	0.903995	0.396070
	C196	C	0.602540	0.398816	0.089721
	C197	C	0.603877	0.596692	0.900870
	C198	C	0.405562	0.597248	0.089896
	C199	C	0.404265	0.398789	0.900761
	C200	C	0.097842	0.597662	0.397782
	C201	C	0.910126	0.597924	0.595562
	C202	C	0.097759	0.397755	0.595824
	C203	C	0.910232	0.398158	0.397726
	C204	C	0.905030	0.591373	0.095004
	C205	C	0.104221	0.404802	0.096282
	C206	C	0.104972	0.592552	0.897169
	C207	C	0.904516	0.404734	0.897920
	C208	C	0.103652	0.898793	0.590284
	C209	C	0.103778	0.097934	0.401113
	C210	C	0.905470	0.097388	0.590820
	C211	C	0.907215	0.899188	0.401931
	C212	C	0.598514	0.098741	0.895523
	C213	C	0.410319	0.097019	0.093367
	C214	C	0.597647	0.898186	0.093262
	C215	C	0.410459	0.897261	0.895915
	Zn216	Zn	0.504404	-0.002096	0.745262
	Zn217	Zn	0.504308	-0.001682	0.244824
	Zn218	Zn	0.753347	0.498342	-0.003952
	Zn219	Zn	0.255020	0.498053	-0.003761
	Zn220	Zn	0.004435	0.748339	0.496609
	Zn221	Zn	0.004090	0.247685	0.496380
	Zn222	Zn	0.004274	0.498234	0.746319
	Zn223	Zn	0.004291	0.498143	0.246565
	Zn224	Zn	0.504730	0.746908	-0.005196
	Zn225	Zn	0.503880	0.248658	-0.004978
	Zn226	Zn	0.756050	-0.002214	0.494800
	Zn227	Zn	0.254121	-0.002063	0.495091
	N228	N	0.419801	0.960391	0.673053
	N229	N	0.589264	0.035254	0.672698
	N230	N	0.590592	0.961201	0.316294
	N231	N	0.419707	0.035085	0.317355
	N232	N	0.682494	0.412674	0.958093
	N233	N	0.682280	0.583513	0.033068
	N234	N	0.326689	0.583263	0.958150
	N235	N	0.326344	0.412365	0.033268
	N236	N	0.967448	0.677961	0.409770
	N237	N	0.040941	0.677693	0.583082
	N238	N	0.966798	0.318134	0.583395
	N239	N	0.041099	0.319148	0.410529
	N240	N	0.966308	0.413101	0.674476
	N241	N	0.042095	0.582387	0.673202
	N242	N	0.966514	0.582879	0.319045
	N243	N	0.041834	0.413472	0.318982
	N244	N	0.419445	0.675572	0.957545
	N245	N	0.590817	0.676366	0.032445
	N246	N	0.589553	0.320160	0.957699
	N247	N	0.418378	0.319391	0.032402
	N248	N	0.684299	0.961052	0.408984
	N249	N	0.684719	0.034383	0.581506
	N250	N	0.325328	0.960863	0.581624
	N251	N	0.325358	0.034464	0.408305
	N252	N	0.919074	0.460443	0.174308
	N253	N	0.089812	0.536062	0.174649
	N254	N	0.089348	0.461669	0.818451
	N255	N	0.919457	0.535925	0.818763
	N256	N	0.182673	0.912392	0.458321
	N257	N	0.182595	0.083229	0.533053
	N258	N	0.827621	0.083027	0.458061
	N259	N	0.827157	0.912193	0.533035
	N260	N	0.467930	0.178193	0.907849
	N261	N	0.540769	0.177405	0.081152
	N262	N	0.466984	0.818255	0.081037
	N263	N	0.540863	0.817463	0.907815
	N264	N	0.466562	0.912674	0.173014
	N265	N	0.541850	0.082413	0.171851
	N266	N	0.466650	0.082816	0.817456
	N267	N	0.542207	0.913532	0.818224
	N268	N	0.918322	0.176696	0.459315
	N269	N	0.089991	0.176188	0.533373
	N270	N	0.090343	0.819131	0.458828
	N271	N	0.919691	0.819922	0.533913
	N272	N	0.183424	0.461468	0.910303
	N273	N	0.184197	0.535287	0.082794
	N274	N	0.824538	0.461111	0.082910
	N275	N	0.825002	0.535035	0.910002
	O276	O	0.998394	0.988262	0.030433
	H277	H	0.998902	0.998662	0.038445
	H278	H	0.999292	0.987569	0.022087
	O279	O	0.476816	0.478342	0.421034
	H280	H	0.467512	0.487974	0.425533
	H281	H	0.480821	0.471726	0.417163
	O282	O	0.042751	0.001812	-0.048745
	H283	H	0.032091	-0.002429	-0.050029
	H284	H	0.045442	0.002340	-0.037967
	O285	O	0.468077	0.543442	0.507461
	H286	H	0.471311	0.545043	0.505147
	H287	H	0.478056	0.549649	0.507228
	O288	O	-0.013294	0.064034	0.086775
	H289	H	-0.012089	0.054898	0.078702
	H290	H	-0.030264	0.060939	0.088801
	O291	O	0.024097	1.105265	0.044641
	H292	H	0.024943	1.108830	0.035545
	H293	H	0.020193	1.100829	0.037976
	O294	O	-0.025517	0.962620	0.020577
	H295	H	-0.025149	0.954502	0.023927
	H296	H	-0.019802	0.966437	0.025755
	O297	O	0.474532	0.457315	0.402382
	H298	H	0.460234	0.461787	0.395400
	H299	H	0.471670	0.460487	0.399132
	O300	O	0.483568	0.438082	0.476610
	H301	H	0.481405	0.433735	0.476842
	H302	H	0.486398	0.442997	0.469521
	O303	O	0.979606	0.015600	0.960833
	H304	H	0.977699	0.011043	0.958691
	H305	H	0.983291	0.025226	0.975626
	O306	O	0.026319	0.956037	1.004203
	H307	H	0.017827	0.968559	0.995677
	H308	H	0.036691	0.958567	1.010619
	O309	O	0.061691	1.017927	0.970754
	H310	H	0.056011	1.013855	0.973243
	H311	H	0.067109	1.007916	0.967020
	O312	O	-0.064752	-0.022194	0.993867
	H313	H	-0.064872	-0.020720	0.985181
	H314	H	-0.065371	-0.029921	0.988516
	O315	O	0.448874	0.479528	0.498832
	H316	H	0.457699	0.480472	0.501963
	H317	H	0.442761	0.483594	0.506173
	O318	O	0.037779	-0.034630	1.049943
	H319	H	0.031616	-0.036005	1.054530
	H320	H	0.041487	-0.034348	1.053453
	O321	O	0.007614	0.035967	1.034136
	H322	H	-0.001741	0.034266	1.029232
	H323	H	0.005986	0.030907	1.031975
	O324	O	1.004726	-0.004739	0.947514
	H325	H	1.018664	0.001468	0.946857
	H326	H	1.003865	0.008176	0.953460
	O327	O	0.923059	0.980750	0.990654
	H328	H	0.918292	0.974065	0.979754
	H329	H	0.929659	0.981355	0.984089
	O330	O	0.037104	1.000537	0.963986
	H331	H	0.047768	0.995391	0.966787
	H332	H	0.031251	0.992107	0.965849
	O333	O	0.465218	0.521912	0.430882
	H334	H	0.458962	0.514214	0.431940
	H335	H	0.466334	0.525490	0.438217
	O336	O	0.509416	0.468656	0.525106
	H337	H	0.502166	0.465134	0.522405
	H338	H	0.508418	0.466585	0.516632
	O339	O	0.481848	0.519736	0.442654
	H340	H	0.485983	0.510835	0.442033
	H341	H	0.486282	0.522479	0.437250
	O342	O	0.976838	0.012136	0.006200
	H343	H	0.975300	0.009820	0.010123
	H344	H	0.978868	0.009394	0.013608
	O345	O	0.526371	0.481821	0.487541
	H346	H	0.530589	0.477394	0.497320
	H347	H	0.524783	0.469429	0.490501
