data_Molecule from HDF5

_cell_length_a		16.307451
_cell_length_b		16.374495
_cell_length_c		16.251058
_cell_angle_alpha	90.208364
_cell_angle_beta	90.179447
_cell_angle_gamma	89.898638
_symmetry_space_group_name_H-M	'P 1'
_symmetry_Int_Tables_number		1

loop_
	_symmetry_equiv_pos_as_xyz
	x,y,z

loop_
	_atom_site_label
	_atom_site_type_symbol
	_atom_site_fract_x
	_atom_site_fract_y
	_atom_site_fract_z
	H0	H	0.407586	0.837902	0.717933
	H1	H	0.602571	0.164627	0.720555
	H2	H	0.601425	0.837822	0.289791
	H3	H	0.405470	0.164569	0.291070
	H4	H	0.717073	0.402044	0.840858
	H5	H	0.717135	0.599145	0.169477
	H6	H	0.288200	0.598667	0.842123
	H7	H	0.291105	0.403618	0.169636
	H8	H	0.840547	0.714874	0.406314
	H9	H	0.167595	0.715328	0.604846
	H10	H	0.840673	0.283904	0.605029
	H11	H	0.165873	0.282386	0.403775
	H12	H	0.839553	0.402699	0.718857
	H13	H	0.167536	0.597628	0.720402
	H14	H	0.839438	0.597902	0.291382
	H15	H	0.167190	0.400649	0.290669
	H16	H	0.402929	0.715416	0.841244
	H17	H	0.602385	0.716394	0.168434
	H18	H	0.602412	0.285677	0.841407
	H19	H	0.406030	0.286841	0.168354
	H20	H	0.717846	0.837475	0.407657
	H21	H	0.719763	0.164263	0.604865
	H22	H	0.289627	0.838485	0.602737
	H23	H	0.286565	0.163365	0.404889
	H24	H	0.905965	0.336663	0.218118
	H25	H	0.102126	0.662361	0.222179
	H26	H	0.101186	0.337063	0.791017
	H27	H	0.904831	0.663981	0.791333
	H28	H	0.217257	0.901923	0.340027
	H29	H	0.218926	0.100280	0.668462
	H30	H	0.789537	0.097808	0.340966
	H31	H	0.790749	0.904383	0.668760
	H32	H	0.341473	0.217123	0.905054
	H33	H	0.666661	0.216440	0.105078
	H34	H	0.339971	0.785951	0.103815
	H35	H	0.666557	0.784187	0.904834
	H36	H	0.339056	0.904333	0.218135
	H37	H	0.667717	0.097332	0.218577
	H38	H	0.340792	0.099314	0.791112
	H39	H	0.668259	0.903123	0.791890
	H40	H	0.902228	0.215878	0.341307
	H41	H	0.104569	0.217301	0.667986
	H42	H	0.102701	0.784365	0.340883
	H43	H	0.904721	0.786755	0.668256
	H44	H	0.219527	0.337788	0.905995
	H45	H	0.219096	0.662694	0.106707
	H46	H	0.787039	0.337974	0.103547
	H47	H	0.787483	0.662970	0.906650
	H48	H	0.415322	0.118854	0.608856
	H49	H	0.595036	0.886251	0.600918
	H50	H	0.597015	0.114112	0.420383
	H51	H	0.405208	0.883949	0.408663
	H52	H	0.607570	0.411899	0.124391
	H53	H	0.595534	0.588531	0.890546
	H54	H	0.404847	0.590696	0.122713
	H55	H	0.411004	0.410820	0.889679
	H56	H	0.120251	0.600045	0.418260
	H57	H	0.886385	0.595630	0.601690
	H58	H	0.116958	0.414200	0.598543
	H59	H	0.888986	0.404771	0.418401
	H60	H	0.121315	0.403389	0.602585
	H61	H	0.887465	0.598869	0.596561
	H62	H	0.116523	0.585659	0.416079
	H63	H	0.889571	0.413857	0.412542
	H64	H	0.418372	0.590873	0.118357
	H65	H	0.590388	0.595454	0.889445
	H66	H	0.589051	0.416860	0.116357
	H67	H	0.413217	0.406481	0.888833
	H68	H	0.604413	0.119899	0.408149
	H69	H	0.596977	0.887411	0.594396
	H70	H	0.416577	0.112829	0.589807
	H71	H	0.417120	0.886763	0.408382
	H72	H	0.907724	0.616709	0.100089
	H73	H	0.092085	0.384102	0.104705
	H74	H	0.097761	0.615351	0.914396
	H75	H	0.911704	0.384114	0.908166
	H76	H	0.109108	0.915012	0.622234
	H77	H	0.099891	0.086683	0.388642
	H78	H	0.911057	0.095782	0.622061
	H79	H	0.913171	0.898447	0.386008
	H80	H	0.622632	0.098871	0.911337
	H81	H	0.386560	0.094924	0.098637
	H82	H	0.616096	0.906877	0.088660
	H83	H	0.386633	0.904706	0.910696
	H84	H	0.619199	0.914872	0.103333
	H85	H	0.387973	0.096819	0.096456
	H86	H	0.619824	0.094109	0.917301
	H87	H	0.389835	0.909343	0.915570
	H88	H	0.911070	0.091194	0.620559
	H89	H	0.087630	0.090267	0.391810
	H90	H	0.085988	0.914136	0.615411
	H91	H	0.901499	0.909399	0.385862
	H92	H	0.095450	0.616227	0.911960
	H93	H	0.094549	0.387029	0.090887
	H94	H	0.913050	0.615639	0.100003
	H95	H	0.911735	0.386594	0.915081
	H96	H	0.398977	0.119544	0.596829
	H97	H	0.601586	0.884720	0.599130
	H98	H	0.590135	0.115769	0.407412
	H99	H	0.410449	0.888007	0.418661
	H100	H	0.592303	0.397290	0.123628
	H101	H	0.598668	0.595253	0.886686
	H102	H	0.412553	0.603050	0.123540
	H103	H	0.408195	0.407040	0.887377
	H104	H	0.122621	0.593883	0.404958
	H105	H	0.889078	0.592791	0.596221
	H106	H	0.117731	0.405294	0.590740
	H107	H	0.885865	0.404744	0.408315
	H108	H	0.909922	0.614538	0.095631
	H109	H	0.105100	0.382626	0.098807
	H110	H	0.094760	0.614319	0.914563
	H111	H	0.906149	0.383887	0.912467
	H112	H	0.096370	0.894163	0.624570
	H113	H	0.095806	0.099383	0.386486
	H114	H	0.915344	0.093947	0.620054
	H115	H	0.915844	0.912945	0.391291
	H116	H	0.620604	0.091220	0.909347
	H117	H	0.387973	0.093439	0.096362
	H118	H	0.622806	0.899395	0.101894
	H119	H	0.388334	0.911780	0.908514
	C120	C	0.382597	0.009274	0.626330
	C121	C	0.625951	0.993655	0.626827
	C122	C	0.625574	0.009263	0.383250
	C123	C	0.381751	0.993032	0.383018
	C124	C	0.624778	0.379735	0.013356
	C125	C	0.624279	0.622329	0.996830
	C126	C	0.381787	0.622991	0.013778
	C127	C	0.382544	0.380093	0.996689
	C128	C	0.011805	0.621759	0.384026
	C129	C	0.995664	0.623159	0.627224
	C130	C	0.011113	0.379050	0.626044
	C131	C	0.995526	0.378334	0.383547
	C132	C	0.881667	0.508298	0.126730
	C133	C	0.125527	0.491928	0.127348
	C134	C	0.125099	0.507986	0.884316
	C135	C	0.881331	0.492540	0.883519
	C136	C	0.125672	0.878944	0.512565
	C137	C	0.124418	0.121940	0.496850
	C138	C	0.882387	0.122559	0.513178
	C139	C	0.882166	0.879136	0.496151
	C140	C	0.512736	0.123027	0.883906
	C141	C	0.495501	0.123053	0.126481
	C142	C	0.511300	0.879294	0.126581
	C143	C	0.495965	0.879474	0.883104
	C144	C	0.386326	0.886697	0.680776
	C145	C	0.623465	0.115945	0.682696
	C146	C	0.622581	0.886307	0.327903
	C147	C	0.384297	0.115814	0.328447
	C148	C	0.679429	0.381870	0.889732
	C149	C	0.679464	0.619593	0.120256
	C150	C	0.326212	0.619606	0.890721
	C151	C	0.328159	0.382825	0.120202
	C152	C	0.889169	0.677152	0.385774
	C153	C	0.118655	0.677467	0.625281
	C154	C	0.888803	0.323153	0.624155
	C155	C	0.117499	0.321464	0.384236
	C156	C	0.888318	0.381996	0.680878
	C157	C	0.118621	0.619102	0.682742
	C158	C	0.888568	0.618776	0.328708
	C159	C	0.118259	0.380556	0.328225
	C160	C	0.383095	0.677800	0.890567
	C161	C	0.622441	0.677920	0.119846
	C162	C	0.622688	0.323955	0.890028
	C163	C	0.385218	0.324862	0.119718
	C164	C	0.680488	0.886414	0.386122
	C165	C	0.681474	0.115763	0.625138
	C166	C	0.327893	0.886745	0.623181
	C167	C	0.325426	0.115207	0.385106
	C168	C	0.884519	0.385522	0.181135
	C169	C	0.122672	0.614059	0.183772
	C170	C	0.122183	0.385680	0.828952
	C171	C	0.883850	0.614906	0.828508
	C172	C	0.179914	0.881376	0.389056
	C173	C	0.180817	0.120223	0.619521
	C174	C	0.826663	0.119399	0.390073
	C175	C	0.828096	0.883057	0.619814
	C176	C	0.389901	0.178308	0.885734
	C177	C	0.618300	0.177792	0.124838
	C178	C	0.388601	0.824159	0.124220
	C179	C	0.618128	0.823016	0.885051
	C180	C	0.388029	0.883071	0.180771
	C181	C	0.618600	0.119127	0.181656
	C182	C	0.389789	0.120014	0.828763
	C183	C	0.619151	0.882219	0.828939
	C184	C	0.883200	0.177565	0.390144
	C185	C	0.123536	0.177978	0.619565
	C186	C	0.123044	0.822975	0.389500
	C187	C	0.884641	0.824706	0.619412
	C188	C	0.181036	0.386121	0.885956
	C189	C	0.181140	0.614130	0.126640
	C190	C	0.825919	0.386101	0.123747
	C191	C	0.825623	0.614642	0.885954
	C192	C	0.403953	0.094951	0.604720
	C193	C	0.604064	0.908129	0.604508
	C194	C	0.603711	0.094368	0.405303
	C195	C	0.404461	0.908255	0.405201
	C196	C	0.602896	0.402070	0.099163
	C197	C	0.601468	0.599626	0.911062
	C198	C	0.404912	0.601220	0.099508
	C199	C	0.404356	0.401698	0.910734
	C200	C	0.097602	0.599624	0.406583
	C201	C	0.909817	0.602033	0.604805
	C202	C	0.096790	0.401045	0.603830
	C203	C	0.910066	0.401183	0.406411
	C204	C	0.903791	0.593562	0.104775
	C205	C	0.103656	0.406509	0.104578
	C206	C	0.102539	0.593126	0.907210
	C207	C	0.903423	0.406929	0.905490
	C208	C	0.103659	0.901192	0.598405
	C209	C	0.101096	0.098785	0.410939
	C210	C	0.905675	0.100225	0.598890
	C211	C	0.903858	0.900588	0.409988
	C212	C	0.598901	0.101245	0.906172
	C213	C	0.409600	0.101426	0.103929
	C214	C	0.597185	0.900770	0.104545
	C215	C	0.410372	0.902085	0.904966
	Zn216	Zn	0.504422	0.001434	0.755580
	Zn217	Zn	0.503381	0.001484	0.254332
	Zn218	Zn	0.752495	0.500496	0.004955
	Zn219	Zn	0.254161	0.500739	0.005948
	Zn220	Zn	0.003927	0.751070	0.504685
	Zn221	Zn	0.003246	0.250121	0.504682
	Zn222	Zn	0.003048	0.500250	0.755222
	Zn223	Zn	0.003304	0.499804	0.255845
	Zn224	Zn	0.503185	0.751213	0.004651
	Zn225	Zn	0.504174	0.251719	0.005040
	Zn226	Zn	0.754644	0.001317	0.505207
	Zn227	Zn	0.253265	0.000934	0.504237
	N228	N	0.419571	0.963817	0.682879
	N229	N	0.589786	0.038985	0.684095
	N230	N	0.589076	0.963482	0.325866
	N231	N	0.418608	0.038944	0.326867
	N232	N	0.680855	0.415837	0.967306
	N233	N	0.680870	0.586003	0.042565
	N234	N	0.325408	0.586392	0.968248
	N235	N	0.326420	0.416434	0.042690
	N236	N	0.966722	0.678956	0.419317
	N237	N	0.041235	0.680219	0.591610
	N238	N	0.966239	0.321323	0.590710
	N239	N	0.040303	0.320256	0.417934
	N240	N	0.965240	0.416321	0.681884
	N241	N	0.041144	0.585884	0.684031
	N242	N	0.966013	0.584914	0.327504
	N243	N	0.041300	0.415531	0.327758
	N244	N	0.416953	0.680252	0.968296
	N245	N	0.588607	0.679605	0.042274
	N246	N	0.589450	0.322472	0.967712
	N247	N	0.418501	0.323185	0.042094
	N248	N	0.682282	0.963510	0.420006
	N249	N	0.683016	0.038770	0.590999
	N250	N	0.325192	0.964069	0.590412
	N251	N	0.323666	0.038107	0.418251
	N252	N	0.918360	0.462413	0.183205
	N253	N	0.089126	0.537023	0.184811
	N254	N	0.088230	0.462561	0.827628
	N255	N	0.917554	0.537856	0.826879
	N256	N	0.181612	0.915520	0.466670
	N257	N	0.181340	0.085841	0.542050
	N258	N	0.826202	0.085721	0.467453
	N259	N	0.826475	0.916285	0.542200
	N260	N	0.467591	0.180181	0.919320
	N261	N	0.540704	0.180428	0.091378
	N262	N	0.466104	0.821776	0.091311
	N263	N	0.540548	0.821288	0.918116
	N264	N	0.465375	0.916636	0.182342
	N265	N	0.541277	0.085565	0.182338
	N266	N	0.467091	0.086263	0.827785
	N267	N	0.542066	0.916431	0.827542
	N268	N	0.917234	0.179465	0.467873
	N269	N	0.089266	0.178980	0.542123
	N270	N	0.090019	0.821439	0.467284
	N271	N	0.917744	0.822298	0.541595
	N272	N	0.182946	0.463233	0.919698
	N273	N	0.182762	0.537202	0.092301
	N274	N	0.824065	0.463394	0.090887
	N275	N	0.823691	0.537500	0.919183
	O276	O	0.533056	0.516012	0.540016
	H277	H	0.539976	0.512799	0.555616
	H278	H	0.528803	0.522273	0.539401
	O279	O	0.064739	-0.139209	-0.076175
	H280	H	0.066071	-0.142694	-0.062237
	H281	H	0.053815	-0.140328	-0.074522
	O282	O	0.529654	0.519512	0.491592
	H283	H	0.526756	0.520401	0.489746
	H284	H	0.524496	0.521686	0.486948
	O285	O	0.532381	0.582413	0.561280
	H286	H	0.537077	0.579308	0.556246
	H287	H	0.536245	0.585876	0.563398
	O288	O	1.087097	-0.127105	-0.094264
	H289	H	1.100763	-0.125455	-0.110676
	H290	H	1.087381	-0.141400	-0.096399
	O291	O	-0.515456	0.599075	-0.510228
	H292	H	-0.512031	0.593890	-0.504818
	H293	H	-0.514441	0.594143	-0.512002
	O294	O	0.026361	0.876150	-0.072868
	H295	H	0.019180	0.878895	-0.072775
	H296	H	0.026342	0.879287	-0.083692
	O297	O	0.054298	0.884513	-0.054066
	H298	H	0.058942	0.887063	-0.052448
	H299	H	0.063083	0.883482	-0.059999
	O300	O	1.033961	-0.112706	0.924758
	H301	H	1.034769	-0.110755	0.926097
	H302	H	1.048110	-0.121005	0.928285
	O303	O	0.478246	0.506882	0.449969
	H304	H	0.478454	0.505888	0.460904
	H305	H	0.472100	0.510011	0.436500
	O306	O	0.485434	1.576601	1.524425
	H307	H	0.499243	1.575902	1.538894
	H308	H	0.495671	1.586318	1.520921
	O309	O	0.499322	0.566789	0.506065
	H310	H	0.502650	0.573303	0.506489
	H311	H	0.492406	0.573776	0.489230
