data_Molecule from HDF5

_cell_length_a		16.240320
_cell_length_b		16.216984
_cell_length_c		16.350431
_cell_angle_alpha	89.799057
_cell_angle_beta	90.107750
_cell_angle_gamma	89.922273
_symmetry_space_group_name_H-M	'P 1'
_symmetry_Int_Tables_number		1

loop_
	_symmetry_equiv_pos_as_xyz
	x,y,z

loop_
	_atom_site_label
	_atom_site_type_symbol
	_atom_site_fract_x
	_atom_site_fract_y
	_atom_site_fract_z
	H0	H	0.395673	0.841078	0.710798
	H1	H	0.592480	0.169782	0.708622
	H2	H	0.596236	0.841170	0.280488
	H3	H	0.393146	0.168133	0.277854
	H4	H	0.709463	0.406978	0.831863
	H5	H	0.710250	0.603813	0.157495
	H6	H	0.278241	0.605375	0.831636
	H7	H	0.279584	0.404581	0.157744
	H8	H	0.829644	0.720014	0.394884
	H9	H	0.158317	0.719801	0.592544
	H10	H	0.830378	0.291004	0.593550
	H11	H	0.158325	0.291125	0.397042
	H12	H	0.830875	0.405715	0.710759
	H13	H	0.158070	0.606262	0.711100
	H14	H	0.831833	0.609744	0.275840
	H15	H	0.157283	0.405644	0.279948
	H16	H	0.395529	0.721103	0.831462
	H17	H	0.593202	0.719411	0.157859
	H18	H	0.592893	0.290911	0.831419
	H19	H	0.395567	0.289935	0.157362
	H20	H	0.708612	0.840792	0.398590
	H21	H	0.708094	0.169531	0.593596
	H22	H	0.279855	0.841127	0.594389
	H23	H	0.280334	0.169902	0.396151
	H24	H	0.894374	0.341966	0.210522
	H25	H	0.094949	0.668811	0.210658
	H26	H	0.095387	0.341526	0.779811
	H27	H	0.895206	0.669561	0.779271
	H28	H	0.211165	0.905243	0.331587
	H29	H	0.209090	0.103177	0.658202
	H30	H	0.777756	0.105474	0.333213
	H31	H	0.780324	0.905192	0.658121
	H32	H	0.330650	0.220821	0.895555
	H33	H	0.659317	0.218561	0.091615
	H34	H	0.330780	0.791422	0.092636
	H35	H	0.658959	0.792610	0.897718
	H36	H	0.331475	0.903840	0.211843
	H37	H	0.658212	0.105858	0.211042
	H38	H	0.331780	0.107718	0.778380
	H39	H	0.658806	0.906481	0.781639
	H40	H	0.894524	0.220926	0.332229
	H41	H	0.092638	0.218294	0.657964
	H42	H	0.092934	0.790652	0.330570
	H43	H	0.895057	0.788545	0.657042
	H44	H	0.207318	0.339625	0.898875
	H45	H	0.210033	0.669371	0.093761
	H46	H	0.781920	0.340947	0.092191
	H47	H	0.780804	0.670154	0.895730
	H48	H	0.406420	0.118751	0.580792
	H49	H	0.588990	0.886666	0.592844
	H50	H	0.588329	0.122217	0.401927
	H51	H	0.405671	0.889675	0.404776
	H52	H	0.584059	0.419584	0.107306
	H53	H	0.586747	0.602680	0.877236
	H54	H	0.405968	0.599529	0.109280
	H55	H	0.407504	0.405598	0.878716
	H56	H	0.111083	0.595570	0.397897
	H57	H	0.874438	0.597444	0.600102
	H58	H	0.111002	0.413056	0.589635
	H59	H	0.874050	0.410751	0.395179
	H60	H	0.111278	0.412159	0.587307
	H61	H	0.877272	0.607554	0.579191
	H62	H	0.111148	0.602482	0.402837
	H63	H	0.878265	0.409403	0.407934
	H64	H	0.398741	0.599916	0.110851
	H65	H	0.591057	0.597256	0.878635
	H66	H	0.583692	0.404164	0.110528
	H67	H	0.391750	0.412088	0.875682
	H68	H	0.583432	0.121476	0.400911
	H69	H	0.584338	0.889095	0.589942
	H70	H	0.393758	0.123760	0.586514
	H71	H	0.400998	0.888488	0.405154
	H72	H	0.909526	0.619841	0.087254
	H73	H	0.080558	0.392413	0.085781
	H74	H	0.084893	0.621326	0.901591
	H75	H	0.904798	0.390289	0.905650
	H76	H	0.085375	0.912656	0.608538
	H77	H	0.086287	0.093947	0.379768
	H78	H	0.897586	0.103045	0.613680
	H79	H	0.904304	0.917160	0.381581
	H80	H	0.614632	0.108478	0.901194
	H81	H	0.375767	0.096866	0.097769
	H82	H	0.612217	0.911641	0.092011
	H83	H	0.377675	0.907875	0.906023
	H84	H	0.611757	0.912133	0.086882
	H85	H	0.376805	0.106291	0.082670
	H86	H	0.607501	0.095014	0.910263
	H87	H	0.380701	0.921154	0.905235
	H88	H	0.898125	0.092982	0.610972
	H89	H	0.083863	0.102435	0.378907
	H90	H	0.086733	0.910322	0.610146
	H91	H	0.901936	0.908660	0.377641
	H92	H	0.087092	0.621138	0.903451
	H93	H	0.092338	0.387706	0.085400
	H94	H	0.898530	0.621357	0.080121
	H95	H	0.897042	0.387135	0.902299
	H96	H	0.405541	0.122618	0.595487
	H97	H	0.589359	0.888442	0.587367
	H98	H	0.585204	0.120311	0.405225
	H99	H	0.402893	0.887872	0.401325
	H100	H	0.596925	0.412242	0.113174
	H101	H	0.584499	0.596838	0.880610
	H102	H	0.401689	0.594032	0.109856
	H103	H	0.404117	0.422445	0.882365
	H104	H	0.108354	0.595355	0.405737
	H105	H	0.883382	0.585137	0.582531
	H106	H	0.110359	0.414307	0.587846
	H107	H	0.879258	0.421256	0.401869
	H108	H	0.898982	0.624881	0.092942
	H109	H	0.086476	0.387401	0.095602
	H110	H	0.087468	0.622648	0.900573
	H111	H	0.904023	0.387304	0.897105
	H112	H	0.088740	0.912432	0.610071
	H113	H	0.092872	0.100161	0.377032
	H114	H	0.906529	0.099601	0.609853
	H115	H	0.895366	0.915592	0.378522
	H116	H	0.612279	0.092466	0.893084
	H117	H	0.382037	0.088693	0.083279
	H118	H	0.610143	0.916292	0.089101
	H119	H	0.375645	0.914634	0.895270
	C120	C	0.373120	0.013577	0.616656
	C121	C	0.615868	0.996659	0.617726
	C122	C	0.615742	0.013269	0.374172
	C123	C	0.373484	0.996934	0.374170
	C124	C	0.616462	0.383610	0.002741
	C125	C	0.616569	0.627466	0.986269
	C126	C	0.372538	0.627129	0.002591
	C127	C	0.372622	0.383699	0.986383
	C128	C	0.002312	0.627544	0.372666
	C129	C	0.986470	0.626517	0.616198
	C130	C	0.002883	0.384079	0.616979
	C131	C	0.985672	0.384630	0.373679
	C132	C	0.873368	0.514065	0.115847
	C133	C	0.115943	0.497255	0.116907
	C134	C	0.115931	0.513136	0.873590
	C135	C	0.873254	0.496908	0.872787
	C136	C	0.116136	0.883071	0.502034
	C137	C	0.116057	0.126878	0.486590
	C138	C	0.871686	0.128089	0.504175
	C139	C	0.872226	0.883723	0.486620
	C140	C	0.503299	0.127814	0.872883
	C141	C	0.486434	0.126629	0.116543
	C142	C	0.503088	0.883899	0.117720
	C143	C	0.486235	0.885192	0.873745
	C144	C	0.375187	0.890171	0.672668
	C145	C	0.613276	0.120407	0.671608
	C146	C	0.615453	0.890306	0.318429
	C147	C	0.374141	0.119723	0.317130
	C148	C	0.671508	0.386088	0.880244
	C149	C	0.672304	0.624505	0.108903
	C150	C	0.316043	0.625728	0.880510
	C151	C	0.317403	0.384763	0.108722
	C152	C	0.879345	0.683551	0.374291
	C153	C	0.109476	0.681896	0.613327
	C154	C	0.879408	0.328781	0.614255
	C155	C	0.109166	0.329108	0.376480
	C156	C	0.879828	0.385539	0.672532
	C157	C	0.109199	0.625539	0.672430
	C158	C	0.880135	0.628142	0.315272
	C159	C	0.108717	0.386120	0.318326
	C160	C	0.374726	0.683044	0.880152
	C161	C	0.613988	0.681979	0.109215
	C162	C	0.613516	0.328455	0.880149
	C163	C	0.375271	0.327691	0.108649
	C164	C	0.671226	0.889868	0.377332
	C165	C	0.670548	0.120576	0.614068
	C166	C	0.317422	0.890087	0.614881
	C167	C	0.318033	0.120447	0.375906
	C168	C	0.874849	0.390763	0.171866
	C169	C	0.114872	0.620127	0.172540
	C170	C	0.114980	0.390069	0.818185
	C171	C	0.875026	0.620615	0.817346
	C172	C	0.172479	0.885262	0.379977
	C173	C	0.171224	0.123674	0.609272
	C174	C	0.815804	0.126142	0.381620
	C175	C	0.817867	0.885248	0.609394
	C176	C	0.379667	0.182903	0.875581
	C177	C	0.609890	0.181520	0.113186
	C178	C	0.379881	0.828382	0.114352
	C179	C	0.609875	0.830173	0.876857
	C180	C	0.380280	0.884676	0.173263
	C181	C	0.609491	0.125488	0.172393
	C182	C	0.380450	0.126755	0.816839
	C183	C	0.609745	0.886735	0.819111
	C184	C	0.873947	0.183321	0.381245
	C185	C	0.113535	0.181347	0.609191
	C186	C	0.113419	0.828332	0.379444
	C187	C	0.874804	0.826875	0.608683
	C188	C	0.170962	0.389557	0.877116
	C189	C	0.172070	0.620322	0.114381
	C190	C	0.818723	0.390230	0.113128
	C191	C	0.818230	0.620833	0.875144
	C192	C	0.395289	0.099551	0.594171
	C193	C	0.594104	0.910379	0.596250
	C194	C	0.592596	0.099152	0.396233
	C195	C	0.396570	0.910896	0.397023
	C196	C	0.594602	0.405486	0.088165
	C197	C	0.593933	0.605445	0.900996
	C198	C	0.395448	0.604496	0.087864
	C199	C	0.394759	0.406714	0.900853
	C200	C	0.088134	0.604370	0.395394
	C201	C	0.900471	0.603516	0.593748
	C202	C	0.088798	0.406462	0.594737
	C203	C	0.899673	0.407193	0.395345
	C204	C	0.895937	0.599954	0.093420
	C205	C	0.093134	0.411433	0.095206
	C206	C	0.093064	0.599402	0.895357
	C207	C	0.895426	0.410615	0.895213
	C208	C	0.093600	0.905267	0.587503
	C209	C	0.094170	0.105374	0.400777
	C210	C	0.894227	0.105253	0.589456
	C211	C	0.893979	0.907112	0.401316
	C212	C	0.589424	0.105147	0.895183
	C213	C	0.400423	0.103928	0.094522
	C214	C	0.589078	0.906595	0.095753
	C215	C	0.400131	0.907999	0.895763
	Zn216	Zn	0.494641	0.005659	0.745942
	Zn217	Zn	0.495055	0.005168	0.246090
	Zn218	Zn	0.745286	0.505493	-0.005772
	Zn219	Zn	0.244170	0.504987	-0.005083
	Zn220	Zn	-0.006204	0.754938	0.493998
	Zn221	Zn	-0.005847	0.255815	0.494997
	Zn222	Zn	-0.005384	0.505440	0.745321
	Zn223	Zn	-0.006373	0.506073	0.245251
	Zn224	Zn	0.494854	0.756905	-0.005471
	Zn225	Zn	0.494462	0.255196	-0.005327
	Zn226	Zn	0.743648	0.005491	0.495687
	Zn227	Zn	0.244863	0.005281	0.494765
	N228	N	0.408904	0.967983	0.674052
	N229	N	0.579934	0.042497	0.673832
	N230	N	0.581694	0.968133	0.316417
	N231	N	0.408147	0.041853	0.315950
	N232	N	0.673343	0.419675	0.957195
	N233	N	0.674044	0.591527	0.031542
	N234	N	0.314864	0.591586	0.957684
	N235	N	0.315703	0.418694	0.031589
	N236	N	0.956412	0.683098	0.409277
	N237	N	0.031993	0.682654	0.579077
	N238	N	0.956894	0.327589	0.580431
	N239	N	0.031589	0.327825	0.410005
	N240	N	0.957614	0.419291	0.674308
	N241	N	0.031527	0.591937	0.674195
	N242	N	0.957680	0.593954	0.314298
	N243	N	0.030923	0.419840	0.316375
	N244	N	0.408937	0.684257	0.957168
	N245	N	0.580208	0.684164	0.032065
	N246	N	0.579819	0.326942	0.957288
	N247	N	0.408952	0.326821	0.031457
	N248	N	0.671623	0.967397	0.411312
	N249	N	0.672403	0.042572	0.581208
	N250	N	0.315913	0.967762	0.580952
	N251	N	0.317448	0.042975	0.410418
	N252	N	0.908016	0.468737	0.173677
	N253	N	0.080732	0.542613	0.174383
	N254	N	0.081398	0.468167	0.815938
	N255	N	0.908643	0.542715	0.815878
	N256	N	0.174243	0.918351	0.457266
	N257	N	0.172816	0.090596	0.532004
	N258	N	0.814162	0.092345	0.459025
	N259	N	0.815983	0.919846	0.532508
	N260	N	0.457090	0.183822	0.909598
	N261	N	0.532326	0.182456	0.079243
	N262	N	0.457486	0.827658	0.080554
	N263	N	0.532227	0.829096	0.910195
	N264	N	0.457861	0.918393	0.175344
	N265	N	0.531714	0.092126	0.174739
	N266	N	0.458406	0.093206	0.815150
	N267	N	0.531738	0.920054	0.816915
	N268	N	0.907687	0.184728	0.458454
	N269	N	0.079746	0.183247	0.531809
	N270	N	0.079314	0.826732	0.456481
	N271	N	0.907842	0.826113	0.531320
	N272	N	0.171726	0.467143	0.910611
	N273	N	0.173015	0.542826	0.080677
	N274	N	0.817705	0.467820	0.078874
	N275	N	0.816846	0.542997	0.908891
	O276	O	-0.013789	0.013732	0.002528
	H277	H	-0.021293	0.015428	0.006574
	H278	H	-0.014422	0.008767	-0.000020
	O279	O	0.540953	0.531205	0.482441
	H280	H	0.532826	0.527239	0.488110
	H281	H	0.535301	0.540449	0.474725
	O282	O	0.496941	0.514791	0.404989
	H283	H	0.482482	0.507500	0.405334
	H284	H	0.498177	0.500664	0.399926
	O285	O	-0.001383	0.998316	1.012872
	H286	H	-0.004212	0.995219	1.007354
	H287	H	-0.002880	0.998796	1.022079
	O288	O	0.514166	0.605023	0.555405
	H289	H	0.507748	0.607332	0.555283
	H290	H	0.526151	0.603030	0.553872
	O291	O	1.033133	0.983687	1.009255
	H292	H	1.044938	0.976426	1.019806
	H293	H	1.039890	0.984950	1.011661
	O294	O	0.943777	0.973553	1.029372
	H295	H	0.941982	0.969516	1.028268
	H296	H	0.940576	0.975034	1.026429
	O297	O	0.933520	0.014808	0.954018
	H298	H	0.937448	0.011537	0.952570
	H299	H	0.942315	0.022417	0.955424
	O300	O	0.425812	0.519957	0.440495
	H301	H	0.412533	0.528027	0.429449
	H302	H	0.434624	0.524186	0.423381
	O303	O	0.968038	-0.013364	-0.009547
	H304	H	0.970227	-0.018687	0.000880
	H305	H	0.970886	-0.009459	-0.009995
	O306	O	0.023363	1.010084	0.986799
	H307	H	0.021031	1.002683	0.990448
	H308	H	0.025694	1.005801	0.985617
	O309	O	0.603798	0.371403	0.456282
	H310	H	0.607237	0.377183	0.450716
	H311	H	0.616340	0.365208	0.448187
	O312	O	1.053494	0.004311	0.954337
	H313	H	1.045815	0.012582	0.945523
	H314	H	1.049189	0.007901	0.955707
	O315	O	0.445251	0.496424	0.512257
	H316	H	0.437252	0.510162	0.514745
	H317	H	0.449109	0.486298	0.527447
	O318	O	0.463205	0.554616	0.559673
	H319	H	0.461338	0.554636	0.564878
	H320	H	0.462789	0.562015	0.578701
	O321	O	1.057461	1.005915	1.039709
	H322	H	1.063379	0.991977	1.037297
	H323	H	1.063971	1.007332	1.036260
	O324	O	0.503981	0.446666	0.486105
	H325	H	0.509425	0.443701	0.489629
	H326	H	0.504584	0.451867	0.481464
	O327	O	0.510760	0.631881	0.385134
	H328	H	0.512307	0.625660	0.380825
	H329	H	0.503056	0.627985	0.376029
	O330	O	1.000817	0.028478	1.003574
	H331	H	0.988022	0.035993	1.003511
	H332	H	0.989098	0.027829	0.995394
	O333	O	1.013825	1.019552	0.022356
	H334	H	1.015276	1.011026	0.018482
	H335	H	1.013503	1.018359	0.020670
	O336	O	0.432275	0.404894	0.594068
	H337	H	0.437190	0.417543	0.597567
	H338	H	0.444238	0.395788	0.591793
	O339	O	0.527480	0.494592	0.560084
	H340	H	0.531875	0.497074	0.565483
	H341	H	0.537502	0.491867	0.549405
	O342	O	0.037165	0.949571	-0.060007
	H343	H	0.037287	0.953299	-0.052685
	H344	H	0.040491	0.947431	-0.055473
	O345	O	-0.039661	-0.054094	0.004227
	H346	H	-0.044978	-0.046036	0.006965
	H347	H	-0.044613	-0.057782	-0.000614
	O348	O	0.479024	0.453066	0.513073
	H349	H	0.472879	0.445430	0.506445
	H350	H	0.478539	0.461604	0.512616
	O351	O	0.452739	0.517927	0.551341
	H352	H	0.454617	0.521142	0.564722
	H353	H	0.448734	0.526640	0.537808
	O354	O	0.524413	0.416890	0.459658
	H355	H	0.519721	0.410054	0.452196
	H356	H	0.518913	0.422645	0.472914
	O357	O	0.425737	0.521532	0.404757
	H358	H	0.416548	0.521234	0.408926
	H359	H	0.438708	0.512114	0.404128
	O360	O	0.502490	-0.440807	0.461377
	H361	H	0.489639	-0.439167	0.461725
	H362	H	0.503491	-0.446235	0.462219
	O363	O	0.459260	0.578257	0.443495
	H364	H	0.458132	0.575346	0.448913
	H365	H	0.450645	0.567367	0.440642
	O366	O	0.054353	0.014639	0.958515
	H367	H	0.061552	0.023364	0.962447
	H368	H	0.064271	0.016488	0.954025
	O369	O	0.441886	0.434270	0.455485
	H370	H	0.442437	0.436173	0.462817
	H371	H	0.446280	0.436166	0.464581
