data_Molecule from HDF5

_cell_length_a		16.326091
_cell_length_b		16.234271
_cell_length_c		16.347029
_cell_angle_alpha	89.747606
_cell_angle_beta	89.901328
_cell_angle_gamma	89.940806
_symmetry_space_group_name_H-M	'P 1'
_symmetry_Int_Tables_number		1

loop_
	_symmetry_equiv_pos_as_xyz
	x,y,z

loop_
	_atom_site_label
	_atom_site_type_symbol
	_atom_site_fract_x
	_atom_site_fract_y
	_atom_site_fract_z
	H0	H	0.402137	0.836808	0.719192
	H1	H	0.600416	0.164372	0.716406
	H2	H	0.600457	0.836678	0.287797
	H3	H	0.402149	0.163866	0.287814
	H4	H	0.718599	0.402902	0.840073
	H5	H	0.716926	0.599808	0.166343
	H6	H	0.286492	0.601548	0.839972
	H7	H	0.286803	0.400404	0.165517
	H8	H	0.838158	0.716116	0.405129
	H9	H	0.166011	0.713707	0.599158
	H10	H	0.838200	0.285963	0.603076
	H11	H	0.165954	0.287355	0.406964
	H12	H	0.839596	0.401235	0.719794
	H13	H	0.165529	0.598630	0.716234
	H14	H	0.838961	0.600910	0.286766
	H15	H	0.165466	0.402475	0.289032
	H16	H	0.404466	0.715999	0.839661
	H17	H	0.599320	0.714655	0.166473
	H18	H	0.601207	0.288054	0.838918
	H19	H	0.405067	0.286632	0.166199
	H20	H	0.714735	0.835740	0.405886
	H21	H	0.714640	0.164219	0.600114
	H22	H	0.287666	0.835837	0.601399
	H23	H	0.287602	0.164506	0.403798
	H24	H	0.902513	0.337636	0.219747
	H25	H	0.100967	0.664076	0.216933
	H26	H	0.101335	0.336395	0.789341
	H27	H	0.904136	0.664869	0.787538
	H28	H	0.216535	0.902310	0.339316
	H29	H	0.217626	0.098842	0.665138
	H30	H	0.785632	0.101733	0.340444
	H31	H	0.784706	0.899941	0.665778
	H32	H	0.338948	0.216568	0.903605
	H33	H	0.666203	0.213383	0.098660
	H34	H	0.338011	0.785297	0.101844
	H35	H	0.665585	0.787391	0.905679
	H36	H	0.338160	0.900968	0.218087
	H37	H	0.664056	0.099983	0.217722
	H38	H	0.339058	0.101021	0.787083
	H39	H	0.665337	0.902378	0.787928
	H40	H	0.903533	0.215862	0.340383
	H41	H	0.097240	0.211372	0.667058
	H42	H	0.099335	0.788247	0.338992
	H43	H	0.904174	0.785883	0.666089
	H44	H	0.218160	0.336699	0.904501
	H45	H	0.215334	0.664736	0.099830
	H46	H	0.788929	0.336556	0.102596
	H47	H	0.788640	0.665381	0.904946
	H48	H	0.403359	0.117699	0.592634
	H49	H	0.600063	0.882352	0.594576
	H50	H	0.588107	0.115600	0.408464
	H51	H	0.412937	0.884255	0.409654
	H52	H	0.597258	0.406358	0.119237
	H53	H	0.602363	0.595973	0.885441
	H54	H	0.409218	0.591570	0.117011
	H55	H	0.416566	0.417687	0.891959
	H56	H	0.114522	0.589326	0.414428
	H57	H	0.889753	0.588253	0.589058
	H58	H	0.116563	0.412730	0.597710
	H59	H	0.884815	0.401880	0.411640
	H60	H	0.120821	0.402345	0.601279
	H61	H	0.884983	0.589311	0.604887
	H62	H	0.118915	0.591040	0.401394
	H63	H	0.889764	0.413293	0.417392
	H64	H	0.409238	0.592838	0.119052
	H65	H	0.595477	0.588096	0.889645
	H66	H	0.596319	0.407490	0.117931
	H67	H	0.412978	0.397550	0.884363
	H68	H	0.595687	0.116405	0.414320
	H69	H	0.590770	0.883061	0.601464
	H70	H	0.410284	0.117072	0.598846
	H71	H	0.405642	0.882819	0.413129
	H72	H	0.906207	0.617729	0.092616
	H73	H	0.091030	0.385165	0.095521
	H74	H	0.086799	0.615662	0.904857
	H75	H	0.912663	0.385566	0.913545
	H76	H	0.097342	0.914940	0.616411
	H77	H	0.105145	0.091496	0.385363
	H78	H	0.901544	0.093486	0.620558
	H79	H	0.906078	0.902079	0.384620
	H80	H	0.616661	0.086075	0.903686
	H81	H	0.387986	0.097382	0.086396
	H82	H	0.618505	0.905256	0.098925
	H83	H	0.387386	0.911268	0.911711
	H84	H	0.615790	0.906487	0.091035
	H85	H	0.387719	0.084819	0.097184
	H86	H	0.621035	0.101126	0.904078
	H87	H	0.385220	0.909821	0.906790
	H88	H	0.907900	0.086145	0.617272
	H89	H	0.089092	0.086842	0.390253
	H90	H	0.087202	0.904278	0.617201
	H91	H	0.902413	0.914397	0.387194
	H92	H	0.095976	0.615095	0.918198
	H93	H	0.097278	0.383942	0.092847
	H94	H	0.909523	0.618390	0.099067
	H95	H	0.906398	0.383763	0.911504
	H96	H	0.411953	0.114889	0.590798
	H97	H	0.589624	0.886218	0.590318
	H98	H	0.596649	0.118238	0.405189
	H99	H	0.406462	0.881309	0.405586
	H100	H	0.594960	0.406288	0.118701
	H101	H	0.591209	0.599099	0.887147
	H102	H	0.407762	0.591785	0.118685
	H103	H	0.397181	0.412280	0.885021
	H104	H	0.119926	0.601715	0.410359
	H105	H	0.883728	0.602209	0.595270
	H106	H	0.116949	0.402795	0.590840
	H107	H	0.885381	0.412902	0.403330
	H108	H	0.914067	0.615779	0.092737
	H109	H	0.095622	0.382273	0.099607
	H110	H	0.101938	0.619955	0.904527
	H111	H	0.911394	0.383659	0.907313
	H112	H	0.101149	0.901128	0.622199
	H113	H	0.092416	0.103671	0.384678
	H114	H	0.911249	0.096101	0.619016
	H115	H	0.914577	0.910423	0.389178
	H116	H	0.616298	0.093898	0.916929
	H117	H	0.382379	0.099644	0.102016
	H118	H	0.615585	0.912720	0.096804
	H119	H	0.385820	0.906550	0.910929
	C120	C	0.380232	0.008190	0.623543
	C121	C	0.621977	0.991988	0.623553
	C122	C	0.622671	0.008759	0.380944
	C123	C	0.379887	0.991359	0.380891
	C124	C	0.624640	0.378983	0.010961
	C125	C	0.624536	0.622781	0.994967
	C126	C	0.380370	0.621793	0.010820
	C127	C	0.380667	0.379549	0.994765
	C128	C	0.010015	0.623040	0.380476
	C129	C	0.994249	0.621690	0.624004
	C130	C	0.010442	0.377708	0.625598
	C131	C	0.993937	0.379486	0.382076
	C132	C	0.881002	0.509270	0.124479
	C133	C	0.123498	0.492060	0.124226
	C134	C	0.123874	0.508695	0.881008
	C135	C	0.881471	0.492557	0.881622
	C136	C	0.123389	0.879114	0.510834
	C137	C	0.123725	0.121761	0.494523
	C138	C	0.878673	0.121934	0.511348
	C139	C	0.879276	0.879313	0.494757
	C140	C	0.510370	0.123097	0.879481
	C141	C	0.493739	0.122082	0.123550
	C142	C	0.509040	0.878737	0.124637
	C143	C	0.493697	0.880055	0.881310
	C144	C	0.382572	0.885365	0.680134
	C145	C	0.620247	0.115440	0.678421
	C146	C	0.620700	0.885395	0.326094
	C147	C	0.382104	0.114951	0.325829
	C148	C	0.680581	0.381998	0.888613
	C149	C	0.679471	0.620227	0.117516
	C150	C	0.324982	0.620960	0.888508
	C151	C	0.325066	0.380525	0.116953
	C152	C	0.887126	0.678229	0.383968
	C153	C	0.117081	0.676270	0.620197
	C154	C	0.887168	0.323728	0.623217
	C155	C	0.116849	0.324269	0.385371
	C156	C	0.887915	0.380860	0.681306
	C157	C	0.116890	0.619003	0.678538
	C158	C	0.887439	0.621129	0.325018
	C159	C	0.116839	0.381914	0.327077
	C160	C	0.383332	0.677910	0.888423
	C161	C	0.620965	0.677350	0.117696
	C162	C	0.622025	0.325226	0.887913
	C163	C	0.383878	0.323977	0.117349
	C164	C	0.677689	0.884988	0.384465
	C165	C	0.677132	0.115393	0.620911
	C166	C	0.325465	0.884992	0.621851
	C167	C	0.324866	0.115115	0.383299
	C168	C	0.882855	0.386166	0.180998
	C169	C	0.121162	0.615344	0.178890
	C170	C	0.121858	0.385271	0.826802
	C171	C	0.883485	0.615862	0.825690
	C172	C	0.178653	0.881827	0.387958
	C173	C	0.179016	0.119142	0.616901
	C174	C	0.823790	0.121121	0.388953
	C175	C	0.823582	0.880262	0.617310
	C176	C	0.387752	0.178628	0.882969
	C177	C	0.616798	0.176401	0.120170
	C178	C	0.386841	0.822764	0.122425
	C179	C	0.616698	0.824933	0.884501
	C180	C	0.386868	0.880429	0.180224
	C181	C	0.615898	0.119819	0.179156
	C182	C	0.387893	0.121690	0.824552
	C183	C	0.616490	0.881736	0.825717
	C184	C	0.882293	0.178057	0.389025
	C185	C	0.119368	0.174949	0.617806
	C186	C	0.120345	0.825323	0.387756
	C187	C	0.882701	0.823573	0.617305
	C188	C	0.179862	0.385398	0.883900
	C189	C	0.178460	0.615422	0.121062
	C190	C	0.826261	0.385709	0.123068
	C191	C	0.826364	0.616264	0.884142
	C192	C	0.402151	0.094430	0.600701
	C193	C	0.599830	0.906022	0.601906
	C194	C	0.600052	0.094614	0.402838
	C195	C	0.401911	0.905045	0.402978
	C196	C	0.602785	0.400369	0.096547
	C197	C	0.602823	0.600924	0.909574
	C198	C	0.402283	0.598712	0.096232
	C199	C	0.402796	0.402391	0.909322
	C200	C	0.095657	0.600527	0.402187
	C201	C	0.908286	0.599747	0.602618
	C202	C	0.095927	0.399554	0.603173
	C203	C	0.908803	0.402471	0.404226
	C204	C	0.903457	0.595105	0.101445
	C205	C	0.101044	0.405902	0.102458
	C206	C	0.101363	0.594690	0.902863
	C207	C	0.903840	0.406573	0.904143
	C208	C	0.101640	0.900470	0.596340
	C209	C	0.102084	0.100289	0.408818
	C210	C	0.900359	0.098730	0.596923
	C211	C	0.901276	0.902082	0.409215
	C212	C	0.595986	0.100342	0.901680
	C213	C	0.408064	0.100261	0.101622
	C214	C	0.594626	0.901472	0.102118
	C215	C	0.408182	0.902706	0.903194
	Zn216	Zn	0.501972	0.000992	0.751801
	Zn217	Zn	0.501069	0.000521	0.252775
	Zn218	Zn	0.753432	0.500773	0.003502
	Zn219	Zn	0.251438	0.500478	0.002755
	Zn220	Zn	0.002123	0.751216	0.502431
	Zn221	Zn	0.001272	0.249957	0.503575
	Zn222	Zn	0.002992	0.500183	0.752951
	Zn223	Zn	0.002074	0.500746	0.252115
	Zn224	Zn	0.501669	0.750643	0.002892
	Zn225	Zn	0.502378	0.250946	0.001854
	Zn226	Zn	0.750013	0.000511	0.502914
	Zn227	Zn	0.251971	-0.000026	0.502112
	N228	N	0.415639	0.963364	0.681542
	N229	N	0.586752	0.037795	0.680172
	N230	N	0.587382	0.963293	0.323574
	N231	N	0.415601	0.037213	0.324293
	N232	N	0.682281	0.414762	0.966155
	N233	N	0.681885	0.586928	0.040282
	N234	N	0.322781	0.586945	0.965812
	N235	N	0.322941	0.414404	0.039749
	N236	N	0.964260	0.679439	0.417421
	N237	N	0.039835	0.678021	0.586894
	N238	N	0.964277	0.321566	0.589283
	N239	N	0.039648	0.322927	0.419178
	N240	N	0.965624	0.413466	0.683067
	N241	N	0.039536	0.585676	0.680800
	N242	N	0.964902	0.587518	0.322760
	N243	N	0.039351	0.415367	0.324729
	N244	N	0.416985	0.678526	0.965403
	N245	N	0.587579	0.679081	0.040543
	N246	N	0.587823	0.323150	0.964845
	N247	N	0.417643	0.323073	0.040174
	N248	N	0.679324	0.962783	0.417625
	N249	N	0.678521	0.037690	0.587625
	N250	N	0.324134	0.962323	0.587267
	N251	N	0.323395	0.037288	0.416871
	N252	N	0.915929	0.464066	0.182107
	N253	N	0.087908	0.537669	0.180941
	N254	N	0.088108	0.462953	0.824731
	N255	N	0.916892	0.538032	0.824096
	N256	N	0.180645	0.914598	0.465371
	N257	N	0.181843	0.086864	0.539233
	N258	N	0.821564	0.086939	0.465972
	N259	N	0.821407	0.914239	0.539929
	N260	N	0.465273	0.179939	0.916095
	N261	N	0.539955	0.177717	0.085928
	N262	N	0.464047	0.821880	0.088408
	N263	N	0.539449	0.823428	0.918075
	N264	N	0.463794	0.914687	0.181314
	N265	N	0.538195	0.086934	0.181343
	N266	N	0.464930	0.087646	0.822599
	N267	N	0.539051	0.915505	0.823869
	N268	N	0.915857	0.178550	0.466112
	N269	N	0.085750	0.176758	0.540708
	N270	N	0.086785	0.823396	0.464958
	N271	N	0.916500	0.822961	0.540269
	N272	N	0.181086	0.463068	0.916968
	N273	N	0.179866	0.537658	0.087628
	N274	N	0.824904	0.463089	0.088609
	N275	N	0.824738	0.538569	0.917987
	O276	O	0.539803	0.459651	-0.486233
	H277	H	0.549680	0.457101	-0.483843
	H278	H	0.548681	0.461263	-0.490035
	O279	O	0.027708	-0.050574	0.034932
	H280	H	0.023819	-0.057641	0.023945
	H281	H	0.025399	-0.051149	0.028909
	O282	O	-0.031618	-0.021896	0.985593
	H283	H	-0.033628	-0.024774	0.993328
	H284	H	-0.027334	-0.017772	0.982126
	O285	O	0.495890	0.529223	0.534529
	H286	H	0.497059	0.534393	0.549521
	H287	H	0.490845	0.529350	0.539960
	O288	O	0.525721	0.417289	0.500494
	H289	H	0.529771	0.413481	0.499541
	H290	H	0.525356	0.418911	0.498187
	O291	O	0.534618	0.504568	0.493123
	H292	H	0.532337	0.509933	0.494443
	H293	H	0.533943	0.507605	0.490843
	O294	O	-0.036623	0.017589	0.009132
	H295	H	-0.035016	0.021036	0.015043
	H296	H	-0.027742	0.024654	0.008907
	O297	O	0.505098	0.514015	0.514813
	H298	H	0.500201	0.511837	0.516724
	H299	H	0.508804	0.506925	0.516131
	O300	O	0.331281	1.298491	0.716081
	H301	H	0.322745	1.293913	0.717042
	H302	H	0.332775	1.293673	0.712544
	O303	O	0.549821	0.519200	0.563971
	H304	H	0.555419	0.520960	0.567175
	H305	H	0.548645	0.509346	0.561648
	O306	O	-0.032167	0.011972	1.000357
	H307	H	-0.034293	0.003418	0.997397
	H308	H	-0.033204	0.010171	1.008716
	O309	O	1.012024	0.980958	0.995965
	H310	H	1.010695	0.990405	0.999689
	H311	H	1.011720	0.978699	0.999061
	O312	O	0.485209	0.485440	0.486654
	H313	H	0.481847	0.494430	0.488802
	H314	H	0.489850	0.494435	0.484047
	O315	O	0.481724	0.476953	0.615394
	H316	H	0.474210	0.463847	0.624144
	H317	H	0.472990	0.472335	0.609581
	O318	O	0.003469	0.953672	-0.005254
	H319	H	0.012793	0.958016	-0.001044
	H320	H	-0.004849	0.954383	-0.008647
	O321	O	0.981286	0.957424	0.079640
	H322	H	0.979386	0.947545	0.084036
	H323	H	0.979938	0.954638	0.079168
