data_Molecule from HDF5

_cell_length_a		16.428188
_cell_length_b		16.163652
_cell_length_c		16.366658
_cell_angle_alpha	89.901260
_cell_angle_beta	90.040612
_cell_angle_gamma	90.041027
_symmetry_space_group_name_H-M	'P 1'
_symmetry_Int_Tables_number		1

loop_
	_symmetry_equiv_pos_as_xyz
	x,y,z

loop_
	_atom_site_label
	_atom_site_type_symbol
	_atom_site_fract_x
	_atom_site_fract_y
	_atom_site_fract_z
	H0	H	0.401031	0.831780	0.714913
	H1	H	0.600633	0.159050	0.712127
	H2	H	0.601541	0.831616	0.280135
	H3	H	0.398633	0.157923	0.280951
	H4	H	0.718939	0.394851	0.833567
	H5	H	0.723992	0.600778	0.155686
	H6	H	0.283005	0.599575	0.835265
	H7	H	0.282530	0.390811	0.156643
	H8	H	0.839184	0.710005	0.396629
	H9	H	0.162960	0.710467	0.595750
	H10	H	0.839372	0.276382	0.599568
	H11	H	0.162524	0.277791	0.398959
	H12	H	0.841408	0.389901	0.717784
	H13	H	0.162558	0.596502	0.714507
	H14	H	0.841548	0.599137	0.275689
	H15	H	0.161603	0.391182	0.278554
	H16	H	0.404624	0.710817	0.833684
	H17	H	0.602291	0.711336	0.158730
	H18	H	0.601064	0.280875	0.832842
	H19	H	0.404787	0.282023	0.159720
	H20	H	0.715567	0.829874	0.397676
	H21	H	0.719141	0.155890	0.602171
	H22	H	0.284658	0.830694	0.599681
	H23	H	0.282221	0.156518	0.395121
	H24	H	0.899726	0.331834	0.212751
	H25	H	0.104342	0.658429	0.213412
	H26	H	0.104459	0.330953	0.780516
	H27	H	0.902615	0.657638	0.779144
	H28	H	0.220281	0.889480	0.336086
	H29	H	0.219256	0.097132	0.658685
	H30	H	0.781647	0.095247	0.337341
	H31	H	0.780721	0.887586	0.659083
	H32	H	0.340264	0.213075	0.897738
	H33	H	0.665594	0.210323	0.095471
	H34	H	0.340471	0.777593	0.097469
	H35	H	0.663140	0.779896	0.896264
	H36	H	0.340657	0.891808	0.215971
	H37	H	0.662452	0.096885	0.216702
	H38	H	0.340491	0.099914	0.779276
	H39	H	0.661196	0.895074	0.779393
	H40	H	0.899349	0.209926	0.335978
	H41	H	0.098170	0.207516	0.660509
	H42	H	0.098557	0.779331	0.334047
	H43	H	0.902319	0.776377	0.659672
	H44	H	0.219832	0.331620	0.894372
	H45	H	0.219162	0.657642	0.097231
	H46	H	0.785012	0.332263	0.095736
	H47	H	0.785685	0.657916	0.891442
	H48	H	0.408835	0.111756	0.590440
	H49	H	0.589090	0.880248	0.586006
	H50	H	0.592810	0.109926	0.409661
	H51	H	0.409058	0.875435	0.400087
	H52	H	0.593955	0.400863	0.111308
	H53	H	0.591023	0.591498	0.881676
	H54	H	0.411785	0.586630	0.110839
	H55	H	0.416848	0.401198	0.882551
	H56	H	0.114254	0.588415	0.411653
	H57	H	0.890001	0.578997	0.586050
	H58	H	0.115319	0.395589	0.584273
	H59	H	0.884525	0.400920	0.400219
	H60	H	0.111833	0.409507	0.587720
	H61	H	0.885918	0.583195	0.592794
	H62	H	0.113552	0.576929	0.402710
	H63	H	0.886608	0.400674	0.407786
	H64	H	0.407860	0.585613	0.112037
	H65	H	0.599338	0.590885	0.879045
	H66	H	0.599928	0.407278	0.111392
	H67	H	0.403275	0.401443	0.878358
	H68	H	0.591634	0.111181	0.405730
	H69	H	0.594377	0.876346	0.590616
	H70	H	0.410218	0.110321	0.585626
	H71	H	0.415489	0.880483	0.408916
	H72	H	0.914409	0.612393	0.090045
	H73	H	0.093123	0.376139	0.093903
	H74	H	0.085609	0.610435	0.898106
	H75	H	0.912793	0.382301	0.914276
	H76	H	0.088699	0.911125	0.608252
	H77	H	0.089373	0.087192	0.382466
	H78	H	0.904084	0.081015	0.613169
	H79	H	0.903130	0.911747	0.384585
	H80	H	0.619950	0.095371	0.897678
	H81	H	0.386738	0.097238	0.084548
	H82	H	0.617059	0.908924	0.100120
	H83	H	0.387325	0.905413	0.905516
	H84	H	0.618183	0.895071	0.087335
	H85	H	0.391478	0.080309	0.084545
	H86	H	0.613952	0.090310	0.913530
	H87	H	0.386289	0.904131	0.905862
	H88	H	0.911554	0.081924	0.611124
	H89	H	0.096213	0.085208	0.381330
	H90	H	0.087745	0.893967	0.613281
	H91	H	0.913916	0.901961	0.384297
	H92	H	0.090931	0.606731	0.914769
	H93	H	0.085444	0.381114	0.084408
	H94	H	0.915438	0.608590	0.082232
	H95	H	0.902410	0.374521	0.905231
	H96	H	0.405551	0.112175	0.586881
	H97	H	0.587414	0.878177	0.593247
	H98	H	0.589324	0.108893	0.408380
	H99	H	0.404185	0.877983	0.411022
	H100	H	0.592546	0.409009	0.108190
	H101	H	0.595088	0.583280	0.881589
	H102	H	0.410326	0.582842	0.109999
	H103	H	0.409358	0.413433	0.883518
	H104	H	0.118730	0.590233	0.398584
	H105	H	0.888205	0.587528	0.585125
	H106	H	0.118955	0.400538	0.597284
	H107	H	0.887793	0.407246	0.403587
	H108	H	0.907960	0.611838	0.084373
	H109	H	0.098772	0.379352	0.082039
	H110	H	0.102444	0.613888	0.902891
	H111	H	0.916172	0.377612	0.900146
	H112	H	0.102932	0.902950	0.614841
	H113	H	0.091908	0.079356	0.384835
	H114	H	0.908205	0.087829	0.614653
	H115	H	0.900554	0.898148	0.379444
	H116	H	0.614074	0.078397	0.899894
	H117	H	0.384820	0.087881	0.099839
	H118	H	0.610927	0.912240	0.082552
	H119	H	0.386549	0.904236	0.906764
	C120	C	0.378611	0.003384	0.618776
	C121	C	0.621156	0.986141	0.619346
	C122	C	0.621167	0.002237	0.377563
	C123	C	0.378917	0.985700	0.376096
	C124	C	0.624350	0.375388	0.003340
	C125	C	0.625052	0.618454	0.987546
	C126	C	0.380396	0.616374	0.004407
	C127	C	0.380474	0.374438	0.988280
	C128	C	0.009536	0.616500	0.373890
	C129	C	0.993505	0.614649	0.618256
	C130	C	0.008925	0.371615	0.619867
	C131	C	0.992692	0.372463	0.374971
	C132	C	0.881263	0.503689	0.116618
	C133	C	0.122998	0.486608	0.117358
	C134	C	0.123443	0.502786	0.875223
	C135	C	0.881103	0.486088	0.874739
	C136	C	0.122588	0.872216	0.505202
	C137	C	0.121776	0.114329	0.489500
	C138	C	0.877624	0.114629	0.506778
	C139	C	0.877254	0.871913	0.489402
	C140	C	0.509605	0.118585	0.874394
	C141	C	0.494266	0.117790	0.119367
	C142	C	0.509545	0.873928	0.119418
	C143	C	0.493077	0.874957	0.876069
	C144	C	0.380667	0.880508	0.676315
	C145	C	0.620440	0.109475	0.674642
	C146	C	0.620639	0.879921	0.319615
	C147	C	0.379297	0.108654	0.319224
	C148	C	0.680124	0.375844	0.881676
	C149	C	0.683558	0.618808	0.108231
	C150	C	0.322801	0.617594	0.883311
	C151	C	0.322296	0.372896	0.108773
	C152	C	0.888052	0.672830	0.375838
	C153	C	0.114703	0.672279	0.616540
	C154	C	0.887769	0.314900	0.619307
	C155	C	0.114045	0.315960	0.378187
	C156	C	0.889045	0.371253	0.678387
	C157	C	0.114346	0.615509	0.675665
	C158	C	0.889196	0.617233	0.315689
	C159	C	0.113572	0.372194	0.318034
	C160	C	0.382929	0.673332	0.882524
	C161	C	0.623186	0.674038	0.109747
	C162	C	0.621519	0.318898	0.881534
	C163	C	0.383389	0.318709	0.110459
	C164	C	0.677616	0.879101	0.377815
	C165	C	0.679370	0.107937	0.619651
	C166	C	0.322513	0.880068	0.619368
	C167	C	0.321416	0.108113	0.376012
	C168	C	0.880669	0.380866	0.173943
	C169	C	0.123275	0.609305	0.174961
	C170	C	0.122983	0.379766	0.819044
	C171	C	0.882239	0.608691	0.817037
	C172	C	0.180646	0.871153	0.384252
	C173	C	0.179294	0.114952	0.610751
	C174	C	0.820324	0.114897	0.385438
	C175	C	0.820299	0.869846	0.610831
	C176	C	0.388418	0.175021	0.877132
	C177	C	0.616499	0.172776	0.116516
	C178	C	0.388498	0.815896	0.118161
	C179	C	0.614705	0.818777	0.877141
	C180	C	0.388544	0.872666	0.176978
	C181	C	0.615104	0.116557	0.176955
	C182	C	0.388722	0.118777	0.817860
	C183	C	0.613579	0.875880	0.818638
	C184	C	0.879191	0.171584	0.384680
	C185	C	0.119559	0.170628	0.611618
	C186	C	0.119979	0.816449	0.382935
	C187	C	0.880670	0.814396	0.611188
	C188	C	0.180951	0.380353	0.875428
	C189	C	0.180324	0.609183	0.117130
	C190	C	0.823079	0.381247	0.116237
	C191	C	0.824464	0.609118	0.873356
	C192	C	0.401272	0.089090	0.594662
	C193	C	0.597368	0.900471	0.596315
	C194	C	0.598112	0.087724	0.401171
	C195	C	0.402693	0.900193	0.399854
	C196	C	0.602019	0.398814	0.088177
	C197	C	0.601851	0.595267	0.902818
	C198	C	0.403370	0.592035	0.089187
	C199	C	0.403272	0.398318	0.903377
	C200	C	0.093796	0.592225	0.397489
	C201	C	0.909689	0.590101	0.594877
	C202	C	0.093306	0.395095	0.596614
	C203	C	0.908207	0.396101	0.397230
	C204	C	0.905504	0.588776	0.092649
	C205	C	0.099231	0.401131	0.093728
	C206	C	0.099956	0.588243	0.898602
	C207	C	0.903928	0.400448	0.899276
	C208	C	0.099862	0.895684	0.589973
	C209	C	0.099017	0.090931	0.404888
	C210	C	0.901184	0.090697	0.591043
	C211	C	0.899519	0.896713	0.404846
	C212	C	0.594328	0.094926	0.897098
	C213	C	0.409645	0.095116	0.096430
	C214	C	0.593411	0.898244	0.096642
	C215	C	0.408585	0.897895	0.899453
	Zn216	Zn	0.500259	-0.003836	0.746375
	Zn217	Zn	0.500657	-0.004732	0.248750
	Zn218	Zn	0.753629	0.496359	-0.004980
	Zn219	Zn	0.251141	0.495171	-0.003726
	Zn220	Zn	0.000654	0.744342	0.496974
	Zn221	Zn	0.000238	0.242884	0.498077
	Zn222	Zn	0.002195	0.493848	0.748330
	Zn223	Zn	0.001954	0.495043	0.244952
	Zn224	Zn	0.501722	0.745531	-0.002628
	Zn225	Zn	0.502673	0.246920	-0.003569
	Zn226	Zn	0.748565	-0.006737	0.499119
	Zn227	Zn	0.251442	-0.006416	0.497112
	N228	N	0.414646	0.958328	0.676338
	N229	N	0.584815	0.032712	0.674534
	N230	N	0.586263	0.957469	0.319455
	N231	N	0.414263	0.031340	0.318948
	N232	N	0.682069	0.410156	0.958443
	N233	N	0.684899	0.584999	0.031209
	N234	N	0.321040	0.583027	0.960275
	N235	N	0.320487	0.406649	0.031630
	N236	N	0.963971	0.672412	0.411453
	N237	N	0.038778	0.671928	0.581501
	N238	N	0.963309	0.315061	0.583576
	N239	N	0.037679	0.315756	0.412712
	N240	N	0.965532	0.405771	0.678956
	N241	N	0.038002	0.580574	0.676810
	N242	N	0.965747	0.583044	0.314367
	N243	N	0.037055	0.406429	0.315662
	N244	N	0.417822	0.672540	0.958820
	N245	N	0.587650	0.673891	0.033781
	N246	N	0.587505	0.318529	0.958258
	N247	N	0.418881	0.319491	0.034383
	N248	N	0.677765	0.956124	0.413410
	N249	N	0.679754	0.030004	0.585850
	N250	N	0.321105	0.957427	0.584469
	N251	N	0.321162	0.030571	0.410552
	N252	N	0.915670	0.458109	0.174545
	N253	N	0.088152	0.531870	0.174952
	N254	N	0.088103	0.457021	0.818601
	N255	N	0.916574	0.531228	0.818032
	N256	N	0.182329	0.905056	0.461326
	N257	N	0.181153	0.081004	0.533739
	N258	N	0.819088	0.080399	0.462254
	N259	N	0.818082	0.904580	0.534148
	N260	N	0.464698	0.175060	0.911563
	N261	N	0.540423	0.173803	0.081576
	N262	N	0.464683	0.816405	0.083291
	N263	N	0.538652	0.818138	0.912287
	N264	N	0.464594	0.908009	0.178112
	N265	N	0.537970	0.083382	0.179017
	N266	N	0.465285	0.084507	0.816216
	N267	N	0.536938	0.909968	0.817838
	N268	N	0.913652	0.172133	0.461165
	N269	N	0.084368	0.170249	0.535284
	N270	N	0.084487	0.816978	0.458995
	N271	N	0.915543	0.815674	0.534774
	N272	N	0.180968	0.457901	0.910049
	N273	N	0.180520	0.531975	0.082273
	N274	N	0.823299	0.458716	0.081368
	N275	N	0.823454	0.531668	0.908396
	O276	O	0.140449	0.082124	-0.029260
	H277	H	0.143450	0.092330	-0.041278
	H278	H	0.146530	0.081068	-0.016241
	O279	O	0.357926	0.446569	0.441346
	H280	H	0.365089	0.456704	0.442691
	H281	H	0.357255	0.433622	0.455899
	O282	O	0.942883	0.046647	0.035560
	H283	H	0.947733	0.056405	0.041695
	H284	H	0.938799	0.046048	0.032292
	O285	O	-0.182186	1.155276	-0.285808
	H286	H	-0.183927	1.156246	-0.287827
	H287	H	-0.174406	1.166717	-0.275939
	O288	O	0.571926	0.498297	0.636098
	H289	H	0.575741	0.512707	0.630742
	H290	H	0.579796	0.507137	0.633210
	O291	O	0.405529	0.551481	0.459725
	H292	H	0.402348	0.548930	0.466704
	H293	H	0.405249	0.566796	0.450493
	O294	O	0.893402	0.973618	1.113749
	H295	H	0.892903	0.981082	1.120494
	H296	H	0.903144	0.981012	1.108622
	O297	O	-0.099160	-0.006538	-0.106097
	H298	H	-0.106240	-0.008117	-0.105473
	H299	H	-0.094653	-0.012369	-0.098353
	O300	O	0.548435	0.544430	0.527281
	H301	H	0.545458	0.540132	0.514780
	H302	H	0.561387	0.542032	0.522198
	O303	O	-0.000664	1.088761	0.939789
	H304	H	-0.014103	1.086276	0.937002
	H305	H	0.004428	1.108282	0.925377
	O306	O	0.421494	0.484912	0.476431
	H307	H	0.426985	0.490486	0.481216
	H308	H	0.423410	0.486030	0.472089
	O309	O	1.093820	-0.009243	0.042310
	H310	H	1.081796	-0.009067	0.041597
	H311	H	1.089776	-0.022918	0.026418
	O312	O	0.118449	-0.031135	1.060359
	H313	H	0.124165	-0.039783	1.056688
	H314	H	0.135731	-0.020434	1.072149
	O315	O	0.639328	0.430859	0.392254
	H316	H	0.665867	0.423068	0.384249
	H317	H	0.643882	0.431355	0.369220
	O318	O	0.464869	0.412278	0.497040
	H319	H	0.467358	0.409718	0.502957
	H320	H	0.458872	0.419963	0.507501
	O321	O	0.612323	0.383830	0.402824
	H322	H	0.606806	0.375109	0.416853
	H323	H	0.596145	0.382589	0.403238
	O324	O	0.621873	0.465980	0.377940
	H325	H	0.632990	0.445511	0.382310
	H326	H	0.615775	0.458048	0.380924
	O327	O	-0.159733	0.838955	1.127206
	H328	H	-0.160971	0.839081	1.132228
	H329	H	-0.165506	0.832516	1.146323
	O330	O	0.446461	0.533938	0.538708
	H331	H	0.461259	0.528702	0.532556
	H332	H	0.448991	0.530315	0.528302
	O333	O	0.127241	0.926120	0.956321
	H334	H	0.118044	0.922812	0.962304
	H335	H	0.135032	0.915928	0.946286
	O336	O	0.878870	0.827515	1.018405
	H337	H	0.887857	0.834402	1.019796
	H338	H	0.882095	0.816010	1.023269
	O339	O	0.505621	0.355563	0.544304
	H340	H	0.513170	0.351695	0.550891
	H341	H	0.510151	0.363430	0.541208
	O342	O	0.989761	0.105956	-0.113132
	H343	H	0.989357	0.114043	-0.118869
	H344	H	0.965452	0.106948	-0.113553
	O345	O	0.486885	0.604771	0.642355
	H346	H	0.477967	0.600832	0.639929
	H347	H	0.474123	0.598252	0.644251
	O348	O	0.916390	1.080033	1.097746
	H349	H	0.907467	1.068212	1.100574
	H350	H	0.925098	1.089444	1.089491
	O351	O	1.048050	0.896173	0.010286
	H352	H	1.046472	0.892545	0.016980
	H353	H	1.055003	0.906993	0.008753
	O354	O	0.566833	0.478878	0.477783
	H355	H	0.565782	0.486707	0.480921
	H356	H	0.552959	0.485440	0.463604
	O357	O	0.505951	0.447576	0.367327
	H358	H	0.486653	0.444990	0.370093
	H359	H	0.503827	0.455627	0.373888
	O360	O	-0.114855	-0.030852	-0.035523
	H361	H	-0.106634	-0.039895	-0.032663
	H362	H	-0.123425	-0.041534	-0.028892
	O363	O	0.481813	0.512904	0.539653
	H364	H	0.479640	0.517263	0.534833
	H365	H	0.475704	0.520629	0.536291
	O366	O	0.515889	0.521843	0.354063
	H367	H	0.521528	0.520583	0.360382
	H368	H	0.521709	0.527130	0.357435
	O369	O	0.515606	0.593386	0.380983
	H370	H	0.531299	0.588409	0.372244
	H371	H	0.516386	0.600687	0.375141
	O372	O	0.508813	0.487255	0.542206
	H373	H	0.507864	0.482438	0.535427
	H374	H	0.519594	0.484000	0.537728
	O375	O	0.338025	0.539208	0.519642
	H376	H	0.334284	0.531450	0.518282
	H377	H	0.331367	0.545530	0.511718
	O378	O	0.605826	0.650716	0.507631
	H379	H	0.606729	0.645161	0.531563
	H380	H	0.613090	0.656611	0.508025
	O381	O	0.016150	1.015974	1.039031
	H382	H	0.003793	1.022186	1.027666
	H383	H	0.024644	1.010434	1.036459
	O384	O	0.108643	1.048147	0.027884
	H385	H	0.107823	1.036136	0.019139
	H386	H	0.107338	1.058177	0.029586
	O387	O	1.060817	0.102001	1.033412
	H388	H	1.054907	0.089288	1.030515
	H389	H	1.048931	0.095906	1.040779
	O390	O	0.062670	1.097763	0.044553
	H391	H	0.067089	1.102847	0.041153
	H392	H	0.071246	1.108928	0.055262
	O393	O	1.006297	1.009977	-0.028690
	H394	H	1.008074	1.007622	-0.025640
	H395	H	1.003599	1.000087	-0.042219
	O396	O	0.604311	0.423661	0.423958
	H397	H	0.608726	0.429686	0.422469
	H398	H	0.596448	0.400112	0.422302
	O399	O	0.086953	0.853391	0.898661
	H400	H	0.089364	0.853967	0.898344
	H401	H	0.085919	0.852687	0.908024
	O402	O	0.998927	0.907386	1.134645
	H403	H	0.999933	0.905648	1.153611
	H404	H	1.007394	0.923234	1.123119
	O405	O	0.400833	0.513608	0.521294
	H406	H	0.403330	0.509906	0.520013
	H407	H	0.400475	0.512789	0.533957
