data_Molecule from HDF5

_cell_length_a		16.594341
_cell_length_b		16.544593
_cell_length_c		16.661811
_cell_angle_alpha	89.927491
_cell_angle_beta	90.098546
_cell_angle_gamma	89.950721
_symmetry_space_group_name_H-M	'P 1'
_symmetry_Int_Tables_number		1

loop_
	_symmetry_equiv_pos_as_xyz
	x,y,z

loop_
	_atom_site_label
	_atom_site_type_symbol
	_atom_site_fract_x
	_atom_site_fract_y
	_atom_site_fract_z
	H0	H	0.404236	0.874087	0.713825
	H1	H	0.614817	0.186629	0.714567
	H2	H	0.616629	0.874597	0.270831
	H3	H	0.397768	0.182203	0.266208
	H4	H	0.733258	0.421293	0.840272
	H5	H	0.732178	0.634844	0.149111
	H6	H	0.290227	0.632961	0.836749
	H7	H	0.285569	0.422205	0.148089
	H8	H	0.852499	0.750538	0.387038
	H9	H	0.163173	0.752228	0.599414
	H10	H	0.853579	0.309263	0.597281
	H11	H	0.166142	0.309174	0.388630
	H12	H	0.856636	0.419412	0.717944
	H13	H	0.164504	0.635537	0.714901
	H14	H	0.854504	0.637067	0.268795
	H15	H	0.165598	0.424984	0.272034
	H16	H	0.408420	0.747824	0.836407
	H17	H	0.615180	0.751026	0.149494
	H18	H	0.615252	0.307244	0.839357
	H19	H	0.403104	0.306914	0.148310
	H20	H	0.733211	0.874998	0.385369
	H21	H	0.729176	0.187148	0.596866
	H22	H	0.286842	0.874828	0.599979
	H23	H	0.284461	0.184232	0.385088
	H24	H	0.901781	0.375695	0.218748
	H25	H	0.115241	0.687243	0.213084
	H26	H	0.116642	0.372914	0.770903
	H27	H	0.902009	0.683003	0.769728
	H28	H	0.235316	0.919737	0.341427
	H29	H	0.233308	0.138193	0.647622
	H30	H	0.785685	0.137227	0.338871
	H31	H	0.789288	0.926379	0.648877
	H32	H	0.353293	0.253477	0.885897
	H33	H	0.662299	0.254370	0.101903
	H34	H	0.353538	0.809457	0.096665
	H35	H	0.665724	0.809487	0.889002
	H36	H	0.355597	0.921517	0.216186
	H37	H	0.661205	0.139459	0.218754
	H38	H	0.352987	0.136014	0.771337
	H39	H	0.665619	0.926908	0.773499
	H40	H	0.902989	0.253339	0.338457
	H41	H	0.116190	0.253379	0.648239
	H42	H	0.118157	0.804354	0.340835
	H43	H	0.903584	0.807684	0.647672
	H44	H	0.232411	0.373323	0.886717
	H45	H	0.228264	0.687816	0.094906
	H46	H	0.784918	0.375764	0.103877
	H47	H	0.789846	0.684783	0.888667
	H48	H	0.416737	0.143252	0.580513
	H49	H	0.596881	0.918521	0.583214
	H50	H	0.594726	0.138859	0.407444
	H51	H	0.423230	0.919806	0.407178
	H52	H	0.596380	0.443857	0.103626
	H53	H	0.599432	0.621072	0.880683
	H54	H	0.420715	0.623296	0.106565
	H55	H	0.417778	0.439378	0.881223
	H56	H	0.118197	0.612435	0.405168
	H57	H	0.898274	0.616830	0.579528
	H58	H	0.122915	0.437183	0.582323
	H59	H	0.900275	0.444309	0.405992
	H60	H	0.119320	0.443436	0.577011
	H61	H	0.898072	0.614649	0.581070
	H62	H	0.123148	0.619834	0.397204
	H63	H	0.897478	0.443401	0.401907
	H64	H	0.414998	0.619960	0.107178
	H65	H	0.601292	0.618747	0.881776
	H66	H	0.596581	0.441916	0.104048
	H67	H	0.419864	0.447794	0.883923
	H68	H	0.597609	0.141483	0.406100
	H69	H	0.600562	0.918030	0.582472
	H70	H	0.421554	0.143561	0.585915
	H71	H	0.422688	0.919356	0.407159
	H72	H	0.923533	0.638412	0.075481
	H73	H	0.093432	0.418729	0.084863
	H74	H	0.100430	0.641664	0.903978
	H75	H	0.925083	0.415127	0.899828
	H76	H	0.101090	0.948536	0.603338
	H77	H	0.094796	0.110600	0.386237
	H78	H	0.920378	0.118087	0.604152
	H79	H	0.923799	0.946045	0.384655
	H80	H	0.620747	0.115952	0.902026
	H81	H	0.399892	0.117484	0.073498
	H82	H	0.623032	0.939527	0.083619
	H83	H	0.399383	0.942628	0.910392
	H84	H	0.620491	0.940937	0.079590
	H85	H	0.400183	0.109603	0.081051
	H86	H	0.621265	0.122240	0.903849
	H87	H	0.395313	0.944607	0.894664
	H88	H	0.920311	0.120958	0.605062
	H89	H	0.091344	0.122366	0.383914
	H90	H	0.089650	0.942995	0.600311
	H91	H	0.922128	0.935331	0.380476
	H92	H	0.098738	0.641826	0.899999
	H93	H	0.099743	0.419062	0.077647
	H94	H	0.919195	0.642152	0.081047
	H95	H	0.924382	0.419021	0.910364
	H96	H	0.423923	0.140908	0.579872
	H97	H	0.599044	0.916863	0.585808
	H98	H	0.594124	0.140589	0.404335
	H99	H	0.423022	0.919072	0.406797
	H100	H	0.598169	0.442832	0.104351
	H101	H	0.598289	0.619245	0.883655
	H102	H	0.419945	0.617305	0.104055
	H103	H	0.426265	0.440667	0.884089
	H104	H	0.121001	0.623626	0.408067
	H105	H	0.897370	0.616872	0.581935
	H106	H	0.122097	0.445615	0.585300
	H107	H	0.897579	0.440299	0.405381
	H108	H	0.926900	0.639821	0.082543
	H109	H	0.102549	0.415571	0.086508
	H110	H	0.096448	0.641060	0.903324
	H111	H	0.915768	0.414052	0.905904
	H112	H	0.098007	0.936466	0.606922
	H113	H	0.102909	0.118759	0.380372
	H114	H	0.917900	0.119667	0.604710
	H115	H	0.913547	0.943716	0.379986
	H116	H	0.618637	0.118049	0.907763
	H117	H	0.396036	0.119056	0.083032
	H118	H	0.620369	0.943875	0.083685
	H119	H	0.393528	0.929815	0.901910
	C120	C	0.388136	0.039192	0.614575
	C121	C	0.630690	1.021669	0.615214
	C122	C	0.629557	0.038133	0.372594
	C123	C	0.387889	1.021176	0.372447
	C124	C	0.630608	0.408575	0.002344
	C125	C	0.632059	0.651719	0.985036
	C126	C	0.388155	0.651228	0.001960
	C127	C	0.387821	0.408950	0.985258
	C128	C	0.017690	0.651409	0.371226
	C129	C	1.000661	0.649253	0.613572
	C130	C	0.018607	0.408640	0.613985
	C131	C	1.001548	0.409569	0.371937
	C132	C	0.889517	0.537993	0.114108
	C133	C	0.130316	0.521773	0.113944
	C134	C	0.130881	0.537674	0.871118
	C135	C	0.889293	0.519433	0.872510
	C136	C	0.130509	0.908151	0.502142
	C137	C	0.130407	0.151316	0.485117
	C138	C	0.887118	0.152546	0.501753
	C139	C	0.887328	0.908870	0.484081
	C140	C	0.517262	0.151854	0.871517
	C141	C	0.500209	0.150214	0.113916
	C142	C	0.518270	0.908672	0.114189
	C143	C	0.500184	0.908267	0.871537
	C144	C	0.386031	0.921291	0.674240
	C145	C	0.632843	0.139643	0.674444
	C146	C	0.634016	0.921396	0.310997
	C147	C	0.381510	0.136458	0.308319
	C148	C	0.692327	0.404087	0.886540
	C149	C	0.691803	0.653591	0.102483
	C150	C	0.329997	0.651889	0.883728
	C151	C	0.326244	0.404679	0.101450
	C152	C	0.899939	0.711269	0.368570
	C153	C	0.116865	0.711321	0.617271
	C154	C	0.900900	0.348613	0.615987
	C155	C	0.118979	0.349178	0.369978
	C156	C	0.902544	0.403437	0.676073
	C157	C	0.117374	0.653202	0.674715
	C158	C	0.900802	0.654940	0.309615
	C159	C	0.118896	0.406846	0.312004
	C160	C	0.388614	0.709052	0.883785
	C161	C	0.633790	0.711363	0.102647
	C162	C	0.633801	0.347138	0.886241
	C163	C	0.384759	0.347406	0.101822
	C164	C	0.691858	0.921588	0.368542
	C165	C	0.689721	0.139927	0.616034
	C166	C	0.327602	0.921675	0.617527
	C167	C	0.325133	0.137442	0.367253
	C168	C	0.884562	0.422058	0.177451
	C169	C	0.132680	0.639996	0.173158
	C170	C	0.133925	0.419795	0.811496
	C171	C	0.884993	0.636265	0.810685
	C172	C	0.193642	0.902902	0.387205
	C173	C	0.192618	0.155670	0.601200
	C174	C	0.826528	0.155359	0.385080
	C175	C	0.828687	0.907459	0.601924
	C176	C	0.400101	0.212637	0.868605
	C177	C	0.615931	0.213310	0.118987
	C178	C	0.400696	0.848724	0.115718
	C179	C	0.618745	0.849677	0.870593
	C180	C	0.401566	0.904619	0.175085
	C181	C	0.615373	0.156094	0.177166
	C182	C	0.400070	0.154586	0.811060
	C183	C	0.618559	0.907479	0.812958
	C184	C	0.884695	0.213200	0.385061
	C185	C	0.133931	0.212620	0.601458
	C186	C	0.135507	0.845423	0.386932
	C187	C	0.885665	0.848649	0.601206
	C188	C	0.191892	0.420228	0.868939
	C189	C	0.189051	0.640361	0.114419
	C190	C	0.826495	0.422016	0.120263
	C191	C	0.828752	0.637211	0.869404
	C192	C	0.413446	0.121241	0.589345
	C193	C	0.605932	0.939327	0.590739
	C194	C	0.602963	0.119199	0.398433
	C195	C	0.415152	0.940318	0.399612
	C196	C	0.604712	0.435313	0.083085
	C197	C	0.607077	0.626812	0.903354
	C198	C	0.411611	0.626996	0.084378
	C199	C	0.413843	0.434981	0.904225
	C200	C	0.099454	0.626080	0.396292
	C201	C	0.919081	0.623353	0.588085
	C202	C	0.100129	0.434531	0.588767
	C203	C	0.919786	0.435203	0.397058
	C204	C	0.915817	0.619144	0.087152
	C205	C	0.105711	0.439377	0.089782
	C206	C	0.105511	0.620006	0.895650
	C207	C	0.914619	0.437464	0.898099
	C208	C	0.103831	0.934972	0.582568
	C209	C	0.104036	0.124802	0.404543
	C210	C	0.912365	0.127029	0.583356
	C211	C	0.912537	0.934436	0.402896
	C212	C	0.599007	0.126226	0.897197
	C213	C	0.419614	0.122991	0.086853
	C214	C	0.600060	0.934308	0.089377
	C215	C	0.417710	0.932131	0.895325
	Zn216	Zn	0.509103	0.030600	0.743543
	Zn217	Zn	0.508984	0.029085	0.243368
	Zn218	Zn	0.760589	0.529348	-0.006189
	Zn219	Zn	0.258700	0.530342	-0.006947
	Zn220	Zn	0.008533	0.779320	0.492934
	Zn221	Zn	0.009519	0.280794	0.493157
	Zn222	Zn	0.009836	0.528773	0.743342
	Zn223	Zn	0.010369	0.530570	0.242870
	Zn224	Zn	0.510266	0.779942	-0.006423
	Zn225	Zn	0.508614	0.279565	-0.006621
	Zn226	Zn	0.758346	0.030561	0.493320
	Zn227	Zn	0.259209	0.029767	0.493618
	N228	N	0.422929	0.995487	0.672676
	N229	N	0.596822	0.065009	0.674148
	N230	N	0.595698	0.994871	0.313475
	N231	N	0.419978	0.063080	0.311383
	N232	N	0.690720	0.441581	0.960017
	N233	N	0.691028	0.617259	0.028385
	N234	N	0.329341	0.616815	0.958520
	N235	N	0.327762	0.442135	0.027832
	N236	N	0.973710	0.709422	0.406010
	N237	N	0.043211	0.708912	0.579805
	N238	N	0.974232	0.351627	0.578073
	N239	N	0.044806	0.350600	0.406369
	N240	N	0.976707	0.439995	0.675031
	N241	N	0.043777	0.615590	0.672890
	N242	N	0.975246	0.618729	0.310784
	N243	N	0.044641	0.443546	0.312995
	N244	N	0.424009	0.708833	0.958314
	N245	N	0.597417	0.710363	0.028565
	N246	N	0.596165	0.349618	0.959311
	N247	N	0.422237	0.349963	0.028445
	N248	N	0.689404	0.995258	0.406094
	N249	N	0.688598	0.065503	0.579850
	N250	N	0.328692	0.996146	0.581011
	N251	N	0.329047	0.064686	0.406640
	N252	N	0.923114	0.495279	0.173837
	N253	N	0.096881	0.565151	0.173201
	N254	N	0.096845	0.493985	0.812582
	N255	N	0.921575	0.561933	0.812184
	N256	N	0.190552	0.941455	0.459934
	N257	N	0.190485	0.117913	0.527814
	N258	N	0.827818	0.118430	0.458792
	N259	N	0.829382	0.944010	0.527988
	N260	N	0.474132	0.211059	0.905444
	N261	N	0.543141	0.209691	0.080233
	N262	N	0.474418	0.851014	0.078561
	N263	N	0.544131	0.849845	0.906237
	N264	N	0.475752	0.941039	0.174364
	N265	N	0.542296	0.117450	0.174158
	N266	N	0.473987	0.117481	0.812869
	N267	N	0.543863	0.943121	0.813171
	N268	N	0.921638	0.211404	0.458652
	N269	N	0.096107	0.210222	0.528237
	N270	N	0.096895	0.848629	0.459439
	N271	N	0.921259	0.849076	0.526839
	N272	N	0.190206	0.494740	0.905277
	N273	N	0.188024	0.565808	0.078485
	N274	N	0.829562	0.495205	0.081394
	N275	N	0.830902	0.563393	0.907226
	O276	O	0.066315	0.972563	0.228176
	H277	H	0.061421	0.953526	0.229996
	H278	H	0.071591	0.980178	0.217339
	O279	O	-0.205532	0.247893	0.208109
	H280	H	-0.202409	0.245615	0.209336
	H281	H	-0.217588	0.258340	0.225080
	O282	O	1.070327	0.097831	0.774042
	H283	H	1.039879	0.108236	0.775104
	H284	H	1.046004	0.095834	0.763936
	O285	O	0.226328	0.243445	1.015060
	H286	H	0.222003	0.263833	1.009712
	H287	H	0.220430	0.257885	1.008269
	O288	O	0.434986	0.664976	0.697552
	H289	H	0.451573	0.651367	0.689519
	H290	H	0.438494	0.654959	0.682343
	O291	O	-0.370648	0.375630	0.518918
	H292	H	-0.381932	0.392574	0.515927
	H293	H	-0.379521	0.389267	0.496449
	O294	O	1.229168	-0.191470	0.955459
	H295	H	1.263222	-0.227812	0.948210
	H296	H	1.216507	-0.182213	0.910669
	O297	O	0.450437	0.473244	0.347479
	H298	H	0.443151	0.499205	0.358239
	H299	H	0.469612	0.486221	0.350306
	O300	O	-0.470412	-0.533271	0.480000
	H301	H	-0.489607	-0.523724	0.479972
	H302	H	-0.468159	-0.530085	0.487025
	O303	O	0.670722	0.374222	0.324840
	H304	H	0.664187	0.385888	0.313523
	H305	H	0.653535	0.375053	0.341890
	O306	O	0.139275	0.238122	0.882848
	H307	H	0.124332	0.225197	0.876226
	H308	H	0.113495	0.231652	0.898743
	O309	O	0.710906	0.460036	0.598764
	H310	H	0.699780	0.467925	0.595010
	H311	H	0.696791	0.470559	0.590672
	O312	O	0.470061	0.548903	0.666724
	H313	H	0.488645	0.536584	0.673505
	H314	H	0.478581	0.533201	0.660291
	O315	O	1.727011	0.315407	1.464509
	H316	H	1.740210	0.300699	1.443933
	H317	H	1.737775	0.316132	1.473584
	O318	O	0.705560	0.723922	0.384830
	H319	H	0.705021	0.705060	0.405434
	H320	H	0.726434	0.750399	0.373654
	O321	O	-0.049988	0.936385	0.799853
	H322	H	-0.039178	0.916596	0.790145
	H323	H	-0.064333	0.942272	0.800410
	O324	O	1.226915	0.996433	0.129135
	H325	H	1.233287	1.010299	0.117205
	H326	H	1.235477	0.987803	0.116589
	O327	O	0.209329	0.234441	1.191819
	H328	H	0.226818	0.226941	1.198821
	H329	H	0.213931	0.224080	1.167807
	O330	O	0.300289	0.570877	0.348726
	H331	H	0.281142	0.573575	0.333135
	H332	H	0.295123	0.580814	0.359799
	O333	O	0.315131	0.336526	0.687937
	H334	H	0.300044	0.327869	0.694980
	H335	H	0.305511	0.350418	0.659245
	O336	O	0.416106	0.407577	0.427712
	H337	H	0.415336	0.405339	0.397864
	H338	H	0.435835	0.412069	0.427322
	O339	O	0.789121	0.248965	0.964019
	H340	H	0.789304	0.251106	0.970969
	H341	H	0.774330	0.262473	0.976301
	O342	O	-0.206176	0.011948	0.200439
	H343	H	-0.224116	0.016586	0.214488
	H344	H	-0.171906	0.020042	0.204966
	O345	O	-0.191775	0.911771	0.791181
	H346	H	-0.180895	0.931828	0.819509
	H347	H	-0.187982	0.928247	0.785672
	O348	O	0.801178	0.018272	0.949834
	H349	H	0.806562	0.012877	0.968118
	H350	H	0.794050	0.018618	0.967719
	O351	O	0.372886	0.439507	0.658901
	H352	H	0.370319	0.443145	0.683412
	H353	H	0.374943	0.423342	0.663580
	O354	O	-0.276303	-0.256314	0.585692
	H355	H	-0.268373	-0.255775	0.610461
	H356	H	-0.266507	-0.239177	0.603795
	O357	O	0.337008	0.507307	0.435890
	H358	H	0.341975	0.508567	0.443242
	H359	H	0.335278	0.515340	0.438835
	O360	O	0.558141	-0.358781	1.296169
	H361	H	0.558422	-0.363868	1.314737
	H362	H	0.562825	-0.340587	1.289412
	O363	O	0.024488	-0.187281	-0.219953
	H364	H	0.040133	-0.207313	-0.225851
	H365	H	0.059819	-0.187645	-0.217637
	O366	O	0.301741	0.734505	0.286313
	H367	H	0.325282	0.739830	0.276118
	H368	H	0.291517	0.751582	0.278117
	O369	O	0.717617	0.500303	0.292009
	H370	H	0.713807	0.508241	0.302009
	H371	H	0.729141	0.503231	0.295593
	O372	O	0.802550	0.833389	0.200477
	H373	H	0.830517	0.847887	0.207511
	H374	H	0.814039	0.853317	0.190829
	O375	O	1.219042	-0.000746	-0.218538
	H376	H	1.221403	0.018686	-0.220448
	H377	H	1.211269	0.021717	-0.227827
	O378	O	0.534321	0.709985	0.696494
	H379	H	0.537122	0.708853	0.702946
	H380	H	0.533860	0.715250	0.693968
	O381	O	0.831546	0.200924	0.798632
	H382	H	0.814593	0.213176	0.776411
	H383	H	0.834677	0.215448	0.805581
	O384	O	0.503954	0.320998	1.323563
	H385	H	0.504219	0.326061	1.320146
	H386	H	0.498243	0.323557	1.307084
	O387	O	1.004293	0.951760	0.088109
	H388	H	1.000069	0.957196	0.091205
	H389	H	1.002910	0.948402	0.077461
	O390	O	0.341669	0.485477	0.575793
	H391	H	0.340582	0.472384	0.572402
	H392	H	0.338968	0.478684	0.578349
	O393	O	0.629842	0.360717	0.731751
	H394	H	0.612171	0.347964	0.741434
	H395	H	0.628338	0.354927	0.728612
	O396	O	-0.019718	0.812367	1.217171
	H397	H	-0.011029	0.808243	1.194140
	H398	H	-0.015628	0.785285	1.236648
	O399	O	0.124086	0.088662	1.166450
	H400	H	0.138050	0.092833	1.172693
	H401	H	0.131798	0.073200	1.165690
	O402	O	0.300987	0.770171	0.667708
	H403	H	0.302296	0.789040	0.655074
	H404	H	0.322066	0.756779	0.631801
	O405	O	1.330243	-0.454852	1.444747
	H406	H	1.338429	-0.454550	1.455504
	H407	H	1.321295	-0.435430	1.442566
	O408	O	-0.464738	-0.542257	-0.620213
	H409	H	-0.460958	-0.536529	-0.627405
	H410	H	-0.469553	-0.540671	-0.631122
	O411	O	-0.067897	0.176176	0.865877
	H412	H	-0.091802	0.187597	0.873283
	H413	H	-0.079576	0.174609	0.877679
	O414	O	0.489548	0.353456	0.669362
	H415	H	0.465822	0.350282	0.668907
	H416	H	0.485125	0.344430	0.674610
	O417	O	-0.092128	0.245149	0.080910
	H418	H	-0.097853	0.248289	0.102724
	H419	H	-0.092640	0.240121	0.093926
	O420	O	0.487734	0.754524	0.489381
	H421	H	0.498042	0.760572	0.486051
	H422	H	0.486746	0.759828	0.487934
	O423	O	0.195626	-0.154608	1.187475
	H424	H	0.183057	-0.138011	1.187229
	H425	H	0.186532	-0.141923	1.152945
	O426	O	0.411367	0.655509	0.275937
	H427	H	0.406806	0.659244	0.267192
	H428	H	0.423090	0.677290	0.283076
	O429	O	0.752990	0.769935	0.736306
	H430	H	0.780743	0.794874	0.766079
	H431	H	0.723463	0.780009	0.747346
	O432	O	0.504416	0.598521	0.505861
	H433	H	0.500838	0.592600	0.519109
	H434	H	0.503699	0.608643	0.510570
	O435	O	-0.151416	1.084679	0.044532
	H436	H	-0.159055	1.098350	0.035497
	H437	H	-0.139991	1.088418	0.059654
	O438	O	0.015480	-0.062932	0.031185
	H439	H	0.037879	-0.072757	0.017191
	H440	H	-0.014661	-0.063717	0.030924
	O441	O	0.216582	-0.928756	-0.006985
	H442	H	0.201938	-0.935329	-0.016238
	H443	H	0.218723	-0.920454	-0.004160
	O444	O	0.730635	0.553687	-0.287975
	H445	H	0.732835	0.580156	-0.293505
	H446	H	0.755775	0.564387	-0.271285
	O447	O	0.527903	0.354646	0.557720
	H448	H	0.521095	0.350583	0.551946
	H449	H	0.533687	0.366226	0.551250
	O450	O	0.162478	0.787917	0.820257
	H451	H	0.162204	0.780827	0.809591
	H452	H	0.175624	0.795309	0.810008
	O453	O	0.295683	0.315914	0.522118
	H454	H	0.304994	0.297127	0.507904
	H455	H	0.291347	0.305179	0.515289
	O456	O	0.691214	0.555528	0.432642
	H457	H	0.690399	0.573183	0.435923
	H458	H	0.689170	0.552337	0.455461
	O459	O	0.885894	1.028376	-0.175389
	H460	H	0.875896	1.027293	-0.164599
	H461	H	0.870299	1.048994	-0.185032
	O462	O	0.981482	0.047983	-0.003939
	H463	H	0.974133	0.061953	-0.008872
	H464	H	0.974714	0.049090	-0.005935
	O465	O	0.789216	-0.189508	0.024759
	H466	H	0.780546	-0.205756	0.034600
	H467	H	0.778234	-0.192533	0.044345
	O468	O	0.120802	1.039877	-0.060204
	H469	H	0.122263	1.042621	-0.066272
	H470	H	0.110889	1.037174	-0.074003
	O471	O	0.938089	0.058561	1.187392
	H472	H	0.961141	0.066511	1.178213
	H473	H	0.949737	0.062645	1.185759
	O474	O	0.007224	1.017283	-0.027001
	H475	H	0.021077	1.032432	-0.015962
	H476	H	-0.002169	1.024231	-0.029762
	O477	O	1.130792	0.821731	1.895540
	H478	H	1.132882	0.855895	1.889816
	H479	H	1.155190	0.806342	1.871884
	O480	O	0.636541	0.691045	0.417532
	H481	H	0.636214	0.701287	0.428027
	H482	H	0.655631	0.697396	0.421221
	O483	O	0.321715	0.718378	0.465704
	H484	H	0.327560	0.709823	0.443545
	H485	H	0.298461	0.724698	0.460528
	O486	O	0.987185	0.246131	0.779112
	H487	H	0.969827	0.257557	0.772477
	H488	H	0.970733	0.255643	0.775190
	O489	O	1.038895	1.251619	0.213744
	H490	H	1.064559	1.254930	0.221925
	H491	H	1.061503	1.263023	0.232348
