data_Molecule from HDF5

_cell_length_a		16.423840
_cell_length_b		16.628807
_cell_length_c		16.494556
_cell_angle_alpha	90.185147
_cell_angle_beta	90.008363
_cell_angle_gamma	89.954888
_symmetry_space_group_name_H-M	'P 1'
_symmetry_Int_Tables_number		1

loop_
	_symmetry_equiv_pos_as_xyz
	x,y,z

loop_
	_atom_site_label
	_atom_site_type_symbol
	_atom_site_fract_x
	_atom_site_fract_y
	_atom_site_fract_z
	H0	H	0.394998	0.847077	0.731628
	H1	H	0.612262	0.155322	0.733382
	H2	H	0.612998	0.845869	0.282563
	H3	H	0.397073	0.157515	0.285110
	H4	H	0.724687	0.396297	0.850920
	H5	H	0.726151	0.609108	0.165297
	H6	H	0.281115	0.607727	0.850690
	H7	H	0.280376	0.395639	0.164370
	H8	H	0.848025	0.727595	0.398152
	H9	H	0.161660	0.724560	0.614964
	H10	H	0.846650	0.281166	0.614015
	H11	H	0.160483	0.279908	0.400594
	H12	H	0.844714	0.399246	0.726945
	H13	H	0.161379	0.608732	0.730227
	H14	H	0.846815	0.610309	0.284496
	H15	H	0.161566	0.397391	0.286213
	H16	H	0.393190	0.726708	0.853094
	H17	H	0.613797	0.727224	0.163186
	H18	H	0.610723	0.278717	0.851409
	H19	H	0.393280	0.277081	0.162564
	H20	H	0.727724	0.845737	0.399850
	H21	H	0.727787	0.157100	0.615003
	H22	H	0.279033	0.846973	0.614521
	H23	H	0.281364	0.158206	0.402088
	H24	H	0.898656	0.346808	0.229447
	H25	H	0.111635	0.657343	0.232135
	H26	H	0.108274	0.345728	0.785309
	H27	H	0.899868	0.659844	0.788673
	H28	H	0.224786	0.898232	0.349756
	H29	H	0.222415	0.104172	0.666359
	H30	H	0.784755	0.105358	0.349054
	H31	H	0.784409	0.899361	0.664668
	H32	H	0.345579	0.223221	0.900556
	H33	H	0.659682	0.224177	0.113541
	H34	H	0.345374	0.779768	0.114198
	H35	H	0.661078	0.780012	0.901824
	H36	H	0.343910	0.899481	0.226198
	H37	H	0.661487	0.106871	0.227892
	H38	H	0.344817	0.104635	0.786965
	H39	H	0.661289	0.896655	0.786596
	H40	H	0.897604	0.224364	0.350744
	H41	H	0.110201	0.223917	0.665265
	H42	H	0.113779	0.777668	0.351126
	H43	H	0.898355	0.781668	0.664335
	H44	H	0.224575	0.345403	0.902317
	H45	H	0.226289	0.658307	0.113572
	H46	H	0.783871	0.345547	0.111283
	H47	H	0.782896	0.659282	0.905341
	H48	H	0.419337	0.111843	0.599132
	H49	H	0.589657	0.892745	0.593818
	H50	H	0.597872	0.115587	0.414554
	H51	H	0.419170	0.890735	0.412796
	H52	H	0.591739	0.415918	0.119770
	H53	H	0.587943	0.585262	0.898941
	H54	H	0.413829	0.592537	0.120901
	H55	H	0.416601	0.408555	0.894369
	H56	H	0.114424	0.582542	0.417323
	H57	H	0.890990	0.594557	0.596963
	H58	H	0.114430	0.414353	0.590174
	H59	H	0.889624	0.412555	0.417871
	H60	H	0.116270	0.418558	0.600205
	H61	H	0.890656	0.592613	0.594379
	H62	H	0.119057	0.595781	0.417790
	H63	H	0.891004	0.412062	0.420310
	H64	H	0.415175	0.586689	0.118291
	H65	H	0.588231	0.594309	0.895674
	H66	H	0.588499	0.410805	0.119088
	H67	H	0.411643	0.413640	0.894856
	H68	H	0.588071	0.112186	0.414653
	H69	H	0.595851	0.890085	0.592957
	H70	H	0.416941	0.110533	0.591887
	H71	H	0.417370	0.892833	0.423507
	H72	H	0.918763	0.613181	0.096544
	H73	H	0.092501	0.392149	0.091827
	H74	H	0.095682	0.615422	0.919821
	H75	H	0.917917	0.392232	0.917692
	H76	H	0.093898	0.919593	0.618006
	H77	H	0.088943	0.092436	0.395309
	H78	H	0.917699	0.094714	0.620338
	H79	H	0.913736	0.919067	0.395137
	H80	H	0.619795	0.100119	0.918104
	H81	H	0.389124	0.094081	0.094947
	H82	H	0.612501	0.915689	0.086865
	H83	H	0.388960	0.912564	0.917152
	H84	H	0.616272	0.918004	0.102006
	H85	H	0.391712	0.087887	0.092095
	H86	H	0.611384	0.087746	0.929660
	H87	H	0.391105	0.910480	0.922888
	H88	H	0.913905	0.092206	0.621177
	H89	H	0.093515	0.094638	0.393405
	H90	H	0.083908	0.911461	0.617718
	H91	H	0.924028	0.913470	0.397814
	H92	H	0.090427	0.614148	0.915341
	H93	H	0.094548	0.389154	0.098198
	H94	H	0.912335	0.613385	0.093581
	H95	H	0.909963	0.389808	0.920069
	H96	H	0.411977	0.113458	0.597290
	H97	H	0.592395	0.889180	0.599057
	H98	H	0.593885	0.111319	0.423184
	H99	H	0.409380	0.888668	0.417467
	H100	H	0.593908	0.410672	0.122137
	H101	H	0.596560	0.589461	0.894938
	H102	H	0.420031	0.591391	0.118580
	H103	H	0.418032	0.414346	0.897270
	H104	H	0.112809	0.590428	0.428974
	H105	H	0.890488	0.591740	0.597244
	H106	H	0.120011	0.408546	0.598027
	H107	H	0.890985	0.414249	0.419028
	H108	H	0.913206	0.615545	0.100459
	H109	H	0.088379	0.392682	0.097385
	H110	H	0.090049	0.611462	0.921925
	H111	H	0.912813	0.388452	0.912061
	H112	H	0.095455	0.907798	0.623317
	H113	H	0.093918	0.089709	0.395251
	H114	H	0.917134	0.090520	0.618188
	H115	H	0.915051	0.907326	0.391732
	H116	H	0.616879	0.082681	0.912112
	H117	H	0.389744	0.088242	0.098679
	H118	H	0.618727	0.904526	0.095094
	H119	H	0.392285	0.916386	0.921057
	C120	C	0.382448	0.009584	0.628987
	C121	C	0.626102	0.993065	0.629085
	C122	C	0.626206	0.009980	0.384669
	C123	C	0.382234	0.993709	0.385978
	C124	C	0.624433	0.379859	0.016646
	C125	C	0.624732	0.623220	0.999681
	C126	C	0.382648	0.622785	0.015946
	C127	C	0.381886	0.379983	0.998910
	C128	C	0.012181	0.623598	0.387143
	C129	C	0.995368	0.624476	0.628762
	C130	C	0.012137	0.381844	0.628272
	C131	C	0.994721	0.380700	0.386064
	C132	C	0.882579	0.510873	0.129104
	C133	C	0.125101	0.494318	0.129057
	C134	C	0.124659	0.510690	0.885948
	C135	C	0.881641	0.493896	0.885721
	C136	C	0.124929	0.880487	0.515711
	C137	C	0.124976	0.123986	0.499098
	C138	C	0.883327	0.123855	0.515957
	C139	C	0.884046	0.881307	0.498485
	C140	C	0.511817	0.122413	0.886261
	C141	C	0.494529	0.122505	0.128249
	C142	C	0.511592	0.880456	0.128126
	C143	C	0.494789	0.880401	0.887123
	C144	C	0.377942	0.893165	0.690355
	C145	C	0.629916	0.109298	0.691972
	C146	C	0.630175	0.892872	0.323250
	C147	C	0.379302	0.110846	0.325645
	C148	C	0.685019	0.377601	0.898515
	C149	C	0.686212	0.626839	0.117595
	C150	C	0.321269	0.626021	0.898094
	C151	C	0.320674	0.377527	0.117100
	C152	C	0.894714	0.686163	0.381726
	C153	C	0.114049	0.684679	0.632468
	C154	C	0.893770	0.321665	0.631342
	C155	C	0.113450	0.320281	0.382705
	C156	C	0.892867	0.380574	0.687686
	C157	C	0.114034	0.626963	0.689844
	C158	C	0.894170	0.627454	0.325207
	C159	C	0.113650	0.378659	0.325818
	C160	C	0.377290	0.685085	0.899188
	C161	C	0.630092	0.685998	0.116612
	C162	C	0.628181	0.318972	0.898796
	C163	C	0.376969	0.318456	0.116101
	C164	C	0.687634	0.892939	0.381745
	C165	C	0.687569	0.109933	0.633352
	C166	C	0.320109	0.893335	0.632326
	C167	C	0.321375	0.110956	0.383796
	C168	C	0.880447	0.393498	0.189100
	C169	C	0.129057	0.610923	0.190956
	C170	C	0.126733	0.392839	0.825496
	C171	C	0.880835	0.612630	0.827897
	C172	C	0.185357	0.878831	0.397170
	C173	C	0.183786	0.123992	0.618447
	C174	C	0.823847	0.124518	0.396781
	C175	C	0.823925	0.880153	0.617271
	C176	C	0.393103	0.182823	0.882945
	C177	C	0.612813	0.183363	0.131310
	C178	C	0.392749	0.820331	0.131575
	C179	C	0.613740	0.820270	0.884060
	C180	C	0.391986	0.879805	0.187490
	C181	C	0.613767	0.124914	0.187964
	C182	C	0.392805	0.124028	0.826095
	C183	C	0.613935	0.878256	0.826805
	C184	C	0.879899	0.183844	0.397644
	C185	C	0.127792	0.183488	0.617898
	C186	C	0.130100	0.818837	0.398229
	C187	C	0.880728	0.821705	0.617002
	C188	C	0.184419	0.392399	0.883861
	C189	C	0.185839	0.611412	0.131669
	C190	C	0.823248	0.392924	0.130376
	C191	C	0.822723	0.612320	0.885953
	C192	C	0.408772	0.090844	0.603369
	C193	C	0.600097	0.911972	0.602545
	C194	C	0.600516	0.091785	0.410164
	C195	C	0.407997	0.911992	0.410976
	C196	C	0.598742	0.405162	0.098995
	C197	C	0.598394	0.597061	0.917889
	C198	C	0.408723	0.597262	0.097864
	C199	C	0.407929	0.405168	0.916877
	C200	C	0.094033	0.597114	0.413817
	C201	C	0.912319	0.599826	0.603458
	C202	C	0.095362	0.406672	0.603104
	C203	C	0.912013	0.405704	0.411710
	C204	C	0.907857	0.592949	0.103991
	C205	C	0.099148	0.412642	0.103199
	C206	C	0.099427	0.592188	0.911672
	C207	C	0.906407	0.411645	0.909434
	C208	C	0.098811	0.905791	0.597930
	C209	C	0.099471	0.099408	0.416197
	C210	C	0.908786	0.099525	0.598572
	C211	C	0.910066	0.906179	0.416260
	C212	C	0.594664	0.097377	0.912430
	C213	C	0.411806	0.097301	0.102660
	C214	C	0.594254	0.905438	0.102140
	C215	C	0.412396	0.905722	0.912891
	Zn216	Zn	0.503399	0.000819	0.758313
	Zn217	Zn	0.503478	0.001659	0.256697
	Zn218	Zn	0.752861	0.502234	0.008039
	Zn219	Zn	0.253960	0.501920	0.007105
	Zn220	Zn	0.004103	0.752089	0.507464
	Zn221	Zn	0.003778	0.252762	0.508014
	Zn222	Zn	0.003335	0.503007	0.756463
	Zn223	Zn	0.003986	0.502908	0.258639
	Zn224	Zn	0.503390	0.751696	0.007565
	Zn225	Zn	0.502841	0.251227	0.007400
	Zn226	Zn	0.755154	0.002197	0.506904
	Zn227	Zn	0.252959	0.001982	0.507555
	N228	N	0.416100	0.966576	0.688350
	N229	N	0.592468	0.035502	0.689715
	N230	N	0.592776	0.966851	0.324793
	N231	N	0.416504	0.036856	0.326789
	N232	N	0.682791	0.414951	0.972821
	N233	N	0.682764	0.588087	0.044064
	N234	N	0.324438	0.587845	0.971628
	N235	N	0.323542	0.415260	0.043195
	N236	N	0.969123	0.683794	0.419515
	N237	N	0.039100	0.683316	0.595296
	N238	N	0.969149	0.322396	0.595211
	N239	N	0.038374	0.321206	0.419355
	N240	N	0.967782	0.417225	0.686073
	N241	N	0.039146	0.590160	0.687751
	N242	N	0.968309	0.589160	0.328481
	N243	N	0.038807	0.415576	0.327765
	N244	N	0.414796	0.683375	0.973633
	N245	N	0.592297	0.683752	0.042376
	N246	N	0.591006	0.320389	0.973328
	N247	N	0.414265	0.319826	0.041614
	N248	N	0.685385	0.966906	0.419192
	N249	N	0.685311	0.036662	0.594902
	N250	N	0.323038	0.966769	0.594624
	N251	N	0.323122	0.037108	0.420586
	N252	N	0.916362	0.467982	0.188528
	N253	N	0.092078	0.537022	0.189395
	N254	N	0.090525	0.467245	0.826555
	N255	N	0.916726	0.537864	0.827565
	N256	N	0.182437	0.916316	0.471365
	N257	N	0.182260	0.087848	0.543382
	N258	N	0.825800	0.087930	0.471250
	N259	N	0.825656	0.916349	0.542509
	N260	N	0.468274	0.182015	0.919552
	N261	N	0.537803	0.181953	0.094699
	N262	N	0.468198	0.820665	0.095480
	N263	N	0.538577	0.821128	0.920563
	N264	N	0.467076	0.916150	0.185743
	N265	N	0.539143	0.087803	0.186344
	N266	N	0.467795	0.087446	0.828048
	N267	N	0.539021	0.914801	0.828398
	N268	N	0.916052	0.183578	0.472711
	N269	N	0.092055	0.183702	0.542489
	N270	N	0.093450	0.819567	0.473164
	N271	N	0.917124	0.822149	0.542025
	N272	N	0.183572	0.466762	0.920556
	N273	N	0.183570	0.537653	0.093923
	N274	N	0.824217	0.467087	0.093994
	N275	N	0.822788	0.537543	0.920755
	O276	O	0.351971	0.591816	0.605008
	H277	H	0.364514	0.592779	0.608747
	H278	H	0.352560	0.594142	0.606276
	O279	O	0.703896	0.504179	0.471381
	H280	H	0.701198	0.502013	0.480186
	H281	H	0.697001	0.509900	0.477490
	O282	O	1.057206	1.164893	0.075189
	H283	H	1.041523	1.172622	0.077093
	H284	H	1.040597	1.165591	0.088245
	O285	O	0.310157	0.697945	0.311103
	H286	H	0.319151	0.705586	0.343847
	H287	H	0.319667	0.689788	0.307257
	O288	O	-0.096479	0.014679	-0.042032
	H289	H	-0.110872	0.030738	-0.048090
	H290	H	-0.092448	0.009169	-0.038026
	O291	O	1.078979	1.163589	-0.014846
	H292	H	1.071159	1.167680	-0.000984
	H293	H	1.087246	1.159441	-0.011703
	O294	O	-0.448273	1.276799	-0.448095
	H295	H	-0.468476	1.283897	-0.460930
	H296	H	-0.425156	1.269293	-0.462791
	O297	O	0.722104	0.543067	0.726824
	H298	H	0.704904	0.510546	0.716244
	H299	H	0.752582	0.545200	0.759162
	O300	O	0.484878	0.507981	0.295668
	H301	H	0.475988	0.495526	0.289923
	H302	H	0.473541	0.517368	0.306283
	O303	O	0.303855	0.528277	0.447221
	H304	H	0.292452	0.531666	0.438703
	H305	H	0.302561	0.545922	0.463494
	O306	O	0.034897	0.857019	0.802705
	H307	H	0.039939	0.849103	0.799161
	H308	H	0.055658	0.852898	0.802351
	O309	O	0.674434	0.379662	0.503667
	H310	H	0.698993	0.359726	0.503416
	H311	H	0.669946	0.404049	0.500744
	O312	O	0.524283	0.289504	0.296006
	H313	H	0.533110	0.272719	0.286289
	H314	H	0.532137	0.299887	0.290234
	O315	O	-0.281571	0.720760	0.535458
	H316	H	-0.254930	0.741486	0.527007
	H317	H	-0.295319	0.711840	0.510936
	O318	O	0.377979	0.734813	-0.362057
	H319	H	0.393932	0.736669	-0.352669
	H320	H	0.372707	0.742435	-0.338963
	O321	O	0.608317	0.360334	0.582914
	H322	H	0.613714	0.361002	0.573905
	H323	H	0.590032	0.356890	0.566759
	O324	O	1.458962	0.582828	1.709903
	H325	H	1.462809	0.602103	1.716955
	H326	H	1.456283	0.586365	1.713019
	O327	O	1.039600	0.090397	1.170075
	H328	H	1.058337	0.087099	1.171087
	H329	H	1.034885	0.095071	1.171745
	O330	O	1.158977	0.024827	-0.006532
	H331	H	1.146256	0.015643	-0.014232
	H332	H	1.154150	0.016744	-0.004903
	O333	O	0.803742	1.004654	0.843376
	H334	H	0.801691	1.010176	0.835746
	H335	H	0.794415	0.999169	0.830016
	O336	O	1.054326	-0.036013	1.121002
	H337	H	1.065040	-0.041267	1.131741
	H338	H	1.059987	-0.040171	1.120160
	O339	O	0.434178	0.390421	0.348631
	H340	H	0.443584	0.403696	0.350619
	H341	H	0.441314	0.387079	0.349785
	O342	O	0.827738	-0.169985	0.116228
	H343	H	0.845272	-0.164548	0.114326
	H344	H	0.816587	-0.164478	0.088253
	O345	O	-0.072536	-0.200559	0.203419
	H346	H	-0.090232	-0.208470	0.192123
	H347	H	-0.043826	-0.199670	0.217989
	O348	O	1.197752	0.196603	1.200025
	H349	H	1.207263	0.203780	1.200111
	H350	H	1.179845	0.198542	1.186023
	O351	O	0.286028	0.471870	0.729239
	H352	H	0.264604	0.464322	0.751195
	H353	H	0.288263	0.469516	0.730559
	O354	O	0.472748	0.726971	0.286319
	H355	H	0.484732	0.731411	0.278810
	H356	H	0.458385	0.737792	0.272183
	O357	O	1.131372	0.827127	0.965019
	H358	H	1.118139	0.841269	0.974919
	H359	H	1.133095	0.823333	0.977679
	O360	O	0.690877	0.515265	0.313647
	H361	H	0.705385	0.509873	0.299590
	H362	H	0.678493	0.523305	0.317179
	O363	O	-0.127610	1.125580	0.947511
	H364	H	-0.131238	1.129792	0.952782
	H365	H	-0.129462	1.123281	0.941699
	O366	O	1.056898	1.095423	-0.092961
	H367	H	1.049625	1.090206	-0.076935
	H368	H	1.047035	1.104439	-0.090991
	O369	O	0.284456	0.315495	0.531939
	H370	H	0.271350	0.304203	0.525697
	H371	H	0.276271	0.310735	0.547941
	O372	O	0.316659	0.306891	0.704030
	H373	H	0.323174	0.323919	0.700433
	H374	H	0.351000	0.295065	0.695200
	O375	O	-0.177837	1.061651	1.100051
	H376	H	-0.187272	1.058241	1.101485
	H377	H	-0.185811	1.053941	1.105893
	O378	O	0.798866	0.149066	-0.190858
	H379	H	0.782128	0.141194	-0.188918
	H380	H	0.828270	0.171947	-0.194385
	O381	O	0.323067	0.405466	-0.574116
	H382	H	0.325485	0.408557	-0.574901
	H383	H	0.324484	0.397058	-0.569455
	O384	O	-0.124197	-0.858024	1.191892
	H385	H	-0.109948	-0.854531	1.175980
	H386	H	-0.149869	-0.859943	1.198246
	O387	O	-0.305705	0.705964	0.700646
	H388	H	-0.288219	0.699068	0.686500
	H389	H	-0.300079	0.684862	0.674672
	O390	O	0.160952	-0.171441	1.048668
	H391	H	0.152116	-0.157446	1.053608
	H392	H	0.177021	-0.185084	1.053657
	O393	O	1.097261	0.967065	0.214426
	H394	H	1.098179	0.981922	0.207012
	H395	H	1.113977	0.979905	0.224638
	O396	O	0.614024	0.593256	0.519960
	H397	H	0.622013	0.583860	0.510050
	H398	H	0.608793	0.593850	0.527022
	O399	O	0.292818	0.717215	0.478684
	H400	H	0.277733	0.727234	0.482551
	H401	H	0.292930	0.723924	0.493253
	O402	O	0.103851	-0.162302	0.860811
	H403	H	0.108185	-0.173233	0.869465
	H404	H	0.113226	-0.135598	0.853550
	O405	O	-0.432083	-0.370433	0.432178
	H406	H	-0.455117	-0.371348	0.419252
	H407	H	-0.434280	-0.367200	0.434199
	O408	O	0.472536	0.293980	0.709730
	H409	H	0.477811	0.276373	0.734370
	H410	H	0.494213	0.295687	0.692042
	O411	O	0.446892	0.377670	0.472396
	H412	H	0.442636	0.372481	0.468653
	H413	H	0.431272	0.381939	0.467251
	O414	O	0.875281	0.923030	0.945551
	H415	H	0.869444	0.907676	0.934933
	H416	H	0.873339	0.925235	0.928765
	O417	O	0.339865	0.507196	0.299627
	H418	H	0.326481	0.510648	0.303723
	H419	H	0.333061	0.519223	0.293064
	O420	O	0.787147	0.977610	1.217989
	H421	H	0.758420	0.973639	1.250853
	H422	H	0.797870	0.951654	1.207540
	O423	O	0.130831	1.198015	-0.064468
	H424	H	0.150422	1.206639	-0.062380
	H425	H	0.128780	1.186574	-0.069074
	O426	O	1.160632	0.896598	1.127246
	H427	H	1.154258	0.884918	1.124634
	H428	H	1.152753	0.909192	1.133051
	O429	O	0.652840	0.343719	0.617065
	H430	H	0.655820	0.345068	0.635248
	H431	H	0.639984	0.338617	0.599442
	O432	O	0.017714	0.191780	-0.130337
	H433	H	0.023433	0.191306	-0.125932
	H434	H	0.032885	0.206827	-0.145254
	O435	O	-0.058940	0.060075	-0.066495
	H436	H	-0.053835	0.059609	-0.051194
	H437	H	-0.073724	0.059963	-0.049748
	O438	O	0.866828	-0.067381	-0.106906
	H439	H	0.871891	-0.060186	-0.107613
	H440	H	0.878257	-0.055797	-0.109252
	O441	O	0.708359	0.292559	0.302621
	H442	H	0.690729	0.316234	0.297497
	H443	H	0.718495	0.300110	0.314346
	O444	O	-0.087955	0.817266	0.910384
	H445	H	-0.075440	0.813711	0.893577
	H446	H	-0.083843	0.809200	0.919080
	O447	O	0.512125	0.696104	0.523925
	H448	H	0.515318	0.702092	0.525748
	H449	H	0.502857	0.700692	0.542385
	O450	O	0.452078	0.411440	0.528545
	H451	H	0.456188	0.394254	0.526243
	H452	H	0.452073	0.418795	0.527578
	O453	O	0.596379	0.429278	0.701453
	H454	H	0.566431	0.427309	0.700561
	H455	H	0.589471	0.421641	0.705761
	O456	O	1.183948	-0.066362	-0.185015
	H457	H	1.172374	-0.058435	-0.168484
	H458	H	1.184066	-0.042085	-0.191351
	O459	O	0.589994	0.459504	0.339076
	H460	H	0.580665	0.460881	0.335351
	H461	H	0.593063	0.480405	0.342848
	O462	O	0.526936	0.699631	0.728334
	H463	H	0.560500	0.692458	0.712840
	H464	H	0.547627	0.724113	0.754903
	O465	O	1.205663	0.073409	0.153103
	H466	H	1.215992	0.070639	0.174371
	H467	H	1.201027	0.088473	0.151905
