data_Molecule from HDF5

_cell_length_a		16.311093
_cell_length_b		16.363413
_cell_length_c		16.289504
_cell_angle_alpha	89.959251
_cell_angle_beta	89.976422
_cell_angle_gamma	89.997960
_symmetry_space_group_name_H-M	'P 1'
_symmetry_Int_Tables_number		1

loop_
	_symmetry_equiv_pos_as_xyz
	x,y,z

loop_
	_atom_site_label
	_atom_site_type_symbol
	_atom_site_fract_x
	_atom_site_fract_y
	_atom_site_fract_z
	H0	H	0.401880	0.836966	0.714865
	H1	H	0.597969	0.163202	0.714666
	H2	H	0.598443	0.837226	0.286389
	H3	H	0.403242	0.163248	0.285704
	H4	H	0.713974	0.402346	0.835872
	H5	H	0.713590	0.597085	0.163235
	H6	H	0.285262	0.598377	0.836260
	H7	H	0.287188	0.403075	0.163488
	H8	H	0.837035	0.715106	0.401425
	H9	H	0.164132	0.713776	0.598279
	H10	H	0.837132	0.284058	0.599035
	H11	H	0.163363	0.284992	0.401826
	H12	H	0.836451	0.402427	0.713294
	H13	H	0.163700	0.596813	0.714033
	H14	H	0.835948	0.596799	0.286929
	H15	H	0.163908	0.403047	0.286998
	H16	H	0.400129	0.716023	0.836850
	H17	H	0.597087	0.713726	0.163548
	H18	H	0.598912	0.285151	0.836447
	H19	H	0.400911	0.285018	0.163411
	H20	H	0.713941	0.836428	0.403193
	H21	H	0.715296	0.162795	0.598589
	H22	H	0.286122	0.837017	0.597886
	H23	H	0.285582	0.163302	0.402295
	H24	H	0.903652	0.336755	0.213108
	H25	H	0.097935	0.662704	0.214356
	H26	H	0.097597	0.336616	0.785400
	H27	H	0.901617	0.662847	0.784948
	H28	H	0.213670	0.901815	0.335653
	H29	H	0.213052	0.096610	0.663487
	H30	H	0.786633	0.096945	0.335784
	H31	H	0.787447	0.903313	0.664192
	H32	H	0.336501	0.215155	0.900994
	H33	H	0.663472	0.215382	0.099241
	H34	H	0.336605	0.785354	0.099032
	H35	H	0.662583	0.785536	0.901589
	H36	H	0.336099	0.903755	0.213462
	H37	H	0.663905	0.097444	0.213663
	H38	H	0.336584	0.097942	0.785541
	H39	H	0.663208	0.902236	0.786161
	H40	H	0.901355	0.214993	0.336314
	H41	H	0.097336	0.213491	0.663341
	H42	H	0.097886	0.785667	0.336467
	H43	H	0.901350	0.784862	0.662707
	H44	H	0.214705	0.336589	0.901813
	H45	H	0.214087	0.662640	0.098037
	H46	H	0.786593	0.336277	0.097079
	H47	H	0.785940	0.662808	0.901688
	H48	H	0.416890	0.114929	0.602526
	H49	H	0.586795	0.884614	0.600017
	H50	H	0.590458	0.113564	0.408847
	H51	H	0.418072	0.888323	0.409736
	H52	H	0.590507	0.401045	0.117183
	H53	H	0.594880	0.595327	0.881775
	H54	H	0.409464	0.593748	0.115657
	H55	H	0.405551	0.396610	0.879532
	H56	H	0.118927	0.597842	0.401298
	H57	H	0.882414	0.594500	0.597628
	H58	H	0.116187	0.401121	0.589498
	H59	H	0.882660	0.406612	0.404382
	H60	H	0.114189	0.411674	0.589961
	H61	H	0.884873	0.597185	0.588478
	H62	H	0.114742	0.596000	0.413081
	H63	H	0.883406	0.404304	0.408327
	H64	H	0.404931	0.595835	0.116912
	H65	H	0.593319	0.590961	0.883733
	H66	H	0.598939	0.408402	0.117863
	H67	H	0.399075	0.414528	0.883310
	H68	H	0.597891	0.117304	0.408908
	H69	H	0.591223	0.887023	0.585978
	H70	H	0.408118	0.111849	0.580319
	H71	H	0.396868	0.884549	0.415220
	H72	H	0.905461	0.617662	0.099039
	H73	H	0.096969	0.377454	0.113494
	H74	H	0.094524	0.615842	0.906097
	H75	H	0.906074	0.382895	0.901348
	H76	H	0.088597	0.899799	0.616239
	H77	H	0.094400	0.093382	0.382810
	H78	H	0.897665	0.082986	0.616126
	H79	H	0.903621	0.905768	0.382775
	H80	H	0.618313	0.095031	0.901427
	H81	H	0.385730	0.093485	0.086877
	H82	H	0.617795	0.905642	0.097741
	H83	H	0.383293	0.908578	0.904772
	H84	H	0.616860	0.902185	0.090967
	H85	H	0.385120	0.088067	0.096484
	H86	H	0.615996	0.098664	0.911603
	H87	H	0.382225	0.903811	0.907119
	H88	H	0.920550	0.090806	0.611470
	H89	H	0.092082	0.092142	0.383672
	H90	H	0.101501	0.904446	0.619336
	H91	H	0.907060	0.910848	0.384340
	H92	H	0.090127	0.614022	0.906772
	H93	H	0.077385	0.390570	0.088796
	H94	H	0.910883	0.613594	0.092339
	H95	H	0.910853	0.385831	0.908375
	H96	H	0.393900	0.120751	0.598149
	H97	H	0.601477	0.881860	0.596089
	H98	H	0.593254	0.116644	0.401766
	H99	H	0.403858	0.879942	0.394437
	H100	H	0.589130	0.410866	0.113091
	H101	H	0.589857	0.595494	0.883926
	H102	H	0.405636	0.590723	0.115876
	H103	H	0.417763	0.410431	0.887479
	H104	H	0.114974	0.586434	0.405030
	H105	H	0.885453	0.588227	0.591264
	H106	H	0.118047	0.406163	0.598802
	H107	H	0.884764	0.408383	0.408016
	H108	H	0.901785	0.616274	0.090056
	H109	H	0.109554	0.381843	0.082329
	H110	H	0.093665	0.614071	0.910107
	H111	H	0.902123	0.383775	0.909696
	H112	H	0.091835	0.912448	0.613706
	H113	H	0.092442	0.094223	0.382776
	H114	H	0.903570	0.106515	0.620706
	H115	H	0.910370	0.904694	0.383722
	H116	H	0.613902	0.088530	0.909381
	H117	H	0.381830	0.098399	0.095485
	H118	H	0.615085	0.909356	0.091925
	H119	H	0.384455	0.907819	0.910159
	C120	C	0.378413	0.008046	0.621860
	C121	C	0.621836	0.992105	0.622187
	C122	C	0.621989	0.008332	0.378549
	C123	C	0.378445	0.991930	0.378319
	C124	C	0.621520	0.378453	0.007915
	C125	C	0.620927	0.621676	0.991339
	C126	C	0.378228	0.622007	0.008205
	C127	C	0.379125	0.378842	0.991721
	C128	C	0.008178	0.621302	0.378471
	C129	C	0.992188	0.621538	0.621067
	C130	C	0.008340	0.378094	0.621176
	C131	C	0.991724	0.377929	0.378308
	C132	C	0.878285	0.508140	0.121774
	C133	C	0.122150	0.491285	0.122242
	C134	C	0.121412	0.507465	0.878899
	C135	C	0.878101	0.491797	0.878050
	C136	C	0.121650	0.877988	0.507861
	C137	C	0.121286	0.121230	0.491159
	C138	C	0.878587	0.121700	0.507955
	C139	C	0.878740	0.878840	0.491632
	C140	C	0.507830	0.121988	0.878873
	C141	C	0.492300	0.121590	0.121585
	C142	C	0.508332	0.878193	0.121872
	C143	C	0.491446	0.878806	0.878857
	C144	C	0.381647	0.885562	0.676528
	C145	C	0.618895	0.114784	0.676862
	C146	C	0.619168	0.885583	0.323830
	C147	C	0.382090	0.114885	0.323816
	C148	C	0.676007	0.381839	0.884636
	C149	C	0.675512	0.618068	0.114500
	C150	C	0.323210	0.619094	0.884911
	C151	C	0.324502	0.381998	0.114824
	C152	C	0.885406	0.676405	0.381169
	C153	C	0.115262	0.676092	0.618805
	C154	C	0.885500	0.322886	0.618836
	C155	C	0.114600	0.323360	0.381365
	C156	C	0.885196	0.381217	0.675955
	C157	C	0.115251	0.617760	0.676084
	C158	C	0.884882	0.617826	0.324319
	C159	C	0.114965	0.381885	0.324391
	C160	C	0.380407	0.677293	0.885297
	C161	C	0.618163	0.676257	0.114657
	C162	C	0.619112	0.323424	0.884907
	C163	C	0.381210	0.323487	0.114571
	C164	C	0.676359	0.885445	0.381887
	C165	C	0.676967	0.114478	0.619270
	C166	C	0.323774	0.885711	0.618583
	C167	C	0.323612	0.114671	0.381390
	C168	C	0.882177	0.385190	0.175835
	C169	C	0.118490	0.614155	0.176589
	C170	C	0.118675	0.385056	0.823717
	C171	C	0.881166	0.614315	0.823128
	C172	C	0.175753	0.881577	0.384740
	C173	C	0.175575	0.117664	0.614530
	C174	C	0.823511	0.118926	0.384998
	C175	C	0.824613	0.882187	0.615057
	C176	C	0.385216	0.177095	0.880963
	C177	C	0.614728	0.176662	0.119035
	C178	C	0.385171	0.823532	0.119253
	C179	C	0.614188	0.823782	0.881084
	C180	C	0.384921	0.882162	0.176148
	C181	C	0.615326	0.118233	0.176067
	C182	C	0.385205	0.118929	0.823584
	C183	C	0.614258	0.881512	0.823726
	C184	C	0.881235	0.176805	0.384970
	C185	C	0.118453	0.175943	0.614485
	C186	C	0.118757	0.823293	0.384990
	C187	C	0.881101	0.823449	0.614322
	C188	C	0.176775	0.385125	0.881440
	C189	C	0.176340	0.614006	0.118877
	C190	C	0.823917	0.385299	0.118334
	C191	C	0.823215	0.614233	0.880626
	C192	C	0.400011	0.093887	0.600234
	C193	C	0.599826	0.906457	0.600546
	C194	C	0.600187	0.093677	0.400164
	C195	C	0.400025	0.906526	0.399922
	C196	C	0.599400	0.400270	0.093881
	C197	C	0.599094	0.600252	0.905422
	C198	C	0.400237	0.600045	0.094048
	C199	C	0.401002	0.400726	0.905613
	C200	C	0.094173	0.599763	0.399934
	C201	C	0.906499	0.599868	0.598979
	C202	C	0.094212	0.400054	0.599312
	C203	C	0.905660	0.399899	0.400474
	C204	C	0.899705	0.593849	0.100186
	C205	C	0.100884	0.405572	0.101093
	C206	C	0.099157	0.592804	0.900925
	C207	C	0.899904	0.406101	0.899944
	C208	C	0.100127	0.899209	0.594149
	C209	C	0.099453	0.099578	0.405260
	C210	C	0.900656	0.099838	0.593968
	C211	C	0.900629	0.900687	0.405638
	C212	C	0.594087	0.100299	0.900960
	C213	C	0.406276	0.099612	0.099550
	C214	C	0.594427	0.899524	0.099996
	C215	C	0.405558	0.900420	0.900893
	Zn216	Zn	0.500431	0.000425	0.750659
	Zn217	Zn	0.500364	0.000019	0.249886
	Zn218	Zn	0.749545	0.499873	-0.000293
	Zn219	Zn	0.250465	0.500184	-0.000014
	Zn220	Zn	-0.000080	0.750248	0.499816
	Zn221	Zn	-0.000073	0.249648	0.500153
	Zn222	Zn	-0.000154	0.499779	0.749784
	Zn223	Zn	-0.000187	0.499835	0.250225
	Zn224	Zn	0.499551	0.750412	-0.000207
	Zn225	Zn	0.499772	0.250504	0.000235
	Zn226	Zn	0.750151	-0.000029	0.500059
	Zn227	Zn	0.249623	-0.000125	0.499803
	N228	N	0.414704	0.962840	0.678831
	N229	N	0.585302	0.037678	0.678651
	N230	N	0.585983	0.962774	0.321603
	N231	N	0.415476	0.037694	0.321725
	N232	N	0.677505	0.415325	0.962145
	N233	N	0.677302	0.584868	0.037012
	N234	N	0.321836	0.585303	0.962221
	N235	N	0.323246	0.415743	0.037392
	N236	N	0.963067	0.678884	0.413968
	N237	N	0.037854	0.678442	0.585344
	N238	N	0.963108	0.320730	0.585804
	N239	N	0.037002	0.320888	0.414110
	N240	N	0.962395	0.415098	0.677297
	N241	N	0.037926	0.584567	0.677651
	N242	N	0.962152	0.584198	0.322681
	N243	N	0.037492	0.415177	0.322512
	N244	N	0.413817	0.679129	0.962783
	N245	N	0.584764	0.678420	0.037185
	N246	N	0.585805	0.321286	0.962551
	N247	N	0.414399	0.321595	0.037044
	N248	N	0.678152	0.962543	0.415383
	N249	N	0.678616	0.037405	0.585746
	N250	N	0.321965	0.962924	0.585166
	N251	N	0.321368	0.037464	0.414489
	N252	N	0.915101	0.462475	0.178065
	N253	N	0.085372	0.536849	0.178742
	N254	N	0.084854	0.461892	0.822072
	N255	N	0.914632	0.537159	0.821537
	N256	N	0.177786	0.914760	0.462255
	N257	N	0.177465	0.084520	0.537074
	N258	N	0.821910	0.085239	0.462342
	N259	N	0.823138	0.915967	0.537748
	N260	N	0.462453	0.178712	0.914711
	N261	N	0.537172	0.178806	0.086038
	N262	N	0.462831	0.821015	0.086333
	N263	N	0.536871	0.821958	0.914639
	N264	N	0.462464	0.915455	0.177790
	N265	N	0.537972	0.084620	0.177734
	N266	N	0.462482	0.085182	0.822526
	N267	N	0.537045	0.915239	0.822445
	N268	N	0.914562	0.178600	0.462508
	N269	N	0.085221	0.178002	0.536956
	N270	N	0.085696	0.821240	0.462552
	N271	N	0.914235	0.821520	0.536692
	N272	N	0.178374	0.462260	0.915091
	N273	N	0.178520	0.536911	0.085605
	N274	N	0.821448	0.462820	0.085333
	N275	N	0.821384	0.537124	0.914186
