data_Molecule from HDF5

_cell_length_a		16.273042
_cell_length_b		16.389874
_cell_length_c		16.270305
_cell_angle_alpha	90.250098
_cell_angle_beta	89.778860
_cell_angle_gamma	89.812141
_symmetry_space_group_name_H-M	'P 1'
_symmetry_Int_Tables_number		1

loop_
	_symmetry_equiv_pos_as_xyz
	x,y,z

loop_
	_atom_site_label
	_atom_site_type_symbol
	_atom_site_fract_x
	_atom_site_fract_y
	_atom_site_fract_z
	H0	H	0.405159	0.837074	0.727766
	H1	H	0.608846	0.160003	0.727641
	H2	H	0.612777	0.837181	0.289916
	H3	H	0.409078	0.159970	0.294886
	H4	H	0.724818	0.394454	0.844885
	H5	H	0.722128	0.596924	0.170503
	H6	H	0.291753	0.598762	0.845626
	H7	H	0.291511	0.398903	0.171242
	H8	H	0.845086	0.716794	0.404891
	H9	H	0.170184	0.716111	0.608133
	H10	H	0.845029	0.282843	0.608764
	H11	H	0.169509	0.279329	0.402566
	H12	H	0.845743	0.397582	0.724965
	H13	H	0.170647	0.599404	0.723859
	H14	H	0.844492	0.597901	0.291977
	H15	H	0.170180	0.396477	0.288809
	H16	H	0.404081	0.717627	0.847474
	H17	H	0.611642	0.717180	0.169546
	H18	H	0.612459	0.276034	0.847556
	H19	H	0.404740	0.282097	0.171231
	H20	H	0.726031	0.836291	0.406931
	H21	H	0.725719	0.159562	0.611760
	H22	H	0.289611	0.837066	0.611052
	H23	H	0.289734	0.158219	0.406510
	H24	H	0.906284	0.336693	0.223956
	H25	H	0.106711	0.660000	0.223991
	H26	H	0.111841	0.337333	0.787644
	H27	H	0.906122	0.659626	0.792227
	H28	H	0.225720	0.896870	0.344751
	H29	H	0.223668	0.098657	0.671378
	H30	H	0.791646	0.096971	0.345774
	H31	H	0.793590	0.899380	0.671374
	H32	H	0.345810	0.216470	0.907861
	H33	H	0.670230	0.214427	0.109844
	H34	H	0.345898	0.781472	0.113393
	H35	H	0.669801	0.779831	0.906513
	H36	H	0.346524	0.899205	0.226820
	H37	H	0.671928	0.096449	0.223196
	H38	H	0.345210	0.100847	0.792479
	H39	H	0.670038	0.896280	0.791213
	H40	H	0.905856	0.213867	0.344857
	H41	H	0.109039	0.217173	0.669625
	H42	H	0.112391	0.779113	0.345391
	H43	H	0.905567	0.782300	0.670005
	H44	H	0.227057	0.336243	0.905733
	H45	H	0.223930	0.659705	0.109828
	H46	H	0.791997	0.335917	0.106624
	H47	H	0.787747	0.658065	0.905537
	H48	H	0.414207	0.112857	0.600388
	H49	H	0.604411	0.883591	0.594909
	H50	H	0.608753	0.114785	0.418700
	H51	H	0.422608	0.883885	0.416788
	H52	H	0.603654	0.421108	0.120557
	H53	H	0.601584	0.582961	0.892982
	H54	H	0.414023	0.594693	0.125329
	H55	H	0.411305	0.407680	0.891513
	H56	H	0.123530	0.586285	0.409421
	H57	H	0.886502	0.600680	0.609342
	H58	H	0.122208	0.403762	0.590756
	H59	H	0.890810	0.404338	0.414006
	H60	H	0.120949	0.413075	0.596604
	H61	H	0.895378	0.595261	0.585499
	H62	H	0.124161	0.596462	0.418130
	H63	H	0.892077	0.406116	0.418172
	H64	H	0.413660	0.586557	0.123815
	H65	H	0.590403	0.587414	0.894606
	H66	H	0.583893	0.401213	0.120562
	H67	H	0.423806	0.411944	0.896620
	H68	H	0.598286	0.114789	0.409427
	H69	H	0.600564	0.881851	0.605690
	H70	H	0.416210	0.112462	0.602824
	H71	H	0.417518	0.883571	0.421709
	H72	H	0.911986	0.613784	0.101286
	H73	H	0.090638	0.383953	0.105110
	H74	H	0.099283	0.612472	0.915821
	H75	H	0.912872	0.379844	0.909847
	H76	H	0.098579	0.907362	0.622435
	H77	H	0.094099	0.093401	0.393559
	H78	H	0.919662	0.093878	0.623569
	H79	H	0.915659	0.894359	0.388177
	H80	H	0.620359	0.086687	0.923515
	H81	H	0.395624	0.085456	0.096800
	H82	H	0.621414	0.912640	0.097195
	H83	H	0.394676	0.908382	0.925370
	H84	H	0.627510	0.903524	0.107706
	H85	H	0.390317	0.088117	0.110914
	H86	H	0.622732	0.084478	0.915327
	H87	H	0.393096	0.912712	0.917050
	H88	H	0.914870	0.090839	0.623930
	H89	H	0.105462	0.089804	0.390564
	H90	H	0.096592	0.906714	0.622045
	H91	H	0.907169	0.914319	0.390863
	H92	H	0.098012	0.611002	0.917742
	H93	H	0.098761	0.386589	0.087282
	H94	H	0.916964	0.613087	0.102323
	H95	H	0.923702	0.384625	0.913370
	H96	H	0.416855	0.111355	0.599062
	H97	H	0.593587	0.887221	0.597654
	H98	H	0.595982	0.109711	0.422700
	H99	H	0.415965	0.881776	0.414793
	H100	H	0.609657	0.395907	0.130550
	H101	H	0.599530	0.594334	0.890753
	H102	H	0.421374	0.590106	0.122591
	H103	H	0.422664	0.398558	0.892464
	H104	H	0.119610	0.584811	0.421739
	H105	H	0.895225	0.577347	0.604264
	H106	H	0.125708	0.404215	0.601241
	H107	H	0.892554	0.408539	0.414928
	H108	H	0.914887	0.612583	0.096585
	H109	H	0.109701	0.379018	0.101798
	H110	H	0.100248	0.612104	0.917975
	H111	H	0.914641	0.383879	0.921609
	H112	H	0.098002	0.905286	0.623425
	H113	H	0.098417	0.081548	0.395326
	H114	H	0.919800	0.089170	0.621821
	H115	H	0.927810	0.910066	0.396642
	H116	H	0.624884	0.092071	0.917808
	H117	H	0.389608	0.099333	0.100965
	H118	H	0.624935	0.899053	0.093588
	H119	H	0.390869	0.903865	0.918327
	C120	C	0.385674	0.005929	0.631016
	C121	C	0.629808	0.990505	0.630767
	C122	C	0.631185	0.006540	0.386612
	C123	C	0.388364	0.989616	0.387737
	C124	C	0.629761	0.375121	0.016576
	C125	C	0.627974	0.618508	0.999727
	C126	C	0.385883	0.620429	0.017175
	C127	C	0.387565	0.376745	1.000608
	C128	C	0.015439	0.619375	0.386345
	C129	C	0.999652	0.620593	0.629264
	C130	C	0.015899	0.377509	0.627451
	C131	C	0.998975	0.376077	0.384723
	C132	C	0.885612	0.506325	0.129310
	C133	C	0.129255	0.489689	0.128843
	C134	C	0.130823	0.506081	0.885892
	C135	C	0.885970	0.489194	0.885498
	C136	C	0.129447	0.876456	0.515648
	C137	C	0.129327	0.119243	0.499735
	C138	C	0.886767	0.120156	0.516424
	C139	C	0.887185	0.877065	0.499493
	C140	C	0.515982	0.119049	0.888230
	C141	C	0.499808	0.119673	0.131241
	C142	C	0.517100	0.876082	0.130700
	C143	C	0.499322	0.876890	0.887970
	C144	C	0.386122	0.885171	0.688446
	C145	C	0.629001	0.111695	0.688663
	C146	C	0.631266	0.885198	0.329426
	C147	C	0.389276	0.111358	0.332202
	C148	C	0.686543	0.375179	0.894212
	C149	C	0.684653	0.617572	0.121776
	C150	C	0.329389	0.619072	0.894745
	C151	C	0.329590	0.378495	0.122481
	C152	C	0.893478	0.677056	0.386573
	C153	C	0.121815	0.677307	0.627942
	C154	C	0.893841	0.320952	0.628226
	C155	C	0.121086	0.318308	0.383694
	C156	C	0.894294	0.378282	0.686151
	C157	C	0.122007	0.619170	0.685166
	C158	C	0.893167	0.618065	0.330073
	C159	C	0.121561	0.376807	0.327396
	C160	C	0.385243	0.678198	0.895411
	C161	C	0.629135	0.677090	0.121301
	C162	C	0.630684	0.315963	0.895448
	C163	C	0.386352	0.320640	0.122640
	C164	C	0.687903	0.884847	0.387643
	C165	C	0.687134	0.111437	0.630894
	C166	C	0.328459	0.885060	0.630402
	C167	C	0.329984	0.110498	0.387960
	C168	C	0.886756	0.384810	0.185414
	C169	C	0.127268	0.611488	0.186017
	C170	C	0.130669	0.385109	0.827410
	C171	C	0.886676	0.611148	0.830379
	C172	C	0.187511	0.876810	0.393678
	C173	C	0.185301	0.118368	0.622404
	C174	C	0.829892	0.117812	0.394288
	C175	C	0.830928	0.878984	0.622334
	C176	C	0.394048	0.177318	0.888430
	C177	C	0.621876	0.176051	0.129787
	C178	C	0.395082	0.819506	0.132057
	C179	C	0.621438	0.819085	0.887315
	C180	C	0.395200	0.878398	0.188402
	C181	C	0.622971	0.117062	0.185666
	C182	C	0.393807	0.119783	0.831116
	C183	C	0.621664	0.876937	0.830000
	C184	C	0.886482	0.176195	0.393895
	C185	C	0.128465	0.177460	0.621602
	C186	C	0.130604	0.818536	0.393622
	C187	C	0.886659	0.820464	0.621387
	C188	C	0.188336	0.384779	0.885870
	C189	C	0.185414	0.611212	0.128899
	C190	C	0.829659	0.384555	0.127139
	C191	C	0.827414	0.610279	0.886406
	C192	C	0.408920	0.090475	0.607670
	C193	C	0.606314	0.906132	0.606478
	C194	C	0.607831	0.091191	0.410092
	C195	C	0.411997	0.905128	0.411051
	C196	C	0.606004	0.399140	0.101854
	C197	C	0.604042	0.595035	0.914785
	C198	C	0.409456	0.597140	0.101927
	C199	C	0.412186	0.399511	0.915575
	C200	C	0.100297	0.595948	0.409723
	C201	C	0.914399	0.597792	0.606314
	C202	C	0.100993	0.400303	0.603256
	C203	C	0.914000	0.399583	0.408707
	C204	C	0.907957	0.591187	0.106822
	C205	C	0.106362	0.405068	0.105004
	C206	C	0.106335	0.590155	0.910104
	C207	C	0.909872	0.404760	0.908250
	C208	C	0.104687	0.899688	0.600624
	C209	C	0.106189	0.095180	0.415025
	C210	C	0.910856	0.097622	0.601183
	C211	C	0.910256	0.899389	0.414065
	C212	C	0.600461	0.094744	0.911947
	C213	C	0.414077	0.097441	0.109350
	C214	C	0.602469	0.898462	0.106415
	C215	C	0.414950	0.901259	0.912734
	Zn216	Zn	0.507456	-0.001530	0.759921
	Zn217	Zn	0.509440	-0.001669	0.258747
	Zn218	Zn	0.757092	0.497379	0.007338
	Zn219	Zn	0.258956	0.497936	0.008535
	Zn220	Zn	0.007344	0.748747	0.507212
	Zn221	Zn	0.007942	0.248792	0.506727
	Zn222	Zn	0.008229	0.498626	0.757112
	Zn223	Zn	0.007470	0.497754	0.257455
	Zn224	Zn	0.507566	0.747895	0.008495
	Zn225	Zn	0.507550	0.247388	0.009493
	Zn226	Zn	0.759145	-0.002113	0.508888
	Zn227	Zn	0.258415	-0.002609	0.507982
	N228	N	0.420995	0.961457	0.688911
	N229	N	0.594133	0.035408	0.688746
	N230	N	0.596525	0.961763	0.328539
	N231	N	0.425059	0.035174	0.331953
	N232	N	0.685905	0.411428	0.970545
	N233	N	0.683991	0.581514	0.045278
	N234	N	0.329313	0.584256	0.971565
	N235	N	0.330611	0.413037	0.045731
	N236	N	0.970567	0.678130	0.420778
	N237	N	0.044535	0.678334	0.593896
	N238	N	0.970475	0.320263	0.592550
	N239	N	0.043891	0.317497	0.418557
	N240	N	0.971296	0.412861	0.685731
	N241	N	0.045037	0.584792	0.686264
	N242	N	0.970009	0.582900	0.329866
	N243	N	0.044716	0.411910	0.327879
	N244	N	0.419884	0.678954	0.972228
	N245	N	0.594691	0.677749	0.044310
	N246	N	0.595981	0.315916	0.972765
	N247	N	0.421688	0.319370	0.045718
	N248	N	0.687781	0.961184	0.422745
	N249	N	0.687469	0.035066	0.595305
	N250	N	0.328270	0.961273	0.595259
	N251	N	0.329190	0.033747	0.421532
	N252	N	0.920696	0.461506	0.186956
	N253	N	0.092935	0.534826	0.186055
	N254	N	0.095770	0.461634	0.827266
	N255	N	0.922213	0.534858	0.829399
	N256	N	0.186823	0.912027	0.470541
	N257	N	0.185859	0.082853	0.545785
	N258	N	0.829651	0.084057	0.471474
	N259	N	0.830964	0.913413	0.545482
	N260	N	0.471017	0.177130	0.923221
	N261	N	0.544245	0.177826	0.096757
	N262	N	0.472099	0.818026	0.096631
	N263	N	0.544554	0.818831	0.922481
	N264	N	0.472176	0.912647	0.187749
	N265	N	0.545977	0.082867	0.186708
	N266	N	0.470577	0.084478	0.830778
	N267	N	0.544866	0.912400	0.830580
	N268	N	0.921478	0.177562	0.470802
	N269	N	0.094407	0.178216	0.544375
	N270	N	0.095271	0.817915	0.470559
	N271	N	0.920941	0.819198	0.544084
	N272	N	0.188530	0.460952	0.921539
	N273	N	0.186783	0.534494	0.094282
	N274	N	0.828923	0.461080	0.092856
	N275	N	0.826968	0.533437	0.920069
	O276	O	-0.018713	0.079199	-0.030963
	H277	H	-0.022980	0.079221	-0.018856
	H278	H	-0.022714	0.093025	-0.032697
	O279	O	0.644079	0.480458	0.328232
	H280	H	0.641961	0.467920	0.325156
	H281	H	0.641360	0.478434	0.326975
	O282	O	1.018137	-0.063229	-0.006788
	H283	H	1.013011	-0.069459	-0.017768
	H284	H	1.008847	-0.056678	-0.010615
	O285	O	-0.369251	1.355425	-0.620197
	H286	H	-0.352011	1.349028	-0.609136
	H287	H	-0.381467	1.347337	-0.627989
	O288	O	0.598129	0.585129	0.413727
	H289	H	0.602669	0.590514	0.421534
	H290	H	0.603126	0.564217	0.413897
	O291	O	0.353832	0.346645	0.574076
	H292	H	0.362371	0.355903	0.574138
	H293	H	0.353235	0.344026	0.584760
	O294	O	1.017133	0.968704	0.977899
	H295	H	1.014945	0.971241	0.980397
	H296	H	1.030401	0.960162	0.967676
	O297	O	0.013036	0.058510	0.048753
	H298	H	0.026762	0.057883	0.046159
	H299	H	0.008237	0.051663	0.045703
	O300	O	0.458551	0.558613	0.638591
	H301	H	0.461986	0.563721	0.630348
	H302	H	0.462726	0.562390	0.622480
	O303	O	-0.040871	0.965320	0.988349
	H304	H	-0.043640	0.961357	0.977038
	H305	H	-0.043237	0.959338	0.995183
	O306	O	0.511334	0.630356	0.638177
	H307	H	0.487441	0.620103	0.646714
	H308	H	0.501792	0.627503	0.624951
	O309	O	0.972382	-0.095628	0.032815
	H310	H	0.977495	-0.088017	0.042698
	H311	H	0.969998	-0.103386	0.028012
	O312	O	-0.433410	0.513513	0.606700
	H313	H	-0.431900	0.508269	0.626481
	H314	H	-0.428122	0.529658	0.618389
	O315	O	0.477356	0.374238	0.599033
	H316	H	0.472583	0.372577	0.593989
	H317	H	0.488711	0.354838	0.596142
	O318	O	0.690465	0.506778	0.545631
	H319	H	0.708439	0.518337	0.539345
	H320	H	0.674733	0.511519	0.569880
	O321	O	0.609679	0.564860	0.425781
	H322	H	0.604268	0.565120	0.428722
	H323	H	0.610475	0.562512	0.433522
	O324	O	0.487086	0.389841	0.365969
	H325	H	0.489852	0.375878	0.365355
	H326	H	0.486841	0.398354	0.361226
	O327	O	0.038194	0.973248	1.074188
	H328	H	0.050025	0.964337	1.072960
	H329	H	0.040845	0.976318	1.054736
	O330	O	0.537196	0.515407	0.638703
	H331	H	0.531564	0.521068	0.650736
	H332	H	0.519714	0.516224	0.647099
	O333	O	0.018659	0.889189	0.890282
	H334	H	0.033856	0.885002	0.883647
	H335	H	0.009408	0.887635	0.888626
	O336	O	0.934844	1.101805	0.962116
	H337	H	0.936802	1.108752	0.957623
	H338	H	0.923440	1.093636	0.970428
	O339	O	0.512276	0.531327	0.564697
	H340	H	0.500781	0.536098	0.545077
	H341	H	0.509017	0.533630	0.561995
	O342	O	1.029418	-0.100570	-0.009986
	H343	H	1.030492	-0.103522	-0.003893
	H344	H	1.031515	-0.110272	-0.014835
	O345	O	0.423079	0.434155	0.405071
	H346	H	0.428342	0.437482	0.404519
	H347	H	0.420692	0.429059	0.397511
	O348	O	0.983772	0.991509	0.957401
	H349	H	0.996112	0.991355	0.961225
	H350	H	0.978555	0.999127	0.957686
	O351	O	1.002985	0.986614	-0.041804
	H352	H	0.998784	0.990777	-0.034130
	H353	H	1.009182	0.980795	-0.043340
	O354	O	0.545035	0.297404	0.473211
	H355	H	0.544100	0.301710	0.492908
	H356	H	0.560134	0.294487	0.459548
	O357	O	0.388015	0.614875	0.362945
	H358	H	0.388137	0.623874	0.352631
	H359	H	0.388718	0.613116	0.367364
	O360	O	0.116672	0.035467	0.128408
	H361	H	0.119347	0.039215	0.130666
	H362	H	0.123905	0.027780	0.132350
	O363	O	0.580636	0.610850	0.441371
	H364	H	0.585062	0.609527	0.436430
	H365	H	0.588763	0.602442	0.444598
	O366	O	0.513887	0.502468	0.652533
	H367	H	0.536252	0.497257	0.657110
	H368	H	0.501886	0.508351	0.645874
	O369	O	0.053048	0.065963	-0.016111
	H370	H	0.047714	0.062499	-0.015101
	H371	H	0.047771	0.069918	-0.022927
	O372	O	0.439318	0.390460	0.629672
	H373	H	0.436674	0.393169	0.624656
	H374	H	0.440793	0.398036	0.633188
	O375	O	0.595423	0.572712	0.534832
	H376	H	0.605784	0.574402	0.538215
	H377	H	0.605525	0.580377	0.529551
	O378	O	0.338137	0.438188	0.506437
	H379	H	0.330137	0.423039	0.513331
	H380	H	0.347362	0.436424	0.515764
	O381	O	0.028801	1.100026	1.129165
	H382	H	0.028688	1.093157	1.122510
	H383	H	0.036253	1.103537	1.139187
	O384	O	0.136205	0.894405	-0.019200
	H385	H	0.140303	0.893792	-0.018865
	H386	H	0.147384	0.898556	-0.030789
	O387	O	1.008555	0.029410	1.078311
	H388	H	1.010391	0.037389	1.079325
	H389	H	1.017207	0.036582	1.085755
	O390	O	0.035184	0.988560	-0.122895
	H391	H	0.029955	0.985994	-0.132675
	H392	H	0.028964	0.990702	-0.123892
	O393	O	0.994649	1.088168	-0.026216
	H394	H	0.987294	1.087194	-0.033854
	H395	H	0.990732	1.094397	-0.025589
	O396	O	0.353864	0.581067	0.444174
	H397	H	0.354162	0.583041	0.423080
	H398	H	0.360854	0.585554	0.440500
	O399	O	-0.044373	0.993404	1.019958
	H400	H	-0.041400	0.989180	1.013811
	H401	H	-0.042228	0.992493	1.022504
	O402	O	1.008073	0.009184	0.000497
	H403	H	1.006295	0.005105	-0.005230
	H404	H	1.006063	0.018226	-0.001855
	O405	O	0.472253	0.612423	0.674734
	H406	H	0.466243	0.612066	0.684347
	H407	H	0.474984	0.612989	0.642142
