data_Molecule from HDF5

_cell_length_a		16.559579
_cell_length_b		16.542986
_cell_length_c		16.575248
_cell_angle_alpha	89.929541
_cell_angle_beta	90.256891
_cell_angle_gamma	90.009077
_symmetry_space_group_name_H-M	'P 1'
_symmetry_Int_Tables_number		1

loop_
	_symmetry_equiv_pos_as_xyz
	x,y,z

loop_
	_atom_site_label
	_atom_site_type_symbol
	_atom_site_fract_x
	_atom_site_fract_y
	_atom_site_fract_z
	H0	H	0.393612	0.850479	0.718915
	H1	H	0.605873	0.162622	0.718782
	H2	H	0.606105	0.851048	0.273543
	H3	H	0.396399	0.164125	0.276684
	H4	H	0.719800	0.401872	0.840108
	H5	H	0.721719	0.612524	0.152488
	H6	H	0.275197	0.613706	0.842519
	H7	H	0.276609	0.398439	0.151777
	H8	H	0.842931	0.730131	0.387837
	H9	H	0.154161	0.728742	0.601825
	H10	H	0.842871	0.283844	0.602410
	H11	H	0.155267	0.285581	0.393490
	H12	H	0.842476	0.399652	0.719627
	H13	H	0.153794	0.612709	0.719198
	H14	H	0.843278	0.613768	0.272148
	H15	H	0.154028	0.398336	0.274580
	H16	H	0.390546	0.730264	0.842231
	H17	H	0.605567	0.728693	0.152808
	H18	H	0.604625	0.285009	0.839989
	H19	H	0.394493	0.284092	0.152136
	H20	H	0.722448	0.850804	0.389858
	H21	H	0.718655	0.164051	0.600676
	H22	H	0.276725	0.851411	0.602654
	H23	H	0.278786	0.163785	0.391663
	H24	H	0.893020	0.350940	0.218141
	H25	H	0.106479	0.661994	0.221433
	H26	H	0.100090	0.349956	0.779000
	H27	H	0.890504	0.663977	0.773152
	H28	H	0.219274	0.901453	0.339684
	H29	H	0.221068	0.110215	0.652725
	H30	H	0.777643	0.111616	0.340492
	H31	H	0.776016	0.898251	0.653018
	H32	H	0.343771	0.227902	0.890540
	H33	H	0.655642	0.227358	0.101021
	H34	H	0.342397	0.786688	0.100956
	H35	H	0.655589	0.783109	0.890331
	H36	H	0.342210	0.903838	0.216181
	H37	H	0.655364	0.111361	0.218285
	H38	H	0.343827	0.111772	0.773730
	H39	H	0.656081	0.898557	0.774055
	H40	H	0.893022	0.228713	0.341361
	H41	H	0.102463	0.225850	0.654158
	H42	H	0.102070	0.785779	0.339702
	H43	H	0.889910	0.780822	0.651436
	H44	H	0.218535	0.350786	0.893889
	H45	H	0.222882	0.662289	0.106111
	H46	H	0.776889	0.351208	0.101705
	H47	H	0.775332	0.664335	0.888984
	H48	H	0.413725	0.117452	0.583125
	H49	H	0.586534	0.894862	0.586885
	H50	H	0.588314	0.117509	0.411512
	H51	H	0.410394	0.893344	0.404736
	H52	H	0.595937	0.420935	0.110280
	H53	H	0.579759	0.597266	0.886433
	H54	H	0.413135	0.596479	0.109734
	H55	H	0.408227	0.417608	0.884703
	H56	H	0.108658	0.592384	0.410435
	H57	H	0.886623	0.596563	0.580914
	H58	H	0.113599	0.414087	0.595784
	H59	H	0.888840	0.417767	0.414091
	H60	H	0.110717	0.412148	0.581832
	H61	H	0.887743	0.590683	0.584507
	H62	H	0.110382	0.595021	0.407532
	H63	H	0.887503	0.423852	0.405132
	H64	H	0.410065	0.595867	0.109683
	H65	H	0.590384	0.600378	0.881933
	H66	H	0.583094	0.422613	0.104119
	H67	H	0.408467	0.420543	0.884748
	H68	H	0.591736	0.120489	0.405304
	H69	H	0.586002	0.895629	0.583472
	H70	H	0.408658	0.118569	0.583472
	H71	H	0.411555	0.895629	0.408275
	H72	H	0.914638	0.616541	0.080554
	H73	H	0.083484	0.397777	0.083120
	H74	H	0.091020	0.619380	0.914433
	H75	H	0.918456	0.399564	0.908447
	H76	H	0.086840	0.914383	0.608349
	H77	H	0.091489	0.102639	0.380952
	H78	H	0.911280	0.093703	0.608921
	H79	H	0.910124	0.925755	0.388361
	H80	H	0.612354	0.095399	0.906273
	H81	H	0.387033	0.095058	0.084075
	H82	H	0.614358	0.916028	0.092279
	H83	H	0.384853	0.914601	0.900857
	H84	H	0.610976	0.913168	0.079893
	H85	H	0.385747	0.095278	0.089265
	H86	H	0.611167	0.096739	0.910925
	H87	H	0.389541	0.914943	0.916532
	H88	H	0.910478	0.097612	0.609324
	H89	H	0.092416	0.090889	0.385466
	H90	H	0.091629	0.918776	0.608552
	H91	H	0.915723	0.916331	0.386928
	H92	H	0.088824	0.623009	0.902496
	H93	H	0.091842	0.394607	0.082579
	H94	H	0.906610	0.619843	0.083050
	H95	H	0.903925	0.396918	0.915969
	H96	H	0.412061	0.119631	0.587473
	H97	H	0.589521	0.894203	0.584471
	H98	H	0.584241	0.118697	0.405113
	H99	H	0.407551	0.893424	0.407964
	H100	H	0.586500	0.410317	0.110736
	H101	H	0.588677	0.589427	0.886421
	H102	H	0.412033	0.593632	0.108036
	H103	H	0.410831	0.418937	0.885397
	H104	H	0.109911	0.596272	0.411544
	H105	H	0.884628	0.596095	0.587665
	H106	H	0.107740	0.424221	0.588268
	H107	H	0.884420	0.413240	0.405169
	H108	H	0.913256	0.619625	0.089076
	H109	H	0.087250	0.393418	0.090417
	H110	H	0.080128	0.616990	0.909561
	H111	H	0.905643	0.392081	0.900049
	H112	H	0.085629	0.920728	0.606055
	H113	H	0.081046	0.097572	0.386076
	H114	H	0.907754	0.094450	0.610063
	H115	H	0.905619	0.917621	0.382800
	H116	H	0.610558	0.091631	0.909579
	H117	H	0.385435	0.099522	0.086147
	H118	H	0.608610	0.924895	0.085212
	H119	H	0.391983	0.928397	0.906769
	C120	C	0.378427	0.015446	0.617509
	C121	C	0.620361	0.998124	0.617871
	C122	C	0.620778	0.015388	0.374991
	C123	C	0.377927	0.998099	0.374938
	C124	C	0.620577	0.385713	0.004882
	C125	C	0.619658	0.628480	0.987888
	C126	C	0.377737	0.628286	0.006201
	C127	C	0.377418	0.385583	0.987916
	C128	C	0.006658	0.627744	0.375874
	C129	C	0.989516	0.627840	0.617411
	C130	C	0.006968	0.384875	0.619670
	C131	C	0.990135	0.385608	0.376108
	C132	C	0.878561	0.515562	0.116783
	C133	C	0.120848	0.497861	0.119339
	C134	C	0.118751	0.516010	0.876957
	C135	C	0.875941	0.499413	0.874596
	C136	C	0.119804	0.885492	0.504560
	C137	C	0.120192	0.128303	0.488256
	C138	C	0.877601	0.127863	0.505858
	C139	C	0.876849	0.885406	0.488467
	C140	C	0.508036	0.127229	0.875568
	C141	C	0.489908	0.128534	0.118347
	C142	C	0.507750	0.886261	0.117703
	C143	C	0.491763	0.885452	0.874890
	C144	C	0.375522	0.897712	0.678349
	C145	C	0.623451	0.115715	0.678420
	C146	C	0.624173	0.897921	0.313874
	C147	C	0.377077	0.116827	0.316108
	C148	C	0.680237	0.383321	0.887213
	C149	C	0.681292	0.631026	0.105568
	C150	C	0.315435	0.631824	0.889445
	C151	C	0.317309	0.381467	0.105233
	C152	C	0.889591	0.689309	0.370910
	C153	C	0.107060	0.688669	0.620428
	C154	C	0.889512	0.324364	0.621187
	C155	C	0.107932	0.325186	0.374496
	C156	C	0.889367	0.382029	0.679298
	C157	C	0.106977	0.630907	0.678546
	C158	C	0.890015	0.631682	0.313069
	C159	C	0.107372	0.381792	0.315597
	C160	C	0.373099	0.689733	0.889210
	C161	C	0.623186	0.688543	0.105798
	C162	C	0.622652	0.325250	0.887191
	C163	C	0.375301	0.323879	0.104925
	C164	C	0.681949	0.897775	0.371996
	C165	C	0.679671	0.116454	0.619686
	C166	C	0.317293	0.898003	0.620694
	C167	C	0.318600	0.116556	0.373107
	C168	C	0.875316	0.397945	0.177605
	C169	C	0.124203	0.615155	0.180632
	C170	C	0.119515	0.397472	0.818213
	C171	C	0.872787	0.616786	0.813444
	C172	C	0.179580	0.882975	0.386885
	C173	C	0.180302	0.129092	0.606281
	C174	C	0.817572	0.130214	0.387811
	C175	C	0.816210	0.881268	0.605813
	C176	C	0.390369	0.187622	0.872585
	C177	C	0.608405	0.187840	0.120209
	C178	C	0.389398	0.826739	0.119464
	C179	C	0.608745	0.823731	0.872264
	C180	C	0.389489	0.884868	0.176860
	C181	C	0.608374	0.130279	0.178353
	C182	C	0.390617	0.130006	0.814463
	C183	C	0.608897	0.881303	0.814188
	C184	C	0.875126	0.188209	0.388095
	C185	C	0.121802	0.186595	0.606939
	C186	C	0.121251	0.825489	0.386774
	C187	C	0.873012	0.822629	0.605123
	C188	C	0.178173	0.397786	0.875407
	C189	C	0.182209	0.615358	0.123325
	C190	C	0.817213	0.398150	0.119802
	C191	C	0.815218	0.617068	0.871102
	C192	C	0.404175	0.097212	0.592002
	C193	C	0.594763	0.916066	0.592157
	C194	C	0.595272	0.097366	0.400025
	C195	C	0.402648	0.915478	0.399941
	C196	C	0.595457	0.410905	0.087031
	C197	C	0.593789	0.602968	0.906234
	C198	C	0.404310	0.602703	0.087858
	C199	C	0.402025	0.411502	0.906190
	C200	C	0.088409	0.601973	0.402412
	C201	C	0.907546	0.601951	0.591702
	C202	C	0.089272	0.409771	0.595425
	C203	C	0.908382	0.411248	0.401061
	C204	C	0.904304	0.597383	0.091277
	C205	C	0.094967	0.416492	0.092933
	C206	C	0.093785	0.598365	0.901699
	C207	C	0.901786	0.417479	0.900729
	C208	C	0.095104	0.910772	0.586286
	C209	C	0.095278	0.104027	0.405679
	C210	C	0.902765	0.102582	0.587945
	C211	C	0.903059	0.912265	0.407324
	C212	C	0.590087	0.101846	0.901490
	C213	C	0.407545	0.103624	0.093472
	C214	C	0.589906	0.910852	0.092921
	C215	C	0.410159	0.911772	0.900756
	Zn216	Zn	0.500179	0.006498	0.746404
	Zn217	Zn	0.499073	0.007239	0.246944
	Zn218	Zn	0.748636	0.507467	-0.003949
	Zn219	Zn	0.248428	0.507283	-0.002159
	Zn220	Zn	-0.001864	0.756714	0.496090
	Zn221	Zn	-0.001473	0.256710	0.497473
	Zn222	Zn	-0.002266	0.507348	0.747170
	Zn223	Zn	-0.001065	0.506620	0.247149
	Zn224	Zn	0.498637	0.757159	-0.002873
	Zn225	Zn	0.499459	0.256610	-0.003802
	Zn226	Zn	0.748729	0.006769	0.497434
	Zn227	Zn	0.249122	0.006719	0.495939
	N228	N	0.412883	0.971752	0.676568
	N229	N	0.587423	0.040917	0.677556
	N230	N	0.586902	0.972081	0.315430
	N231	N	0.413079	0.042176	0.317048
	N232	N	0.679262	0.419917	0.961495
	N233	N	0.679409	0.594591	0.031092
	N234	N	0.318005	0.594509	0.963433
	N235	N	0.318167	0.418977	0.031277
	N236	N	0.963370	0.687083	0.408877
	N237	N	0.032874	0.686669	0.583101
	N238	N	0.963747	0.325984	0.584763
	N239	N	0.033893	0.327071	0.411357
	N240	N	0.963450	0.419020	0.678303
	N241	N	0.032824	0.593894	0.676904
	N242	N	0.963924	0.593888	0.315969
	N243	N	0.033171	0.418552	0.316434
	N244	N	0.411051	0.687817	0.962948
	N245	N	0.585913	0.687507	0.031707
	N246	N	0.586157	0.326723	0.961517
	N247	N	0.412004	0.326147	0.030989
	N248	N	0.680063	0.971826	0.409166
	N249	N	0.678062	0.042212	0.582872
	N250	N	0.319058	0.972189	0.583552
	N251	N	0.319048	0.041687	0.409148
	N252	N	0.912862	0.471933	0.175798
	N253	N	0.086902	0.541136	0.178237
	N254	N	0.083399	0.472149	0.818859
	N255	N	0.909714	0.542374	0.815272
	N256	N	0.179252	0.919377	0.461184
	N257	N	0.179655	0.093836	0.531261
	N258	N	0.819025	0.093177	0.461946
	N259	N	0.818385	0.919631	0.532312
	N260	N	0.464524	0.185986	0.909780
	N261	N	0.533748	0.186940	0.083746
	N262	N	0.463931	0.827409	0.083459
	N263	N	0.534683	0.826065	0.909269
	N264	N	0.464190	0.920959	0.176146
	N265	N	0.533611	0.094246	0.177448
	N266	N	0.464952	0.093410	0.816001
	N267	N	0.534850	0.918789	0.815587
	N268	N	0.911666	0.186939	0.462595
	N269	N	0.085531	0.186314	0.532320
	N270	N	0.084940	0.826772	0.461051
	N271	N	0.909859	0.824757	0.531023
	N272	N	0.177932	0.472575	0.911093
	N273	N	0.180313	0.541377	0.085817
	N274	N	0.818911	0.472389	0.082749
	N275	N	0.817116	0.542913	0.908389
	O276	O	1.124645	0.824853	0.015029
	H277	H	1.125899	0.831462	0.008771
	H278	H	1.142971	0.811775	0.005569
	O279	O	-0.188574	0.211336	0.794701
	H280	H	-0.179078	0.226067	0.783497
	H281	H	-0.208892	0.206252	0.790658
	O282	O	0.715484	0.531652	0.712440
	H283	H	0.720866	0.528220	0.720497
	H284	H	0.735119	0.523771	0.710989
	O285	O	0.428780	0.494764	0.511855
	H286	H	0.423029	0.479910	0.510515
	H287	H	0.424867	0.502369	0.497725
	O288	O	1.159189	-0.195919	0.786663
	H289	H	1.168940	-0.218680	0.773408
	H290	H	1.134295	-0.209634	0.790874
	O291	O	0.715738	0.487694	0.520049
	H292	H	0.713828	0.480526	0.494448
	H293	H	0.709634	0.468348	0.512791
	O294	O	0.221056	0.119053	-0.038188
	H295	H	0.227353	0.110465	-0.032311
	H296	H	0.220525	0.102451	-0.036047
	O297	O	0.863613	0.203204	0.138673
	H298	H	0.873773	0.198794	0.127566
	H299	H	0.871294	0.198278	0.137271
	O300	O	0.200097	0.209937	0.199133
	H301	H	0.213826	0.216432	0.218449
	H302	H	0.210269	0.189722	0.179486
	O303	O	0.048343	0.074968	-0.096354
	H304	H	0.053575	0.088495	-0.100124
	H305	H	0.045094	0.069517	-0.094037
	O306	O	1.035336	0.033462	0.105575
	H307	H	1.020164	0.047677	0.110319
	H308	H	1.042572	0.025001	0.109031
	O309	O	0.442114	0.677320	0.523596
	H310	H	0.461514	0.668657	0.510949
	H311	H	0.458621	0.682386	0.548838
	O312	O	0.323973	0.325995	0.316414
	H313	H	0.332728	0.356684	0.316200
	H314	H	0.337174	0.327068	0.337054
	O315	O	0.344501	0.702874	0.645344
	H316	H	0.342931	0.684227	0.631190
	H317	H	0.373056	0.691317	0.644839
	O318	O	0.934088	1.024945	-0.117021
	H319	H	0.932055	1.029238	-0.120636
	H320	H	0.942145	1.025883	-0.120989
	O321	O	0.042636	0.830175	1.126595
	H322	H	0.036522	0.814209	1.134830
	H323	H	0.033415	0.832395	1.117019
	O324	O	0.834267	0.004488	1.033881
	H325	H	0.841858	0.000639	1.022594
	H326	H	0.827604	0.009630	1.034530
	O327	O	0.680123	0.693130	0.682210
	H328	H	0.682188	0.655204	0.691970
	H329	H	0.687432	0.704046	0.636571
	O330	O	0.455913	0.513811	0.428286
	H331	H	0.446300	0.519613	0.415583
	H332	H	0.455059	0.512803	0.427583
	O333	O	0.600427	0.473925	0.352192
	H334	H	0.608470	0.462707	0.343301
	H335	H	0.600350	0.463646	0.359299
	O336	O	0.512626	0.704408	0.329307
	H337	H	0.502566	0.715929	0.323870
	H338	H	0.511450	0.719941	0.337529
	O339	O	0.289465	0.717945	0.470722
	H340	H	0.305598	0.721824	0.490433
	H341	H	0.274428	0.722598	0.480510
	O342	O	0.069309	0.814659	0.091959
	H343	H	0.075652	0.806240	0.106229
	H344	H	0.071860	0.808104	0.074208
	O345	O	0.554652	0.458557	0.714593
	H346	H	0.565718	0.468165	0.704601
	H347	H	0.549568	0.443074	0.715629
	O348	O	0.280576	0.473087	0.714251
	H349	H	0.284899	0.482930	0.730481
	H350	H	0.270274	0.460703	0.721825
	O351	O	0.151014	0.010536	1.000742
	H352	H	0.147838	0.000794	1.017299
	H353	H	0.167446	0.027505	1.000907
	O354	O	0.959734	0.119671	1.097808
	H355	H	0.977422	0.119131	1.102302
	H356	H	0.960150	0.128721	1.094155
	O357	O	0.551315	0.710830	0.372714
	H358	H	0.554341	0.721880	0.366033
	H359	H	0.565090	0.703643	0.386831
	O360	O	0.536506	0.517948	0.279012
	H361	H	0.539470	0.525333	0.281957
	H362	H	0.553693	0.520424	0.275265
	O363	O	0.709272	0.305268	0.289033
	H364	H	0.692075	0.295624	0.276439
	H365	H	0.693345	0.297839	0.285070
	O366	O	0.812470	0.097477	0.936642
	H367	H	0.829834	0.097456	0.930230
	H368	H	0.799742	0.120607	0.942198
	O369	O	-0.019739	0.075364	1.180003
	H370	H	-0.014245	0.081025	1.178984
	H371	H	-0.011927	0.090534	1.180337
	O372	O	0.025489	0.960695	0.781215
	H373	H	0.030251	0.951871	0.778621
	H374	H	0.024568	0.949835	0.784872
	O375	O	0.797548	-0.028272	0.205981
	H376	H	0.788410	-0.008370	0.209087
	H377	H	0.793471	-0.011115	0.202908
	O378	O	0.710088	0.303537	0.464344
	H379	H	0.713416	0.298877	0.432433
	H380	H	0.703952	0.284733	0.457413
	O381	O	0.303239	0.712610	0.294733
	H382	H	0.308364	0.727877	0.286881
	H383	H	0.302036	0.709601	0.340946
	O384	O	0.470078	0.293573	0.712231
	H385	H	0.452357	0.284691	0.720928
	H386	H	0.458645	0.292046	0.724878
	O387	O	0.217870	0.979213	0.783573
	H388	H	0.216442	0.953691	0.780257
	H389	H	0.232922	0.968010	0.759565
	O390	O	-0.055712	1.149072	0.859088
	H391	H	-0.045486	1.163078	0.857203
	H392	H	-0.074384	1.152818	0.843472
	O393	O	1.106249	0.146940	0.209536
	H394	H	1.126904	0.156130	0.211482
	H395	H	1.121522	0.162183	0.219250
	O396	O	0.459663	0.493187	0.281651
	H397	H	0.459138	0.502943	0.273686
	H398	H	0.457119	0.527381	0.276153
	O399	O	0.520847	0.723954	0.716332
	H400	H	0.541024	0.725655	0.720363
	H401	H	0.536244	0.735737	0.735361
	O402	O	0.861862	0.026501	0.837183
	H403	H	0.853899	0.022522	0.842541
	H404	H	0.856219	0.025242	0.832207
	O405	O	0.668042	0.344448	0.625420
	H406	H	0.669970	0.363770	0.608246
	H407	H	0.644338	0.348713	0.620327
	O408	O	0.859120	1.015542	0.864679
	H409	H	0.850443	1.016900	0.853467
	H410	H	0.857982	1.014483	0.868830
	O411	O	0.892226	0.843465	-0.063585
	H412	H	0.901653	0.841704	-0.057259
	H413	H	0.875798	0.830493	-0.060174
	O414	O	0.134282	-0.024571	0.150223
	H415	H	0.117144	-0.026743	0.153754
	H416	H	0.142852	-0.035100	0.159088
	O417	O	0.366226	0.329626	0.674039
	H418	H	0.344201	0.304471	0.677046
	H419	H	0.369733	0.342466	0.687764
	O420	O	0.993908	-0.107872	0.798038
	H421	H	0.986281	-0.111268	0.782921
	H422	H	0.988507	-0.121969	0.802584
	O423	O	1.032370	0.921898	0.081921
	H424	H	1.034373	0.923659	0.089363
	H425	H	1.035457	0.922173	0.083118
	O426	O	0.707471	0.715982	0.520953
	H427	H	0.736553	0.738162	0.523205
	H428	H	0.703717	0.687104	0.495578
	O429	O	0.764508	0.780938	0.233810
	H430	H	0.770198	0.785031	0.199768
	H431	H	0.760695	0.806084	0.240105
	O432	O	1.055499	0.229456	1.018457
	H433	H	1.073526	0.225452	1.011874
	H434	H	1.078417	0.235532	1.012676
	O435	O	0.300589	0.300410	0.536865
	H436	H	0.293979	0.310024	0.545036
	H437	H	0.279778	0.286016	0.542736
	O438	O	0.279857	0.523120	0.279322
	H439	H	0.287341	0.551974	0.278325
	H440	H	0.258634	0.546205	0.261462
	O441	O	0.657846	0.592261	0.380944
	H442	H	0.651210	0.581281	0.371658
	H443	H	0.671847	0.575192	0.361049
	O444	O	0.539641	0.298663	0.286032
	H445	H	0.515763	0.291341	0.294713
	H446	H	0.520021	0.302115	0.268373
	O447	O	0.474187	0.298871	0.486371
	H448	H	0.454559	0.291364	0.501610
	H449	H	0.483181	0.310340	0.501922
	O450	O	1.013357	0.121998	0.001972
	H451	H	1.022786	0.122957	-0.009855
	H452	H	0.998431	0.122974	-0.005382
	O453	O	0.562220	0.540037	0.500821
	H454	H	0.560910	0.547117	0.497652
	H455	H	0.552465	0.531366	0.512211
	O456	O	0.182109	0.831354	1.051810
	H457	H	0.169708	0.839472	1.040190
	H458	H	0.161951	0.844423	1.057869
	O459	O	0.443911	0.562097	0.717784
	H460	H	0.463403	0.563515	0.718637
	H461	H	0.443639	0.565952	0.711822
	O462	O	0.332183	0.395336	0.443190
	H463	H	0.334955	0.391090	0.433798
	H464	H	0.330755	0.401732	0.446245
	O465	O	0.304151	0.569546	0.575460
	H466	H	0.295275	0.555539	0.560923
	H467	H	0.303224	0.568235	0.585495
	O468	O	-0.147283	0.788731	0.016859
	H469	H	-0.157257	0.776662	0.009089
	H470	H	-0.147010	0.787702	0.007686
	O471	O	0.580827	0.355562	0.574974
	H472	H	0.574957	0.341264	0.594742
	H473	H	0.563353	0.364851	0.563160
	O474	O	0.825219	1.021484	0.031001
	H475	H	0.835629	1.023892	0.024430
	H476	H	0.805546	1.043602	0.036268
	O477	O	0.216281	0.222710	0.781754
	H478	H	0.200381	0.201653	0.792122
	H479	H	0.200271	0.218516	0.793783
