data_Molecule from HDF5

_cell_length_a		16.164279
_cell_length_b		16.248741
_cell_length_c		16.451931
_cell_angle_alpha	89.538467
_cell_angle_beta	90.095792
_cell_angle_gamma	90.216462
_symmetry_space_group_name_H-M	'P 1'
_symmetry_Int_Tables_number		1

loop_
	_symmetry_equiv_pos_as_xyz
	x,y,z

loop_
	_atom_site_label
	_atom_site_type_symbol
	_atom_site_fract_x
	_atom_site_fract_y
	_atom_site_fract_z
	H0	H	0.393933	0.839535	0.712304
	H1	H	0.600784	0.164118	0.708852
	H2	H	0.596591	0.838142	0.276969
	H3	H	0.395702	0.164045	0.274825
	H4	H	0.711061	0.407220	0.832827
	H5	H	0.713086	0.602020	0.157187
	H6	H	0.278303	0.605618	0.833188
	H7	H	0.279358	0.402275	0.156564
	H8	H	0.831665	0.717063	0.392412
	H9	H	0.160231	0.714340	0.589785
	H10	H	0.831686	0.285961	0.591705
	H11	H	0.161348	0.291584	0.397412
	H12	H	0.831934	0.397507	0.712269
	H13	H	0.157975	0.604515	0.710164
	H14	H	0.831517	0.602337	0.277320
	H15	H	0.158780	0.402232	0.278799
	H16	H	0.395566	0.721304	0.833089
	H17	H	0.597204	0.719234	0.156021
	H18	H	0.595452	0.289854	0.831811
	H19	H	0.393711	0.282470	0.154420
	H20	H	0.709029	0.835950	0.396769
	H21	H	0.710896	0.165184	0.587927
	H22	H	0.281576	0.838033	0.592494
	H23	H	0.283102	0.165532	0.393126
	H24	H	0.891794	0.340380	0.213356
	H25	H	0.098514	0.665403	0.211407
	H26	H	0.098262	0.341097	0.778334
	H27	H	0.889765	0.663221	0.771898
	H28	H	0.212207	0.902650	0.330709
	H29	H	0.213721	0.098965	0.654198
	H30	H	0.781598	0.100120	0.330481
	H31	H	0.779834	0.898529	0.654044
	H32	H	0.331834	0.218195	0.891865
	H33	H	0.660760	0.216643	0.089523
	H34	H	0.332450	0.786152	0.095041
	H35	H	0.660568	0.788880	0.896021
	H36	H	0.333063	0.898739	0.210981
	H37	H	0.660205	0.104341	0.208774
	H38	H	0.334180	0.106282	0.773085
	H39	H	0.660197	0.902223	0.778571
	H40	H	0.897072	0.218819	0.330921
	H41	H	0.099086	0.218487	0.653892
	H42	H	0.094920	0.786962	0.330639
	H43	H	0.894811	0.782105	0.653697
	H44	H	0.210043	0.339724	0.897509
	H45	H	0.210642	0.666885	0.091945
	H46	H	0.781014	0.338893	0.094312
	H47	H	0.784390	0.668276	0.896774
	H48	H	0.405921	0.116787	0.580935
	H49	H	0.589670	0.885072	0.584952
	H50	H	0.594645	0.119758	0.397120
	H51	H	0.396396	0.884172	0.407124
	H52	H	0.585326	0.416305	0.106335
	H53	H	0.592014	0.596684	0.880060
	H54	H	0.405486	0.585672	0.105732
	H55	H	0.407288	0.407006	0.879655
	H56	H	0.113514	0.600258	0.404817
	H57	H	0.878182	0.593845	0.580308
	H58	H	0.112275	0.412546	0.589554
	H59	H	0.876920	0.410392	0.400359
	H60	H	0.113232	0.409515	0.588879
	H61	H	0.880453	0.586147	0.582986
	H62	H	0.110263	0.587899	0.402538
	H63	H	0.878135	0.408819	0.402798
	H64	H	0.410622	0.600832	0.108941
	H65	H	0.587643	0.595837	0.880992
	H66	H	0.581985	0.401664	0.109602
	H67	H	0.395731	0.410720	0.877851
	H68	H	0.584319	0.116533	0.394258
	H69	H	0.588974	0.882957	0.591754
	H70	H	0.404530	0.118954	0.585984
	H71	H	0.404348	0.881395	0.391165
	H72	H	0.900839	0.620910	0.089549
	H73	H	0.084178	0.388344	0.084787
	H74	H	0.085721	0.618832	0.902305
	H75	H	0.906022	0.387130	0.904164
	H76	H	0.092478	0.914831	0.606184
	H77	H	0.090022	0.101475	0.376283
	H78	H	0.911147	0.097153	0.606923
	H79	H	0.904799	0.912130	0.378659
	H80	H	0.614126	0.096390	0.896330
	H81	H	0.382913	0.081095	0.085021
	H82	H	0.610579	0.922202	0.088107
	H83	H	0.378707	0.903385	0.907984
	H84	H	0.616576	0.907623	0.092348
	H85	H	0.375177	0.097666	0.095064
	H86	H	0.613394	0.098870	0.902521
	H87	H	0.384707	0.922886	0.905532
	H88	H	0.898786	0.097275	0.610103
	H89	H	0.093918	0.094629	0.377122
	H90	H	0.080802	0.907790	0.604901
	H91	H	0.905356	0.906809	0.377772
	H92	H	0.087726	0.619858	0.900152
	H93	H	0.090567	0.385827	0.087626
	H94	H	0.909441	0.618563	0.089215
	H95	H	0.901724	0.387404	0.904246
	H96	H	0.409570	0.117022	0.584948
	H97	H	0.583607	0.886296	0.588430
	H98	H	0.587632	0.114716	0.404261
	H99	H	0.413278	0.889738	0.404192
	H100	H	0.596628	0.407256	0.112191
	H101	H	0.588268	0.600318	0.879791
	H102	H	0.395087	0.596995	0.112999
	H103	H	0.404436	0.418469	0.881909
	H104	H	0.115340	0.595670	0.393730
	H105	H	0.876690	0.591378	0.587999
	H106	H	0.112471	0.411102	0.586214
	H107	H	0.879117	0.411259	0.402812
	H108	H	0.904496	0.618532	0.081825
	H109	H	0.083725	0.386571	0.091680
	H110	H	0.084679	0.618683	0.898737
	H111	H	0.904054	0.386376	0.901180
	H112	H	0.092018	0.900955	0.610101
	H113	H	0.085112	0.095326	0.379613
	H114	H	0.903786	0.086465	0.606082
	H115	H	0.900163	0.909298	0.376272
	H116	H	0.611702	0.092032	0.902094
	H117	H	0.380260	0.098538	0.074471
	H118	H	0.611591	0.909401	0.077221
	H119	H	0.375658	0.912939	0.890577
	C120	C	0.376008	0.009790	0.614365
	C121	C	0.617817	0.992935	0.615211
	C122	C	0.617621	0.009072	0.370983
	C123	C	0.375057	0.992882	0.370976
	C124	C	0.617159	0.381703	0.002322
	C125	C	0.618919	0.626054	0.987013
	C126	C	0.374082	0.625148	0.002618
	C127	C	0.372650	0.380648	0.985870
	C128	C	0.004242	0.623365	0.371186
	C129	C	0.986698	0.621276	0.613270
	C130	C	0.004300	0.380086	0.616704
	C131	C	0.986941	0.381947	0.373267
	C132	C	0.874481	0.511299	0.116278
	C133	C	0.116455	0.494794	0.116470
	C134	C	0.116298	0.511753	0.872531
	C135	C	0.874145	0.494393	0.872825
	C136	C	0.117690	0.879593	0.500305
	C137	C	0.119770	0.125253	0.484307
	C138	C	0.875047	0.123134	0.500943
	C139	C	0.874028	0.878785	0.484233
	C140	C	0.505121	0.125390	0.870734
	C141	C	0.487728	0.122951	0.113761
	C142	C	0.504532	0.882221	0.115121
	C143	C	0.488137	0.883212	0.873021
	C144	C	0.375103	0.887914	0.672778
	C145	C	0.619053	0.115681	0.669911
	C146	C	0.616430	0.886518	0.315448
	C147	C	0.375886	0.115511	0.313652
	C148	C	0.673002	0.385483	0.880890
	C149	C	0.674753	0.622722	0.108634
	C150	C	0.317219	0.624834	0.881397
	C151	C	0.317052	0.381592	0.107828
	C152	C	0.880508	0.678926	0.372716
	C153	C	0.110597	0.677371	0.610647
	C154	C	0.880725	0.323649	0.613569
	C155	C	0.111610	0.328335	0.376502
	C156	C	0.881263	0.379147	0.673298
	C157	C	0.109520	0.622528	0.670400
	C158	C	0.880614	0.622382	0.315298
	C159	C	0.110139	0.383361	0.317276
	C160	C	0.375397	0.682509	0.881336
	C161	C	0.617355	0.681220	0.108036
	C162	C	0.615380	0.327269	0.880590
	C163	C	0.373773	0.322054	0.106715
	C164	C	0.671979	0.885359	0.375067
	C165	C	0.674197	0.116037	0.610272
	C166	C	0.319471	0.887110	0.613204
	C167	C	0.320230	0.116222	0.372941
	C168	C	0.873452	0.388794	0.173684
	C169	C	0.116945	0.616824	0.172537
	C170	C	0.117082	0.389408	0.816803
	C171	C	0.872971	0.615885	0.813095
	C172	C	0.173736	0.882611	0.379067
	C173	C	0.175728	0.120865	0.605791
	C174	C	0.819493	0.121110	0.378934
	C175	C	0.818021	0.879113	0.605852
	C176	C	0.381243	0.180788	0.871874
	C177	C	0.611528	0.179084	0.110789
	C178	C	0.381427	0.824602	0.114200
	C179	C	0.611768	0.827209	0.875523
	C180	C	0.381834	0.880643	0.172042
	C181	C	0.611127	0.123276	0.170129
	C182	C	0.382613	0.125120	0.812753
	C183	C	0.611288	0.883203	0.816782
	C184	C	0.877073	0.180023	0.379082
	C185	C	0.118776	0.180298	0.605701
	C186	C	0.115353	0.824998	0.378829
	C187	C	0.874965	0.820998	0.605542
	C188	C	0.172480	0.388742	0.876269
	C189	C	0.172802	0.617668	0.113217
	C190	C	0.818285	0.388180	0.114522
	C191	C	0.819944	0.618324	0.874984
	C192	C	0.399935	0.095392	0.590889
	C193	C	0.594245	0.906956	0.594464
	C194	C	0.595351	0.094743	0.392344
	C195	C	0.398018	0.907223	0.393976
	C196	C	0.594572	0.402420	0.087221
	C197	C	0.595966	0.604119	0.902124
	C198	C	0.397204	0.601304	0.087367
	C199	C	0.395714	0.404947	0.901655
	C200	C	0.090600	0.601149	0.393673
	C201	C	0.900732	0.597330	0.590407
	C202	C	0.090273	0.403867	0.594537
	C203	C	0.900528	0.403730	0.395546
	C204	C	0.897952	0.597080	0.093474
	C205	C	0.092859	0.408983	0.094551
	C206	C	0.092903	0.596988	0.894131
	C207	C	0.897325	0.409091	0.896268
	C208	C	0.094939	0.901378	0.584965
	C209	C	0.096458	0.103723	0.399562
	C210	C	0.897727	0.100256	0.585667
	C211	C	0.896749	0.902431	0.399673
	C212	C	0.590746	0.102586	0.893695
	C213	C	0.401921	0.099267	0.091485
	C214	C	0.590480	0.906170	0.092385
	C215	C	0.402230	0.906336	0.894996
	Zn216	Zn	0.496855	0.002749	0.743640
	Zn217	Zn	0.496331	0.001590	0.242382
	Zn218	Zn	0.747059	0.503218	-0.004901
	Zn219	Zn	0.244345	0.503445	-0.005266
	Zn220	Zn	-0.004672	0.749991	0.492439
	Zn221	Zn	-0.003665	0.253441	0.493537
	Zn222	Zn	-0.004827	0.502382	0.743985
	Zn223	Zn	-0.004788	0.502472	0.244534
	Zn224	Zn	0.496230	0.754800	-0.005357
	Zn225	Zn	0.495346	0.251772	-0.007261
	Zn226	Zn	0.745722	0.000297	0.493049
	Zn227	Zn	0.247694	0.001201	0.492413
	N228	N	0.409576	0.965553	0.673651
	N229	N	0.584634	0.038266	0.672931
	N230	N	0.583291	0.964402	0.312892
	N231	N	0.409484	0.037927	0.312583
	N232	N	0.674400	0.418400	0.957525
	N233	N	0.675786	0.589111	0.032098
	N234	N	0.316350	0.589839	0.957776
	N235	N	0.316019	0.417157	0.031638
	N236	N	0.958365	0.679906	0.406727
	N237	N	0.033051	0.676820	0.575937
	N238	N	0.958271	0.323630	0.579448
	N239	N	0.033998	0.327142	0.410628
	N240	N	0.959342	0.413261	0.675487
	N241	N	0.031537	0.588566	0.672334
	N242	N	0.958528	0.588816	0.314063
	N243	N	0.031601	0.415724	0.314951
	N244	N	0.409854	0.683003	0.957809
	N245	N	0.583295	0.683310	0.031419
	N246	N	0.581327	0.324749	0.957243
	N247	N	0.407589	0.321484	0.030053
	N248	N	0.672929	0.962452	0.409021
	N249	N	0.673690	0.038618	0.577007
	N250	N	0.319899	0.963929	0.577739
	N251	N	0.319524	0.038884	0.407609
	N252	N	0.907466	0.466388	0.175156
	N253	N	0.082530	0.539266	0.174459
	N254	N	0.083048	0.466787	0.814234
	N255	N	0.905822	0.537877	0.811518
	N256	N	0.175084	0.915954	0.455656
	N257	N	0.176351	0.087531	0.529446
	N258	N	0.818093	0.086498	0.455506
	N259	N	0.817064	0.914209	0.529448
	N260	N	0.458410	0.181083	0.907072
	N261	N	0.533862	0.179208	0.076698
	N262	N	0.458903	0.825392	0.079389
	N263	N	0.534083	0.826779	0.909622
	N264	N	0.459237	0.915870	0.172508
	N265	N	0.532984	0.089365	0.172532
	N266	N	0.460674	0.091564	0.811530
	N267	N	0.533576	0.917484	0.815386
	N268	N	0.911068	0.181270	0.455879
	N269	N	0.084622	0.183230	0.529105
	N270	N	0.081023	0.823031	0.455250
	N271	N	0.909080	0.820575	0.528986
	N272	N	0.172428	0.465862	0.910154
	N273	N	0.172499	0.540797	0.078970
	N274	N	0.818864	0.465398	0.079469
	N275	N	0.820584	0.541926	0.911572
	O276	O	1.002892	0.058416	0.956869
	H277	H	1.007093	0.052001	0.954017
	H278	H	1.013629	0.056566	0.955822
	O279	O	0.530110	0.527135	0.514441
	H280	H	0.529210	0.522742	0.524602
	H281	H	0.536081	0.531756	0.519980
	O282	O	1.050369	1.088027	-0.058745
	H283	H	1.053365	1.079636	-0.053036
	H284	H	1.043530	1.086216	-0.044766
	O285	O	0.979375	0.075409	1.061263
	H286	H	0.978118	0.076656	1.060361
	H287	H	0.977709	0.071390	1.064457
	O288	O	0.499569	0.568756	0.499064
	H289	H	0.503695	0.569826	0.493690
	H290	H	0.494172	0.561721	0.504880
	O291	O	0.432646	0.508389	0.457430
	H292	H	0.436210	0.510640	0.452796
	H293	H	0.429016	0.508779	0.459678
	O294	O	0.445062	0.391151	0.583894
	H295	H	0.450006	0.391223	0.588747
	H296	H	0.439200	0.391914	0.585161
	O297	O	-0.059313	-0.088284	1.151490
	H298	H	-0.058752	-0.075493	1.148997
	H299	H	-0.063041	-0.088836	1.149424
	O300	O	0.053963	1.097013	-0.069326
	H301	H	0.051549	1.114062	-0.062357
	H302	H	0.044884	1.087890	-0.087004
	O303	O	0.878157	1.060403	-0.036247
	H304	H	0.877321	1.071716	-0.042860
	H305	H	0.872003	1.049788	-0.045621
	O306	O	-0.023656	1.037144	1.027157
	H307	H	-0.033414	1.036055	1.021584
	H308	H	-0.009563	1.037704	1.020312
	O309	O	0.468152	0.508785	0.436563
	H310	H	0.469237	0.504561	0.431383
	H311	H	0.475993	0.507699	0.438997
	O312	O	-0.147192	0.041146	-0.018206
	H313	H	-0.134736	0.032226	-0.023960
	H314	H	-0.150536	0.051417	-0.015918
	O315	O	1.123792	-0.022591	-0.017342
	H316	H	1.126891	-0.019078	-0.008172
	H317	H	1.112545	-0.017463	-0.010748
	O318	O	0.924401	0.996663	0.852710
	H319	H	0.919807	1.012027	0.842528
	H320	H	0.920087	0.996676	0.858960
	O321	O	0.422955	0.490262	1.591824
	H322	H	0.418096	0.484080	1.582045
	H323	H	0.411934	0.482095	1.599434
	O324	O	0.533171	0.395759	0.505350
	H325	H	0.529962	0.400436	0.502602
	H326	H	0.528809	0.384712	0.494289
	O327	O	-0.039046	0.095180	-0.004354
	H328	H	-0.044740	0.106257	-0.009337
	H329	H	-0.035577	0.087272	-0.007032
	O330	O	0.480772	0.493946	0.468613
	H331	H	0.485829	0.504288	0.460868
	H332	H	0.472628	0.496282	0.472657
	O333	O	-0.005859	0.872666	0.879976
	H334	H	0.001651	0.868687	0.884571
	H335	H	0.000159	0.873165	0.886160
	O336	O	0.112059	-0.066103	-0.138607
	H337	H	0.113467	-0.051612	-0.140960
	H338	H	0.106419	-0.051931	-0.135728
	O339	O	0.430134	0.407995	0.571806
	H340	H	0.418449	0.400421	0.560357
	H341	H	0.426964	0.418249	0.573667
	O342	O	1.039029	1.163183	1.042364
	H343	H	1.035574	1.172637	1.031765
	H344	H	1.031465	1.168826	1.041912
	O345	O	1.041752	1.130252	0.027277
	H346	H	1.039958	1.134822	0.030829
	H347	H	1.038656	1.134441	0.018730
	O348	O	0.531078	0.496831	0.521747
	H349	H	0.536451	0.501406	0.513984
	H350	H	0.531094	0.497700	0.529727
	O351	O	0.962887	-0.013421	0.986529
	H352	H	0.944177	-0.004314	0.978976
	H353	H	0.972133	-0.018920	0.990038
	O354	O	0.546631	0.502214	0.556735
	H355	H	0.546888	0.497397	0.560038
	H356	H	0.546958	0.511625	0.558979
	O357	O	0.926440	-0.121321	0.931744
	H358	H	0.930907	-0.115204	0.948439
	H359	H	0.926260	-0.136896	0.934947
	O360	O	0.521781	0.387321	0.502218
	H361	H	0.526044	0.384334	0.497371
	H362	H	0.525955	0.395997	0.511218
	O363	O	0.463948	0.434692	0.551046
	H364	H	0.458229	0.439251	0.542566
	H365	H	0.466001	0.449455	0.549061
	O366	O	1.157971	0.891538	0.924272
	H367	H	1.162519	0.899436	0.910036
	H368	H	1.164864	0.894563	0.919908
	O369	O	0.991624	0.029865	1.056482
	H370	H	0.995160	0.036882	1.053494
	H371	H	0.995752	0.027511	1.059711
	O372	O	-0.028879	-0.058633	0.103368
	H373	H	-0.030378	-0.072976	0.100333
	H374	H	-0.030071	-0.059121	0.102591
	O375	O	1.050436	-0.053568	-0.039801
	H376	H	1.055221	-0.058667	-0.040163
	H377	H	1.052984	-0.060756	-0.028733
	O378	O	0.415189	0.476943	0.570703
	H379	H	0.413490	0.471142	0.566386
	H380	H	0.422196	0.476821	0.573974
	O381	O	0.494002	0.461437	0.449396
	H382	H	0.493628	0.462432	0.454427
	H383	H	0.498330	0.458351	0.445231
