data_Molecule from HDF5

_cell_length_a		16.281146
_cell_length_b		16.328912
_cell_length_c		16.348420
_cell_angle_alpha	90.042406
_cell_angle_beta	89.718842
_cell_angle_gamma	90.008343
_symmetry_space_group_name_H-M	'P 1'
_symmetry_Int_Tables_number		1

loop_
	_symmetry_equiv_pos_as_xyz
	x,y,z

loop_
	_atom_site_label
	_atom_site_type_symbol
	_atom_site_fract_x
	_atom_site_fract_y
	_atom_site_fract_z
	H0	H	0.397966	0.836477	0.715017
	H1	H	0.595054	0.163279	0.713616
	H2	H	0.596858	0.837076	0.284000
	H3	H	0.399481	0.163064	0.286273
	H4	H	0.713913	0.402692	0.836682
	H5	H	0.711614	0.598249	0.163319
	H6	H	0.284658	0.597202	0.836180
	H7	H	0.283009	0.402099	0.163129
	H8	H	0.833717	0.713366	0.402762
	H9	H	0.161666	0.714929	0.597207
	H10	H	0.833919	0.285596	0.598757
	H11	H	0.161806	0.285505	0.401223
	H12	H	0.834483	0.401201	0.715308
	H13	H	0.162125	0.597416	0.711733
	H14	H	0.834598	0.598195	0.285625
	H15	H	0.161754	0.400948	0.284766
	H16	H	0.401275	0.714019	0.836303
	H17	H	0.596444	0.715511	0.162561
	H18	H	0.597573	0.285688	0.836189
	H19	H	0.399146	0.285879	0.162862
	H20	H	0.710987	0.836415	0.402159
	H21	H	0.710725	0.163694	0.596323
	H22	H	0.281933	0.837223	0.598162
	H23	H	0.283396	0.162884	0.402554
	H24	H	0.899329	0.336486	0.215004
	H25	H	0.096229	0.662914	0.213952
	H26	H	0.096328	0.336424	0.785573
	H27	H	0.900519	0.663281	0.785355
	H28	H	0.213727	0.901825	0.336403
	H29	H	0.210675	0.097988	0.662452
	H30	H	0.784763	0.096829	0.335786
	H31	H	0.782830	0.902633	0.661886
	H32	H	0.333978	0.213699	0.903253
	H33	H	0.661873	0.214344	0.096640
	H34	H	0.334488	0.786061	0.098442
	H35	H	0.662119	0.786128	0.900248
	H36	H	0.334684	0.901067	0.215033
	H37	H	0.661713	0.098849	0.212943
	H38	H	0.333687	0.098552	0.786589
	H39	H	0.661168	0.901371	0.783296
	H40	H	0.900575	0.214047	0.335853
	H41	H	0.094988	0.214902	0.662382
	H42	H	0.097133	0.784887	0.336450
	H43	H	0.898914	0.786129	0.662518
	H44	H	0.212468	0.336011	0.902365
	H45	H	0.211801	0.663479	0.097031
	H46	H	0.783326	0.336745	0.098200
	H47	H	0.784582	0.664105	0.902928
	H48	H	0.408772	0.115856	0.600781
	H49	H	0.582055	0.885823	0.596340
	H50	H	0.584681	0.114846	0.402819
	H51	H	0.390088	0.877311	0.400868
	H52	H	0.583625	0.409428	0.112133
	H53	H	0.580529	0.588431	0.888759
	H54	H	0.403218	0.597616	0.117059
	H55	H	0.403911	0.413168	0.884437
	H56	H	0.112653	0.587296	0.407815
	H57	H	0.881834	0.594758	0.591076
	H58	H	0.115207	0.405615	0.594311
	H59	H	0.882058	0.403364	0.411125
	H60	H	0.113879	0.404744	0.589573
	H61	H	0.881797	0.590144	0.595062
	H62	H	0.116409	0.594159	0.401377
	H63	H	0.883492	0.411559	0.408174
	H64	H	0.401741	0.590577	0.115103
	H65	H	0.593054	0.605084	0.880586
	H66	H	0.591139	0.397741	0.118345
	H67	H	0.412322	0.404687	0.885823
	H68	H	0.593820	0.115590	0.411331
	H69	H	0.590766	0.885614	0.583943
	H70	H	0.406545	0.113210	0.586967
	H71	H	0.420406	0.885169	0.395517
	H72	H	0.903673	0.616662	0.092479
	H73	H	0.090546	0.384045	0.092543
	H74	H	0.089739	0.616974	0.899455
	H75	H	0.909695	0.385374	0.904474
	H76	H	0.086788	0.904896	0.614978
	H77	H	0.090416	0.094413	0.383077
	H78	H	0.904914	0.098484	0.615912
	H79	H	0.901367	0.902509	0.381405
	H80	H	0.609373	0.088320	0.916948
	H81	H	0.381906	0.100440	0.086092
	H82	H	0.614681	0.909399	0.094740
	H83	H	0.383052	0.911668	0.904885
	H84	H	0.615350	0.903654	0.092415
	H85	H	0.384352	0.084059	0.092200
	H86	H	0.614884	0.085904	0.894334
	H87	H	0.379970	0.902736	0.906560
	H88	H	0.899031	0.091723	0.615729
	H89	H	0.092981	0.093059	0.382888
	H90	H	0.092429	0.905994	0.616658
	H91	H	0.902973	0.910632	0.384469
	H92	H	0.088364	0.613600	0.910480
	H93	H	0.091975	0.383573	0.092431
	H94	H	0.904397	0.616595	0.096135
	H95	H	0.906683	0.385743	0.912102
	H96	H	0.396581	0.119112	0.595230
	H97	H	0.596328	0.880860	0.597280
	H98	H	0.595954	0.119302	0.400075
	H99	H	0.407474	0.889596	0.424336
	H100	H	0.598045	0.411072	0.116284
	H101	H	0.602154	0.585317	0.883522
	H102	H	0.408363	0.593657	0.114210
	H103	H	0.401873	0.401941	0.881302
	H104	H	0.113535	0.596102	0.411197
	H105	H	0.880539	0.596023	0.596762
	H106	H	0.113466	0.409423	0.591988
	H107	H	0.879683	0.404693	0.402936
	H108	H	0.906890	0.615316	0.093751
	H109	H	0.091468	0.383470	0.093573
	H110	H	0.098643	0.617458	0.906273
	H111	H	0.902081	0.382833	0.905835
	H112	H	0.089573	0.909703	0.613596
	H113	H	0.090361	0.091400	0.384256
	H114	H	0.906995	0.090111	0.613446
	H115	H	0.909757	0.904455	0.383391
	H116	H	0.618043	0.106236	0.904978
	H117	H	0.377615	0.096568	0.102741
	H118	H	0.613188	0.909205	0.088787
	H119	H	0.383854	0.907931	0.913486
	C120	C	0.375209	0.008324	0.622548
	C121	C	0.618400	0.991733	0.620648
	C122	C	0.619533	0.008462	0.376984
	C123	C	0.377012	0.991571	0.378855
	C124	C	0.620248	0.377961	0.007755
	C125	C	0.619756	0.621784	0.991883
	C126	C	0.376513	0.621803	0.007802
	C127	C	0.377237	0.378814	0.991948
	C128	C	0.006239	0.620904	0.378707
	C129	C	0.989820	0.621556	0.621345
	C130	C	0.005954	0.378124	0.620974
	C131	C	0.989893	0.378018	0.378623
	C132	C	0.876403	0.507983	0.122233
	C133	C	0.119604	0.491782	0.120996
	C134	C	0.120512	0.507922	0.877783
	C135	C	0.877528	0.492324	0.878962
	C136	C	0.119095	0.878348	0.507388
	C137	C	0.119057	0.121452	0.491061
	C138	C	0.876010	0.121837	0.507387
	C139	C	0.876121	0.877992	0.491027
	C140	C	0.505819	0.121782	0.878123
	C141	C	0.489776	0.121938	0.121238
	C142	C	0.506303	0.878638	0.120962
	C143	C	0.490017	0.878750	0.878429
	C144	C	0.377728	0.885493	0.677397
	C145	C	0.615417	0.114705	0.675381
	C146	C	0.617310	0.885484	0.322059
	C147	C	0.378771	0.114149	0.323622
	C148	C	0.675745	0.381543	0.885171
	C149	C	0.673961	0.619011	0.114699
	C150	C	0.322477	0.617978	0.884844
	C151	C	0.321333	0.381528	0.114472
	C152	C	0.882630	0.675497	0.381784
	C153	C	0.112836	0.676799	0.617651
	C154	C	0.882882	0.323497	0.618923
	C155	C	0.113137	0.323332	0.380669
	C156	C	0.883271	0.380645	0.677160
	C157	C	0.113288	0.618204	0.674379
	C158	C	0.883002	0.618102	0.324029
	C159	C	0.112791	0.380445	0.322688
	C160	C	0.379833	0.676464	0.884996
	C161	C	0.617075	0.677447	0.114178
	C162	C	0.618228	0.323187	0.885204
	C163	C	0.378735	0.323579	0.114212
	C164	C	0.674044	0.885322	0.380674
	C165	C	0.673052	0.114900	0.617313
	C166	C	0.320163	0.885583	0.619318
	C167	C	0.321931	0.114512	0.382026
	C168	C	0.878788	0.385244	0.176975
	C169	C	0.116588	0.614424	0.175706
	C170	C	0.117917	0.385105	0.822816
	C171	C	0.880171	0.615082	0.823833
	C172	C	0.175127	0.881170	0.384821
	C173	C	0.173007	0.118685	0.613902
	C174	C	0.821954	0.118317	0.384481
	C175	C	0.820772	0.881382	0.613346
	C176	C	0.382826	0.176178	0.882020
	C177	C	0.612963	0.176528	0.117412
	C178	C	0.383419	0.823665	0.118618
	C179	C	0.613133	0.823933	0.880041
	C180	C	0.383370	0.881013	0.176509
	C181	C	0.612791	0.119317	0.175381
	C182	C	0.382667	0.118955	0.824059
	C183	C	0.612712	0.881306	0.822089
	C184	C	0.879407	0.176538	0.384518
	C185	C	0.115705	0.176793	0.613770
	C186	C	0.117995	0.822683	0.385037
	C187	C	0.878566	0.823692	0.613706
	C188	C	0.175150	0.384867	0.881203
	C189	C	0.174107	0.614719	0.117640
	C190	C	0.821429	0.385330	0.118818
	C191	C	0.822679	0.615414	0.882113
	C192	C	0.397496	0.094008	0.600705
	C193	C	0.596242	0.906183	0.598949
	C194	C	0.597690	0.094251	0.398259
	C195	C	0.399297	0.906205	0.400731
	C196	C	0.597719	0.399769	0.093524
	C197	C	0.598404	0.599543	0.906393
	C198	C	0.398072	0.600305	0.093327
	C199	C	0.399466	0.400306	0.905984
	C200	C	0.091954	0.599120	0.400429
	C201	C	0.903579	0.599903	0.600441
	C202	C	0.092185	0.400030	0.598491
	C203	C	0.903888	0.400008	0.401013
	C204	C	0.898512	0.594027	0.100605
	C205	C	0.097754	0.405762	0.099229
	C206	C	0.098642	0.593721	0.899128
	C207	C	0.899620	0.406748	0.900868
	C208	C	0.096254	0.900288	0.592948
	C209	C	0.097453	0.099506	0.405568
	C210	C	0.897470	0.100133	0.592887
	C211	C	0.898216	0.899423	0.405078
	C212	C	0.592094	0.099794	0.899083
	C213	C	0.403522	0.099978	0.100161
	C214	C	0.592322	0.900991	0.098504
	C215	C	0.404360	0.900945	0.901345
	Zn216	Zn	0.497771	-0.000238	0.750437
	Zn217	Zn	0.497901	0.000088	0.249092
	Zn218	Zn	0.748595	0.500440	0.000312
	Zn219	Zn	0.248352	0.499667	-0.000039
	Zn220	Zn	-0.002298	0.749580	0.499361
	Zn221	Zn	-0.002394	0.249809	0.499213
	Zn222	Zn	-0.001565	0.499946	0.749531
	Zn223	Zn	-0.001739	0.499830	0.250225
	Zn224	Zn	0.498490	0.750390	-0.000461
	Zn225	Zn	0.497990	0.249710	-0.000429
	Zn226	Zn	0.747342	0.000244	0.499126
	Zn227	Zn	0.247776	-0.000164	0.499971
	N228	N	0.411300	0.962906	0.679517
	N229	N	0.582071	0.037312	0.677508
	N230	N	0.584176	0.962842	0.319683
	N231	N	0.412744	0.036976	0.321641
	N232	N	0.677103	0.414840	0.962555
	N233	N	0.675890	0.585086	0.037668
	N234	N	0.319994	0.584852	0.962310
	N235	N	0.320525	0.415127	0.037403
	N236	N	0.960163	0.677588	0.414980
	N237	N	0.034957	0.678774	0.585187
	N238	N	0.960123	0.322095	0.584596
	N239	N	0.035716	0.321822	0.414736
	N240	N	0.960981	0.414081	0.678506
	N241	N	0.035685	0.584845	0.677082
	N242	N	0.960850	0.585127	0.321825
	N243	N	0.035149	0.413825	0.321394
	N244	N	0.412739	0.678745	0.962224
	N245	N	0.584012	0.679191	0.036862
	N246	N	0.584227	0.321090	0.962523
	N247	N	0.412877	0.321808	0.036987
	N248	N	0.675683	0.962764	0.414020
	N249	N	0.674995	0.037431	0.584055
	N250	N	0.318461	0.962908	0.586117
	N251	N	0.320584	0.037300	0.415476
	N252	N	0.912329	0.462532	0.179007
	N253	N	0.083499	0.536873	0.177952
	N254	N	0.084614	0.462505	0.820516
	N255	N	0.913404	0.537473	0.821691
	N256	N	0.176153	0.914758	0.462154
	N257	N	0.175265	0.084984	0.536859
	N258	N	0.819737	0.084950	0.461722
	N259	N	0.819316	0.914703	0.536086
	N260	N	0.460419	0.177839	0.914893
	N261	N	0.535458	0.178162	0.084441
	N262	N	0.460939	0.822240	0.084716
	N263	N	0.535831	0.822240	0.914386
	N264	N	0.460906	0.914453	0.177991
	N265	N	0.535113	0.086070	0.177896
	N266	N	0.460357	0.085669	0.821676
	N267	N	0.535307	0.914907	0.821337
	N268	N	0.912254	0.178742	0.461907
	N269	N	0.082788	0.178489	0.536456
	N270	N	0.083746	0.821016	0.462077
	N271	N	0.912435	0.821712	0.536435
	N272	N	0.177155	0.462418	0.914260
	N273	N	0.176059	0.537384	0.084337
	N274	N	0.819902	0.462804	0.085646
	N275	N	0.820997	0.538290	0.915682
	O276	O	1.023225	-0.116124	0.931490
	H277	H	1.024502	-0.121964	0.928882
	H278	H	1.025048	-0.122244	0.919418
	O279	O	0.374364	0.574479	0.652968
	H280	H	0.372320	0.563008	0.650893
	H281	H	0.373989	0.573472	0.657046
	O282	O	1.046973	0.910163	-0.066141
	H283	H	1.050220	0.902443	-0.068869
	H284	H	1.047617	0.909648	-0.063988
	O285	O	0.368932	0.586436	0.676197
	H286	H	0.366709	0.581167	0.674582
	H287	H	0.367365	0.585650	0.680386
