data_Molecule from HDF5

_cell_length_a		16.454658
_cell_length_b		16.376120
_cell_length_c		16.373779
_cell_angle_alpha	89.932507
_cell_angle_beta	90.106281
_cell_angle_gamma	90.351833
_symmetry_space_group_name_H-M	'P 1'
_symmetry_Int_Tables_number		1

loop_
	_symmetry_equiv_pos_as_xyz
	x,y,z

loop_
	_atom_site_label
	_atom_site_type_symbol
	_atom_site_fract_x
	_atom_site_fract_y
	_atom_site_fract_z
	H0	H	0.389549	0.824659	0.711832
	H1	H	0.597133	0.145082	0.710486
	H2	H	0.595102	0.824069	0.275610
	H3	H	0.393157	0.146055	0.275074
	H4	H	0.714094	0.378251	0.834857
	H5	H	0.711305	0.584053	0.155223
	H6	H	0.273545	0.586099	0.836064
	H7	H	0.276779	0.379509	0.155909
	H8	H	0.833113	0.699333	0.394344
	H9	H	0.154117	0.703670	0.599332
	H10	H	0.835935	0.262070	0.598623
	H11	H	0.154606	0.265369	0.393057
	H12	H	0.835502	0.377267	0.715220
	H13	H	0.154977	0.586122	0.714560
	H14	H	0.834649	0.584944	0.275869
	H15	H	0.153091	0.378297	0.274188
	H16	H	0.391363	0.700984	0.833345
	H17	H	0.596884	0.702240	0.154129
	H18	H	0.593262	0.268231	0.832074
	H19	H	0.392575	0.262672	0.154240
	H20	H	0.712206	0.824040	0.390597
	H21	H	0.713418	0.145231	0.594923
	H22	H	0.274774	0.824229	0.595446
	H23	H	0.272651	0.143093	0.386910
	H24	H	0.887070	0.324080	0.218410
	H25	H	0.098470	0.642378	0.216579
	H26	H	0.097592	0.322799	0.776095
	H27	H	0.891178	0.642092	0.775312
	H28	H	0.216214	0.875321	0.335086
	H29	H	0.218498	0.090027	0.651678
	H30	H	0.775924	0.089135	0.333759
	H31	H	0.774792	0.881713	0.654231
	H32	H	0.334622	0.204331	0.887498
	H33	H	0.653773	0.204079	0.095203
	H34	H	0.335257	0.763079	0.097259
	H35	H	0.651722	0.764688	0.888279
	H36	H	0.335079	0.879587	0.213326
	H37	H	0.652450	0.091665	0.215152
	H38	H	0.335081	0.089266	0.770265
	H39	H	0.652315	0.883458	0.773680
	H40	H	0.892969	0.203732	0.334661
	H41	H	0.099907	0.202241	0.655422
	H42	H	0.098578	0.760040	0.336773
	H43	H	0.891940	0.767012	0.656160
	H44	H	0.214698	0.324283	0.889923
	H45	H	0.216747	0.641044	0.102557
	H46	H	0.770130	0.324231	0.103228
	H47	H	0.774669	0.641418	0.890285
	H48	H	0.403804	0.099485	0.584135
	H49	H	0.586470	0.871668	0.577784
	H50	H	0.585149	0.100050	0.398624
	H51	H	0.401034	0.871346	0.408090
	H52	H	0.575453	0.390901	0.106557
	H53	H	0.586330	0.574409	0.879031
	H54	H	0.407687	0.570134	0.106717
	H55	H	0.397738	0.390881	0.878009
	H56	H	0.105203	0.568064	0.408962
	H57	H	0.880493	0.576476	0.586198
	H58	H	0.107650	0.390186	0.582910
	H59	H	0.882693	0.392797	0.410753
	H60	H	0.107503	0.398492	0.587086
	H61	H	0.881168	0.571767	0.586188
	H62	H	0.108808	0.573463	0.403206
	H63	H	0.883331	0.395567	0.406384
	H64	H	0.407816	0.577393	0.109694
	H65	H	0.584429	0.571752	0.879702
	H66	H	0.587189	0.387555	0.111183
	H67	H	0.401395	0.401215	0.882688
	H68	H	0.584211	0.097159	0.406447
	H69	H	0.588581	0.866899	0.587430
	H70	H	0.410143	0.097044	0.580153
	H71	H	0.402970	0.869226	0.399682
	H72	H	0.901246	0.596962	0.085636
	H73	H	0.084298	0.368365	0.089640
	H74	H	0.086292	0.598222	0.903206
	H75	H	0.899713	0.364967	0.900221
	H76	H	0.090056	0.898426	0.608416
	H77	H	0.081144	0.071192	0.381945
	H78	H	0.899120	0.070499	0.608651
	H79	H	0.902001	0.889680	0.378694
	H80	H	0.610682	0.084801	0.902248
	H81	H	0.383557	0.065504	0.081155
	H82	H	0.607767	0.899208	0.087436
	H83	H	0.379396	0.894143	0.901618
	H84	H	0.609939	0.888409	0.084922
	H85	H	0.378539	0.073657	0.088741
	H86	H	0.602176	0.071262	0.909729
	H87	H	0.379122	0.892320	0.900946
	H88	H	0.907493	0.068329	0.606157
	H89	H	0.082266	0.075351	0.380965
	H90	H	0.079814	0.897548	0.604662
	H91	H	0.901992	0.894629	0.380270
	H92	H	0.079674	0.594357	0.907356
	H93	H	0.080253	0.370621	0.084701
	H94	H	0.907804	0.596520	0.086967
	H95	H	0.912097	0.370999	0.905601
	H96	H	0.403383	0.097533	0.576688
	H97	H	0.578513	0.870907	0.585582
	H98	H	0.591697	0.101045	0.403325
	H99	H	0.409508	0.873293	0.404901
	H100	H	0.585029	0.400177	0.106358
	H101	H	0.583376	0.575079	0.879561
	H102	H	0.400998	0.572901	0.110264
	H103	H	0.409313	0.392019	0.880889
	H104	H	0.106714	0.576264	0.410899
	H105	H	0.879488	0.573594	0.590197
	H106	H	0.110658	0.391196	0.591733
	H107	H	0.880534	0.391572	0.406389
	H108	H	0.905504	0.595075	0.081163
	H109	H	0.086802	0.368134	0.082846
	H110	H	0.086706	0.595989	0.911065
	H111	H	0.899739	0.370087	0.914036
	H112	H	0.084463	0.889653	0.610056
	H113	H	0.085383	0.072894	0.380981
	H114	H	0.905817	0.076790	0.609205
	H115	H	0.906348	0.891371	0.380773
	H116	H	0.608262	0.070289	0.893142
	H117	H	0.381814	0.076839	0.076876
	H118	H	0.605877	0.895505	0.077386
	H119	H	0.379354	0.891934	0.903315
	C120	C	0.373832	-0.007152	0.612646
	C121	C	0.615877	0.975986	0.614430
	C122	C	0.616689	-0.006729	0.371743
	C123	C	0.372708	0.976289	0.371717
	C124	C	0.614492	0.361925	0.002350
	C125	C	0.615814	0.605126	0.985356
	C126	C	0.373244	0.604322	0.003232
	C127	C	0.372181	0.361789	0.986189
	C128	C	0.002144	0.603885	0.375221
	C129	C	0.986028	0.605259	0.618595
	C130	C	0.003476	0.361178	0.617965
	C131	C	0.986928	0.362219	0.375338
	C132	C	0.872344	0.490903	0.117094
	C133	C	0.115549	0.474434	0.117408
	C134	C	0.115320	0.490983	0.874962
	C135	C	0.872844	0.473946	0.874396
	C136	C	0.115927	0.862077	0.502544
	C137	C	0.116278	0.105316	0.486325
	C138	C	0.873795	0.104289	0.502433
	C139	C	0.872074	0.861700	0.485998
	C140	C	0.501990	0.106630	0.870104
	C141	C	0.486326	0.104790	0.113729
	C142	C	0.502678	0.862502	0.114851
	C143	C	0.484630	0.862576	0.870886
	C144	C	0.371609	0.872342	0.671990
	C145	C	0.616204	0.096970	0.671661
	C146	C	0.615093	0.872226	0.314367
	C147	C	0.372967	0.097429	0.313444
	C148	C	0.673836	0.360509	0.882469
	C149	C	0.673030	0.604179	0.106604
	C150	C	0.313711	0.604756	0.883324
	C151	C	0.315405	0.360492	0.107536
	C152	C	0.881468	0.660858	0.374954
	C153	C	0.106103	0.664327	0.618728
	C154	C	0.883644	0.301591	0.618236
	C155	C	0.106767	0.304123	0.373653
	C156	C	0.883557	0.359143	0.676069
	C157	C	0.106698	0.605407	0.675870
	C158	C	0.882094	0.603893	0.316002
	C159	C	0.105902	0.360584	0.314701
	C160	C	0.372528	0.661798	0.882033
	C161	C	0.616060	0.663052	0.106088
	C162	C	0.613717	0.305533	0.880810
	C163	C	0.372768	0.302311	0.106640
	C164	C	0.673587	0.872197	0.371362
	C165	C	0.674069	0.096971	0.614082
	C166	C	0.314319	0.872273	0.614280
	C167	C	0.313169	0.095999	0.369024
	C168	C	0.869131	0.371713	0.178007
	C169	C	0.117378	0.594396	0.177084
	C170	C	0.116376	0.370897	0.815522
	C171	C	0.872493	0.594190	0.815145
	C172	C	0.175926	0.858351	0.383005
	C173	C	0.177957	0.108247	0.604775
	C174	C	0.815310	0.106955	0.381909
	C175	C	0.813714	0.861981	0.606270
	C176	C	0.382372	0.165090	0.868539
	C177	C	0.605989	0.164698	0.114532
	C178	C	0.382988	0.802563	0.116156
	C179	C	0.604379	0.804453	0.869959
	C180	C	0.383192	0.860550	0.174092
	C181	C	0.605411	0.108539	0.174143
	C182	C	0.382216	0.107387	0.810735
	C183	C	0.604549	0.863020	0.812644
	C184	C	0.873475	0.164334	0.382460
	C185	C	0.118548	0.163924	0.606470
	C186	C	0.117495	0.800710	0.383589
	C187	C	0.871973	0.804738	0.607264
	C188	C	0.174632	0.371528	0.872328
	C189	C	0.176269	0.593705	0.120392
	C190	C	0.810906	0.371697	0.120446
	C191	C	0.814213	0.593840	0.872019
	C192	C	0.398715	0.076200	0.587742
	C193	C	0.591675	0.891801	0.590594
	C194	C	0.593753	0.077462	0.395639
	C195	C	0.397190	0.893023	0.396906
	C196	C	0.589927	0.385986	0.086297
	C197	C	0.591812	0.580858	0.901399
	C198	C	0.398246	0.580296	0.087109
	C199	C	0.395741	0.387246	0.902501
	C200	C	0.085261	0.579750	0.400389
	C201	C	0.902057	0.580921	0.594678
	C202	C	0.086936	0.385955	0.594185
	C203	C	0.903881	0.386287	0.400617
	C204	C	0.897697	0.574474	0.091831
	C205	C	0.090574	0.390807	0.092868
	C206	C	0.091074	0.574334	0.899982
	C207	C	0.896800	0.390450	0.899421
	C208	C	0.091671	0.888060	0.585800
	C209	C	0.090321	0.080118	0.402766
	C210	C	0.897515	0.079025	0.586309
	C211	C	0.896323	0.885240	0.401581
	C212	C	0.585181	0.082231	0.894508
	C213	C	0.403057	0.079249	0.089461
	C214	C	0.586094	0.887317	0.090272
	C215	C	0.401132	0.886015	0.894888
	Zn216	Zn	0.493392	-0.015090	0.742127
	Zn217	Zn	0.494403	-0.014895	0.243937
	Zn218	Zn	0.743548	0.482154	-0.005313
	Zn219	Zn	0.243881	0.482668	-0.004216
	Zn220	Zn	-0.006157	0.733593	0.496114
	Zn221	Zn	-0.004632	0.232950	0.495572
	Zn222	Zn	-0.005347	0.482628	0.746514
	Zn223	Zn	-0.005828	0.482565	0.246068
	Zn224	Zn	0.493826	0.733847	-0.006993
	Zn225	Zn	0.493445	0.233671	-0.007409
	Zn226	Zn	0.744596	-0.015716	0.493577
	Zn227	Zn	0.244415	-0.015289	0.493272
	N228	N	0.407988	0.948068	0.670976
	N229	N	0.580769	0.020770	0.672045
	N230	N	0.580833	0.948571	0.314220
	N231	N	0.409079	0.021982	0.314946
	N232	N	0.674167	0.394915	0.959001
	N233	N	0.673387	0.569304	0.030304
	N234	N	0.314026	0.569966	0.959809
	N235	N	0.314542	0.396210	0.031544
	N236	N	0.957170	0.661343	0.410744
	N237	N	0.030047	0.664275	0.583744
	N238	N	0.959194	0.302634	0.582647
	N239	N	0.031932	0.304973	0.410760
	N240	N	0.958949	0.395474	0.676026
	N241	N	0.030839	0.569783	0.676095
	N242	N	0.958082	0.569512	0.315816
	N243	N	0.030268	0.395724	0.315504
	N244	N	0.408827	0.661581	0.957723
	N245	N	0.581395	0.663961	0.029663
	N246	N	0.577824	0.305973	0.956669
	N247	N	0.407150	0.302993	0.030214
	N248	N	0.674875	0.948553	0.406043
	N249	N	0.674101	0.020605	0.579245
	N250	N	0.315390	0.948158	0.578282
	N251	N	0.312578	0.019595	0.404295
	N252	N	0.906644	0.446844	0.176107
	N253	N	0.080359	0.519106	0.175333
	N254	N	0.079992	0.446050	0.817234
	N255	N	0.908175	0.518586	0.816319
	N256	N	0.175077	0.895957	0.458105
	N257	N	0.176454	0.072428	0.529024
	N258	N	0.815490	0.070278	0.457487
	N259	N	0.813518	0.896385	0.529713
	N260	N	0.457640	0.164620	0.904712
	N261	N	0.530923	0.162342	0.077487
	N262	N	0.458365	0.803755	0.079976
	N263	N	0.528655	0.803857	0.905271
	N264	N	0.458658	0.897167	0.173419
	N265	N	0.530252	0.071636	0.173409
	N266	N	0.457692	0.071835	0.811523
	N267	N	0.529126	0.898317	0.812955
	N268	N	0.909123	0.162864	0.458438
	N269	N	0.080826	0.162230	0.531442
	N270	N	0.081117	0.802849	0.458782
	N271	N	0.907409	0.804229	0.531137
	N272	N	0.173930	0.447078	0.908812
	N273	N	0.175194	0.518280	0.083951
	N274	N	0.812797	0.446941	0.083172
	N275	N	0.814311	0.518140	0.908264
	O276	O	0.625965	0.405907	0.502450
	H277	H	0.632035	0.407432	0.496669
	H278	H	0.630052	0.397619	0.504579
	O279	O	0.357297	0.637231	0.430031
	H280	H	0.348650	0.637259	0.411759
	H281	H	0.354867	0.642451	0.445151
	O282	O	0.433261	0.546019	0.492792
	H283	H	0.438340	0.547771	0.487843
	H284	H	0.443039	0.533714	0.495662
	O285	O	1.148448	-0.034360	-0.057343
	H286	H	1.136876	-0.039337	-0.059604
	H287	H	1.154171	-0.050322	-0.054605
	O288	O	0.509372	0.486628	0.641036
	H289	H	0.509717	0.487020	0.630499
	H290	H	0.517457	0.482127	0.644981
	O291	O	0.373899	0.458458	0.553542
	H292	H	0.368355	0.452384	0.543480
	H293	H	0.368221	0.449110	0.551469
	O294	O	0.586808	0.437653	0.440553
	H295	H	0.591272	0.429819	0.453477
	H296	H	0.575212	0.435077	0.434388
	O297	O	1.091240	0.871357	1.103135
	H298	H	1.066972	0.862225	1.098326
	H299	H	1.086711	0.875276	1.089294
	O300	O	-0.563593	0.445969	-0.496101
	H301	H	-0.550856	0.451159	-0.496090
	H302	H	-0.582662	0.441128	-0.494323
	O303	O	0.516858	0.428195	0.458661
	H304	H	0.516356	0.438241	0.472659
	H305	H	0.519448	0.446354	0.464717
	O306	O	0.853421	-0.109800	-0.052125
	H307	H	0.840132	-0.104753	-0.046983
	H308	H	0.846740	-0.118674	-0.028697
	O309	O	0.626049	0.492403	0.597166
	H310	H	0.630915	0.522131	0.598718
	H311	H	0.629368	0.497621	0.616481
	O312	O	0.993888	1.129723	0.188997
	H313	H	0.984564	1.150025	0.185798
	H314	H	0.970381	1.122546	0.174703
	O315	O	1.538458	1.468008	0.557350
	H316	H	1.548119	1.479549	0.553290
	H317	H	1.553920	1.484446	0.557347
	O318	O	0.508974	0.488011	0.467586
	H319	H	0.509769	0.487052	0.481167
	H320	H	0.520567	0.493176	0.470276
	O321	O	0.978762	-0.225145	1.194020
	H322	H	0.969051	-0.237853	1.204697
	H323	H	0.976872	-0.234578	1.180589
	O324	O	-0.088599	0.061477	1.159944
	H325	H	-0.093171	0.068329	1.141224
	H326	H	-0.074961	0.059748	1.142551
	O327	O	0.382839	0.463973	0.516066
	H328	H	0.388042	0.478193	0.508121
	H329	H	0.389621	0.469125	0.504532
	O330	O	0.540733	0.363222	0.466162
	H331	H	0.541063	0.376753	0.461096
	H332	H	0.534321	0.355198	0.477336
	O333	O	1.006879	0.944065	0.875604
	H334	H	1.005776	0.933927	0.870868
	H335	H	0.999165	0.938739	0.881057
	O336	O	0.461156	0.525295	0.477885
	H337	H	0.435612	0.520928	0.474745
	H338	H	0.469122	0.516718	0.467001
	O339	O	1.024619	-0.003827	0.798935
	H340	H	1.029209	-0.031694	0.790425
	H341	H	1.042653	-0.000245	0.802035
	O342	O	-0.175375	0.969579	0.814845
	H343	H	-0.177718	0.983821	0.819030
	H344	H	-0.170017	0.974006	0.817227
	O345	O	0.171810	0.771897	0.973862
	H346	H	0.179391	0.767220	0.976866
	H347	H	0.167986	0.771764	0.972224
	O348	O	0.641645	0.652705	0.681297
	H349	H	0.660408	0.677932	0.695742
	H350	H	0.602545	0.643521	0.680868
	O351	O	0.037914	-0.183605	-0.011379
	H352	H	0.050160	-0.179059	-0.017451
	H353	H	0.032586	-0.180579	-0.025563
	O354	O	0.814327	0.795365	0.176116
	H355	H	0.821480	0.829416	0.181971
	H356	H	0.816774	0.800821	0.196603
	O357	O	0.077111	0.784137	-0.198791
	H358	H	0.094620	0.783795	-0.206037
	H359	H	0.074928	0.780101	-0.183375
	O360	O	0.707140	0.627510	0.571777
	H361	H	0.701713	0.648582	0.586489
	H362	H	0.720640	0.642240	0.585156
	O363	O	0.541306	0.591623	0.317095
	H364	H	0.539098	0.600997	0.322209
	H365	H	0.534793	0.588111	0.325766
	O366	O	0.430154	0.586916	0.334152
	H367	H	0.425397	0.616770	0.319578
	H368	H	0.435435	0.569849	0.348906
	O369	O	0.206021	1.006374	0.205627
	H370	H	0.174064	0.987840	0.216201
	H371	H	0.225525	1.003781	0.236511
	O372	O	0.353413	0.627886	0.481128
	H373	H	0.355377	0.639184	0.458260
	H374	H	0.339134	0.623892	0.482174
	O375	O	0.473503	0.407680	0.579081
	H376	H	0.484726	0.405683	0.592758
	H377	H	0.474932	0.404430	0.571939
	O378	O	0.067596	1.175828	-0.059886
	H379	H	0.073021	1.183413	-0.056116
	H380	H	0.090781	1.174220	-0.045570
	O381	O	0.962975	0.157653	0.792297
	H382	H	0.984159	0.153688	0.794980
	H383	H	0.978179	0.169084	0.783387
	O384	O	0.465151	0.423235	0.426589
	H385	H	0.458547	0.418369	0.431255
	H386	H	0.471234	0.433002	0.429567
	O387	O	0.980850	1.020272	0.005340
	H388	H	0.981281	1.022725	-0.004777
	H389	H	0.985579	1.028601	-0.005651
	O390	O	0.475353	0.551633	0.581847
	H391	H	0.460814	0.544091	0.571265
	H392	H	0.470269	0.543912	0.587070
	O393	O	1.210978	0.202114	1.019163
	H394	H	1.220352	0.211012	1.052794
	H395	H	1.226228	0.212516	1.041958
	O396	O	-0.064313	1.167708	1.076296
	H397	H	-0.059207	1.166880	1.053973
	H398	H	-0.083378	1.179530	1.062046
	O399	O	-0.195579	1.167858	0.953508
	H400	H	-0.207344	1.192262	0.949642
	H401	H	-0.190233	1.158230	0.929247
	O402	O	0.783581	-0.039468	1.193088
	H403	H	0.796348	-0.013010	1.176455
	H404	H	0.755999	-0.033570	1.219167
	O405	O	-0.227949	-0.237836	0.020668
	H406	H	-0.242250	-0.253601	0.045432
	H407	H	-0.233979	-0.250005	0.052478
	O408	O	1.443498	1.402266	1.559086
	H409	H	1.454778	1.401067	1.549875
	H410	H	1.435873	1.379192	1.561747
	O411	O	0.808196	1.149518	-0.143052
	H412	H	0.824084	1.157541	-0.149082
	H413	H	0.822734	1.140013	-0.156206
	O414	O	-0.014205	-0.082125	1.095075
	H415	H	-0.026826	-0.088835	1.072028
	H416	H	-0.029518	-0.085736	1.103043
	O417	O	-0.025324	0.046678	0.976502
	H418	H	-0.025599	0.040534	0.971627
	H419	H	-0.017238	0.064702	0.965115
	O420	O	0.178135	1.164982	0.173867
	H421	H	0.148456	1.148054	0.181589
	H422	H	0.165474	1.141070	0.188833
	O423	O	0.812905	-0.147971	-0.132098
	H424	H	0.819067	-0.128808	-0.129621
	H425	H	0.818035	-0.157913	-0.113934
	O426	O	0.204537	-0.013022	0.997209
	H427	H	0.204722	-0.017755	1.010166
	H428	H	0.211676	0.009993	1.007604
	O429	O	1.183350	0.861211	0.813052
	H430	H	1.187721	0.872910	0.822232
	H431	H	1.179085	0.858288	0.821606
