data_Molecule from HDF5

_cell_length_a		16.282349
_cell_length_b		16.277238
_cell_length_c		16.389633
_cell_angle_alpha	90.039992
_cell_angle_beta	90.093716
_cell_angle_gamma	90.156618
_symmetry_space_group_name_H-M	'P 1'
_symmetry_Int_Tables_number		1

loop_
	_symmetry_equiv_pos_as_xyz
	x,y,z

loop_
	_atom_site_label
	_atom_site_type_symbol
	_atom_site_fract_x
	_atom_site_fract_y
	_atom_site_fract_z
	H0	H	0.403395	0.838479	0.716358
	H1	H	0.602207	0.165705	0.715542
	H2	H	0.602497	0.838326	0.285603
	H3	H	0.404081	0.165103	0.285953
	H4	H	0.715956	0.404636	0.837217
	H5	H	0.720222	0.602737	0.162719
	H6	H	0.287998	0.599733	0.837442
	H7	H	0.286026	0.402195	0.163133
	H8	H	0.838543	0.714962	0.402413
	H9	H	0.167210	0.715010	0.597485
	H10	H	0.838791	0.287089	0.598448
	H11	H	0.166967	0.289313	0.403578
	H12	H	0.838686	0.401867	0.715882
	H13	H	0.165533	0.602540	0.717098
	H14	H	0.840075	0.600588	0.283888
	H15	H	0.165489	0.401348	0.284576
	H16	H	0.404329	0.717241	0.838204
	H17	H	0.601925	0.717134	0.163756
	H18	H	0.600719	0.285988	0.838505
	H19	H	0.404646	0.287901	0.164443
	H20	H	0.715922	0.837724	0.403504
	H21	H	0.717917	0.165555	0.598791
	H22	H	0.288586	0.838336	0.598456
	H23	H	0.289551	0.165668	0.402293
	H24	H	0.903570	0.337988	0.214068
	H25	H	0.103386	0.665046	0.216269
	H26	H	0.100665	0.338247	0.786112
	H27	H	0.902773	0.665616	0.785173
	H28	H	0.217017	0.903474	0.338036
	H29	H	0.218351	0.100926	0.662966
	H30	H	0.787323	0.099662	0.338535
	H31	H	0.787962	0.902048	0.663673
	H32	H	0.338369	0.213002	0.905152
	H33	H	0.666056	0.216727	0.100073
	H34	H	0.339377	0.787418	0.099340
	H35	H	0.667184	0.788769	0.904623
	H36	H	0.340275	0.901581	0.216930
	H37	H	0.666870	0.100898	0.216098
	H38	H	0.340813	0.101808	0.784428
	H39	H	0.666948	0.901872	0.785946
	H40	H	0.904310	0.216075	0.337856
	H41	H	0.102415	0.217511	0.663294
	H42	H	0.100396	0.787150	0.337591
	H43	H	0.904662	0.785783	0.663275
	H44	H	0.215565	0.337483	0.902639
	H45	H	0.217023	0.665404	0.098263
	H46	H	0.788064	0.338348	0.097326
	H47	H	0.789433	0.666297	0.903404
	H48	H	0.417298	0.114968	0.591424
	H49	H	0.603918	0.882862	0.594126
	H50	H	0.606106	0.119139	0.412028
	H51	H	0.412770	0.884463	0.403392
	H52	H	0.607118	0.413941	0.117566
	H53	H	0.606779	0.597132	0.881803
	H54	H	0.416066	0.597895	0.115263
	H55	H	0.414071	0.407418	0.887026
	H56	H	0.115057	0.584434	0.409744
	H57	H	0.880164	0.603897	0.603735
	H58	H	0.118610	0.403239	0.590932
	H59	H	0.884736	0.404985	0.405428
	H60	H	0.115530	0.416776	0.589941
	H61	H	0.889906	0.598466	0.578540
	H62	H	0.122516	0.596293	0.397489
	H63	H	0.888194	0.409739	0.412036
	H64	H	0.403996	0.597785	0.118326
	H65	H	0.592417	0.584613	0.889535
	H66	H	0.587624	0.417475	0.110876
	H67	H	0.406897	0.403686	0.883785
	H68	H	0.593563	0.120644	0.397517
	H69	H	0.590591	0.884795	0.602531
	H70	H	0.406389	0.118290	0.589464
	H71	H	0.413555	0.888454	0.411539
	H72	H	0.908732	0.617263	0.085704
	H73	H	0.083453	0.389540	0.092295
	H74	H	0.086504	0.614793	0.909608
	H75	H	0.904607	0.386416	0.912448
	H76	H	0.100972	0.913249	0.615596
	H77	H	0.102383	0.099157	0.382390
	H78	H	0.908588	0.090100	0.615100
	H79	H	0.905844	0.905385	0.384089
	H80	H	0.617778	0.085818	0.906995
	H81	H	0.387064	0.087812	0.100719
	H82	H	0.619520	0.906210	0.089642
	H83	H	0.385333	0.907735	0.903992
	H84	H	0.617135	0.916150	0.094558
	H85	H	0.383840	0.101024	0.098237
	H86	H	0.622777	0.100240	0.901757
	H87	H	0.387781	0.905895	0.912663
	H88	H	0.915989	0.094202	0.614458
	H89	H	0.097580	0.088464	0.386992
	H90	H	0.088939	0.910503	0.613480
	H91	H	0.908602	0.911828	0.385930
	H92	H	0.102040	0.617859	0.914459
	H93	H	0.101727	0.386042	0.084260
	H94	H	0.905679	0.621349	0.099563
	H95	H	0.905712	0.382952	0.901196
	H96	H	0.411147	0.119830	0.600419
	H97	H	0.590669	0.889161	0.587192
	H98	H	0.587380	0.113912	0.414623
	H99	H	0.405570	0.884425	0.409270
	H100	H	0.592420	0.398210	0.117775
	H101	H	0.587413	0.604385	0.885475
	H102	H	0.409555	0.587508	0.113769
	H103	H	0.406105	0.412389	0.886169
	H104	H	0.119306	0.602126	0.414956
	H105	H	0.889556	0.578827	0.597531
	H106	H	0.120610	0.411611	0.601657
	H107	H	0.887058	0.412782	0.403684
	H108	H	0.919375	0.616249	0.096085
	H109	H	0.098497	0.381251	0.103435
	H110	H	0.097240	0.621199	0.898682
	H111	H	0.915153	0.388010	0.906549
	H112	H	0.096250	0.901545	0.618499
	H113	H	0.089686	0.098550	0.385726
	H114	H	0.908810	0.098398	0.617161
	H115	H	0.913056	0.906028	0.385807
	H116	H	0.617775	0.098673	0.916733
	H117	H	0.388815	0.092834	0.087928
	H118	H	0.621036	0.907237	0.101054
	H119	H	0.389079	0.914535	0.909053
	C120	C	0.382144	0.010236	0.622533
	C121	C	0.624206	0.993584	0.622769
	C122	C	0.624302	0.009674	0.379758
	C123	C	0.381868	0.993742	0.379192
	C124	C	0.624422	0.380534	0.008346
	C125	C	0.624715	0.624210	0.992784
	C126	C	0.380923	0.623657	0.008801
	C127	C	0.380611	0.379730	0.993330
	C128	C	0.011107	0.623006	0.378606
	C129	C	0.994570	0.622984	0.622026
	C130	C	0.010615	0.380680	0.622633
	C131	C	0.994405	0.380081	0.378644
	C132	C	0.881929	0.509792	0.121422
	C133	C	0.124290	0.493483	0.122179
	C134	C	0.123636	0.509725	0.879185
	C135	C	0.880296	0.493972	0.878585
	C136	C	0.124414	0.879871	0.508566
	C137	C	0.125176	0.124331	0.492199
	C138	C	0.881818	0.123063	0.508680
	C139	C	0.880708	0.879149	0.492690
	C140	C	0.511601	0.123338	0.879828
	C141	C	0.494482	0.123178	0.123780
	C142	C	0.511490	0.880617	0.123339
	C143	C	0.495256	0.880831	0.880058
	C144	C	0.383436	0.887321	0.678215
	C145	C	0.622834	0.116631	0.678022
	C146	C	0.622321	0.886986	0.323982
	C147	C	0.383612	0.116185	0.323530
	C148	C	0.678551	0.383731	0.886099
	C149	C	0.681045	0.622175	0.114627
	C150	C	0.325680	0.620984	0.886303
	C151	C	0.324784	0.382046	0.114988
	C152	C	0.887674	0.677633	0.381281
	C153	C	0.117978	0.677826	0.618806
	C154	C	0.887628	0.324889	0.619594
	C155	C	0.117780	0.326034	0.382320
	C156	C	0.887498	0.382102	0.677764
	C157	C	0.117283	0.621343	0.677864
	C158	C	0.888264	0.620713	0.322690
	C159	C	0.117166	0.382032	0.323367
	C160	C	0.383788	0.679006	0.886618
	C161	C	0.622356	0.679019	0.115343
	C162	C	0.621679	0.324460	0.886826
	C163	C	0.383681	0.325388	0.115661
	C164	C	0.678666	0.886721	0.382546
	C165	C	0.679959	0.116738	0.619928
	C166	C	0.326475	0.887198	0.619735
	C167	C	0.326525	0.116457	0.381246
	C168	C	0.883134	0.386962	0.176434
	C169	C	0.122640	0.616371	0.177616
	C170	C	0.121412	0.387078	0.823572
	C171	C	0.882973	0.616923	0.823693
	C172	C	0.178948	0.883137	0.386327
	C173	C	0.180769	0.122271	0.614468
	C174	C	0.825690	0.120520	0.386709
	C175	C	0.825849	0.881796	0.614965
	C176	C	0.387911	0.177018	0.882977
	C177	C	0.617620	0.178460	0.120648
	C178	C	0.388338	0.825298	0.120125
	C179	C	0.618456	0.826127	0.883298
	C180	C	0.388653	0.882193	0.178252
	C181	C	0.617654	0.121242	0.178704
	C182	C	0.388953	0.121396	0.823572
	C183	C	0.618092	0.882083	0.824017
	C184	C	0.884096	0.178035	0.386330
	C185	C	0.123004	0.179872	0.614586
	C186	C	0.121163	0.825111	0.386282
	C187	C	0.883903	0.824036	0.614894
	C188	C	0.178292	0.386454	0.881919
	C189	C	0.179381	0.616592	0.119193
	C190	C	0.825916	0.386979	0.118313
	C191	C	0.826584	0.617380	0.882193
	C192	C	0.404947	0.095563	0.600384
	C193	C	0.601653	0.907753	0.600918
	C194	C	0.602186	0.095739	0.401621
	C195	C	0.404071	0.907879	0.401554
	C196	C	0.602211	0.403132	0.093696
	C197	C	0.602251	0.601985	0.907549
	C198	C	0.403205	0.601101	0.093821
	C199	C	0.402644	0.401419	0.907720
	C200	C	0.096724	0.601032	0.400889
	C201	C	0.908837	0.600411	0.599768
	C202	C	0.096149	0.403777	0.600770
	C203	C	0.908823	0.402497	0.400592
	C204	C	0.904623	0.595992	0.099932
	C205	C	0.101291	0.407720	0.099766
	C206	C	0.101778	0.595705	0.901291
	C207	C	0.902091	0.407987	0.900363
	C208	C	0.102018	0.902052	0.593890
	C209	C	0.103050	0.102051	0.407078
	C210	C	0.904504	0.100754	0.593685
	C211	C	0.902625	0.901398	0.407206
	C212	C	0.597114	0.101322	0.901907
	C213	C	0.408717	0.100707	0.101801
	C214	C	0.597102	0.903149	0.101524
	C215	C	0.409620	0.902898	0.902031
	Zn216	Zn	0.503655	0.001724	0.751514
	Zn217	Zn	0.503157	0.001660	0.251688
	Zn218	Zn	0.753326	0.502634	0.000369
	Zn219	Zn	0.251762	0.501217	0.000324
	Zn220	Zn	0.002579	0.751195	0.500309
	Zn221	Zn	0.003003	0.252484	0.500686
	Zn222	Zn	0.002038	0.501957	0.751014
	Zn223	Zn	0.003030	0.501320	0.250124
	Zn224	Zn	0.503054	0.752516	0.001465
	Zn225	Zn	0.502359	0.251185	0.001481
	Zn226	Zn	0.752551	0.001544	0.501223
	Zn227	Zn	0.253590	0.002129	0.500494
	N228	N	0.417112	0.964840	0.680288
	N229	N	0.589000	0.039257	0.679802
	N230	N	0.589457	0.964737	0.321953
	N231	N	0.417091	0.038806	0.322230
	N232	N	0.680207	0.417850	0.962881
	N233	N	0.682383	0.588780	0.037458
	N234	N	0.324029	0.586926	0.963145
	N235	N	0.323128	0.415550	0.037957
	N236	N	0.964824	0.679087	0.415294
	N237	N	0.040711	0.678864	0.584664
	N238	N	0.965001	0.323915	0.586039
	N239	N	0.040621	0.324997	0.416320
	N240	N	0.964973	0.416196	0.679779
	N241	N	0.039513	0.588149	0.680116
	N242	N	0.965898	0.587220	0.320925
	N243	N	0.039591	0.415059	0.321063
	N244	N	0.417242	0.680958	0.963729
	N245	N	0.588095	0.680522	0.038580
	N246	N	0.588682	0.322492	0.964016
	N247	N	0.417637	0.323782	0.038914
	N248	N	0.679993	0.963996	0.416503
	N249	N	0.681139	0.039095	0.586422
	N250	N	0.325507	0.964454	0.585712
	N251	N	0.325586	0.039219	0.415439
	N252	N	0.917355	0.464397	0.178310
	N253	N	0.089487	0.538592	0.179815
	N254	N	0.088176	0.464625	0.821904
	N255	N	0.915581	0.539074	0.821230
	N256	N	0.181216	0.916477	0.463516
	N257	N	0.182283	0.088237	0.537754
	N258	N	0.824329	0.086970	0.463640
	N259	N	0.823752	0.915324	0.537888
	N260	N	0.464978	0.178192	0.917491
	N261	N	0.540201	0.179820	0.087167
	N262	N	0.465643	0.824274	0.086495
	N263	N	0.541278	0.825000	0.917289
	N264	N	0.466048	0.915914	0.180294
	N265	N	0.540189	0.087520	0.180586
	N266	N	0.466659	0.088632	0.821459
	N267	N	0.540517	0.915780	0.822261
	N268	N	0.918107	0.179907	0.463276
	N269	N	0.089578	0.181634	0.537470
	N270	N	0.088214	0.823008	0.463404
	N271	N	0.917253	0.822384	0.537895
	N272	N	0.179866	0.463917	0.915674
	N273	N	0.180419	0.539204	0.085460
	N274	N	0.825346	0.464447	0.084722
	N275	N	0.824683	0.539920	0.915447
	O276	O	0.474873	0.527188	0.544492
	H277	H	0.477453	0.527087	0.546844
	H278	H	0.472137	0.526280	0.541317
	O279	O	0.017458	0.038355	-0.073246
	H280	H	0.021117	0.032507	-0.076751
	H281	H	0.017766	0.047773	-0.079445
	O282	O	0.480770	0.507446	0.522758
	H283	H	0.488332	0.509100	0.524567
	H284	H	0.480714	0.513116	0.517702
	O285	O	0.502808	0.505128	0.546617
	H286	H	0.500244	0.512286	0.544862
	H287	H	0.497613	0.501566	0.545077
	O288	O	1.002874	0.018287	-0.049148
	H289	H	1.005542	0.021516	-0.054827
	H290	H	1.008642	0.021349	-0.051270
	O291	O	-0.554837	0.491426	-0.498341
	H292	H	-0.559235	0.490440	-0.509041
	H293	H	-0.552252	0.488270	-0.499528
	O294	O	0.509590	0.490060	0.498032
	H295	H	0.510419	0.491696	0.507785
	H296	H	0.509218	0.484097	0.501083
	O297	O	-0.008972	1.012080	-0.058521
	H298	H	-0.012088	1.012736	-0.056750
	H299	H	-0.009817	1.007413	-0.056099
	O300	O	1.009713	0.027644	0.924590
	H301	H	1.006866	0.023365	0.926889
	H302	H	1.008439	0.024321	0.926274
	O303	O	0.522098	0.494583	0.521497
	H304	H	0.511933	0.490790	0.528201
	H305	H	0.525720	0.502159	0.520704
	O306	O	0.448201	1.455536	1.491288
	H307	H	0.450999	1.454363	1.500004
	H308	H	0.441384	1.446700	1.493512
	O309	O	0.524092	0.530174	0.460168
	H310	H	0.522868	0.530301	0.464138
	H311	H	0.527453	0.530151	0.457656
