data_Molecule from HDF5

_cell_length_a		16.401888
_cell_length_b		16.353458
_cell_length_c		16.098593
_cell_angle_alpha	89.829550
_cell_angle_beta	89.937871
_cell_angle_gamma	90.076264
_symmetry_space_group_name_H-M	'P 1'
_symmetry_Int_Tables_number		1

loop_
	_symmetry_equiv_pos_as_xyz
	x,y,z

loop_
	_atom_site_label
	_atom_site_type_symbol
	_atom_site_fract_x
	_atom_site_fract_y
	_atom_site_fract_z
	H0	H	0.410033	0.838067	0.708806
	H1	H	0.601888	0.165655	0.708928
	H2	H	0.603241	0.838241	0.284659
	H3	H	0.410999	0.166336	0.282624
	H4	H	0.724598	0.402751	0.832244
	H5	H	0.721636	0.599417	0.162227
	H6	H	0.294255	0.601671	0.832323
	H7	H	0.293039	0.400620	0.162226
	H8	H	0.845103	0.720236	0.394899
	H9	H	0.168856	0.720293	0.597138
	H10	H	0.845754	0.284648	0.600848
	H11	H	0.168400	0.285458	0.396097
	H12	H	0.844745	0.405980	0.712592
	H13	H	0.171130	0.599597	0.708951
	H14	H	0.843879	0.599707	0.283684
	H15	H	0.170754	0.407213	0.284263
	H16	H	0.411125	0.715135	0.832297
	H17	H	0.607630	0.715649	0.161855
	H18	H	0.607977	0.288700	0.830698
	H19	H	0.411988	0.288333	0.162497
	H20	H	0.724574	0.840878	0.396140
	H21	H	0.723909	0.164405	0.598449
	H22	H	0.287637	0.841756	0.599680
	H23	H	0.290209	0.165172	0.394038
	H24	H	0.913521	0.338936	0.209732
	H25	H	0.104930	0.667085	0.209352
	H26	H	0.107375	0.340088	0.781767
	H27	H	0.913665	0.667215	0.785061
	H28	H	0.221128	0.904982	0.332146
	H29	H	0.222344	0.103076	0.661627
	H30	H	0.793222	0.102116	0.332175
	H31	H	0.791508	0.901785	0.662077
	H32	H	0.346103	0.220197	0.894851
	H33	H	0.670077	0.217479	0.095993
	H34	H	0.346023	0.783720	0.098733
	H35	H	0.669845	0.786793	0.895933
	H36	H	0.343998	0.905344	0.210996
	H37	H	0.671204	0.098833	0.209973
	H38	H	0.342791	0.097190	0.784587
	H39	H	0.669942	0.904573	0.781804
	H40	H	0.908859	0.217048	0.332170
	H41	H	0.105694	0.216754	0.662293
	H42	H	0.104335	0.790495	0.331490
	H43	H	0.907337	0.787329	0.662313
	H44	H	0.224856	0.340339	0.896761
	H45	H	0.226360	0.664242	0.099004
	H46	H	0.791278	0.340401	0.099895
	H47	H	0.791060	0.664418	0.895118
	H48	H	0.412831	0.115720	0.579506
	H49	H	0.602863	0.886091	0.587988
	H50	H	0.602899	0.117563	0.407833
	H51	H	0.409491	0.885561	0.403447
	H52	H	0.601308	0.421129	0.110500
	H53	H	0.612625	0.587320	0.878421
	H54	H	0.421426	0.583158	0.111170
	H55	H	0.417224	0.409899	0.879559
	H56	H	0.120083	0.591419	0.404899
	H57	H	0.890119	0.598916	0.591228
	H58	H	0.125644	0.402434	0.591718
	H59	H	0.891318	0.401861	0.409860
	H60	H	0.119804	0.408861	0.579961
	H61	H	0.892261	0.597419	0.588638
	H62	H	0.125092	0.601249	0.396723
	H63	H	0.894731	0.416480	0.407760
	H64	H	0.421998	0.602022	0.115796
	H65	H	0.590814	0.589047	0.883623
	H66	H	0.589240	0.401711	0.112962
	H67	H	0.414614	0.409964	0.879398
	H68	H	0.603048	0.119530	0.401371
	H69	H	0.600522	0.885780	0.589700
	H70	H	0.405980	0.121390	0.593721
	H71	H	0.413840	0.887535	0.404197
	H72	H	0.920657	0.613477	0.077620
	H73	H	0.104141	0.385181	0.093953
	H74	H	0.105716	0.622652	0.895754
	H75	H	0.922020	0.387786	0.901593
	H76	H	0.089922	0.919205	0.609519
	H77	H	0.096208	0.097295	0.379755
	H78	H	0.912772	0.093516	0.615538
	H79	H	0.917396	0.910001	0.379793
	H80	H	0.623824	0.105223	0.907787
	H81	H	0.394235	0.094829	0.084964
	H82	H	0.621353	0.914833	0.090173
	H83	H	0.389642	0.904717	0.900398
	H84	H	0.626265	0.903517	0.096672
	H85	H	0.391795	0.093096	0.091594
	H86	H	0.618852	0.087080	0.909206
	H87	H	0.391726	0.902397	0.907799
	H88	H	0.915582	0.092520	0.614394
	H89	H	0.102240	0.097135	0.378453
	H90	H	0.095262	0.898680	0.617874
	H91	H	0.912500	0.908578	0.379051
	H92	H	0.094763	0.616076	0.906038
	H93	H	0.098052	0.387565	0.090626
	H94	H	0.897440	0.623095	0.087818
	H95	H	0.915152	0.390234	0.914718
	H96	H	0.421663	0.117809	0.593067
	H97	H	0.600079	0.887154	0.587154
	H98	H	0.597643	0.116937	0.404201
	H99	H	0.411069	0.888042	0.407529
	H100	H	0.611476	0.403212	0.119431
	H101	H	0.601391	0.606718	0.875149
	H102	H	0.405587	0.591555	0.117798
	H103	H	0.415895	0.412530	0.879508
	H104	H	0.122739	0.603734	0.410825
	H105	H	0.891462	0.595701	0.591097
	H106	H	0.121552	0.415812	0.592122
	H107	H	0.889370	0.408186	0.396892
	H108	H	0.919410	0.621508	0.103654
	H109	H	0.104938	0.387970	0.086522
	H110	H	0.109608	0.618566	0.910745
	H111	H	0.908018	0.383812	0.902774
	H112	H	0.110508	0.914763	0.616694
	H113	H	0.099060	0.092159	0.380980
	H114	H	0.915505	0.095478	0.615297
	H115	H	0.913325	0.913405	0.380512
	H116	H	0.625019	0.094318	0.892072
	H117	H	0.391211	0.099521	0.088959
	H118	H	0.622505	0.903283	0.082953
	H119	H	0.392795	0.909674	0.905498
	C120	C	0.384704	0.010944	0.618443
	C121	C	0.629138	0.993711	0.618249
	C122	C	0.629499	0.010900	0.375367
	C123	C	0.384069	0.994681	0.375297
	C124	C	0.629738	0.380486	0.004846
	C125	C	0.630090	0.622989	0.988130
	C126	C	0.387854	0.621758	0.005841
	C127	C	0.387355	0.381041	0.988654
	C128	C	0.015206	0.625889	0.375070
	C129	C	0.998999	0.625348	0.618685
	C130	C	0.015645	0.380338	0.618966
	C131	C	0.998911	0.380549	0.375564
	C132	C	0.885277	0.511376	0.118942
	C133	C	0.130701	0.494564	0.119042
	C134	C	0.131138	0.511231	0.875244
	C135	C	0.886816	0.494542	0.876214
	C136	C	0.127181	0.882588	0.505437
	C137	C	0.128123	0.124437	0.488609
	C138	C	0.886198	0.123240	0.505922
	C139	C	0.885442	0.881284	0.488675
	C140	C	0.515279	0.124184	0.873948
	C141	C	0.499729	0.123887	0.117783
	C142	C	0.515822	0.879110	0.119007
	C143	C	0.499039	0.878848	0.874908
	C144	C	0.387789	0.887751	0.673071
	C145	C	0.624563	0.116620	0.672623
	C146	C	0.625462	0.887489	0.321180
	C147	C	0.388898	0.117320	0.319670
	C148	C	0.686059	0.382683	0.881108
	C149	C	0.684313	0.620257	0.112869
	C150	C	0.332319	0.621140	0.881712
	C151	C	0.331711	0.381769	0.112874
	C152	C	0.893290	0.681270	0.375924
	C153	C	0.120789	0.681438	0.616838
	C154	C	0.893885	0.324013	0.619405
	C155	C	0.120640	0.324678	0.376774
	C156	C	0.893514	0.383992	0.675138
	C157	C	0.122059	0.621316	0.672317
	C158	C	0.892681	0.621404	0.320664
	C159	C	0.121693	0.385139	0.321276
	C160	C	0.390534	0.677383	0.881610
	C161	C	0.627401	0.677681	0.112498
	C162	C	0.627928	0.325923	0.880541
	C163	C	0.390544	0.325701	0.113103
	C164	C	0.685529	0.888868	0.376714
	C165	C	0.684984	0.116006	0.617475
	C166	C	0.327600	0.889341	0.618147
	C167	C	0.328829	0.116775	0.375218
	C168	C	0.890969	0.388241	0.173228
	C169	C	0.126295	0.617750	0.172723
	C170	C	0.128011	0.388663	0.819712
	C171	C	0.891687	0.618069	0.821830
	C172	C	0.182988	0.884855	0.381411
	C173	C	0.183731	0.122745	0.612713
	C174	C	0.831123	0.121799	0.381547
	C175	C	0.829543	0.882229	0.612826
	C176	C	0.393966	0.180942	0.875317
	C177	C	0.621862	0.178896	0.115884
	C178	C	0.394069	0.822823	0.118269
	C179	C	0.621354	0.824773	0.876167
	C180	C	0.392936	0.883551	0.173527
	C181	C	0.622543	0.119451	0.172259
	C182	C	0.392246	0.119788	0.820579
	C183	C	0.621351	0.883489	0.819402
	C184	C	0.888544	0.178938	0.381553
	C185	C	0.126121	0.179402	0.612844
	C186	C	0.124701	0.828132	0.381000
	C187	C	0.887163	0.825459	0.613019
	C188	C	0.186393	0.388681	0.876856
	C189	C	0.186772	0.616395	0.117753
	C190	C	0.830339	0.388720	0.118424
	C191	C	0.831016	0.616733	0.876805
	C192	C	0.407111	0.096328	0.595533
	C193	C	0.607356	0.908458	0.595106
	C194	C	0.607796	0.096070	0.397799
	C195	C	0.405267	0.909153	0.398408
	C196	C	0.607143	0.402242	0.091929
	C197	C	0.608325	0.600783	0.901378
	C198	C	0.409921	0.598992	0.092571
	C199	C	0.409298	0.404109	0.901991
	C200	C	0.100371	0.604940	0.397418
	C201	C	0.913581	0.603513	0.596730
	C202	C	0.100389	0.402443	0.595012
	C203	C	0.913840	0.402376	0.398301
	C204	C	0.906241	0.597262	0.096220
	C205	C	0.108724	0.408964	0.096873
	C206	C	0.109836	0.596796	0.897584
	C207	C	0.908546	0.409328	0.899616
	C208	C	0.105094	0.904462	0.592344
	C209	C	0.105791	0.102232	0.402099
	C210	C	0.908237	0.100347	0.592628
	C211	C	0.907798	0.904040	0.402110
	C212	C	0.600450	0.102088	0.896431
	C213	C	0.414423	0.102225	0.095162
	C214	C	0.601297	0.900710	0.096489
	C215	C	0.413730	0.899653	0.897733
	Zn216	Zn	0.506474	0.001312	0.746240
	Zn217	Zn	0.507297	0.002322	0.247352
	Zn218	Zn	0.756965	0.502187	-0.002602
	Zn219	Zn	0.259146	0.502277	-0.002505
	Zn220	Zn	0.006165	0.754213	0.497003
	Zn221	Zn	0.006404	0.251449	0.497315
	Zn222	Zn	0.008402	0.503158	0.747110
	Zn223	Zn	0.007882	0.503599	0.246924
	Zn224	Zn	0.508814	0.750234	-0.002912
	Zn225	Zn	0.508225	0.253332	-0.003969
	Zn226	Zn	0.758534	0.002596	0.497346
	Zn227	Zn	0.255596	0.003336	0.497249
	N228	N	0.422805	0.964317	0.673118
	N229	N	0.590492	0.039649	0.673196
	N230	N	0.591114	0.964195	0.320272
	N231	N	0.422672	0.040266	0.319740
	N232	N	0.687372	0.415706	0.959651
	N233	N	0.686158	0.586866	0.034520
	N234	N	0.330729	0.587082	0.959940
	N235	N	0.329647	0.415406	0.034329
	N236	N	0.970406	0.684079	0.409287
	N237	N	0.043302	0.684051	0.584307
	N238	N	0.970724	0.321826	0.585051
	N239	N	0.043256	0.321776	0.409767
	N240	N	0.970081	0.418376	0.674944
	N241	N	0.045412	0.587158	0.673567
	N242	N	0.969431	0.587830	0.319685
	N243	N	0.045157	0.419159	0.320357
	N244	N	0.424327	0.678020	0.959801
	N245	N	0.594482	0.679448	0.033905
	N246	N	0.593554	0.324866	0.958553
	N247	N	0.424443	0.325167	0.034936
	N248	N	0.688348	0.966427	0.409475
	N249	N	0.687889	0.038623	0.584468
	N250	N	0.325263	0.967021	0.585035
	N251	N	0.325902	0.039581	0.409283
	N252	N	0.924279	0.465488	0.173799
	N253	N	0.092138	0.540790	0.173706
	N254	N	0.094384	0.465693	0.818425
	N255	N	0.925741	0.541215	0.821407
	N256	N	0.184513	0.917995	0.459832
	N257	N	0.185268	0.089326	0.534386
	N258	N	0.829468	0.088013	0.459887
	N259	N	0.828288	0.916141	0.534465
	N260	N	0.471494	0.183836	0.907709
	N261	N	0.544684	0.181780	0.082851
	N262	N	0.471468	0.820275	0.084999
	N263	N	0.544559	0.821910	0.910099
	N264	N	0.469726	0.917575	0.174514
	N265	N	0.545377	0.086048	0.173756
	N266	N	0.468742	0.085353	0.819584
	N267	N	0.544163	0.916464	0.818346
	N268	N	0.921764	0.180117	0.459985
	N269	N	0.092237	0.180564	0.534705
	N270	N	0.090778	0.826739	0.459136
	N271	N	0.921304	0.824905	0.534938
	N272	N	0.188168	0.465774	0.910786
	N273	N	0.189522	0.538781	0.085283
	N274	N	0.826903	0.466341	0.085270
	N275	N	0.827873	0.538998	0.909899
	O276	O	-0.063680	0.091866	-0.018553
	H277	H	-0.047382	0.091978	-0.019977
	H278	H	-0.062539	0.101798	-0.010021
	O279	O	0.445364	0.441192	0.521826
	H280	H	0.440005	0.444060	0.518858
	H281	H	0.445879	0.444335	0.522483
	O282	O	0.393927	0.520251	0.443679
	H283	H	0.392247	0.529068	0.450136
	H284	H	0.390513	0.518819	0.441349
	O285	O	1.063865	0.028334	0.965812
	H286	H	1.061442	0.025285	0.966830
	H287	H	1.063462	0.026155	0.965332
	O288	O	0.978025	0.026157	0.016321
	H289	H	0.975742	0.035329	0.004645
	H290	H	0.981037	0.037107	0.018713
	O291	O	0.525693	0.424093	0.522216
	H292	H	0.527308	0.420024	0.517128
	H293	H	0.531530	0.429002	0.510088
	O294	O	0.971353	-0.036989	0.934859
	H295	H	0.976070	-0.036981	0.941320
	H296	H	0.971422	-0.040501	0.939532
	O297	O	0.020698	0.046748	0.025433
	H298	H	0.019075	0.046486	0.023650
	H299	H	0.016367	0.048923	0.032960
	O300	O	0.586912	0.410023	0.515948
	H301	H	0.577867	0.415249	0.507093
	H302	H	0.590297	0.406008	0.515866
	O303	O	0.509208	0.485283	0.495945
	H304	H	0.503786	0.487295	0.497611
	H305	H	0.509853	0.488387	0.494391
	O306	O	1.039791	0.009000	-0.017151
	H307	H	1.040088	0.010201	-0.025913
	H308	H	1.035562	0.003034	-0.012472
	O309	O	-0.002608	0.064143	1.036663
	H310	H	-0.020703	0.064126	1.030462
	H311	H	-0.005308	0.065720	1.041089
	O312	O	0.988277	1.068538	0.983160
	H313	H	0.995384	1.061261	0.983282
	H314	H	0.987455	1.069471	0.988685
	O315	O	0.504825	0.556025	0.495784
	H316	H	0.501518	0.566823	0.501274
	H317	H	0.507045	0.560391	0.494300
	O318	O	0.583594	0.500794	0.457262
	H319	H	0.591776	0.503059	0.448830
	H320	H	0.580507	0.497367	0.461149
	O321	O	-0.019042	1.008073	1.051800
	H322	H	-0.013891	1.001514	1.045823
	H323	H	-0.025635	1.010876	1.052939
	O324	O	0.495911	0.520787	0.522289
	H325	H	0.498467	0.521397	0.531628
	H326	H	0.496660	0.510754	0.531707
	O327	O	0.525028	0.553963	0.516653
	H328	H	0.516930	0.546777	0.515560
	H329	H	0.526822	0.545379	0.517428
	O330	O	0.485059	0.583707	0.506505
	H331	H	0.484810	0.582552	0.506267
	H332	H	0.481171	0.580355	0.499441
	O333	O	0.410034	0.516241	0.497528
	H334	H	0.415043	0.523426	0.498782
	H335	H	0.404843	0.519075	0.492756
	O336	O	0.481835	0.433024	0.547834
	H337	H	0.472389	0.416760	0.561060
	H338	H	0.478026	0.425142	0.542857
	O339	O	0.995066	1.063637	0.054623
	H340	H	0.999046	1.058871	0.059693
	H341	H	1.002414	1.060487	0.056302
	O342	O	0.507397	0.516866	0.485239
	H343	H	0.501765	0.511388	0.483563
	H344	H	0.512083	0.519982	0.490845
	O345	O	0.494703	0.507114	0.484341
	H346	H	0.502660	0.508381	0.478783
	H347	H	0.500676	0.512759	0.489571
	O348	O	-0.077879	0.026863	0.021833
	H349	H	-0.080349	0.023440	0.025924
	H350	H	-0.080268	0.029414	0.021698
	O351	O	-0.072119	1.083652	0.929438
	H352	H	-0.068013	1.099047	0.931031
	H353	H	-0.083610	1.094072	0.909071
	O354	O	0.437079	0.484171	0.419012
	H355	H	0.446710	0.483348	0.412307
	H356	H	0.439250	0.483689	0.418623
	O357	O	-0.001422	1.014717	0.993594
	H358	H	0.008210	1.022093	0.990969
	H359	H	0.005802	1.011671	1.005210
