data_Molecule from HDF5

_cell_length_a		16.301999
_cell_length_b		16.421961
_cell_length_c		16.444078
_cell_angle_alpha	89.855422
_cell_angle_beta	89.951844
_cell_angle_gamma	89.921064
_symmetry_space_group_name_H-M	'P 1'
_symmetry_Int_Tables_number		1

loop_
	_symmetry_equiv_pos_as_xyz
	x,y,z

loop_
	_atom_site_label
	_atom_site_type_symbol
	_atom_site_fract_x
	_atom_site_fract_y
	_atom_site_fract_z
	H0	H	0.391291	0.828914	0.716131
	H1	H	0.597306	0.149503	0.714204
	H2	H	0.598851	0.828920	0.276535
	H3	H	0.389226	0.148698	0.274490
	H4	H	0.713374	0.388965	0.836221
	H5	H	0.714064	0.590279	0.157763
	H6	H	0.276860	0.592639	0.836921
	H7	H	0.277643	0.386910	0.157882
	H8	H	0.833943	0.707297	0.393484
	H9	H	0.157572	0.705408	0.595871
	H10	H	0.834150	0.272690	0.598325
	H11	H	0.157129	0.270088	0.393868
	H12	H	0.834604	0.389650	0.713086
	H13	H	0.157432	0.591433	0.713254
	H14	H	0.834636	0.592466	0.277923
	H15	H	0.156885	0.384950	0.277488
	H16	H	0.391450	0.710485	0.838262
	H17	H	0.599376	0.708040	0.157389
	H18	H	0.598708	0.271723	0.836331
	H19	H	0.390519	0.267201	0.156045
	H20	H	0.712422	0.827935	0.395759
	H21	H	0.711992	0.150182	0.596175
	H22	H	0.277820	0.827943	0.596391
	H23	H	0.277061	0.149881	0.393755
	H24	H	0.889453	0.330483	0.219260
	H25	H	0.101159	0.648326	0.218048
	H26	H	0.101883	0.330519	0.775916
	H27	H	0.892873	0.649559	0.776925
	H28	H	0.217639	0.883144	0.337011
	H29	H	0.214649	0.090909	0.654855
	H30	H	0.775118	0.094254	0.336421
	H31	H	0.775374	0.885955	0.655548
	H32	H	0.336324	0.211391	0.890225
	H33	H	0.656614	0.207542	0.099913
	H34	H	0.335868	0.766567	0.102963
	H35	H	0.656034	0.769315	0.893693
	H36	H	0.334632	0.881953	0.217899
	H37	H	0.654545	0.094855	0.217436
	H38	H	0.335383	0.093909	0.775306
	H39	H	0.655083	0.883763	0.776347
	H40	H	0.888695	0.212589	0.337850
	H41	H	0.099827	0.208112	0.654775
	H42	H	0.102765	0.765441	0.337574
	H43	H	0.889513	0.767444	0.654896
	H44	H	0.216014	0.329044	0.894895
	H45	H	0.215213	0.649283	0.100191
	H46	H	0.777540	0.328781	0.099429
	H47	H	0.778263	0.649984	0.896082
	H48	H	0.399681	0.104667	0.586383
	H49	H	0.582039	0.876847	0.582764
	H50	H	0.588486	0.107868	0.394517
	H51	H	0.407518	0.876250	0.407055
	H52	H	0.577655	0.401947	0.106441
	H53	H	0.583095	0.588303	0.881442
	H54	H	0.404888	0.572789	0.109370
	H55	H	0.399281	0.401743	0.881814
	H56	H	0.115808	0.590668	0.402160
	H57	H	0.883510	0.572992	0.584372
	H58	H	0.109911	0.402020	0.586962
	H59	H	0.882954	0.403721	0.406781
	H60	H	0.113881	0.395065	0.591320
	H61	H	0.878617	0.579043	0.594143
	H62	H	0.104720	0.576402	0.420874
	H63	H	0.881024	0.398558	0.406500
	H64	H	0.412544	0.579754	0.108573
	H65	H	0.594835	0.578658	0.881452
	H66	H	0.585730	0.386754	0.113897
	H67	H	0.411696	0.405429	0.887270
	H68	H	0.572010	0.098519	0.406072
	H69	H	0.590508	0.873882	0.587172
	H70	H	0.408447	0.103740	0.591421
	H71	H	0.404710	0.875536	0.406318
	H72	H	0.914347	0.598908	0.083991
	H73	H	0.084612	0.377730	0.082522
	H74	H	0.082120	0.601641	0.903626
	H75	H	0.903516	0.376609	0.909116
	H76	H	0.082277	0.890985	0.609369
	H77	H	0.082822	0.078984	0.382933
	H78	H	0.893747	0.082135	0.613433
	H79	H	0.903698	0.896350	0.381225
	H80	H	0.609675	0.076989	0.904217
	H81	H	0.380695	0.083199	0.080116
	H82	H	0.606407	0.900576	0.080090
	H83	H	0.382068	0.900477	0.911561
	H84	H	0.608439	0.904474	0.090948
	H85	H	0.384849	0.072710	0.081140
	H86	H	0.610131	0.079509	0.904867
	H87	H	0.382430	0.903577	0.905449
	H88	H	0.907070	0.070496	0.605567
	H89	H	0.084913	0.079885	0.381902
	H90	H	0.091419	0.900052	0.609268
	H91	H	0.903725	0.900992	0.383538
	H92	H	0.086334	0.601872	0.909038
	H93	H	0.089557	0.374046	0.088795
	H94	H	0.898452	0.603227	0.081757
	H95	H	0.903342	0.372962	0.901549
	H96	H	0.407209	0.100513	0.582041
	H97	H	0.581632	0.874846	0.592457
	H98	H	0.591632	0.101140	0.415567
	H99	H	0.407321	0.875784	0.403942
	H100	H	0.595652	0.402170	0.112496
	H101	H	0.581612	0.574688	0.887456
	H102	H	0.403295	0.582554	0.112900
	H103	H	0.409781	0.392633	0.882607
	H104	H	0.108175	0.565797	0.397956
	H105	H	0.879972	0.584941	0.583324
	H106	H	0.111690	0.394339	0.582714
	H107	H	0.882851	0.400560	0.411087
	H108	H	0.905845	0.605842	0.096986
	H109	H	0.081186	0.376351	0.090977
	H110	H	0.088390	0.604583	0.903077
	H111	H	0.910265	0.376451	0.904190
	H112	H	0.079293	0.902906	0.604711
	H113	H	0.084544	0.077356	0.382967
	H114	H	0.911497	0.088672	0.609950
	H115	H	0.907634	0.898359	0.384053
	H116	H	0.608858	0.078047	0.906626
	H117	H	0.379804	0.077752	0.089741
	H118	H	0.611851	0.894279	0.088037
	H119	H	0.380397	0.896783	0.906467
	C120	C	0.373738	-0.002919	0.617299
	C121	C	0.616110	0.980970	0.617595
	C122	C	0.616040	-0.002910	0.374146
	C123	C	0.373585	0.981234	0.373667
	C124	C	0.617519	0.366996	0.005046
	C125	C	0.617911	0.611315	0.989102
	C126	C	0.374825	0.610490	0.005201
	C127	C	0.374596	0.367627	0.988947
	C128	C	0.003655	0.610000	0.375206
	C129	C	0.987333	0.609807	0.617349
	C130	C	0.005039	0.367466	0.617607
	C131	C	0.988174	0.368460	0.376131
	C132	C	0.874384	0.497071	0.118567
	C133	C	0.117082	0.481075	0.118727
	C134	C	0.117890	0.497487	0.874515
	C135	C	0.874650	0.481296	0.874632
	C136	C	0.116701	0.866580	0.503379
	C137	C	0.116224	0.109874	0.487408
	C138	C	0.872841	0.112209	0.504534
	C139	C	0.873823	0.867464	0.488195
	C140	C	0.504044	0.110575	0.874045
	C141	C	0.487083	0.109978	0.116225
	C142	C	0.503273	0.867645	0.118086
	C143	C	0.486948	0.868240	0.875856
	C144	C	0.372542	0.876823	0.676253
	C145	C	0.616149	0.101751	0.674788
	C146	C	0.617023	0.876707	0.316430
	C147	C	0.371281	0.100958	0.314406
	C148	C	0.675161	0.368493	0.884523
	C149	C	0.675347	0.610251	0.109756
	C150	C	0.316120	0.611266	0.885004
	C151	C	0.316281	0.366939	0.109482
	C152	C	0.882450	0.668406	0.374412
	C153	C	0.109087	0.667067	0.616034
	C154	C	0.882819	0.311087	0.617734
	C155	C	0.108759	0.309270	0.375106
	C156	C	0.883163	0.369056	0.674896
	C157	C	0.108970	0.610565	0.674578
	C158	C	0.882812	0.611294	0.316826
	C159	C	0.108725	0.366579	0.317020
	C160	C	0.373016	0.670105	0.885586
	C161	C	0.618553	0.669164	0.109250
	C162	C	0.617898	0.310258	0.884500
	C163	C	0.372639	0.307472	0.108535
	C164	C	0.673981	0.876372	0.375454
	C165	C	0.673477	0.102020	0.616311
	C166	C	0.316119	0.876180	0.616698
	C167	C	0.315167	0.101392	0.373589
	C168	C	0.871921	0.377626	0.178623
	C169	C	0.119392	0.600731	0.178190
	C170	C	0.119836	0.377702	0.815716
	C171	C	0.873801	0.601672	0.816378
	C172	C	0.177503	0.864677	0.384461
	C173	C	0.175243	0.110186	0.607219
	C174	C	0.814392	0.112998	0.384396
	C175	C	0.814658	0.866561	0.607830
	C176	C	0.384134	0.171114	0.871827
	C177	C	0.607975	0.168723	0.118491
	C178	C	0.383508	0.806879	0.120686
	C179	C	0.607867	0.808833	0.874636
	C180	C	0.382913	0.864310	0.178062
	C181	C	0.606920	0.112334	0.177046
	C182	C	0.383462	0.112663	0.814633
	C183	C	0.607533	0.865924	0.816429
	C184	C	0.870881	0.172229	0.385185
	C185	C	0.117928	0.168336	0.607121
	C186	C	0.120199	0.806156	0.384591
	C187	C	0.871576	0.807545	0.607363
	C188	C	0.176688	0.377144	0.874879
	C189	C	0.176299	0.601231	0.119590
	C190	C	0.816243	0.376943	0.118849
	C191	C	0.816996	0.601909	0.875748
	C192	C	0.397936	0.081139	0.593458
	C193	C	0.591800	0.897066	0.594317
	C194	C	0.591164	0.080722	0.398171
	C195	C	0.399008	0.897558	0.398529
	C196	C	0.593273	0.390292	0.089139
	C197	C	0.593653	0.587484	0.905273
	C198	C	0.399730	0.585661	0.088606
	C199	C	0.399564	0.392596	0.905732
	C200	C	0.087705	0.584937	0.399648
	C201	C	0.902812	0.585913	0.594170
	C202	C	0.089676	0.390099	0.593967
	C203	C	0.903957	0.393798	0.400815
	C204	C	0.899211	0.580873	0.094623
	C205	C	0.092235	0.397865	0.094425
	C206	C	0.092932	0.580884	0.898487
	C207	C	0.898791	0.397167	0.898073
	C208	C	0.091386	0.891014	0.586241
	C209	C	0.091076	0.085699	0.404190
	C210	C	0.897209	0.087494	0.587976
	C211	C	0.897951	0.891613	0.404872
	C212	C	0.587673	0.085401	0.898457
	C213	C	0.403561	0.085045	0.090922
	C214	C	0.586962	0.892704	0.093338
	C215	C	0.403380	0.893163	0.900655
	Zn216	Zn	0.495286	-0.011347	0.746556
	Zn217	Zn	0.494332	-0.010863	0.245391
	Zn218	Zn	0.745971	0.489322	-0.002865
	Zn219	Zn	0.245590	0.489326	-0.002562
	Zn220	Zn	-0.004658	0.737585	0.495864
	Zn221	Zn	-0.004311	0.239205	0.496165
	Zn222	Zn	-0.003329	0.489490	0.745558
	Zn223	Zn	-0.004145	0.489093	0.247268
	Zn224	Zn	0.495773	0.739430	-0.002621
	Zn225	Zn	0.496058	0.238535	-0.003981
	Zn226	Zn	0.744762	-0.010195	0.495874
	Zn227	Zn	0.245410	-0.011016	0.495100
	N228	N	0.407397	0.953080	0.676939
	N229	N	0.581706	0.025370	0.675909
	N230	N	0.582154	0.952992	0.315209
	N231	N	0.406586	0.024912	0.314175
	N232	N	0.675097	0.402854	0.960602
	N233	N	0.675120	0.575116	0.033970
	N234	N	0.317157	0.574883	0.960428
	N235	N	0.317211	0.403518	0.034217
	N236	N	0.958729	0.667800	0.409810
	N237	N	0.032391	0.666833	0.581422
	N238	N	0.959639	0.309638	0.583046
	N239	N	0.032670	0.310481	0.410958
	N240	N	0.960057	0.403210	0.675238
	N241	N	0.032294	0.575870	0.675603
	N242	N	0.959352	0.575885	0.316965
	N243	N	0.032433	0.402584	0.317568
	N244	N	0.408403	0.669914	0.961450
	N245	N	0.583473	0.669932	0.033205
	N246	N	0.583317	0.308776	0.960722
	N247	N	0.407940	0.307582	0.032450
	N248	N	0.673506	0.952422	0.410416
	N249	N	0.673752	0.025861	0.581714
	N250	N	0.316678	0.952061	0.581075
	N251	N	0.316669	0.025739	0.409582
	N252	N	0.907591	0.453446	0.178550
	N253	N	0.083114	0.525199	0.177808
	N254	N	0.084083	0.453623	0.815366
	N255	N	0.908860	0.525675	0.815716
	N256	N	0.175322	0.901864	0.459116
	N257	N	0.174239	0.074361	0.531809
	N258	N	0.815568	0.076276	0.459484
	N259	N	0.816014	0.903313	0.532875
	N260	N	0.459989	0.169842	0.908070
	N261	N	0.532419	0.167435	0.081373
	N262	N	0.459301	0.808999	0.084079
	N263	N	0.532093	0.809979	0.911066
	N264	N	0.458319	0.901712	0.176590
	N265	N	0.530841	0.076415	0.175903
	N266	N	0.459013	0.075749	0.815853
	N267	N	0.531461	0.902189	0.817019
	N268	N	0.906715	0.171603	0.460797
	N269	N	0.081706	0.167965	0.531809
	N270	N	0.082758	0.807345	0.459460
	N271	N	0.907902	0.807999	0.531968
	N272	N	0.175521	0.452456	0.910701
	N273	N	0.174880	0.525925	0.083301
	N274	N	0.817591	0.452247	0.082409
	N275	N	0.817405	0.525959	0.911292
	O276	O	0.630893	0.435373	0.334133
	H277	H	0.617075	0.438533	0.330904
	H278	H	0.638446	0.454221	0.333277
	O279	O	0.516414	0.431718	0.498821
	H280	H	0.514525	0.434311	0.496116
	H281	H	0.504690	0.431949	0.498646
	O282	O	0.327383	0.491426	0.686081
	H283	H	0.324490	0.478807	0.701504
	H284	H	0.330478	0.474489	0.678886
	O285	O	0.954474	-0.111760	-0.140342
	H286	H	0.963893	-0.121105	-0.157649
	H287	H	0.950286	-0.089217	-0.148804
	O288	O	0.404043	0.331328	0.741301
	H289	H	0.411768	0.319885	0.749787
	H290	H	0.393466	0.330571	0.756103
	O291	O	0.527643	0.471865	0.649760
	H292	H	0.536521	0.478565	0.653295
	H293	H	0.524724	0.456586	0.640356
	O294	O	0.337321	0.538758	0.461950
	H295	H	0.344103	0.542298	0.456894
	H296	H	0.332591	0.546340	0.466854
	O297	O	0.942920	1.088523	1.169535
	H298	H	0.943663	1.096524	1.174107
	H299	H	0.956955	1.072194	1.181540
	O300	O	-0.309952	0.292345	-0.225434
	H301	H	-0.304504	0.294561	-0.210033
	H302	H	-0.316196	0.306638	-0.219754
	O303	O	0.336564	0.528216	0.512843
	H304	H	0.347019	0.522180	0.534599
	H305	H	0.334371	0.516002	0.527697
	O306	O	0.960311	-0.160561	0.196213
	H307	H	0.955123	-0.174489	0.205960
	H308	H	0.963009	-0.148939	0.194613
	O309	O	0.550111	0.344110	0.460163
	H310	H	0.550928	0.343995	0.449754
	H311	H	0.559739	0.355903	0.454530
	O312	O	0.917362	0.906538	-0.088915
	H313	H	0.917416	0.916720	-0.094013
	H314	H	0.915413	0.931796	-0.077507
	O315	O	0.853905	0.821860	0.128251
	H316	H	0.880333	0.803254	0.127560
	H317	H	0.846623	0.808853	0.102705
	O318	O	0.657624	0.532979	0.523901
	H319	H	0.653122	0.545085	0.521262
	H320	H	0.658375	0.549788	0.530597
	O321	O	0.804422	-0.069156	1.206865
	H322	H	0.798069	-0.101352	1.195052
	H323	H	0.798873	-0.085782	1.226675
	O324	O	0.200044	-0.218107	0.971960
	H325	H	0.212039	-0.231081	0.966160
	H326	H	0.199789	-0.216565	0.975065
	O327	O	0.460807	0.394723	0.483578
	H328	H	0.474089	0.391872	0.487465
	H329	H	0.472822	0.383069	0.473504
	O330	O	0.357739	0.373066	0.635229
	H331	H	0.352742	0.366457	0.659918
	H332	H	0.352071	0.361195	0.622468
	O333	O	1.208456	1.132915	1.010602
	H334	H	1.214649	1.105359	1.002073
	H335	H	1.226874	1.151742	1.012807
	O336	O	0.572005	0.677510	0.486412
	H337	H	0.580854	0.696312	0.478902
	H338	H	0.562368	0.672052	0.508207
	O339	O	1.161219	0.000050	0.806849
	H340	H	1.167593	-0.009623	0.793110
	H341	H	1.165546	-0.008251	0.806674
	O342	O	-0.169279	1.006559	1.015183
	H343	H	-0.167377	1.016093	1.039132
	H344	H	-0.174218	1.001851	1.001188
	O345	O	-0.033087	0.885290	0.870186
	H346	H	-0.027574	0.887135	0.873723
	H347	H	-0.029795	0.892801	0.870556
	O348	O	0.405990	0.578754	0.369947
	H349	H	0.395160	0.574069	0.345458
	H350	H	0.418703	0.565468	0.383773
	O351	O	0.206494	0.012358	0.208027
	H352	H	0.217800	0.011321	0.222827
	H353	H	0.199376	0.001557	0.215148
	O354	O	0.840483	0.802655	0.036534
	H355	H	0.837846	0.821342	0.021412
	H356	H	0.845241	0.797233	0.019118
	O357	O	-0.117397	0.938811	-0.086121
	H358	H	-0.113726	0.943409	-0.084932
	H359	H	-0.128708	0.946050	-0.079853
	O360	O	0.496194	0.560063	0.512019
	H361	H	0.495834	0.550119	0.505801
	H362	H	0.484037	0.562860	0.503759
	O363	O	0.444425	0.625832	0.399992
	H364	H	0.432066	0.613027	0.399233
	H365	H	0.442419	0.618724	0.401415
	O366	O	0.340609	0.371991	0.450051
	H367	H	0.329747	0.365998	0.434343
	H368	H	0.358602	0.368721	0.449637
	O369	O	-0.092883	1.135487	0.059151
	H370	H	-0.076644	1.142903	0.066222
	H371	H	-0.087643	1.127500	0.071234
	O372	O	0.521238	0.477065	0.533133
	H373	H	0.511232	0.484599	0.531220
	H374	H	0.518472	0.480358	0.538958
	O375	O	0.545145	0.345976	0.488103
	H376	H	0.549787	0.348635	0.481516
	H377	H	0.536401	0.340400	0.491381
	O378	O	0.528020	0.526851	0.391864
	H379	H	0.521777	0.534745	0.385526
	H380	H	0.521867	0.526615	0.388551
	O381	O	0.570616	0.478185	0.469397
	H382	H	0.581369	0.467256	0.472690
	H383	H	0.570721	0.475462	0.473616
	O384	O	0.566925	0.441527	0.447123
	H385	H	0.580229	0.440324	0.443352
	H386	H	0.559817	0.456072	0.452834
	O387	O	1.092408	0.817207	0.015217
	H388	H	1.092974	0.823549	-0.001324
	H389	H	1.080043	0.816234	0.000898
	O390	O	0.674685	0.632179	0.579519
	H391	H	0.678471	0.631099	0.588816
	H392	H	0.659085	0.643429	0.576861
	O393	O	0.880478	-0.007426	0.864974
	H394	H	0.863331	-0.000692	0.859632
	H395	H	0.883952	0.017630	0.861113
	O396	O	0.180950	0.961042	1.053803
	H397	H	0.156425	0.958271	1.068798
	H398	H	0.178905	0.952683	1.050878
	O399	O	-0.061980	1.191689	0.802647
	H400	H	-0.073476	1.197007	0.809603
	H401	H	-0.071489	1.191625	0.790884
	O402	O	0.956578	0.056396	0.987689
	H403	H	0.955261	0.063398	0.982629
	H404	H	0.938478	0.048954	0.987775
	O405	O	-0.076953	0.150775	-0.194226
	H406	H	-0.070944	0.150281	-0.188311
	H407	H	-0.086728	0.172248	-0.175514
	O408	O	1.538942	1.530228	1.538591
	H409	H	1.534513	1.532619	1.554754
	H410	H	1.543166	1.525972	1.540526
	O411	O	0.978897	1.165644	0.169032
	H412	H	0.989833	1.172015	0.165675
	H413	H	0.998817	1.178080	0.184136
	O414	O	-0.133721	0.094079	0.903639
	H415	H	-0.125951	0.102641	0.921296
	H416	H	-0.147478	0.113181	0.909458
	O417	O	0.152133	0.118963	0.921834
	H418	H	0.151707	0.103787	0.907953
	H419	H	0.141309	0.108347	0.929252
	O420	O	0.171866	1.173841	0.175698
	H421	H	0.175963	1.179216	0.135189
	H422	H	0.186366	1.138727	0.174391
	O423	O	1.171853	-0.139308	-0.202635
	H424	H	1.161196	-0.151984	-0.180672
	H425	H	1.171385	-0.126641	-0.210732
	O426	O	0.055815	-0.047442	1.137808
	H427	H	0.040501	-0.035172	1.136014
	H428	H	0.043761	-0.047732	1.138729
	O429	O	1.030394	0.939894	0.872441
	H430	H	1.028068	0.940107	0.883268
	H431	H	1.021208	0.929406	0.869533
