data_Molecule from HDF5

_cell_length_a		16.250389
_cell_length_b		16.258917
_cell_length_c		16.402325
_cell_angle_alpha	90.261696
_cell_angle_beta	90.059276
_cell_angle_gamma	90.073675
_symmetry_space_group_name_H-M	'P 1'
_symmetry_Int_Tables_number		1

loop_
	_symmetry_equiv_pos_as_xyz
	x,y,z

loop_
	_atom_site_label
	_atom_site_type_symbol
	_atom_site_fract_x
	_atom_site_fract_y
	_atom_site_fract_z
	H0	H	0.397534	0.831152	0.712750
	H1	H	0.597939	0.157356	0.714618
	H2	H	0.598221	0.831214	0.282063
	H3	H	0.399683	0.158845	0.284490
	H4	H	0.713087	0.394294	0.835830
	H5	H	0.713707	0.594491	0.160299
	H6	H	0.283192	0.590417	0.835541
	H7	H	0.283606	0.396901	0.161951
	H8	H	0.833590	0.706988	0.403057
	H9	H	0.162601	0.708533	0.596783
	H10	H	0.834321	0.282374	0.595398
	H11	H	0.163402	0.281344	0.401405
	H12	H	0.834597	0.396681	0.712573
	H13	H	0.161361	0.596055	0.714805
	H14	H	0.834999	0.594926	0.283140
	H15	H	0.162547	0.395358	0.283794
	H16	H	0.399571	0.707974	0.834725
	H17	H	0.598241	0.711121	0.160034
	H18	H	0.595623	0.279350	0.835597
	H19	H	0.399366	0.278869	0.161466
	H20	H	0.711563	0.829497	0.400251
	H21	H	0.711375	0.158983	0.596593
	H22	H	0.285986	0.830144	0.593174
	H23	H	0.285166	0.159357	0.402476
	H24	H	0.897762	0.331743	0.214150
	H25	H	0.098859	0.658605	0.214665
	H26	H	0.096287	0.332256	0.782353
	H27	H	0.898847	0.659087	0.784808
	H28	H	0.211373	0.896782	0.335916
	H29	H	0.214268	0.094584	0.662373
	H30	H	0.784394	0.090996	0.335455
	H31	H	0.783908	0.897504	0.661844
	H32	H	0.334568	0.206732	0.900900
	H33	H	0.663292	0.208599	0.096236
	H34	H	0.333773	0.782653	0.093541
	H35	H	0.662641	0.780396	0.899899
	H36	H	0.335636	0.894712	0.212799
	H37	H	0.662972	0.095223	0.214166
	H38	H	0.335261	0.092562	0.783844
	H39	H	0.662373	0.895253	0.783800
	H40	H	0.901144	0.208354	0.336090
	H41	H	0.096823	0.210369	0.662548
	H42	H	0.094864	0.779194	0.337000
	H43	H	0.900952	0.781805	0.662323
	H44	H	0.210302	0.329694	0.900921
	H45	H	0.212552	0.658697	0.097019
	H46	H	0.785230	0.330315	0.094306
	H47	H	0.785041	0.659292	0.902509
	H48	H	0.405511	0.114932	0.602610
	H49	H	0.594218	0.874248	0.598824
	H50	H	0.593921	0.112348	0.401423
	H51	H	0.406593	0.878115	0.403201
	H52	H	0.591739	0.406309	0.112649
	H53	H	0.588711	0.589762	0.883135
	H54	H	0.406861	0.592500	0.114080
	H55	H	0.408857	0.399114	0.884667
	H56	H	0.112641	0.576535	0.402118
	H57	H	0.877990	0.594706	0.596265
	H58	H	0.113538	0.407797	0.592180
	H59	H	0.879811	0.400973	0.397720
	H60	H	0.117118	0.401020	0.595523
	H61	H	0.883832	0.587927	0.584569
	H62	H	0.119123	0.594049	0.398588
	H63	H	0.882017	0.395845	0.410097
	H64	H	0.401517	0.588502	0.114004
	H65	H	0.594542	0.586721	0.881456
	H66	H	0.587362	0.400111	0.113062
	H67	H	0.401597	0.395719	0.881730
	H68	H	0.585988	0.109907	0.405448
	H69	H	0.582782	0.880317	0.591569
	H70	H	0.417507	0.107437	0.589398
	H71	H	0.405634	0.878557	0.405112
	H72	H	0.909786	0.607451	0.084565
	H73	H	0.088840	0.378568	0.092457
	H74	H	0.093689	0.612294	0.907641
	H75	H	0.902702	0.376375	0.897115
	H76	H	0.102029	0.897602	0.618889
	H77	H	0.097056	0.087001	0.382540
	H78	H	0.913337	0.080273	0.609370
	H79	H	0.904619	0.897490	0.382329
	H80	H	0.619434	0.098371	0.903372
	H81	H	0.380681	0.093500	0.091359
	H82	H	0.613161	0.902659	0.084412
	H83	H	0.381874	0.899033	0.905738
	H84	H	0.615144	0.908206	0.095030
	H85	H	0.385946	0.082886	0.084999
	H86	H	0.611153	0.083669	0.917040
	H87	H	0.381738	0.903327	0.903170
	H88	H	0.907925	0.102934	0.617186
	H89	H	0.088782	0.082673	0.387003
	H90	H	0.092090	0.912163	0.611962
	H91	H	0.902217	0.901220	0.382741
	H92	H	0.091206	0.612018	0.903051
	H93	H	0.089973	0.378608	0.090893
	H94	H	0.897433	0.613591	0.092855
	H95	H	0.911369	0.380505	0.904532
	H96	H	0.398814	0.111441	0.584998
	H97	H	0.595593	0.878239	0.584507
	H98	H	0.594019	0.110102	0.409776
	H99	H	0.404355	0.878069	0.403445
	H100	H	0.594425	0.399168	0.115249
	H101	H	0.589276	0.583190	0.884313
	H102	H	0.407783	0.586125	0.112254
	H103	H	0.401787	0.403950	0.883716
	H104	H	0.112914	0.589944	0.415690
	H105	H	0.882538	0.580523	0.597081
	H106	H	0.114730	0.401159	0.587987
	H107	H	0.885089	0.409457	0.407473
	H108	H	0.911876	0.611868	0.100237
	H109	H	0.091127	0.378037	0.092377
	H110	H	0.089327	0.610748	0.907437
	H111	H	0.900416	0.378028	0.908840
	H112	H	0.083364	0.895529	0.614556
	H113	H	0.089138	0.092642	0.383534
	H114	H	0.890443	0.085220	0.617117
	H115	H	0.906255	0.901415	0.384183
	H116	H	0.615641	0.077310	0.896549
	H117	H	0.382114	0.081729	0.097416
	H118	H	0.617834	0.896799	0.093479
	H119	H	0.379965	0.899041	0.901370
	C120	C	0.378023	0.002941	0.619540
	C121	C	0.619666	0.985806	0.620217
	C122	C	0.619755	0.002326	0.377052
	C123	C	0.377107	0.986645	0.376471
	C124	C	0.619744	0.372543	0.006549
	C125	C	0.619932	0.616265	0.989685
	C126	C	0.376682	0.616298	0.005930
	C127	C	0.375774	0.371604	0.990823
	C128	C	0.006594	0.615538	0.377596
	C129	C	0.989652	0.616612	0.620986
	C130	C	0.006559	0.374668	0.620000
	C131	C	0.990817	0.373406	0.376804
	C132	C	0.877090	0.503222	0.120527
	C133	C	0.119182	0.486698	0.120446
	C134	C	0.119536	0.503329	0.877466
	C135	C	0.876447	0.486697	0.876433
	C136	C	0.120134	0.872922	0.507589
	C137	C	0.120398	0.116808	0.491845
	C138	C	0.876072	0.116810	0.506922
	C139	C	0.876166	0.872532	0.490876
	C140	C	0.507069	0.114976	0.877144
	C141	C	0.491304	0.115503	0.120129
	C142	C	0.507057	0.873705	0.119027
	C143	C	0.489797	0.872252	0.875461
	C144	C	0.379049	0.879607	0.674021
	C145	C	0.617725	0.108872	0.675943
	C146	C	0.618008	0.879661	0.320763
	C147	C	0.379409	0.109828	0.322143
	C148	C	0.674865	0.374580	0.884110
	C149	C	0.675511	0.614663	0.111772
	C150	C	0.320949	0.612294	0.884059
	C151	C	0.321299	0.375678	0.113239
	C152	C	0.882790	0.669773	0.381702
	C153	C	0.113418	0.671414	0.617828
	C154	C	0.883093	0.319980	0.616251
	C155	C	0.114308	0.318647	0.380392
	C156	C	0.883283	0.376930	0.674358
	C157	C	0.112815	0.615367	0.676222
	C158	C	0.883457	0.613996	0.322220
	C159	C	0.113730	0.375254	0.321792
	C160	C	0.379000	0.670345	0.883583
	C161	C	0.618149	0.672618	0.111627
	C162	C	0.616833	0.317104	0.884055
	C163	C	0.378821	0.316998	0.113044
	C164	C	0.674575	0.878972	0.379294
	C165	C	0.674159	0.109625	0.617323
	C166	C	0.322599	0.879293	0.615363
	C167	C	0.322358	0.110214	0.380530
	C168	C	0.878335	0.380334	0.175608
	C169	C	0.118186	0.609860	0.176206
	C170	C	0.116672	0.380317	0.821450
	C171	C	0.878999	0.610235	0.822565
	C172	C	0.174061	0.875931	0.384737
	C173	C	0.176339	0.115065	0.613791
	C174	C	0.821808	0.112697	0.384267
	C175	C	0.821605	0.876474	0.613280
	C176	C	0.383588	0.169303	0.880188
	C177	C	0.614522	0.170889	0.117053
	C178	C	0.383184	0.819571	0.115112
	C179	C	0.613576	0.817708	0.878725
	C180	C	0.384109	0.875166	0.174419
	C181	C	0.614172	0.114601	0.175809
	C182	C	0.384038	0.112480	0.822142
	C183	C	0.613279	0.874815	0.820974
	C184	C	0.879981	0.170693	0.384508
	C185	C	0.118088	0.172746	0.613875
	C186	C	0.116481	0.817525	0.385228
	C187	C	0.879993	0.819214	0.613643
	C188	C	0.173368	0.379316	0.880146
	C189	C	0.174717	0.609951	0.117744
	C190	C	0.822311	0.379690	0.116251
	C191	C	0.822195	0.610291	0.880790
	C192	C	0.400564	0.088917	0.598409
	C193	C	0.597471	0.899782	0.597991
	C194	C	0.597769	0.088562	0.399197
	C195	C	0.399005	0.900498	0.397666
	C196	C	0.597621	0.395212	0.091617
	C197	C	0.597325	0.593417	0.904891
	C198	C	0.398798	0.595177	0.091439
	C199	C	0.397673	0.393126	0.905365
	C200	C	0.092646	0.593501	0.399109
	C201	C	0.903794	0.594317	0.599054
	C202	C	0.092889	0.396707	0.598276
	C203	C	0.904577	0.395612	0.398394
	C204	C	0.899671	0.588877	0.098947
	C205	C	0.096525	0.400772	0.098377
	C206	C	0.097847	0.589464	0.899615
	C207	C	0.898316	0.400525	0.897263
	C208	C	0.098843	0.895247	0.593001
	C209	C	0.098105	0.094112	0.406543
	C210	C	0.897715	0.095715	0.592380
	C211	C	0.897972	0.893686	0.405363
	C212	C	0.593200	0.092946	0.899192
	C213	C	0.405100	0.092758	0.097691
	C214	C	0.593155	0.895937	0.097368
	C215	C	0.403583	0.893983	0.896890
	Zn216	Zn	0.498391	-0.005769	0.748241
	Zn217	Zn	0.498961	-0.005485	0.248041
	Zn218	Zn	0.748735	0.494420	-0.001756
	Zn219	Zn	0.247291	0.494299	-0.000931
	Zn220	Zn	-0.001745	0.743774	0.499571
	Zn221	Zn	-0.001071	0.245752	0.499101
	Zn222	Zn	-0.001696	0.495551	0.748922
	Zn223	Zn	-0.001149	0.495019	0.248855
	Zn224	Zn	0.498627	0.745524	-0.002380
	Zn225	Zn	0.498913	0.243134	-0.001534
	Zn226	Zn	0.747424	-0.005838	0.498426
	Zn227	Zn	0.249293	-0.005072	0.499162
	N228	N	0.412183	0.957429	0.676965
	N229	N	0.584614	0.031080	0.677805
	N230	N	0.584669	0.957399	0.319380
	N231	N	0.412420	0.031912	0.319285
	N232	N	0.676743	0.408573	0.961237
	N233	N	0.676640	0.580001	0.035283
	N234	N	0.319718	0.579295	0.961147
	N235	N	0.319267	0.408663	0.036196
	N236	N	0.960267	0.670886	0.415254
	N237	N	0.035939	0.672268	0.584076
	N238	N	0.960853	0.318681	0.582944
	N239	N	0.036594	0.317059	0.413756
	N240	N	0.960944	0.410277	0.676678
	N241	N	0.035016	0.581899	0.678365
	N242	N	0.961415	0.581005	0.319585
	N243	N	0.035871	0.408233	0.319429
	N244	N	0.413143	0.672841	0.960400
	N245	N	0.584037	0.673685	0.034762
	N246	N	0.583178	0.315911	0.960878
	N247	N	0.411948	0.314238	0.035791
	N248	N	0.675521	0.956283	0.413836
	N249	N	0.675475	0.032021	0.583319
	N250	N	0.322170	0.956773	0.581851
	N251	N	0.320721	0.032713	0.413721
	N252	N	0.911729	0.458029	0.178172
	N253	N	0.084498	0.532213	0.177909
	N254	N	0.083930	0.458324	0.819533
	N255	N	0.912120	0.532451	0.819894
	N256	N	0.176600	0.909682	0.461810
	N257	N	0.177687	0.080835	0.536910
	N258	N	0.819234	0.080045	0.461282
	N259	N	0.819333	0.908994	0.535966
	N260	N	0.461096	0.170834	0.913832
	N261	N	0.536902	0.171561	0.083363
	N262	N	0.460635	0.818598	0.081281
	N263	N	0.535980	0.816077	0.912028
	N264	N	0.462035	0.908144	0.176883
	N265	N	0.536352	0.080967	0.177780
	N266	N	0.461787	0.079316	0.820402
	N267	N	0.535257	0.907767	0.818753
	N268	N	0.913009	0.173477	0.461756
	N269	N	0.084132	0.173912	0.536962
	N270	N	0.083627	0.815693	0.462338
	N271	N	0.913129	0.816562	0.536565
	N272	N	0.175055	0.456762	0.914274
	N273	N	0.175517	0.532412	0.083749
	N274	N	0.821396	0.456984	0.082524
	N275	N	0.820469	0.532587	0.913665
	O276	O	0.528456	0.494322	0.467673
	H277	H	0.528019	0.502499	0.470202
	H278	H	0.538755	0.490585	0.468095
	O279	O	0.094992	0.116024	0.118743
	H280	H	0.098604	0.118159	0.119653
	H281	H	0.105293	0.111386	0.124172
	O282	O	0.519434	0.481476	0.465460
	H283	H	0.519468	0.487566	0.464168
	H284	H	0.522622	0.488373	0.465046
	O285	O	0.520599	0.530992	0.492499
	H286	H	0.532305	0.519999	0.492779
	H287	H	0.524806	0.540948	0.499782
	O288	O	1.396117	0.424481	0.404492
	H289	H	1.396853	0.435826	0.404793
	H290	H	1.403513	0.423815	0.410234
	O291	O	-0.496164	0.494244	-0.535500
	H292	H	-0.496896	0.495965	-0.534151
	H293	H	-0.500197	0.500093	-0.536940
	O294	O	0.124665	1.084882	0.099966
	H295	H	0.128402	1.084265	0.103258
	H296	H	0.128050	1.092470	0.102418
	O297	O	0.109403	1.060368	0.133946
	H298	H	0.114877	1.063734	0.140567
	H299	H	0.109118	1.059245	0.132872
	O300	O	1.113463	0.069231	1.131585
	H301	H	1.112403	0.066941	1.120991
	H302	H	1.110120	0.073375	1.135134
	O303	O	0.588757	0.456941	0.469297
	H304	H	0.584640	0.453177	0.462279
	H305	H	0.585575	0.451373	0.468760
	O306	O	0.536004	1.534688	1.481271
	H307	H	0.541086	1.532010	1.493310
	H308	H	0.535433	1.528435	1.473061
	O309	O	0.564093	0.438762	0.443197
	H310	H	0.561063	0.440809	0.439906
	H311	H	0.567145	0.435869	0.436349
