data_Molecule from HDF5

_cell_length_a		16.565181
_cell_length_b		16.561070
_cell_length_c		16.530675
_cell_angle_alpha	89.818089
_cell_angle_beta	90.075861
_cell_angle_gamma	90.059020
_symmetry_space_group_name_H-M	'P 1'
_symmetry_Int_Tables_number		1

loop_
	_symmetry_equiv_pos_as_xyz
	x,y,z

loop_
	_atom_site_label
	_atom_site_type_symbol
	_atom_site_fract_x
	_atom_site_fract_y
	_atom_site_fract_z
	H0	H	0.396809	0.854447	0.719955
	H1	H	0.604475	0.169291	0.717228
	H2	H	0.604584	0.854172	0.278606
	H3	H	0.397993	0.169497	0.280393
	H4	H	0.721103	0.409591	0.841340
	H5	H	0.725644	0.620356	0.153372
	H6	H	0.280789	0.618458	0.840052
	H7	H	0.282524	0.409792	0.155793
	H8	H	0.844848	0.734299	0.389871
	H9	H	0.155836	0.734847	0.604139
	H10	H	0.843482	0.292040	0.600330
	H11	H	0.155509	0.287654	0.390994
	H12	H	0.842158	0.408939	0.716782
	H13	H	0.156657	0.618024	0.719292
	H14	H	0.844643	0.616982	0.274765
	H15	H	0.154951	0.403815	0.273966
	H16	H	0.396719	0.734978	0.841811
	H17	H	0.608237	0.735252	0.154569
	H18	H	0.604998	0.292318	0.842314
	H19	H	0.400359	0.295665	0.157002
	H20	H	0.719021	0.853839	0.396581
	H21	H	0.722027	0.166987	0.602835
	H22	H	0.279758	0.854379	0.603686
	H23	H	0.282661	0.169864	0.397233
	H24	H	0.896122	0.354638	0.218209
	H25	H	0.106722	0.666847	0.219881
	H26	H	0.102052	0.353066	0.780038
	H27	H	0.896227	0.670060	0.776232
	H28	H	0.221836	0.907661	0.342266
	H29	H	0.220697	0.115399	0.656969
	H30	H	0.779539	0.114799	0.342146
	H31	H	0.779160	0.904114	0.656290
	H32	H	0.344086	0.233256	0.894899
	H33	H	0.659529	0.230888	0.101984
	H34	H	0.344520	0.790755	0.103246
	H35	H	0.657437	0.789798	0.892704
	H36	H	0.343646	0.907777	0.218769
	H37	H	0.658658	0.115162	0.219144
	H38	H	0.342346	0.115957	0.779855
	H39	H	0.657304	0.906600	0.777157
	H40	H	0.894723	0.233232	0.342886
	H41	H	0.105462	0.232692	0.656386
	H42	H	0.105945	0.790818	0.341689
	H43	H	0.896566	0.788683	0.655507
	H44	H	0.220455	0.354410	0.894708
	H45	H	0.220266	0.669184	0.100649
	H46	H	0.778052	0.356025	0.103719
	H47	H	0.778980	0.670063	0.891618
	H48	H	0.407962	0.126772	0.593578
	H49	H	0.589078	0.897329	0.592702
	H50	H	0.587787	0.121929	0.411270
	H51	H	0.409655	0.899936	0.412641
	H52	H	0.584906	0.421836	0.109463
	H53	H	0.592537	0.600981	0.885834
	H54	H	0.406713	0.594016	0.109371
	H55	H	0.412340	0.419485	0.884583
	H56	H	0.111590	0.598053	0.409206
	H57	H	0.888933	0.605086	0.580427
	H58	H	0.112728	0.422991	0.587408
	H59	H	0.887809	0.418520	0.412210
	H60	H	0.113258	0.423300	0.590712
	H61	H	0.891692	0.593199	0.585628
	H62	H	0.112084	0.602115	0.409591
	H63	H	0.890597	0.426699	0.411500
	H64	H	0.418542	0.601236	0.108873
	H65	H	0.586264	0.597484	0.889117
	H66	H	0.594751	0.418279	0.114664
	H67	H	0.408202	0.423067	0.884074
	H68	H	0.592300	0.123947	0.410949
	H69	H	0.585378	0.900510	0.587813
	H70	H	0.416140	0.122448	0.589298
	H71	H	0.405751	0.897649	0.407002
	H72	H	0.911336	0.624789	0.086803
	H73	H	0.084802	0.398671	0.093554
	H74	H	0.092387	0.625259	0.907346
	H75	H	0.909994	0.400457	0.908491
	H76	H	0.085321	0.922219	0.609851
	H77	H	0.086463	0.105723	0.386849
	H78	H	0.911033	0.100591	0.612000
	H79	H	0.911731	0.919097	0.385836
	H80	H	0.612886	0.102446	0.908482
	H81	H	0.387251	0.107285	0.089774
	H82	H	0.614377	0.922967	0.092831
	H83	H	0.390913	0.925427	0.913017
	H84	H	0.612526	0.920465	0.084177
	H85	H	0.389383	0.102048	0.087047
	H86	H	0.613357	0.102301	0.908446
	H87	H	0.389535	0.924410	0.909542
	H88	H	0.912214	0.097193	0.610295
	H89	H	0.095965	0.102926	0.384353
	H90	H	0.089633	0.920943	0.610829
	H91	H	0.906125	0.921355	0.384763
	H92	H	0.090519	0.625120	0.905060
	H93	H	0.087427	0.403456	0.078765
	H94	H	0.917138	0.622596	0.087593
	H95	H	0.911722	0.401401	0.908448
	H96	H	0.407475	0.122952	0.584135
	H97	H	0.591549	0.899217	0.586676
	H98	H	0.589055	0.124464	0.407431
	H99	H	0.412824	0.898961	0.406031
	H100	H	0.593665	0.429032	0.110784
	H101	H	0.585658	0.604968	0.886527
	H102	H	0.406815	0.607596	0.113313
	H103	H	0.413247	0.424490	0.886245
	H104	H	0.110661	0.600192	0.412483
	H105	H	0.884980	0.602410	0.592847
	H106	H	0.114324	0.419970	0.589069
	H107	H	0.887190	0.422671	0.404339
	H108	H	0.914392	0.621869	0.081945
	H109	H	0.098800	0.396125	0.087071
	H110	H	0.089885	0.624050	0.908174
	H111	H	0.909927	0.401622	0.910249
	H112	H	0.088662	0.924854	0.609454
	H113	H	0.090043	0.096640	0.388717
	H114	H	0.914892	0.099920	0.610638
	H115	H	0.910166	0.924782	0.387633
	H116	H	0.613969	0.102189	0.908484
	H117	H	0.387682	0.102136	0.092516
	H118	H	0.610648	0.928836	0.087534
	H119	H	0.389712	0.921528	0.912128
	C120	C	0.378740	0.020051	0.620757
	C121	C	0.621541	1.002480	0.620609
	C122	C	0.621408	0.019702	0.378312
	C123	C	0.378670	1.003028	0.377698
	C124	C	0.622595	0.391498	0.007736
	C125	C	0.621971	0.634136	0.990206
	C126	C	0.379428	0.633446	0.006426
	C127	C	0.380345	0.391630	0.989626
	C128	C	0.008918	0.632975	0.376391
	C129	C	0.991918	0.632760	0.618485
	C130	C	0.008944	0.390619	0.619789
	C131	C	0.991717	0.389536	0.376613
	C132	C	0.880219	0.520208	0.118608
	C133	C	0.122405	0.503073	0.118961
	C134	C	0.122191	0.520486	0.875885
	C135	C	0.878673	0.504761	0.876197
	C136	C	0.120794	0.890506	0.506660
	C137	C	0.122243	0.133586	0.490645
	C138	C	0.880145	0.131341	0.507256
	C139	C	0.877981	0.889104	0.490115
	C140	C	0.509123	0.134016	0.877109
	C141	C	0.492615	0.134082	0.120830
	C142	C	0.509207	0.891232	0.120065
	C143	C	0.493146	0.891275	0.878425
	C144	C	0.377816	0.901666	0.680136
	C145	C	0.623422	0.121261	0.678673
	C146	C	0.622976	0.901488	0.318694
	C147	C	0.378747	0.122060	0.319654
	C148	C	0.681559	0.390307	0.888835
	C149	C	0.684409	0.637963	0.107111
	C150	C	0.320492	0.636229	0.887825
	C151	C	0.321941	0.391077	0.108501
	C152	C	0.891617	0.693851	0.372146
	C153	C	0.109228	0.694085	0.621653
	C154	C	0.890365	0.331824	0.619938
	C155	C	0.108695	0.328337	0.373319
	C156	C	0.889899	0.389788	0.677733
	C157	C	0.109524	0.636010	0.679200
	C158	C	0.891529	0.635359	0.315133
	C159	C	0.108454	0.385969	0.315008
	C160	C	0.378086	0.694316	0.888457
	C161	C	0.626006	0.694885	0.107644
	C162	C	0.623973	0.332034	0.889413
	C163	C	0.380372	0.334099	0.109230
	C164	C	0.680009	0.901022	0.377205
	C165	C	0.681892	0.120292	0.621790
	C166	C	0.319637	0.901704	0.622339
	C167	C	0.321404	0.122132	0.377878
	C168	C	0.877108	0.402060	0.178721
	C169	C	0.125052	0.620477	0.179442
	C170	C	0.121861	0.400852	0.818790
	C171	C	0.877185	0.622764	0.815918
	C172	C	0.181359	0.888974	0.388912
	C173	C	0.181418	0.134642	0.609381
	C174	C	0.820003	0.133170	0.389130
	C175	C	0.819248	0.886372	0.609048
	C176	C	0.391208	0.193534	0.876102
	C177	C	0.611966	0.191499	0.120851
	C178	C	0.391646	0.830822	0.122027
	C179	C	0.610472	0.830287	0.875082
	C180	C	0.391110	0.889179	0.179403
	C181	C	0.611558	0.134063	0.179343
	C182	C	0.390273	0.135182	0.818708
	C183	C	0.610349	0.888367	0.817358
	C184	C	0.877099	0.191954	0.389298
	C185	C	0.124108	0.192967	0.609149
	C186	C	0.123859	0.830838	0.388743
	C187	C	0.877398	0.828857	0.608424
	C188	C	0.180823	0.401506	0.875577
	C189	C	0.181697	0.621350	0.120413
	C190	C	0.818588	0.402906	0.121582
	C191	C	0.819199	0.622924	0.873584
	C192	C	0.403588	0.102582	0.596050
	C193	C	0.595923	0.920266	0.596144
	C194	C	0.596667	0.102072	0.402936
	C195	C	0.402535	0.920193	0.401620
	C196	C	0.598287	0.415970	0.090012
	C197	C	0.595669	0.608399	0.908500
	C198	C	0.403900	0.608454	0.089088
	C199	C	0.404320	0.415612	0.906646
	C200	C	0.090287	0.607365	0.402844
	C201	C	0.909835	0.607455	0.593457
	C202	C	0.091588	0.414997	0.595872
	C203	C	0.909737	0.415168	0.402284
	C204	C	0.906597	0.601696	0.092861
	C205	C	0.097418	0.420912	0.093896
	C206	C	0.097996	0.603227	0.899880
	C207	C	0.903352	0.422630	0.901810
	C208	C	0.095281	0.915491	0.588742
	C209	C	0.097617	0.108786	0.408173
	C210	C	0.905496	0.106402	0.589520
	C211	C	0.902327	0.914505	0.407676
	C212	C	0.591961	0.109372	0.901489
	C213	C	0.409779	0.110531	0.096850
	C214	C	0.591322	0.916642	0.095193
	C215	C	0.411425	0.916648	0.904264
	Zn216	Zn	0.500403	0.012280	0.749383
	Zn217	Zn	0.500767	0.012188	0.249463
	Zn218	Zn	0.750678	0.513756	-0.001851
	Zn219	Zn	0.250970	0.512259	-0.002846
	Zn220	Zn	0.000224	0.761427	0.497229
	Zn221	Zn	0.000390	0.261153	0.498392
	Zn222	Zn	0.000148	0.512171	0.747998
	Zn223	Zn	0.000785	0.511560	0.247794
	Zn224	Zn	0.501360	0.762129	-0.000761
	Zn225	Zn	0.501070	0.262835	-0.000672
	Zn226	Zn	0.750332	0.010842	0.499445
	Zn227	Zn	0.249739	0.011588	0.499255
	N228	N	0.413758	0.976411	0.679293
	N229	N	0.586764	0.046916	0.678252
	N230	N	0.587195	0.976372	0.319108
	N231	N	0.413688	0.046856	0.319188
	N232	N	0.681181	0.426491	0.963535
	N233	N	0.681889	0.600705	0.033118
	N234	N	0.321246	0.599042	0.962249
	N235	N	0.321614	0.425899	0.032959
	N236	N	0.965501	0.692455	0.409586
	N237	N	0.035214	0.692029	0.584449
	N238	N	0.965464	0.331998	0.584824
	N239	N	0.034952	0.330751	0.411045
	N240	N	0.964767	0.425363	0.678054
	N241	N	0.035622	0.598289	0.677295
	N242	N	0.965573	0.598238	0.317558
	N243	N	0.034664	0.423528	0.316996
	N244	N	0.414118	0.692746	0.963284
	N245	N	0.588004	0.692498	0.033967
	N246	N	0.588208	0.332693	0.964155
	N247	N	0.415896	0.334013	0.034170
	N248	N	0.679229	0.975527	0.413559
	N249	N	0.680982	0.045288	0.586566
	N250	N	0.320004	0.976416	0.586156
	N251	N	0.320848	0.046958	0.412793
	N252	N	0.914586	0.476026	0.177195
	N253	N	0.088789	0.545952	0.178586
	N254	N	0.086359	0.475876	0.818597
	N255	N	0.913169	0.548125	0.817284
	N256	N	0.179612	0.925560	0.463243
	N257	N	0.180678	0.098828	0.534559
	N258	N	0.821771	0.096131	0.463446
	N259	N	0.819278	0.922814	0.534349
	N260	N	0.466391	0.193194	0.911466
	N261	N	0.536905	0.192061	0.085473
	N262	N	0.466302	0.831754	0.086242
	N263	N	0.536543	0.832105	0.912673
	N264	N	0.465411	0.926119	0.178411
	N265	N	0.536285	0.099334	0.179617
	N266	N	0.464958	0.099118	0.818996
	N267	N	0.536477	0.925760	0.819557
	N268	N	0.914020	0.190658	0.463628
	N269	N	0.088271	0.192742	0.534119
	N270	N	0.086927	0.831902	0.462917
	N271	N	0.913031	0.830292	0.533404
	N272	N	0.181420	0.476948	0.910115
	N273	N	0.180071	0.547413	0.083379
	N274	N	0.820082	0.477573	0.085156
	N275	N	0.819777	0.548333	0.910253
	O276	O	1.213327	1.047700	-0.042759
	H277	H	1.218395	1.061740	-0.046820
	H278	H	1.224697	1.049226	-0.047744
	O279	O	-0.132813	0.222803	0.785565
	H280	H	-0.150826	0.253294	0.749208
	H281	H	-0.148195	0.198396	0.781801
	O282	O	0.712008	0.543818	0.711237
	H283	H	0.729837	0.537361	0.714955
	H284	H	0.717750	0.566560	0.722356
	O285	O	0.704066	0.308550	0.472600
	H286	H	0.705715	0.328062	0.459414
	H287	H	0.695995	0.297363	0.464873
	O288	O	1.542511	-0.537259	0.722555
	H289	H	1.538063	-0.511510	0.723099
	H290	H	1.538055	-0.518373	0.719966
	O291	O	0.460395	0.463993	0.282368
	H292	H	0.455513	0.474201	0.283329
	H293	H	0.463021	0.478335	0.294570
	O294	O	0.217930	-0.024722	-0.218070
	H295	H	0.238663	-0.039630	-0.246416
	H296	H	0.203795	-0.046158	-0.219367
	O297	O	1.208404	0.220853	0.205992
	H298	H	1.218254	0.213373	0.221567
	H299	H	1.223591	0.241124	0.204415
	O300	O	0.268847	0.448754	0.446712
	H301	H	0.266192	0.468893	0.445230
	H302	H	0.272734	0.459083	0.433557
	O303	O	-0.379152	-0.294025	-0.307061
	H304	H	-0.382602	-0.322065	-0.294618
	H305	H	-0.415027	-0.281497	-0.305553
	O306	O	0.853053	-0.194488	0.001160
	H307	H	0.836315	-0.204709	0.008548
	H308	H	0.859937	-0.185426	0.025518
	O309	O	0.281053	0.295720	0.532852
	H310	H	0.271000	0.298044	0.518837
	H311	H	0.261041	0.289809	0.519024
	O312	O	0.251126	0.762209	0.751456
	H313	H	0.215959	0.768791	0.762872
	H314	H	0.254512	0.753678	0.776673
	O315	O	0.351246	0.668125	0.582726
	H316	H	0.345766	0.673728	0.597709
	H317	H	0.335894	0.670371	0.571371
	O318	O	0.961242	1.076982	-0.222530
	H319	H	0.960768	1.106552	-0.232343
	H320	H	0.959736	1.094239	-0.215845
	O321	O	0.202359	1.221384	1.034077
	H322	H	0.216341	1.222061	1.038626
	H323	H	0.198708	1.223919	1.048593
	O324	O	1.161928	-0.203223	0.991561
	H325	H	1.165161	-0.217125	1.008963
	H326	H	1.162968	-0.195170	1.007589
	O327	O	0.392325	0.439592	0.588010
	H328	H	0.386855	0.445266	0.575307
	H329	H	0.397283	0.429471	0.600913
	O330	O	1.085703	1.007793	0.022629
	H331	H	1.091337	1.022467	0.012332
	H332	H	1.084467	1.015371	0.013452
	O333	O	0.684263	0.407057	0.607231
	H334	H	0.665374	0.405141	0.588339
	H335	H	0.683663	0.411911	0.601864
	O336	O	-0.033056	0.989652	-0.003938
	H337	H	-0.036681	0.979982	0.006463
	H338	H	-0.034664	0.990092	0.002501
	O339	O	0.279658	0.482757	0.722805
	H340	H	0.279861	0.440950	0.719281
	H341	H	0.255538	0.468662	0.750657
	O342	O	-0.300598	0.518144	0.514334
	H343	H	-0.295530	0.518319	0.510748
	H344	H	-0.291443	0.527136	0.538293
	O345	O	0.512528	0.645585	0.448133
	H346	H	0.519216	0.639819	0.444546
	H347	H	0.507762	0.656878	0.435337
	O348	O	0.380990	0.578978	0.432437
	H349	H	0.384079	0.596310	0.430531
	H350	H	0.375347	0.588910	0.437081
	O351	O	-0.016343	-0.112250	1.002958
	H352	H	-0.018515	-0.106792	1.005178
	H353	H	-0.017763	-0.109393	0.997439
	O354	O	1.119188	0.144121	0.897048
	H355	H	1.105391	0.135380	0.892880
	H356	H	1.122827	0.136004	0.879496
	O357	O	0.645028	0.629110	0.365630
	H358	H	0.651364	0.628212	0.383698
	H359	H	0.627033	0.616958	0.365913
	O360	O	0.535303	0.288345	0.278510
	H361	H	0.557380	0.274856	0.264683
	H362	H	0.567218	0.277246	0.271807
	O363	O	0.435838	0.586958	0.327688
	H364	H	0.416210	0.585572	0.331395
	H365	H	0.428848	0.604070	0.326157
	O366	O	0.925790	-0.116553	1.199215
	H367	H	0.905919	-0.093901	1.200064
	H368	H	0.901316	-0.129279	1.213392
	O369	O	-0.005100	0.223748	0.989962
	H370	H	-0.001076	0.223469	0.971649
	H371	H	0.005861	0.227713	0.983227
	O372	O	-0.044457	0.843638	1.081816
	H373	H	-0.053015	0.862783	1.091357
	H374	H	-0.061574	0.823619	1.102800
	O375	O	1.025456	0.085512	-0.117091
	H376	H	1.036099	0.090458	-0.110025
	H377	H	1.031412	0.088792	-0.115380
	O378	O	0.440942	0.304932	0.426788
	H379	H	0.459618	0.303648	0.406898
	H380	H	0.441492	0.302760	0.444088
	O381	O	0.608941	0.602092	0.420576
	H382	H	0.607594	0.601579	0.434892
	H383	H	0.622222	0.611367	0.422833
	O384	O	0.553567	0.301281	0.547406
	H385	H	0.541498	0.297496	0.561869
	H386	H	0.549730	0.309528	0.530810
	O387	O	-0.149937	1.203515	1.129694
	H388	H	-0.123385	1.199123	1.109810
	H389	H	-0.130938	1.193699	1.129175
	O390	O	-0.215829	1.229046	0.964301
	H391	H	-0.209401	1.238649	0.943805
	H392	H	-0.225849	1.252009	0.971882
	O393	O	1.026761	0.219969	0.202802
	H394	H	1.044030	0.219438	0.199485
	H395	H	1.030106	0.234248	0.217505
	O396	O	0.288192	0.657358	0.544598
	H397	H	0.283946	0.654235	0.540020
	H398	H	0.290623	0.660760	0.562423
	O399	O	0.477007	0.611227	0.636372
	H400	H	0.470507	0.603559	0.623808
	H401	H	0.460056	0.610723	0.629023
	O402	O	0.801748	-0.028910	1.190534
	H403	H	0.808143	-0.006993	1.169673
	H404	H	0.789297	-0.014695	1.197427
	O405	O	0.367234	0.386451	0.375017
	H406	H	0.373145	0.403829	0.380078
	H407	H	0.380026	0.391746	0.383001
	O408	O	0.784347	1.041913	0.779223
	H409	H	0.767874	1.062138	0.765071
	H410	H	0.768609	1.034842	0.791335
	O411	O	0.826825	1.035072	-0.006265
	H412	H	0.840513	1.039374	-0.018906
	H413	H	0.830530	1.056690	-0.021434
	O414	O	-0.219297	-0.206727	0.200444
	H415	H	-0.236850	-0.214865	0.217034
	H416	H	-0.223679	-0.184553	0.198963
	O417	O	0.262323	0.273797	0.743460
	H418	H	0.255056	0.261832	0.720401
	H419	H	0.298461	0.266881	0.747380
	O420	O	0.906169	-0.076857	0.847680
	H421	H	0.923322	-0.070857	0.862140
	H422	H	0.905726	-0.070491	0.842663
	O423	O	1.272818	0.740398	0.266459
	H424	H	1.269864	0.768665	0.248364
	H425	H	1.252644	0.743283	0.277687
	O426	O	0.714611	0.725630	0.597916
	H427	H	0.696257	0.729044	0.614287
	H428	H	0.731556	0.750395	0.626963
	O429	O	0.864871	1.082831	0.129211
	H430	H	0.874436	1.072034	0.109353
	H431	H	0.869092	1.088306	0.124026
	O432	O	0.978418	0.034532	1.196409
	H433	H	0.983914	0.040383	1.187584
	H434	H	0.998399	0.033737	1.199262
	O435	O	0.219243	0.050686	0.216367
	H436	H	0.215802	0.051631	0.222807
	H437	H	0.234442	0.064200	0.232262
	O438	O	0.365782	0.500114	0.297891
	H439	H	0.361658	0.501838	0.287637
	H440	H	0.366791	0.511284	0.292043
	O441	O	0.490892	0.652127	0.699083
	H442	H	0.468230	0.634870	0.692793
	H443	H	0.467878	0.661014	0.701447
	O444	O	0.709432	0.299632	0.302586
	H445	H	0.729964	0.290246	0.291920
	H446	H	0.720209	0.336315	0.306421
	O447	O	0.543962	0.710346	0.459255
	H448	H	0.560878	0.706901	0.462833
	H449	H	0.549274	0.718836	0.478764
	O450	O	1.129561	-0.176065	0.173753
	H451	H	1.113540	-0.162370	0.158561
	H452	H	1.103585	-0.171006	0.167178
	O453	O	0.736349	0.274451	0.732776
	H454	H	0.720933	0.285723	0.743639
	H455	H	0.711532	0.302768	0.711291
	O456	O	0.038383	0.811500	0.827114
	H457	H	0.031218	0.818043	0.817862
	H458	H	0.016862	0.821661	0.831283
	O459	O	0.427884	0.477886	0.461577
	H460	H	0.408446	0.477073	0.448120
	H461	H	0.442434	0.493316	0.447963
	O462	O	0.475326	0.725563	0.277633
	H463	H	0.481914	0.745550	0.279304
	H464	H	0.444490	0.737179	0.273663
	O465	O	0.719532	0.488132	0.307814
	H466	H	0.727865	0.505276	0.296789
	H467	H	0.712345	0.505247	0.296105
	O468	O	0.161258	0.903362	0.011171
	H469	H	0.124492	0.906467	0.006673
	H470	H	0.159965	0.918992	0.024460
	O471	O	0.471673	0.297680	0.715367
	H472	H	0.482515	0.288502	0.723732
	H473	H	0.487760	0.309102	0.726677
	O474	O	1.153102	0.945580	-0.109095
	H475	H	1.148519	0.960234	-0.099530
	H476	H	1.137579	0.935689	-0.110877
	O477	O	-0.153014	-0.099317	0.910814
	H478	H	-0.147954	-0.100289	0.905779
	H479	H	-0.163879	-0.100295	0.924853
