data_Molecule from HDF5

_cell_length_a		16.195236
_cell_length_b		16.232295
_cell_length_c		16.367866
_cell_angle_alpha	89.752921
_cell_angle_beta	89.215555
_cell_angle_gamma	90.560567
_symmetry_space_group_name_H-M	'P 1'
_symmetry_Int_Tables_number		1

loop_
	_symmetry_equiv_pos_as_xyz
	x,y,z

loop_
	_atom_site_label
	_atom_site_type_symbol
	_atom_site_fract_x
	_atom_site_fract_y
	_atom_site_fract_z
	H0	H	0.395392	0.838948	0.716326
	H1	H	0.601730	0.164471	0.713571
	H2	H	0.603719	0.837825	0.282584
	H3	H	0.403265	0.163342	0.281595
	H4	H	0.720185	0.401079	0.838628
	H5	H	0.713253	0.598087	0.163907
	H6	H	0.289734	0.595146	0.836829
	H7	H	0.281038	0.396764	0.162536
	H8	H	0.834232	0.712935	0.406821
	H9	H	0.162752	0.719999	0.599977
	H10	H	0.836336	0.284570	0.603995
	H11	H	0.165841	0.291998	0.402248
	H12	H	0.837252	0.398151	0.721575
	H13	H	0.164154	0.603208	0.713847
	H14	H	0.837872	0.605242	0.284950
	H15	H	0.163758	0.403706	0.283089
	H16	H	0.403278	0.714361	0.837829
	H17	H	0.600893	0.717800	0.161623
	H18	H	0.600090	0.287039	0.836655
	H19	H	0.397304	0.280642	0.162905
	H20	H	0.715773	0.838175	0.400121
	H21	H	0.712117	0.167057	0.592403
	H22	H	0.282092	0.840495	0.600696
	H23	H	0.292685	0.167415	0.401938
	H24	H	0.895441	0.339460	0.222802
	H25	H	0.103242	0.665511	0.213480
	H26	H	0.102998	0.339260	0.782035
	H27	H	0.900740	0.663237	0.786053
	H28	H	0.216282	0.907146	0.337172
	H29	H	0.215287	0.103783	0.663161
	H30	H	0.790059	0.102255	0.336100
	H31	H	0.778616	0.901987	0.661870
	H32	H	0.335867	0.213274	0.903438
	H33	H	0.663525	0.216211	0.096605
	H34	H	0.336425	0.781607	0.100864
	H35	H	0.665179	0.787680	0.897919
	H36	H	0.337970	0.894557	0.220526
	H37	H	0.665262	0.100643	0.209562
	H38	H	0.336154	0.101115	0.785778
	H39	H	0.662478	0.901763	0.779682
	H40	H	0.904403	0.220043	0.338482
	H41	H	0.098206	0.218132	0.663820
	H42	H	0.100993	0.787737	0.338507
	H43	H	0.894677	0.785187	0.664040
	H44	H	0.211805	0.334687	0.902940
	H45	H	0.218039	0.663001	0.097076
	H46	H	0.782867	0.337219	0.104314
	H47	H	0.789703	0.663926	0.903268
	H48	H	0.402298	0.121260	0.591723
	H49	H	0.593698	0.884420	0.588624
	H50	H	0.588938	0.116672	0.401494
	H51	H	0.405990	0.884425	0.407486
	H52	H	0.594988	0.399090	0.119286
	H53	H	0.602216	0.597052	0.882058
	H54	H	0.410139	0.586585	0.114144
	H55	H	0.399295	0.401211	0.881311
	H56	H	0.115486	0.592542	0.409180
	H57	H	0.882355	0.596296	0.596127
	H58	H	0.118797	0.403513	0.589882
	H59	H	0.882387	0.410650	0.406627
	H60	H	0.112901	0.418230	0.586370
	H61	H	0.884336	0.590025	0.594515
	H62	H	0.118248	0.595456	0.403002
	H63	H	0.884074	0.405997	0.416529
	H64	H	0.410485	0.590741	0.115804
	H65	H	0.597918	0.585798	0.885300
	H66	H	0.594641	0.413349	0.115129
	H67	H	0.407675	0.413785	0.887219
	H68	H	0.597961	0.117796	0.408227
	H69	H	0.588313	0.883710	0.595587
	H70	H	0.411046	0.121835	0.601647
	H71	H	0.412261	0.885918	0.409108
	H72	H	0.901846	0.618187	0.090561
	H73	H	0.086900	0.383565	0.098109
	H74	H	0.091022	0.616098	0.908939
	H75	H	0.910465	0.384876	0.913784
	H76	H	0.095945	0.910948	0.618329
	H77	H	0.096686	0.104389	0.383006
	H78	H	0.904477	0.091975	0.615170
	H79	H	0.916200	0.909658	0.386939
	H80	H	0.617994	0.087348	0.896041
	H81	H	0.385727	0.090740	0.084724
	H82	H	0.616585	0.914554	0.094207
	H83	H	0.385539	0.910251	0.910792
	H84	H	0.619498	0.902883	0.092117
	H85	H	0.384750	0.079316	0.096590
	H86	H	0.619419	0.102558	0.905141
	H87	H	0.381410	0.904661	0.904431
	H88	H	0.905879	0.093757	0.616053
	H89	H	0.102906	0.095144	0.384639
	H90	H	0.088479	0.916831	0.612348
	H91	H	0.906978	0.901255	0.382957
	H92	H	0.098652	0.616626	0.910805
	H93	H	0.086626	0.385348	0.092973
	H94	H	0.908922	0.619372	0.101914
	H95	H	0.907957	0.383248	0.910758
	H96	H	0.414276	0.116979	0.589709
	H97	H	0.585331	0.887375	0.587838
	H98	H	0.598959	0.121007	0.397693
	H99	H	0.407276	0.885518	0.413040
	H100	H	0.581843	0.404761	0.114474
	H101	H	0.590863	0.595634	0.886178
	H102	H	0.405997	0.588358	0.115478
	H103	H	0.414812	0.399119	0.884941
	H104	H	0.117471	0.599885	0.408659
	H105	H	0.881002	0.591201	0.601121
	H106	H	0.118427	0.415143	0.600502
	H107	H	0.886870	0.416542	0.414691
	H108	H	0.914947	0.614614	0.090007
	H109	H	0.091237	0.383437	0.094370
	H110	H	0.096392	0.618657	0.903524
	H111	H	0.911970	0.384634	0.909444
	H112	H	0.086243	0.906621	0.616597
	H113	H	0.091984	0.095625	0.386085
	H114	H	0.904063	0.093365	0.616250
	H115	H	0.903987	0.913361	0.384994
	H116	H	0.613132	0.087375	0.912814
	H117	H	0.379416	0.094811	0.099911
	H118	H	0.615256	0.909869	0.083173
	H119	H	0.383571	0.901810	0.912243
	C120	C	0.378072	0.012046	0.623187
	C121	C	0.619654	0.993326	0.619124
	C122	C	0.624046	0.010124	0.375224
	C123	C	0.381031	0.993385	0.379686
	C124	C	0.621572	0.377934	0.008573
	C125	C	0.624177	0.621939	0.991910
	C126	C	0.380304	0.618518	0.008239
	C127	C	0.376870	0.375014	0.991787
	C128	C	0.008657	0.624573	0.379411
	C129	C	0.991062	0.623120	0.624050
	C130	C	0.008913	0.380013	0.623995
	C131	C	0.992342	0.382272	0.381303
	C132	C	0.877371	0.509996	0.125271
	C133	C	0.120660	0.492003	0.122652
	C134	C	0.123117	0.508838	0.878774
	C135	C	0.881294	0.491861	0.881808
	C136	C	0.121288	0.882039	0.508876
	C137	C	0.124023	0.126392	0.492327
	C138	C	0.878809	0.123282	0.508457
	C139	C	0.877112	0.879309	0.492063
	C140	C	0.508419	0.121201	0.877904
	C141	C	0.491670	0.119276	0.120504
	C142	C	0.509270	0.877152	0.121594
	C143	C	0.491463	0.877829	0.877583
	C144	C	0.376698	0.888298	0.678605
	C145	C	0.620052	0.116079	0.674718
	C146	C	0.622603	0.886826	0.320573
	C147	C	0.383276	0.115332	0.321257
	C148	C	0.680294	0.381106	0.887044
	C149	C	0.677023	0.619534	0.114662
	C150	C	0.326387	0.616284	0.885697
	C151	C	0.319607	0.376318	0.114135
	C152	C	0.884430	0.677751	0.384416
	C153	C	0.114141	0.681056	0.620463
	C154	C	0.885447	0.323325	0.623405
	C155	C	0.116187	0.328322	0.381642
	C156	C	0.886085	0.379338	0.682460
	C157	C	0.114879	0.622946	0.677154
	C158	C	0.885941	0.623760	0.324046
	C159	C	0.115169	0.384136	0.322524
	C160	C	0.383332	0.674993	0.885956
	C161	C	0.620804	0.678806	0.113624
	C162	C	0.620695	0.324177	0.885906
	C163	C	0.377690	0.318972	0.114206
	C164	C	0.678706	0.887080	0.378797
	C165	C	0.675333	0.117255	0.614556
	C166	C	0.320668	0.889086	0.620834
	C167	C	0.328549	0.117500	0.381417
	C168	C	0.876291	0.387870	0.183703
	C169	C	0.121468	0.615952	0.176124
	C170	C	0.121763	0.387020	0.821683
	C171	C	0.882007	0.614604	0.824933
	C172	C	0.178349	0.885385	0.386297
	C173	C	0.178052	0.124061	0.614494
	C174	C	0.826604	0.122149	0.385195
	C175	C	0.818335	0.881567	0.613951
	C176	C	0.384974	0.176099	0.882154
	C177	C	0.615171	0.177052	0.116706
	C178	C	0.385897	0.819644	0.121208
	C179	C	0.615435	0.824358	0.877850
	C180	C	0.386643	0.875525	0.180929
	C181	C	0.615826	0.119550	0.173115
	C182	C	0.385066	0.119944	0.823775
	C183	C	0.614090	0.880820	0.818775
	C184	C	0.883342	0.180953	0.386609
	C185	C	0.119485	0.180724	0.614932
	C186	C	0.121003	0.826117	0.386996
	C187	C	0.876201	0.823745	0.614842
	C188	C	0.176150	0.384787	0.881610
	C189	C	0.179304	0.614675	0.118672
	C190	C	0.820276	0.386815	0.124784
	C191	C	0.826503	0.614837	0.883235
	C192	C	0.402309	0.098136	0.601045
	C193	C	0.596136	0.907329	0.597263
	C194	C	0.601872	0.096272	0.396393
	C195	C	0.402335	0.907461	0.403075
	C196	C	0.597504	0.399378	0.094317
	C197	C	0.602987	0.599447	0.906574
	C198	C	0.402223	0.595410	0.093084
	C199	C	0.400382	0.398007	0.906470
	C200	C	0.094676	0.602510	0.400552
	C201	C	0.904865	0.599247	0.603431
	C202	C	0.094578	0.405021	0.599409
	C203	C	0.906448	0.404511	0.405482
	C204	C	0.901593	0.595422	0.101245
	C205	C	0.095637	0.406357	0.101565
	C206	C	0.101582	0.594721	0.901156
	C207	C	0.903596	0.406450	0.904556
	C208	C	0.097260	0.904806	0.593720
	C209	C	0.103388	0.104637	0.406745
	C210	C	0.898812	0.099776	0.593594
	C211	C	0.901697	0.901532	0.407112
	C212	C	0.594596	0.099058	0.898661
	C213	C	0.405642	0.095408	0.099797
	C214	C	0.594849	0.901773	0.097133
	C215	C	0.405755	0.899396	0.901869
	Zn216	Zn	0.499339	0.000941	0.749439
	Zn217	Zn	0.501505	-0.000417	0.248949
	Zn218	Zn	0.752055	0.500318	0.001485
	Zn219	Zn	0.249441	0.498170	0.000540
	Zn220	Zn	-0.000874	0.751143	0.502038
	Zn221	Zn	0.000852	0.252980	0.501689
	Zn222	Zn	0.000815	0.501361	0.752126
	Zn223	Zn	-0.000266	0.502979	0.251866
	Zn224	Zn	0.501146	0.749050	-0.000424
	Zn225	Zn	0.499800	0.247971	0.000155
	Zn226	Zn	0.749133	0.002205	0.498056
	Zn227	Zn	0.252107	0.004170	0.500509
	N228	N	0.411656	0.965794	0.680254
	N229	N	0.586096	0.038070	0.677625
	N230	N	0.589398	0.964485	0.318067
	N231	N	0.415356	0.037182	0.320257
	N232	N	0.681062	0.413731	0.964663
	N233	N	0.679384	0.585106	0.037960
	N234	N	0.324428	0.581734	0.962704
	N235	N	0.319054	0.410526	0.037202
	N236	N	0.961756	0.678370	0.418120
	N237	N	0.036170	0.681323	0.588403
	N238	N	0.963058	0.323475	0.588147
	N239	N	0.038916	0.327108	0.417485
	N240	N	0.963999	0.413859	0.682946
	N241	N	0.037265	0.587516	0.679533
	N242	N	0.964222	0.591519	0.320575
	N243	N	0.036987	0.416955	0.322220
	N244	N	0.415966	0.676639	0.963081
	N245	N	0.588929	0.680469	0.036151
	N246	N	0.584984	0.322237	0.962618
	N247	N	0.412631	0.318076	0.037080
	N248	N	0.679821	0.964680	0.411709
	N249	N	0.674955	0.039909	0.580436
	N250	N	0.321031	0.966949	0.587381
	N251	N	0.327043	0.040551	0.417136
	N252	N	0.910980	0.465442	0.184176
	N253	N	0.085755	0.538710	0.178752
	N254	N	0.089707	0.465174	0.819635
	N255	N	0.915763	0.537283	0.823957
	N256	N	0.178946	0.919336	0.463208
	N257	N	0.181213	0.091177	0.537162
	N258	N	0.823640	0.086755	0.461875
	N259	N	0.818582	0.915418	0.536650
	N260	N	0.462659	0.176846	0.915130
	N261	N	0.537065	0.177230	0.084687
	N262	N	0.463202	0.820442	0.085321
	N263	N	0.538286	0.822510	0.913847
	N264	N	0.464389	0.910430	0.181343
	N265	N	0.538201	0.084130	0.175513
	N266	N	0.462717	0.086367	0.820999
	N267	N	0.535971	0.913266	0.818393
	N268	N	0.915284	0.181697	0.464038
	N269	N	0.086857	0.182449	0.538002
	N270	N	0.086231	0.823854	0.464185
	N271	N	0.912125	0.822315	0.538225
	N272	N	0.177062	0.461692	0.916476
	N273	N	0.178697	0.536812	0.085995
	N274	N	0.820921	0.463712	0.089127
	N275	N	0.826053	0.537698	0.918100
	O276	O	1.060571	-0.034257	0.973481
	H277	H	1.064132	-0.031143	0.983032
	H278	H	1.051665	-0.023350	0.974980
	O279	O	0.597198	0.556275	0.556267
	H280	H	0.588705	0.558784	0.560116
	H281	H	0.602666	0.559092	0.562808
	O282	O	1.027292	0.961201	0.001894
	H283	H	1.018715	0.969658	-0.001744
	H284	H	1.021379	0.968210	0.010235
	O285	O	1.023634	-0.148117	0.882081
	H286	H	1.031790	-0.146833	0.894560
	H287	H	1.015812	-0.152763	0.878868
	O288	O	0.504189	0.551690	0.561074
	H289	H	0.501999	0.556160	0.569586
	H290	H	0.502503	0.551304	0.559675
	O291	O	0.623658	0.397683	0.433101
	H292	H	0.624944	0.374449	0.438631
	H293	H	0.621480	0.390996	0.430749
	O294	O	0.495903	0.587928	0.567632
	H295	H	0.494700	0.601999	0.572639
	H296	H	0.498282	0.587216	0.561814
	O297	O	0.003769	0.054056	1.092053
	H298	H	0.006158	0.041559	1.090166
	H299	H	-0.002771	0.059169	1.086327
	O300	O	0.005999	0.901118	-0.093011
	H301	H	0.009686	0.915978	-0.106914
	H302	H	0.000210	0.904665	-0.074507
	O303	O	1.099715	0.936629	-0.089695
	H304	H	1.084432	0.921048	-0.082463
	H305	H	1.104972	0.946618	-0.081159
	O306	O	-0.057356	1.087830	0.925703
	H307	H	-0.054388	1.087739	0.915348
	H308	H	-0.060289	1.093446	0.929174
	O309	O	0.503741	0.483600	0.488733
	H310	H	0.508438	0.482586	0.489976
	H311	H	0.522113	0.490079	0.484343
	O312	O	0.050715	-0.055919	-0.015274
	H313	H	0.037336	-0.049382	-0.017699
	H314	H	0.063444	-0.049062	-0.001149
	O315	O	1.098974	-0.095068	-0.097568
	H316	H	1.103672	-0.098940	-0.102130
	H317	H	1.096099	-0.107949	-0.102593
	O318	O	1.057775	0.911747	1.076874
	H319	H	1.062012	0.924659	1.082070
	H320	H	1.063307	0.915725	1.078001
	O321	O	0.477322	0.528687	1.605447
	H322	H	0.468217	0.525507	1.617732
	H323	H	0.476688	0.533096	1.615603
	O324	O	0.575080	0.402409	0.516893
	H325	H	0.565907	0.390980	0.520019
	H326	H	0.560834	0.395568	0.526801
	O327	O	-0.519206	0.508435	-0.592290
	H328	H	-0.518579	0.517009	-0.595770
	H329	H	-0.508686	0.521736	-0.591299
	O330	O	0.471721	0.425218	0.470338
	H331	H	0.476208	0.429579	0.464716
	H332	H	0.473732	0.415977	0.482261
	O333	O	-0.018630	0.959091	1.023165
	H334	H	-0.010808	0.949066	1.019517
	H335	H	-0.015612	0.948164	1.021926
	O336	O	-0.097122	0.006078	-0.041049
	H337	H	-0.087910	0.003326	-0.039515
	H338	H	-0.088648	0.006920	-0.050580
	O339	O	0.451139	0.494082	0.433620
	H340	H	0.450684	0.491559	0.436616
	H341	H	0.451854	0.490478	0.436231
	O342	O	0.902881	1.053091	1.011686
	H343	H	0.909468	1.046931	1.014555
	H344	H	0.912965	1.049015	1.022538
	O345	O	1.026147	1.157673	0.008949
	H346	H	1.026515	1.158770	0.011042
	H347	H	1.013253	1.163763	0.005452
	O348	O	0.434611	0.514785	0.356723
	H349	H	0.423593	0.510309	0.360591
	H350	H	0.437700	0.521376	0.338866
	O351	O	1.098803	0.068491	1.091060
	H352	H	1.095149	0.070304	1.094812
	H353	H	1.099113	0.079246	1.092796
	O354	O	0.537207	0.386493	0.479962
	H355	H	0.531316	0.382178	0.472964
	H356	H	0.528589	0.389108	0.484058
	O357	O	0.450258	-0.371532	0.449294
	H358	H	0.447766	-0.363936	0.449121
	H359	H	0.461192	-0.364851	0.430153
	O360	O	0.557764	0.629427	0.535833
	H361	H	0.562522	0.622854	0.528800
	H362	H	0.561370	0.636812	0.535801
	O363	O	0.424426	0.638316	0.451363
	H364	H	0.429600	0.645204	0.447232
	H365	H	0.410228	0.650248	0.447074
	O366	O	1.417139	0.480076	0.504952
	H367	H	1.421460	0.469890	0.507581
	H368	H	1.408317	0.483928	0.507612
	O369	O	0.944458	-0.021317	1.096296
	H370	H	0.932769	-0.017072	1.107112
	H371	H	0.939944	-0.013071	1.089657
	O372	O	-0.019786	0.071529	0.076150
	H373	H	-0.036953	0.063297	0.071502
	H374	H	-0.015076	0.062799	0.074554
	O375	O	0.913846	-0.028469	0.004619
	H376	H	0.911040	-0.035126	-0.011197
	H377	H	0.922146	-0.033693	-0.002761
	O378	O	0.504313	0.438615	0.536874
	H379	H	0.490748	0.443277	0.527604
	H380	H	0.501334	0.442312	0.525035
	O381	O	-0.090902	1.036762	1.052349
	H382	H	-0.098015	1.040535	1.055908
	H383	H	-0.100128	1.028329	1.053422
