data_Molecule from HDF5

_cell_length_a		16.368271
_cell_length_b		16.301097
_cell_length_c		16.288540
_cell_angle_alpha	90.168177
_cell_angle_beta	90.062509
_cell_angle_gamma	90.105060
_symmetry_space_group_name_H-M	'P 1'
_symmetry_Int_Tables_number		1

loop_
	_symmetry_equiv_pos_as_xyz
	x,y,z

loop_
	_atom_site_label
	_atom_site_type_symbol
	_atom_site_fract_x
	_atom_site_fract_y
	_atom_site_fract_z
	H0	H	0.404958	0.825446	0.703485
	H1	H	0.597456	0.153938	0.704948
	H2	H	0.596395	0.825927	0.278343
	H3	H	0.402251	0.153690	0.276136
	H4	H	0.714599	0.390967	0.827297
	H5	H	0.716652	0.589827	0.153851
	H6	H	0.285630	0.588389	0.827494
	H7	H	0.285478	0.391118	0.154814
	H8	H	0.836344	0.703100	0.393466
	H9	H	0.163403	0.704261	0.589976
	H10	H	0.836466	0.275821	0.587546
	H11	H	0.163173	0.273636	0.392422
	H12	H	0.837111	0.392217	0.705448
	H13	H	0.162375	0.588547	0.706096
	H14	H	0.836165	0.585358	0.277240
	H15	H	0.163351	0.390593	0.274882
	H16	H	0.403431	0.702562	0.826806
	H17	H	0.598988	0.703901	0.155022
	H18	H	0.596168	0.276798	0.826882
	H19	H	0.403259	0.275767	0.155002
	H20	H	0.713553	0.825971	0.393427
	H21	H	0.715948	0.152856	0.590865
	H22	H	0.287260	0.825743	0.588128
	H23	H	0.284797	0.153588	0.392486
	H24	H	0.901664	0.326244	0.203729
	H25	H	0.098611	0.653885	0.206647
	H26	H	0.097304	0.326963	0.776233
	H27	H	0.902529	0.653734	0.777426
	H28	H	0.214936	0.889458	0.327908
	H29	H	0.214112	0.088293	0.655826
	H30	H	0.784915	0.087278	0.328458
	H31	H	0.787617	0.893099	0.655673
	H32	H	0.337728	0.204326	0.892120
	H33	H	0.663486	0.206689	0.091186
	H34	H	0.337431	0.774781	0.088995
	H35	H	0.664294	0.775556	0.893713
	H36	H	0.337848	0.890885	0.205782
	H37	H	0.663917	0.088872	0.206692
	H38	H	0.337662	0.086703	0.777174
	H39	H	0.664497	0.892238	0.777111
	H40	H	0.901172	0.202416	0.327302
	H41	H	0.098618	0.205193	0.655176
	H42	H	0.095997	0.775561	0.327535
	H43	H	0.903803	0.777127	0.655483
	H44	H	0.214667	0.327122	0.890966
	H45	H	0.216432	0.653805	0.091524
	H46	H	0.784926	0.327134	0.088585
	H47	H	0.786236	0.653363	0.892889
	H48	H	0.410522	0.102695	0.576894
	H49	H	0.601043	0.872867	0.579996
	H50	H	0.603672	0.108569	0.400689
	H51	H	0.399311	0.870747	0.394067
	H52	H	0.591131	0.400485	0.106133
	H53	H	0.590076	0.591194	0.873432
	H54	H	0.401069	0.588942	0.110756
	H55	H	0.417758	0.395316	0.877841
	H56	H	0.111895	0.578573	0.405985
	H57	H	0.881629	0.589746	0.586491
	H58	H	0.117112	0.397139	0.587590
	H59	H	0.882560	0.398899	0.386718
	H60	H	0.115405	0.393329	0.581083
	H61	H	0.885881	0.582903	0.578568
	H62	H	0.116174	0.578385	0.390935
	H63	H	0.882771	0.384371	0.399529
	H64	H	0.405338	0.573429	0.104832
	H65	H	0.602454	0.582356	0.872354
	H66	H	0.593315	0.395908	0.107073
	H67	H	0.400520	0.386628	0.870375
	H68	H	0.587928	0.107078	0.390217
	H69	H	0.595980	0.870630	0.592489
	H70	H	0.398371	0.108321	0.584517
	H71	H	0.413651	0.875211	0.392936
	H72	H	0.906295	0.608069	0.088663
	H73	H	0.102168	0.373557	0.079302
	H74	H	0.097771	0.606593	0.902352
	H75	H	0.900726	0.370543	0.893449
	H76	H	0.094106	0.895310	0.608567
	H77	H	0.087675	0.080400	0.377815
	H78	H	0.910319	0.076505	0.604909
	H79	H	0.916619	0.883035	0.374555
	H80	H	0.618123	0.083148	0.892660
	H81	H	0.389340	0.077836	0.077780
	H82	H	0.618350	0.895290	0.090125
	H83	H	0.386591	0.899577	0.900569
	H84	H	0.616147	0.892269	0.080852
	H85	H	0.385090	0.079635	0.090491
	H86	H	0.617189	0.088848	0.901165
	H87	H	0.384742	0.897344	0.892342
	H88	H	0.911422	0.089021	0.607982
	H89	H	0.095111	0.085213	0.373775
	H90	H	0.096420	0.899016	0.607450
	H91	H	0.890163	0.893630	0.370144
	H92	H	0.095374	0.608875	0.893668
	H93	H	0.089391	0.373464	0.090854
	H94	H	0.910634	0.605091	0.083596
	H95	H	0.914180	0.374959	0.894843
	H96	H	0.411484	0.106216	0.592278
	H97	H	0.588054	0.875927	0.581758
	H98	H	0.587651	0.101340	0.408686
	H99	H	0.406663	0.876626	0.405874
	H100	H	0.596906	0.399723	0.107508
	H101	H	0.589582	0.575943	0.877929
	H102	H	0.416600	0.585851	0.105160
	H103	H	0.400231	0.406731	0.876483
	H104	H	0.117252	0.591166	0.398848
	H105	H	0.883925	0.578969	0.589166
	H106	H	0.113805	0.400705	0.582048
	H107	H	0.889878	0.401973	0.403963
	H108	H	0.903157	0.606886	0.081864
	H109	H	0.086959	0.378874	0.074921
	H110	H	0.089313	0.604886	0.898690
	H111	H	0.904863	0.375866	0.905866
	H112	H	0.092175	0.898431	0.606759
	H113	H	0.096098	0.076810	0.376651
	H114	H	0.900408	0.083462	0.609764
	H115	H	0.911061	0.910876	0.380300
	H116	H	0.614501	0.079261	0.901397
	H117	H	0.384054	0.089871	0.081684
	H118	H	0.614718	0.901402	0.083836
	H119	H	0.384109	0.890796	0.898889
	C120	C	0.379050	-0.002100	0.612765
	C121	C	0.622567	0.981503	0.613330
	C122	C	0.621227	-0.002529	0.370841
	C123	C	0.378330	0.982170	0.369099
	C124	C	0.621830	0.369375	-0.000844
	C125	C	0.622649	0.611518	0.982767
	C126	C	0.379137	0.611230	-0.000962
	C127	C	0.378463	0.368188	0.982932
	C128	C	0.007332	0.610631	0.369928
	C129	C	0.991554	0.612198	0.613096
	C130	C	0.007981	0.368505	0.612270
	C131	C	0.992366	0.366362	0.368057
	C132	C	0.878475	0.498313	0.112055
	C133	C	0.121687	0.482848	0.111717
	C134	C	0.121815	0.498642	0.869634
	C135	C	0.878374	0.481808	0.869511
	C136	C	0.121940	0.868217	0.499633
	C137	C	0.121535	0.110473	0.483918
	C138	C	0.878697	0.110709	0.499740
	C139	C	0.878407	0.868273	0.483199
	C140	C	0.508998	0.111467	0.869825
	C141	C	0.493243	0.111831	0.113161
	C142	C	0.508603	0.867822	0.112805
	C143	C	0.493271	0.867895	0.869613
	C144	C	0.383242	0.874417	0.666423
	C145	C	0.618646	0.104846	0.667533
	C146	C	0.617893	0.874717	0.315656
	C147	C	0.381264	0.105023	0.314180
	C148	C	0.676474	0.370981	0.876050
	C149	C	0.678107	0.609460	0.105521
	C150	C	0.323878	0.608756	0.876069
	C151	C	0.323999	0.371135	0.106356
	C152	C	0.885026	0.665263	0.372742
	C153	C	0.114573	0.666847	0.610453
	C154	C	0.885187	0.313839	0.608574
	C155	C	0.114813	0.311591	0.371522
	C156	C	0.885560	0.371296	0.667316
	C157	C	0.114083	0.609413	0.668195
	C158	C	0.884725	0.606623	0.315215
	C159	C	0.114778	0.369510	0.313092
	C160	C	0.382494	0.665467	0.875689
	C161	C	0.619836	0.666389	0.105975
	C162	C	0.618011	0.314183	0.875739
	C163	C	0.382166	0.313657	0.106325
	C164	C	0.676030	0.874679	0.372738
	C165	C	0.677384	0.104370	0.610915
	C166	C	0.324916	0.874609	0.609311
	C167	C	0.323064	0.105054	0.371741
	C168	C	0.881084	0.375267	0.166445
	C169	C	0.119565	0.605366	0.168347
	C170	C	0.118461	0.375724	0.814141
	C171	C	0.881678	0.604986	0.815098
	C172	C	0.176926	0.869621	0.376706
	C173	C	0.176599	0.108868	0.606904
	C174	C	0.822938	0.108255	0.376974
	C175	C	0.824595	0.871997	0.606580
	C176	C	0.386269	0.166119	0.872198
	C177	C	0.615392	0.167745	0.111364
	C178	C	0.386134	0.812866	0.109623
	C179	C	0.615749	0.813528	0.872914
	C180	C	0.386430	0.870118	0.168028
	C181	C	0.615536	0.109360	0.168802
	C182	C	0.386317	0.107929	0.814733
	C183	C	0.615806	0.871297	0.814934
	C184	C	0.880787	0.165260	0.376493
	C185	C	0.119212	0.166923	0.606502
	C186	C	0.117648	0.813296	0.376348
	C187	C	0.882326	0.814412	0.606635
	C188	C	0.176677	0.375821	0.871272
	C189	C	0.178114	0.605163	0.111402
	C190	C	0.823261	0.375678	0.108926
	C191	C	0.823573	0.604592	0.872091
	C192	C	0.400466	0.083820	0.590878
	C193	C	0.601146	0.895302	0.591323
	C194	C	0.599565	0.083511	0.393310
	C195	C	0.400084	0.896484	0.390970
	C196	C	0.600185	0.391989	0.084733
	C197	C	0.600496	0.589600	0.896707
	C198	C	0.401228	0.589300	0.084888
	C199	C	0.399793	0.389648	0.897147
	C200	C	0.092845	0.589018	0.392045
	C201	C	0.905935	0.590416	0.590967
	C202	C	0.093493	0.390708	0.590267
	C203	C	0.907004	0.388528	0.390247
	C204	C	0.900300	0.584671	0.090966
	C205	C	0.099368	0.397466	0.088348
	C206	C	0.100475	0.584521	0.891692
	C207	C	0.900277	0.395932	0.891418
	C208	C	0.100476	0.890731	0.585442
	C209	C	0.099379	0.087449	0.398255
	C210	C	0.900951	0.089422	0.585397
	C211	C	0.899729	0.889508	0.397161
	C212	C	0.594503	0.090070	0.891981
	C213	C	0.408180	0.089152	0.090256
	C214	C	0.594431	0.889915	0.091252
	C215	C	0.407329	0.889569	0.890998
	Zn216	Zn	0.500742	-0.010327	0.741301
	Zn217	Zn	0.500846	-0.010024	0.241281
	Zn218	Zn	0.750422	0.490558	-0.009493
	Zn219	Zn	0.250692	0.490445	-0.009045
	Zn220	Zn	-0.000121	0.740112	0.492052
	Zn221	Zn	0.000132	0.238544	0.491114
	Zn222	Zn	-0.000204	0.490719	0.741292
	Zn223	Zn	0.000251	0.489685	0.239903
	Zn224	Zn	0.500629	0.739298	-0.008933
	Zn225	Zn	0.500891	0.240286	-0.008970
	Zn226	Zn	0.750079	-0.010312	0.491483
	Zn227	Zn	0.250638	-0.010138	0.491553
	N228	N	0.416470	0.951973	0.668498
	N229	N	0.585180	0.027396	0.668860
	N230	N	0.584519	0.952035	0.314559
	N231	N	0.414657	0.027713	0.312271
	N232	N	0.678798	0.404607	0.953528
	N233	N	0.679667	0.576074	0.028019
	N234	N	0.321990	0.575638	0.953688
	N235	N	0.321426	0.404126	0.028740
	N236	N	0.962133	0.667568	0.406460
	N237	N	0.037286	0.668696	0.576964
	N238	N	0.962407	0.311822	0.575281
	N239	N	0.037608	0.309455	0.404606
	N240	N	0.962801	0.404728	0.669478
	N241	N	0.036904	0.576065	0.669761
	N242	N	0.961902	0.573456	0.313359
	N243	N	0.037620	0.402653	0.310760
	N244	N	0.416141	0.666913	0.953106
	N245	N	0.585881	0.667785	0.028618
	N246	N	0.584710	0.312871	0.953233
	N247	N	0.415474	0.311815	0.028894
	N248	N	0.678001	0.952091	0.406587
	N249	N	0.679680	0.026807	0.577743
	N250	N	0.322552	0.952194	0.576372
	N251	N	0.321126	0.027651	0.405237
	N252	N	0.915023	0.452603	0.168218
	N253	N	0.085297	0.528306	0.168760
	N254	N	0.084887	0.452949	0.813091
	N255	N	0.914940	0.527464	0.813113
	N256	N	0.179537	0.903200	0.454279
	N257	N	0.178355	0.074530	0.529585
	N258	N	0.821581	0.074999	0.454333
	N259	N	0.821865	0.904537	0.528758
	N260	N	0.463379	0.168295	0.905781
	N261	N	0.538555	0.169274	0.077298
	N262	N	0.463317	0.811121	0.076296
	N263	N	0.538529	0.811099	0.905962
	N264	N	0.463462	0.904020	0.169592
	N265	N	0.538462	0.075330	0.169941
	N266	N	0.463647	0.074804	0.813056
	N267	N	0.538552	0.904561	0.812952
	N268	N	0.914878	0.166960	0.453711
	N269	N	0.085951	0.168161	0.529026
	N270	N	0.084335	0.812172	0.453849
	N271	N	0.915047	0.812120	0.529103
	N272	N	0.179029	0.453268	0.905080
	N273	N	0.179276	0.527996	0.076660
	N274	N	0.821833	0.453159	0.075862
	N275	N	0.821659	0.527062	0.905144
	O276	O	1.134724	0.115321	1.136654
	H277	H	1.134379	0.111234	1.136261
	H278	H	1.139840	0.109032	1.137152
	O279	O	0.109040	1.152943	1.106855
	H280	H	0.114506	1.150672	1.115139
	H281	H	0.110829	1.157351	1.114088
	O282	O	1.107758	1.113352	0.114787
	H283	H	1.106282	1.124920	0.120885
	H284	H	1.115153	1.124207	0.114372
	O285	O	0.104209	1.106364	1.129705
	H286	H	0.107154	1.108440	1.127841
	H287	H	0.097408	1.111611	1.131950
