data_Molecule from HDF5

_cell_length_a		16.279585
_cell_length_b		16.296277
_cell_length_c		16.274536
_cell_angle_alpha	89.921855
_cell_angle_beta	89.833311
_cell_angle_gamma	90.034791
_symmetry_space_group_name_H-M	'P 1'
_symmetry_Int_Tables_number		1

loop_
	_symmetry_equiv_pos_as_xyz
	x,y,z

loop_
	_atom_site_label
	_atom_site_type_symbol
	_atom_site_fract_x
	_atom_site_fract_y
	_atom_site_fract_z
	H0	H	0.403303	0.833570	0.717426
	H1	H	0.600591	0.160831	0.718229
	H2	H	0.604364	0.834295	0.286593
	H3	H	0.404156	0.159948	0.287864
	H4	H	0.715145	0.397418	0.836711
	H5	H	0.715470	0.593824	0.163837
	H6	H	0.285804	0.595370	0.837587
	H7	H	0.285069	0.396078	0.164437
	H8	H	0.838856	0.715418	0.400584
	H9	H	0.165201	0.713353	0.599561
	H10	H	0.839214	0.281929	0.601398
	H11	H	0.165851	0.284907	0.401455
	H12	H	0.836887	0.401134	0.714168
	H13	H	0.163927	0.600330	0.717080
	H14	H	0.837988	0.599095	0.285545
	H15	H	0.163574	0.398236	0.283683
	H16	H	0.399320	0.714879	0.839538
	H17	H	0.600721	0.709893	0.164958
	H18	H	0.600349	0.280365	0.837387
	H19	H	0.401890	0.281270	0.165229
	H20	H	0.719239	0.834199	0.404039
	H21	H	0.718825	0.160652	0.603683
	H22	H	0.284574	0.835658	0.604066
	H23	H	0.290753	0.161956	0.405620
	H24	H	0.899787	0.334702	0.218047
	H25	H	0.101212	0.660932	0.215485
	H26	H	0.099852	0.335443	0.784552
	H27	H	0.899836	0.661369	0.786110
	H28	H	0.220148	0.899703	0.339443
	H29	H	0.216867	0.098608	0.665750
	H30	H	0.785500	0.099960	0.339446
	H31	H	0.787530	0.898387	0.665640
	H32	H	0.338094	0.208546	0.904779
	H33	H	0.663835	0.213197	0.102378
	H34	H	0.339054	0.779732	0.105636
	H35	H	0.665123	0.780620	0.902226
	H36	H	0.339514	0.896546	0.220442
	H37	H	0.666044	0.094361	0.215141
	H38	H	0.339639	0.095662	0.788065
	H39	H	0.665082	0.895831	0.786349
	H40	H	0.903884	0.213752	0.337650
	H41	H	0.103294	0.216020	0.664071
	H42	H	0.104611	0.782647	0.338449
	H43	H	0.900589	0.780847	0.664111
	H44	H	0.214470	0.333459	0.901412
	H45	H	0.219321	0.658045	0.101650
	H46	H	0.786426	0.333119	0.099147
	H47	H	0.783341	0.659258	0.900414
	H48	H	0.395021	0.118484	0.595456
	H49	H	0.598017	0.880160	0.597676
	H50	H	0.594852	0.112601	0.410314
	H51	H	0.411195	0.878992	0.405958
	H52	H	0.582773	0.410434	0.111281
	H53	H	0.593060	0.584751	0.885953
	H54	H	0.419935	0.586790	0.113159
	H55	H	0.402367	0.400506	0.882273
	H56	H	0.118174	0.590160	0.405759
	H57	H	0.888227	0.585169	0.589862
	H58	H	0.118822	0.409426	0.599800
	H59	H	0.889303	0.414174	0.415541
	H60	H	0.119273	0.400395	0.591549
	H61	H	0.883320	0.590824	0.600187
	H62	H	0.117232	0.592725	0.410902
	H63	H	0.882603	0.406715	0.399626
	H64	H	0.404318	0.595169	0.120483
	H65	H	0.587694	0.590447	0.885827
	H66	H	0.591496	0.390489	0.120123
	H67	H	0.409452	0.406790	0.886048
	H68	H	0.594100	0.112259	0.409961
	H69	H	0.592533	0.881846	0.596144
	H70	H	0.419184	0.115297	0.610252
	H71	H	0.415776	0.884477	0.415559
	H72	H	0.913553	0.610970	0.093050
	H73	H	0.090577	0.383736	0.088990
	H74	H	0.093363	0.614260	0.907658
	H75	H	0.911753	0.381799	0.905458
	H76	H	0.089105	0.907088	0.616107
	H77	H	0.098162	0.099761	0.382385
	H78	H	0.911550	0.090739	0.617541
	H79	H	0.910534	0.913088	0.387865
	H80	H	0.622484	0.096211	0.905115
	H81	H	0.385040	0.093043	0.094760
	H82	H	0.617922	0.903027	0.094953
	H83	H	0.388138	0.908255	0.912538
	H84	H	0.617840	0.903039	0.094058
	H85	H	0.387659	0.084956	0.093469
	H86	H	0.616597	0.089849	0.919695
	H87	H	0.385074	0.903957	0.907418
	H88	H	0.911647	0.092653	0.617568
	H89	H	0.103460	0.086420	0.384601
	H90	H	0.093568	0.901928	0.618846
	H91	H	0.916662	0.904980	0.387118
	H92	H	0.090827	0.611351	0.910756
	H93	H	0.095912	0.379674	0.094338
	H94	H	0.904407	0.612495	0.087888
	H95	H	0.908069	0.382317	0.910765
	H96	H	0.418167	0.106942	0.583748
	H97	H	0.597297	0.882340	0.591214
	H98	H	0.593963	0.113002	0.410682
	H99	H	0.403363	0.880925	0.414761
	H100	H	0.605858	0.409228	0.119019
	H101	H	0.595421	0.591563	0.883820
	H102	H	0.404084	0.576833	0.115131
	H103	H	0.411820	0.396881	0.884705
	H104	H	0.115288	0.587526	0.409647
	H105	H	0.884705	0.597517	0.590221
	H106	H	0.115060	0.411336	0.588239
	H107	H	0.884857	0.395913	0.414853
	H108	H	0.904892	0.615833	0.098179
	H109	H	0.087509	0.380828	0.096778
	H110	H	0.095378	0.613109	0.911942
	H111	H	0.905441	0.379968	0.904634
	H112	H	0.096519	0.908987	0.618401
	H113	H	0.089336	0.089696	0.387802
	H114	H	0.909920	0.091886	0.618103
	H115	H	0.907367	0.904286	0.383677
	H116	H	0.617237	0.080387	0.906818
	H117	H	0.383653	0.087792	0.101383
	H118	H	0.618243	0.903768	0.094864
	H119	H	0.385884	0.902199	0.914332
	C120	C	0.380721	0.006021	0.625392
	C121	C	0.624659	0.989059	0.624734
	C122	C	0.624653	0.005417	0.380887
	C123	C	0.381527	0.989153	0.382738
	C124	C	0.622267	0.374172	0.008806
	C125	C	0.622060	0.617287	0.992727
	C126	C	0.379697	0.616739	0.009336
	C127	C	0.378656	0.372996	0.992498
	C128	C	0.009527	0.619848	0.379373
	C129	C	0.993023	0.620840	0.622860
	C130	C	0.009823	0.377696	0.622446
	C131	C	0.993271	0.376824	0.379984
	C132	C	0.878816	0.505243	0.122375
	C133	C	0.122283	0.488412	0.122788
	C134	C	0.122031	0.505783	0.879784
	C135	C	0.878695	0.488672	0.878234
	C136	C	0.124161	0.876766	0.510330
	C137	C	0.125018	0.120746	0.493227
	C138	C	0.881297	0.120753	0.509817
	C139	C	0.881610	0.877307	0.493783
	C140	C	0.510781	0.117168	0.881735
	C141	C	0.493407	0.117598	0.124534
	C142	C	0.510505	0.873988	0.125156
	C143	C	0.493520	0.874739	0.881236
	C144	C	0.382163	0.882895	0.680414
	C145	C	0.621818	0.111836	0.680606
	C146	C	0.624116	0.882959	0.324898
	C147	C	0.384099	0.111623	0.326466
	C148	C	0.677507	0.376752	0.885832
	C149	C	0.678084	0.614725	0.115287
	C150	C	0.323674	0.615631	0.886569
	C151	C	0.322796	0.375334	0.115465
	C152	C	0.887517	0.677115	0.380670
	C153	C	0.116038	0.676066	0.620385
	C154	C	0.887568	0.320869	0.621097
	C155	C	0.116525	0.322130	0.381061
	C156	C	0.886499	0.380144	0.677090
	C157	C	0.115548	0.619557	0.678450
	C158	C	0.886876	0.618892	0.323694
	C159	C	0.115328	0.378535	0.322513
	C160	C	0.380167	0.674924	0.887649
	C161	C	0.620724	0.672248	0.115816
	C162	C	0.620243	0.318415	0.886134
	C163	C	0.381235	0.318432	0.116057
	C164	C	0.681028	0.882987	0.383456
	C165	C	0.680181	0.112010	0.623126
	C166	C	0.323299	0.884055	0.623973
	C167	C	0.327570	0.112669	0.384789
	C168	C	0.880045	0.383196	0.179251
	C169	C	0.121281	0.611418	0.178106
	C170	C	0.119781	0.383631	0.823119
	C171	C	0.879899	0.611927	0.823358
	C172	C	0.181494	0.879037	0.387989
	C173	C	0.179189	0.118628	0.616674
	C174	C	0.824758	0.119217	0.387559
	C175	C	0.825393	0.878371	0.616519
	C176	C	0.387399	0.171614	0.884087
	C177	C	0.615696	0.174216	0.122150
	C178	C	0.387988	0.817667	0.125012
	C179	C	0.616336	0.818649	0.882333
	C180	C	0.388125	0.875668	0.182254
	C181	C	0.616602	0.115470	0.178633
	C182	C	0.388208	0.115465	0.826063
	C183	C	0.616384	0.875840	0.824631
	C184	C	0.883731	0.175851	0.386764
	C185	C	0.122932	0.177260	0.615740
	C186	C	0.123935	0.821018	0.387348
	C187	C	0.881847	0.819983	0.615768
	C188	C	0.176989	0.382650	0.881140
	C189	C	0.180121	0.610066	0.121588
	C190	C	0.823664	0.382281	0.120055
	C191	C	0.821898	0.610953	0.880274
	C192	C	0.403949	0.091446	0.603010
	C193	C	0.602430	0.903441	0.601834
	C194	C	0.601079	0.090612	0.403728
	C195	C	0.403566	0.903652	0.405472
	C196	C	0.599753	0.396728	0.094865
	C197	C	0.598964	0.595252	0.907216
	C198	C	0.402839	0.593176	0.094153
	C199	C	0.401447	0.394952	0.906596
	C200	C	0.094826	0.596753	0.402066
	C201	C	0.907592	0.598045	0.600074
	C202	C	0.095599	0.400381	0.599654
	C203	C	0.907724	0.399177	0.403254
	C204	C	0.900990	0.590858	0.099654
	C205	C	0.098434	0.403363	0.100001
	C206	C	0.099630	0.590781	0.903176
	C207	C	0.901854	0.403464	0.900390
	C208	C	0.100232	0.899433	0.595497
	C209	C	0.103520	0.098475	0.407336
	C210	C	0.904205	0.098211	0.595609
	C211	C	0.904818	0.900646	0.408193
	C212	C	0.596506	0.095225	0.903908
	C213	C	0.407624	0.095102	0.102839
	C214	C	0.595806	0.896530	0.101691
	C215	C	0.408398	0.898068	0.904567
	Zn216	Zn	0.502752	-0.003517	0.753571
	Zn217	Zn	0.502286	-0.003744	0.253467
	Zn218	Zn	0.750652	0.496085	0.000148
	Zn219	Zn	0.250891	0.495072	0.001234
	Zn220	Zn	0.002470	0.748318	0.501033
	Zn221	Zn	0.003268	0.248719	0.501105
	Zn222	Zn	0.001001	0.499113	0.750672
	Zn223	Zn	0.000405	0.498089	0.251214
	Zn224	Zn	0.501411	0.746497	0.002512
	Zn225	Zn	0.501325	0.245692	0.001530
	Zn226	Zn	0.753551	-0.001653	0.502366
	Zn227	Zn	0.252267	-0.001159	0.503190
	N228	N	0.417093	0.959696	0.681562
	N229	N	0.587916	0.034421	0.681435
	N230	N	0.589644	0.959920	0.323550
	N231	N	0.416749	0.033764	0.324838
	N232	N	0.678900	0.410562	0.963212
	N233	N	0.679053	0.581328	0.037697
	N234	N	0.323261	0.580187	0.963317
	N235	N	0.321001	0.408354	0.037656
	N236	N	0.964941	0.677941	0.414455
	N237	N	0.038856	0.676890	0.586506
	N238	N	0.965403	0.319035	0.587969
	N239	N	0.039562	0.320987	0.416095
	N240	N	0.963600	0.414598	0.678007
	N241	N	0.037990	0.585901	0.680259
	N242	N	0.963837	0.584269	0.322681
	N243	N	0.037688	0.411818	0.321723
	N244	N	0.414285	0.675955	0.964885
	N245	N	0.586477	0.673970	0.038731
	N246	N	0.586412	0.317230	0.963707
	N247	N	0.414936	0.316611	0.038496
	N248	N	0.681477	0.960113	0.417686
	N249	N	0.682093	0.034739	0.589118
	N250	N	0.322043	0.961708	0.590704
	N251	N	0.325766	0.035605	0.419067
	N252	N	0.913540	0.460733	0.180793
	N253	N	0.086114	0.534605	0.179166
	N254	N	0.086493	0.461174	0.821862
	N255	N	0.914477	0.534925	0.821755
	N256	N	0.181601	0.913105	0.465288
	N257	N	0.180717	0.084443	0.539488
	N258	N	0.823277	0.085725	0.465327
	N259	N	0.825374	0.913448	0.539615
	N260	N	0.464573	0.172894	0.917897
	N261	N	0.538048	0.175803	0.089192
	N262	N	0.465046	0.816539	0.090121
	N263	N	0.539026	0.817899	0.916904
	N264	N	0.465245	0.909811	0.182623
	N265	N	0.539534	0.080849	0.180057
	N266	N	0.465881	0.082277	0.824416
	N267	N	0.539176	0.910054	0.823877
	N268	N	0.918022	0.177003	0.463924
	N269	N	0.089659	0.178427	0.538122
	N270	N	0.088904	0.819500	0.464340
	N271	N	0.916216	0.819208	0.538359
	N272	N	0.178665	0.459620	0.915667
	N273	N	0.180747	0.532793	0.087849
	N274	N	0.822736	0.459252	0.085504
	N275	N	0.820933	0.533531	0.913734
	O276	O	0.537289	0.497354	0.612669
	H277	H	0.542439	0.502902	0.611129
	H278	H	0.535177	0.487154	0.615875
	O279	O	0.479892	0.540213	0.479491
	H280	H	0.482375	0.542023	0.484328
	H281	H	0.463867	0.538975	0.474262
	O282	O	0.998480	0.984988	0.044879
	H283	H	0.995572	0.976695	0.033611
	H284	H	1.007604	0.984905	0.034480
	O285	O	1.045433	-0.004345	0.979202
	H286	H	1.040493	-0.002576	0.992578
	H287	H	1.044654	-0.016310	0.977345
	O288	O	0.479272	0.483817	0.423265
	H289	H	0.491511	0.490214	0.415420
	H290	H	0.482991	0.495099	0.429820
	O291	O	0.465010	0.506682	0.417941
	H292	H	0.466785	0.508506	0.404327
	H293	H	0.467830	0.501763	0.415946
	O294	O	0.418507	0.514052	0.442684
	H295	H	0.409323	0.521339	0.438969
	H296	H	0.414641	0.523184	0.448387
	O297	O	0.084895	-0.066514	0.912499
	H298	H	0.079927	-0.071459	0.913993
	H299	H	0.084201	-0.042930	0.907577
	O300	O	-0.025276	0.915426	0.099237
	H301	H	-0.026935	0.910081	0.102900
	H302	H	-0.023861	0.917682	0.109141
	O303	O	0.908079	0.966703	0.010849
	H304	H	0.902495	0.966838	0.021459
	H305	H	0.903915	0.971803	0.004023
	O306	O	0.069518	0.826693	0.880524
	H307	H	0.076893	0.824735	0.874062
	H308	H	0.074051	0.825320	0.884416
	O309	O	0.438192	0.535753	0.597661
	H310	H	0.435776	0.521735	0.600989
	H311	H	0.436325	0.521807	0.607277
	O312	O	0.053614	0.025955	0.074395
	H313	H	0.056739	0.013023	0.081786
	H314	H	0.055598	0.027084	0.082762
	O315	O	0.972405	0.088478	0.017240
	H316	H	0.977687	0.085188	0.018935
	H317	H	0.970933	0.096548	0.012587
	O318	O	0.978920	0.973784	0.998926
	H319	H	0.982074	0.977026	0.984520
	H320	H	0.969432	0.978132	0.991071
	O321	O	0.447016	0.377265	1.347435
	H322	H	0.443592	0.391144	1.359071
	H323	H	0.448006	0.383947	1.350928
	O324	O	0.505994	0.365411	0.544873
	H325	H	0.511461	0.354521	0.541199
	H326	H	0.505124	0.379750	0.545407
	O327	O	-0.007240	-0.088580	-0.000821
	H328	H	-0.006502	-0.098339	0.010160
	H329	H	-0.000025	-0.076105	-0.004279
	O330	O	0.548830	0.601991	0.528378
	H331	H	0.544683	0.601837	0.529432
	H332	H	0.549555	0.604656	0.529002
	O333	O	0.079962	1.078857	0.951961
	H334	H	0.087111	1.076443	0.956640
	H335	H	0.087733	1.085995	0.946359
	O336	O	0.102173	0.067568	-0.028435
	H337	H	0.092342	0.073496	-0.021987
	H338	H	0.109225	0.071684	-0.018461
	O339	O	0.434816	0.573698	0.466271
	H340	H	0.438644	0.576915	0.469929
	H341	H	0.430949	0.588504	0.478238
	O342	O	1.042661	0.934931	0.912155
	H343	H	1.062924	0.937549	0.904676
	H344	H	1.032823	0.935022	0.906861
	O345	O	0.993975	1.055643	0.036137
	H346	H	0.994756	1.046802	0.050934
	H347	H	0.982651	1.055707	0.029823
	O348	O	0.490951	0.587160	0.428727
	H349	H	0.497772	0.589375	0.440287
	H350	H	0.491551	0.585550	0.415614
	O351	O	0.512055	0.395852	0.453362
	H352	H	0.504640	0.391739	0.439447
	H353	H	0.520439	0.386265	0.444769
	O354	O	0.581079	0.424713	0.452569
	H355	H	0.580338	0.420796	0.455949
	H356	H	0.593805	0.425133	0.448909
	O357	O	0.908521	0.051814	0.949025
	H358	H	0.919089	0.063559	0.953729
	H359	H	0.906393	0.060817	0.947760
	O360	O	0.503479	0.550277	0.540458
	H361	H	0.501179	0.563761	0.541853
	H362	H	0.495440	0.555967	0.550826
	O363	O	0.597850	0.402931	0.381838
	H364	H	0.602311	0.396043	0.384111
	H365	H	0.601680	0.394768	0.380936
	O366	O	0.968943	1.035277	0.991326
	H367	H	0.959384	1.021124	0.991355
	H368	H	0.964744	1.029050	0.996273
	O369	O	1.015891	-0.107459	1.093249
	H370	H	1.010514	-0.115372	1.087631
	H371	H	1.016442	-0.122646	1.098483
	O372	O	0.061756	-0.038264	0.063317
	H373	H	0.071704	-0.035046	0.064081
	H374	H	0.064456	-0.051894	0.049656
	O375	O	0.853897	0.036561	-0.029321
	H376	H	0.855640	0.030349	-0.038449
	H377	H	0.847399	0.046264	-0.012504
	O378	O	0.366101	0.422522	0.601412
	H379	H	0.352985	0.411549	0.611638
	H380	H	0.372834	0.409811	0.594383
	O381	O	0.419598	0.520128	0.459237
	H382	H	0.428048	0.513734	0.458511
	H383	H	0.417764	0.517027	0.457867
