data_Molecule from HDF5

_cell_length_a		16.244761
_cell_length_b		16.333354
_cell_length_c		16.339833
_cell_angle_alpha	89.849316
_cell_angle_beta	90.020299
_cell_angle_gamma	89.920879
_symmetry_space_group_name_H-M	'P 1'
_symmetry_Int_Tables_number		1

loop_
	_symmetry_equiv_pos_as_xyz
	x,y,z

loop_
	_atom_site_label
	_atom_site_type_symbol
	_atom_site_fract_x
	_atom_site_fract_y
	_atom_site_fract_z
	H0	H	0.408119	0.837207	0.716934
	H1	H	0.609584	0.162510	0.718255
	H2	H	0.607371	0.836562	0.286541
	H3	H	0.408348	0.162431	0.285520
	H4	H	0.722969	0.400713	0.838752
	H5	H	0.720416	0.595472	0.165893
	H6	H	0.294070	0.596492	0.838329
	H7	H	0.293525	0.400576	0.166063
	H8	H	0.843311	0.715092	0.403185
	H9	H	0.171249	0.714242	0.599458
	H10	H	0.842272	0.287037	0.599025
	H11	H	0.170763	0.285281	0.401873
	H12	H	0.843261	0.400576	0.717742
	H13	H	0.171306	0.599161	0.716958
	H14	H	0.844426	0.601217	0.285322
	H15	H	0.171190	0.403492	0.288871
	H16	H	0.407439	0.715241	0.839434
	H17	H	0.606313	0.713188	0.165115
	H18	H	0.607502	0.283566	0.840162
	H19	H	0.408716	0.283031	0.165282
	H20	H	0.721345	0.836143	0.405078
	H21	H	0.721672	0.163349	0.598574
	H22	H	0.293928	0.836942	0.598366
	H23	H	0.293570	0.162868	0.402044
	H24	H	0.908500	0.337816	0.218047
	H25	H	0.105287	0.663946	0.213959
	H26	H	0.108730	0.337267	0.785146
	H27	H	0.907345	0.663027	0.785866
	H28	H	0.220722	0.903604	0.337705
	H29	H	0.222067	0.097551	0.664542
	H30	H	0.792235	0.100549	0.337809
	H31	H	0.793764	0.902814	0.664997
	H32	H	0.343232	0.214037	0.903156
	H33	H	0.671271	0.212775	0.099738
	H34	H	0.343361	0.785396	0.098916
	H35	H	0.671541	0.783650	0.903179
	H36	H	0.344054	0.899918	0.216472
	H37	H	0.671423	0.097081	0.215554
	H38	H	0.343507	0.098994	0.786374
	H39	H	0.672211	0.900990	0.787819
	H40	H	0.908473	0.216395	0.338662
	H41	H	0.106535	0.215247	0.664549
	H42	H	0.107796	0.784322	0.338844
	H43	H	0.907770	0.784476	0.664242
	H44	H	0.222282	0.335795	0.904338
	H45	H	0.220208	0.663423	0.097357
	H46	H	0.794061	0.336660	0.100508
	H47	H	0.791927	0.663050	0.903404
	H48	H	0.412186	0.115323	0.587678
	H49	H	0.601844	0.883544	0.596281
	H50	H	0.596456	0.114585	0.407194
	H51	H	0.419512	0.886481	0.415130
	H52	H	0.600845	0.409545	0.116694
	H53	H	0.607678	0.593921	0.883073
	H54	H	0.420921	0.608274	0.120449
	H55	H	0.426902	0.410031	0.891331
	H56	H	0.122700	0.587598	0.406205
	H57	H	0.892857	0.593410	0.587517
	H58	H	0.122928	0.408976	0.594652
	H59	H	0.891529	0.408551	0.411296
	H60	H	0.122077	0.407623	0.594062
	H61	H	0.892660	0.586488	0.596472
	H62	H	0.126273	0.597559	0.403794
	H63	H	0.890387	0.409989	0.407124
	H64	H	0.397998	0.591037	0.122681
	H65	H	0.597331	0.584718	0.888764
	H66	H	0.598157	0.401548	0.117416
	H67	H	0.412879	0.394546	0.882736
	H68	H	0.602187	0.115355	0.409227
	H69	H	0.599372	0.884581	0.595105
	H70	H	0.413105	0.118222	0.599466
	H71	H	0.405781	0.880306	0.408165
	H72	H	0.901063	0.621466	0.096510
	H73	H	0.105520	0.383066	0.092872
	H74	H	0.097583	0.613598	0.913619
	H75	H	0.914762	0.383227	0.906008
	H76	H	0.100063	0.906811	0.617648
	H77	H	0.099961	0.088726	0.387394
	H78	H	0.918321	0.092799	0.615380
	H79	H	0.924928	0.906466	0.388020
	H80	H	0.625425	0.092843	0.903313
	H81	H	0.392881	0.090140	0.087326
	H82	H	0.626447	0.900253	0.094427
	H83	H	0.389753	0.908520	0.901480
	H84	H	0.621941	0.908751	0.089659
	H85	H	0.391031	0.085685	0.098760
	H86	H	0.623908	0.096056	0.913817
	H87	H	0.390513	0.899537	0.910761
	H88	H	0.913701	0.096890	0.618528
	H89	H	0.095300	0.098949	0.385569
	H90	H	0.100617	0.906257	0.616597
	H91	H	0.909745	0.899123	0.381075
	H92	H	0.105806	0.616392	0.908740
	H93	H	0.101479	0.382187	0.101783
	H94	H	0.923294	0.616155	0.104625
	H95	H	0.920809	0.386423	0.910590
	H96	H	0.422552	0.113188	0.593796
	H97	H	0.601538	0.885117	0.593678
	H98	H	0.600699	0.117213	0.403299
	H99	H	0.419602	0.883201	0.399974
	H100	H	0.605645	0.403737	0.120481
	H101	H	0.593924	0.599206	0.886693
	H102	H	0.422601	0.580235	0.112213
	H103	H	0.405205	0.415657	0.886531
	H104	H	0.123617	0.595547	0.414403
	H105	H	0.888908	0.597093	0.597364
	H106	H	0.122568	0.409154	0.593099
	H107	H	0.889337	0.406017	0.408233
	H108	H	0.917817	0.611710	0.082082
	H109	H	0.095986	0.385376	0.094492
	H110	H	0.097216	0.615464	0.904082
	H111	H	0.913500	0.385316	0.913253
	H112	H	0.100684	0.906971	0.616916
	H113	H	0.105942	0.097760	0.382389
	H114	H	0.911987	0.090505	0.616413
	H115	H	0.909390	0.916734	0.386644
	H116	H	0.620862	0.085418	0.910638
	H117	H	0.388605	0.097375	0.095951
	H118	H	0.625009	0.908794	0.099943
	H119	H	0.394615	0.911831	0.913402
	C120	C	0.386698	0.008196	0.622590
	C121	C	0.629690	0.991893	0.623317
	C122	C	0.629134	0.007982	0.378981
	C123	C	0.386046	0.991359	0.378759
	C124	C	0.629865	0.377154	0.010294
	C125	C	0.628168	0.620259	0.993997
	C126	C	0.385615	0.621534	0.010353
	C127	C	0.386193	0.377856	0.994687
	C128	C	0.015748	0.622560	0.379626
	C129	C	0.999328	0.621572	0.623055
	C130	C	0.014712	0.379140	0.623047
	C131	C	0.998952	0.379958	0.380652
	C132	C	0.885677	0.508766	0.123503
	C133	C	0.129144	0.491462	0.123630
	C134	C	0.129402	0.507593	0.880216
	C135	C	0.886233	0.492219	0.880714
	C136	C	0.128931	0.878860	0.509145
	C137	C	0.129297	0.122973	0.493187
	C138	C	0.885868	0.122029	0.509271
	C139	C	0.886025	0.878909	0.492872
	C140	C	0.515427	0.120949	0.879975
	C141	C	0.499021	0.119552	0.122564
	C142	C	0.515917	0.877775	0.122702
	C143	C	0.499750	0.877740	0.880104
	C144	C	0.388005	0.885863	0.678438
	C145	C	0.628526	0.114098	0.679474
	C146	C	0.627317	0.885003	0.324961
	C147	C	0.388530	0.113800	0.323371
	C148	C	0.685207	0.380145	0.887700
	C149	C	0.682853	0.616552	0.117073
	C150	C	0.331172	0.617903	0.887294
	C151	C	0.331525	0.380233	0.117335
	C152	C	0.892431	0.677750	0.382299
	C153	C	0.122552	0.676462	0.620259
	C154	C	0.891307	0.324179	0.620510
	C155	C	0.122043	0.324258	0.382671
	C156	C	0.891928	0.380981	0.679044
	C157	C	0.122477	0.619161	0.678577
	C158	C	0.892907	0.621051	0.323887
	C159	C	0.122256	0.382688	0.326050
	C160	C	0.387644	0.676812	0.887794
	C161	C	0.625999	0.674871	0.116804
	C162	C	0.627753	0.321848	0.888218
	C163	C	0.388484	0.321771	0.116925
	C164	C	0.683989	0.885012	0.383583
	C165	C	0.684024	0.114909	0.619740
	C166	C	0.331461	0.885741	0.619721
	C167	C	0.331460	0.114211	0.381626
	C168	C	0.888507	0.386233	0.179485
	C169	C	0.126014	0.615013	0.176914
	C170	C	0.128328	0.385568	0.824047
	C171	C	0.887444	0.614380	0.824216
	C172	C	0.183370	0.882411	0.386420
	C173	C	0.184911	0.119196	0.615552
	C174	C	0.830242	0.120438	0.386640
	C175	C	0.831114	0.882069	0.616181
	C176	C	0.392244	0.176349	0.882532
	C177	C	0.622481	0.174823	0.120053
	C178	C	0.392319	0.823120	0.119842
	C179	C	0.622953	0.822369	0.883008
	C180	C	0.392727	0.880241	0.177907
	C181	C	0.622613	0.117345	0.177474
	C182	C	0.392416	0.119138	0.824449
	C183	C	0.623130	0.880336	0.825497
	C184	C	0.887818	0.178194	0.386809
	C185	C	0.126981	0.177333	0.615823
	C186	C	0.127109	0.823294	0.387021
	C187	C	0.887614	0.823066	0.615703
	C188	C	0.184498	0.384704	0.883339
	C189	C	0.183157	0.614725	0.119260
	C190	C	0.831401	0.385603	0.121240
	C191	C	0.830045	0.614397	0.882409
	C192	C	0.409382	0.093637	0.600380
	C193	C	0.607427	0.906686	0.601534
	C194	C	0.606389	0.093700	0.400234
	C195	C	0.408350	0.905348	0.401281
	C196	C	0.607861	0.398657	0.095995
	C197	C	0.606115	0.598837	0.908217
	C198	C	0.407317	0.599667	0.096347
	C199	C	0.408434	0.400111	0.909079
	C200	C	0.101846	0.600170	0.401708
	C201	C	0.913535	0.598845	0.600395
	C202	C	0.100391	0.401602	0.600236
	C203	C	0.912857	0.401783	0.402559
	C204	C	0.907629	0.594448	0.100988
	C205	C	0.107413	0.405840	0.102665
	C206	C	0.106801	0.592910	0.902316
	C207	C	0.909553	0.407027	0.903335
	C208	C	0.106940	0.900648	0.594948
	C209	C	0.106890	0.101445	0.407209
	C210	C	0.908180	0.099887	0.594624
	C211	C	0.908179	0.901069	0.407620
	C212	C	0.601333	0.098183	0.902552
	C213	C	0.413232	0.097561	0.100608
	C214	C	0.602073	0.899405	0.100985
	C215	C	0.413782	0.900255	0.902069
	Zn216	Zn	0.508031	-0.000460	0.751884
	Zn217	Zn	0.507536	-0.000849	0.250823
	Zn218	Zn	0.757468	0.499800	0.002026
	Zn219	Zn	0.257865	0.499489	0.002512
	Zn220	Zn	0.007426	0.750248	0.501223
	Zn221	Zn	0.006598	0.251032	0.501805
	Zn222	Zn	0.007323	0.500047	0.751889
	Zn223	Zn	0.007443	0.500883	0.251675
	Zn224	Zn	0.507744	0.749197	0.002061
	Zn225	Zn	0.507291	0.248832	0.002076
	Zn226	Zn	0.757566	0.000484	0.500720
	Zn227	Zn	0.257970	0.000224	0.500555
	N228	N	0.421862	0.963034	0.680254
	N229	N	0.595246	0.036483	0.681879
	N230	N	0.594101	0.962410	0.321898
	N231	N	0.421722	0.036207	0.321727
	N232	N	0.686677	0.413666	0.964835
	N233	N	0.684584	0.583575	0.039754
	N234	N	0.329812	0.584286	0.964598
	N235	N	0.330035	0.414479	0.040213
	N236	N	0.969965	0.678664	0.416428
	N237	N	0.044932	0.678094	0.586674
	N238	N	0.968813	0.322980	0.586408
	N239	N	0.044345	0.322512	0.416215
	N240	N	0.969629	0.414321	0.680740
	N241	N	0.044736	0.585706	0.680356
	N242	N	0.970504	0.587468	0.322206
	N243	N	0.044769	0.416601	0.324687
	N244	N	0.420878	0.678933	0.965175
	N245	N	0.592760	0.677168	0.039243
	N246	N	0.594284	0.319738	0.965395
	N247	N	0.421953	0.320382	0.039641
	N248	N	0.685215	0.962600	0.416457
	N249	N	0.685075	0.038119	0.585883
	N250	N	0.330448	0.962909	0.585734
	N251	N	0.330100	0.037059	0.415480
	N252	N	0.921673	0.463699	0.180908
	N253	N	0.093291	0.537419	0.180070
	N254	N	0.094584	0.462857	0.822172
	N255	N	0.921541	0.537134	0.822977
	N256	N	0.184703	0.916242	0.463490
	N257	N	0.186374	0.086086	0.538090
	N258	N	0.829002	0.086221	0.463679
	N259	N	0.829728	0.915877	0.538890
	N260	N	0.469863	0.177615	0.916330
	N261	N	0.544822	0.176243	0.086385
	N262	N	0.469917	0.821597	0.086126
	N263	N	0.545021	0.820349	0.916058
	N264	N	0.470564	0.913342	0.179928
	N265	N	0.544997	0.083802	0.179144
	N266	N	0.470100	0.085394	0.822951
	N267	N	0.545497	0.913966	0.823627
	N268	N	0.921701	0.179297	0.463941
	N269	N	0.093413	0.179771	0.538572
	N270	N	0.094074	0.821127	0.464471
	N271	N	0.921384	0.821302	0.538497
	N272	N	0.185636	0.461614	0.917348
	N273	N	0.185309	0.537199	0.086744
	N274	N	0.829605	0.462747	0.087256
	N275	N	0.829275	0.537525	0.916757
	O276	O	0.473260	0.463957	0.572443
	H277	H	0.467559	0.458783	0.578345
	H278	H	0.468096	0.469536	0.578714
	O279	O	-0.036994	0.047084	-0.067245
	H280	H	-0.028453	0.049032	-0.060178
	H281	H	-0.046503	0.052001	-0.068682
	O282	O	0.465878	0.474212	0.550905
	H283	H	0.460304	0.480487	0.554864
	H284	H	0.462948	0.478822	0.558227
	O285	O	0.468070	0.493003	0.620701
	H286	H	0.475513	0.494995	0.614199
	H287	H	0.470437	0.492092	0.620117
	O288	O	0.982081	0.041111	-0.053185
	H289	H	0.985358	0.040808	-0.047778
	H290	H	0.981639	0.036704	-0.065163
	O291	O	-0.516176	0.473428	-0.442321
	H292	H	-0.523367	0.477037	-0.438258
	H293	H	-0.512232	0.471127	-0.444100
	O294	O	-0.046320	1.019605	-0.075023
	H295	H	-0.047173	1.016685	-0.074921
	H296	H	-0.054399	1.013383	-0.080277
	O297	O	0.013278	1.023789	-0.091974
	H298	H	0.016058	1.035106	-0.091621
	H299	H	0.007778	1.023000	-0.094503
	O300	O	0.994365	0.007067	0.933456
	H301	H	1.001620	0.010634	0.930978
	H302	H	0.989336	0.006805	0.926622
	O303	O	0.422729	0.433528	0.601642
	H304	H	0.427592	0.434016	0.608998
	H305	H	0.416272	0.439046	0.607496
	O306	O	0.512260	1.453806	1.621948
	H307	H	0.509576	1.444919	1.625548
	H308	H	0.520816	1.435226	1.620010
	O309	O	0.485377	0.456236	0.544245
	H310	H	0.483185	0.451007	0.544298
	H311	H	0.480155	0.453207	0.539767
