data_Molecule from HDF5

_cell_length_a		16.428843
_cell_length_b		16.420288
_cell_length_c		16.522095
_cell_angle_alpha	89.774803
_cell_angle_beta	89.996865
_cell_angle_gamma	89.982044
_symmetry_space_group_name_H-M	'P 1'
_symmetry_Int_Tables_number		1

loop_
	_symmetry_equiv_pos_as_xyz
	x,y,z

loop_
	_atom_site_label
	_atom_site_type_symbol
	_atom_site_fract_x
	_atom_site_fract_y
	_atom_site_fract_z
	H0	H	0.402553	0.846786	0.730926
	H1	H	0.618194	0.162353	0.727019
	H2	H	0.620731	0.847455	0.281190
	H3	H	0.396982	0.158522	0.277563
	H4	H	0.739216	0.395638	0.852703
	H5	H	0.738325	0.614181	0.163294
	H6	H	0.290214	0.611107	0.849816
	H7	H	0.290121	0.396078	0.164711
	H8	H	0.853900	0.724317	0.401370
	H9	H	0.170139	0.726146	0.613630
	H10	H	0.853509	0.281750	0.613279
	H11	H	0.167173	0.277493	0.398351
	H12	H	0.855323	0.394945	0.731236
	H13	H	0.169899	0.611771	0.730690
	H14	H	0.857265	0.614153	0.281702
	H15	H	0.169465	0.394224	0.284302
	H16	H	0.404281	0.728438	0.850731
	H17	H	0.622503	0.730166	0.162415
	H18	H	0.622376	0.280833	0.851109
	H19	H	0.406802	0.280060	0.164104
	H20	H	0.734543	0.846068	0.399381
	H21	H	0.733816	0.161944	0.611355
	H22	H	0.290832	0.844753	0.611278
	H23	H	0.284005	0.159724	0.395690
	H24	H	0.904172	0.347688	0.234530
	H25	H	0.124745	0.660921	0.231923
	H26	H	0.121929	0.346531	0.783492
	H27	H	0.903567	0.659699	0.781940
	H28	H	0.237633	0.893589	0.351337
	H29	H	0.235247	0.110855	0.662416
	H30	H	0.783832	0.115583	0.351696
	H31	H	0.786760	0.895232	0.662605
	H32	H	0.356338	0.230192	0.897308
	H33	H	0.668236	0.229313	0.116771
	H34	H	0.356622	0.776471	0.118732
	H35	H	0.669525	0.782465	0.900612
	H36	H	0.355671	0.893472	0.232468
	H37	H	0.664959	0.118070	0.236748
	H38	H	0.355141	0.113980	0.782871
	H39	H	0.667716	0.896061	0.782094
	H40	H	0.900188	0.231814	0.352031
	H41	H	0.118551	0.226317	0.663143
	H42	H	0.120374	0.780219	0.350181
	H43	H	0.903383	0.778704	0.662910
	H44	H	0.234552	0.345515	0.902476
	H45	H	0.237401	0.661656	0.113702
	H46	H	0.787699	0.347611	0.119516
	H47	H	0.790586	0.660888	0.901332
	H48	H	0.419469	0.116732	0.594048
	H49	H	0.593051	0.893703	0.594970
	H50	H	0.597387	0.112299	0.427011
	H51	H	0.429702	0.892028	0.414188
	H52	H	0.604611	0.418123	0.120220
	H53	H	0.601846	0.591097	0.896105
	H54	H	0.425675	0.591131	0.118460
	H55	H	0.426957	0.417784	0.896680
	H56	H	0.124553	0.594342	0.424607
	H57	H	0.898755	0.591689	0.598412
	H58	H	0.125050	0.414308	0.596570
	H59	H	0.900389	0.417473	0.420444
	H60	H	0.124658	0.414217	0.594303
	H61	H	0.900130	0.592122	0.592989
	H62	H	0.124405	0.587053	0.419242
	H63	H	0.901987	0.419353	0.423983
	H64	H	0.424723	0.589954	0.118747
	H65	H	0.600631	0.593177	0.895828
	H66	H	0.596770	0.420468	0.116076
	H67	H	0.423652	0.412651	0.894223
	H68	H	0.600208	0.117732	0.416599
	H69	H	0.601796	0.891448	0.590485
	H70	H	0.423344	0.118017	0.598170
	H71	H	0.427783	0.896325	0.425793
	H72	H	0.925180	0.615108	0.091322
	H73	H	0.096339	0.392178	0.103794
	H74	H	0.104771	0.618649	0.914756
	H75	H	0.926419	0.392144	0.923020
	H76	H	0.098717	0.910114	0.619516
	H77	H	0.096639	0.088795	0.397041
	H78	H	0.922861	0.086048	0.616931
	H79	H	0.922704	0.917427	0.394957
	H80	H	0.626830	0.090705	0.910933
	H81	H	0.401293	0.085192	0.095208
	H82	H	0.623294	0.918192	0.095092
	H83	H	0.397009	0.912507	0.919008
	H84	H	0.622734	0.917368	0.091920
	H85	H	0.398941	0.094637	0.092460
	H86	H	0.626806	0.097371	0.918834
	H87	H	0.401179	0.918386	0.922612
	H88	H	0.926914	0.092964	0.616723
	H89	H	0.095183	0.091950	0.395447
	H90	H	0.104312	0.916891	0.619358
	H91	H	0.925757	0.914767	0.395461
	H92	H	0.095552	0.615943	0.915611
	H93	H	0.097061	0.395874	0.089714
	H94	H	0.925846	0.616577	0.097676
	H95	H	0.925044	0.390468	0.920416
	H96	H	0.425264	0.115844	0.593437
	H97	H	0.599992	0.889017	0.600342
	H98	H	0.589571	0.113157	0.418210
	H99	H	0.418740	0.889374	0.420140
	H100	H	0.597676	0.412043	0.119732
	H101	H	0.602946	0.593274	0.895070
	H102	H	0.426201	0.589304	0.118545
	H103	H	0.420742	0.418500	0.894905
	H104	H	0.127829	0.594781	0.416254
	H105	H	0.900748	0.587065	0.595882
	H106	H	0.124283	0.416174	0.595831
	H107	H	0.901358	0.421885	0.420204
	H108	H	0.931031	0.613878	0.094455
	H109	H	0.108571	0.388709	0.095732
	H110	H	0.101530	0.614791	0.923372
	H111	H	0.928534	0.391615	0.920325
	H112	H	0.096006	0.917987	0.615908
	H113	H	0.099241	0.091033	0.394052
	H114	H	0.919772	0.092247	0.620331
	H115	H	0.921873	0.913545	0.393542
	H116	H	0.621863	0.088442	0.919957
	H117	H	0.403439	0.088285	0.085861
	H118	H	0.622033	0.920483	0.093288
	H119	H	0.398703	0.919086	0.915502
	C120	C	0.389686	0.012459	0.628218
	C121	C	0.632382	0.995439	0.627995
	C122	C	0.631395	0.011604	0.385691
	C123	C	0.389413	0.995198	0.384542
	C124	C	0.634528	0.382675	0.015950
	C125	C	0.635414	0.626562	0.998883
	C126	C	0.391311	0.624806	0.015423
	C127	C	0.391079	0.382116	0.998860
	C128	C	0.021766	0.625640	0.385703
	C129	C	1.004020	0.624236	0.628642
	C130	C	0.020689	0.381527	0.629111
	C131	C	1.003794	0.383503	0.386806
	C132	C	0.892482	0.511991	0.129564
	C133	C	0.134965	0.495910	0.129670
	C134	C	0.134094	0.512133	0.885702
	C135	C	0.892361	0.494865	0.886873
	C136	C	0.133704	0.881266	0.515159
	C137	C	0.131474	0.124361	0.498451
	C138	C	0.889217	0.125149	0.515159
	C139	C	0.889566	0.881420	0.498013
	C140	C	0.521330	0.126636	0.883885
	C141	C	0.503362	0.124864	0.127651
	C142	C	0.520114	0.882841	0.128379
	C143	C	0.502840	0.883217	0.885686
	C144	C	0.386035	0.893908	0.689588
	C145	C	0.635837	0.114649	0.687523
	C146	C	0.637263	0.894285	0.322584
	C147	C	0.381780	0.111865	0.319680
	C148	C	0.697820	0.378512	0.899161
	C149	C	0.697327	0.630730	0.116184
	C150	C	0.329787	0.628952	0.897444
	C151	C	0.330540	0.378308	0.117220
	C152	C	0.902365	0.685530	0.382555
	C153	C	0.122641	0.685754	0.631455
	C154	C	0.901487	0.321180	0.631769
	C155	C	0.120700	0.319082	0.381432
	C156	C	0.902513	0.377465	0.690718
	C157	C	0.122532	0.628580	0.689914
	C158	C	0.904223	0.630721	0.322721
	C159	C	0.121948	0.377751	0.324934
	C160	C	0.386640	0.687703	0.898025
	C161	C	0.639467	0.688865	0.115888
	C162	C	0.639570	0.321017	0.898610
	C163	C	0.388800	0.320486	0.117039
	C164	C	0.694090	0.893488	0.381443
	C165	C	0.693533	0.114375	0.629720
	C166	C	0.329874	0.892884	0.630188
	C167	C	0.324982	0.112287	0.378429
	C168	C	0.887322	0.394731	0.193187
	C169	C	0.140706	0.613581	0.191267
	C170	C	0.138490	0.393672	0.824658
	C171	C	0.886760	0.612610	0.823368
	C172	C	0.196369	0.876782	0.398211
	C173	C	0.194203	0.128435	0.615727
	C174	C	0.825553	0.131655	0.398239
	C175	C	0.827365	0.877244	0.615435
	C176	C	0.403616	0.189648	0.879810
	C177	C	0.620828	0.188448	0.133912
	C178	C	0.403556	0.817901	0.134927
	C179	C	0.621746	0.822088	0.882295
	C180	C	0.402916	0.876405	0.191669
	C181	C	0.619168	0.132921	0.193720
	C182	C	0.402891	0.131500	0.822820
	C183	C	0.620810	0.879059	0.823504
	C184	C	0.883252	0.189934	0.398723
	C185	C	0.135983	0.186095	0.615988
	C186	C	0.137816	0.819860	0.397788
	C187	C	0.885644	0.819351	0.615773
	C188	C	0.194910	0.393271	0.883671
	C189	C	0.196998	0.614200	0.132101
	C190	C	0.828804	0.394836	0.135994
	C191	C	0.830585	0.613344	0.882881
	C192	C	0.415208	0.095275	0.602479
	C193	C	0.605864	0.912929	0.602532
	C194	C	0.603777	0.093065	0.412799
	C195	C	0.417444	0.913749	0.412277
	C196	C	0.607483	0.409178	0.097403
	C197	C	0.609131	0.600101	0.916967
	C198	C	0.417937	0.597960	0.097209
	C199	C	0.416494	0.408628	0.916686
	C200	C	0.104077	0.599602	0.412328
	C201	C	0.921464	0.597967	0.603142
	C202	C	0.103208	0.407428	0.602976
	C203	C	0.922299	0.411488	0.413856
	C204	C	0.919430	0.593768	0.102283
	C205	C	0.108266	0.413752	0.103891
	C206	C	0.108121	0.594890	0.910808
	C207	C	0.919085	0.412972	0.913440
	C208	C	0.107133	0.907510	0.596849
	C209	C	0.104721	0.098177	0.416931
	C210	C	0.915729	0.098081	0.596563
	C211	C	0.915914	0.907844	0.416091
	C212	C	0.603591	0.099721	0.909444
	C213	C	0.422483	0.097156	0.099394
	C214	C	0.601692	0.910627	0.101072
	C215	C	0.420528	0.909144	0.911746
	Zn216	Zn	0.511089	0.004136	0.756385
	Zn217	Zn	0.510973	0.004214	0.256347
	Zn218	Zn	0.763688	0.503712	0.008270
	Zn219	Zn	0.262177	0.503990	0.007174
	Zn220	Zn	0.012031	0.752839	0.506831
	Zn221	Zn	0.011155	0.254067	0.507128
	Zn222	Zn	0.012818	0.502592	0.757350
	Zn223	Zn	0.014092	0.504171	0.258621
	Zn224	Zn	0.512092	0.754347	0.006988
	Zn225	Zn	0.513135	0.253363	0.006946
	Zn226	Zn	0.760735	0.003372	0.506271
	Zn227	Zn	0.261349	0.003935	0.506461
	N228	N	0.422113	0.969341	0.688580
	N229	N	0.598496	0.039662	0.686546
	N230	N	0.599119	0.968803	0.325109
	N231	N	0.421087	0.038061	0.323380
	N232	N	0.694746	0.416046	0.973256
	N233	N	0.694811	0.592594	0.042305
	N234	N	0.332668	0.590564	0.971529
	N235	N	0.331722	0.415823	0.042745
	N236	N	0.976560	0.682656	0.421025
	N237	N	0.047808	0.683334	0.594165
	N238	N	0.976201	0.323534	0.594224
	N239	N	0.046298	0.322739	0.419374
	N240	N	0.977540	0.414384	0.689031
	N241	N	0.047806	0.591087	0.688423
	N242	N	0.979523	0.594279	0.324467
	N243	N	0.048163	0.417163	0.328185
	N244	N	0.423931	0.685512	0.972496
	N245	N	0.601797	0.686535	0.041789
	N246	N	0.600724	0.323637	0.972230
	N247	N	0.425713	0.322860	0.042299
	N248	N	0.690701	0.967658	0.419686
	N249	N	0.691716	0.039138	0.593586
	N250	N	0.331984	0.967663	0.592588
	N251	N	0.329701	0.038704	0.418249
	N252	N	0.925964	0.468878	0.189564
	N253	N	0.102858	0.538923	0.189818
	N254	N	0.101489	0.468838	0.825535
	N255	N	0.924391	0.537857	0.825654
	N256	N	0.193994	0.914371	0.472313
	N257	N	0.191640	0.090830	0.541565
	N258	N	0.829284	0.091805	0.471499
	N259	N	0.829627	0.915188	0.541204
	N260	N	0.478472	0.187187	0.916841
	N261	N	0.548027	0.183377	0.093348
	N262	N	0.477619	0.821887	0.096157
	N263	N	0.547347	0.824440	0.920241
	N264	N	0.476418	0.916097	0.187672
	N265	N	0.545256	0.094028	0.189857
	N266	N	0.477179	0.093080	0.825094
	N267	N	0.545860	0.915968	0.825321
	N268	N	0.922077	0.185969	0.472281
	N269	N	0.097958	0.183888	0.542030
	N270	N	0.099374	0.822672	0.471680
	N271	N	0.923440	0.821688	0.541697
	N272	N	0.192272	0.467907	0.920758
	N273	N	0.193834	0.539766	0.094747
	N274	N	0.831798	0.468984	0.097270
	N275	N	0.833839	0.539293	0.921719
	O276	O	-0.081328	1.044510	0.131479
	H277	H	-0.107307	1.030456	0.129392
	H278	H	-0.076538	1.049255	0.122188
	O279	O	0.827492	0.178689	0.845921
	H280	H	0.878739	0.193850	0.834114
	H281	H	0.819925	0.171942	0.875286
	O282	O	0.511450	0.519383	0.680711
	H283	H	0.496448	0.511965	0.678911
	H284	H	0.503247	0.550120	0.680839
	O285	O	0.647731	1.546087	0.528669
	H286	H	0.643825	1.550135	0.507011
	H287	H	0.630162	1.540153	0.514642
	O288	O	0.692885	0.326883	0.323468
	H289	H	0.675420	0.316619	0.351575
	H290	H	0.665397	0.316665	0.339335
	O291	O	0.490520	0.291160	0.723557
	H292	H	0.508738	0.321037	0.741470
	H293	H	0.476547	0.269009	0.756234
	O294	O	0.233612	0.222636	1.028717
	H295	H	0.238123	0.228838	1.065168
	H296	H	0.248206	0.238272	1.048456
	O297	O	-0.198687	0.005229	-0.011530
	H298	H	-0.198113	0.029536	0.006480
	H299	H	-0.211043	0.026200	-0.010919
	O300	O	0.692294	0.552354	0.453745
	H301	H	0.667334	0.554644	0.465310
	H302	H	0.698693	0.536660	0.406346
	O303	O	0.228253	0.043896	1.034848
	H304	H	0.216352	0.041828	1.045954
	H305	H	0.225377	0.047368	1.039532
	O306	O	1.078243	0.180187	-0.034569
	H307	H	1.111797	0.187771	-0.018736
	H308	H	1.064498	0.174928	-0.025985
	O309	O	0.562771	0.661947	0.393109
	H310	H	0.575759	0.658823	0.374260
	H311	H	0.554781	0.639942	0.396508
	O312	O	0.311649	1.705535	0.488083
	H313	H	0.289494	1.720372	0.498621
	H314	H	0.340438	1.715122	0.513968
	O315	O	0.716080	0.523158	0.715217
	H316	H	0.736559	0.517413	0.724790
	H317	H	0.718750	0.500230	0.692301
	O318	O	1.220283	-0.209085	-0.013834
	H319	H	1.235949	-0.176420	0.008731
	H320	H	1.242671	-0.223922	-0.006577
	O321	O	0.187124	0.182303	0.184955
	H322	H	0.157370	0.172186	0.195948
	H323	H	0.176417	0.148583	0.198153
	O324	O	0.602994	0.465961	0.536506
	H325	H	0.595278	0.461327	0.528026
	H326	H	0.583637	0.478150	0.530395
	O327	O	0.551342	0.466479	0.649745
	H328	H	0.534882	0.488069	0.654041
	H329	H	0.568262	0.484342	0.643832
	O330	O	0.021968	0.857380	0.081975
	H331	H	0.037562	0.850900	0.066474
	H332	H	0.006620	0.867637	0.066668
	O333	O	0.295490	0.520408	0.292288
	H334	H	0.293159	0.560997	0.289232
	H335	H	0.277457	0.538268	0.271407
	O336	O	0.177486	0.127854	-0.126088
	H337	H	0.181996	0.117149	-0.127583
	H338	H	0.180513	0.137917	-0.117462
	O339	O	-0.034961	1.168398	1.166568
	H340	H	-0.038120	1.158978	1.153666
	H341	H	-0.054233	1.163250	1.166935
	O342	O	0.008138	1.219281	1.160526
	H343	H	0.011538	1.229657	1.176958
	H344	H	-0.010582	1.198825	1.161613
	O345	O	0.990997	0.790159	0.224725
	H346	H	1.003035	0.764561	0.223206
	H347	H	1.000194	0.767319	0.213249
	O348	O	0.560739	0.311530	0.562909
	H349	H	0.544586	0.327223	0.589787
	H350	H	0.551270	0.316106	0.573663
	O351	O	0.007243	0.996935	1.211772
	H352	H	0.001418	1.003019	1.216065
	H353	H	-0.018141	0.977502	1.202367
	O354	O	-0.470598	0.295431	0.298092
	H355	H	-0.499146	0.287603	0.333871
	H356	H	-0.475728	0.272441	0.268359
	O357	O	-0.552453	0.695030	0.598963
	H358	H	-0.523180	0.707321	0.582392
	H359	H	-0.529900	0.694062	0.629260
	O360	O	0.297471	0.295241	0.522148
	H361	H	0.301233	0.310138	0.548555
	H362	H	0.274674	0.268934	0.523114
	O363	O	-0.033841	-0.040796	0.888302
	H364	H	-0.020511	-0.038860	0.889054
	H365	H	-0.028568	-0.036599	0.887659
	O366	O	0.525231	0.515666	0.298776
	H367	H	0.551424	0.500623	0.305701
	H368	H	0.501021	0.493154	0.294823
	O369	O	0.404867	0.461010	0.370343
	H370	H	0.380435	0.472628	0.353865
	H371	H	0.405851	0.447552	0.371165
	O372	O	0.712285	-0.688668	1.484927
	H373	H	0.717540	-0.692813	1.492956
	H374	H	0.693665	-0.694648	1.508515
	O375	O	0.329801	0.321359	0.681031
	H376	H	0.364305	0.311137	0.695715
	H377	H	0.319367	0.355174	0.676544
	O378	O	0.799701	1.033241	0.792782
	H379	H	0.793027	1.039335	0.764107
	H380	H	0.806398	1.055625	0.798284
	O381	O	0.864455	0.151989	0.990007
	H382	H	0.865506	0.161771	0.985757
	H383	H	0.872599	0.154024	0.987169
	O384	O	0.831687	0.832993	0.193264
	H385	H	0.881961	0.822258	0.205237
	H386	H	0.823447	0.816348	0.141305
	O387	O	0.195893	-0.179361	0.822792
	H388	H	0.156567	-0.177007	0.811503
	H389	H	0.204455	-0.191284	0.876388
	O390	O	0.228159	-0.019467	-0.210070
	H391	H	0.251891	-0.024065	-0.212603
	H392	H	0.236808	-0.055093	-0.215816
	O393	O	0.906867	1.057628	1.001370
	H394	H	0.906572	1.063639	0.984539
	H395	H	0.891510	1.075244	1.003770
	O396	O	1.039022	0.108034	-0.027144
	H397	H	1.024557	0.093382	-0.027785
	H398	H	1.038566	0.108509	-0.028794
	O399	O	0.937789	-0.060096	0.803016
	H400	H	0.933375	-0.059703	0.794006
	H401	H	0.938166	-0.068022	0.800814
	O402	O	1.227090	0.930372	1.073713
	H403	H	1.218999	0.948773	1.092761
	H404	H	1.212728	0.950611	1.067825
	O405	O	1.452914	0.278584	-0.555674
	H406	H	1.451668	0.284358	-0.536163
	H407	H	1.437256	0.281090	-0.537815
	O408	O	0.863543	-0.212244	0.044756
	H409	H	0.841611	-0.231192	0.033283
	H410	H	0.859005	-0.184472	0.017314
	O411	O	0.858159	0.903768	-0.090147
	H412	H	0.857923	0.924617	-0.117434
	H413	H	0.841632	0.934222	-0.067543
	O414	O	-0.015751	1.214411	0.796890
	H415	H	-0.000965	1.233807	0.782915
	H416	H	0.014291	1.208847	0.797687
	O417	O	0.718374	0.709708	0.531220
	H418	H	0.721380	0.731637	0.518570
	H419	H	0.721817	0.697353	0.508860
	O420	O	0.032825	-0.206905	-0.208148
	H421	H	0.040568	-0.228588	-0.225466
	H422	H	0.011102	-0.198876	-0.197238
	O423	O	0.530408	0.721277	0.725514
	H424	H	0.556817	0.738166	0.743833
	H425	H	0.559912	0.721305	0.731300
	O426	O	0.730802	0.484455	0.285300
	H427	H	0.744075	0.455002	0.274369
	H428	H	0.743878	0.454788	0.272954
	O429	O	0.510106	0.707373	0.303141
	H430	H	0.516846	0.709738	0.269288
	H431	H	0.526771	0.687227	0.291639
	O432	O	-0.211019	-0.010817	0.228232
	H433	H	-0.203609	-0.052140	0.217605
	H434	H	-0.241806	-0.026662	0.259380
	O435	O	0.354297	0.554319	0.616791
	H436	H	0.354995	0.554448	0.608527
	H437	H	0.348130	0.555645	0.601245
	O438	O	-0.009019	-0.172064	-0.045784
	H439	H	-0.016732	-0.159339	-0.068428
	H440	H	-0.012556	-0.171252	-0.037603
	O441	O	0.301473	0.487155	-0.296393
	H442	H	0.304144	0.503265	-0.315082
	H443	H	0.274419	0.488299	-0.273546
	O444	O	0.173084	0.993437	1.222266
	H445	H	0.183258	1.007784	1.252967
	H446	H	0.146206	0.961466	1.218881
	O447	O	0.338031	0.471771	0.466648
	H448	H	0.331578	0.473685	0.439613
	H449	H	0.317952	0.451783	0.468583
	O450	O	0.333698	0.677532	0.328944
	H451	H	0.383761	0.692235	0.319837
	H452	H	0.324355	0.689198	0.381113
	O453	O	0.690568	0.686676	0.694203
	H454	H	0.701404	0.679120	0.656519
	H455	H	0.701712	0.649072	0.687887
