data_Molecule from HDF5

_cell_length_a		16.460375
_cell_length_b		16.378649
_cell_length_c		16.304633
_cell_angle_alpha	89.902048
_cell_angle_beta	89.917270
_cell_angle_gamma	90.130858
_symmetry_space_group_name_H-M	'P 1'
_symmetry_Int_Tables_number		1

loop_
	_symmetry_equiv_pos_as_xyz
	x,y,z

loop_
	_atom_site_label
	_atom_site_type_symbol
	_atom_site_fract_x
	_atom_site_fract_y
	_atom_site_fract_z
	H0	H	0.393982	0.840352	0.717122
	H1	H	0.602139	0.161226	0.714909
	H2	H	0.601730	0.839627	0.278079
	H3	H	0.397090	0.160237	0.276536
	H4	H	0.717870	0.395917	0.835361
	H5	H	0.719001	0.606245	0.154594
	H6	H	0.277789	0.606515	0.836177
	H7	H	0.278359	0.396616	0.156734
	H8	H	0.840391	0.720985	0.390727
	H9	H	0.159321	0.721251	0.599725
	H10	H	0.840145	0.278188	0.598971
	H11	H	0.158871	0.282260	0.391964
	H12	H	0.839673	0.394420	0.716020
	H13	H	0.159444	0.602906	0.714940
	H14	H	0.838420	0.601668	0.277818
	H15	H	0.158720	0.398418	0.275654
	H16	H	0.394375	0.720294	0.836536
	H17	H	0.601902	0.718958	0.156015
	H18	H	0.601254	0.280952	0.835211
	H19	H	0.394930	0.280999	0.157279
	H20	H	0.718887	0.840350	0.392191
	H21	H	0.721314	0.159524	0.601916
	H22	H	0.276639	0.841877	0.603174
	H23	H	0.280998	0.160532	0.393485
	H24	H	0.895430	0.338689	0.214191
	H25	H	0.101539	0.659463	0.214590
	H26	H	0.100881	0.339883	0.777079
	H27	H	0.893358	0.659334	0.772564
	H28	H	0.219803	0.897923	0.336266
	H29	H	0.218239	0.106053	0.656864
	H30	H	0.777206	0.106558	0.336368
	H31	H	0.777346	0.893426	0.655857
	H32	H	0.339560	0.220791	0.891687
	H33	H	0.656987	0.223087	0.102228
	H34	H	0.341010	0.777002	0.103606
	H35	H	0.657022	0.779387	0.890977
	H36	H	0.339623	0.895891	0.216979
	H37	H	0.659226	0.102943	0.214940
	H38	H	0.339660	0.104740	0.775997
	H39	H	0.656869	0.895166	0.774563
	H40	H	0.897113	0.218223	0.333539
	H41	H	0.102274	0.221002	0.655419
	H42	H	0.103427	0.783417	0.334488
	H43	H	0.893497	0.777952	0.654877
	H44	H	0.219813	0.340738	0.889107
	H45	H	0.221197	0.657727	0.102619
	H46	H	0.777081	0.339832	0.100034
	H47	H	0.777222	0.659777	0.889309
	H48	H	0.409514	0.113944	0.585283
	H49	H	0.587579	0.886621	0.587128
	H50	H	0.590163	0.115620	0.404436
	H51	H	0.409141	0.885392	0.403997
	H52	H	0.588613	0.413287	0.108783
	H53	H	0.583124	0.583787	0.885174
	H54	H	0.414388	0.596820	0.111174
	H55	H	0.411593	0.407263	0.880856
	H56	H	0.114046	0.590165	0.398971
	H57	H	0.889381	0.584893	0.582807
	H58	H	0.108932	0.416209	0.582539
	H59	H	0.884874	0.413608	0.399645
	H60	H	0.113914	0.410312	0.591273
	H61	H	0.886205	0.590916	0.586746
	H62	H	0.113923	0.596533	0.405274
	H63	H	0.882642	0.402006	0.403903
	H64	H	0.398597	0.587136	0.113224
	H65	H	0.584366	0.597742	0.879084
	H66	H	0.585602	0.412289	0.108757
	H67	H	0.404010	0.410168	0.880258
	H68	H	0.587259	0.113231	0.407519
	H69	H	0.586499	0.888056	0.584058
	H70	H	0.406881	0.114594	0.586585
	H71	H	0.411823	0.888340	0.410493
	H72	H	0.904422	0.614018	0.082348
	H73	H	0.086810	0.387312	0.082693
	H74	H	0.087439	0.612667	0.909168
	H75	H	0.899029	0.386497	0.914586
	H76	H	0.086206	0.910511	0.610174
	H77	H	0.093413	0.089428	0.381080
	H78	H	0.913298	0.088425	0.608292
	H79	H	0.904007	0.907697	0.378901
	H80	H	0.613381	0.094356	0.906347
	H81	H	0.386080	0.089595	0.088420
	H82	H	0.615194	0.908710	0.093258
	H83	H	0.386488	0.912754	0.910372
	H84	H	0.612630	0.903883	0.081363
	H85	H	0.385548	0.091218	0.085168
	H86	H	0.610557	0.089939	0.910653
	H87	H	0.385609	0.911382	0.906015
	H88	H	0.908825	0.090590	0.610378
	H89	H	0.089982	0.088634	0.382188
	H90	H	0.088138	0.910863	0.610982
	H91	H	0.907789	0.917503	0.382656
	H92	H	0.092503	0.614882	0.905968
	H93	H	0.090483	0.385062	0.083678
	H94	H	0.907412	0.614948	0.089556
	H95	H	0.907296	0.383168	0.895719
	H96	H	0.409746	0.114991	0.587999
	H97	H	0.589806	0.887277	0.584197
	H98	H	0.591412	0.114504	0.408774
	H99	H	0.404544	0.885913	0.410466
	H100	H	0.588234	0.410546	0.110745
	H101	H	0.596417	0.587564	0.878625
	H102	H	0.413089	0.579149	0.106469
	H103	H	0.409674	0.414516	0.883623
	H104	H	0.110932	0.588301	0.406756
	H105	H	0.887891	0.591191	0.578958
	H106	H	0.112274	0.405331	0.580936
	H107	H	0.888101	0.410393	0.411339
	H108	H	0.912029	0.611231	0.083802
	H109	H	0.087054	0.384816	0.085745
	H110	H	0.086777	0.614310	0.903262
	H111	H	0.918638	0.391721	0.910690
	H112	H	0.087642	0.912472	0.609505
	H113	H	0.090739	0.092463	0.380641
	H114	H	0.908943	0.085669	0.607838
	H115	H	0.914445	0.908654	0.382382
	H116	H	0.611402	0.088061	0.903803
	H117	H	0.386283	0.087843	0.085186
	H118	H	0.609134	0.916309	0.084153
	H119	H	0.385513	0.908511	0.909948
	C120	C	0.376749	0.009055	0.618835
	C121	C	0.620562	0.992230	0.617761
	C122	C	0.620676	0.008401	0.375300
	C123	C	0.378212	0.992086	0.375732
	C124	C	0.619170	0.379720	0.003700
	C125	C	0.619778	0.621459	0.986782
	C126	C	0.377155	0.620506	0.004579
	C127	C	0.376911	0.378955	0.987630
	C128	C	0.007488	0.622409	0.372943
	C129	C	0.992118	0.621428	0.616239
	C130	C	0.006754	0.378323	0.616723
	C131	C	0.990826	0.378784	0.373700
	C132	C	0.876057	0.507890	0.117142
	C133	C	0.119707	0.490967	0.116500
	C134	C	0.120197	0.508444	0.874127
	C135	C	0.876386	0.492102	0.873807
	C136	C	0.119914	0.879969	0.504417
	C137	C	0.121581	0.121899	0.487233
	C138	C	0.878511	0.120954	0.503350
	C139	C	0.876943	0.878293	0.487161
	C140	C	0.506821	0.122213	0.874765
	C141	C	0.490824	0.121312	0.117713
	C142	C	0.507426	0.877333	0.118734
	C143	C	0.490370	0.878623	0.875585
	C144	C	0.375352	0.888669	0.677849
	C145	C	0.621346	0.112795	0.676182
	C146	C	0.620937	0.887733	0.316964
	C147	C	0.378016	0.112347	0.316317
	C148	C	0.678214	0.377582	0.883238
	C149	C	0.679339	0.623828	0.106917
	C150	C	0.317468	0.623878	0.884251
	C151	C	0.318188	0.377692	0.108853
	C152	C	0.888051	0.681359	0.372019
	C153	C	0.111597	0.681397	0.618271
	C154	C	0.887746	0.317960	0.618078
	C155	C	0.110942	0.320991	0.372525
	C156	C	0.887527	0.375932	0.676446
	C157	C	0.111704	0.622292	0.675542
	C158	C	0.886998	0.621691	0.315854
	C159	C	0.111019	0.378949	0.314960
	C160	C	0.375633	0.680627	0.884276
	C161	C	0.620641	0.679826	0.107632
	C162	C	0.620253	0.320353	0.883228
	C163	C	0.376105	0.320167	0.108925
	C164	C	0.679317	0.888078	0.373780
	C165	C	0.680580	0.111876	0.619669
	C166	C	0.316739	0.889395	0.621220
	C167	C	0.320283	0.112649	0.374503
	C168	C	0.875670	0.387058	0.175443
	C169	C	0.120662	0.611308	0.175475
	C170	C	0.120659	0.388109	0.815295
	C171	C	0.875009	0.611815	0.813002
	C172	C	0.180125	0.878636	0.384087
	C173	C	0.179220	0.124083	0.608391
	C174	C	0.817881	0.123996	0.383726
	C175	C	0.817334	0.875359	0.607608
	C176	C	0.387344	0.181231	0.873258
	C177	C	0.609971	0.182144	0.119991
	C178	C	0.388425	0.817135	0.121538
	C179	C	0.609454	0.818886	0.872800
	C180	C	0.387874	0.876380	0.178158
	C181	C	0.611087	0.122487	0.176029
	C182	C	0.387358	0.123271	0.815402
	C183	C	0.609362	0.876492	0.814770
	C184	C	0.877454	0.179744	0.382477
	C185	C	0.121511	0.181372	0.607707
	C186	C	0.121821	0.822064	0.383110
	C187	C	0.874979	0.817738	0.606996
	C188	C	0.180016	0.388776	0.871245
	C189	C	0.180177	0.610510	0.119641
	C190	C	0.816835	0.387707	0.118558
	C191	C	0.816945	0.611856	0.870757
	C192	C	0.401485	0.092783	0.593721
	C193	C	0.595167	0.909041	0.592743
	C194	C	0.596552	0.092481	0.399773
	C195	C	0.401720	0.908346	0.401030
	C196	C	0.594583	0.404855	0.087636
	C197	C	0.595152	0.596789	0.902749
	C198	C	0.401629	0.594982	0.088301
	C199	C	0.401212	0.403656	0.903579
	C200	C	0.091199	0.598534	0.396873
	C201	C	0.909410	0.596275	0.590469
	C202	C	0.090282	0.403516	0.592022
	C203	C	0.906911	0.401872	0.397999
	C204	C	0.900606	0.591601	0.092271
	C205	C	0.095151	0.407513	0.091272
	C206	C	0.096069	0.592084	0.898933
	C207	C	0.901058	0.408755	0.899532
	C208	C	0.094811	0.904225	0.588205
	C209	C	0.098375	0.097242	0.403272
	C210	C	0.903373	0.095546	0.587076
	C211	C	0.901515	0.904001	0.403215
	C212	C	0.590113	0.097699	0.899661
	C213	C	0.407768	0.096773	0.093338
	C214	C	0.590681	0.902336	0.093503
	C215	C	0.407455	0.903676	0.901290
	Zn216	Zn	0.498649	0.000028	0.746679
	Zn217	Zn	0.499803	0.000144	0.246860
	Zn218	Zn	0.747879	0.500247	-0.004591
	Zn219	Zn	0.248395	0.499737	-0.004367
	Zn220	Zn	-0.000295	0.751299	0.494775
	Zn221	Zn	-0.000504	0.249609	0.494670
	Zn222	Zn	-0.001280	0.499945	0.746029
	Zn223	Zn	-0.001333	0.499366	0.244987
	Zn224	Zn	0.498346	0.749057	-0.003962
	Zn225	Zn	0.498700	0.251045	-0.003537
	Zn226	Zn	0.749454	-0.000002	0.495849
	Zn227	Zn	0.249168	0.000499	0.497237
	N228	N	0.412025	0.964081	0.676363
	N229	N	0.584573	0.037339	0.675205
	N230	N	0.585175	0.963552	0.317933
	N231	N	0.413211	0.036443	0.317087
	N232	N	0.677512	0.413758	0.959201
	N233	N	0.678898	0.588254	0.030632
	N234	N	0.318213	0.587105	0.960188
	N235	N	0.318358	0.413206	0.032502
	N236	N	0.964150	0.682034	0.406672
	N237	N	0.036152	0.681084	0.582126
	N238	N	0.962973	0.319555	0.581626
	N239	N	0.035216	0.320590	0.407967
	N240	N	0.962698	0.412642	0.675692
	N241	N	0.036470	0.585846	0.674505
	N242	N	0.962314	0.585829	0.316114
	N243	N	0.035090	0.413917	0.315481
	N244	N	0.412078	0.678602	0.959882
	N245	N	0.584434	0.678724	0.031750
	N246	N	0.584228	0.321512	0.959327
	N247	N	0.411817	0.320845	0.032637
	N248	N	0.679516	0.964335	0.408960
	N249	N	0.680249	0.035905	0.584105
	N250	N	0.317349	0.965397	0.585503
	N251	N	0.320214	0.036806	0.410999
	N252	N	0.911701	0.462818	0.174837
	N253	N	0.083777	0.536056	0.173636
	N254	N	0.084375	0.463570	0.816881
	N255	N	0.911267	0.536273	0.814850
	N256	N	0.179263	0.913907	0.460433
	N257	N	0.179466	0.087799	0.532501
	N258	N	0.818359	0.088114	0.459957
	N259	N	0.818493	0.912402	0.531922
	N260	N	0.462700	0.180698	0.909463
	N261	N	0.534353	0.181707	0.084362
	N262	N	0.463833	0.817420	0.085346
	N263	N	0.534418	0.820205	0.909918
	N264	N	0.463136	0.912881	0.176713
	N265	N	0.536102	0.085516	0.174969
	N266	N	0.462795	0.087384	0.816143
	N267	N	0.534298	0.912929	0.816239
	N268	N	0.914467	0.177951	0.457946
	N269	N	0.086504	0.180443	0.531468
	N270	N	0.085014	0.822791	0.458836
	N271	N	0.911255	0.819393	0.531043
	N272	N	0.179863	0.464630	0.907200
	N273	N	0.179680	0.534839	0.083547
	N274	N	0.816865	0.463941	0.083265
	N275	N	0.817756	0.536453	0.907857
	O276	O	0.400919	0.652771	0.510153
	H277	H	0.404106	0.644125	0.507089
	H278	H	0.395153	0.664051	0.495431
	O279	O	0.431236	0.663916	0.347973
	H280	H	0.440146	0.674062	0.342791
	H281	H	0.435408	0.663089	0.346807
	O282	O	0.609189	0.399629	0.521735
	H283	H	0.613955	0.414693	0.509586
	H284	H	0.616518	0.383598	0.524602
	O285	O	0.986440	0.060218	-0.061714
	H286	H	0.988836	0.067309	-0.045117
	H287	H	1.004816	0.047992	-0.062453
	O288	O	0.164077	0.043615	0.903372
	H289	H	0.160551	0.042903	0.902935
	H290	H	0.152456	0.048040	0.912323
	O291	O	0.678056	0.436250	0.442142
	H292	H	0.692893	0.425123	0.432804
	H293	H	0.672099	0.421503	0.435651
	O294	O	0.574955	0.563691	0.548770
	H295	H	0.585542	0.566266	0.557877
	H296	H	0.566948	0.568133	0.544614
	O297	O	1.021247	1.112149	0.958717
	H298	H	1.012696	1.124936	0.964380
	H299	H	1.008027	1.133873	0.968270
	O300	O	0.144487	-0.164664	0.043045
	H301	H	0.131884	-0.170306	0.058949
	H302	H	0.155986	-0.175618	0.046045
	O303	O	0.395291	0.384889	0.404533
	H304	H	0.396679	0.389879	0.404585
	H305	H	0.378790	0.381327	0.414712
	O306	O	0.804387	-0.058885	0.189559
	H307	H	0.801638	-0.076384	0.182052
	H308	H	0.814758	-0.080685	0.198374
	O309	O	0.495429	0.452003	0.651995
	H310	H	0.479498	0.470400	0.657071
	H311	H	0.493557	0.441998	0.640818
	O312	O	0.900896	0.874504	0.185446
	H313	H	0.894759	0.874876	0.168890
	H314	H	0.899989	0.886295	0.180203
	O315	O	0.303357	0.371985	0.617880
	H316	H	0.320049	0.383657	0.629495
	H317	H	0.286957	0.369766	0.640792
	O318	O	0.479496	0.547691	0.534645
	H319	H	0.469245	0.549285	0.537561
	H320	H	0.485397	0.538666	0.518470
	O321	O	0.983962	0.108172	0.816219
	H322	H	1.000821	0.125903	0.817654
	H323	H	0.978073	0.112339	0.825765
	O324	O	-0.161353	-0.143512	1.097162
	H325	H	-0.147999	-0.151954	1.096828
	H326	H	-0.162182	-0.155861	1.100094
	O327	O	0.305961	0.507180	0.553713
	H328	H	0.307168	0.508788	0.567495
	H329	H	0.305361	0.510672	0.552144
	O330	O	0.496160	0.495271	0.449869
	H331	H	0.503829	0.493860	0.452259
	H332	H	0.485018	0.489679	0.454400
	O333	O	0.868769	1.126979	0.843999
	H334	H	0.892597	1.127178	0.833094
	H335	H	0.866744	1.111943	0.860411
	O336	O	0.423510	0.641568	0.386818
	H337	H	0.423833	0.629924	0.381249
	H338	H	0.443043	0.645509	0.376232
	O339	O	1.003659	0.080479	1.109102
	H340	H	0.994194	0.068167	1.098385
	H341	H	1.020680	0.067751	1.120632
	O342	O	0.180812	0.826102	0.848071
	H343	H	0.190612	0.836276	0.870836
	H344	H	0.188704	0.840298	0.871710
	O345	O	0.158122	1.050372	1.062716
	H346	H	0.150869	1.054846	1.066831
	H347	H	0.151525	1.064772	1.088507
	O348	O	0.469342	0.445509	0.601691
	H349	H	0.459079	0.445896	0.619045
	H350	H	0.460440	0.447596	0.597814
	O351	O	0.171364	0.183914	0.170060
	H352	H	0.183534	0.154632	0.182666
	H353	H	0.158950	0.189411	0.159543
	O354	O	1.101122	0.920623	0.123659
	H355	H	1.080925	0.932911	0.120322
	H356	H	1.095823	0.919176	0.123534
	O357	O	-0.152186	1.050140	0.110336
	H358	H	-0.149089	1.033517	0.107925
	H359	H	-0.159329	1.041144	0.119983
	O360	O	0.486049	0.383388	0.682712
	H361	H	0.506531	0.387267	0.684005
	H362	H	0.498753	0.383453	0.691418
	O363	O	0.582107	0.399688	0.368529
	H364	H	0.581305	0.392262	0.368826
	H365	H	0.569733	0.396547	0.374300
	O366	O	0.507951	0.634469	0.689235
	H367	H	0.499621	0.637579	0.689736
	H368	H	0.518536	0.627098	0.698693
	O369	O	0.642073	0.351394	0.496053
	H370	H	0.648538	0.354524	0.499222
	H371	H	0.630384	0.346316	0.500156
	O372	O	0.694754	0.563611	0.569007
	H373	H	0.699273	0.567637	0.593121
	H374	H	0.697849	0.575800	0.558162
	O375	O	0.477687	0.436532	0.453226
	H376	H	0.473334	0.442280	0.454420
	H377	H	0.475947	0.443659	0.466563
	O378	O	0.407498	0.621995	0.543985
	H379	H	0.423912	0.615909	0.525748
	H380	H	0.399104	0.644146	0.531354
	O381	O	0.686728	0.591886	0.438519
	H382	H	0.705360	0.590615	0.424699
	H383	H	0.677869	0.579994	0.444286
	O384	O	0.052303	1.069112	0.897343
	H385	H	0.037832	1.078661	0.889071
	H386	H	0.038917	1.062377	0.874797
	O387	O	0.885164	0.924042	-0.090912
	H388	H	0.871795	0.924816	-0.114275
	H389	H	0.895947	0.905511	-0.098023
	O390	O	0.348798	0.373109	0.510980
	H391	H	0.356944	0.369883	0.512272
	H392	H	0.350096	0.399266	0.516479
	O393	O	0.903882	-0.064437	1.030078
	H394	H	0.899044	-0.067562	1.018578
	H395	H	0.896845	-0.070318	1.026156
	O396	O	0.058150	0.805444	0.787963
	H397	H	0.090389	0.796284	0.783104
	H398	H	0.076680	0.799623	0.782307
	O399	O	0.491422	0.632517	0.450642
	H400	H	0.492283	0.638740	0.439492
	H401	H	0.495643	0.647276	0.445978
	O402	O	0.847120	0.089861	0.956006
	H403	H	0.833668	0.087197	0.948752
	H404	H	0.837608	0.082747	0.974404
	O405	O	0.203188	0.075416	0.025567
	H406	H	0.199340	0.058665	0.008440
	H407	H	0.207548	0.082926	0.017461
	O408	O	0.867096	0.840494	1.013268
	H409	H	0.859486	0.849392	1.011899
	H410	H	0.864261	0.847003	1.011135
	O411	O	0.826141	0.941381	-0.117514
	H412	H	0.830359	0.955068	-0.121797
	H413	H	0.821033	0.944704	-0.135881
	O414	O	-0.021723	0.155432	1.033790
	H415	H	-0.031792	0.167939	1.025106
	H416	H	-0.029912	0.166744	1.039888
	O417	O	0.564598	0.590783	0.343062
	H418	H	0.563280	0.585722	0.331425
	H419	H	0.571742	0.575352	0.334900
	O420	O	0.088530	0.856650	0.071163
	H421	H	0.063817	0.863442	0.070869
	H422	H	0.086290	0.867437	0.065244
	O423	O	1.051312	0.153230	0.054797
	H424	H	1.080519	0.154780	0.069434
	H425	H	1.042270	0.162307	0.064375
	O426	O	0.039310	-0.020663	0.856625
	H427	H	0.047469	-0.022901	0.846284
	H428	H	0.066943	-0.020190	0.861693
	O429	O	0.606568	0.338220	0.338776
	H430	H	0.586701	0.334289	0.335279
	H431	H	0.604874	0.325933	0.368453
