data_Molecule from HDF5

_cell_length_a		16.242475
_cell_length_b		16.492754
_cell_length_c		16.182341
_cell_angle_alpha	89.668733
_cell_angle_beta	90.014427
_cell_angle_gamma	89.888037
_symmetry_space_group_name_H-M	'P 1'
_symmetry_Int_Tables_number		1

loop_
	_symmetry_equiv_pos_as_xyz
	x,y,z

loop_
	_atom_site_label
	_atom_site_type_symbol
	_atom_site_fract_x
	_atom_site_fract_y
	_atom_site_fract_z
	H0	H	0.406540	0.838044	0.719620
	H1	H	0.601608	0.161850	0.714856
	H2	H	0.603329	0.836937	0.287805
	H3	H	0.406109	0.162039	0.286476
	H4	H	0.717614	0.402806	0.836118
	H5	H	0.717871	0.594991	0.165722
	H6	H	0.292007	0.597107	0.836340
	H7	H	0.292485	0.402181	0.165782
	H8	H	0.842277	0.716829	0.398270
	H9	H	0.167856	0.714576	0.602218
	H10	H	0.842796	0.281513	0.603255
	H11	H	0.168128	0.283233	0.400904
	H12	H	0.839967	0.401924	0.713305
	H13	H	0.169898	0.592942	0.712764
	H14	H	0.839946	0.595570	0.288278
	H15	H	0.170212	0.404458	0.289645
	H16	H	0.402353	0.717213	0.838693
	H17	H	0.605755	0.714231	0.164965
	H18	H	0.605921	0.283514	0.837850
	H19	H	0.402786	0.281877	0.164573
	H20	H	0.721326	0.837500	0.403872
	H21	H	0.721114	0.160915	0.600541
	H22	H	0.290045	0.837186	0.602951
	H23	H	0.288094	0.160638	0.402143
	H24	H	0.906430	0.336953	0.218524
	H25	H	0.101984	0.661680	0.214553
	H26	H	0.102934	0.336474	0.787519
	H27	H	0.906208	0.661195	0.784937
	H28	H	0.218705	0.904161	0.337293
	H29	H	0.217581	0.094077	0.667674
	H30	H	0.792348	0.097318	0.336573
	H31	H	0.793214	0.901499	0.666480
	H32	H	0.341936	0.215875	0.899401
	H33	H	0.667551	0.214449	0.102193
	H34	H	0.341160	0.782383	0.103700
	H35	H	0.667036	0.782670	0.901768
	H36	H	0.339736	0.902403	0.215538
	H37	H	0.669425	0.094152	0.213753
	H38	H	0.340073	0.095972	0.788936
	H39	H	0.670138	0.904856	0.791733
	H40	H	0.904771	0.216579	0.338360
	H41	H	0.107061	0.213766	0.665705
	H42	H	0.107188	0.785053	0.338135
	H43	H	0.905079	0.781820	0.664414
	H44	H	0.221641	0.337009	0.902695
	H45	H	0.219676	0.661433	0.097931
	H46	H	0.787872	0.336964	0.102262
	H47	H	0.788421	0.660654	0.901864
	H48	H	0.416129	0.116176	0.605973
	H49	H	0.594469	0.882862	0.606702
	H50	H	0.606140	0.117047	0.403904
	H51	H	0.413997	0.883778	0.405266
	H52	H	0.589988	0.405635	0.116179
	H53	H	0.596611	0.599307	0.882621
	H54	H	0.411689	0.591654	0.118910
	H55	H	0.412328	0.413140	0.885953
	H56	H	0.121607	0.589235	0.402736
	H57	H	0.889596	0.588613	0.590535
	H58	H	0.125109	0.398028	0.596989
	H59	H	0.891258	0.415252	0.408080
	H60	H	0.120157	0.403885	0.586780
	H61	H	0.887465	0.593127	0.595772
	H62	H	0.124753	0.600083	0.407074
	H63	H	0.884476	0.400156	0.403331
	H64	H	0.412848	0.590303	0.117995
	H65	H	0.600296	0.588499	0.884325
	H66	H	0.597136	0.400276	0.120040
	H67	H	0.420347	0.402802	0.884997
	H68	H	0.591037	0.113137	0.402666
	H69	H	0.593238	0.888786	0.587668
	H70	H	0.418429	0.109378	0.584956
	H71	H	0.414376	0.886463	0.412399
	H72	H	0.912940	0.611223	0.092156
	H73	H	0.099828	0.385632	0.092294
	H74	H	0.089734	0.609855	0.911266
	H75	H	0.903743	0.381999	0.907505
	H76	H	0.100478	0.898410	0.622514
	H77	H	0.105445	0.090551	0.383205
	H78	H	0.915920	0.089737	0.616970
	H79	H	0.907706	0.902936	0.381320
	H80	H	0.619667	0.099551	0.921787
	H81	H	0.384861	0.097616	0.096807
	H82	H	0.621185	0.900022	0.091019
	H83	H	0.387608	0.905663	0.911481
	H84	H	0.619219	0.908526	0.092699
	H85	H	0.389072	0.093782	0.085891
	H86	H	0.617393	0.080719	0.908716
	H87	H	0.388493	0.907490	0.911623
	H88	H	0.913876	0.094230	0.619860
	H89	H	0.091728	0.085435	0.389305
	H90	H	0.100739	0.909928	0.618775
	H91	H	0.912431	0.912736	0.385564
	H92	H	0.107992	0.613880	0.912532
	H93	H	0.102159	0.382852	0.097975
	H94	H	0.908643	0.612619	0.091737
	H95	H	0.915887	0.383944	0.901858
	H96	H	0.399258	0.116781	0.592032
	H97	H	0.610511	0.881889	0.594966
	H98	H	0.598913	0.111300	0.416451
	H99	H	0.407824	0.884349	0.409916
	H100	H	0.598783	0.409144	0.117261
	H101	H	0.589123	0.591399	0.886804
	H102	H	0.413743	0.593093	0.118739
	H103	H	0.408086	0.401829	0.880651
	H104	H	0.119622	0.592244	0.414650
	H105	H	0.888226	0.595496	0.588913
	H106	H	0.121417	0.410276	0.598324
	H107	H	0.889619	0.402114	0.419507
	H108	H	0.910359	0.613582	0.096049
	H109	H	0.095933	0.385234	0.097006
	H110	H	0.098820	0.616906	0.896201
	H111	H	0.913872	0.386951	0.915197
	H112	H	0.090322	0.903414	0.617233
	H113	H	0.093022	0.100744	0.383597
	H114	H	0.911169	0.089635	0.619046
	H115	H	0.919045	0.902761	0.385413
	H116	H	0.626709	0.099703	0.899606
	H117	H	0.389479	0.086640	0.095501
	H118	H	0.622283	0.903610	0.098774
	H119	H	0.387723	0.906622	0.909743
	C120	C	0.383358	0.007283	0.623740
	C121	C	0.627434	0.991305	0.624229
	C122	C	0.627233	0.007147	0.379379
	C123	C	0.382781	0.991665	0.379750
	C124	C	0.625016	0.377276	0.009346
	C125	C	0.624777	0.620551	0.993010
	C126	C	0.383642	0.620416	0.010007
	C127	C	0.384062	0.377296	0.992428
	C128	C	0.013430	0.621832	0.379135
	C129	C	0.997028	0.619792	0.621134
	C130	C	0.013650	0.376465	0.622954
	C131	C	0.996671	0.378101	0.381135
	C132	C	0.881951	0.506349	0.123301
	C133	C	0.127251	0.491623	0.123382
	C134	C	0.127135	0.506672	0.879096
	C135	C	0.881906	0.490822	0.878804
	C136	C	0.126756	0.877173	0.510687
	C137	C	0.126197	0.119938	0.494027
	C138	C	0.884449	0.120395	0.510150
	C139	C	0.884241	0.877365	0.492677
	C140	C	0.513205	0.121810	0.879964
	C141	C	0.496018	0.120252	0.122032
	C142	C	0.512507	0.876412	0.123564
	C143	C	0.496253	0.878225	0.881580
	C144	C	0.386151	0.885920	0.680648
	C145	C	0.623484	0.113400	0.677921
	C146	C	0.624174	0.885469	0.325204
	C147	C	0.384893	0.113212	0.323886
	C148	C	0.680086	0.381212	0.885418
	C149	C	0.680324	0.616425	0.116645
	C150	C	0.329064	0.618037	0.885728
	C151	C	0.329189	0.380494	0.116465
	C152	C	0.890652	0.677876	0.379706
	C153	C	0.119641	0.675109	0.620595
	C154	C	0.890987	0.320867	0.621803
	C155	C	0.119609	0.322127	0.381431
	C156	C	0.889535	0.380878	0.676457
	C157	C	0.120403	0.615196	0.676137
	C158	C	0.889422	0.617554	0.325090
	C159	C	0.120783	0.382433	0.326492
	C160	C	0.383973	0.677615	0.886951
	C161	C	0.624612	0.675452	0.116360
	C162	C	0.624863	0.321927	0.886496
	C163	C	0.383930	0.320805	0.115723
	C164	C	0.682794	0.885718	0.382856
	C165	C	0.682769	0.112767	0.621062
	C166	C	0.328058	0.885571	0.622923
	C167	C	0.326507	0.112649	0.381628
	C168	C	0.884719	0.385305	0.180545
	C169	C	0.123269	0.613367	0.177103
	C170	C	0.123963	0.384816	0.825046
	C171	C	0.885285	0.612792	0.823255
	C172	C	0.181577	0.882152	0.386655
	C173	C	0.180741	0.115727	0.618079
	C174	C	0.829885	0.117807	0.385866
	C175	C	0.830027	0.880387	0.617003
	C176	C	0.390311	0.177020	0.880581
	C177	C	0.619022	0.175937	0.121485
	C178	C	0.389741	0.820881	0.122952
	C179	C	0.619025	0.822274	0.882772
	C180	C	0.389012	0.880749	0.178293
	C181	C	0.620166	0.115865	0.176395
	C182	C	0.389448	0.117384	0.825537
	C183	C	0.620431	0.882586	0.827883
	C184	C	0.885587	0.177172	0.386803
	C185	C	0.125423	0.175092	0.617103
	C186	C	0.125994	0.823112	0.387109
	C187	C	0.885540	0.821096	0.616008
	C188	C	0.182737	0.385118	0.882502
	C189	C	0.181810	0.613079	0.119249
	C190	C	0.826169	0.385097	0.122431
	C191	C	0.826946	0.612609	0.881474
	C192	C	0.404866	0.092143	0.600832
	C193	C	0.605832	0.906517	0.602804
	C194	C	0.605103	0.091870	0.401157
	C195	C	0.405352	0.906786	0.402641
	C196	C	0.601840	0.398733	0.095587
	C197	C	0.602073	0.599431	0.906911
	C198	C	0.406219	0.598219	0.096210
	C199	C	0.407031	0.399412	0.906173
	C200	C	0.099673	0.600198	0.401516
	C201	C	0.910694	0.598594	0.598213
	C202	C	0.100033	0.397866	0.600689
	C203	C	0.910746	0.399517	0.403634
	C204	C	0.904101	0.590804	0.099929
	C205	C	0.105717	0.406621	0.101972
	C206	C	0.105160	0.591638	0.900473
	C207	C	0.904493	0.406073	0.901473
	C208	C	0.104039	0.897887	0.597226
	C209	C	0.103375	0.098503	0.407712
	C210	C	0.907085	0.097882	0.596377
	C211	C	0.906513	0.899665	0.406431
	C212	C	0.599022	0.099803	0.903252
	C213	C	0.410155	0.098995	0.099389
	C214	C	0.598600	0.897710	0.100833
	C215	C	0.410165	0.900266	0.904292
	Zn216	Zn	0.504976	-0.000243	0.753124
	Zn217	Zn	0.504467	-0.000471	0.250226
	Zn218	Zn	0.752292	0.498482	0.001001
	Zn219	Zn	0.256977	0.499208	0.000563
	Zn220	Zn	0.005252	0.749615	0.500863
	Zn221	Zn	0.005687	0.248653	0.501839
	Zn222	Zn	0.004645	0.498257	0.749605
	Zn223	Zn	0.004857	0.499314	0.252667
	Zn224	Zn	0.503819	0.748591	0.002143
	Zn225	Zn	0.504520	0.248937	0.001471
	Zn226	Zn	0.756423	-0.000816	0.501770
	Zn227	Zn	0.254098	-0.001278	0.502634
	N228	N	0.419984	0.962371	0.681343
	N229	N	0.589830	0.037046	0.680209
	N230	N	0.590409	0.962133	0.322771
	N231	N	0.419254	0.036851	0.322709
	N232	N	0.680232	0.414944	0.962910
	N233	N	0.680544	0.582819	0.038885
	N234	N	0.329021	0.583072	0.963068
	N235	N	0.328981	0.414775	0.038952
	N236	N	0.968907	0.680685	0.412566
	N237	N	0.041739	0.678191	0.587326
	N238	N	0.969295	0.317976	0.589290
	N239	N	0.041688	0.319214	0.414655
	N240	N	0.966967	0.414557	0.677173
	N241	N	0.042962	0.581357	0.676211
	N242	N	0.966699	0.583663	0.324670
	N243	N	0.043344	0.416518	0.326120
	N244	N	0.417163	0.679138	0.965210
	N245	N	0.590671	0.678020	0.038661
	N246	N	0.591250	0.319525	0.964559
	N247	N	0.417566	0.318882	0.037619
	N248	N	0.684781	0.962363	0.415807
	N249	N	0.685206	0.035917	0.588212
	N250	N	0.326384	0.961926	0.588304
	N251	N	0.325167	0.036018	0.415565
	N252	N	0.919044	0.461616	0.180820
	N253	N	0.090078	0.536798	0.179893
	N254	N	0.089942	0.461254	0.822878
	N255	N	0.918794	0.536032	0.821519
	N256	N	0.182219	0.914906	0.464656
	N257	N	0.181579	0.082412	0.540407
	N258	N	0.829065	0.083349	0.463538
	N259	N	0.828930	0.914689	0.539265
	N260	N	0.468127	0.179816	0.913672
	N261	N	0.540968	0.178572	0.088234
	N262	N	0.467641	0.818195	0.089474
	N263	N	0.540858	0.819467	0.915351
	N264	N	0.466464	0.914283	0.178974
	N265	N	0.542977	0.081897	0.176687
	N266	N	0.466936	0.083558	0.825106
	N267	N	0.542999	0.916675	0.826948
	N268	N	0.918906	0.178809	0.465042
	N269	N	0.092060	0.177724	0.538853
	N270	N	0.092501	0.820061	0.465183
	N271	N	0.918422	0.819230	0.537869
	N272	N	0.184806	0.461899	0.915338
	N273	N	0.184290	0.536327	0.086540
	N274	N	0.824512	0.461280	0.087455
	N275	N	0.824746	0.535917	0.915172
	O276	O	0.562810	0.542452	0.509564
	H277	H	0.567255	0.543342	0.508279
	H278	H	0.563207	0.547278	0.505213
	O279	O	-0.049500	0.022018	0.027773
	H280	H	-0.050542	0.023616	0.025866
	H281	H	-0.055957	0.021788	0.031875
	O282	O	0.485128	0.526859	0.456755
	H283	H	0.486035	0.526766	0.448376
	H284	H	0.487260	0.536793	0.451441
	O285	O	0.457417	0.498489	0.519574
	H286	H	0.453745	0.509285	0.522228
	H287	H	0.457956	0.496152	0.518159
	O288	O	0.998949	-0.007923	0.035302
	H289	H	0.994282	-0.007460	0.034392
	H290	H	0.999629	-0.006367	0.031925
	O291	O	-0.467392	0.512806	-0.480681
	H292	H	-0.469145	0.514704	-0.482238
	H293	H	-0.464844	0.520568	-0.463196
	O294	O	0.131588	0.828899	0.185362
	H295	H	0.132593	0.822692	0.194136
	H296	H	0.130458	0.832225	0.184111
	O297	O	-0.031754	0.998752	0.047254
	H298	H	-0.034484	1.003391	0.047538
	H299	H	-0.030725	0.994823	0.039564
	O300	O	0.963585	-0.007900	1.062956
	H301	H	0.953860	-0.015829	1.068839
	H302	H	0.963717	-0.011667	1.063480
	O303	O	0.531366	0.533453	0.432737
	H304	H	0.537915	0.532193	0.427658
	H305	H	0.523908	0.526403	0.431010
	O306	O	0.540576	1.555393	1.443368
	H307	H	0.538917	1.547278	1.437808
	H308	H	0.540323	1.559094	1.435744
	O309	O	0.501848	0.516449	0.487639
	H310	H	0.501146	0.519423	0.492550
	H311	H	0.497852	0.513671	0.487882
