data_Molecule from HDF5

_cell_length_a		16.562967
_cell_length_b		16.574493
_cell_length_c		16.513976
_cell_angle_alpha	89.992354
_cell_angle_beta	90.019391
_cell_angle_gamma	89.987665
_symmetry_space_group_name_H-M	'P 1'
_symmetry_Int_Tables_number		1

loop_
	_symmetry_equiv_pos_as_xyz
	x,y,z

loop_
	_atom_site_label
	_atom_site_type_symbol
	_atom_site_fract_x
	_atom_site_fract_y
	_atom_site_fract_z
	H0	H	0.390507	0.847043	0.719639
	H1	H	0.600065	0.160859	0.721208
	H2	H	0.596073	0.846824	0.281900
	H3	H	0.391545	0.161575	0.280115
	H4	H	0.715586	0.398837	0.841684
	H5	H	0.718194	0.609597	0.154586
	H6	H	0.276356	0.606241	0.841400
	H7	H	0.274423	0.399113	0.155758
	H8	H	0.839916	0.729575	0.390842
	H9	H	0.148759	0.728898	0.608915
	H10	H	0.838879	0.280083	0.608613
	H11	H	0.150084	0.282689	0.395344
	H12	H	0.838068	0.398829	0.722134
	H13	H	0.151468	0.608647	0.720691
	H14	H	0.839792	0.613348	0.274498
	H15	H	0.149563	0.398943	0.278486
	H16	H	0.393295	0.722952	0.841546
	H17	H	0.603507	0.726922	0.154305
	H18	H	0.600951	0.281950	0.842339
	H19	H	0.389806	0.282665	0.155648
	H20	H	0.713332	0.847149	0.397696
	H21	H	0.717954	0.159644	0.606754
	H22	H	0.271968	0.848496	0.605311
	H23	H	0.273361	0.160728	0.395696
	H24	H	0.885091	0.348582	0.225718
	H25	H	0.101598	0.658195	0.222748
	H26	H	0.099076	0.347204	0.778376
	H27	H	0.890055	0.660730	0.778884
	H28	H	0.214595	0.898435	0.343079
	H29	H	0.216396	0.109397	0.656201
	H30	H	0.775003	0.107993	0.341683
	H31	H	0.771348	0.896661	0.656389
	H32	H	0.338161	0.222819	0.896174
	H33	H	0.652145	0.226172	0.105628
	H34	H	0.339280	0.782583	0.104764
	H35	H	0.652271	0.781994	0.892118
	H36	H	0.338503	0.899403	0.220107
	H37	H	0.653536	0.108328	0.220208
	H38	H	0.338417	0.107232	0.779332
	H39	H	0.652343	0.898657	0.776854
	H40	H	0.888660	0.225564	0.343274
	H41	H	0.099343	0.225185	0.656659
	H42	H	0.101642	0.780577	0.345190
	H43	H	0.886611	0.780093	0.656183
	H44	H	0.216240	0.347196	0.894288
	H45	H	0.216349	0.659455	0.105740
	H46	H	0.768720	0.348334	0.109123
	H47	H	0.773531	0.659554	0.894018
	H48	H	0.403175	0.116958	0.589055
	H49	H	0.585148	0.892254	0.586876
	H50	H	0.588547	0.116054	0.417378
	H51	H	0.401773	0.888295	0.403769
	H52	H	0.580956	0.415989	0.110092
	H53	H	0.586324	0.587108	0.887263
	H54	H	0.409519	0.598041	0.112230
	H55	H	0.406131	0.411645	0.885316
	H56	H	0.107285	0.596537	0.410470
	H57	H	0.882195	0.594509	0.588002
	H58	H	0.106756	0.415357	0.589483
	H59	H	0.880781	0.411727	0.411866
	H60	H	0.106698	0.412877	0.588990
	H61	H	0.884160	0.591114	0.585683
	H62	H	0.102658	0.590730	0.419092
	H63	H	0.883581	0.416220	0.416279
	H64	H	0.400597	0.594350	0.113899
	H65	H	0.578267	0.592848	0.888486
	H66	H	0.583183	0.415100	0.111058
	H67	H	0.403561	0.413652	0.885693
	H68	H	0.588836	0.120836	0.403697
	H69	H	0.582521	0.893281	0.589265
	H70	H	0.408570	0.115492	0.589423
	H71	H	0.412335	0.894246	0.410192
	H72	H	0.913283	0.610427	0.085350
	H73	H	0.079011	0.395097	0.084445
	H74	H	0.085113	0.616867	0.907628
	H75	H	0.905436	0.393801	0.915546
	H76	H	0.079497	0.919239	0.610437
	H77	H	0.091873	0.095137	0.384137
	H78	H	0.907897	0.094226	0.612070
	H79	H	0.899193	0.915638	0.385648
	H80	H	0.605018	0.088065	0.913711
	H81	H	0.382017	0.099391	0.090234
	H82	H	0.605276	0.915313	0.082400
	H83	H	0.384474	0.913963	0.912874
	H84	H	0.608515	0.920096	0.095230
	H85	H	0.385885	0.092617	0.083912
	H86	H	0.609430	0.091544	0.905077
	H87	H	0.384103	0.916563	0.908644
	H88	H	0.903569	0.091720	0.613292
	H89	H	0.081129	0.084647	0.390946
	H90	H	0.081212	0.914188	0.612644
	H91	H	0.909208	0.920895	0.391720
	H92	H	0.086302	0.615853	0.910543
	H93	H	0.091033	0.389403	0.084570
	H94	H	0.904784	0.612406	0.081084
	H95	H	0.904531	0.389353	0.907993
	H96	H	0.405581	0.114706	0.584801
	H97	H	0.582179	0.893867	0.585584
	H98	H	0.577006	0.115668	0.409093
	H99	H	0.399942	0.892531	0.416577
	H100	H	0.583050	0.417590	0.109649
	H101	H	0.586105	0.596397	0.884217
	H102	H	0.407299	0.588729	0.110405
	H103	H	0.406631	0.414894	0.886309
	H104	H	0.104462	0.585817	0.409209
	H105	H	0.882798	0.590272	0.589643
	H106	H	0.105571	0.414089	0.587610
	H107	H	0.882049	0.418539	0.409618
	H108	H	0.906011	0.615473	0.089696
	H109	H	0.083579	0.389137	0.095360
	H110	H	0.088300	0.617469	0.908157
	H111	H	0.912213	0.393198	0.910261
	H112	H	0.085129	0.918889	0.612332
	H113	H	0.076449	0.100204	0.386714
	H114	H	0.906730	0.089418	0.610549
	H115	H	0.909397	0.909189	0.387489
	H116	H	0.608812	0.098118	0.913446
	H117	H	0.384047	0.089692	0.093742
	H118	H	0.611488	0.906654	0.091757
	H119	H	0.382875	0.911586	0.908418
	C120	C	0.373322	0.012495	0.620341
	C121	C	0.616437	0.996030	0.620787
	C122	C	0.615897	0.013520	0.378846
	C123	C	0.372928	0.995604	0.378007
	C124	C	0.615816	0.383198	0.006974
	C125	C	0.617081	0.625350	0.989779
	C126	C	0.374457	0.625004	0.007660
	C127	C	0.373946	0.382075	0.990241
	C128	C	0.002747	0.625313	0.378562
	C129	C	0.986380	0.624660	0.620447
	C130	C	0.003044	0.381641	0.622073
	C131	C	0.985225	0.383193	0.379584
	C132	C	0.873308	0.510974	0.120616
	C133	C	0.116446	0.494629	0.120583
	C134	C	0.117501	0.512983	0.877023
	C135	C	0.874744	0.495447	0.878690
	C136	C	0.115381	0.883584	0.508918
	C137	C	0.115485	0.125398	0.491152
	C138	C	0.873200	0.124928	0.508395
	C139	C	0.872791	0.882255	0.491691
	C140	C	0.504072	0.124472	0.878688
	C141	C	0.487578	0.126157	0.121311
	C142	C	0.504399	0.882520	0.121108
	C143	C	0.487486	0.882323	0.877308
	C144	C	0.371280	0.894582	0.680328
	C145	C	0.618721	0.113649	0.681336
	C146	C	0.615741	0.894177	0.321106
	C147	C	0.372080	0.114160	0.319125
	C148	C	0.675917	0.380546	0.888990
	C149	C	0.677668	0.627875	0.107648
	C150	C	0.315920	0.625548	0.888700
	C151	C	0.314338	0.380401	0.108445
	C152	C	0.886582	0.688302	0.373650
	C153	C	0.102882	0.686850	0.625152
	C154	C	0.885655	0.320843	0.625757
	C155	C	0.103187	0.322926	0.376928
	C156	C	0.885221	0.379834	0.682323
	C157	C	0.103977	0.627438	0.681158
	C158	C	0.886355	0.630365	0.315731
	C159	C	0.102944	0.380795	0.319009
	C160	C	0.373917	0.683454	0.888645
	C161	C	0.620536	0.686143	0.107507
	C162	C	0.618755	0.322471	0.889210
	C163	C	0.371926	0.322592	0.108564
	C164	C	0.674068	0.894440	0.378474
	C165	C	0.677250	0.113147	0.624360
	C166	C	0.312549	0.895053	0.623367
	C167	C	0.313335	0.113718	0.376356
	C168	C	0.867751	0.395156	0.184473
	C169	C	0.119325	0.611457	0.181907
	C170	C	0.118186	0.394410	0.818007
	C171	C	0.871787	0.613402	0.818564
	C172	C	0.175415	0.880375	0.390933
	C173	C	0.176051	0.127746	0.609301
	C174	C	0.814136	0.126736	0.389565
	C175	C	0.811616	0.878844	0.609190
	C176	C	0.385636	0.183395	0.877438
	C177	C	0.605474	0.185699	0.123528
	C178	C	0.386485	0.822448	0.122967
	C179	C	0.605574	0.822601	0.874722
	C180	C	0.386104	0.880709	0.180420
	C181	C	0.605777	0.127295	0.180955
	C182	C	0.385785	0.126031	0.819130
	C183	C	0.605364	0.880519	0.817070
	C184	C	0.870577	0.185564	0.390359
	C185	C	0.117841	0.185061	0.609593
	C186	C	0.118988	0.821674	0.391829
	C187	C	0.869151	0.820930	0.609335
	C188	C	0.176472	0.394389	0.875600
	C189	C	0.176736	0.612090	0.123634
	C190	C	0.810033	0.394929	0.126284
	C191	C	0.813784	0.612754	0.875923
	C192	C	0.398468	0.094462	0.594961
	C193	C	0.590714	0.914389	0.594782
	C194	C	0.591739	0.096062	0.402982
	C195	C	0.397399	0.913117	0.402965
	C196	C	0.590004	0.408890	0.088871
	C197	C	0.591120	0.599443	0.907846
	C198	C	0.398745	0.600668	0.090661
	C199	C	0.398630	0.406417	0.907442
	C200	C	0.083824	0.598646	0.405242
	C201	C	0.904328	0.599091	0.594938
	C202	C	0.084994	0.406880	0.596249
	C203	C	0.903267	0.408282	0.405444
	C204	C	0.900450	0.591698	0.093284
	C205	C	0.091499	0.412434	0.095127
	C206	C	0.093261	0.595224	0.901616
	C207	C	0.900206	0.413507	0.904251
	C208	C	0.089041	0.909940	0.590687
	C209	C	0.090291	0.100484	0.408743
	C210	C	0.898795	0.099317	0.590588
	C211	C	0.898718	0.907767	0.409780
	C212	C	0.586233	0.099542	0.903537
	C213	C	0.405300	0.101111	0.096307
	C214	C	0.586837	0.907021	0.096763
	C215	C	0.405301	0.906935	0.902722
	Zn216	Zn	0.495377	0.003515	0.749010
	Zn217	Zn	0.495454	0.004540	0.249719
	Zn218	Zn	0.745088	0.503086	-0.001352
	Zn219	Zn	0.245653	0.503680	-0.000376
	Zn220	Zn	-0.005609	0.754034	0.500583
	Zn221	Zn	-0.006499	0.253350	0.500091
	Zn222	Zn	-0.005366	0.503948	0.749410
	Zn223	Zn	-0.005766	0.503671	0.249802
	Zn224	Zn	0.496162	0.753702	-0.001369
	Zn225	Zn	0.496050	0.254007	-0.000752
	Zn226	Zn	0.744933	0.004249	0.499656
	Zn227	Zn	0.244041	0.004210	0.499879
	N228	N	0.408249	0.968702	0.678878
	N229	N	0.581506	0.039729	0.679128
	N230	N	0.580523	0.969117	0.321032
	N231	N	0.408163	0.039452	0.319818
	N232	N	0.674071	0.417624	0.963285
	N233	N	0.675597	0.590708	0.033352
	N234	N	0.315891	0.590322	0.964003
	N235	N	0.315494	0.416680	0.033795
	N236	N	0.959919	0.685175	0.412328
	N237	N	0.028688	0.685232	0.588172
	N238	N	0.960061	0.321605	0.589083
	N239	N	0.028870	0.324255	0.414000
	N240	N	0.959293	0.416859	0.680071
	N241	N	0.030441	0.589320	0.678360
	N242	N	0.959565	0.591869	0.318708
	N243	N	0.028589	0.417399	0.320484
	N244	N	0.409341	0.683417	0.963855
	N245	N	0.583475	0.684630	0.033202
	N246	N	0.582149	0.323855	0.963751
	N247	N	0.408440	0.323505	0.033936
	N248	N	0.674382	0.969692	0.413486
	N249	N	0.676067	0.038891	0.587702
	N250	N	0.313599	0.969468	0.586786
	N251	N	0.313564	0.038936	0.412018
	N252	N	0.906385	0.468431	0.181053
	N253	N	0.082412	0.537363	0.180177
	N254	N	0.082326	0.469047	0.818649
	N255	N	0.908867	0.539327	0.819983
	N256	N	0.173375	0.918015	0.464931
	N257	N	0.174754	0.091398	0.534530
	N258	N	0.815367	0.089984	0.464099
	N259	N	0.813729	0.916273	0.535026
	N260	N	0.460294	0.182738	0.913644
	N261	N	0.530826	0.185401	0.087597
	N262	N	0.461116	0.823179	0.086699
	N263	N	0.531246	0.823533	0.911570
	N264	N	0.460432	0.917256	0.179547
	N265	N	0.531134	0.091017	0.179888
	N266	N	0.460593	0.090373	0.819431
	N267	N	0.530781	0.916681	0.818289
	N268	N	0.906198	0.184814	0.465507
	N269	N	0.081103	0.183888	0.535137
	N270	N	0.082085	0.823562	0.466353
	N271	N	0.906413	0.822572	0.535055
	N272	N	0.176489	0.469099	0.911482
	N273	N	0.175038	0.538172	0.086178
	N274	N	0.813069	0.468158	0.087517
	N275	N	0.815307	0.538201	0.912274
	O276	O	1.075695	0.946270	0.177492
	H277	H	1.067205	0.935184	0.185585
	H278	H	1.095441	0.937093	0.178937
	O279	O	-0.202284	0.202337	0.806724
	H280	H	-0.178499	0.207075	0.791801
	H281	H	-0.192952	0.201999	0.790787
	O282	O	0.705151	0.528882	0.709158
	H283	H	0.702478	0.516595	0.704313
	H284	H	0.710795	0.510118	0.722295
	O285	O	0.515333	0.712035	0.471645
	H286	H	0.514098	0.710839	0.465256
	H287	H	0.512727	0.713506	0.478794
	O288	O	1.198635	-0.198535	0.790957
	H289	H	1.212244	-0.223318	0.785959
	H290	H	1.211926	-0.214196	0.820816
	O291	O	0.496557	0.530564	0.607271
	H292	H	0.499931	0.522351	0.619399
	H293	H	0.501217	0.517277	0.612716
	O294	O	0.202983	0.159052	0.118142
	H295	H	0.186340	0.142838	0.118376
	H296	H	0.201364	0.154172	0.090690
	O297	O	1.033371	0.172036	-0.075148
	H298	H	1.016526	0.171984	-0.054076
	H299	H	1.031554	0.172476	-0.086944
	O300	O	0.272886	0.280624	0.271727
	H301	H	0.259434	0.290594	0.266907
	H302	H	0.248336	0.267452	0.263198
	O303	O	-0.215626	-0.221969	-0.232143
	H304	H	-0.228351	-0.221925	-0.220106
	H305	H	-0.206004	-0.236247	-0.226375
	O306	O	0.964335	0.215294	-0.213946
	H307	H	0.976247	0.214123	-0.235251
	H308	H	0.983033	0.206386	-0.218832
	O309	O	0.404073	0.522383	0.538629
	H310	H	0.395513	0.499100	0.542767
	H311	H	0.411439	0.522121	0.546974
	O312	O	0.425048	0.407299	0.306307
	H313	H	0.410434	0.396081	0.306020
	H314	H	0.413017	0.408298	0.310158
	O315	O	0.436714	0.699218	0.535416
	H316	H	0.444194	0.679435	0.536590
	H317	H	0.445071	0.695501	0.531457
	O318	O	0.810699	1.197850	0.038294
	H319	H	0.806077	1.201790	0.008744
	H320	H	0.799203	1.191632	0.025481
	O321	O	0.023636	1.215220	1.210821
	H322	H	0.016940	1.225577	1.218257
	H323	H	0.002911	1.212546	1.212950
	O324	O	0.809647	0.033180	1.040595
	H325	H	0.811303	0.034596	1.039128
	H326	H	0.800019	0.045884	1.044775
	O327	O	0.597248	0.580310	0.579862
	H328	H	0.592926	0.564468	0.580895
	H329	H	0.606980	0.580601	0.593538
	O330	O	0.883230	0.897543	0.171169
	H331	H	0.893702	0.897766	0.155186
	H332	H	0.870361	0.877189	0.180757
	O333	O	0.619950	0.531069	0.282505
	H334	H	0.619450	0.510708	0.269241
	H335	H	0.616969	0.518057	0.285778
	O336	O	0.373337	0.705269	0.292697
	H337	H	0.376307	0.702614	0.276562
	H338	H	0.400895	0.706543	0.307225
	O339	O	0.271499	0.629352	0.510893
	H340	H	0.271749	0.622592	0.520210
	H341	H	0.255177	0.650218	0.513259
	O342	O	-0.015743	0.774184	0.038096
	H343	H	-0.029362	0.767272	0.051653
	H344	H	-0.034785	0.778538	0.029102
	O345	O	0.481668	0.609971	0.402245
	H346	H	0.485127	0.611086	0.382098
	H347	H	0.484299	0.601779	0.389741
	O348	O	0.279648	0.473145	0.712182
	H349	H	0.265606	0.463168	0.727692
	H350	H	0.281162	0.453406	0.724342
	O351	O	0.156505	-0.123386	1.074051
	H352	H	0.136497	-0.120536	1.079154
	H353	H	0.152484	-0.112230	1.072879
	O354	O	1.137040	0.024020	1.208482
	H355	H	1.148838	0.023287	1.213152
	H356	H	1.145444	0.030506	1.209839
	O357	O	0.720278	0.563836	0.440867
	H358	H	0.715295	0.548966	0.447419
	H359	H	0.726954	0.580547	0.462775
	O360	O	0.347457	0.467433	0.385676
	H361	H	0.339581	0.455280	0.389165
	H362	H	0.348260	0.482154	0.417351
	O363	O	0.698676	0.400458	0.295607
	H364	H	0.721964	0.405595	0.271976
	H365	H	0.698821	0.418841	0.324758
	O366	O	0.861583	-0.145502	0.930964
	H367	H	0.857439	-0.129427	0.923333
	H368	H	0.869491	-0.131317	0.940513
	O369	O	-0.105394	0.079397	0.954558
	H370	H	-0.094025	0.075015	0.946391
	H371	H	-0.115213	0.079000	0.954093
	O372	O	0.121772	1.130030	0.795757
	H373	H	0.124333	1.106971	0.802131
	H374	H	0.111718	1.114704	0.812351
	O375	O	0.780068	-0.029018	0.215628
	H376	H	0.767832	-0.043770	0.222507
	H377	H	0.769664	-0.037948	0.228859
	O378	O	0.713873	0.286761	0.476188
	H379	H	0.704513	0.298198	0.436596
	H380	H	0.741825	0.262658	0.469807
	O381	O	0.275368	0.718093	0.393785
	H382	H	0.301136	0.713338	0.374275
	H383	H	0.255222	0.735173	0.391895
	O384	O	0.453723	0.307490	0.716462
	H385	H	0.459487	0.294167	0.713192
	H386	H	0.454816	0.290735	0.719655
	O387	O	0.208422	0.954308	0.888936
	H388	H	0.210173	0.927952	0.898934
	H389	H	0.220442	0.942358	0.890980
	O390	O	-0.102737	1.027623	0.971874
	H391	H	-0.093312	1.038309	0.973628
	H392	H	-0.111172	1.017127	0.962105
	O393	O	1.128663	0.062719	0.106782
	H394	H	1.130855	0.071706	0.106390
	H395	H	1.134177	0.066414	0.105726
	O396	O	0.701825	0.707854	0.257156
	H397	H	0.676400	0.676174	0.273113
	H398	H	0.693648	0.709592	0.249976
	O399	O	0.521204	0.716142	0.707143
	H400	H	0.525653	0.732967	0.718172
	H401	H	0.528043	0.721121	0.697402
	O402	O	0.959629	-0.053799	1.004416
	H403	H	0.953624	-0.047851	1.006514
	H404	H	0.958952	-0.048571	1.017652
	O405	O	0.651977	0.348087	0.686679
	H406	H	0.629453	0.350472	0.665098
	H407	H	0.643078	0.360848	0.672569
	O408	O	0.782386	1.031883	0.794586
	H409	H	0.772615	1.048299	0.774051
	H410	H	0.791143	1.023870	0.782099
	O411	O	0.938118	0.957796	-0.216716
	H412	H	0.957577	0.945147	-0.209413
	H413	H	0.936193	0.946161	-0.209758
	O414	O	0.102831	-0.047706	-0.106986
	H415	H	0.110622	-0.050511	-0.102821
	H416	H	0.107693	-0.053546	-0.102000
	O417	O	0.286858	0.300095	0.705059
	H418	H	0.285618	0.282967	0.715847
	H419	H	0.291546	0.289473	0.719835
	O420	O	1.021837	-0.195254	0.787548
	H421	H	1.036490	-0.204896	0.785742
	H422	H	1.043122	-0.207365	0.787714
	O423	O	1.198271	0.785704	-0.017249
	H424	H	1.215836	0.769326	-0.002729
	H425	H	1.179060	0.781397	0.000839
	O426	O	0.711953	0.715689	0.521026
	H427	H	0.737845	0.737665	0.533640
	H428	H	0.702540	0.714880	0.546444
	O429	O	0.939399	0.795318	0.204619
	H430	H	0.918994	0.789752	0.202757
	H431	H	0.922908	0.806112	0.216243
	O432	O	1.074466	0.199763	1.058263
	H433	H	1.067560	0.193437	1.049795
	H434	H	1.064105	0.197311	1.054983
	O435	O	0.366096	0.292578	0.490867
	H436	H	0.346200	0.286165	0.483304
	H437	H	0.358581	0.294439	0.495094
	O438	O	0.285639	0.531345	0.291981
	H439	H	0.289407	0.531491	0.285905
	H440	H	0.271896	0.534278	0.290126
	O441	O	0.355792	0.676123	0.666523
	H442	H	0.374645	0.681890	0.650197
	H443	H	0.372287	0.655375	0.653399
	O444	O	0.521229	0.292119	0.285411
	H445	H	0.511444	0.297026	0.288734
	H446	H	0.507588	0.279215	0.259254
	O447	O	0.571082	0.312129	0.379570
	H448	H	0.575234	0.341346	0.363015
	H449	H	0.537341	0.302462	0.367187
	O450	O	0.897961	0.147494	0.110348
	H451	H	0.888588	0.136977	0.100487
	H452	H	0.889279	0.150129	0.111763
	O453	O	0.345463	0.394381	0.500260
	H454	H	0.327474	0.383706	0.509752
	H455	H	0.347761	0.403582	0.531584
	O456	O	0.111509	0.907114	1.085318
	H457	H	0.089760	0.910808	1.074092
	H458	H	0.117329	0.885814	1.104466
	O459	O	0.529071	0.481826	0.700403
	H460	H	0.519395	0.470717	0.704367
	H461	H	0.531270	0.482252	0.690639
	O462	O	0.494229	0.578388	0.399830
	H463	H	0.481648	0.567484	0.400141
	H464	H	0.484417	0.570233	0.400940
	O465	O	0.677916	0.446741	0.549963
	H466	H	0.679689	0.429604	0.544134
	H467	H	0.666790	0.437712	0.554089
	O468	O	-0.215245	0.789615	0.028761
	H469	H	-0.215851	0.795043	0.014755
	H470	H	-0.235542	0.793262	0.017731
	O471	O	0.540511	0.294680	0.584284
	H472	H	0.527036	0.293248	0.560976
	H473	H	0.549643	0.283271	0.568167
	O474	O	1.054806	1.041077	0.068405
	H475	H	1.052258	1.026501	0.065160
	H476	H	1.056841	1.036783	0.090769
	O477	O	0.175595	0.184377	0.916452
	H478	H	0.173043	0.184796	0.929353
	H479	H	0.156794	0.178188	0.907036
