data_Molecule from HDF5

_cell_length_a		16.351108
_cell_length_b		16.354897
_cell_length_c		16.351663
_cell_angle_alpha	89.579811
_cell_angle_beta	89.905771
_cell_angle_gamma	90.031384
_symmetry_space_group_name_H-M	'P 1'
_symmetry_Int_Tables_number		1

loop_
	_symmetry_equiv_pos_as_xyz
	x,y,z

loop_
	_atom_site_label
	_atom_site_type_symbol
	_atom_site_fract_x
	_atom_site_fract_y
	_atom_site_fract_z
	H0	H	0.396418	0.829509	0.724973
	H1	H	0.601475	0.150833	0.720089
	H2	H	0.601088	0.827409	0.287383
	H3	H	0.395569	0.149672	0.281426
	H4	H	0.716821	0.392546	0.842372
	H5	H	0.717471	0.593170	0.164703
	H6	H	0.281245	0.593449	0.841894
	H7	H	0.277580	0.383115	0.162539
	H8	H	0.839018	0.709535	0.401423
	H9	H	0.161524	0.707553	0.605821
	H10	H	0.837015	0.275206	0.603699
	H11	H	0.160085	0.272828	0.400823
	H12	H	0.837720	0.391533	0.719910
	H13	H	0.161652	0.592593	0.721228
	H14	H	0.839292	0.596376	0.283534
	H15	H	0.158705	0.386963	0.283447
	H16	H	0.396610	0.710825	0.842856
	H17	H	0.601094	0.707395	0.164844
	H18	H	0.602788	0.274313	0.842511
	H19	H	0.395570	0.269384	0.163275
	H20	H	0.717508	0.827899	0.402897
	H21	H	0.716373	0.150823	0.602127
	H22	H	0.279653	0.829337	0.609192
	H23	H	0.282279	0.151488	0.399370
	H24	H	0.895097	0.330670	0.223559
	H25	H	0.102273	0.650634	0.221412
	H26	H	0.101671	0.329771	0.787355
	H27	H	0.899174	0.653228	0.784832
	H28	H	0.219658	0.887713	0.342288
	H29	H	0.218288	0.092714	0.664154
	H30	H	0.782281	0.092850	0.342165
	H31	H	0.779978	0.884448	0.664269
	H32	H	0.339981	0.209929	0.899223
	H33	H	0.660524	0.208866	0.106840
	H34	H	0.339251	0.769417	0.109583
	H35	H	0.659736	0.772545	0.901575
	H36	H	0.338872	0.885608	0.223623
	H37	H	0.659325	0.092169	0.222335
	H38	H	0.339190	0.093853	0.784359
	H39	H	0.659832	0.887264	0.786077
	H40	H	0.896221	0.211069	0.343185
	H41	H	0.101400	0.206848	0.664461
	H42	H	0.102613	0.771507	0.342789
	H43	H	0.898105	0.770625	0.665508
	H44	H	0.218825	0.330522	0.899987
	H45	H	0.220969	0.649538	0.108478
	H46	H	0.780856	0.330156	0.107406
	H47	H	0.783045	0.653490	0.902033
	H48	H	0.410459	0.104723	0.596878
	H49	H	0.597133	0.873751	0.591860
	H50	H	0.595520	0.107417	0.403790
	H51	H	0.405474	0.874805	0.417683
	H52	H	0.587864	0.400623	0.117340
	H53	H	0.586832	0.579801	0.890569
	H54	H	0.412734	0.572523	0.113892
	H55	H	0.409868	0.399840	0.888719
	H56	H	0.114191	0.588726	0.419242
	H57	H	0.883360	0.579164	0.600699
	H58	H	0.115471	0.396312	0.593432
	H59	H	0.881823	0.397430	0.406758
	H60	H	0.114225	0.399776	0.595438
	H61	H	0.884998	0.586194	0.592980
	H62	H	0.109224	0.570623	0.417600
	H63	H	0.885302	0.395224	0.422248
	H64	H	0.413128	0.584899	0.117633
	H65	H	0.589712	0.587466	0.887316
	H66	H	0.588679	0.398203	0.118766
	H67	H	0.407828	0.401991	0.888483
	H68	H	0.580844	0.100451	0.410718
	H69	H	0.589863	0.871953	0.604560
	H70	H	0.411270	0.102899	0.589805
	H71	H	0.408175	0.874212	0.410023
	H72	H	0.914112	0.602305	0.088050
	H73	H	0.094867	0.373940	0.094025
	H74	H	0.086762	0.605704	0.911686
	H75	H	0.904605	0.374717	0.908807
	H76	H	0.100332	0.903247	0.619175
	H77	H	0.093579	0.080032	0.388707
	H78	H	0.906743	0.082428	0.618329
	H79	H	0.905033	0.904073	0.389399
	H80	H	0.614490	0.077028	0.907491
	H81	H	0.388468	0.075850	0.086058
	H82	H	0.614891	0.898646	0.098982
	H83	H	0.384920	0.902493	0.914232
	H84	H	0.614393	0.895229	0.092914
	H85	H	0.385095	0.075501	0.098303
	H86	H	0.617765	0.087711	0.911119
	H87	H	0.383648	0.899393	0.913841
	H88	H	0.905990	0.079828	0.618737
	H89	H	0.087981	0.079587	0.390044
	H90	H	0.082382	0.905310	0.613202
	H91	H	0.915948	0.900414	0.391449
	H92	H	0.089448	0.603520	0.915273
	H93	H	0.082967	0.376839	0.100074
	H94	H	0.900485	0.607960	0.091708
	H95	H	0.910854	0.377364	0.911917
	H96	H	0.404884	0.105447	0.592438
	H97	H	0.582380	0.878053	0.592364
	H98	H	0.594570	0.102134	0.420721
	H99	H	0.413440	0.877507	0.416312
	H100	H	0.590733	0.400237	0.118486
	H101	H	0.595335	0.580277	0.889038
	H102	H	0.402391	0.578161	0.119387
	H103	H	0.411523	0.401805	0.889873
	H104	H	0.116411	0.579718	0.403151
	H105	H	0.888202	0.576532	0.591681
	H106	H	0.115893	0.396951	0.597279
	H107	H	0.888133	0.408814	0.415540
	H108	H	0.911123	0.607678	0.101396
	H109	H	0.085280	0.379285	0.086447
	H110	H	0.091980	0.606467	0.911607
	H111	H	0.904737	0.376790	0.916359
	H112	H	0.088371	0.888368	0.619267
	H113	H	0.090424	0.085154	0.387724
	H114	H	0.908621	0.080168	0.618104
	H115	H	0.907742	0.893248	0.386668
	H116	H	0.612069	0.080460	0.918091
	H117	H	0.383309	0.086694	0.091017
	H118	H	0.612713	0.901714	0.092931
	H119	H	0.385280	0.900200	0.916747
	C120	C	0.377887	-0.001894	0.625485
	C121	C	0.620866	0.980959	0.625395
	C122	C	0.620700	-0.002770	0.381690
	C123	C	0.378161	0.981503	0.382511
	C124	C	0.620311	0.370149	0.011863
	C125	C	0.621095	0.612640	0.995175
	C126	C	0.378127	0.611224	0.011344
	C127	C	0.377772	0.368682	0.994844
	C128	C	0.007648	0.611947	0.382348
	C129	C	0.991847	0.611339	0.625275
	C130	C	0.008268	0.368125	0.625513
	C131	C	0.990672	0.369499	0.383052
	C132	C	0.877068	0.499892	0.125553
	C133	C	0.120260	0.482090	0.125061
	C134	C	0.120442	0.499114	0.882362
	C135	C	0.877323	0.483160	0.881557
	C136	C	0.121848	0.868211	0.511378
	C137	C	0.121009	0.111675	0.495190
	C138	C	0.877413	0.111806	0.511805
	C139	C	0.878725	0.868067	0.495623
	C140	C	0.508842	0.112701	0.881097
	C141	C	0.491219	0.110820	0.123922
	C142	C	0.507918	0.867586	0.126021
	C143	C	0.490955	0.869854	0.883925
	C144	C	0.377276	0.877535	0.685255
	C145	C	0.620649	0.102469	0.681549
	C146	C	0.620776	0.875884	0.325249
	C147	C	0.376933	0.101895	0.321820
	C148	C	0.678284	0.371940	0.890790
	C149	C	0.678644	0.612391	0.116330
	C150	C	0.320031	0.612672	0.890244
	C151	C	0.318177	0.365836	0.114896
	C152	C	0.887132	0.670557	0.381900
	C153	C	0.113250	0.668875	0.625077
	C154	C	0.886056	0.312438	0.624431
	C155	C	0.111716	0.311434	0.381890
	C156	C	0.886211	0.370893	0.681681
	C157	C	0.113562	0.611512	0.682489
	C158	C	0.887175	0.614116	0.323343
	C159	C	0.111108	0.368527	0.323609
	C160	C	0.377436	0.670986	0.890639
	C161	C	0.620740	0.669144	0.116419
	C162	C	0.621413	0.313212	0.890757
	C163	C	0.376788	0.308809	0.115164
	C164	C	0.678698	0.876104	0.382850
	C165	C	0.677936	0.102485	0.623148
	C166	C	0.319284	0.877401	0.627458
	C167	C	0.320556	0.102747	0.380770
	C168	C	0.876417	0.378934	0.184262
	C169	C	0.121713	0.602414	0.183230
	C170	C	0.120840	0.378249	0.825465
	C171	C	0.879326	0.604862	0.824173
	C172	C	0.180072	0.868531	0.390437
	C173	C	0.179074	0.111407	0.615869
	C174	C	0.820597	0.112377	0.390398
	C175	C	0.819989	0.866418	0.616479
	C176	C	0.387932	0.170920	0.880416
	C177	C	0.612078	0.169379	0.125287
	C178	C	0.387276	0.808972	0.127752
	C179	C	0.611773	0.811598	0.882831
	C180	C	0.386790	0.866891	0.184411
	C181	C	0.611661	0.111380	0.182887
	C182	C	0.387586	0.112998	0.823319
	C183	C	0.611611	0.868716	0.825126
	C184	C	0.877620	0.170877	0.390934
	C185	C	0.121056	0.168567	0.616057
	C186	C	0.122224	0.810538	0.390637
	C187	C	0.878540	0.809378	0.616838
	C188	C	0.179138	0.378432	0.881662
	C189	C	0.180645	0.601769	0.126570
	C190	C	0.819282	0.378721	0.126413
	C191	C	0.820945	0.604956	0.881861
	C192	C	0.402083	0.082503	0.600272
	C193	C	0.596872	0.896462	0.602788
	C194	C	0.596994	0.081379	0.404729
	C195	C	0.402237	0.897427	0.407454
	C196	C	0.596059	0.392885	0.096101
	C197	C	0.597435	0.589184	0.910845
	C198	C	0.402403	0.585940	0.095311
	C199	C	0.402445	0.394094	0.910718
	C200	C	0.091511	0.587032	0.406479
	C201	C	0.907364	0.587588	0.601989
	C202	C	0.093139	0.390848	0.602246
	C203	C	0.906823	0.393466	0.407574
	C204	C	0.901447	0.584195	0.100888
	C205	C	0.095032	0.398416	0.100520
	C206	C	0.096475	0.583299	0.906149
	C207	C	0.899877	0.398323	0.905413
	C208	C	0.097497	0.891793	0.595396
	C209	C	0.097311	0.088327	0.410645
	C210	C	0.900517	0.087798	0.596385
	C211	C	0.902520	0.892292	0.411196
	C212	C	0.592872	0.088728	0.905173
	C213	C	0.407463	0.086366	0.098961
	C214	C	0.592172	0.891704	0.101848
	C215	C	0.406562	0.893811	0.907981
	Zn216	Zn	0.499554	-0.010220	0.754283
	Zn217	Zn	0.498886	-0.011190	0.252828
	Zn218	Zn	0.749375	0.491925	0.004346
	Zn219	Zn	0.248446	0.490094	0.002987
	Zn220	Zn	0.000416	0.739489	0.504026
	Zn221	Zn	-0.000712	0.239751	0.503696
	Zn222	Zn	0.000269	0.490997	0.753709
	Zn223	Zn	-0.001503	0.490829	0.253663
	Zn224	Zn	0.499088	0.740757	0.004115
	Zn225	Zn	0.499893	0.240308	0.003040
	Zn226	Zn	0.750019	-0.010809	0.503174
	Zn227	Zn	0.249900	-0.009889	0.503300
	N228	N	0.412749	0.953762	0.684043
	N229	N	0.586025	0.025899	0.683204
	N230	N	0.585348	0.952180	0.324322
	N231	N	0.412104	0.025513	0.322635
	N232	N	0.677836	0.406652	0.967086
	N233	N	0.678931	0.578071	0.039946
	N234	N	0.320077	0.576317	0.966391
	N235	N	0.318794	0.402241	0.038933
	N236	N	0.962905	0.669145	0.417809
	N237	N	0.036760	0.668740	0.590018
	N238	N	0.962995	0.310516	0.590409
	N239	N	0.035892	0.311969	0.418278
	N240	N	0.963329	0.404326	0.683035
	N241	N	0.037171	0.576331	0.682607
	N242	N	0.963217	0.578087	0.323407
	N243	N	0.035025	0.404016	0.324196
	N244	N	0.412413	0.670562	0.967044
	N245	N	0.585433	0.669478	0.040083
	N246	N	0.586117	0.312042	0.967065
	N247	N	0.413119	0.310588	0.039311
	N248	N	0.679070	0.952580	0.416914
	N249	N	0.678370	0.025817	0.589133
	N250	N	0.319515	0.953530	0.590970
	N251	N	0.321225	0.026986	0.417697
	N252	N	0.911585	0.455300	0.183774
	N253	N	0.085021	0.526852	0.182464
	N254	N	0.084878	0.454188	0.825959
	N255	N	0.913592	0.528137	0.823886
	N256	N	0.180022	0.903530	0.466635
	N257	N	0.179137	0.076641	0.539518
	N258	N	0.820527	0.076138	0.466448
	N259	N	0.820103	0.902315	0.540166
	N260	N	0.464337	0.170960	0.915552
	N261	N	0.536123	0.169147	0.089463
	N262	N	0.463432	0.809294	0.092173
	N263	N	0.535666	0.812208	0.918661
	N264	N	0.462781	0.902692	0.183349
	N265	N	0.535524	0.075679	0.182406
	N266	N	0.463852	0.077678	0.823306
	N267	N	0.535448	0.904306	0.825801
	N268	N	0.912388	0.170381	0.467471
	N269	N	0.085572	0.168728	0.539909
	N270	N	0.086450	0.810661	0.466660
	N271	N	0.914254	0.810169	0.540652
	N272	N	0.179039	0.454770	0.916372
	N273	N	0.179849	0.525847	0.091142
	N274	N	0.819708	0.455010	0.090511
	N275	N	0.819742	0.528291	0.917047
	O276	O	0.529808	0.577877	0.401461
	H277	H	0.540342	0.579000	0.417554
	H278	H	0.528450	0.569299	0.401370
	O279	O	0.686752	0.568918	0.540500
	H280	H	0.688957	0.562247	0.542050
	H281	H	0.696971	0.558803	0.540132
	O282	O	1.193975	0.051824	1.054428
	H283	H	1.209285	0.067429	1.062458
	H284	H	1.188784	0.049009	1.064819
	O285	O	0.575768	0.301087	0.609273
	H286	H	0.571352	0.300753	0.609675
	H287	H	0.551549	0.301335	0.597959
	O288	O	0.901953	0.872905	1.091390
	H289	H	0.901394	0.863807	1.082577
	H290	H	0.905680	0.871951	1.094202
	O291	O	0.046940	0.812677	-0.144248
	H292	H	0.046462	0.825137	-0.156493
	H293	H	0.037263	0.818008	-0.149257
	O294	O	0.565524	0.515095	0.613407
	H295	H	0.564515	0.517237	0.606845
	H296	H	0.575240	0.524302	0.616171
	O297	O	0.388643	0.685848	0.386865
	H298	H	0.384289	0.683544	0.369633
	H299	H	0.368638	0.693730	0.386511
	O300	O	0.596471	0.488957	0.418903
	H301	H	0.592144	0.502915	0.426852
	H302	H	0.598288	0.487054	0.409500
	O303	O	0.518933	0.482230	0.497079
	H304	H	0.514683	0.487933	0.491468
	H305	H	0.527937	0.479413	0.504165
	O306	O	0.395742	0.516007	0.346059
	H307	H	0.386422	0.497696	0.351662
	H308	H	0.400860	0.513097	0.349236
	O309	O	0.596107	0.464082	0.514665
	H310	H	0.599454	0.458682	0.514408
	H311	H	0.601459	0.463780	0.511292
	O312	O	-0.065202	0.017030	-0.059518
	H313	H	-0.072702	0.025831	-0.069059
	H314	H	-0.059354	0.012024	-0.051368
	O315	O	0.481788	0.534824	0.494548
	H316	H	0.481030	0.545030	0.493732
	H317	H	0.481585	0.540172	0.493655
	O318	O	0.130401	1.037149	1.056054
	H319	H	0.122594	1.035804	1.046800
	H320	H	0.139474	1.041830	1.052924
	O321	O	0.428734	0.658864	0.381733
	H322	H	0.418800	0.660646	0.380538
	H323	H	0.426771	0.655423	0.386208
	O324	O	0.082857	1.035104	0.183581
	H325	H	0.088275	1.038278	0.180937
	H326	H	0.087155	1.040138	0.183758
	O327	O	0.416850	0.499068	0.490574
	H328	H	0.409020	0.487444	0.481243
	H329	H	0.424597	0.493615	0.482233
	O330	O	-0.137953	0.060705	0.937906
	H331	H	-0.138290	0.054427	0.944586
	H332	H	-0.132908	0.065736	0.944292
	O333	O	0.177890	-0.026603	0.884183
	H334	H	0.191792	-0.014645	0.872827
	H335	H	0.173838	-0.012380	0.887752
	O336	O	0.430547	0.406799	0.425028
	H337	H	0.426041	0.401990	0.428163
	H338	H	0.439681	0.411086	0.421534
	O339	O	0.808039	0.034599	0.122123
	H340	H	0.807829	0.031998	0.122456
	H341	H	0.800386	0.021117	0.141826
	O342	O	0.043343	0.185379	0.068946
	H343	H	0.038275	0.175724	0.059893
	H344	H	0.048106	0.182416	0.078236
	O345	O	0.930837	0.020635	0.953977
	H346	H	0.922631	0.048149	0.939838
	H347	H	0.937060	0.017725	0.960283
	O348	O	1.112861	0.981411	0.051381
	H349	H	1.121818	0.979711	0.053174
	H350	H	1.104246	0.995163	0.042915
	O351	O	0.470174	0.474838	0.569609
	H352	H	0.456148	0.477906	0.572202
	H353	H	0.474101	0.485406	0.574761
	O354	O	0.884278	0.151717	0.814854
	H355	H	0.872371	0.153667	0.809532
	H356	H	0.876246	0.170971	0.821420
	O357	O	0.327150	0.468536	0.488607
	H358	H	0.350056	0.466647	0.499168
	H359	H	0.315487	0.475175	0.485413
	O360	O	0.376785	0.527006	0.477931
	H361	H	0.379482	0.519631	0.471159
	H362	H	0.374246	0.524549	0.475009
	O363	O	0.032066	1.092484	0.929236
	H364	H	0.026543	1.093232	0.926861
	H365	H	0.036806	1.095529	0.935255
	O366	O	0.670100	0.521579	0.403230
	H367	H	0.676244	0.520559	0.396284
	H368	H	0.658055	0.509150	0.405790
	O369	O	0.038225	0.837654	0.013653
	H370	H	0.041498	0.833409	-0.000246
	H371	H	0.029640	0.831677	0.000605
	O372	O	0.395861	0.315474	0.669947
	H373	H	0.391980	0.303054	0.681688
	H374	H	0.382685	0.322544	0.666526
	O375	O	0.618872	0.564829	0.660865
	H376	H	0.612419	0.564894	0.661908
	H377	H	0.618760	0.572228	0.659747
	O378	O	0.872550	0.902315	-0.046254
	H379	H	0.864504	0.906594	-0.049845
	H380	H	0.887499	0.904877	-0.036378
	O381	O	0.867408	-0.163564	0.152846
	H382	H	0.878145	-0.183308	0.147891
	H383	H	0.865187	-0.177303	0.141732
	O384	O	1.027258	0.948832	-0.111894
	H385	H	1.020077	0.951164	-0.113338
	H386	H	1.033947	0.959843	-0.120515
	O387	O	0.172361	0.085234	-0.006168
	H388	H	0.157111	0.067147	-0.002986
	H389	H	0.172657	0.093714	-0.004482
	O390	O	0.003838	0.904325	0.112588
	H391	H	0.005711	0.887779	0.112804
	H392	H	-0.000117	0.900944	0.114651
	O393	O	0.952733	1.116108	1.008963
	H394	H	0.951358	1.119917	1.019430
	H395	H	0.938148	1.118866	1.010397
	O396	O	0.449701	0.355614	0.583084
	H397	H	0.446053	0.366824	0.583866
	H398	H	0.456012	0.361788	0.578789
	O399	O	-0.136030	0.941142	0.993615
	H400	H	-0.148306	0.932658	1.002247
	H401	H	-0.120996	0.946938	0.985951
	O402	O	0.320108	0.330523	0.512430
	H403	H	0.320753	0.339287	0.506298
	H404	H	0.308456	0.319180	0.525463
	O405	O	1.006312	0.996213	0.127006
	H406	H	1.007320	0.985341	0.131305
	H407	H	1.000639	0.994114	0.120902
	O408	O	1.055448	0.848494	-0.107914
	H409	H	1.031819	0.860057	-0.109069
	H410	H	1.064411	0.863824	-0.118197
	O411	O	0.939623	0.092483	0.936634
	H412	H	0.931796	0.086311	0.941904
	H413	H	0.940912	0.089097	0.943647
	O414	O	0.596337	0.322825	0.454977
	H415	H	0.595126	0.337777	0.458781
	H416	H	0.590618	0.315415	0.439797
	O417	O	0.473561	0.606151	0.627646
	H418	H	0.484025	0.596771	0.633534
	H419	H	0.482952	0.621340	0.624210
