data_Molecule from HDF5

_cell_length_a		16.460452
_cell_length_b		16.461215
_cell_length_c		16.453644
_cell_angle_alpha	89.936584
_cell_angle_beta	90.008258
_cell_angle_gamma	89.912886
_symmetry_space_group_name_H-M	'P 1'
_symmetry_Int_Tables_number		1

loop_
	_symmetry_equiv_pos_as_xyz
	x,y,z

loop_
	_atom_site_label
	_atom_site_type_symbol
	_atom_site_fract_x
	_atom_site_fract_y
	_atom_site_fract_z
	H0	H	0.392934	0.845464	0.728761
	H1	H	0.608987	0.157834	0.729181
	H2	H	0.608848	0.845412	0.280007
	H3	H	0.390147	0.156826	0.276246
	H4	H	0.725408	0.391354	0.848880
	H5	H	0.725986	0.609359	0.161412
	H6	H	0.273765	0.612362	0.850948
	H7	H	0.274417	0.391094	0.161934
	H8	H	0.844591	0.727557	0.395361
	H9	H	0.157290	0.724686	0.612093
	H10	H	0.845132	0.276612	0.615146
	H11	H	0.154694	0.274095	0.394328
	H12	H	0.845147	0.392946	0.730204
	H13	H	0.156785	0.610970	0.729594
	H14	H	0.844345	0.610709	0.281068
	H15	H	0.156394	0.391498	0.280549
	H16	H	0.390700	0.726308	0.849336
	H17	H	0.614536	0.728954	0.159091
	H18	H	0.607048	0.278937	0.847984
	H19	H	0.389454	0.274473	0.161149
	H20	H	0.723958	0.845481	0.396345
	H21	H	0.725517	0.157282	0.613617
	H22	H	0.277499	0.844678	0.611980
	H23	H	0.274190	0.157216	0.392215
	H24	H	0.892864	0.344785	0.230113
	H25	H	0.112519	0.656629	0.234346
	H26	H	0.111190	0.346103	0.779775
	H27	H	0.893293	0.658522	0.783282
	H28	H	0.222988	0.895433	0.346286
	H29	H	0.226875	0.111310	0.659777
	H30	H	0.774657	0.112149	0.348496
	H31	H	0.775436	0.891208	0.659727
	H32	H	0.343508	0.226704	0.894875
	H33	H	0.655895	0.228678	0.115706
	H34	H	0.346529	0.773112	0.116424
	H35	H	0.655949	0.775622	0.894055
	H36	H	0.344723	0.891621	0.229092
	H37	H	0.656553	0.110152	0.228416
	H38	H	0.343459	0.109192	0.780474
	H39	H	0.656099	0.892587	0.780413
	H40	H	0.888993	0.229110	0.349867
	H41	H	0.108504	0.224327	0.662495
	H42	H	0.108070	0.778533	0.346970
	H43	H	0.892193	0.776870	0.659804
	H44	H	0.225638	0.345716	0.897057
	H45	H	0.227204	0.657180	0.117443
	H46	H	0.776587	0.344845	0.114878
	H47	H	0.776366	0.657438	0.897439
	H48	H	0.412714	0.114654	0.592283
	H49	H	0.584859	0.889871	0.591965
	H50	H	0.589431	0.114672	0.417178
	H51	H	0.414260	0.890216	0.418005
	H52	H	0.586123	0.414435	0.117072
	H53	H	0.590868	0.584730	0.893330
	H54	H	0.414462	0.582021	0.114927
	H55	H	0.412994	0.416569	0.894337
	H56	H	0.111697	0.587184	0.419799
	H57	H	0.886800	0.590615	0.594887
	H58	H	0.111250	0.419198	0.592944
	H59	H	0.892642	0.425392	0.419183
	H60	H	0.115308	0.412070	0.594982
	H61	H	0.887867	0.591589	0.591767
	H62	H	0.113076	0.588170	0.417117
	H63	H	0.884175	0.412428	0.410407
	H64	H	0.419886	0.587601	0.115472
	H65	H	0.583656	0.586515	0.895490
	H66	H	0.589015	0.413123	0.117600
	H67	H	0.414983	0.415142	0.895172
	H68	H	0.584061	0.113614	0.415865
	H69	H	0.589074	0.890332	0.589970
	H70	H	0.414982	0.113384	0.591978
	H71	H	0.412196	0.889630	0.417713
	H72	H	0.913687	0.612148	0.090833
	H73	H	0.083475	0.392427	0.089809
	H74	H	0.088281	0.614808	0.914083
	H75	H	0.909438	0.386697	0.915649
	H76	H	0.087687	0.917567	0.614649
	H77	H	0.085546	0.087087	0.393940
	H78	H	0.911111	0.087071	0.617252
	H79	H	0.913502	0.919732	0.393473
	H80	H	0.611799	0.090460	0.918752
	H81	H	0.388456	0.087767	0.092618
	H82	H	0.614119	0.911243	0.092249
	H83	H	0.390242	0.919327	0.919177
	H84	H	0.612054	0.914004	0.088061
	H85	H	0.389218	0.089778	0.088005
	H86	H	0.611183	0.088432	0.917819
	H87	H	0.386235	0.913229	0.913018
	H88	H	0.915369	0.086731	0.614573
	H89	H	0.086536	0.090178	0.392809
	H90	H	0.086376	0.909817	0.617387
	H91	H	0.917246	0.914098	0.392320
	H92	H	0.082705	0.612244	0.919276
	H93	H	0.089568	0.391101	0.089895
	H94	H	0.912325	0.613962	0.093490
	H95	H	0.917269	0.388594	0.914509
	H96	H	0.413066	0.113280	0.589924
	H97	H	0.588823	0.887978	0.594160
	H98	H	0.586231	0.111938	0.420596
	H99	H	0.413408	0.889641	0.416017
	H100	H	0.588892	0.415852	0.116928
	H101	H	0.587855	0.591405	0.891953
	H102	H	0.413387	0.588995	0.118473
	H103	H	0.413066	0.414426	0.893841
	H104	H	0.112523	0.590330	0.419522
	H105	H	0.888412	0.588603	0.593400
	H106	H	0.111148	0.412714	0.586872
	H107	H	0.889437	0.409757	0.427445
	H108	H	0.915454	0.613157	0.093441
	H109	H	0.086159	0.389903	0.095002
	H110	H	0.089916	0.613360	0.921875
	H111	H	0.913797	0.389902	0.921512
	H112	H	0.094621	0.913802	0.618382
	H113	H	0.088416	0.087689	0.392703
	H114	H	0.914093	0.090908	0.616639
	H115	H	0.910825	0.914005	0.390465
	H116	H	0.612760	0.089644	0.916380
	H117	H	0.390765	0.085265	0.089411
	H118	H	0.612358	0.916613	0.093053
	H119	H	0.388004	0.910532	0.922128
	C120	C	0.379584	0.009962	0.625244
	C121	C	0.622460	0.992527	0.626572
	C122	C	0.621077	0.010420	0.383352
	C123	C	0.378591	0.992846	0.381755
	C124	C	0.621634	0.380113	0.013730
	C125	C	0.622970	0.622319	0.996227
	C126	C	0.380218	0.622315	0.014162
	C127	C	0.378593	0.380002	0.997153
	C128	C	0.009420	0.623266	0.383598
	C129	C	0.991706	0.623541	0.626384
	C130	C	0.009899	0.380348	0.626612
	C131	C	0.991573	0.380555	0.384326
	C132	C	0.879356	0.509745	0.127183
	C133	C	0.121636	0.493681	0.127278
	C134	C	0.122263	0.510295	0.883824
	C135	C	0.879506	0.492490	0.883752
	C136	C	0.122662	0.880236	0.512839
	C137	C	0.122132	0.123126	0.495985
	C138	C	0.878441	0.123413	0.513392
	C139	C	0.879631	0.881045	0.495334
	C140	C	0.508790	0.123613	0.882745
	C141	C	0.492100	0.122964	0.125370
	C142	C	0.509729	0.879203	0.125925
	C143	C	0.491334	0.879868	0.883509
	C144	C	0.375134	0.892389	0.687607
	C145	C	0.626484	0.110556	0.688631
	C146	C	0.626034	0.892510	0.320762
	C147	C	0.373244	0.109874	0.317445
	C148	C	0.684318	0.374619	0.896085
	C149	C	0.685677	0.626795	0.113912
	C150	C	0.315557	0.629147	0.897618
	C151	C	0.315487	0.374457	0.114741
	C152	C	0.891979	0.686670	0.378175
	C153	C	0.110021	0.684528	0.629893
	C154	C	0.892217	0.317811	0.631767
	C155	C	0.108095	0.315836	0.377928
	C156	C	0.892338	0.375428	0.689610
	C157	C	0.109681	0.627604	0.688522
	C158	C	0.891812	0.628352	0.321085
	C159	C	0.109033	0.374792	0.321434
	C160	C	0.374254	0.685675	0.896623
	C161	C	0.629904	0.686468	0.112800
	C162	C	0.624768	0.318892	0.895311
	C163	C	0.372852	0.316038	0.114250
	C164	C	0.683764	0.892560	0.378593
	C165	C	0.684599	0.110254	0.631025
	C166	C	0.317776	0.892085	0.629256
	C167	C	0.315526	0.110444	0.375562
	C168	C	0.875583	0.391850	0.189378
	C169	C	0.128522	0.609988	0.192235
	C170	C	0.127873	0.393181	0.821186
	C171	C	0.875598	0.610804	0.822927
	C172	C	0.183188	0.877188	0.393844
	C173	C	0.185554	0.128079	0.613256
	C174	C	0.815510	0.128840	0.395937
	C175	C	0.816398	0.874829	0.612533
	C176	C	0.390920	0.185739	0.877895
	C177	C	0.608858	0.186997	0.131797
	C178	C	0.393224	0.814812	0.132513
	C179	C	0.608774	0.816710	0.877707
	C180	C	0.392213	0.874262	0.188756
	C181	C	0.609416	0.128023	0.188299
	C182	C	0.390793	0.127319	0.820652
	C183	C	0.608976	0.875271	0.820938
	C184	C	0.872517	0.187473	0.396568
	C185	C	0.126295	0.184409	0.614418
	C186	C	0.125984	0.818802	0.394354
	C187	C	0.875126	0.818099	0.612930
	C188	C	0.185464	0.393119	0.879580
	C189	C	0.185823	0.610463	0.133859
	C190	C	0.817556	0.391906	0.131758
	C191	C	0.817274	0.610277	0.880217
	C192	C	0.406099	0.092267	0.598793
	C193	C	0.595498	0.910909	0.599965
	C194	C	0.594191	0.091989	0.410090
	C195	C	0.405483	0.911382	0.409284
	C196	C	0.595416	0.406717	0.095761
	C197	C	0.595325	0.595138	0.914996
	C198	C	0.408132	0.594424	0.095247
	C199	C	0.405808	0.407556	0.915866
	C200	C	0.091236	0.596417	0.411007
	C201	C	0.909226	0.597731	0.600618
	C202	C	0.091233	0.406993	0.599536
	C203	C	0.909990	0.408004	0.411174
	C204	C	0.906123	0.591545	0.100248
	C205	C	0.094211	0.412522	0.099502
	C206	C	0.094865	0.592116	0.910732
	C207	C	0.905919	0.409852	0.909762
	C208	C	0.096993	0.906076	0.595264
	C209	C	0.094836	0.096278	0.414372
	C210	C	0.905685	0.096014	0.595001
	C211	C	0.906091	0.908158	0.413561
	C212	C	0.590619	0.097059	0.909843
	C213	C	0.410784	0.095500	0.097773
	C214	C	0.591251	0.906090	0.098920
	C215	C	0.409405	0.906652	0.910581
	Zn216	Zn	0.500147	0.001567	0.755108
	Zn217	Zn	0.501020	0.001522	0.253953
	Zn218	Zn	0.750970	0.500526	0.005281
	Zn219	Zn	0.250711	0.502410	0.006103
	Zn220	Zn	0.000825	0.751901	0.504196
	Zn221	Zn	0.000443	0.251894	0.505392
	Zn222	Zn	0.000799	0.501791	0.754811
	Zn223	Zn	0.000254	0.501697	0.255814
	Zn224	Zn	0.501627	0.750781	0.004314
	Zn225	Zn	0.500427	0.251419	0.004675
	Zn226	Zn	0.750153	0.001602	0.503939
	Zn227	Zn	0.250847	0.001710	0.503895
	N228	N	0.412953	0.966683	0.685139
	N229	N	0.588554	0.036163	0.686200
	N230	N	0.587948	0.966747	0.323387
	N231	N	0.411798	0.035790	0.321121
	N232	N	0.682446	0.412036	0.970719
	N233	N	0.681504	0.587674	0.040185
	N234	N	0.319130	0.590579	0.971592
	N235	N	0.318909	0.413491	0.040787
	N236	N	0.966399	0.683749	0.416062
	N237	N	0.035703	0.682167	0.592020
	N238	N	0.966336	0.320637	0.593405
	N239	N	0.033981	0.319209	0.416363
	N240	N	0.966445	0.413634	0.686710
	N241	N	0.034876	0.590459	0.686548
	N242	N	0.965946	0.589882	0.324228
	N243	N	0.035620	0.414426	0.325375
	N244	N	0.413671	0.681804	0.970400
	N245	N	0.591455	0.683920	0.038745
	N246	N	0.586676	0.321957	0.969608
	N247	N	0.411353	0.319338	0.040235
	N248	N	0.680903	0.966743	0.416562
	N249	N	0.682500	0.035798	0.593489
	N250	N	0.320680	0.966401	0.590973
	N251	N	0.318807	0.036845	0.414763
	N252	N	0.913439	0.466248	0.186561
	N253	N	0.089377	0.536334	0.188353
	N254	N	0.089612	0.467322	0.823511
	N255	N	0.913501	0.536408	0.825172
	N256	N	0.181269	0.914637	0.468469
	N257	N	0.183209	0.090915	0.538496
	N258	N	0.819120	0.089608	0.469709
	N259	N	0.819184	0.913572	0.538601
	N260	N	0.465307	0.183659	0.915874
	N261	N	0.534642	0.184204	0.093680
	N262	N	0.467359	0.817563	0.094325
	N263	N	0.534550	0.819479	0.916016
	N264	N	0.465605	0.913695	0.184705
	N265	N	0.535873	0.088800	0.184272
	N266	N	0.465159	0.089417	0.823681
	N267	N	0.534955	0.913682	0.824275
	N268	N	0.910883	0.184257	0.470682
	N269	N	0.087497	0.181546	0.540398
	N270	N	0.089280	0.820459	0.469326
	N271	N	0.913650	0.821683	0.538952
	N272	N	0.182229	0.467377	0.917591
	N273	N	0.181587	0.537284	0.094234
	N274	N	0.819945	0.466169	0.093757
	N275	N	0.819552	0.535375	0.917328
	O276	O	-0.010132	0.812341	0.215782
	H277	H	0.009992	0.810197	0.222937
	H278	H	0.000360	0.800917	0.212488
	O279	O	1.218129	0.221638	1.024054
	H280	H	1.204085	0.206471	1.076488
	H281	H	1.256935	0.258204	1.031165
	O282	O	0.474831	0.533806	0.615774
	H283	H	0.470127	0.538419	0.624547
	H284	H	0.469166	0.534865	0.606602
	O285	O	0.906006	0.828282	-0.077622
	H286	H	0.905738	0.832546	-0.087599
	H287	H	0.905401	0.834141	-0.060478
	O288	O	0.623682	0.544674	0.457176
	H289	H	0.615344	0.564567	0.454919
	H290	H	0.613783	0.539102	0.459447
	O291	O	0.577067	0.380727	0.663336
	H292	H	0.596028	0.392971	0.658690
	H293	H	0.576602	0.400683	0.649411
	O294	O	-0.161822	0.022282	1.028427
	H295	H	-0.165165	0.049287	1.037107
	H296	H	-0.167636	0.033126	1.044327
	O297	O	0.516205	0.285856	0.525339
	H298	H	0.526902	0.287605	0.528278
	H299	H	0.526599	0.301667	0.521746
	O300	O	0.280233	0.483457	0.726070
	H301	H	0.287821	0.438757	0.716922
	H302	H	0.248491	0.481687	0.758843
	O303	O	0.464394	0.461455	0.323111
	H304	H	0.469185	0.487461	0.326886
	H305	H	0.439515	0.476147	0.335624
	O306	O	0.678255	0.326948	0.327447
	H307	H	0.641320	0.312195	0.332586
	H308	H	0.673719	0.313285	0.364875
	O309	O	0.282986	0.709473	0.491186
	H310	H	0.266785	0.725353	0.472240
	H311	H	0.278776	0.709528	0.455878
	O312	O	-0.069135	0.943359	0.785035
	H313	H	-0.045988	0.936976	0.801097
	H314	H	-0.038268	0.946511	0.779635
	O315	O	0.436218	0.328986	0.396758
	H316	H	0.448476	0.339816	0.387602
	H317	H	0.451373	0.334621	0.401162
	O318	O	1.014638	-0.082851	-0.011330
	H319	H	0.998929	-0.074993	0.012637
	H320	H	0.990818	-0.086753	-0.012570
	O321	O	-0.052743	0.204801	0.059060
	H322	H	-0.060288	0.207230	0.090043
	H323	H	-0.081970	0.203907	0.055234
	O324	O	0.516327	0.288413	0.294630
	H325	H	0.515219	0.271946	0.258871
	H326	H	0.496451	0.324845	0.277972
	O327	O	0.514168	0.667998	0.287875
	H328	H	0.515313	0.674151	0.271192
	H329	H	0.533103	0.646897	0.287651
	O330	O	0.021650	0.788704	-0.211775
	H331	H	0.014185	0.768667	-0.227297
	H332	H	0.021423	0.774292	-0.201583
	O333	O	0.320222	0.452738	0.457686
	H334	H	0.322077	0.419153	0.479193
	H335	H	0.323908	0.470924	0.487355
	O336	O	0.209655	0.020943	0.213323
	H337	H	0.223862	-0.006460	0.167026
	H338	H	0.237942	0.020406	0.240745
	O339	O	0.051968	1.057388	0.780211
	H340	H	0.050016	1.081684	0.771884
	H341	H	0.068692	1.061511	0.804516
	O342	O	0.050810	0.780011	1.088598
	H343	H	0.058962	0.791280	1.086537
	H344	H	0.077542	0.776247	1.089810
	O345	O	0.918619	1.060851	0.198383
	H346	H	0.914193	1.036064	0.204082
	H347	H	0.908328	1.044024	0.201380
	O348	O	0.476646	0.704641	0.520903
	H349	H	0.446020	0.706101	0.502393
	H350	H	0.470781	0.703127	0.543718
	O351	O	-0.217184	1.024299	0.790207
	H352	H	-0.246127	1.024176	0.748457
	H353	H	-0.175464	0.998003	0.780260
	O354	O	-0.180877	0.827865	0.182304
	H355	H	-0.184620	0.815773	0.134771
	H356	H	-0.134526	0.813709	0.187321
	O357	O	-0.190115	0.193434	0.821266
	H358	H	-0.201647	0.144704	0.809019
	H359	H	-0.139203	0.201264	0.809301
	O360	O	0.525603	0.711505	0.372517
	H361	H	0.520901	0.700823	0.364232
	H362	H	0.514550	0.717019	0.354350
	O363	O	-0.020210	0.207244	0.799284
	H364	H	-0.005136	0.221325	0.803211
	H365	H	-0.003423	0.229175	0.808395
	O366	O	0.706422	0.453394	0.555316
	H367	H	0.705556	0.479445	0.571512
	H368	H	0.709011	0.478705	0.549751
	O369	O	0.398629	0.618708	0.668473
	H370	H	0.399369	0.602360	0.664035
	H371	H	0.385440	0.605808	0.654918
	O372	O	1.015615	0.205794	1.213888
	H373	H	0.997721	0.202533	1.228383
	H374	H	1.000080	0.193833	1.234082
	O375	O	0.477137	0.294707	0.714233
	H376	H	0.491977	0.289052	0.730915
	H377	H	0.494443	0.292657	0.714102
	O378	O	1.217218	0.786980	0.987815
	H379	H	1.213004	0.790372	0.949412
	H380	H	1.239430	0.766186	0.987959
	O381	O	0.718586	0.520943	0.723317
	H382	H	0.721048	0.560592	0.724701
	H383	H	0.734958	0.538319	0.746020
	O384	O	0.520635	0.711467	0.712968
	H385	H	0.512387	0.717646	0.735495
	H386	H	0.504386	0.704158	0.711479
	O387	O	0.181042	-0.176646	0.829448
	H388	H	0.145886	-0.184972	0.815799
	H389	H	0.192389	-0.133514	0.826766
	O390	O	0.223699	-0.056298	0.068907
	H391	H	0.216883	-0.033736	0.036541
	H392	H	0.215667	-0.087779	0.046319
	O393	O	0.782971	0.975850	0.947876
	H394	H	0.786999	0.998302	0.933171
	H395	H	0.778631	1.001790	0.950798
	O396	O	1.177934	0.181228	0.179696
	H397	H	1.150600	0.163983	0.191881
	H398	H	1.161486	0.155534	0.194764
	O399	O	1.198726	0.063909	0.949407
	H400	H	1.181535	0.077009	0.963205
	H401	H	1.188006	0.091347	0.960644
	O402	O	0.785983	0.984815	1.221462
	H403	H	0.754302	0.978760	1.254097
	H404	H	0.797094	0.931838	1.208398
	O405	O	1.707771	0.709445	-0.475860
	H406	H	1.722144	0.723525	-0.485706
	H407	H	1.683740	0.714937	-0.497947
	O408	O	0.796724	-0.198655	0.021051
	H409	H	0.778337	-0.204816	0.001549
	H410	H	0.775964	-0.172325	0.007571
	O411	O	1.061981	1.221378	-0.058025
	H412	H	1.085971	1.222522	-0.030846
	H413	H	1.054207	1.222083	-0.024163
	O414	O	0.643168	0.561062	0.371635
	H415	H	0.657214	0.549298	0.364237
	H416	H	0.639227	0.539465	0.378730
	O417	O	0.284020	0.288308	0.521440
	H418	H	0.260807	0.253577	0.529625
	H419	H	0.323099	0.274799	0.498733
	O420	O	-0.005887	-0.034462	0.011533
	H421	H	-0.016605	-0.049398	0.006272
	H422	H	-0.038222	-0.037044	0.008028
	O423	O	0.709602	0.288821	0.487077
	H424	H	0.732638	0.289847	0.500815
	H425	H	0.723413	0.302458	0.504964
	O426	O	0.507161	0.464898	0.598048
	H427	H	0.497002	0.455697	0.590865
	H428	H	0.523468	0.468066	0.598010
	O429	O	0.290669	0.521316	0.291333
	H430	H	0.247507	0.523348	0.262778
	H431	H	0.280457	0.494015	0.338304
	O432	O	0.715702	0.483316	0.287342
	H433	H	0.711377	0.444172	0.301221
	H434	H	0.741255	0.467232	0.260026
	O435	O	0.325834	0.680035	0.343004
	H436	H	0.315659	0.627697	0.329137
	H437	H	0.374065	0.689088	0.333082
	O438	O	0.031735	-0.031510	0.208291
	H439	H	0.040018	-0.048339	0.212220
	H440	H	0.043662	-0.027678	0.185938
	O441	O	0.786178	0.216772	-0.009050
	H442	H	0.791107	0.220715	-0.041286
	H443	H	0.766267	0.235734	-0.033603
	O444	O	0.206056	0.984541	0.800238
	H445	H	0.204869	0.994727	0.801910
	H446	H	0.222205	0.999970	0.812264
	O447	O	0.317277	0.328414	0.681336
	H448	H	0.370441	0.316173	0.691811
	H449	H	0.306182	0.323811	0.637936
	O450	O	0.679952	0.676973	0.683819
	H451	H	0.687495	0.689561	0.634457
	H452	H	0.632630	0.685219	0.687098
	O453	O	0.290807	0.523289	0.528768
	H454	H	0.287310	0.522342	0.555011
	H455	H	0.292830	0.538993	0.542020
