data_Molecule from HDF5

_cell_length_a		16.465612
_cell_length_b		16.453153
_cell_length_c		16.439230
_cell_angle_alpha	89.974831
_cell_angle_beta	89.935644
_cell_angle_gamma	90.132856
_symmetry_space_group_name_H-M	'P 1'
_symmetry_Int_Tables_number		1

loop_
	_symmetry_equiv_pos_as_xyz
	x,y,z

loop_
	_atom_site_label
	_atom_site_type_symbol
	_atom_site_fract_x
	_atom_site_fract_y
	_atom_site_fract_z
	H0	H	0.404734	0.845254	0.724071
	H1	H	0.624907	0.157466	0.724444
	H2	H	0.620701	0.845644	0.275793
	H3	H	0.405603	0.158315	0.275712
	H4	H	0.740059	0.391501	0.845021
	H5	H	0.734051	0.608297	0.157659
	H6	H	0.289213	0.608778	0.843719
	H7	H	0.289323	0.390182	0.156435
	H8	H	0.858320	0.725081	0.392586
	H9	H	0.171338	0.724304	0.608637
	H10	H	0.859165	0.273119	0.612138
	H11	H	0.170652	0.276600	0.390207
	H12	H	0.857476	0.391138	0.726173
	H13	H	0.169956	0.611486	0.726799
	H14	H	0.858061	0.610024	0.276544
	H15	H	0.169482	0.391838	0.274195
	H16	H	0.404397	0.724786	0.842901
	H17	H	0.623347	0.728664	0.154435
	H18	H	0.621954	0.279093	0.842408
	H19	H	0.405161	0.275395	0.155993
	H20	H	0.737862	0.844926	0.390185
	H21	H	0.744916	0.154143	0.614404
	H22	H	0.286689	0.845254	0.611138
	H23	H	0.290133	0.157869	0.391293
	H24	H	0.903225	0.345751	0.227242
	H25	H	0.121438	0.657692	0.223932
	H26	H	0.122084	0.343876	0.776090
	H27	H	0.902129	0.656177	0.774473
	H28	H	0.235405	0.893286	0.342349
	H29	H	0.240616	0.111538	0.655087
	H30	H	0.791205	0.107715	0.343420
	H31	H	0.787657	0.889267	0.655849
	H32	H	0.357490	0.226499	0.889142
	H33	H	0.671359	0.222781	0.105490
	H34	H	0.358001	0.775413	0.108497
	H35	H	0.668333	0.774179	0.886469
	H36	H	0.357339	0.891294	0.225106
	H37	H	0.670080	0.111001	0.224484
	H38	H	0.358221	0.111975	0.772434
	H39	H	0.669550	0.892320	0.773089
	H40	H	0.903945	0.226311	0.344535
	H41	H	0.126777	0.228624	0.655093
	H42	H	0.121719	0.776663	0.343919
	H43	H	0.905467	0.776339	0.657393
	H44	H	0.238359	0.344215	0.891475
	H45	H	0.239559	0.656453	0.110300
	H46	H	0.785317	0.346189	0.114222
	H47	H	0.789180	0.657074	0.892534
	H48	H	0.431757	0.110923	0.586473
	H49	H	0.596330	0.891394	0.586004
	H50	H	0.604031	0.114333	0.412942
	H51	H	0.428647	0.890896	0.413633
	H52	H	0.608716	0.416953	0.114459
	H53	H	0.604280	0.586815	0.886776
	H54	H	0.423580	0.586921	0.112812
	H55	H	0.426045	0.415593	0.888463
	H56	H	0.126914	0.587468	0.410131
	H57	H	0.899503	0.590818	0.593930
	H58	H	0.126886	0.406656	0.584591
	H59	H	0.904142	0.415466	0.417230
	H60	H	0.120422	0.421047	0.580693
	H61	H	0.902701	0.591451	0.583605
	H62	H	0.126947	0.590476	0.414086
	H63	H	0.902624	0.416018	0.412951
	H64	H	0.431028	0.584561	0.109806
	H65	H	0.599458	0.584394	0.889344
	H66	H	0.593043	0.417737	0.107395
	H67	H	0.428191	0.413245	0.888281
	H68	H	0.601130	0.114128	0.412880
	H69	H	0.601393	0.890969	0.581874
	H70	H	0.426004	0.111724	0.580201
	H71	H	0.420607	0.888344	0.414819
	H72	H	0.929059	0.609591	0.082565
	H73	H	0.101394	0.390545	0.081547
	H74	H	0.104186	0.615038	0.909989
	H75	H	0.926324	0.388787	0.914453
	H76	H	0.096384	0.904848	0.614703
	H77	H	0.097611	0.089608	0.388888
	H78	H	0.929993	0.081197	0.609963
	H79	H	0.922978	0.914386	0.387076
	H80	H	0.623912	0.089978	0.914994
	H81	H	0.400732	0.088512	0.088162
	H82	H	0.623816	0.917377	0.084797
	H83	H	0.402865	0.915038	0.914121
	H84	H	0.626372	0.915770	0.090029
	H85	H	0.402005	0.089187	0.086637
	H86	H	0.624644	0.085780	0.910628
	H87	H	0.403355	0.916515	0.913716
	H88	H	0.933445	0.087830	0.610120
	H89	H	0.103247	0.092036	0.385698
	H90	H	0.110822	0.913928	0.615808
	H91	H	0.929658	0.915087	0.390068
	H92	H	0.096426	0.611366	0.912794
	H93	H	0.104201	0.386464	0.089640
	H94	H	0.919036	0.615349	0.086743
	H95	H	0.928080	0.389861	0.915092
	H96	H	0.424204	0.114923	0.587856
	H97	H	0.602081	0.888528	0.588013
	H98	H	0.602406	0.113514	0.415359
	H99	H	0.424512	0.887193	0.407483
	H100	H	0.598661	0.403415	0.115814
	H101	H	0.599155	0.589771	0.886596
	H102	H	0.429530	0.592414	0.112777
	H103	H	0.425448	0.413036	0.887277
	H104	H	0.125767	0.585911	0.414503
	H105	H	0.904298	0.582531	0.589172
	H106	H	0.127095	0.418697	0.595666
	H107	H	0.902097	0.411795	0.414729
	H108	H	0.928896	0.614935	0.094158
	H109	H	0.095383	0.389819	0.088654
	H110	H	0.103512	0.611529	0.918614
	H111	H	0.926019	0.389994	0.916495
	H112	H	0.097445	0.920885	0.608228
	H113	H	0.102689	0.085472	0.387767
	H114	H	0.926726	0.087014	0.613690
	H115	H	0.927373	0.908971	0.386642
	H116	H	0.626855	0.091190	0.910014
	H117	H	0.401724	0.087100	0.086944
	H118	H	0.625925	0.911892	0.085432
	H119	H	0.402548	0.915449	0.912694
	C120	C	0.392101	0.009700	0.620423
	C121	C	0.636212	0.992611	0.621151
	C122	C	0.635469	0.010229	0.379224
	C123	C	0.391431	0.992498	0.377878
	C124	C	0.635126	0.379256	0.009011
	C125	C	0.634679	0.622349	0.990650
	C126	C	0.393172	0.621764	0.008354
	C127	C	0.392275	0.378879	0.991137
	C128	C	0.023086	0.621850	0.379605
	C129	C	1.005544	0.622487	0.623169
	C130	C	0.022368	0.379447	0.622407
	C131	C	1.005461	0.379652	0.379274
	C132	C	0.890811	0.510113	0.123099
	C133	C	0.134823	0.492108	0.121340
	C134	C	0.135420	0.509156	0.879532
	C135	C	0.892118	0.492539	0.880269
	C136	C	0.135082	0.879653	0.508978
	C137	C	0.136014	0.123526	0.490544
	C138	C	0.894080	0.120895	0.508731
	C139	C	0.892334	0.878481	0.491277
	C140	C	0.522354	0.123585	0.876689
	C141	C	0.505198	0.122196	0.120829
	C142	C	0.522330	0.880065	0.121176
	C143	C	0.505525	0.880646	0.878295
	C144	C	0.387105	0.892348	0.683786
	C145	C	0.641974	0.109950	0.683918
	C146	C	0.638501	0.892751	0.316686
	C147	C	0.387933	0.110637	0.315844
	C148	C	0.698745	0.374639	0.891794
	C149	C	0.695506	0.626683	0.109543
	C150	C	0.330242	0.626043	0.890799
	C151	C	0.329872	0.373401	0.109049
	C152	C	0.905521	0.684493	0.375166
	C153	C	0.123641	0.684395	0.626877
	C154	C	0.905702	0.315071	0.628782
	C155	C	0.123146	0.317235	0.373583
	C156	C	0.904975	0.374028	0.685537
	C157	C	0.123029	0.627689	0.685814
	C158	C	0.905454	0.626999	0.317170
	C159	C	0.122457	0.374595	0.315375
	C160	C	0.387626	0.684200	0.890291
	C161	C	0.640062	0.686504	0.107845
	C162	C	0.639599	0.318563	0.890352
	C163	C	0.387592	0.316074	0.108812
	C164	C	0.697045	0.892247	0.373764
	C165	C	0.702119	0.108218	0.628886
	C166	C	0.328397	0.892573	0.627095
	C167	C	0.330164	0.110565	0.373508
	C168	C	0.885849	0.392983	0.186405
	C169	C	0.139017	0.610358	0.183384
	C170	C	0.139559	0.391374	0.816984
	C171	C	0.886519	0.609418	0.816533
	C172	C	0.196006	0.875740	0.390350
	C173	C	0.199565	0.128416	0.608052
	C174	C	0.831001	0.126025	0.391153
	C175	C	0.828861	0.872909	0.608859
	C176	C	0.404903	0.185956	0.872042
	C177	C	0.623753	0.183425	0.124058
	C178	C	0.404729	0.816906	0.125789
	C179	C	0.621796	0.816235	0.870861
	C180	C	0.404692	0.874646	0.184022
	C181	C	0.623064	0.127159	0.183124
	C182	C	0.405298	0.128584	0.813763
	C183	C	0.622388	0.875049	0.814004
	C184	C	0.887693	0.184905	0.391455
	C185	C	0.142795	0.187159	0.608054
	C186	C	0.139031	0.817675	0.390929
	C187	C	0.887858	0.816553	0.609592
	C188	C	0.197508	0.391235	0.874606
	C189	C	0.197934	0.609604	0.126877
	C190	C	0.827050	0.393156	0.129692
	C191	C	0.829662	0.609984	0.875170
	C192	C	0.419435	0.091239	0.592781
	C193	C	0.607918	0.911373	0.593276
	C194	C	0.609850	0.092522	0.406105
	C195	C	0.417310	0.910435	0.404341
	C196	C	0.607924	0.405361	0.091125
	C197	C	0.608415	0.594993	0.908931
	C198	C	0.420264	0.595493	0.090370
	C199	C	0.419051	0.406130	0.909263
	C200	C	0.105115	0.595362	0.405579
	C201	C	0.923661	0.596072	0.596595
	C202	C	0.103663	0.407256	0.594862
	C203	C	0.924097	0.406551	0.407122
	C204	C	0.917860	0.591903	0.095673
	C205	C	0.107880	0.410438	0.094336
	C206	C	0.109129	0.591153	0.906187
	C207	C	0.919052	0.410820	0.907616
	C208	C	0.109230	0.905749	0.591363
	C209	C	0.108850	0.096629	0.408986
	C210	C	0.921830	0.093358	0.590017
	C211	C	0.919067	0.905163	0.409451
	C212	C	0.604079	0.096758	0.903986
	C213	C	0.422981	0.095840	0.094782
	C214	C	0.603873	0.907233	0.094459
	C215	C	0.424105	0.908042	0.905905
	Zn216	Zn	0.513845	0.001485	0.748825
	Zn217	Zn	0.513830	0.001969	0.250330
	Zn218	Zn	0.762944	0.501055	0.000944
	Zn219	Zn	0.264321	0.500488	0.001003
	Zn220	Zn	0.014676	0.750707	0.500845
	Zn221	Zn	0.013927	0.250750	0.500671
	Zn222	Zn	0.013849	0.501052	0.751774
	Zn223	Zn	0.014047	0.501247	0.250346
	Zn224	Zn	0.513553	0.751390	-0.000943
	Zn225	Zn	0.513940	0.251059	-0.000452
	Zn226	Zn	0.764258	0.000616	0.500181
	Zn227	Zn	0.263501	0.001025	0.499169
	N228	N	0.425880	0.966368	0.679829
	N229	N	0.601499	0.036939	0.679118
	N230	N	0.600941	0.967131	0.320094
	N231	N	0.425370	0.036146	0.318537
	N232	N	0.696320	0.411365	0.966847
	N233	N	0.692394	0.587524	0.035772
	N234	N	0.333313	0.588120	0.965242
	N235	N	0.332671	0.411812	0.034756
	N236	N	0.979605	0.681318	0.413581
	N237	N	0.049402	0.681496	0.588914
	N238	N	0.979799	0.318173	0.590279
	N239	N	0.049173	0.319973	0.412364
	N240	N	0.978593	0.413429	0.681787
	N241	N	0.048285	0.590189	0.684088
	N242	N	0.979490	0.588931	0.319827
	N243	N	0.048249	0.412581	0.318529
	N244	N	0.426012	0.681706	0.964411
	N245	N	0.603528	0.684477	0.032793
	N246	N	0.600967	0.321093	0.964429
	N247	N	0.425432	0.319033	0.034421
	N248	N	0.695240	0.966540	0.412077
	N249	N	0.698578	0.034071	0.590536
	N250	N	0.331234	0.966678	0.588502
	N251	N	0.332050	0.036075	0.411233
	N252	N	0.924864	0.466794	0.182414
	N253	N	0.100429	0.536259	0.180077
	N254	N	0.101636	0.465647	0.819959
	N255	N	0.924601	0.535256	0.819534
	N256	N	0.193813	0.913614	0.464841
	N257	N	0.195654	0.089730	0.534048
	N258	N	0.834833	0.087110	0.465004
	N259	N	0.831468	0.910868	0.534291
	N260	N	0.479029	0.183169	0.910442
	N261	N	0.549522	0.180554	0.085954
	N262	N	0.478781	0.820036	0.087394
	N263	N	0.548024	0.819543	0.910119
	N264	N	0.478823	0.913254	0.181366
	N265	N	0.548122	0.090165	0.181476
	N266	N	0.479476	0.090693	0.816531
	N267	N	0.549038	0.914387	0.818366
	N268	N	0.925983	0.182058	0.465787
	N269	N	0.104269	0.184501	0.533918
	N270	N	0.102022	0.819830	0.465824
	N271	N	0.926569	0.819793	0.535563
	N272	N	0.195084	0.465614	0.912776
	N273	N	0.195577	0.535070	0.089181
	N274	N	0.830023	0.467157	0.091015
	N275	N	0.833198	0.536270	0.914354
	O276	O	0.001381	0.793931	0.211000
	H277	H	-0.028779	0.799542	0.215853
	H278	H	-0.020541	0.776025	0.220873
	O279	O	0.838351	-0.186932	1.184665
	H280	H	0.825935	-0.133604	1.193324
	H281	H	0.827066	-0.197994	1.131055
	O282	O	0.557088	0.532334	0.350579
	H283	H	0.534418	0.522081	0.353340
	H284	H	0.557791	0.546861	0.363148
	O285	O	0.692833	1.322597	0.330938
	H286	H	0.648249	1.313938	0.323463
	H287	H	0.705301	1.375584	0.316774
	O288	O	0.328444	0.556687	0.665932
	H289	H	0.337506	0.533694	0.645135
	H290	H	0.305754	0.551888	0.678141
	O291	O	0.299777	0.286831	0.524465
	H292	H	0.294167	0.308123	0.501700
	H293	H	0.269717	0.265804	0.515802
	O294	O	0.145893	-0.115192	1.072309
	H295	H	0.145684	-0.117764	1.077443
	H296	H	0.147123	-0.125864	1.080047
	O297	O	0.452632	0.288694	0.441410
	H298	H	0.454594	0.308806	0.464445
	H299	H	0.444210	0.287674	0.468830
	O300	O	0.459393	0.488067	0.533371
	H301	H	0.451880	0.504653	0.527591
	H302	H	0.494117	0.482171	0.527536
	O303	O	0.061728	0.213147	0.950272
	H304	H	0.074341	0.213826	0.926684
	H305	H	0.071205	0.210467	0.929090
	O306	O	0.731156	0.282735	0.486938
	H307	H	0.755772	0.249852	0.486080
	H308	H	0.723183	0.290159	0.438651
	O309	O	0.336502	0.325303	0.684047
	H310	H	0.325703	0.329859	0.646098
	H311	H	0.362372	0.322914	0.677155
	O312	O	0.232068	0.992707	0.800223
	H313	H	0.207503	1.014379	0.804053
	H314	H	0.267653	0.992346	0.765138
	O315	O	0.444848	0.437346	0.293897
	H316	H	0.423936	0.431741	0.291642
	H317	H	0.455740	0.417486	0.302296
	O318	O	1.012862	0.013093	0.001992
	H319	H	1.025645	0.016191	-0.008318
	H320	H	1.005806	0.008750	0.012490
	O321	O	-0.059996	0.224457	0.064480
	H322	H	-0.030920	0.224022	0.077837
	H323	H	-0.028732	0.222209	0.062566
	O324	O	0.723174	0.518805	0.710731
	H325	H	0.731217	0.505914	0.723794
	H326	H	0.739120	0.499258	0.693334
	O327	O	0.535176	0.291316	0.289566
	H328	H	0.523687	0.265501	0.287739
	H329	H	0.523558	0.278380	0.303559
	O330	O	-0.197202	0.787269	0.022348
	H331	H	-0.207240	0.830585	-0.002060
	H332	H	-0.233979	0.763252	0.018185
	O333	O	0.298371	0.716533	0.480109
	H334	H	0.285721	0.720337	0.490653
	H335	H	0.298169	0.729865	0.468206
	O336	O	0.212577	0.008537	0.213019
	H337	H	0.206524	-0.010129	0.190170
	H338	H	0.236203	0.009289	0.240465
	O339	O	-0.190823	1.058345	1.057748
	H340	H	-0.182981	1.089774	1.048245
	H341	H	-0.183841	1.064618	1.071463
	O342	O	-0.011394	0.867687	0.960254
	H343	H	-0.026234	0.857206	0.985517
	H344	H	0.004356	0.877693	0.979670
	O345	O	1.053200	0.970333	0.202708
	H346	H	1.053648	0.957521	0.199960
	H347	H	1.057086	0.961269	0.196649
	O348	O	0.572294	0.283035	0.558787
	H349	H	0.566707	0.305095	0.565979
	H350	H	0.608032	0.275265	0.555067
	O351	O	-0.197603	0.973012	1.210468
	H352	H	-0.193897	0.997957	1.204283
	H353	H	-0.210635	0.984880	1.231388
	O354	O	-0.270502	0.481054	0.291485
	H355	H	-0.250280	0.494562	0.286795
	H356	H	-0.276724	0.495505	0.274925
	O357	O	-0.456590	0.712219	0.465489
	H358	H	-0.445202	0.705838	0.482225
	H359	H	-0.448375	0.706682	0.458967
	O360	O	0.730576	0.719148	0.519206
	H361	H	0.716757	0.705484	0.572718
	H362	H	0.768416	0.758434	0.524707
	O363	O	0.227671	0.211671	1.016827
	H364	H	0.252690	0.238015	1.024907
	H365	H	0.232176	0.189368	0.994942
	O366	O	0.730538	0.440492	0.560193
	H367	H	0.732833	0.450597	0.542436
	H368	H	0.729277	0.406645	0.542540
	O369	O	0.301728	0.520213	0.287702
	H370	H	0.326273	0.545966	0.293217
	H371	H	0.267918	0.526257	0.254558
	O372	O	0.798790	0.017340	0.790474
	H373	H	0.832084	-0.005719	0.776594
	H374	H	0.784849	0.013269	0.757947
	O375	O	0.531200	0.705273	0.698840
	H376	H	0.504476	0.691532	0.695039
	H377	H	0.522617	0.718731	0.710739
	O378	O	1.035158	0.788809	0.784508
	H379	H	1.022179	0.765403	0.792594
	H380	H	1.029631	0.761156	0.789953
	O381	O	0.496865	0.287321	0.712688
	H382	H	0.483082	0.280725	0.700408
	H383	H	0.501483	0.263075	0.729733
	O384	O	0.554138	0.454936	0.717770
	H385	H	0.569701	0.447104	0.718520
	H386	H	0.534610	0.442900	0.719746
	O387	O	0.225571	-0.208033	0.972950
	H388	H	0.243884	-0.238269	0.974124
	H389	H	0.218427	-0.195322	0.924513
	O390	O	0.076864	0.055158	-0.227827
	H391	H	0.075540	0.052031	-0.219650
	H392	H	0.055274	0.080733	-0.227494
	O393	O	1.185005	1.178902	1.176573
	H394	H	1.196643	1.138179	1.177835
	H395	H	1.185660	1.185519	1.146877
	O396	O	1.029416	0.218759	0.212787
	H397	H	1.061405	0.207433	0.208615
	H398	H	1.034256	0.242049	0.241695
	O399	O	0.788798	-0.064408	0.949027
	H400	H	0.786812	-0.026388	0.971509
	H401	H	0.797101	-0.046206	0.912699
	O402	O	0.943805	1.059558	1.184246
	H403	H	0.965155	1.081497	1.186823
	H404	H	0.956548	1.046003	1.169468
	O405	O	1.581685	0.648935	-0.620788
	H406	H	1.589775	0.635500	-0.615381
	H407	H	1.587119	0.649560	-0.594669
	O408	O	0.949759	-0.055603	-0.213128
	H409	H	0.971022	-0.078337	-0.204709
	H410	H	0.969627	-0.060985	-0.196276
	O411	O	0.797972	1.218024	-0.020650
	H412	H	0.799157	1.246814	-0.008672
	H413	H	0.810814	1.238455	-0.003500
	O414	O	0.033369	0.780108	1.002186
	H415	H	0.028594	0.783940	1.038906
	H416	H	0.051555	0.773798	1.017116
	O417	O	0.495648	0.708714	0.292981
	H418	H	0.519337	0.700255	0.313632
	H419	H	0.508179	0.733104	0.272047
	O420	O	0.151404	-0.033734	0.023823
	H421	H	0.125595	-0.046698	0.033507
	H422	H	0.150782	-0.036829	0.008406
	O423	O	0.317390	0.437024	0.441370
	H424	H	0.328329	0.460556	0.428290
	H425	H	0.319981	0.465809	0.434215
	O426	O	0.691568	0.680008	0.673755
	H427	H	0.637938	0.689746	0.685057
	H428	H	0.701285	0.626597	0.688045
	O429	O	0.500513	0.533183	0.549510
	H430	H	0.508515	0.541953	0.541885
	H431	H	0.493295	0.525883	0.551672
	O432	O	0.235687	0.050105	-0.046380
	H433	H	0.243003	0.026895	-0.048769
	H434	H	0.218466	0.053739	-0.046403
	O435	O	0.336155	0.676979	0.322516
	H436	H	0.329988	0.676408	0.350631
	H437	H	0.382949	0.689379	0.309088
	O438	O	-0.001744	0.216627	-0.218354
	H439	H	-0.043843	0.216832	-0.218386
	H440	H	-0.018268	0.234973	-0.241547
	O441	O	0.841747	0.177894	-0.179645
	H442	H	0.827216	0.126000	-0.186652
	H443	H	0.825632	0.189677	-0.128092
	O444	O	0.197677	0.841617	0.825393
	H445	H	0.186306	0.866108	0.809261
	H446	H	0.168251	0.857759	0.811344
	O447	O	0.384331	0.538469	0.704173
	H448	H	0.398373	0.524524	0.702645
	H449	H	0.351800	0.529338	0.707330
	O450	O	0.410657	0.627431	0.523721
	H451	H	0.429398	0.626352	0.528829
	H452	H	0.422518	0.627620	0.520527
	O453	O	0.735061	0.558810	0.444720
	H454	H	0.728028	0.552109	0.440537
	H455	H	0.737650	0.598202	0.452294
