data_Molecule from HDF5

_cell_length_a		16.378706
_cell_length_b		16.344750
_cell_length_c		16.159690
_cell_angle_alpha	89.789534
_cell_angle_beta	89.796075
_cell_angle_gamma	89.838812
_symmetry_space_group_name_H-M	'P 1'
_symmetry_Int_Tables_number		1

loop_
	_symmetry_equiv_pos_as_xyz
	x,y,z

loop_
	_atom_site_label
	_atom_site_type_symbol
	_atom_site_fract_x
	_atom_site_fract_y
	_atom_site_fract_z
	H0	H	0.399420	0.838616	0.717397
	H1	H	0.596690	0.164203	0.713743
	H2	H	0.597679	0.838174	0.284241
	H3	H	0.400369	0.165036	0.286327
	H4	H	0.714280	0.399701	0.839316
	H5	H	0.710235	0.601620	0.166120
	H6	H	0.279720	0.603198	0.837767
	H7	H	0.279529	0.400815	0.165327
	H8	H	0.834849	0.719974	0.400272
	H9	H	0.157842	0.716618	0.603479
	H10	H	0.835741	0.280155	0.606356
	H11	H	0.157944	0.284255	0.400023
	H12	H	0.834527	0.398998	0.719385
	H13	H	0.159245	0.595811	0.714351
	H14	H	0.832831	0.600207	0.287864
	H15	H	0.158097	0.401227	0.284437
	H16	H	0.395793	0.717401	0.837294
	H17	H	0.593049	0.716099	0.166680
	H18	H	0.596699	0.288229	0.836797
	H19	H	0.395416	0.284959	0.164246
	H20	H	0.716242	0.838684	0.397451
	H21	H	0.715450	0.161905	0.600630
	H22	H	0.279414	0.839298	0.604416
	H23	H	0.278008	0.162129	0.395622
	H24	H	0.896439	0.337840	0.218333
	H25	H	0.090961	0.665043	0.214784
	H26	H	0.096459	0.338743	0.787097
	H27	H	0.896706	0.664018	0.785576
	H28	H	0.214014	0.899495	0.336151
	H29	H	0.213200	0.100210	0.663054
	H30	H	0.783302	0.101412	0.335721
	H31	H	0.780025	0.897371	0.663104
	H32	H	0.335067	0.220113	0.898220
	H33	H	0.657365	0.220232	0.101803
	H34	H	0.334058	0.786055	0.104006
	H35	H	0.657547	0.782951	0.898405
	H36	H	0.334100	0.904372	0.217193
	H37	H	0.659787	0.099838	0.213373
	H38	H	0.333951	0.102413	0.784072
	H39	H	0.659704	0.903651	0.786325
	H40	H	0.896666	0.218261	0.337409
	H41	H	0.098708	0.215320	0.664086
	H42	H	0.098844	0.783899	0.336785
	H43	H	0.898868	0.787288	0.665230
	H44	H	0.214510	0.340844	0.899509
	H45	H	0.211260	0.663771	0.102857
	H46	H	0.776901	0.339505	0.106211
	H47	H	0.778682	0.663487	0.900002
	H48	H	0.397234	0.117641	0.588951
	H49	H	0.593984	0.883078	0.596662
	H50	H	0.590021	0.115282	0.409340
	H51	H	0.403451	0.881363	0.395587
	H52	H	0.597477	0.413381	0.120802
	H53	H	0.578755	0.600935	0.885339
	H54	H	0.401427	0.603540	0.121665
	H55	H	0.402690	0.408605	0.883089
	H56	H	0.111430	0.592472	0.408785
	H57	H	0.878255	0.599384	0.594612
	H58	H	0.112823	0.403385	0.593779
	H59	H	0.881680	0.408423	0.415076
	H60	H	0.109145	0.408092	0.589730
	H61	H	0.883032	0.593667	0.588734
	H62	H	0.111491	0.593135	0.408726
	H63	H	0.882212	0.411627	0.411351
	H64	H	0.393824	0.588091	0.119495
	H65	H	0.598060	0.595408	0.881820
	H66	H	0.576977	0.419087	0.112634
	H67	H	0.400937	0.415445	0.885017
	H68	H	0.594821	0.116946	0.407872
	H69	H	0.584354	0.886192	0.595131
	H70	H	0.406352	0.117549	0.596942
	H71	H	0.419498	0.891651	0.414299
	H72	H	0.893438	0.617997	0.090959
	H73	H	0.085316	0.386994	0.092358
	H74	H	0.083968	0.617510	0.903485
	H75	H	0.896506	0.384677	0.914956
	H76	H	0.091063	0.912901	0.616164
	H77	H	0.089939	0.093721	0.382155
	H78	H	0.915003	0.093616	0.614634
	H79	H	0.907690	0.916273	0.385853
	H80	H	0.611796	0.097150	0.908288
	H81	H	0.376287	0.108052	0.095062
	H82	H	0.615253	0.903937	0.098989
	H83	H	0.384112	0.914540	0.914209
	H84	H	0.609938	0.902938	0.082959
	H85	H	0.385743	0.091165	0.080195
	H86	H	0.612038	0.094791	0.907457
	H87	H	0.379818	0.912556	0.901776
	H88	H	0.897858	0.095414	0.620818
	H89	H	0.087723	0.089002	0.384005
	H90	H	0.084954	0.907576	0.616828
	H91	H	0.912476	0.904542	0.382881
	H92	H	0.085609	0.614919	0.913086
	H93	H	0.089610	0.386066	0.090804
	H94	H	0.903132	0.618107	0.101662
	H95	H	0.905179	0.385609	0.904530
	H96	H	0.407834	0.113621	0.585613
	H97	H	0.591801	0.886763	0.587009
	H98	H	0.590793	0.117168	0.403918
	H99	H	0.394829	0.885213	0.420045
	H100	H	0.580827	0.398232	0.120202
	H101	H	0.585049	0.581743	0.889863
	H102	H	0.410393	0.590218	0.114971
	H103	H	0.407844	0.412405	0.885721
	H104	H	0.111042	0.592861	0.408146
	H105	H	0.879953	0.590808	0.597392
	H106	H	0.111293	0.409474	0.596338
	H107	H	0.880566	0.407359	0.410406
	H108	H	0.907098	0.612579	0.088028
	H109	H	0.088927	0.385621	0.094932
	H110	H	0.093454	0.619670	0.907968
	H111	H	0.909340	0.388949	0.916740
	H112	H	0.092544	0.904765	0.618496
	H113	H	0.084556	0.093554	0.383963
	H114	H	0.903221	0.079006	0.614001
	H115	H	0.900228	0.906659	0.380394
	H116	H	0.612442	0.096243	0.906484
	H117	H	0.380397	0.085289	0.103998
	H118	H	0.609041	0.917785	0.091222
	H119	H	0.379633	0.902886	0.911010
	C120	C	0.374991	0.009079	0.621650
	C121	C	0.619291	0.992425	0.621801
	C122	C	0.620329	0.009025	0.377847
	C123	C	0.376447	0.993227	0.379350
	C124	C	0.616298	0.380548	0.009927
	C125	C	0.616160	0.622480	0.993821
	C126	C	0.373583	0.623349	0.010072
	C127	C	0.373967	0.381142	0.992413
	C128	C	0.004400	0.622853	0.379768
	C129	C	0.987871	0.622348	0.622873
	C130	C	0.004636	0.376856	0.624316
	C131	C	0.987840	0.379260	0.380593
	C132	C	0.872255	0.509328	0.124510
	C133	C	0.116191	0.493423	0.122570
	C134	C	0.117629	0.510126	0.879224
	C135	C	0.874033	0.493212	0.881191
	C136	C	0.119386	0.878655	0.508765
	C137	C	0.117399	0.121082	0.491664
	C138	C	0.875952	0.120797	0.508696
	C139	C	0.877123	0.879513	0.491586
	C140	C	0.504636	0.124840	0.877838
	C141	C	0.488460	0.123642	0.121671
	C142	C	0.504494	0.879646	0.122215
	C143	C	0.488108	0.879999	0.879186
	C144	C	0.378241	0.887079	0.678847
	C145	C	0.616819	0.115180	0.676340
	C146	C	0.617931	0.886616	0.322314
	C147	C	0.378890	0.115806	0.323263
	C148	C	0.674604	0.381104	0.887483
	C149	C	0.672131	0.621430	0.117171
	C150	C	0.317856	0.622669	0.886694
	C151	C	0.317685	0.381265	0.116046
	C152	C	0.882891	0.680640	0.380998
	C153	C	0.109506	0.677848	0.622289
	C154	C	0.883773	0.319403	0.624958
	C155	C	0.109594	0.322858	0.380543
	C156	C	0.883063	0.378695	0.681219
	C157	C	0.110218	0.617909	0.677749
	C158	C	0.881859	0.621395	0.324810
	C159	C	0.109721	0.381167	0.323141
	C160	C	0.375447	0.679641	0.886591
	C161	C	0.613941	0.678490	0.117276
	C162	C	0.616369	0.325411	0.886260
	C163	C	0.375430	0.323795	0.115536
	C164	C	0.676877	0.886841	0.378604
	C165	C	0.676116	0.113930	0.620191
	C166	C	0.318861	0.887377	0.622322
	C167	C	0.318019	0.114259	0.377683
	C168	C	0.875412	0.386805	0.180833
	C169	C	0.112770	0.616027	0.177938
	C170	C	0.116593	0.387798	0.824186
	C171	C	0.876030	0.615331	0.823888
	C172	C	0.176190	0.879325	0.385565
	C173	C	0.174264	0.119621	0.614493
	C174	C	0.820565	0.121056	0.385199
	C175	C	0.819254	0.879216	0.614342
	C176	C	0.383212	0.181139	0.878861
	C177	C	0.609562	0.180557	0.120426
	C178	C	0.382466	0.824402	0.122706
	C179	C	0.609473	0.822301	0.879757
	C180	C	0.382549	0.882929	0.179341
	C181	C	0.610845	0.120833	0.176279
	C182	C	0.382618	0.122458	0.822137
	C183	C	0.610749	0.882378	0.823864
	C184	C	0.876697	0.179553	0.386117
	C185	C	0.117028	0.176747	0.615055
	C186	C	0.118855	0.821791	0.385922
	C187	C	0.878468	0.824567	0.615740
	C188	C	0.175511	0.388900	0.880181
	C189	C	0.172286	0.615511	0.122264
	C190	C	0.815836	0.387687	0.125041
	C191	C	0.817196	0.615094	0.880916
	C192	C	0.397215	0.093983	0.597634
	C193	C	0.596690	0.907312	0.599487
	C194	C	0.598380	0.094407	0.400433
	C195	C	0.399253	0.908000	0.403074
	C196	C	0.592122	0.403503	0.095614
	C197	C	0.593822	0.599400	0.907913
	C198	C	0.395548	0.600418	0.096140
	C199	C	0.397064	0.405012	0.906791
	C200	C	0.089306	0.599670	0.402097
	C201	C	0.902475	0.600895	0.600132
	C202	C	0.089219	0.400150	0.600428
	C203	C	0.903356	0.402342	0.405178
	C204	C	0.894673	0.594277	0.100763
	C205	C	0.094513	0.408429	0.099395
	C206	C	0.094423	0.595466	0.901759
	C207	C	0.896928	0.408392	0.905056
	C208	C	0.096364	0.901694	0.594818
	C209	C	0.094150	0.098588	0.405773
	C210	C	0.898738	0.096582	0.594354
	C211	C	0.900151	0.902503	0.405420
	C212	C	0.589938	0.102542	0.900599
	C213	C	0.402896	0.101385	0.099475
	C214	C	0.589442	0.901826	0.098077
	C215	C	0.403290	0.903163	0.902328
	Zn216	Zn	0.497137	0.002124	0.750294
	Zn217	Zn	0.497775	0.001538	0.250626
	Zn218	Zn	0.744167	0.500713	0.002213
	Zn219	Zn	0.245532	0.502503	0.001484
	Zn220	Zn	-0.002607	0.751411	0.501088
	Zn221	Zn	-0.003595	0.249211	0.501415
	Zn222	Zn	-0.004488	0.500471	0.751624
	Zn223	Zn	-0.004754	0.500751	0.251470
	Zn224	Zn	0.494832	0.750748	0.001726
	Zn225	Zn	0.495971	0.253177	0.000255
	Zn226	Zn	0.748526	-0.000381	0.499590
	Zn227	Zn	0.246086	0.000734	0.499444
	N228	N	0.412518	0.963758	0.678491
	N229	N	0.582180	0.038594	0.677449
	N230	N	0.583537	0.963559	0.321644
	N231	N	0.414551	0.039568	0.324286
	N232	N	0.674721	0.414483	0.965392
	N233	N	0.673477	0.587205	0.039453
	N234	N	0.316500	0.588259	0.964486
	N235	N	0.316680	0.416396	0.038549
	N236	N	0.960124	0.681644	0.414466
	N237	N	0.032379	0.680732	0.589076
	N238	N	0.960532	0.318167	0.590395
	N239	N	0.032885	0.321566	0.415432
	N240	N	0.959289	0.413598	0.681153
	N241	N	0.033453	0.583903	0.678158
	N242	N	0.958229	0.586187	0.323856
	N243	N	0.032943	0.415594	0.323179
	N244	N	0.409189	0.680314	0.964333
	N245	N	0.579917	0.679406	0.039561
	N246	N	0.580664	0.324984	0.963489
	N247	N	0.409437	0.323466	0.037593
	N248	N	0.678403	0.963858	0.412395
	N249	N	0.677897	0.036607	0.587075
	N250	N	0.316685	0.964372	0.587468
	N251	N	0.316715	0.037124	0.412154
	N252	N	0.909537	0.463484	0.180813
	N253	N	0.078697	0.539184	0.178167
	N254	N	0.081272	0.464160	0.823557
	N255	N	0.910612	0.538523	0.823783
	N256	N	0.176680	0.913970	0.463087
	N257	N	0.174625	0.085950	0.536783
	N258	N	0.819826	0.085306	0.462493
	N259	N	0.818237	0.912892	0.536063
	N260	N	0.460071	0.182558	0.912713
	N261	N	0.532323	0.182216	0.087328
	N262	N	0.459067	0.822486	0.087806
	N263	N	0.532097	0.820731	0.913323
	N264	N	0.459482	0.916495	0.179314
	N265	N	0.534420	0.086070	0.177079
	N266	N	0.459576	0.088526	0.821086
	N267	N	0.534394	0.917468	0.823227
	N268	N	0.910563	0.179235	0.463870
	N269	N	0.082069	0.177639	0.537539
	N270	N	0.084299	0.821335	0.463524
	N271	N	0.913541	0.824362	0.538394
	N272	N	0.176354	0.466075	0.913695
	N273	N	0.174837	0.538304	0.088641
	N274	N	0.813796	0.464802	0.090680
	N275	N	0.815769	0.538134	0.915612
	O276	O	1.057259	-0.115401	0.879163
	H277	H	1.054058	-0.111208	0.870033
	H278	H	1.049468	-0.105531	0.878250
	O279	O	0.467676	0.616208	0.553793
	H280	H	0.470501	0.607690	0.546712
	H281	H	0.468733	0.617695	0.563382
	O282	O	0.573357	0.524532	0.391698
	H283	H	0.575022	0.521639	0.385440
	H284	H	0.573440	0.525633	0.393947
	O285	O	0.390487	0.506120	0.535012
	H286	H	0.398597	0.518037	0.534747
	H287	H	0.384456	0.511009	0.527184
	O288	O	0.562192	0.539526	0.395727
	H289	H	0.571823	0.542485	0.377061
	H290	H	0.552812	0.533442	0.393823
	O291	O	0.115437	-0.000715	1.048344
	H292	H	0.117789	-0.016032	1.054285
	H293	H	0.107260	0.004921	1.047917
	O294	O	0.987697	0.926686	-0.040071
	H295	H	0.992130	0.924012	-0.035869
	H296	H	0.975022	0.935950	-0.044357
	O297	O	1.040478	1.017393	0.005678
	H298	H	1.031667	1.014193	0.009535
	H299	H	1.050641	1.016444	0.008454
	O300	O	0.459051	0.561541	0.430662
	H301	H	0.476071	0.560761	0.435578
	H302	H	0.461226	0.564972	0.432342
	O303	O	0.496382	0.428472	0.508993
	H304	H	0.498703	0.416413	0.511251
	H305	H	0.490799	0.435670	0.510284
	O306	O	0.605754	0.584921	0.566314
	H307	H	0.615364	0.580990	0.561865
	H308	H	0.591373	0.586166	0.563185
	O309	O	0.542148	0.516927	0.502156
	H310	H	0.537634	0.528659	0.512940
	H311	H	0.539489	0.519919	0.517410
	O312	O	0.991997	1.118478	1.055795
	H313	H	0.991348	1.131291	1.051300
	H314	H	0.993237	1.122756	1.061558
	O315	O	1.015515	1.035669	-0.110296
	H316	H	1.007088	1.038615	-0.122758
	H317	H	1.019106	1.030550	-0.117252
	O318	O	0.550914	0.454002	0.474508
	H319	H	0.547318	0.445494	0.471796
	H320	H	0.556269	0.462201	0.474058
	O321	O	0.572728	0.524068	0.492477
	H322	H	0.570982	0.518337	0.490740
	H323	H	0.580091	0.518877	0.495690
	O324	O	0.104117	1.111056	0.961879
	H325	H	0.098233	1.119788	0.978178
	H326	H	0.122975	1.103538	0.966100
	O327	O	-0.027649	0.970300	0.937229
	H328	H	-0.020934	0.975328	0.934045
	H329	H	-0.023466	0.961621	0.939290
	O330	O	0.062553	-0.024255	0.155924
	H331	H	0.064673	-0.027053	0.153931
	H332	H	0.061966	-0.034889	0.165379
	O333	O	0.431394	0.500549	0.462831
	H334	H	0.425928	0.496252	0.470509
	H335	H	0.432130	0.510072	0.468031
	O336	O	-0.086695	0.046264	-0.069313
	H337	H	-0.086670	0.055578	-0.058319
	H338	H	-0.097108	0.043927	-0.072874
	O339	O	0.097411	-0.048580	0.008728
	H340	H	0.102874	-0.043335	0.003791
	H341	H	0.089297	-0.059298	0.003414
	O342	O	0.508034	0.473635	0.424910
	H343	H	0.498481	0.470571	0.435074
	H344	H	0.515854	0.479303	0.429337
	O345	O	-0.149991	1.022036	0.965436
	H346	H	-0.153991	1.012338	0.969655
	H347	H	-0.135637	1.031301	0.967930
	O348	O	0.373095	0.374805	0.563832
	H349	H	0.352881	0.381459	0.556764
	H350	H	0.372982	0.366025	0.577048
	O351	O	0.573323	0.505588	0.550637
	H352	H	0.561797	0.496720	0.543094
	H353	H	0.570738	0.488982	0.539994
	O354	O	-0.057131	1.024702	0.032980
	H355	H	-0.062104	1.026195	0.035296
	H356	H	-0.061804	1.018355	0.037955
	O357	O	0.470891	0.397641	0.562361
	H358	H	0.466236	0.386496	0.569448
	H359	H	0.455193	0.395144	0.557252
	O360	O	0.863291	0.027814	1.040764
	H361	H	0.861709	0.023106	1.043292
	H362	H	0.860506	0.027997	1.039951
	O363	O	0.439393	0.615514	0.436207
	H364	H	0.445358	0.622252	0.431307
	H365	H	0.447334	0.609153	0.444309
	O366	O	0.595579	0.489005	0.543152
	H367	H	0.599731	0.492438	0.538185
	H368	H	0.596527	0.483248	0.527673
	O369	O	0.965320	-0.012757	0.028052
	H370	H	0.968884	-0.010945	0.011557
	H371	H	0.973007	-0.017206	0.022462
	O372	O	0.398596	0.421357	0.555760
	H373	H	0.410555	0.425222	0.547009
	H374	H	0.405244	0.425535	0.556418
	O375	O	0.890558	-0.010299	1.037574
	H376	H	0.884845	-0.017614	1.044455
	H377	H	0.884179	-0.005907	1.043441
	O378	O	-0.064812	1.119396	-0.070287
	H379	H	-0.061578	1.138921	-0.078799
	H380	H	-0.055434	1.120993	-0.066157
	O381	O	0.613541	0.600604	0.580351
	H382	H	0.616707	0.584253	0.574375
	H383	H	0.620262	0.613583	0.587245
	O384	O	0.995597	0.961590	0.083757
	H385	H	0.996530	0.957919	0.078850
	H386	H	1.004206	0.963402	0.081513
	O387	O	1.007371	-0.028107	0.963489
	H388	H	0.998964	-0.034656	0.965055
	H389	H	1.002177	-0.021348	0.961625
	O390	O	0.966112	0.984123	-0.132408
	H391	H	0.963714	0.989305	-0.138320
	H392	H	0.957803	0.976222	-0.136875
	O393	O	0.321980	0.463214	0.583630
	H394	H	0.311984	0.478648	0.585270
	H395	H	0.324795	0.470459	0.582242
