data_Molecule from HDF5

_cell_length_a		16.330347
_cell_length_b		16.353005
_cell_length_c		16.273234
_cell_angle_alpha	90.217146
_cell_angle_beta	89.888475
_cell_angle_gamma	89.895292
_symmetry_space_group_name_H-M	'P 1'
_symmetry_Int_Tables_number		1

loop_
	_symmetry_equiv_pos_as_xyz
	x,y,z

loop_
	_atom_site_label
	_atom_site_type_symbol
	_atom_site_fract_x
	_atom_site_fract_y
	_atom_site_fract_z
	H0	H	0.405607	0.828975	0.709449
	H1	H	0.598634	0.156304	0.709681
	H2	H	0.599519	0.829021	0.281792
	H3	H	0.405310	0.155505	0.281658
	H4	H	0.717039	0.394690	0.831698
	H5	H	0.714815	0.590115	0.160401
	H6	H	0.289211	0.589684	0.831580
	H7	H	0.289100	0.396718	0.160334
	H8	H	0.839700	0.708769	0.398844
	H9	H	0.165735	0.708024	0.594671
	H10	H	0.838147	0.280899	0.592338
	H11	H	0.165498	0.278289	0.397192
	H12	H	0.838030	0.398901	0.708377
	H13	H	0.166474	0.590947	0.709978
	H14	H	0.838756	0.591287	0.283297
	H15	H	0.166265	0.395836	0.282226
	H16	H	0.405050	0.705907	0.831694
	H17	H	0.599407	0.706698	0.159480
	H18	H	0.600362	0.278243	0.831444
	H19	H	0.405369	0.280342	0.160115
	H20	H	0.718835	0.830066	0.396124
	H21	H	0.714793	0.156675	0.593450
	H22	H	0.287635	0.829704	0.593610
	H23	H	0.288140	0.155670	0.397652
	H24	H	0.905300	0.329565	0.210253
	H25	H	0.098947	0.656258	0.210089
	H26	H	0.101461	0.330207	0.780483
	H27	H	0.904742	0.657440	0.783920
	H28	H	0.217052	0.894477	0.331649
	H29	H	0.216470	0.091212	0.659314
	H30	H	0.789181	0.090430	0.331663
	H31	H	0.788400	0.896281	0.659507
	H32	H	0.339018	0.207193	0.898457
	H33	H	0.666007	0.207858	0.095096
	H34	H	0.338988	0.779790	0.093317
	H35	H	0.665886	0.776342	0.895319
	H36	H	0.338835	0.896968	0.208567
	H37	H	0.666699	0.089182	0.209127
	H38	H	0.338083	0.089452	0.782584
	H39	H	0.666566	0.895842	0.781623
	H40	H	0.905174	0.206041	0.331305
	H41	H	0.100865	0.208502	0.659451
	H42	H	0.102107	0.776962	0.332699
	H43	H	0.903486	0.779349	0.659448
	H44	H	0.217763	0.329808	0.896205
	H45	H	0.216858	0.655579	0.095033
	H46	H	0.788427	0.329598	0.094378
	H47	H	0.787403	0.656069	0.899299
	H48	H	0.408177	0.106801	0.584977
	H49	H	0.596388	0.877440	0.587039
	H50	H	0.596255	0.107269	0.408725
	H51	H	0.409489	0.874957	0.395448
	H52	H	0.601014	0.407286	0.111015
	H53	H	0.591968	0.583119	0.880091
	H54	H	0.405026	0.577943	0.110011
	H55	H	0.414212	0.403637	0.881856
	H56	H	0.119732	0.582860	0.395180
	H57	H	0.885837	0.596689	0.582309
	H58	H	0.120610	0.392620	0.590121
	H59	H	0.889191	0.399061	0.411343
	H60	H	0.116202	0.400932	0.582963
	H61	H	0.890183	0.577568	0.587172
	H62	H	0.120749	0.593911	0.405353
	H63	H	0.886711	0.406638	0.397646
	H64	H	0.418428	0.588755	0.110452
	H65	H	0.596307	0.589398	0.877971
	H66	H	0.587495	0.399434	0.109751
	H67	H	0.411497	0.392874	0.878139
	H68	H	0.602144	0.110870	0.399881
	H69	H	0.597014	0.876753	0.588122
	H70	H	0.403800	0.110563	0.592549
	H71	H	0.414573	0.878572	0.404750
	H72	H	0.907733	0.608847	0.089220
	H73	H	0.098751	0.376418	0.087327
	H74	H	0.098012	0.609385	0.903301
	H75	H	0.909309	0.376169	0.898080
	H76	H	0.096937	0.895172	0.614062
	H77	H	0.098519	0.081870	0.379680
	H78	H	0.907162	0.085125	0.611465
	H79	H	0.915596	0.898883	0.380339
	H80	H	0.619136	0.082373	0.895255
	H81	H	0.385601	0.090703	0.089275
	H82	H	0.620096	0.897684	0.092301
	H83	H	0.389258	0.904792	0.902243
	H84	H	0.619154	0.895040	0.086685
	H85	H	0.388756	0.085355	0.084896
	H86	H	0.620367	0.093325	0.902272
	H87	H	0.384414	0.895365	0.896928
	H88	H	0.911558	0.089438	0.612407
	H89	H	0.091105	0.085830	0.380598
	H90	H	0.099920	0.905640	0.612126
	H91	H	0.907279	0.896930	0.377526
	H92	H	0.095839	0.609470	0.901566
	H93	H	0.094307	0.376843	0.090791
	H94	H	0.907664	0.609343	0.090682
	H95	H	0.913399	0.378917	0.903204
	H96	H	0.413134	0.107876	0.592760
	H97	H	0.595798	0.877268	0.588013
	H98	H	0.591564	0.108166	0.398760
	H99	H	0.403598	0.875701	0.405102
	H100	H	0.600864	0.391883	0.115648
	H101	H	0.599536	0.582564	0.879338
	H102	H	0.402903	0.594130	0.116209
	H103	H	0.403615	0.401194	0.878627
	H104	H	0.114922	0.580448	0.409799
	H105	H	0.882837	0.589797	0.601040
	H106	H	0.117939	0.403710	0.594104
	H107	H	0.882656	0.391900	0.398777
	H108	H	0.908633	0.609147	0.090483
	H109	H	0.093731	0.378209	0.085801
	H110	H	0.095652	0.608045	0.904308
	H111	H	0.906444	0.377618	0.904924
	H112	H	0.089602	0.902467	0.609633
	H113	H	0.098088	0.090278	0.377709
	H114	H	0.905661	0.090953	0.614267
	H115	H	0.909588	0.905120	0.380417
	H116	H	0.615699	0.082571	0.908199
	H117	H	0.386981	0.084045	0.092509
	H118	H	0.617708	0.901491	0.087380
	H119	H	0.387388	0.894660	0.907926
	C120	C	0.380708	0.000856	0.617679
	C121	C	0.624024	0.984788	0.616664
	C122	C	0.625083	0.001020	0.373493
	C123	C	0.381103	0.984360	0.374071
	C124	C	0.624498	0.370918	0.004214
	C125	C	0.623806	0.613661	0.987485
	C126	C	0.380929	0.614430	0.003878
	C127	C	0.381431	0.371337	0.987633
	C128	C	0.010700	0.614551	0.375407
	C129	C	0.994295	0.615663	0.618240
	C130	C	0.010275	0.371823	0.617056
	C131	C	0.994098	0.371140	0.373999
	C132	C	0.880888	0.501014	0.117879
	C133	C	0.123855	0.484683	0.117158
	C134	C	0.124972	0.501251	0.873986
	C135	C	0.880887	0.485379	0.874543
	C136	C	0.124462	0.871545	0.504088
	C137	C	0.123871	0.114547	0.487558
	C138	C	0.880804	0.115347	0.503929
	C139	C	0.881992	0.872204	0.487703
	C140	C	0.510335	0.113939	0.874237
	C141	C	0.494949	0.114654	0.117618
	C142	C	0.510757	0.871052	0.116849
	C143	C	0.494888	0.870124	0.873489
	C144	C	0.384511	0.877515	0.671460
	C145	C	0.620215	0.107569	0.671959
	C146	C	0.621514	0.877991	0.318873
	C147	C	0.384072	0.107000	0.319457
	C148	C	0.679115	0.373624	0.880398
	C149	C	0.677718	0.610726	0.111188
	C150	C	0.326870	0.610595	0.880479
	C151	C	0.326683	0.375370	0.111292
	C152	C	0.888038	0.670151	0.378253
	C153	C	0.117035	0.670497	0.615539
	C154	C	0.887221	0.318208	0.613658
	C155	C	0.116953	0.316076	0.376360
	C156	C	0.886922	0.376874	0.670935
	C157	C	0.117568	0.611874	0.672264
	C158	C	0.887711	0.612107	0.320666
	C159	C	0.117422	0.374750	0.319633
	C160	C	0.384295	0.668349	0.880459
	C161	C	0.620359	0.668541	0.110975
	C162	C	0.621801	0.315391	0.880665
	C163	C	0.384214	0.317430	0.111219
	C164	C	0.680666	0.878674	0.375546
	C165	C	0.678178	0.107639	0.614510
	C166	C	0.325731	0.878130	0.614511
	C167	C	0.326133	0.106948	0.377063
	C168	C	0.884505	0.378223	0.172392
	C169	C	0.120341	0.607361	0.172585
	C170	C	0.121822	0.378602	0.818791
	C171	C	0.884014	0.608397	0.821030
	C172	C	0.179292	0.873797	0.380674
	C173	C	0.178837	0.112310	0.610598
	C174	C	0.826785	0.111471	0.380498
	C175	C	0.826267	0.875551	0.610754
	C176	C	0.387664	0.169310	0.877268
	C177	C	0.617453	0.169417	0.115218
	C178	C	0.388047	0.816862	0.114457
	C179	C	0.617328	0.814779	0.875341
	C180	C	0.387858	0.875082	0.171618
	C181	C	0.617814	0.110552	0.171907
	C182	C	0.386909	0.110519	0.820236
	C183	C	0.617606	0.873807	0.818602
	C184	C	0.884334	0.169005	0.380463
	C185	C	0.121178	0.170257	0.610638
	C186	C	0.122395	0.815424	0.381322
	C187	C	0.883927	0.817959	0.610950
	C188	C	0.179904	0.378589	0.876037
	C189	C	0.178789	0.607247	0.115210
	C190	C	0.826337	0.378333	0.114927
	C191	C	0.825739	0.607879	0.878565
	C192	C	0.402151	0.086378	0.596469
	C193	C	0.602703	0.899244	0.594315
	C194	C	0.603043	0.086752	0.395766
	C195	C	0.402822	0.898439	0.395583
	C196	C	0.602814	0.392829	0.089969
	C197	C	0.602259	0.591481	0.901511
	C198	C	0.402403	0.593166	0.089985
	C199	C	0.403326	0.392753	0.901853
	C200	C	0.096378	0.592410	0.397096
	C201	C	0.908431	0.594215	0.596675
	C202	C	0.096186	0.392976	0.595548
	C203	C	0.908298	0.392803	0.396012
	C204	C	0.901834	0.586948	0.096393
	C205	C	0.102109	0.399154	0.094466
	C206	C	0.102918	0.586812	0.896392
	C207	C	0.903278	0.399589	0.895555
	C208	C	0.102151	0.894497	0.589865
	C209	C	0.102289	0.092474	0.401495
	C210	C	0.901915	0.094691	0.590486
	C211	C	0.904269	0.893803	0.401595
	C212	C	0.596135	0.092359	0.895428
	C213	C	0.409215	0.093086	0.095349
	C214	C	0.596907	0.891909	0.094926
	C215	C	0.409011	0.891926	0.895728
	Zn216	Zn	0.502433	-0.007555	0.745282
	Zn217	Zn	0.502916	-0.007560	0.245839
	Zn218	Zn	0.752377	0.492562	-0.004000
	Zn219	Zn	0.252976	0.492743	-0.004386
	Zn220	Zn	0.002563	0.743554	0.496308
	Zn221	Zn	0.002468	0.242802	0.495444
	Zn222	Zn	0.002696	0.493600	0.745776
	Zn223	Zn	0.002503	0.492977	0.246456
	Zn224	Zn	0.502958	0.742150	-0.004504
	Zn225	Zn	0.502716	0.243094	-0.004237
	Zn226	Zn	0.753277	-0.006514	0.495653
	Zn227	Zn	0.252378	-0.007266	0.495496
	N228	N	0.417990	0.954767	0.673523
	N229	N	0.587235	0.030231	0.673449
	N230	N	0.587902	0.955272	0.317323
	N231	N	0.417726	0.029858	0.317741
	N232	N	0.681069	0.407412	0.957910
	N233	N	0.679841	0.577234	0.033347
	N234	N	0.324852	0.577669	0.958085
	N235	N	0.324581	0.408015	0.033461
	N236	N	0.965440	0.671698	0.411595
	N237	N	0.039454	0.672722	0.582643
	N238	N	0.964876	0.315130	0.580829
	N239	N	0.039525	0.314031	0.409680
	N240	N	0.964546	0.409383	0.673341
	N241	N	0.040230	0.578573	0.674295
	N242	N	0.964833	0.578139	0.318799
	N243	N	0.040056	0.408292	0.318189
	N244	N	0.417386	0.670777	0.958222
	N245	N	0.587560	0.670455	0.033301
	N246	N	0.588399	0.313982	0.958337
	N247	N	0.417819	0.315181	0.033628
	N248	N	0.682700	0.956121	0.409015
	N249	N	0.680483	0.030333	0.580649
	N250	N	0.323278	0.955537	0.581788
	N251	N	0.324338	0.029630	0.410259
	N252	N	0.917712	0.455504	0.174268
	N253	N	0.086949	0.530227	0.173817
	N254	N	0.088217	0.455858	0.817352
	N255	N	0.917847	0.531234	0.818620
	N256	N	0.180637	0.907956	0.457964
	N257	N	0.180346	0.078145	0.533306
	N258	N	0.824653	0.078702	0.458326
	N259	N	0.825197	0.908857	0.533108
	N260	N	0.465071	0.171172	0.910436
	N261	N	0.539967	0.172055	0.082238
	N262	N	0.465605	0.814249	0.081084
	N263	N	0.539969	0.812575	0.908776
	N264	N	0.465132	0.908322	0.173096
	N265	N	0.540676	0.076858	0.173253
	N266	N	0.464212	0.076788	0.818125
	N267	N	0.540539	0.907698	0.817627
	N268	N	0.917516	0.171123	0.458182
	N269	N	0.087814	0.171688	0.533010
	N270	N	0.088874	0.814028	0.459082
	N271	N	0.917782	0.815905	0.533489
	N272	N	0.181931	0.455882	0.909533
	N273	N	0.181223	0.529943	0.081437
	N274	N	0.824004	0.455604	0.081695
	N275	N	0.823636	0.530393	0.910752
	O276	O	1.031490	-0.012753	0.937531
	H277	H	1.030113	-0.012757	0.941269
	H278	H	1.028574	-0.006206	0.943312
	O279	O	0.021922	1.028352	0.971468
	H280	H	0.023032	1.034626	0.976397
	H281	H	0.015077	1.028182	0.968970
	O282	O	1.041369	0.988076	-0.077553
	H283	H	1.042427	0.986226	-0.082390
	H284	H	1.050703	0.986452	-0.079189
	O285	O	0.014090	1.017124	0.956049
	H286	H	0.018329	1.005332	0.939547
	H287	H	0.013847	1.024031	0.951975
