data_Molecule from HDF5

_cell_length_a		16.377967
_cell_length_b		16.303263
_cell_length_c		16.452805
_cell_angle_alpha	89.904567
_cell_angle_beta	89.964962
_cell_angle_gamma	89.942093
_symmetry_space_group_name_H-M	'P 1'
_symmetry_Int_Tables_number		1

loop_
	_symmetry_equiv_pos_as_xyz
	x,y,z

loop_
	_atom_site_label
	_atom_site_type_symbol
	_atom_site_fract_x
	_atom_site_fract_y
	_atom_site_fract_z
	H0	H	0.395070	0.840031	0.716138
	H1	H	0.603290	0.159873	0.714204
	H2	H	0.602699	0.839329	0.277452
	H3	H	0.395153	0.161040	0.277277
	H4	H	0.721199	0.395056	0.838331
	H5	H	0.718314	0.603422	0.156149
	H6	H	0.279237	0.602756	0.837321
	H7	H	0.277091	0.392265	0.154973
	H8	H	0.839699	0.719330	0.393138
	H9	H	0.160854	0.716458	0.599163
	H10	H	0.839250	0.279621	0.599992
	H11	H	0.159543	0.281381	0.396799
	H12	H	0.839873	0.394789	0.716002
	H13	H	0.159060	0.601314	0.717331
	H14	H	0.840274	0.605838	0.274681
	H15	H	0.156997	0.391722	0.275160
	H16	H	0.394639	0.719653	0.837016
	H17	H	0.601047	0.718395	0.156292
	H18	H	0.603324	0.280033	0.837635
	H19	H	0.396971	0.280074	0.156330
	H20	H	0.719400	0.839421	0.390321
	H21	H	0.719679	0.158551	0.599826
	H22	H	0.281126	0.838787	0.599590
	H23	H	0.280739	0.161049	0.393637
	H24	H	0.892916	0.338978	0.217765
	H25	H	0.107011	0.656920	0.219608
	H26	H	0.102720	0.337209	0.779342
	H27	H	0.891969	0.657512	0.774561
	H28	H	0.219869	0.895814	0.337466
	H29	H	0.219368	0.104082	0.655889
	H30	H	0.777652	0.106367	0.338192
	H31	H	0.777178	0.893078	0.654564
	H32	H	0.339800	0.222413	0.891710
	H33	H	0.659985	0.219011	0.098958
	H34	H	0.338383	0.781593	0.099702
	H35	H	0.658793	0.780058	0.892785
	H36	H	0.339912	0.896692	0.217053
	H37	H	0.658321	0.108156	0.219255
	H38	H	0.340552	0.109318	0.773031
	H39	H	0.658668	0.895881	0.775647
	H40	H	0.894587	0.220311	0.338601
	H41	H	0.100796	0.216589	0.656743
	H42	H	0.105648	0.777891	0.337936
	H43	H	0.896871	0.780229	0.656711
	H44	H	0.219209	0.338582	0.893585
	H45	H	0.219409	0.658251	0.101456
	H46	H	0.778631	0.339291	0.101314
	H47	H	0.781039	0.659993	0.893101
	H48	H	0.408397	0.114845	0.584888
	H49	H	0.582572	0.886898	0.587293
	H50	H	0.593695	0.115602	0.406417
	H51	H	0.406412	0.887015	0.414863
	H52	H	0.588215	0.415769	0.108231
	H53	H	0.589035	0.593785	0.882527
	H54	H	0.411324	0.587600	0.108414
	H55	H	0.405881	0.409947	0.882139
	H56	H	0.114455	0.587206	0.403914
	H57	H	0.884677	0.590739	0.589760
	H58	H	0.117710	0.406695	0.597110
	H59	H	0.886126	0.413324	0.408769
	H60	H	0.114804	0.400810	0.584224
	H61	H	0.887071	0.589574	0.582924
	H62	H	0.111421	0.589017	0.411859
	H63	H	0.882595	0.410438	0.403949
	H64	H	0.409881	0.591882	0.110382
	H65	H	0.594014	0.589244	0.881725
	H66	H	0.584238	0.406094	0.110330
	H67	H	0.410735	0.415439	0.885137
	H68	H	0.585441	0.114762	0.403045
	H69	H	0.587527	0.886234	0.580922
	H70	H	0.408298	0.114736	0.585672
	H71	H	0.404407	0.881269	0.399252
	H72	H	0.907297	0.616027	0.091161
	H73	H	0.094576	0.381644	0.085465
	H74	H	0.091472	0.614100	0.905612
	H75	H	0.903558	0.384175	0.915064
	H76	H	0.098902	0.914432	0.610793
	H77	H	0.084951	0.081909	0.387447
	H78	H	0.914534	0.084981	0.607497
	H79	H	0.911135	0.913468	0.384220
	H80	H	0.611844	0.089292	0.907554
	H81	H	0.389098	0.081718	0.083912
	H82	H	0.614200	0.912260	0.088720
	H83	H	0.383069	0.908079	0.904583
	H84	H	0.614557	0.905984	0.087550
	H85	H	0.384464	0.089715	0.093640
	H86	H	0.612266	0.086962	0.904505
	H87	H	0.386664	0.911650	0.909604
	H88	H	0.907925	0.094463	0.612672
	H89	H	0.085334	0.098825	0.381335
	H90	H	0.081992	0.912875	0.605717
	H91	H	0.912403	0.907571	0.383583
	H92	H	0.083585	0.612587	0.904419
	H93	H	0.084797	0.382861	0.092660
	H94	H	0.915968	0.611418	0.087143
	H95	H	0.906953	0.380702	0.899207
	H96	H	0.408984	0.114527	0.585864
	H97	H	0.590056	0.883022	0.588064
	H98	H	0.586991	0.112259	0.411394
	H99	H	0.419060	0.888471	0.404442
	H100	H	0.594180	0.408484	0.112846
	H101	H	0.588174	0.587385	0.884435
	H102	H	0.406501	0.587706	0.110105
	H103	H	0.413066	0.407748	0.883943
	H104	H	0.110377	0.581448	0.408572
	H105	H	0.886817	0.583881	0.588551
	H106	H	0.111337	0.414752	0.586751
	H107	H	0.884749	0.407264	0.409070
	H108	H	0.907512	0.612726	0.081575
	H109	H	0.083935	0.387904	0.081532
	H110	H	0.086887	0.611243	0.911361
	H111	H	0.918770	0.387337	0.909441
	H112	H	0.090017	0.898820	0.613703
	H113	H	0.099063	0.088285	0.380346
	H114	H	0.902530	0.083446	0.610255
	H115	H	0.907126	0.909252	0.382249
	H116	H	0.613269	0.090573	0.904194
	H117	H	0.385865	0.094043	0.081750
	H118	H	0.611520	0.910220	0.083016
	H119	H	0.385793	0.915211	0.903508
	C120	C	0.377274	0.008837	0.617504
	C121	C	0.619563	0.990766	0.616744
	C122	C	0.620913	0.008554	0.374735
	C123	C	0.378346	0.991635	0.375071
	C124	C	0.620774	0.378606	0.005227
	C125	C	0.620750	0.621272	0.988052
	C126	C	0.377094	0.621093	0.004893
	C127	C	0.378023	0.378475	0.988743
	C128	C	0.007577	0.619411	0.375535
	C129	C	0.991682	0.619588	0.618449
	C130	C	0.008543	0.376504	0.619441
	C131	C	0.989615	0.377243	0.375623
	C132	C	0.878135	0.507616	0.118363
	C133	C	0.120523	0.489425	0.118729
	C134	C	0.119350	0.507013	0.876159
	C135	C	0.877485	0.490010	0.875708
	C136	C	0.121734	0.877406	0.504938
	C137	C	0.120785	0.120621	0.488435
	C138	C	0.877050	0.120542	0.505101
	C139	C	0.878191	0.877768	0.488170
	C140	C	0.507436	0.122141	0.873601
	C141	C	0.491808	0.121332	0.118060
	C142	C	0.507744	0.878430	0.118253
	C143	C	0.490384	0.879165	0.874479
	C144	C	0.376138	0.888115	0.676873
	C145	C	0.621610	0.111589	0.675075
	C146	C	0.622314	0.887823	0.315847
	C147	C	0.376894	0.112650	0.316611
	C148	C	0.680837	0.376759	0.885782
	C149	C	0.679070	0.622505	0.108228
	C150	C	0.318013	0.622144	0.885261
	C151	C	0.317731	0.375169	0.107681
	C152	C	0.887739	0.679855	0.373852
	C153	C	0.112291	0.677822	0.618773
	C154	C	0.887390	0.318633	0.619113
	C155	C	0.110917	0.319241	0.376104
	C156	C	0.887851	0.375517	0.677193
	C157	C	0.111483	0.620637	0.677688
	C158	C	0.888053	0.623463	0.314846
	C159	C	0.109607	0.374454	0.315840
	C160	C	0.375681	0.680221	0.885015
	C161	C	0.620482	0.679413	0.108436
	C162	C	0.622168	0.319720	0.885229
	C163	C	0.377045	0.318850	0.108278
	C164	C	0.680139	0.887823	0.372440
	C165	C	0.679378	0.111075	0.617803
	C166	C	0.319469	0.887492	0.618624
	C167	C	0.319795	0.112810	0.374537
	C168	C	0.875331	0.387088	0.177772
	C169	C	0.123936	0.609201	0.179242
	C170	C	0.121252	0.385517	0.818191
	C171	C	0.875199	0.610028	0.815531
	C172	C	0.181033	0.876200	0.385253
	C173	C	0.179654	0.122103	0.608115
	C174	C	0.817765	0.123684	0.385925
	C175	C	0.817855	0.875160	0.607341
	C176	C	0.387726	0.182758	0.872717
	C177	C	0.611853	0.180546	0.118645
	C178	C	0.386911	0.820318	0.118971
	C179	C	0.610848	0.819550	0.873627
	C180	C	0.387673	0.877654	0.177370
	C181	C	0.611100	0.124788	0.178129
	C182	C	0.388102	0.126264	0.813569
	C183	C	0.610486	0.876718	0.814974
	C184	C	0.875935	0.180817	0.385927
	C185	C	0.120829	0.178347	0.608741
	C186	C	0.123935	0.817672	0.385593
	C187	C	0.877321	0.818835	0.608343
	C188	C	0.179001	0.386142	0.875221
	C189	C	0.180205	0.610031	0.120469
	C190	C	0.817952	0.387446	0.120082
	C191	C	0.819434	0.611282	0.874550
	C192	C	0.401415	0.092908	0.592804
	C193	C	0.594219	0.907148	0.592291
	C194	C	0.595845	0.092390	0.399539
	C195	C	0.402785	0.907573	0.399275
	C196	C	0.595933	0.403057	0.088794
	C197	C	0.597150	0.597167	0.904638
	C198	C	0.401903	0.596099	0.088147
	C199	C	0.402598	0.403834	0.905353
	C200	C	0.090563	0.593333	0.400624
	C201	C	0.907775	0.595059	0.594118
	C202	C	0.092749	0.400517	0.596032
	C203	C	0.906420	0.402831	0.400136
	C204	C	0.903146	0.591565	0.093552
	C205	C	0.095012	0.405956	0.093768
	C206	C	0.094527	0.590810	0.900121
	C207	C	0.902322	0.406056	0.900655
	C208	C	0.097377	0.901797	0.588407
	C209	C	0.096642	0.096608	0.404745
	C210	C	0.901340	0.095019	0.588518
	C211	C	0.903059	0.902798	0.405077
	C212	C	0.590942	0.096257	0.898314
	C213	C	0.408201	0.096015	0.093440
	C214	C	0.591625	0.902679	0.093562
	C215	C	0.406981	0.904526	0.898933
	Zn216	Zn	0.498808	0.000460	0.745146
	Zn217	Zn	0.500124	0.000290	0.247108
	Zn218	Zn	0.749705	0.499979	-0.003106
	Zn219	Zn	0.248161	0.498735	-0.003564
	Zn220	Zn	-0.000315	0.748717	0.496596
	Zn221	Zn	-0.001186	0.248789	0.497669
	Zn222	Zn	-0.000877	0.497921	0.747750
	Zn223	Zn	-0.001342	0.498366	0.246662
	Zn224	Zn	0.498938	0.750007	-0.003727
	Zn225	Zn	0.499839	0.249608	-0.003433
	Zn226	Zn	0.748373	-0.001354	0.495590
	Zn227	Zn	0.249950	0.000030	0.496498
	N228	N	0.411357	0.964559	0.676246
	N229	N	0.585054	0.035878	0.674522
	N230	N	0.586146	0.964020	0.317099
	N231	N	0.413012	0.036419	0.317015
	N232	N	0.680141	0.412471	0.961430
	N233	N	0.679477	0.587208	0.032469
	N234	N	0.318594	0.586206	0.960960
	N235	N	0.318296	0.411511	0.032236
	N236	N	0.962972	0.677682	0.410721
	N237	N	0.036676	0.677152	0.582634
	N238	N	0.963575	0.318749	0.584045
	N239	N	0.035304	0.320699	0.412419
	N240	N	0.963995	0.410795	0.677406
	N241	N	0.035261	0.585329	0.677534
	N242	N	0.963764	0.586664	0.315545
	N243	N	0.033271	0.409705	0.315187
	N244	N	0.411518	0.679763	0.960466
	N245	N	0.584758	0.678847	0.032807
	N246	N	0.585729	0.320745	0.960537
	N247	N	0.413663	0.320595	0.033145
	N248	N	0.679338	0.963877	0.408266
	N249	N	0.677999	0.035032	0.581905
	N250	N	0.319974	0.963546	0.582548
	N251	N	0.320546	0.036613	0.410209
	N252	N	0.911804	0.462917	0.176871
	N253	N	0.087432	0.533316	0.178369
	N254	N	0.084591	0.461485	0.818646
	N255	N	0.910526	0.533586	0.815919
	N256	N	0.179927	0.912640	0.460429
	N257	N	0.179693	0.086726	0.532295
	N258	N	0.818304	0.086909	0.461061
	N259	N	0.818262	0.911083	0.531632
	N260	N	0.462978	0.180220	0.909627
	N261	N	0.536652	0.178216	0.081685
	N262	N	0.462653	0.820691	0.082718
	N263	N	0.535123	0.820629	0.909843
	N264	N	0.463862	0.912829	0.177170
	N265	N	0.535316	0.088705	0.177984
	N266	N	0.463552	0.089311	0.814147
	N267	N	0.534734	0.913127	0.815463
	N268	N	0.912359	0.178835	0.461196
	N269	N	0.084967	0.177655	0.533331
	N270	N	0.087842	0.818327	0.461046
	N271	N	0.914229	0.820322	0.533318
	N272	N	0.177845	0.462363	0.910712
	N273	N	0.178657	0.534418	0.083945
	N274	N	0.819612	0.463378	0.083804
	N275	N	0.820906	0.535577	0.911487
	O276	O	0.370807	0.506035	0.415389
	H277	H	0.367587	0.525320	0.409425
	H278	H	0.366228	0.519366	0.399504
	O279	O	0.619097	0.561084	0.366627
	H280	H	0.626179	0.545236	0.363164
	H281	H	0.634131	0.570869	0.388855
	O282	O	0.458478	0.442335	0.589307
	H283	H	0.461397	0.443194	0.584567
	H284	H	0.465373	0.462289	0.588486
	O285	O	0.971054	-0.169536	-0.180414
	H286	H	0.974855	-0.183637	-0.188569
	H287	H	0.966675	-0.162965	-0.189093
	O288	O	-0.005015	0.096151	1.041551
	H289	H	-0.006417	0.095833	1.038203
	H290	H	0.011120	0.112444	1.068352
	O291	O	0.621248	0.598296	0.594623
	H292	H	0.618066	0.588229	0.590353
	H293	H	0.615121	0.597990	0.585729
	O294	O	0.340812	0.617166	0.501048
	H295	H	0.328203	0.628980	0.490232
	H296	H	0.343308	0.619949	0.509338
	O297	O	1.034176	0.978502	1.165971
	H298	H	1.023816	0.976594	1.165288
	H299	H	1.021243	0.988483	1.165896
	O300	O	0.200503	-0.206150	-0.023411
	H301	H	0.205580	-0.222234	-0.020846
	H302	H	0.202034	-0.204070	-0.007913
	O303	O	0.446551	0.406947	0.664631
	H304	H	0.437095	0.408600	0.662206
	H305	H	0.437436	0.399894	0.684268
	O306	O	0.824532	-0.135178	0.038862
	H307	H	0.836889	-0.134218	0.019971
	H308	H	0.830100	-0.144501	0.026711
	O309	O	0.687392	0.664440	0.656064
	H310	H	0.683194	0.648299	0.661655
	H311	H	0.673997	0.656465	0.668741
	O312	O	0.839607	0.993846	0.119243
	H313	H	0.831062	0.962927	0.105298
	H314	H	0.820602	0.988098	0.134136
	O315	O	0.423810	0.429870	0.637595
	H316	H	0.420119	0.442997	0.623051
	H317	H	0.413700	0.421709	0.642162
	O318	O	0.453265	0.337879	0.358421
	H319	H	0.439728	0.341717	0.361741
	H320	H	0.453942	0.333113	0.353000
	O321	O	0.864293	0.184858	0.821899
	H322	H	0.863593	0.180002	0.835674
	H323	H	0.894354	0.193425	0.835405
	O324	O	0.042490	-0.089775	1.173686
	H325	H	0.038062	-0.101264	1.177319
	H326	H	0.037080	-0.077804	1.171121
	O327	O	0.546545	0.568764	0.513142
	H328	H	0.557622	0.569264	0.513263
	H329	H	0.543285	0.576698	0.525894
	O330	O	0.561484	0.452890	0.493422
	H331	H	0.554880	0.452164	0.492335
	H332	H	0.550875	0.456542	0.491931
	O333	O	0.809709	1.091997	0.844498
	H334	H	0.822508	1.084477	0.828586
	H335	H	0.803369	1.118825	0.834746
	O336	O	0.636906	0.448793	0.363143
	H337	H	0.642711	0.447133	0.356096
	H338	H	0.626428	0.428715	0.385036
	O339	O	1.175911	-0.017469	1.091996
	H340	H	1.176872	-0.022111	1.085042
	H341	H	1.155541	-0.032054	1.101255
	O342	O	0.206400	0.922350	0.789604
	H343	H	0.205764	0.888506	0.812678
	H344	H	0.227535	0.932463	0.771813
	O345	O	0.172197	1.191812	1.083302
	H346	H	0.164833	1.190625	1.097863
	H347	H	0.185617	1.197020	1.076584
	O348	O	0.496895	0.627536	0.583232
	H349	H	0.486961	0.627539	0.571633
	H350	H	0.493466	0.637868	0.590671
	O351	O	0.185330	0.155514	0.131195
	H352	H	0.190926	0.144736	0.126007
	H353	H	0.181138	0.137948	0.131333
	O354	O	1.014288	0.841473	0.127872
	H355	H	1.004509	0.852828	0.133119
	H356	H	1.011413	0.839605	0.111185
	O357	O	-0.052865	1.014160	0.162226
	H358	H	-0.049359	0.993470	0.168691
	H359	H	-0.074716	1.023097	0.175119
	O360	O	0.619193	0.313410	0.446648
	H361	H	0.620996	0.301186	0.479167
	H362	H	0.615332	0.311605	0.441419
	O363	O	0.613623	0.349789	0.522365
	H364	H	0.610352	0.346882	0.528384
	H365	H	0.620610	0.344874	0.531403
	O366	O	0.323111	0.627716	0.461482
	H367	H	0.333653	0.627874	0.449804
	H368	H	0.320414	0.597140	0.456558
	O369	O	0.572333	0.479265	0.678763
	H370	H	0.564938	0.468382	0.688365
	H371	H	0.569105	0.486440	0.669201
	O372	O	0.478607	0.499517	0.549416
	H373	H	0.469328	0.504190	0.550419
	H374	H	0.497893	0.506652	0.550741
	O375	O	0.528881	0.580195	0.570198
	H376	H	0.546276	0.579834	0.560532
	H377	H	0.526635	0.590048	0.578682
	O378	O	0.358906	0.358048	0.452613
	H379	H	0.364353	0.363328	0.441537
	H380	H	0.355412	0.361365	0.453527
	O381	O	0.596920	0.573150	0.318458
	H382	H	0.597310	0.563543	0.311052
	H383	H	0.612754	0.564315	0.307746
	O384	O	-0.031507	1.202595	0.854994
	H385	H	-0.034454	1.210694	0.842037
	H386	H	-0.016241	1.197650	0.861701
	O387	O	1.011479	1.026834	-0.187174
	H388	H	1.017269	1.029308	-0.176469
	H389	H	1.026468	1.018174	-0.191913
	O390	O	0.329717	0.594815	0.477519
	H391	H	0.324037	0.600493	0.477233
	H392	H	0.333790	0.600654	0.460753
	O393	O	0.813167	0.180503	1.009497
	H394	H	0.823073	0.170090	1.003986
	H395	H	0.798990	0.201509	1.010217
	O396	O	0.122594	0.808130	0.803441
	H397	H	0.138247	0.806889	0.825489
	H398	H	0.098284	0.787193	0.785091
	O399	O	0.532404	0.515396	0.395975
	H400	H	0.534373	0.514546	0.383971
	H401	H	0.550352	0.507646	0.398956
	O402	O	0.836339	-0.035965	0.990023
	H403	H	0.830973	-0.043176	1.001170
	H404	H	0.832791	-0.016267	0.983744
	O405	O	0.186773	0.025329	-0.053856
	H406	H	0.181041	0.019745	-0.051035
	H407	H	0.196299	0.018975	-0.071132
	O408	O	0.890621	0.800807	1.047855
	H409	H	0.902064	0.806515	1.047512
	H410	H	0.892520	0.791225	1.025691
	O411	O	0.903602	0.890812	-0.090793
	H412	H	0.899746	0.899072	-0.088219
	H413	H	0.888442	0.897998	-0.077596
	O414	O	0.014872	0.209255	1.177537
	H415	H	0.028643	0.206960	1.178407
	H416	H	0.012314	0.220435	1.182613
	O417	O	0.315832	0.584212	0.300148
	H418	H	0.346087	0.582855	0.297681
	H419	H	0.302626	0.588865	0.299099
	O420	O	-0.128366	0.803272	0.080737
	H421	H	-0.114242	0.796274	0.074017
	H422	H	-0.127056	0.817646	0.086114
	O423	O	0.995678	-0.037856	-0.064097
	H424	H	0.989711	-0.028444	-0.060183
	H425	H	0.984083	-0.022483	-0.062274
	O426	O	0.060463	0.132963	0.924197
	H427	H	0.063414	0.146287	0.926992
	H428	H	0.066628	0.136150	0.923512
	O429	O	0.588644	0.505060	0.467968
	H430	H	0.580826	0.509011	0.472171
	H431	H	0.595158	0.494449	0.450200
