data_Molecule from HDF5

_cell_length_a		16.494018
_cell_length_b		16.578248
_cell_length_c		16.454526
_cell_angle_alpha	90.102122
_cell_angle_beta	90.182608
_cell_angle_gamma	89.866713
_symmetry_space_group_name_H-M	'P 1'
_symmetry_Int_Tables_number		1

loop_
	_symmetry_equiv_pos_as_xyz
	x,y,z

loop_
	_atom_site_label
	_atom_site_type_symbol
	_atom_site_fract_x
	_atom_site_fract_y
	_atom_site_fract_z
	H0	H	0.398547	0.844182	0.728839
	H1	H	0.607115	0.158988	0.732249
	H2	H	0.605093	0.846620	0.289213
	H3	H	0.397323	0.161858	0.289526
	H4	H	0.721851	0.397702	0.850193
	H5	H	0.719850	0.605331	0.167507
	H6	H	0.277458	0.608842	0.850911
	H7	H	0.281842	0.399378	0.167878
	H8	H	0.844173	0.721847	0.407814
	H9	H	0.160315	0.723974	0.617774
	H10	H	0.845734	0.280487	0.616304
	H11	H	0.158513	0.278986	0.403586
	H12	H	0.845653	0.397261	0.731999
	H13	H	0.159673	0.608052	0.733241
	H14	H	0.842912	0.604679	0.291494
	H15	H	0.159416	0.395852	0.288365
	H16	H	0.392208	0.725826	0.851271
	H17	H	0.602979	0.721609	0.167224
	H18	H	0.607265	0.280268	0.851996
	H19	H	0.393272	0.278725	0.165458
	H20	H	0.721782	0.845896	0.406871
	H21	H	0.724377	0.159647	0.617115
	H22	H	0.281455	0.844577	0.613848
	H23	H	0.279558	0.160452	0.404628
	H24	H	0.897891	0.344654	0.229471
	H25	H	0.103139	0.659461	0.228551
	H26	H	0.109289	0.346832	0.784815
	H27	H	0.894343	0.659848	0.786096
	H28	H	0.218336	0.901215	0.350123
	H29	H	0.226271	0.109424	0.666682
	H30	H	0.780258	0.108271	0.352541
	H31	H	0.780086	0.895880	0.668036
	H32	H	0.346370	0.227914	0.898530
	H33	H	0.659097	0.223737	0.114259
	H34	H	0.343611	0.786004	0.110209
	H35	H	0.658860	0.779865	0.902769
	H36	H	0.343392	0.903327	0.226044
	H37	H	0.660737	0.106517	0.228685
	H38	H	0.345636	0.109111	0.783819
	H39	H	0.660831	0.898140	0.790039
	H40	H	0.894917	0.224503	0.353175
	H41	H	0.110804	0.226388	0.666809
	H42	H	0.104638	0.783398	0.352006
	H43	H	0.893937	0.778569	0.667207
	H44	H	0.227094	0.347084	0.900259
	H45	H	0.219885	0.659757	0.111988
	H46	H	0.780165	0.345594	0.113084
	H47	H	0.778281	0.659532	0.902870
	H48	H	0.410472	0.114823	0.597965
	H49	H	0.593119	0.890838	0.598197
	H50	H	0.590407	0.116630	0.417835
	H51	H	0.411579	0.891890	0.422867
	H52	H	0.591170	0.411510	0.122227
	H53	H	0.589945	0.592561	0.894821
	H54	H	0.403398	0.598425	0.125729
	H55	H	0.414006	0.420941	0.899831
	H56	H	0.114898	0.590596	0.420823
	H57	H	0.889403	0.595987	0.597535
	H58	H	0.117554	0.409132	0.599941
	H59	H	0.890129	0.413635	0.422156
	H60	H	0.110821	0.414445	0.588786
	H61	H	0.893004	0.589645	0.591789
	H62	H	0.116552	0.593944	0.416119
	H63	H	0.889789	0.414543	0.419141
	H64	H	0.412174	0.584648	0.118032
	H65	H	0.590037	0.592323	0.895185
	H66	H	0.591994	0.415730	0.121420
	H67	H	0.419476	0.413830	0.899241
	H68	H	0.591136	0.115383	0.422793
	H69	H	0.592373	0.890593	0.599166
	H70	H	0.418904	0.112213	0.598921
	H71	H	0.407458	0.888615	0.415384
	H72	H	0.917658	0.612324	0.099591
	H73	H	0.090303	0.388491	0.102133
	H74	H	0.098341	0.615641	0.923939
	H75	H	0.912225	0.391775	0.918422
	H76	H	0.091234	0.908398	0.624665
	H77	H	0.089900	0.093410	0.396459
	H78	H	0.915734	0.087970	0.621950
	H79	H	0.907115	0.917549	0.397418
	H80	H	0.608170	0.087197	0.930354
	H81	H	0.391132	0.090286	0.093705
	H82	H	0.617627	0.906690	0.100549
	H83	H	0.389871	0.916960	0.916362
	H84	H	0.614485	0.911686	0.095605
	H85	H	0.388512	0.090671	0.101812
	H86	H	0.614255	0.083304	0.915566
	H87	H	0.387641	0.909108	0.918518
	H88	H	0.917311	0.094414	0.622610
	H89	H	0.091595	0.089080	0.397951
	H90	H	0.097650	0.913871	0.625247
	H91	H	0.919766	0.917316	0.401622
	H92	H	0.084081	0.614345	0.913365
	H93	H	0.091661	0.390182	0.095575
	H94	H	0.908035	0.613652	0.093948
	H95	H	0.915010	0.392621	0.921637
	H96	H	0.414609	0.110933	0.591427
	H97	H	0.591804	0.890669	0.598209
	H98	H	0.595136	0.117037	0.419880
	H99	H	0.416562	0.891584	0.414933
	H100	H	0.588151	0.414188	0.120097
	H101	H	0.589518	0.592372	0.894563
	H102	H	0.420473	0.600206	0.120070
	H103	H	0.411428	0.413095	0.895126
	H104	H	0.116224	0.595899	0.420930
	H105	H	0.890658	0.587275	0.600253
	H106	H	0.112136	0.422267	0.600409
	H107	H	0.888756	0.411331	0.420337
	H108	H	0.908012	0.616811	0.105052
	H109	H	0.096170	0.387207	0.099212
	H110	H	0.083725	0.608586	0.930267
	H111	H	0.910998	0.391519	0.922505
	H112	H	0.090129	0.916353	0.622390
	H113	H	0.086789	0.090512	0.398810
	H114	H	0.910967	0.092467	0.624117
	H115	H	0.914058	0.906619	0.396905
	H116	H	0.616560	0.098588	0.921950
	H117	H	0.387672	0.097391	0.096537
	H118	H	0.616347	0.914083	0.102819
	H119	H	0.391165	0.914867	0.923971
	C120	C	0.381940	0.009621	0.629435
	C121	C	0.624653	0.994196	0.631555
	C122	C	0.623537	0.012100	0.388555
	C123	C	0.379723	0.995022	0.386825
	C124	C	0.622486	0.381668	0.016959
	C125	C	0.621282	0.623378	1.000098
	C126	C	0.378975	0.625668	0.016954
	C127	C	0.381332	0.382525	1.001645
	C128	C	0.010824	0.624188	0.388558
	C129	C	0.994363	0.624069	0.630930
	C130	C	0.010598	0.381887	0.630604
	C131	C	0.993590	0.380474	0.388302
	C132	C	0.879881	0.510532	0.130893
	C133	C	0.123357	0.492850	0.130690
	C134	C	0.122762	0.510117	0.888308
	C135	C	0.879623	0.494818	0.887591
	C136	C	0.123447	0.881519	0.519076
	C137	C	0.123475	0.124076	0.501641
	C138	C	0.881194	0.124030	0.518820
	C139	C	0.881088	0.881376	0.502546
	C140	C	0.509893	0.123327	0.888037
	C141	C	0.493146	0.124555	0.129945
	C142	C	0.510997	0.881749	0.129793
	C143	C	0.493499	0.880727	0.887423
	C144	C	0.380201	0.891553	0.689249
	C145	C	0.626088	0.112013	0.692325
	C146	C	0.624301	0.893483	0.329172
	C147	C	0.378322	0.114080	0.328487
	C148	C	0.682183	0.379273	0.897988
	C149	C	0.680403	0.624348	0.119745
	C150	C	0.317919	0.627333	0.898307
	C151	C	0.321250	0.380221	0.119795
	C152	C	0.891662	0.682462	0.388148
	C153	C	0.112814	0.684554	0.635374
	C154	C	0.892999	0.320798	0.634258
	C155	C	0.111832	0.319651	0.385714
	C156	C	0.892690	0.379034	0.691645
	C157	C	0.112407	0.626737	0.692959
	C158	C	0.890951	0.623863	0.330624
	C159	C	0.112289	0.377649	0.328499
	C160	C	0.374961	0.685698	0.898474
	C161	C	0.622175	0.682072	0.119738
	C162	C	0.625133	0.320990	0.898511
	C163	C	0.376765	0.320251	0.118889
	C164	C	0.682177	0.893186	0.387642
	C165	C	0.684450	0.112172	0.635056
	C166	C	0.321850	0.891709	0.631663
	C167	C	0.319662	0.113245	0.385869
	C168	C	0.878791	0.391962	0.189879
	C169	C	0.122978	0.612072	0.189255
	C170	C	0.127002	0.393191	0.825900
	C171	C	0.876545	0.612716	0.826685
	C172	C	0.180255	0.881577	0.398614
	C173	C	0.185426	0.127303	0.619750
	C174	C	0.820017	0.126487	0.400451
	C175	C	0.820309	0.878318	0.620615
	C176	C	0.392803	0.186220	0.881860
	C177	C	0.612110	0.183825	0.132363
	C178	C	0.391256	0.824742	0.129688
	C179	C	0.611863	0.820095	0.884882
	C180	C	0.391221	0.882856	0.187373
	C181	C	0.612563	0.125741	0.189519
	C182	C	0.392629	0.127334	0.824743
	C183	C	0.612667	0.878940	0.828669
	C184	C	0.877265	0.184458	0.400535
	C185	C	0.127837	0.185438	0.619783
	C186	C	0.123662	0.822874	0.399403
	C187	C	0.877198	0.819635	0.620260
	C188	C	0.185661	0.393605	0.883361
	C189	C	0.181049	0.612121	0.131518
	C190	C	0.820234	0.392502	0.131993
	C191	C	0.818508	0.612535	0.884550
	C192	C	0.407345	0.091579	0.603444
	C193	C	0.599601	0.911986	0.605732
	C194	C	0.599148	0.094775	0.413114
	C195	C	0.404771	0.912353	0.410872
	C196	C	0.597337	0.406682	0.099718
	C197	C	0.596662	0.599301	0.916656
	C198	C	0.404566	0.601177	0.099633
	C199	C	0.407545	0.408497	0.919336
	C200	C	0.094136	0.600323	0.412433
	C201	C	0.912481	0.598542	0.604177
	C202	C	0.092319	0.407934	0.604060
	C203	C	0.911132	0.405922	0.413211
	C204	C	0.904168	0.592875	0.106559
	C205	C	0.099607	0.410136	0.106191
	C206	C	0.096191	0.591510	0.914712
	C207	C	0.905435	0.413127	0.913302
	C208	C	0.099701	0.905692	0.602336
	C209	C	0.096968	0.098525	0.419301
	C210	C	0.907307	0.098897	0.601453
	C211	C	0.906492	0.906676	0.420077
	C212	C	0.591705	0.097319	0.915064
	C213	C	0.410652	0.099990	0.104540
	C214	C	0.594490	0.904344	0.106401
	C215	C	0.410987	0.906230	0.912263
	Zn216	Zn	0.502665	0.001792	0.759521
	Zn217	Zn	0.501809	0.003908	0.258665
	Zn218	Zn	0.750693	0.502502	0.008590
	Zn219	Zn	0.251986	0.502985	0.008755
	Zn220	Zn	0.002737	0.753138	0.510790
	Zn221	Zn	0.002149	0.252582	0.509878
	Zn222	Zn	0.001955	0.503326	0.759315
	Zn223	Zn	0.002380	0.501193	0.260052
	Zn224	Zn	0.500940	0.752986	0.007715
	Zn225	Zn	0.501830	0.253056	0.008970
	Zn226	Zn	0.753284	0.002851	0.510787
	Zn227	Zn	0.251851	0.002650	0.509517
	N228	N	0.416771	0.966023	0.688003
	N229	N	0.589662	0.037578	0.690342
	N230	N	0.588924	0.968529	0.329278
	N231	N	0.414871	0.039443	0.328806
	N232	N	0.680844	0.416234	0.972773
	N233	N	0.680095	0.588890	0.044249
	N234	N	0.320294	0.590640	0.973077
	N235	N	0.323785	0.418119	0.045720
	N236	N	0.967182	0.682906	0.423142
	N237	N	0.038257	0.683089	0.597581
	N238	N	0.967408	0.322517	0.597056
	N239	N	0.037137	0.321347	0.422195
	N240	N	0.967000	0.416096	0.689709
	N241	N	0.037835	0.590094	0.690560
	N242	N	0.966384	0.588426	0.330373
	N243	N	0.037760	0.414783	0.329940
	N244	N	0.412435	0.684683	0.973071
	N245	N	0.586392	0.681687	0.044275
	N246	N	0.588696	0.322404	0.973492
	N247	N	0.413600	0.321765	0.044224
	N248	N	0.682073	0.968056	0.423563
	N249	N	0.683594	0.037835	0.598023
	N250	N	0.322586	0.966346	0.595425
	N251	N	0.320281	0.038101	0.421147
	N252	N	0.914992	0.466511	0.189665
	N253	N	0.088144	0.536815	0.189319
	N254	N	0.088407	0.466662	0.829031
	N255	N	0.913744	0.538383	0.828271
	N256	N	0.180738	0.916994	0.474212
	N257	N	0.182835	0.089843	0.545301
	N258	N	0.822293	0.089795	0.475196
	N259	N	0.822651	0.916016	0.546433
	N260	N	0.466692	0.183762	0.920642
	N261	N	0.536758	0.183636	0.096277
	N262	N	0.466859	0.823570	0.094937
	N263	N	0.536672	0.821051	0.920728
	N264	N	0.466632	0.917592	0.187699
	N265	N	0.537741	0.089646	0.188315
	N266	N	0.466313	0.088841	0.828638
	N267	N	0.538088	0.915858	0.830092
	N268	N	0.914555	0.183234	0.475307
	N269	N	0.090018	0.183516	0.545227
	N270	N	0.089495	0.822435	0.475423
	N271	N	0.914893	0.821751	0.545926
	N272	N	0.182980	0.467267	0.921451
	N273	N	0.181677	0.537043	0.096168
	N274	N	0.820786	0.467292	0.096157
	N275	N	0.820115	0.538330	0.921543
	O276	O	0.646425	0.362314	0.584876
	H277	H	0.645284	0.364752	0.591535
	H278	H	0.634631	0.372467	0.594976
	O279	O	0.712560	0.292578	0.480786
	H280	H	0.723221	0.285694	0.488606
	H281	H	0.717678	0.291156	0.486509
	O282	O	0.872138	0.983674	-0.185878
	H283	H	0.873401	0.974449	-0.196744
	H284	H	0.863268	0.983125	-0.186731
	O285	O	0.278932	0.724037	0.476666
	H286	H	0.247837	0.752768	0.466733
	H287	H	0.284432	0.724165	0.434025
	O288	O	-0.500505	-0.480791	-0.474348
	H289	H	-0.503346	-0.471406	-0.487646
	H290	H	-0.513603	-0.490478	-0.472439
	O291	O	0.897291	1.016755	0.119396
	H292	H	0.903740	1.023356	0.122875
	H293	H	0.913951	1.006829	0.110670
	O294	O	-0.108150	1.156657	-0.930646
	H295	H	-0.099847	1.162421	-0.932722
	H296	H	-0.105716	1.140165	-0.953325
	O297	O	0.666743	0.584303	0.455579
	H298	H	0.654526	0.578828	0.457012
	H299	H	0.662224	0.593942	0.447542
	O300	O	0.300680	0.706817	0.307752
	H301	H	0.267923	0.736143	0.272085
	H302	H	0.308038	0.668048	0.299697
	O303	O	1.039719	0.794745	0.070727
	H304	H	1.026982	0.801218	0.088582
	H305	H	1.026287	0.787520	0.069987
	O306	O	0.202607	0.999813	1.012860
	H307	H	0.199866	0.987246	1.035506
	H308	H	0.199812	1.008371	0.991675
	O309	O	0.713961	0.413764	0.297300
	H310	H	0.732525	0.384188	0.282389
	H311	H	0.727103	0.415491	0.284478
	O312	O	0.483183	0.296967	0.712962
	H313	H	0.472348	0.300588	0.725496
	H314	H	0.475133	0.299423	0.722231
	O315	O	-0.185502	0.990672	1.168883
	H316	H	-0.176327	0.993314	1.172779
	H317	H	-0.209755	1.006507	1.177239
	O318	O	0.499661	0.312587	-0.491386
	H319	H	0.511145	0.326156	-0.486911
	H320	H	0.515128	0.309481	-0.496654
	O321	O	0.973464	0.049085	0.996469
	H322	H	0.962494	0.045745	0.984683
	H323	H	0.971685	0.055323	0.987781
	O324	O	1.690442	0.683015	1.653564
	H325	H	1.670519	0.691698	1.626187
	H326	H	1.673796	0.687894	1.646651
	O327	O	1.030652	-0.034071	1.216122
	H328	H	1.021469	-0.041793	1.207489
	H329	H	1.050320	-0.027126	1.219731
	O330	O	0.798621	0.070503	-0.026921
	H331	H	0.799844	0.061125	-0.040606
	H332	H	0.783283	0.080731	-0.039743
	O333	O	0.665636	1.262264	1.269190
	H334	H	0.664209	1.252399	1.292624
	H335	H	0.676739	1.246189	1.242898
	O336	O	0.455616	-0.337645	1.589866
	H337	H	0.437628	-0.336916	1.578073
	H338	H	0.460685	-0.351887	1.585691
	O339	O	-0.043705	1.022184	1.118770
	H340	H	-0.038344	1.007685	1.128055
	H341	H	-0.055433	1.025241	1.122622
	O342	O	0.801165	0.201660	-0.088589
	H343	H	0.792835	0.184524	-0.109448
	H344	H	0.819383	0.212346	-0.110462
	O345	O	-0.063041	-0.215053	0.222201
	H346	H	-0.093648	-0.206478	0.221255
	H347	H	-0.067439	-0.232598	0.237803
	O348	O	1.195922	0.194368	1.199487
	H349	H	1.147322	0.204914	1.211743
	H350	H	1.204980	0.213207	1.177050
	O351	O	0.520500	0.530817	0.412010
	H352	H	0.542211	0.519648	0.413630
	H353	H	0.512457	0.528554	0.416607
	O354	O	0.447886	0.304385	0.312298
	H355	H	0.461140	0.291506	0.307788
	H356	H	0.480471	0.313240	0.315108
	O357	O	1.667597	0.698460	0.344184
	H358	H	1.667621	0.683355	0.368699
	H359	H	1.641331	0.687217	0.361671
	O360	O	0.715863	0.519822	0.648755
	H361	H	0.729629	0.524264	0.659126
	H362	H	0.710315	0.547438	0.645708
	O363	O	-0.409172	0.444563	0.319244
	H364	H	-0.401503	0.438421	0.340419
	H365	H	-0.435851	0.435270	0.309208
	O366	O	0.792407	0.782542	0.037732
	H367	H	0.773980	0.766413	0.044444
	H368	H	0.792695	0.783086	0.066420
	O369	O	0.390500	0.348928	0.493702
	H370	H	0.389863	0.336016	0.503934
	H371	H	0.394932	0.360352	0.500834
	O372	O	0.311497	0.310291	0.702427
	H373	H	0.318483	0.321255	0.693693
	H374	H	0.298586	0.301852	0.696965
	O375	O	-0.002234	1.121461	1.088637
	H376	H	-0.018419	1.130882	1.089552
	H377	H	0.012948	1.114961	1.070335
	O378	O	0.863614	-0.023581	-0.038048
	H379	H	0.844439	-0.035428	-0.041540
	H380	H	0.875433	0.010057	-0.045660
	O381	O	0.304076	0.292949	-0.474922
	H382	H	0.296883	0.281801	-0.484685
	H383	H	0.315470	0.286070	-0.471640
	O384	O	0.048890	-1.131151	0.811685
	H385	H	0.038928	-1.141635	0.805091
	H386	H	0.049527	-1.138824	0.831393
	O387	O	-0.201620	0.831126	1.213575
	H388	H	-0.211245	0.853254	1.229356
	H389	H	-0.225619	0.824879	1.228348
	O390	O	0.098340	0.209359	0.907439
	H391	H	0.091972	0.201616	0.915220
	H392	H	0.109833	0.199659	0.919306
	O393	O	1.035398	1.160010	0.159631
	H394	H	1.016385	1.155427	0.142018
	H395	H	1.035578	1.182095	0.174963
	O396	O	0.482478	0.675610	0.329139
	H397	H	0.474641	0.694494	0.299026
	H398	H	0.464531	0.663811	0.341388
	O399	O	0.196186	0.806709	0.199706
	H400	H	0.167342	0.818725	0.180553
	H401	H	0.187111	0.831691	0.181076
	O402	O	0.198570	-0.199483	0.989362
	H403	H	0.214055	-0.206157	0.981936
	H404	H	0.187785	-0.199103	0.993854
	O405	O	-0.483101	-0.341431	0.693533
	H406	H	-0.501864	-0.346956	0.691513
	H407	H	-0.477967	-0.332492	0.705312
	O408	O	0.530396	0.718873	0.467528
	H409	H	0.512139	0.726792	0.443061
	H410	H	0.514808	0.723361	0.478417
	O411	O	0.331188	0.510080	0.417113
	H412	H	0.328317	0.484910	0.418088
	H413	H	0.333611	0.521061	0.408244
	O414	O	0.796289	1.118174	0.806942
	H415	H	0.815541	1.115841	0.804762
	H416	H	0.773011	1.125597	0.789498
	O417	O	0.460569	0.531028	0.367354
	H418	H	0.459219	0.518763	0.362408
	H419	H	0.461339	0.542271	0.359412
	O420	O	0.946720	0.809644	0.878121
	H421	H	0.937330	0.798859	0.885140
	H422	H	0.944527	0.813828	0.887903
	O423	O	0.102816	1.072762	-0.032719
	H424	H	0.100951	1.063326	-0.067991
	H425	H	0.109771	1.074688	-0.034320
	O426	O	1.124256	0.965154	1.057094
	H427	H	1.127466	0.958847	1.066058
	H428	H	1.112921	0.965315	1.062506
	O429	O	0.583433	0.491572	0.682212
	H430	H	0.598340	0.495344	0.688098
	H431	H	0.562547	0.510070	0.684975
	O432	O	0.072539	0.077299	-0.202214
	H433	H	0.052065	0.058934	-0.185030
	H434	H	0.071255	0.075149	-0.206277
	O435	O	0.211765	0.032271	0.220973
	H436	H	0.212453	0.069332	0.220125
	H437	H	0.232492	0.048903	0.237231
	O438	O	1.216792	-0.018832	-0.201827
	H439	H	1.208160	-0.029725	-0.203394
	H440	H	1.222243	-0.022072	-0.224215
	O441	O	0.663934	0.570494	0.513045
	H442	H	0.671586	0.564442	0.523529
	H443	H	0.652579	0.559995	0.495752
	O444	O	-0.029517	1.218598	0.795775
	H445	H	-0.023961	1.245762	0.774076
	H446	H	-0.004533	1.216233	0.810279
	O447	O	0.314332	0.484291	0.715736
	H448	H	0.318831	0.481126	0.707476
	H449	H	0.294315	0.481351	0.718305
	O450	O	0.364897	0.532867	0.523542
	H451	H	0.365738	0.542581	0.517401
	H452	H	0.359686	0.542626	0.509114
	O453	O	0.679586	0.435284	0.655682
	H454	H	0.684161	0.445288	0.660077
	H455	H	0.659407	0.456078	0.653485
	O456	O	1.214311	0.209468	0.032287
	H457	H	1.223935	0.199268	0.025518
	H458	H	1.235808	0.218623	0.040529
	O459	O	0.312616	0.512953	0.307884
	H460	H	0.301810	0.503750	0.298511
	H461	H	0.324507	0.501897	0.313388
	O462	O	0.451757	0.590996	0.707495
	H463	H	0.435687	0.585849	0.709373
	H464	H	0.441270	0.587383	0.690103
	O465	O	1.104292	-0.195824	-0.188522
	H466	H	1.100023	-0.190052	-0.179631
	H467	H	1.096059	-0.206004	-0.204745
