data_Molecule from HDF5

_cell_length_a		16.160528
_cell_length_b		16.137202
_cell_length_c		16.501377
_cell_angle_alpha	89.892114
_cell_angle_beta	90.403706
_cell_angle_gamma	89.950576
_symmetry_space_group_name_H-M	'P 1'
_symmetry_Int_Tables_number		1

loop_
	_symmetry_equiv_pos_as_xyz
	x,y,z

loop_
	_atom_site_label
	_atom_site_type_symbol
	_atom_site_fract_x
	_atom_site_fract_y
	_atom_site_fract_z
	H0	H	0.398992	0.837635	0.716848
	H1	H	0.604098	0.164042	0.717070
	H2	H	0.601690	0.837033	0.284764
	H3	H	0.396645	0.163506	0.282141
	H4	H	0.715137	0.401376	0.837622
	H5	H	0.719259	0.601651	0.159871
	H6	H	0.280514	0.600936	0.838085
	H7	H	0.285609	0.401669	0.162134
	H8	H	0.836180	0.713819	0.401302
	H9	H	0.166393	0.711457	0.597649
	H10	H	0.836532	0.286159	0.595908
	H11	H	0.167074	0.288083	0.405161
	H12	H	0.837489	0.395622	0.715766
	H13	H	0.163393	0.603188	0.719373
	H14	H	0.838241	0.604641	0.280486
	H15	H	0.164055	0.397215	0.283429
	H16	H	0.398890	0.717025	0.836865
	H17	H	0.598790	0.714946	0.161383
	H18	H	0.596857	0.285333	0.837741
	H19	H	0.402571	0.284719	0.161603
	H20	H	0.710522	0.834061	0.405808
	H21	H	0.714517	0.165062	0.598068
	H22	H	0.289792	0.834369	0.595553
	H23	H	0.287547	0.165269	0.401969
	H24	H	0.897312	0.337260	0.216654
	H25	H	0.104683	0.663846	0.217676
	H26	H	0.104487	0.337105	0.783240
	H27	H	0.896516	0.662426	0.780414
	H28	H	0.215932	0.900820	0.338109
	H29	H	0.219355	0.100142	0.660790
	H30	H	0.782511	0.099899	0.338680
	H31	H	0.786404	0.897982	0.662318
	H32	H	0.334099	0.212322	0.903200
	H33	H	0.665489	0.213040	0.097335
	H34	H	0.334988	0.787399	0.095455
	H35	H	0.665140	0.788941	0.905042
	H36	H	0.336663	0.897839	0.215607
	H37	H	0.663066	0.103593	0.218495
	H38	H	0.337491	0.105544	0.779750
	H39	H	0.663159	0.897991	0.784767
	H40	H	0.900032	0.216888	0.338594
	H41	H	0.101998	0.215547	0.661338
	H42	H	0.100015	0.783359	0.338295
	H43	H	0.904284	0.782618	0.661122
	H44	H	0.211496	0.335096	0.905533
	H45	H	0.213319	0.666289	0.097342
	H46	H	0.788605	0.335192	0.095500
	H47	H	0.786689	0.665300	0.900063
	H48	H	0.411446	0.119370	0.596983
	H49	H	0.592628	0.883605	0.592672
	H50	H	0.592000	0.119734	0.402228
	H51	H	0.409280	0.883183	0.407989
	H52	H	0.598153	0.402048	0.116461
	H53	H	0.595290	0.589708	0.885355
	H54	H	0.409113	0.588257	0.111376
	H55	H	0.408192	0.402030	0.884873
	H56	H	0.118773	0.586918	0.400169
	H57	H	0.882380	0.587350	0.599814
	H58	H	0.121068	0.405120	0.597306
	H59	H	0.882105	0.410058	0.402197
	H60	H	0.116681	0.409072	0.589901
	H61	H	0.881435	0.598773	0.589661
	H62	H	0.120051	0.597622	0.408896
	H63	H	0.884297	0.406340	0.408551
	H64	H	0.411439	0.598863	0.114312
	H65	H	0.587403	0.594964	0.886209
	H66	H	0.598725	0.412831	0.113171
	H67	H	0.398619	0.407144	0.883086
	H68	H	0.586192	0.116402	0.408733
	H69	H	0.595163	0.881604	0.596995
	H70	H	0.416913	0.114964	0.588789
	H71	H	0.407976	0.881878	0.404258
	H72	H	0.910838	0.619016	0.095949
	H73	H	0.090679	0.383534	0.093259
	H74	H	0.075162	0.613967	0.905540
	H75	H	0.911657	0.384369	0.910773
	H76	H	0.094085	0.909712	0.613348
	H77	H	0.102924	0.093574	0.382486
	H78	H	0.915655	0.094705	0.613138
	H79	H	0.903114	0.907684	0.385269
	H80	H	0.616439	0.084537	0.902146
	H81	H	0.383275	0.089061	0.093588
	H82	H	0.616346	0.915555	0.097914
	H83	H	0.382421	0.907418	0.907196
	H84	H	0.620091	0.904291	0.096671
	H85	H	0.381788	0.093442	0.093354
	H86	H	0.620892	0.099857	0.904113
	H87	H	0.384109	0.913929	0.908113
	H88	H	0.903533	0.097229	0.616969
	H89	H	0.088492	0.085161	0.388787
	H90	H	0.093975	0.903120	0.614141
	H91	H	0.906398	0.908977	0.386406
	H92	H	0.095252	0.616057	0.919370
	H93	H	0.092941	0.383560	0.093195
	H94	H	0.914604	0.616132	0.090394
	H95	H	0.902716	0.380651	0.906659
	H96	H	0.406601	0.116827	0.587358
	H97	H	0.589699	0.883011	0.597799
	H98	H	0.595495	0.118137	0.410891
	H99	H	0.411718	0.882283	0.404632
	H100	H	0.587996	0.407317	0.112475
	H101	H	0.595398	0.598770	0.882466
	H102	H	0.401148	0.595312	0.114852
	H103	H	0.406839	0.413156	0.887468
	H104	H	0.114687	0.585439	0.413710
	H105	H	0.888051	0.584719	0.585610
	H106	H	0.117488	0.413973	0.598115
	H107	H	0.885735	0.414452	0.407630
	H108	H	0.907516	0.617790	0.089301
	H109	H	0.091443	0.382921	0.095351
	H110	H	0.096496	0.623245	0.896361
	H111	H	0.911438	0.382169	0.900468
	H112	H	0.099513	0.906090	0.615293
	H113	H	0.088010	0.102968	0.384372
	H114	H	0.906368	0.085356	0.612805
	H115	H	0.906207	0.904908	0.385202
	H116	H	0.614489	0.091694	0.915815
	H117	H	0.383368	0.091727	0.089871
	H118	H	0.615772	0.909202	0.088025
	H119	H	0.381184	0.911466	0.901365
	C120	C	0.381132	0.008845	0.620156
	C121	C	0.622648	0.991484	0.623623
	C122	C	0.620525	0.008948	0.379441
	C123	C	0.379329	0.991094	0.377139
	C124	C	0.622517	0.378615	0.007272
	C125	C	0.622629	0.623425	0.990974
	C126	C	0.377139	0.623367	0.006990
	C127	C	0.377195	0.378485	0.991862
	C128	C	0.009509	0.621123	0.377693
	C129	C	0.992477	0.620071	0.621447
	C130	C	0.009919	0.379008	0.622345
	C131	C	0.992486	0.379456	0.377960
	C132	C	0.880875	0.508996	0.120168
	C133	C	0.121859	0.492090	0.122345
	C134	C	0.119791	0.509012	0.878911
	C135	C	0.878439	0.490924	0.876685
	C136	C	0.123929	0.877411	0.507671
	C137	C	0.123376	0.122453	0.491741
	C138	C	0.878536	0.122057	0.507915
	C139	C	0.877971	0.877529	0.491983
	C140	C	0.508855	0.121971	0.878098
	C141	C	0.491383	0.121364	0.121565
	C142	C	0.508726	0.879693	0.121832
	C143	C	0.491181	0.880937	0.878520
	C144	C	0.380478	0.885936	0.677498
	C145	C	0.622378	0.115057	0.678610
	C146	C	0.620536	0.885768	0.323395
	C147	C	0.378439	0.114673	0.320711
	C148	C	0.676967	0.381005	0.886123
	C149	C	0.680080	0.621751	0.111992
	C150	C	0.320019	0.621211	0.885838
	C151	C	0.323216	0.381213	0.113694
	C152	C	0.885851	0.677162	0.380035
	C153	C	0.116538	0.674956	0.618966
	C154	C	0.885809	0.323292	0.617776
	C155	C	0.116966	0.324604	0.382711
	C156	C	0.886381	0.377703	0.677394
	C157	C	0.115002	0.620866	0.679547
	C158	C	0.886752	0.622366	0.320297
	C159	C	0.115460	0.378793	0.322127
	C160	C	0.378547	0.679157	0.885448
	C161	C	0.620184	0.678086	0.112703
	C162	C	0.618257	0.323236	0.886073
	C163	C	0.381205	0.322827	0.113517
	C164	C	0.674249	0.884218	0.383999
	C165	C	0.677502	0.115607	0.619421
	C166	C	0.326210	0.884342	0.617047
	C167	C	0.323665	0.115452	0.380147
	C168	C	0.879639	0.385824	0.177267
	C169	C	0.122919	0.615186	0.178977
	C170	C	0.121360	0.385744	0.822964
	C171	C	0.878000	0.613820	0.819562
	C172	C	0.178754	0.879804	0.386227
	C173	C	0.180487	0.120064	0.612507
	C174	C	0.821523	0.120120	0.386819
	C175	C	0.823863	0.878495	0.613509
	C176	C	0.384142	0.176661	0.880896
	C177	C	0.615674	0.176429	0.118504
	C178	C	0.384641	0.824335	0.117321
	C179	C	0.615367	0.825399	0.882706
	C180	C	0.385473	0.879029	0.177378
	C181	C	0.614491	0.121998	0.178751
	C182	C	0.385816	0.123138	0.819942
	C183	C	0.614610	0.880209	0.823390
	C184	C	0.879991	0.178487	0.386750
	C185	C	0.121981	0.177609	0.613006
	C186	C	0.121009	0.821432	0.386459
	C187	C	0.882484	0.821063	0.613319
	C188	C	0.174892	0.384767	0.883444
	C189	C	0.177033	0.616405	0.118965
	C190	C	0.825145	0.384805	0.117238
	C191	C	0.823449	0.615184	0.879167
	C192	C	0.404744	0.094945	0.597445
	C193	C	0.599393	0.904903	0.602131
	C194	C	0.597891	0.095772	0.400999
	C195	C	0.402689	0.904957	0.399191
	C196	C	0.601171	0.400892	0.092163
	C197	C	0.599535	0.601037	0.906569
	C198	C	0.400423	0.600810	0.091572
	C199	C	0.398425	0.400706	0.907083
	C200	C	0.095669	0.596984	0.400964
	C201	C	0.906165	0.596885	0.598296
	C202	C	0.096064	0.402556	0.601310
	C203	C	0.906345	0.403335	0.399639
	C204	C	0.904279	0.595088	0.098393
	C205	C	0.098699	0.405778	0.100395
	C206	C	0.096098	0.595471	0.900528
	C207	C	0.901746	0.404544	0.899355
	C208	C	0.102210	0.899708	0.592191
	C209	C	0.099964	0.100266	0.406985
	C210	C	0.901647	0.099142	0.592620
	C211	C	0.899192	0.900463	0.407444
	C212	C	0.594993	0.098837	0.900811
	C213	C	0.405303	0.098122	0.098942
	C214	C	0.594895	0.902971	0.100509
	C215	C	0.404897	0.903976	0.899419
	Zn216	Zn	0.500472	0.001054	0.750313
	Zn217	Zn	0.500574	0.000525	0.250036
	Zn218	Zn	0.752375	0.501019	-0.001072
	Zn219	Zn	0.247436	0.500962	-0.000163
	Zn220	Zn	0.001316	0.748114	0.499740
	Zn221	Zn	0.001553	0.252028	0.500492
	Zn222	Zn	0.000216	0.499126	0.750079
	Zn223	Zn	0.000877	0.500622	0.249611
	Zn224	Zn	0.499811	0.752806	-0.001129
	Zn225	Zn	0.499495	0.249068	-0.000033
	Zn226	Zn	0.748401	-0.000476	0.500887
	Zn227	Zn	0.253066	-0.000130	0.499101
	N228	N	0.413945	0.964214	0.679363
	N229	N	0.588986	0.036702	0.681162
	N230	N	0.587722	0.964378	0.320673
	N231	N	0.412312	0.036373	0.318518
	N232	N	0.679575	0.414756	0.962578
	N233	N	0.681466	0.588351	0.035405
	N234	N	0.319017	0.587236	0.962314
	N235	N	0.320504	0.414926	0.036991
	N236	N	0.963244	0.676334	0.415185
	N237	N	0.039276	0.674679	0.583452
	N238	N	0.963520	0.323810	0.584284
	N239	N	0.039448	0.324863	0.416798
	N240	N	0.964471	0.411657	0.680276
	N241	N	0.036698	0.587537	0.681204
	N242	N	0.964836	0.588506	0.318670
	N243	N	0.037141	0.412312	0.319316
	N244	N	0.413417	0.680583	0.961848
	N245	N	0.585055	0.679315	0.036470
	N246	N	0.585043	0.321742	0.962487
	N247	N	0.413899	0.321016	0.036858
	N248	N	0.674585	0.962009	0.418012
	N249	N	0.677925	0.037596	0.586020
	N250	N	0.326444	0.961933	0.582287
	N251	N	0.324358	0.037911	0.414646
	N252	N	0.913411	0.464081	0.179244
	N253	N	0.089409	0.536859	0.181376
	N254	N	0.088103	0.464262	0.819926
	N255	N	0.911492	0.535531	0.817975
	N256	N	0.180531	0.914059	0.462514
	N257	N	0.181548	0.086570	0.535910
	N258	N	0.820462	0.085931	0.463185
	N259	N	0.820818	0.912704	0.537060
	N260	N	0.461369	0.176061	0.916380
	N261	N	0.538128	0.176071	0.083451
	N262	N	0.462093	0.824677	0.083428
	N263	N	0.537802	0.826049	0.916601
	N264	N	0.463677	0.912913	0.180139
	N265	N	0.536262	0.088677	0.180747
	N266	N	0.464393	0.089878	0.817988
	N267	N	0.536434	0.913958	0.820624
	N268	N	0.914889	0.179689	0.463179
	N269	N	0.087161	0.179245	0.536784
	N270	N	0.087489	0.820057	0.462783
	N271	N	0.915782	0.820393	0.536953
	N272	N	0.173904	0.462362	0.917771
	N273	N	0.176559	0.538836	0.084578
	N274	N	0.825577	0.462288	0.082442
	N275	N	0.823412	0.537628	0.913897
	O276	O	1.030046	-0.105807	1.053246
	H277	H	1.029193	-0.111754	1.059333
	H278	H	1.045999	-0.103689	1.046054
	O279	O	0.527635	0.494703	0.578078
	H280	H	0.529553	0.498281	0.581195
	H281	H	0.519141	0.492949	0.577870
	O282	O	0.970944	1.057204	0.044922
	H283	H	0.975718	1.065793	0.054809
	H284	H	0.968009	1.048506	0.042133
	O285	O	1.108820	0.074259	1.058025
	H286	H	1.114712	0.078280	1.051890
	H287	H	1.111166	0.071637	1.061951
	O288	O	0.500474	0.489276	0.552333
	H289	H	0.514500	0.486361	0.559635
	H290	H	0.501142	0.482821	0.552014
	O291	O	0.476391	0.501271	0.426187
	H292	H	0.469750	0.503582	0.427837
	H293	H	0.468888	0.502204	0.422376
	O294	O	0.502087	0.581027	0.463473
	H295	H	0.503913	0.592709	0.445727
	H296	H	0.494698	0.578307	0.463646
	O297	O	-0.025813	-0.015906	0.925175
	H298	H	-0.034389	-0.009295	0.924544
	H299	H	-0.027360	-0.022305	0.930287
	O300	O	0.124645	1.086325	0.039860
	H301	H	0.123032	1.090052	0.038315
	H302	H	0.118600	1.075706	0.040503
	O303	O	0.995715	1.165718	-0.096641
	H304	H	0.981251	1.165600	-0.093693
	H305	H	0.985790	1.166745	-0.098073
	O306	O	0.031057	1.099841	0.884894
	H307	H	0.026917	1.110847	0.869611
	H308	H	0.034690	1.107953	0.900663
	O309	O	0.496814	0.484214	0.588678
	H310	H	0.504084	0.488507	0.589057
	H311	H	0.508429	0.485472	0.594181
	O312	O	-0.112018	-0.049544	-0.026883
	H313	H	-0.122154	-0.063428	-0.027420
	H314	H	-0.114228	-0.041917	-0.008179
	O315	O	1.103478	0.021774	-0.076917
	H316	H	1.102198	0.019944	-0.075922
	H317	H	1.092752	0.020357	-0.077485
	O318	O	1.048987	0.985850	1.016189
	H319	H	1.048256	0.988134	1.001022
	H320	H	1.049868	0.974475	1.019753
	O321	O	0.510899	0.455218	1.402609
	H322	H	0.503405	0.456631	1.403618
	H323	H	0.516188	0.459344	1.402176
	O324	O	0.558889	0.547344	0.562575
	H325	H	0.567299	0.556718	0.558319
	H326	H	0.566104	0.553242	0.568339
	O327	O	-0.482451	0.574301	-0.529759
	H328	H	-0.479078	0.576312	-0.536613
	H329	H	-0.492285	0.568148	-0.514313
	O330	O	0.418387	0.546068	0.415162
	H331	H	0.416679	0.550017	0.421719
	H332	H	0.420008	0.551486	0.407115
	O333	O	-0.047317	1.003708	0.956811
	H334	H	-0.050852	1.006881	0.965274
	H335	H	-0.048781	1.011781	0.960561
	O336	O	-0.008141	-0.028271	0.120291
	H337	H	-0.008161	-0.021784	0.118113
	H338	H	-0.001951	-0.034621	0.123402
	O339	O	0.516321	0.446851	0.410891
	H340	H	0.511792	0.453127	0.408033
	H341	H	0.522792	0.433625	0.415480
	O342	O	1.058484	0.966925	1.055181
	H343	H	1.064429	0.971040	1.059593
	H344	H	1.060952	0.960897	1.046356
	O345	O	0.962947	0.956728	-0.032901
	H346	H	0.970105	0.948525	-0.026787
	H347	H	0.946883	0.958818	-0.044560
	O348	O	0.522761	0.413224	0.533657
	H349	H	0.525879	0.412723	0.540112
	H350	H	0.518936	0.425259	0.537143
	O351	O	0.886545	0.035760	1.101518
	H352	H	0.907536	0.035732	1.107222
	H353	H	0.885492	0.040199	1.101312
	O354	O	0.483936	0.505427	0.487482
	H355	H	0.461326	0.500516	0.486851
	H356	H	0.484974	0.504179	0.474720
	O357	O	0.470039	-0.502929	0.618193
	H358	H	0.466389	-0.501715	0.621837
	H359	H	0.472120	-0.495763	0.618213
	O360	O	0.540512	0.522426	0.491241
	H361	H	0.545045	0.527313	0.499016
	H362	H	0.534924	0.510405	0.487472
	O363	O	0.450241	0.430621	0.429420
	H364	H	0.447831	0.430657	0.423327
	H365	H	0.452332	0.428546	0.424952
	O366	O	1.563398	0.531072	0.563094
	H367	H	1.572187	0.539097	0.560078
	H368	H	1.561146	0.519760	0.562879
	O369	O	0.939486	-0.036768	1.084267
	H370	H	0.937727	-0.032790	1.091023
	H371	H	0.940145	-0.037797	1.084157
	O372	O	-0.090290	-0.015240	-0.118803
	H373	H	-0.093826	-0.015284	-0.119960
	H374	H	-0.077383	-0.007996	-0.115831
	O375	O	0.849446	-0.077974	0.041262
	H376	H	0.847839	-0.084625	0.039122
	H377	H	0.862699	-0.078646	0.046383
	O378	O	0.520566	0.461408	0.461929
	H379	H	0.514923	0.445194	0.463971
	H380	H	0.526372	0.462278	0.469105
	O381	O	0.125513	0.961512	0.961153
	H382	H	0.108165	0.977759	0.948151
	H383	H	0.137985	0.961311	0.955595
