data_Molecule from HDF5

_cell_length_a		16.257770
_cell_length_b		16.455651
_cell_length_c		16.336594
_cell_angle_alpha	89.846135
_cell_angle_beta	90.076048
_cell_angle_gamma	90.045531
_symmetry_space_group_name_H-M	'P 1'
_symmetry_Int_Tables_number		1

loop_
	_symmetry_equiv_pos_as_xyz
	x,y,z

loop_
	_atom_site_label
	_atom_site_type_symbol
	_atom_site_fract_x
	_atom_site_fract_y
	_atom_site_fract_z
	H0	H	0.407201	0.840535	0.740306
	H1	H	0.617969	0.158621	0.738813
	H2	H	0.617277	0.840531	0.297735
	H3	H	0.407424	0.158430	0.298284
	H4	H	0.732417	0.395961	0.860044
	H5	H	0.732032	0.603843	0.180485
	H6	H	0.295381	0.599027	0.857753
	H7	H	0.298372	0.400082	0.181967
	H8	H	0.851953	0.720074	0.413806
	H9	H	0.174217	0.718893	0.623872
	H10	H	0.853218	0.277092	0.625853
	H11	H	0.173921	0.281765	0.418032
	H12	H	0.851768	0.395756	0.739043
	H13	H	0.176131	0.598982	0.735745
	H14	H	0.851531	0.603546	0.299150
	H15	H	0.173726	0.398214	0.303811
	H16	H	0.405979	0.719810	0.859695
	H17	H	0.619039	0.721999	0.178855
	H18	H	0.617807	0.279968	0.859545
	H19	H	0.405753	0.277125	0.178227
	H20	H	0.731564	0.839279	0.415884
	H21	H	0.733423	0.158436	0.622508
	H22	H	0.292640	0.839619	0.622917
	H23	H	0.294522	0.159567	0.416495
	H24	H	0.905718	0.340004	0.242905
	H25	H	0.114061	0.659660	0.238061
	H26	H	0.118470	0.340059	0.802153
	H27	H	0.908930	0.659022	0.798988
	H28	H	0.229683	0.898047	0.357486
	H29	H	0.231528	0.098723	0.680037
	H30	H	0.795114	0.101279	0.357944
	H31	H	0.793135	0.895811	0.679096
	H32	H	0.350764	0.219371	0.912704
	H33	H	0.671690	0.222340	0.125030
	H34	H	0.351882	0.779565	0.124349
	H35	H	0.671724	0.778402	0.913571
	H36	H	0.351100	0.897322	0.236816
	H37	H	0.673300	0.104254	0.238337
	H38	H	0.350420	0.101428	0.799757
	H39	H	0.672320	0.894652	0.799332
	H40	H	0.906710	0.221251	0.360518
	H41	H	0.120656	0.218985	0.679024
	H42	H	0.118623	0.778049	0.359730
	H43	H	0.906691	0.777868	0.679301
	H44	H	0.229078	0.338772	0.921394
	H45	H	0.230232	0.659306	0.121821
	H46	H	0.788692	0.340487	0.126884
	H47	H	0.793083	0.659503	0.916542
	H48	H	0.423605	0.111527	0.605919
	H49	H	0.598626	0.888780	0.604411
	H50	H	0.600630	0.110573	0.433207
	H51	H	0.429601	0.887144	0.426811
	H52	H	0.596836	0.407299	0.133581
	H53	H	0.596317	0.586356	0.909172
	H54	H	0.420217	0.591968	0.135539
	H55	H	0.420924	0.402146	0.901773
	H56	H	0.130262	0.597513	0.428127
	H57	H	0.895794	0.586927	0.618233
	H58	H	0.130849	0.411078	0.621330
	H59	H	0.897710	0.405371	0.437888
	H60	H	0.130935	0.398450	0.607710
	H61	H	0.895611	0.597897	0.605918
	H62	H	0.123828	0.588853	0.438801
	H63	H	0.900160	0.416115	0.433740
	H64	H	0.422907	0.589636	0.134384
	H65	H	0.598716	0.596120	0.904294
	H66	H	0.601292	0.410106	0.134095
	H67	H	0.414405	0.411126	0.902864
	H68	H	0.607434	0.114195	0.427745
	H69	H	0.606224	0.884653	0.609093
	H70	H	0.418125	0.114344	0.609319
	H71	H	0.419141	0.886697	0.435044
	H72	H	0.932253	0.608085	0.108162
	H73	H	0.104731	0.384824	0.113491
	H74	H	0.101685	0.616198	0.921056
	H75	H	0.918852	0.386747	0.935365
	H76	H	0.104651	0.912180	0.632438
	H77	H	0.100296	0.094617	0.404683
	H78	H	0.925872	0.083158	0.632065
	H79	H	0.928670	0.911654	0.407351
	H80	H	0.625463	0.089943	0.930359
	H81	H	0.396517	0.093963	0.107525
	H82	H	0.624640	0.912453	0.102509
	H83	H	0.397652	0.916204	0.927148
	H84	H	0.627134	0.914306	0.111228
	H85	H	0.399985	0.087436	0.104034
	H86	H	0.626153	0.089637	0.930560
	H87	H	0.394256	0.905129	0.926825
	H88	H	0.927460	0.091878	0.633342
	H89	H	0.105793	0.091281	0.402748
	H90	H	0.097114	0.910143	0.631870
	H91	H	0.924302	0.902146	0.402930
	H92	H	0.099242	0.611293	0.932933
	H93	H	0.104573	0.384020	0.113747
	H94	H	0.918883	0.610055	0.102424
	H95	H	0.920554	0.384041	0.925379
	H96	H	0.424469	0.113486	0.612943
	H97	H	0.597943	0.885668	0.614417
	H98	H	0.598937	0.112813	0.423878
	H99	H	0.417599	0.882069	0.422213
	H100	H	0.596593	0.413262	0.131316
	H101	H	0.606835	0.587795	0.904144
	H102	H	0.423226	0.593053	0.134129
	H103	H	0.425565	0.411478	0.906628
	H104	H	0.127471	0.583106	0.425542
	H105	H	0.902277	0.583020	0.603495
	H106	H	0.124024	0.415390	0.604585
	H107	H	0.895294	0.407923	0.426741
	H108	H	0.921896	0.614325	0.116612
	H109	H	0.104340	0.384022	0.114051
	H110	H	0.110948	0.615230	0.929684
	H111	H	0.928315	0.388889	0.931231
	H112	H	0.103092	0.904379	0.634287
	H113	H	0.100506	0.088344	0.405557
	H114	H	0.919351	0.088713	0.634416
	H115	H	0.917990	0.911268	0.403524
	H116	H	0.626528	0.090023	0.930278
	H117	H	0.396948	0.087197	0.111970
	H118	H	0.628698	0.906119	0.107500
	H119	H	0.399869	0.908935	0.936440
	C120	C	0.390390	0.007668	0.640812
	C121	C	0.633871	0.990998	0.640846
	C122	C	0.634392	0.007474	0.396746
	C123	C	0.390961	0.990903	0.397091
	C124	C	0.631748	0.378459	0.027712
	C125	C	0.632877	0.621530	1.011829
	C126	C	0.390470	0.621720	0.028171
	C127	C	0.390026	0.377613	1.010205
	C128	C	0.020786	0.620958	0.398680
	C129	C	1.004907	0.620313	0.640538
	C130	C	0.022142	0.377008	0.642275
	C131	C	1.004032	0.378791	0.400718
	C132	C	0.890480	0.506698	0.141962
	C133	C	0.134669	0.490490	0.143268
	C134	C	0.134720	0.508246	0.898673
	C135	C	0.890901	0.491765	0.898446
	C136	C	0.133839	0.877830	0.527315
	C137	C	0.134496	0.121168	0.510350
	C138	C	0.892287	0.119905	0.527702
	C139	C	0.891230	0.876998	0.510549
	C140	C	0.520103	0.121080	0.897952
	C141	C	0.503517	0.121538	0.139784
	C142	C	0.520682	0.878886	0.139529
	C143	C	0.503239	0.878341	0.898093
	C144	C	0.388537	0.888178	0.700450
	C145	C	0.636318	0.110800	0.699754
	C146	C	0.635758	0.887903	0.337630
	C147	C	0.389358	0.110701	0.337987
	C148	C	0.692390	0.377246	0.907850
	C149	C	0.692681	0.622638	0.132225
	C150	C	0.332966	0.619927	0.906567
	C151	C	0.335151	0.379147	0.132911
	C152	C	0.899905	0.680201	0.395825
	C153	C	0.126189	0.678831	0.641838
	C154	C	0.901132	0.317446	0.643885
	C155	C	0.125528	0.320883	0.399571
	C156	C	0.900493	0.376178	0.700583
	C157	C	0.127024	0.619491	0.697838
	C158	C	0.899594	0.621967	0.338952
	C159	C	0.125383	0.378670	0.342521
	C160	C	0.388551	0.679581	0.907324
	C161	C	0.636346	0.681713	0.131341
	C162	C	0.635404	0.319265	0.907682
	C163	C	0.388850	0.318310	0.131014
	C164	C	0.692924	0.887351	0.396374
	C165	C	0.693496	0.110890	0.641348
	C166	C	0.331803	0.887510	0.641738
	C167	C	0.332896	0.111278	0.396847
	C168	C	0.887376	0.387679	0.202708
	C169	C	0.133980	0.611192	0.199961
	C170	C	0.135997	0.387785	0.841459
	C171	C	0.890298	0.611222	0.838846
	C172	C	0.191575	0.877870	0.406046
	C173	C	0.193004	0.119528	0.631608
	C174	C	0.833635	0.120894	0.406630
	C175	C	0.832049	0.875947	0.631253
	C176	C	0.398902	0.179701	0.894957
	C177	C	0.624083	0.181767	0.142455
	C178	C	0.400124	0.819379	0.142383
	C179	C	0.623851	0.818637	0.895793
	C180	C	0.399530	0.878344	0.198112
	C181	C	0.624879	0.123000	0.199013
	C182	C	0.398684	0.121190	0.838625
	C183	C	0.624072	0.876482	0.838726
	C184	C	0.889299	0.180407	0.407837
	C185	C	0.137861	0.179265	0.631113
	C186	C	0.135976	0.818521	0.407259
	C187	C	0.888871	0.817782	0.631161
	C188	C	0.191441	0.387309	0.900772
	C189	C	0.191507	0.611401	0.141750
	C190	C	0.829293	0.387812	0.144797
	C191	C	0.832440	0.611710	0.897366
	C192	C	0.414915	0.091462	0.616375
	C193	C	0.608475	0.908006	0.616282
	C194	C	0.609647	0.090971	0.421212
	C195	C	0.415043	0.906997	0.421146
	C196	C	0.605734	0.403134	0.111316
	C197	C	0.607891	0.597224	0.927823
	C198	C	0.414893	0.598368	0.112480
	C199	C	0.413536	0.401135	0.925842
	C200	C	0.105085	0.596695	0.423766
	C201	C	0.919952	0.596428	0.616171
	C202	C	0.106684	0.401260	0.618012
	C203	C	0.919696	0.402818	0.425710
	C204	C	0.916575	0.589526	0.116435
	C205	C	0.111237	0.406267	0.120399
	C206	C	0.110846	0.592321	0.921445
	C207	C	0.915459	0.408234	0.923544
	C208	C	0.108947	0.902004	0.611105
	C209	C	0.109560	0.098068	0.426299
	C210	C	0.917222	0.094999	0.611501
	C211	C	0.916343	0.901389	0.426641
	C212	C	0.604093	0.096952	0.923198
	C213	C	0.419564	0.096696	0.114929
	C214	C	0.605033	0.903675	0.114246
	C215	C	0.419027	0.903103	0.922989
	Zn216	Zn	0.512048	-0.000031	0.769702
	Zn217	Zn	0.512256	-0.000437	0.268084
	Zn218	Zn	0.760980	0.499332	0.020401
	Zn219	Zn	0.262557	0.499411	0.020310
	Zn220	Zn	0.012801	0.749282	0.519587
	Zn221	Zn	0.013120	0.248937	0.520535
	Zn222	Zn	0.013811	0.499073	0.769622
	Zn223	Zn	0.012132	0.498882	0.271301
	Zn224	Zn	0.511645	0.750450	0.019264
	Zn225	Zn	0.511031	0.249819	0.018152
	Zn226	Zn	0.763085	-0.000948	0.518916
	Zn227	Zn	0.262438	-0.001009	0.518286
	N228	N	0.424314	0.963927	0.699921
	N229	N	0.599962	0.035294	0.699713
	N230	N	0.600079	0.963658	0.337759
	N231	N	0.424614	0.034841	0.337811
	N232	N	0.690414	0.413222	0.983649
	N233	N	0.690806	0.586221	0.056647
	N234	N	0.334195	0.584516	0.982732
	N235	N	0.335766	0.415467	0.057011
	N236	N	0.976119	0.679802	0.432274
	N237	N	0.048899	0.679661	0.607273
	N238	N	0.977893	0.317713	0.608737
	N239	N	0.048929	0.320958	0.435264
	N240	N	0.976640	0.412425	0.699634
	N241	N	0.050525	0.583883	0.697316
	N242	N	0.975800	0.585845	0.340693
	N243	N	0.048869	0.413985	0.343030
	N244	N	0.423666	0.680918	0.983865
	N245	N	0.599625	0.680945	0.055464
	N246	N	0.598551	0.319882	0.983422
	N247	N	0.422014	0.317088	0.053721
	N248	N	0.692110	0.962722	0.432245
	N249	N	0.692386	0.035355	0.605582
	N250	N	0.332673	0.962927	0.605499
	N251	N	0.333875	0.035709	0.433027
	N252	N	0.924725	0.462569	0.201083
	N253	N	0.099473	0.534968	0.201006
	N254	N	0.101353	0.463884	0.839999
	N255	N	0.925595	0.535277	0.839263
	N256	N	0.190503	0.914065	0.481718
	N257	N	0.191248	0.084136	0.555606
	N258	N	0.835455	0.083815	0.482038
	N259	N	0.833255	0.911973	0.555362
	N260	N	0.475159	0.179736	0.931186
	N261	N	0.547739	0.180930	0.106251
	N262	N	0.476733	0.819548	0.106776
	N263	N	0.547639	0.819603	0.931951
	N264	N	0.475651	0.914634	0.196398
	N265	N	0.549007	0.086250	0.197692
	N266	N	0.474999	0.085121	0.840448
	N267	N	0.548115	0.913131	0.840157
	N268	N	0.925084	0.179946	0.484142
	N269	N	0.102073	0.180327	0.554852
	N270	N	0.100822	0.818320	0.483731
	N271	N	0.924922	0.818332	0.555051
	N272	N	0.190764	0.463254	0.935810
	N273	N	0.192488	0.535159	0.107539
	N274	N	0.831373	0.462777	0.107590
	N275	N	0.832626	0.536232	0.933644
	O276	O	-0.038395	0.115583	0.007523
	H277	H	-0.049085	0.124275	0.010624
	H278	H	-0.034676	0.127866	0.012334
	O279	O	0.578336	0.538017	0.580387
	H280	H	0.589627	0.541555	0.570097
	H281	H	0.565599	0.543116	0.569404
	O282	O	0.413924	-0.426954	0.624251
	H283	H	0.406399	-0.428312	0.620535
	H284	H	0.405742	-0.422274	0.623378
	O285	O	0.530079	0.495543	0.421810
	H286	H	0.528693	0.473543	0.432021
	H287	H	0.528802	0.497532	0.407549
	O288	O	1.008913	0.914974	1.018797
	H289	H	1.013847	0.914381	1.027905
	H290	H	1.020040	0.913761	1.019011
	O291	O	-0.066425	1.029259	-0.015380
	H292	H	-0.052351	1.028328	-0.017945
	H293	H	-0.075474	1.030976	-0.017998
	O294	O	0.578629	0.402915	0.477990
	H295	H	0.596413	0.399692	0.494402
	H296	H	0.575453	0.417111	0.481782
	O297	O	0.699235	0.538614	0.475487
	H298	H	0.707353	0.550833	0.472877
	H299	H	0.691233	0.542670	0.482118
	O300	O	1.060257	-0.080875	0.132687
	H301	H	1.067515	-0.073096	0.139383
	H302	H	1.061160	-0.086373	0.136020
	O303	O	0.432886	0.666069	0.435435
	H304	H	0.430741	0.662986	0.441879
	H305	H	0.440085	0.667167	0.437165
	O306	O	0.620935	0.598709	0.609229
	H307	H	0.641369	0.610522	0.621890
	H308	H	0.621544	0.593803	0.599957
	O309	O	-0.012960	0.742706	0.121154
	H310	H	-0.007389	0.750598	0.125580
	H311	H	-0.028901	0.735921	0.123518
	O312	O	-0.083608	0.166739	-0.174525
	H313	H	-0.103475	0.143528	-0.170628
	H314	H	-0.094013	0.174910	-0.169248
	O315	O	1.100116	0.115453	1.113953
	H316	H	1.125684	0.129529	1.115273
	H317	H	1.092373	0.092439	1.104193
	O318	O	-0.022301	1.035841	1.128649
	H319	H	-0.022307	1.033295	1.137183
	H320	H	-0.010326	1.036586	1.122709
	O321	O	0.453616	0.433447	0.561752
	H322	H	0.459219	0.425206	0.581905
	H323	H	0.450412	0.433525	0.561814
	O324	O	0.068260	1.138347	-0.151507
	H325	H	0.030832	1.132184	-0.152089
	H326	H	0.068410	1.161144	-0.170817
	O327	O	-0.025950	-0.131986	0.146318
	H328	H	-0.018572	-0.143993	0.142981
	H329	H	-0.024159	-0.141033	0.141383
	O330	O	0.191937	-0.185176	0.956804
	H331	H	0.199671	-0.188715	0.951589
	H332	H	0.183784	-0.194121	0.933739
	O333	O	0.178166	-0.029843	1.039051
	H334	H	0.183086	-0.032270	1.025018
	H335	H	0.172248	-0.026483	1.042741
	O336	O	0.487030	0.540011	0.669854
	H337	H	0.490582	0.529052	0.678380
	H338	H	0.497916	0.553256	0.672198
	O339	O	1.002502	-0.031841	-0.110620
	H340	H	1.000586	-0.024831	-0.105128
	H341	H	1.011372	-0.018574	-0.109105
	O342	O	-0.410118	-0.447092	0.566661
	H343	H	-0.409889	-0.439653	0.554851
	H344	H	-0.411618	-0.437221	0.562725
	O345	O	0.538836	0.358165	0.567748
	H346	H	0.540997	0.370853	0.574818
	H347	H	0.540648	0.347507	0.566989
	O348	O	0.994661	1.119962	0.027694
	H349	H	0.994946	1.128248	0.021371
	H350	H	0.996017	1.124739	0.003481
	O351	O	0.109633	0.874480	0.032990
	H352	H	0.114353	0.854716	0.032232
	H353	H	0.123193	0.882424	0.016272
	O354	O	0.982722	0.046091	1.186757
	H355	H	0.983166	0.053652	1.190566
	H356	H	0.962058	0.045200	1.177280
	O357	O	0.583442	0.324694	0.475090
	H358	H	0.579491	0.341766	0.489454
	H359	H	0.590258	0.311330	0.460714
	O360	O	0.642117	0.400158	0.461501
	H361	H	0.638222	0.401843	0.475088
	H362	H	0.631837	0.400788	0.452774
	O363	O	0.121007	0.883711	0.825533
	H364	H	0.123814	0.892906	0.809523
	H365	H	0.127343	0.894673	0.830607
	O366	O	0.495697	0.503560	0.352777
	H367	H	0.489298	0.492179	0.359133
	H368	H	0.507295	0.501730	0.347674
	O369	O	-0.587010	1.629562	-0.362834
	H370	H	-0.579240	1.634182	-0.367753
	H371	H	-0.567958	1.623222	-0.356444
	O372	O	0.529723	0.539531	0.429192
	H373	H	0.539127	0.521885	0.425178
	H374	H	0.529060	0.547025	0.423710
	O375	O	0.503545	0.658385	0.527325
	H376	H	0.508783	0.655105	0.512338
	H377	H	0.501361	0.653405	0.530158
	O378	O	1.668953	0.673052	-0.443148
	H379	H	1.669024	0.673193	-0.438795
	H380	H	1.667273	0.691822	-0.444928
	O381	O	1.160256	-0.035886	0.061833
	H382	H	1.163328	-0.032067	0.069997
	H383	H	1.168436	-0.029275	0.062463
	O384	O	0.843760	1.100854	-0.155597
	H385	H	0.831671	1.083904	-0.154625
	H386	H	0.838478	1.092319	-0.129198
	O387	O	-0.581404	-0.621285	0.372741
	H388	H	-0.578387	-0.619252	0.364379
	H389	H	-0.579640	-0.625077	0.391280
	O390	O	-0.136283	1.136782	0.079349
	H391	H	-0.142970	1.139644	0.091980
	H392	H	-0.114833	1.130625	0.085569
	O393	O	0.827900	0.949691	1.175217
	H394	H	0.840254	0.938970	1.176629
	H395	H	0.810278	0.942673	1.196502
	O396	O	0.468343	0.436505	0.547922
	H397	H	0.463255	0.427395	0.534861
	H398	H	0.463348	0.436788	0.546737
	O399	O	-0.110439	0.869275	0.899592
	H400	H	-0.092660	0.854999	0.896403
	H401	H	-0.109905	0.884007	0.893947
	O402	O	0.447535	0.394595	0.436630
	H403	H	0.446374	0.387763	0.429325
	H404	H	0.450671	0.400606	0.433197
	O405	O	1.061348	0.944442	0.068992
	H406	H	1.061249	0.937148	0.061836
	H407	H	1.072388	0.948976	0.065467
	O408	O	0.938079	1.188778	0.011832
	H409	H	0.924758	1.187610	0.014620
	H410	H	0.934245	1.184776	0.016340
	O411	O	1.166667	0.024742	0.960392
	H412	H	1.159750	0.024199	0.966664
	H413	H	1.166550	0.031833	0.955918
	O414	O	0.384829	0.559461	0.365399
	H415	H	0.381402	0.568059	0.369503
	H416	H	0.364704	0.565447	0.357914
	O417	O	0.484203	0.539309	0.624775
	H418	H	0.493766	0.528910	0.631592
	H419	H	0.482655	0.535383	0.609635
