data_Molecule from HDF5

_cell_length_a		16.290077
_cell_length_b		16.329794
_cell_length_c		16.344189
_cell_angle_alpha	90.055723
_cell_angle_beta	90.057181
_cell_angle_gamma	90.004176
_symmetry_space_group_name_H-M	'P 1'
_symmetry_Int_Tables_number		1

loop_
	_symmetry_equiv_pos_as_xyz
	x,y,z

loop_
	_atom_site_label
	_atom_site_type_symbol
	_atom_site_fract_x
	_atom_site_fract_y
	_atom_site_fract_z
	H0	H	0.401289	0.836508	0.715020
	H1	H	0.598517	0.163259	0.715091
	H2	H	0.599061	0.837000	0.285060
	H3	H	0.400791	0.163215	0.284866
	H4	H	0.713230	0.402239	0.835943
	H5	H	0.713923	0.596979	0.163513
	H6	H	0.285971	0.597810	0.836279
	H7	H	0.285411	0.402046	0.163357
	H8	H	0.835766	0.713415	0.402607
	H9	H	0.163842	0.714512	0.597954
	H10	H	0.835642	0.286698	0.597288
	H11	H	0.163368	0.285437	0.401269
	H12	H	0.836324	0.402409	0.713128
	H13	H	0.163791	0.598516	0.714440
	H14	H	0.835828	0.596375	0.286851
	H15	H	0.164542	0.402874	0.286069
	H16	H	0.401632	0.714808	0.837201
	H17	H	0.597406	0.713957	0.163231
	H18	H	0.597880	0.284561	0.836996
	H19	H	0.402767	0.286656	0.164247
	H20	H	0.713305	0.836593	0.403591
	H21	H	0.714371	0.162999	0.598390
	H22	H	0.286808	0.836104	0.596289
	H23	H	0.285894	0.163910	0.402789
	H24	H	0.901383	0.336562	0.214934
	H25	H	0.098184	0.663292	0.213992
	H26	H	0.098339	0.337256	0.784152
	H27	H	0.901595	0.662929	0.785510
	H28	H	0.213579	0.902871	0.336289
	H29	H	0.213825	0.097507	0.663596
	H30	H	0.785390	0.097811	0.337078
	H31	H	0.786428	0.902806	0.663781
	H32	H	0.335890	0.213081	0.904311
	H33	H	0.664085	0.213760	0.098530
	H34	H	0.336368	0.785591	0.098448
	H35	H	0.664205	0.786357	0.903164
	H36	H	0.335836	0.902397	0.214202
	H37	H	0.664217	0.097355	0.214142
	H38	H	0.336249	0.098643	0.785846
	H39	H	0.663168	0.901853	0.786140
	H40	H	0.902045	0.214008	0.336836
	H41	H	0.098223	0.214883	0.663352
	H42	H	0.097725	0.785627	0.336590
	H43	H	0.901898	0.785634	0.663055
	H44	H	0.213566	0.336267	0.901960
	H45	H	0.213879	0.663001	0.097485
	H46	H	0.787012	0.335875	0.096380
	H47	H	0.785731	0.663164	0.902106
	H48	H	0.405117	0.117201	0.598526
	H49	H	0.600058	0.879460	0.601893
	H50	H	0.588513	0.113206	0.411028
	H51	H	0.413610	0.885628	0.404524
	H52	H	0.594791	0.404071	0.116676
	H53	H	0.585669	0.597343	0.884954
	H54	H	0.405112	0.593858	0.116521
	H55	H	0.397603	0.397805	0.879784
	H56	H	0.114861	0.589532	0.407912
	H57	H	0.882387	0.600020	0.592036
	H58	H	0.113452	0.416390	0.593584
	H59	H	0.882422	0.407854	0.401157
	H60	H	0.120043	0.402300	0.599840
	H61	H	0.886711	0.589931	0.588143
	H62	H	0.118512	0.594651	0.401091
	H63	H	0.882438	0.401817	0.406792
	H64	H	0.405875	0.591574	0.115262
	H65	H	0.599597	0.596037	0.881127
	H66	H	0.596757	0.407720	0.116328
	H67	H	0.403320	0.416601	0.885987
	H68	H	0.600333	0.117928	0.408228
	H69	H	0.582133	0.886992	0.596031
	H70	H	0.411722	0.114470	0.593879
	H71	H	0.405652	0.885960	0.412681
	H72	H	0.910491	0.612573	0.086432
	H73	H	0.093878	0.384494	0.087183
	H74	H	0.097150	0.616045	0.909109
	H75	H	0.903701	0.383225	0.906744
	H76	H	0.098485	0.911517	0.615823
	H77	H	0.091121	0.097678	0.383626
	H78	H	0.909134	0.096818	0.616426
	H79	H	0.904071	0.905221	0.382978
	H80	H	0.611127	0.088620	0.919560
	H81	H	0.385439	0.090808	0.090729
	H82	H	0.616288	0.907051	0.095052
	H83	H	0.385296	0.907551	0.911055
	H84	H	0.616467	0.906268	0.092544
	H85	H	0.383244	0.092478	0.097476
	H86	H	0.617452	0.084584	0.895788
	H87	H	0.383260	0.909292	0.903974
	H88	H	0.903178	0.093874	0.616885
	H89	H	0.098193	0.093908	0.383240
	H90	H	0.087295	0.907588	0.613993
	H91	H	0.906199	0.909061	0.385071
	H92	H	0.093203	0.617654	0.901570
	H93	H	0.098796	0.380510	0.097900
	H94	H	0.897710	0.618255	0.093923
	H95	H	0.907530	0.383288	0.902093
	H96	H	0.404142	0.115203	0.590053
	H97	H	0.597315	0.885357	0.582965
	H98	H	0.591151	0.117172	0.399185
	H99	H	0.403030	0.881402	0.401981
	H100	H	0.592742	0.407368	0.115283
	H101	H	0.592706	0.584896	0.886971
	H102	H	0.407672	0.594152	0.115691
	H103	H	0.417000	0.401278	0.885977
	H104	H	0.116797	0.598301	0.409298
	H105	H	0.883496	0.590850	0.599013
	H106	H	0.115026	0.402932	0.584248
	H107	H	0.885655	0.409734	0.409125
	H108	H	0.911365	0.617036	0.101683
	H109	H	0.086902	0.384172	0.097263
	H110	H	0.088645	0.614885	0.908425
	H111	H	0.909540	0.384957	0.907632
	H112	H	0.095690	0.899960	0.618352
	H113	H	0.091768	0.089756	0.385362
	H114	H	0.908520	0.090617	0.615304
	H115	H	0.908760	0.905273	0.384051
	H116	H	0.620808	0.106794	0.905941
	H117	H	0.382517	0.097627	0.091696
	H118	H	0.615169	0.908648	0.093221
	H119	H	0.381851	0.902967	0.906572
	C120	C	0.378533	0.007871	0.621957
	C121	C	0.621507	0.991920	0.621743
	C122	C	0.621698	0.008274	0.378213
	C123	C	0.378482	0.992221	0.378250
	C124	C	0.621893	0.378150	0.007830
	C125	C	0.621455	0.621172	0.991818
	C126	C	0.378255	0.621470	0.007939
	C127	C	0.378267	0.378219	0.992381
	C128	C	0.008377	0.621903	0.378272
	C129	C	0.992105	0.621736	0.621310
	C130	C	0.008063	0.378923	0.620889
	C131	C	0.991988	0.378626	0.378042
	C132	C	0.878479	0.508017	0.121604
	C133	C	0.121159	0.491494	0.121406
	C134	C	0.121172	0.508064	0.878204
	C135	C	0.878232	0.491513	0.877665
	C136	C	0.121823	0.878386	0.507979
	C137	C	0.121637	0.121919	0.491895
	C138	C	0.878472	0.121647	0.508383
	C139	C	0.878305	0.878590	0.491914
	C140	C	0.508060	0.121399	0.879236
	C141	C	0.491780	0.121878	0.121879
	C142	C	0.507910	0.878923	0.121626
	C143	C	0.491650	0.878367	0.879056
	C144	C	0.381205	0.884992	0.676605
	C145	C	0.618945	0.114533	0.676987
	C146	C	0.618737	0.885497	0.323787
	C147	C	0.380983	0.114968	0.323536
	C148	C	0.675864	0.381209	0.884857
	C149	C	0.676413	0.618201	0.114651
	C150	C	0.323770	0.618351	0.885168
	C151	C	0.323524	0.381613	0.114976
	C152	C	0.884695	0.675747	0.381980
	C153	C	0.115075	0.676570	0.618471
	C154	C	0.884824	0.324343	0.617786
	C155	C	0.114854	0.323373	0.380771
	C156	C	0.885035	0.381814	0.675493
	C157	C	0.114975	0.619051	0.676404
	C158	C	0.884864	0.618235	0.323930
	C159	C	0.115368	0.381927	0.323766
	C160	C	0.380962	0.676720	0.885423
	C161	C	0.618664	0.676282	0.114553
	C162	C	0.618653	0.322827	0.885258
	C163	C	0.381803	0.324207	0.115290
	C164	C	0.676230	0.885428	0.381808
	C165	C	0.676290	0.114522	0.618771
	C166	C	0.323980	0.885037	0.618264
	C167	C	0.323835	0.115114	0.382007
	C168	C	0.881504	0.384995	0.176057
	C169	C	0.118413	0.614500	0.175964
	C170	C	0.118915	0.385639	0.822603
	C171	C	0.880578	0.614283	0.822969
	C172	C	0.175966	0.881958	0.385036
	C173	C	0.176276	0.118735	0.614909
	C174	C	0.823586	0.118491	0.385475
	C175	C	0.824023	0.881899	0.615068
	C176	C	0.384675	0.175543	0.883151
	C177	C	0.615275	0.176250	0.119092
	C178	C	0.385076	0.823437	0.119074
	C179	C	0.615009	0.823485	0.881907
	C180	C	0.384809	0.881490	0.176604
	C181	C	0.615212	0.118298	0.176363
	C182	C	0.384980	0.118685	0.824314
	C183	C	0.614756	0.881109	0.824223
	C184	C	0.881416	0.176062	0.385364
	C185	C	0.118902	0.176827	0.614847
	C186	C	0.118497	0.823816	0.385023
	C187	C	0.881302	0.823720	0.614573
	C188	C	0.176027	0.385186	0.881065
	C189	C	0.176129	0.614395	0.118413
	C190	C	0.824727	0.384583	0.117272
	C191	C	0.823589	0.614357	0.881327
	C192	C	0.400489	0.093764	0.600362
	C193	C	0.599640	0.906123	0.600079
	C194	C	0.599805	0.094086	0.399787
	C195	C	0.400724	0.906485	0.399991
	C196	C	0.600785	0.399821	0.093840
	C197	C	0.599048	0.599283	0.906353
	C198	C	0.400004	0.599741	0.093755
	C199	C	0.399662	0.399184	0.906065
	C200	C	0.094470	0.600571	0.399801
	C201	C	0.906112	0.599904	0.599376
	C202	C	0.094027	0.400758	0.598879
	C203	C	0.905896	0.400053	0.399476
	C204	C	0.900113	0.593930	0.100403
	C205	C	0.099526	0.405364	0.100258
	C206	C	0.099454	0.593965	0.899979
	C207	C	0.900326	0.405805	0.899060
	C208	C	0.100172	0.899794	0.593744
	C209	C	0.099969	0.100190	0.406307
	C210	C	0.900360	0.100076	0.594022
	C211	C	0.899901	0.900176	0.406091
	C212	C	0.594216	0.099660	0.900585
	C213	C	0.405923	0.100123	0.099775
	C214	C	0.593794	0.900915	0.099832
	C215	C	0.405751	0.900147	0.900810
	Zn216	Zn	0.499769	-0.000328	0.750659
	Zn217	Zn	0.499900	0.000361	0.249757
	Zn218	Zn	0.750545	0.499499	-0.000476
	Zn219	Zn	0.249560	0.499876	0.000162
	Zn220	Zn	-0.000032	0.750237	0.499810
	Zn221	Zn	0.000143	0.250276	0.499866
	Zn222	Zn	-0.000215	0.500213	0.749399
	Zn223	Zn	0.000145	0.500044	0.250108
	Zn224	Zn	0.499992	0.749911	0.000158
	Zn225	Zn	0.500254	0.249898	0.000621
	Zn226	Zn	0.750192	-0.000031	0.500184
	Zn227	Zn	0.250159	0.000345	0.499783
	N228	N	0.414354	0.962456	0.678896
	N229	N	0.585382	0.037265	0.678809
	N230	N	0.585584	0.962890	0.321396
	N231	N	0.414261	0.037617	0.321179
	N232	N	0.678084	0.414810	0.961995
	N233	N	0.678315	0.584699	0.037233
	N234	N	0.321988	0.584741	0.962312
	N235	N	0.321373	0.414380	0.037582
	N236	N	0.962473	0.678357	0.414925
	N237	N	0.037665	0.678314	0.584874
	N238	N	0.962528	0.322082	0.584769
	N239	N	0.037213	0.321145	0.413845
	N240	N	0.962627	0.415012	0.677589
	N241	N	0.037418	0.585830	0.678313
	N242	N	0.962515	0.585349	0.321755
	N243	N	0.037838	0.415239	0.321786
	N244	N	0.413922	0.678820	0.962865
	N245	N	0.585183	0.678003	0.037368
	N246	N	0.586054	0.320689	0.962874
	N247	N	0.415116	0.322118	0.037915
	N248	N	0.677725	0.962708	0.415307
	N249	N	0.677794	0.037363	0.585048
	N250	N	0.322208	0.962343	0.584985
	N251	N	0.322366	0.037910	0.415332
	N252	N	0.914297	0.462646	0.178722
	N253	N	0.085034	0.537133	0.177847
	N254	N	0.085409	0.462995	0.820890
	N255	N	0.914337	0.537111	0.820893
	N256	N	0.178292	0.915051	0.462471
	N257	N	0.178020	0.085241	0.537672
	N258	N	0.821712	0.085372	0.462833
	N259	N	0.821897	0.915067	0.537701
	N260	N	0.462132	0.177368	0.916462
	N261	N	0.537701	0.178461	0.085845
	N262	N	0.462388	0.821863	0.085496
	N263	N	0.537570	0.821766	0.915397
	N264	N	0.462227	0.915152	0.178272
	N265	N	0.537463	0.085468	0.178537
	N266	N	0.462835	0.085773	0.821879
	N267	N	0.537158	0.914382	0.822280
	N268	N	0.914799	0.178273	0.462599
	N269	N	0.085674	0.178922	0.537432
	N270	N	0.085503	0.821569	0.462408
	N271	N	0.914612	0.821799	0.537123
	N272	N	0.177509	0.462357	0.914799
	N273	N	0.177880	0.536944	0.085088
	N274	N	0.822735	0.461905	0.084142
	N275	N	0.822058	0.537076	0.914529
