data_Molecule from HDF5

_cell_length_a		16.318453
_cell_length_b		16.259480
_cell_length_c		16.243571
_cell_angle_alpha	89.818628
_cell_angle_beta	89.861204
_cell_angle_gamma	90.603159
_symmetry_space_group_name_H-M	'P 1'
_symmetry_Int_Tables_number		1

loop_
	_symmetry_equiv_pos_as_xyz
	x,y,z

loop_
	_atom_site_label
	_atom_site_type_symbol
	_atom_site_fract_x
	_atom_site_fract_y
	_atom_site_fract_z
	H0	H	0.402981	0.843188	0.714066
	H1	H	0.603659	0.170013	0.711903
	H2	H	0.599440	0.841970	0.284838
	H3	H	0.407174	0.170213	0.284856
	H4	H	0.719368	0.408525	0.834803
	H5	H	0.720830	0.608783	0.161501
	H6	H	0.291454	0.604064	0.833757
	H7	H	0.286886	0.404561	0.161926
	H8	H	0.841402	0.718816	0.398688
	H9	H	0.166636	0.723566	0.597700
	H10	H	0.842674	0.287445	0.600950
	H11	H	0.168316	0.292943	0.400111
	H12	H	0.842004	0.404511	0.714609
	H13	H	0.167971	0.606060	0.712190
	H14	H	0.842439	0.604499	0.282730
	H15	H	0.168066	0.408677	0.283682
	H16	H	0.406833	0.720023	0.833916
	H17	H	0.603627	0.722708	0.162087
	H18	H	0.601598	0.293390	0.834159
	H19	H	0.402386	0.290404	0.162103
	H20	H	0.716897	0.842036	0.398756
	H21	H	0.721975	0.168208	0.599339
	H22	H	0.286748	0.843433	0.599570
	H23	H	0.290166	0.170041	0.397699
	H24	H	0.905282	0.342329	0.212841
	H25	H	0.106463	0.670140	0.213088
	H26	H	0.101022	0.342485	0.784825
	H27	H	0.907760	0.669495	0.781798
	H28	H	0.218899	0.908514	0.335408
	H29	H	0.220501	0.105455	0.662174
	H30	H	0.790844	0.104371	0.334947
	H31	H	0.787546	0.904710	0.662510
	H32	H	0.339643	0.219011	0.900362
	H33	H	0.666100	0.223989	0.097167
	H34	H	0.340424	0.787897	0.099284
	H35	H	0.666463	0.794046	0.898447
	H36	H	0.339213	0.905955	0.213487
	H37	H	0.666396	0.108023	0.213218
	H38	H	0.340036	0.104135	0.784079
	H39	H	0.666132	0.910081	0.783770
	H40	H	0.907522	0.220538	0.335197
	H41	H	0.104717	0.220261	0.663156
	H42	H	0.100781	0.794830	0.333311
	H43	H	0.904216	0.790756	0.662538
	H44	H	0.218128	0.342356	0.898398
	H45	H	0.222368	0.669477	0.097306
	H46	H	0.785914	0.344086	0.099726
	H47	H	0.792054	0.671139	0.897251
	H48	H	0.407279	0.120826	0.578222
	H49	H	0.605146	0.887026	0.585746
	H50	H	0.604223	0.126253	0.399567
	H51	H	0.406075	0.887827	0.402672
	H52	H	0.594835	0.416873	0.114449
	H53	H	0.603086	0.607109	0.878656
	H54	H	0.413696	0.598745	0.114335
	H55	H	0.409024	0.420231	0.883293
	H56	H	0.117322	0.597393	0.413635
	H57	H	0.893237	0.589589	0.582260
	H58	H	0.123470	0.414941	0.599597
	H59	H	0.887054	0.409156	0.403852
	H60	H	0.121701	0.406959	0.588891
	H61	H	0.886108	0.592351	0.602183
	H62	H	0.121543	0.595266	0.398114
	H63	H	0.890143	0.410407	0.412487
	H64	H	0.409591	0.597441	0.115319
	H65	H	0.601400	0.592277	0.882514
	H66	H	0.594084	0.415257	0.114074
	H67	H	0.416911	0.410427	0.882479
	H68	H	0.589105	0.120241	0.404567
	H69	H	0.593638	0.886230	0.604294
	H70	H	0.403311	0.128539	0.600684
	H71	H	0.415281	0.890794	0.405898
	H72	H	0.904623	0.626622	0.094379
	H73	H	0.095433	0.388562	0.098038
	H74	H	0.100353	0.620568	0.914101
	H75	H	0.908631	0.389304	0.903289
	H76	H	0.096313	0.905290	0.618293
	H77	H	0.094294	0.102393	0.382917
	H78	H	0.908239	0.093512	0.615760
	H79	H	0.909117	0.913054	0.381582
	H80	H	0.619333	0.101158	0.905997
	H81	H	0.387357	0.097905	0.092438
	H82	H	0.617613	0.916862	0.090158
	H83	H	0.388008	0.912310	0.912845
	H84	H	0.618567	0.917363	0.092073
	H85	H	0.386918	0.098741	0.092413
	H86	H	0.619202	0.101286	0.906370
	H87	H	0.387517	0.917465	0.903176
	H88	H	0.916321	0.094554	0.613423
	H89	H	0.100246	0.100728	0.381187
	H90	H	0.102907	0.919621	0.615485
	H91	H	0.910200	0.912677	0.382307
	H92	H	0.106951	0.627098	0.900118
	H93	H	0.091186	0.391924	0.089012
	H94	H	0.922166	0.622140	0.096155
	H95	H	0.914426	0.392486	0.908372
	H96	H	0.425003	0.120511	0.593986
	H97	H	0.584180	0.894559	0.585959
	H98	H	0.601797	0.119895	0.415066
	H99	H	0.407745	0.890430	0.412614
	H100	H	0.595602	0.415490	0.114491
	H101	H	0.589749	0.602938	0.883908
	H102	H	0.413150	0.595246	0.113348
	H103	H	0.404886	0.408964	0.879270
	H104	H	0.124476	0.609898	0.404827
	H105	H	0.886053	0.608719	0.588069
	H106	H	0.118325	0.420377	0.587910
	H107	H	0.890726	0.416835	0.406174
	H108	H	0.913898	0.619339	0.079943
	H109	H	0.101031	0.389618	0.088531
	H110	H	0.090998	0.622108	0.899886
	H111	H	0.906753	0.390423	0.911529
	H112	H	0.087461	0.917000	0.611458
	H113	H	0.096787	0.096807	0.383499
	H114	H	0.911450	0.100399	0.616659
	H115	H	0.909340	0.912167	0.380750
	H116	H	0.618728	0.100469	0.906677
	H117	H	0.387432	0.098087	0.091542
	H118	H	0.619622	0.915174	0.091064
	H119	H	0.384464	0.907608	0.903912
	C120	C	0.382217	0.015223	0.620166
	C121	C	0.624434	0.997169	0.620293
	C122	C	0.625704	0.014075	0.377126
	C123	C	0.381961	0.998056	0.377435
	C124	C	0.624217	0.386702	0.006471
	C125	C	0.626488	0.629909	0.989933
	C126	C	0.383760	0.626492	0.006173
	C127	C	0.380964	0.384045	0.990038
	C128	C	0.013282	0.628428	0.376573
	C129	C	0.995884	0.627439	0.619879
	C130	C	0.013622	0.383711	0.621724
	C131	C	0.996887	0.384721	0.378072
	C132	C	0.882565	0.515209	0.120678
	C133	C	0.126129	0.497892	0.120419
	C134	C	0.126518	0.514753	0.876667
	C135	C	0.882630	0.498511	0.877636
	C136	C	0.124468	0.885451	0.507031
	C137	C	0.126559	0.128510	0.490627
	C138	C	0.883251	0.126347	0.507159
	C139	C	0.880665	0.883000	0.489900
	C140	C	0.511299	0.128664	0.877100
	C141	C	0.494846	0.128765	0.120816
	C142	C	0.511179	0.885258	0.120540
	C143	C	0.494740	0.885412	0.877460
	C144	C	0.383204	0.891902	0.676066
	C145	C	0.623768	0.120867	0.674753
	C146	C	0.621133	0.891047	0.321920
	C147	C	0.386140	0.121232	0.322159
	C148	C	0.680513	0.388401	0.883473
	C149	C	0.682326	0.628360	0.112707
	C150	C	0.328868	0.624523	0.882856
	C151	C	0.324766	0.385136	0.112969
	C152	C	0.890401	0.681993	0.378547
	C153	C	0.118378	0.684484	0.617820
	C154	C	0.891230	0.326300	0.620647
	C155	C	0.119692	0.330600	0.379909
	C156	C	0.890933	0.384472	0.677350
	C157	C	0.118960	0.626062	0.674713
	C158	C	0.890858	0.625117	0.320762
	C159	C	0.119332	0.388117	0.322013
	C160	C	0.386333	0.682180	0.882807
	C161	C	0.624242	0.685323	0.112960
	C162	C	0.622432	0.330966	0.883495
	C163	C	0.382389	0.328308	0.113232
	C164	C	0.679180	0.890917	0.379138
	C165	C	0.682553	0.119858	0.618748
	C166	C	0.325298	0.892212	0.619225
	C167	C	0.328086	0.121107	0.378720
	C168	C	0.884091	0.391731	0.175787
	C169	C	0.126123	0.621220	0.175341
	C170	C	0.122289	0.391191	0.822344
	C171	C	0.886600	0.621088	0.820539
	C172	C	0.180163	0.888280	0.383777
	C173	C	0.182286	0.125811	0.613583
	C174	C	0.828596	0.124809	0.384081
	C175	C	0.825412	0.884791	0.613381
	C176	C	0.388483	0.182243	0.879606
	C177	C	0.617368	0.186018	0.118213
	C178	C	0.388884	0.827208	0.119294
	C179	C	0.617643	0.831707	0.879170
	C180	C	0.388409	0.885773	0.176183
	C181	C	0.617604	0.127900	0.175601
	C182	C	0.388787	0.125179	0.821578
	C183	C	0.617374	0.888882	0.821587
	C184	C	0.886656	0.182531	0.384172
	C185	C	0.124775	0.182984	0.613974
	C186	C	0.121855	0.831411	0.382962
	C187	C	0.883192	0.827696	0.613290
	C188	C	0.180261	0.391212	0.879090
	C189	C	0.183660	0.620832	0.117854
	C190	C	0.825184	0.392602	0.119180
	C191	C	0.829046	0.621815	0.877979
	C192	C	0.405250	0.101035	0.597590
	C193	C	0.601226	0.911627	0.598383
	C194	C	0.604588	0.100030	0.399695
	C195	C	0.403435	0.911716	0.400406
	C196	C	0.601505	0.409409	0.092083
	C197	C	0.604365	0.607410	0.903976
	C198	C	0.405731	0.603796	0.092165
	C199	C	0.403605	0.406537	0.904080
	C200	C	0.098799	0.607121	0.398845
	C201	C	0.910490	0.603623	0.597514
	C202	C	0.099157	0.407055	0.598921
	C203	C	0.911347	0.405946	0.400828
	C204	C	0.906576	0.600643	0.097242
	C205	C	0.102796	0.412159	0.098366
	C206	C	0.105683	0.600844	0.898391
	C207	C	0.903881	0.412854	0.900837
	C208	C	0.102139	0.907436	0.592784
	C209	C	0.103771	0.106465	0.404566
	C210	C	0.905409	0.102972	0.593143
	C211	C	0.902994	0.905959	0.403789
	C212	C	0.596961	0.107282	0.899618
	C213	C	0.409343	0.105182	0.098724
	C214	C	0.596522	0.909409	0.097685
	C215	C	0.408896	0.906280	0.900013
	Zn216	Zn	0.503204	0.006967	0.748503
	Zn217	Zn	0.503264	0.006743	0.249607
	Zn218	Zn	0.753872	0.507882	-0.001528
	Zn219	Zn	0.254265	0.505888	-0.001698
	Zn220	Zn	0.003669	0.756449	0.498194
	Zn221	Zn	0.005331	0.255691	0.499823
	Zn222	Zn	0.004913	0.506013	0.749086
	Zn223	Zn	0.005003	0.506470	0.248632
	Zn224	Zn	0.503205	0.756835	-0.001626
	Zn225	Zn	0.502522	0.257298	-0.001380
	Zn226	Zn	0.753634	0.004952	0.498888
	Zn227	Zn	0.254044	0.006872	0.498817
	N228	N	0.417611	0.969486	0.677168
	N229	N	0.588406	0.043754	0.676123
	N230	N	0.588984	0.968939	0.320249
	N231	N	0.418768	0.043485	0.321240
	N232	N	0.681714	0.422183	0.961009
	N233	N	0.683993	0.594784	0.035095
	N234	N	0.327279	0.590490	0.960473
	N235	N	0.323736	0.419103	0.035262
	N236	N	0.967570	0.684463	0.412279
	N237	N	0.040982	0.685353	0.584270
	N238	N	0.968559	0.325725	0.586763
	N239	N	0.042545	0.328315	0.414315
	N240	N	0.968065	0.419416	0.678076
	N241	N	0.041748	0.591213	0.676197
	N242	N	0.968218	0.592531	0.319438
	N243	N	0.041928	0.420914	0.320831
	N244	N	0.419986	0.683168	0.960513
	N245	N	0.590390	0.686590	0.035537
	N246	N	0.587777	0.329904	0.960877
	N247	N	0.416773	0.327637	0.035842
	N248	N	0.682383	0.968601	0.412424
	N249	N	0.683140	0.042168	0.585543
	N250	N	0.324554	0.969679	0.585058
	N251	N	0.325317	0.043273	0.412178
	N252	N	0.919324	0.468949	0.176692
	N253	N	0.091064	0.543893	0.176966
	N254	N	0.089609	0.468633	0.820804
	N255	N	0.919044	0.543332	0.819942
	N256	N	0.182198	0.920970	0.461686
	N257	N	0.183535	0.092747	0.535753
	N258	N	0.826455	0.090697	0.461622
	N259	N	0.823813	0.918642	0.535790
	N260	N	0.465585	0.184352	0.913528
	N261	N	0.539894	0.186537	0.084850
	N262	N	0.466289	0.826725	0.085510
	N263	N	0.540357	0.829318	0.913008
	N264	N	0.465447	0.921217	0.177023
	N265	N	0.540487	0.093313	0.177522
	N266	N	0.466331	0.092573	0.820014
	N267	N	0.540065	0.921938	0.820728
	N268	N	0.919946	0.183506	0.461989
	N269	N	0.090851	0.184680	0.536476
	N270	N	0.087623	0.829856	0.460539
	N271	N	0.916744	0.826532	0.535460
	N272	N	0.182953	0.469028	0.912367
	N273	N	0.183789	0.543140	0.084405
	N274	N	0.824100	0.470496	0.085770
	N275	N	0.826310	0.544565	0.912647
	O276	O	-0.063396	-0.072746	0.051432
	H277	H	-0.056933	-0.068975	0.046910
	H278	H	-0.063817	-0.077819	0.050919
	O279	O	0.511628	0.518817	0.579375
	H280	H	0.516977	0.523595	0.572345
	H281	H	0.512944	0.507020	0.582088
	O282	O	0.572951	0.515814	0.477421
	H283	H	0.567634	0.517584	0.485708
	H284	H	0.574270	0.509846	0.470018
	O285	O	1.003906	0.088073	0.990892
	H286	H	1.001845	0.093291	0.984176
	H287	H	0.998183	0.069490	0.993308
	O288	O	0.974508	0.068810	0.018678
	H289	H	0.972950	0.065463	0.025526
	H290	H	0.984013	0.066150	0.014134
	O291	O	0.607075	0.497958	0.413455
	H292	H	0.614723	0.496010	0.423059
	H293	H	0.613176	0.483574	0.398883
	O294	O	0.962121	0.004201	0.937014
	H295	H	0.955606	0.001331	0.937275
	H296	H	0.951286	0.006457	0.936174
	O297	O	0.008319	0.013997	0.013622
	H298	H	0.004962	0.007786	0.018676
	H299	H	0.004561	0.008141	0.019287
	O300	O	0.834808	0.209701	0.205255
	H301	H	0.838297	0.204226	0.201213
	H302	H	0.839782	0.212193	0.188994
	O303	O	0.482680	0.485423	0.580180
	H304	H	0.484643	0.485106	0.576676
	H305	H	0.486561	0.480580	0.583198
	O306	O	0.977724	-0.052495	0.082657
	H307	H	0.985559	-0.037524	0.081113
	H308	H	0.979365	-0.061184	0.086839
	O309	O	-0.082814	-0.000049	0.962316
	H310	H	-0.090570	-0.002382	0.961332
	H311	H	-0.080035	-0.003448	0.962553
	O312	O	1.010512	1.016523	1.058485
	H313	H	1.009268	1.010289	1.086090
	H314	H	1.025469	1.020771	1.057254
	O315	O	0.494077	0.502011	0.435574
	H316	H	0.491205	0.494874	0.430114
	H317	H	0.496307	0.496530	0.436742
	O318	O	0.479880	0.453022	0.431437
	H319	H	0.486238	0.445094	0.425796
	H320	H	0.473331	0.458010	0.422395
	O321	O	0.035959	1.054600	0.947306
	H322	H	0.036817	1.064826	0.944021
	H323	H	0.034739	1.065554	0.941893
	O324	O	0.442563	0.480433	0.533858
	H325	H	0.441635	0.474028	0.530052
	H326	H	0.436645	0.486770	0.541792
	O327	O	0.478369	0.463254	0.418215
	H328	H	0.481734	0.459044	0.414182
	H329	H	0.480569	0.469975	0.419551
	O330	O	0.585578	0.630506	0.463435
	H331	H	0.586312	0.638347	0.469330
	H332	H	0.582707	0.633669	0.485331
	O333	O	0.537923	0.447573	0.557355
	H334	H	0.527273	0.441855	0.567084
	H335	H	0.539545	0.442156	0.555953
	O336	O	0.466976	0.510977	0.480371
	H337	H	0.461855	0.512412	0.491271
	H338	H	0.461062	0.512576	0.480261
	O339	O	0.907603	1.059516	-0.000996
	H340	H	0.905281	1.062100	0.003446
	H341	H	0.902522	1.049625	0.000857
	O342	O	0.496731	0.531037	0.475116
	H343	H	0.495769	0.536103	0.471035
	H344	H	0.497135	0.523636	0.470369
	O345	O	0.548994	0.491121	0.520654
	H346	H	0.549036	0.486150	0.523631
	H347	H	0.558884	0.491859	0.518010
	O348	O	-0.029235	-0.051337	0.013105
	H349	H	-0.034597	-0.048731	0.006731
	H350	H	-0.022548	-0.049599	0.007578
	O351	O	-0.022994	1.068305	0.976987
	H352	H	-0.026253	1.076133	0.982448
	H353	H	-0.026061	1.069585	0.981323
	O354	O	0.610635	0.468725	0.437078
	H355	H	0.615996	0.461880	0.426391
	H356	H	0.611223	0.478466	0.434592
	O357	O	-0.079919	0.948610	1.087661
	H358	H	-0.079306	0.939430	1.074513
	H359	H	-0.087247	0.947162	1.091103
