data_Molecule from HDF5

_cell_length_a		16.102807
_cell_length_b		16.472801
_cell_length_c		16.387195
_cell_angle_alpha	90.138514
_cell_angle_beta	89.924768
_cell_angle_gamma	90.323357
_symmetry_space_group_name_H-M	'P 1'
_symmetry_Int_Tables_number		1

loop_
	_symmetry_equiv_pos_as_xyz
	x,y,z

loop_
	_atom_site_label
	_atom_site_type_symbol
	_atom_site_fract_x
	_atom_site_fract_y
	_atom_site_fract_z
	H0	H	0.392724	0.836015	0.713695
	H1	H	0.605971	0.154973	0.716401
	H2	H	0.600552	0.835202	0.275966
	H3	H	0.396055	0.155716	0.274476
	H4	H	0.716734	0.395814	0.833867
	H5	H	0.717925	0.594676	0.158029
	H6	H	0.289392	0.590075	0.832883
	H7	H	0.285647	0.397200	0.157701
	H8	H	0.837629	0.712339	0.391281
	H9	H	0.164973	0.714722	0.595876
	H10	H	0.838530	0.277884	0.596515
	H11	H	0.165222	0.279850	0.390959
	H12	H	0.838574	0.393790	0.711649
	H13	H	0.165221	0.599581	0.711529
	H14	H	0.837947	0.596466	0.276890
	H15	H	0.166268	0.396800	0.278969
	H16	H	0.395661	0.714710	0.836408
	H17	H	0.606810	0.716517	0.156065
	H18	H	0.607630	0.273440	0.836729
	H19	H	0.396731	0.276657	0.156644
	H20	H	0.715462	0.834524	0.393193
	H21	H	0.718507	0.156583	0.594874
	H22	H	0.281117	0.835935	0.592023
	H23	H	0.286902	0.159240	0.396616
	H24	H	0.897645	0.336671	0.215145
	H25	H	0.108350	0.655796	0.214724
	H26	H	0.106225	0.336758	0.773612
	H27	H	0.899326	0.655444	0.776619
	H28	H	0.212205	0.901889	0.331031
	H29	H	0.217129	0.099228	0.655628
	H30	H	0.785235	0.094036	0.331607
	H31	H	0.782009	0.895366	0.655274
	H32	H	0.337572	0.211128	0.895256
	H33	H	0.663968	0.212970	0.099525
	H34	H	0.336684	0.776981	0.096950
	H35	H	0.663521	0.779005	0.892733
	H36	H	0.334559	0.894644	0.209305
	H37	H	0.664099	0.093774	0.210434
	H38	H	0.336478	0.096099	0.779638
	H39	H	0.663430	0.894599	0.777325
	H40	H	0.897163	0.215621	0.333429
	H41	H	0.107699	0.219052	0.653449
	H42	H	0.105521	0.776836	0.334171
	H43	H	0.892761	0.774911	0.653374
	H44	H	0.215580	0.333222	0.895893
	H45	H	0.218806	0.656851	0.092558
	H46	H	0.783562	0.334826	0.096449
	H47	H	0.785686	0.655851	0.896027
	H48	H	0.408058	0.109298	0.586478
	H49	H	0.590151	0.882873	0.585844
	H50	H	0.593505	0.107795	0.407561
	H51	H	0.409922	0.882379	0.399284
	H52	H	0.592792	0.401152	0.111529
	H53	H	0.589424	0.585814	0.882378
	H54	H	0.412255	0.589674	0.110905
	H55	H	0.411406	0.397500	0.879773
	H56	H	0.113401	0.581383	0.409882
	H57	H	0.882960	0.591983	0.585814
	H58	H	0.123148	0.398154	0.590356
	H59	H	0.884960	0.397199	0.411035
	H60	H	0.115311	0.405031	0.572560
	H61	H	0.888019	0.584289	0.580751
	H62	H	0.120043	0.585977	0.396129
	H63	H	0.889852	0.414048	0.407560
	H64	H	0.409239	0.587741	0.111704
	H65	H	0.590279	0.590359	0.881034
	H66	H	0.592551	0.405349	0.110622
	H67	H	0.408703	0.402094	0.880118
	H68	H	0.595245	0.112492	0.398448
	H69	H	0.588287	0.882472	0.586693
	H70	H	0.409725	0.111504	0.591382
	H71	H	0.405066	0.882758	0.405569
	H72	H	0.908932	0.608420	0.080059
	H73	H	0.097221	0.376636	0.098109
	H74	H	0.088528	0.604800	0.909196
	H75	H	0.904154	0.380097	0.904744
	H76	H	0.084302	0.906284	0.607102
	H77	H	0.087252	0.092933	0.380078
	H78	H	0.912293	0.090394	0.608256
	H79	H	0.917327	0.904124	0.382324
	H80	H	0.615482	0.085240	0.910301
	H81	H	0.380782	0.095752	0.084005
	H82	H	0.613565	0.909764	0.081652
	H83	H	0.384096	0.904239	0.906082
	H84	H	0.618369	0.907370	0.091703
	H85	H	0.387425	0.081414	0.078180
	H86	H	0.616789	0.080944	0.903744
	H87	H	0.382186	0.903066	0.903633
	H88	H	0.909294	0.088200	0.608915
	H89	H	0.094228	0.092194	0.377666
	H90	H	0.090440	0.901350	0.610258
	H91	H	0.907724	0.894741	0.375964
	H92	H	0.103743	0.611715	0.904486
	H93	H	0.080798	0.383932	0.088472
	H94	H	0.908339	0.612521	0.092749
	H95	H	0.912919	0.379354	0.895259
	H96	H	0.413875	0.109539	0.587772
	H97	H	0.587557	0.882761	0.584489
	H98	H	0.585603	0.109130	0.400087
	H99	H	0.402329	0.879868	0.399038
	H100	H	0.588661	0.403193	0.109913
	H101	H	0.594749	0.587046	0.881112
	H102	H	0.413138	0.586146	0.110612
	H103	H	0.413616	0.401688	0.881945
	H104	H	0.118975	0.595823	0.408903
	H105	H	0.884665	0.582812	0.590435
	H106	H	0.116665	0.417028	0.588871
	H107	H	0.882078	0.404630	0.395086
	H108	H	0.919875	0.607220	0.087820
	H109	H	0.098952	0.382418	0.078686
	H110	H	0.090436	0.611906	0.893366
	H111	H	0.916511	0.383527	0.906395
	H112	H	0.091630	0.909721	0.608349
	H113	H	0.090853	0.086256	0.380236
	H114	H	0.912980	0.087207	0.606916
	H115	H	0.903393	0.908752	0.379030
	H116	H	0.618621	0.088579	0.903995
	H117	H	0.381773	0.082585	0.093503
	H118	H	0.617373	0.899782	0.084199
	H119	H	0.383261	0.901086	0.905764
	C120	C	0.377695	0.004660	0.617386
	C121	C	0.621157	0.987925	0.616614
	C122	C	0.621263	0.003778	0.372174
	C123	C	0.377173	0.988156	0.372343
	C124	C	0.622528	0.373045	0.004328
	C125	C	0.622972	0.617619	0.987821
	C126	C	0.380763	0.616407	0.004335
	C127	C	0.379961	0.372075	0.987302
	C128	C	0.009991	0.617294	0.373645
	C129	C	0.993086	0.617660	0.615648
	C130	C	0.010329	0.375664	0.614678
	C131	C	0.993537	0.375575	0.373662
	C132	C	0.880665	0.503902	0.117164
	C133	C	0.123686	0.487155	0.117491
	C134	C	0.124320	0.503676	0.872287
	C135	C	0.880198	0.486905	0.872813
	C136	C	0.119785	0.876357	0.502361
	C137	C	0.122675	0.120618	0.485544
	C138	C	0.880314	0.117925	0.501614
	C139	C	0.878213	0.872682	0.485345
	C140	C	0.508947	0.115278	0.875453
	C141	C	0.491614	0.116065	0.116358
	C142	C	0.508130	0.874751	0.115732
	C143	C	0.491248	0.873410	0.873952
	C144	C	0.374838	0.884133	0.674302
	C145	C	0.623971	0.107540	0.676118
	C146	C	0.619985	0.883119	0.315090
	C147	C	0.377695	0.108413	0.314411
	C148	C	0.679547	0.374573	0.882852
	C149	C	0.680136	0.615669	0.109319
	C150	C	0.325360	0.612372	0.882062
	C151	C	0.323093	0.375323	0.109052
	C152	C	0.886624	0.673850	0.372826
	C153	C	0.115802	0.676133	0.615630
	C154	C	0.887339	0.317229	0.615418
	C155	C	0.116549	0.318852	0.372891
	C156	C	0.887156	0.375110	0.672385
	C157	C	0.116076	0.618623	0.672847
	C158	C	0.886867	0.616089	0.315863
	C159	C	0.116909	0.376815	0.316803
	C160	C	0.378617	0.674215	0.883838
	C161	C	0.624904	0.676404	0.108373
	C162	C	0.624902	0.314074	0.884242
	C163	C	0.378647	0.315622	0.108512
	C164	C	0.677364	0.882791	0.373265
	C165	C	0.679951	0.108454	0.615762
	C166	C	0.319580	0.883772	0.613606
	C167	C	0.323420	0.110249	0.375200
	C168	C	0.878901	0.383986	0.175432
	C169	C	0.125557	0.608020	0.174588
	C170	C	0.124722	0.384039	0.813599
	C171	C	0.880028	0.607434	0.815782
	C172	C	0.175615	0.879696	0.379967
	C173	C	0.179877	0.119493	0.606857
	C174	C	0.823098	0.115321	0.380303
	C175	C	0.820328	0.874645	0.606734
	C176	C	0.386300	0.172297	0.875765
	C177	C	0.615010	0.173623	0.117467
	C178	C	0.385316	0.816384	0.115846
	C179	C	0.614454	0.817179	0.873456
	C180	C	0.384278	0.874855	0.171719
	C181	C	0.615201	0.114518	0.172857
	C182	C	0.385611	0.114845	0.818629
	C183	C	0.614298	0.874325	0.815868
	C184	C	0.878871	0.175867	0.381292
	C185	C	0.124994	0.178945	0.605857
	C186	C	0.122286	0.817692	0.381709
	C187	C	0.875662	0.814728	0.605765
	C188	C	0.179175	0.382233	0.874648
	C189	C	0.180751	0.608742	0.114149
	C190	C	0.822426	0.383053	0.116186
	C191	C	0.823477	0.607694	0.875217
	C192	C	0.403168	0.088286	0.595143
	C193	C	0.595997	0.904366	0.592648
	C194	C	0.598385	0.087990	0.395289
	C195	C	0.399190	0.903621	0.394785
	C196	C	0.598283	0.396335	0.088741
	C197	C	0.598524	0.594457	0.903462
	C198	C	0.404607	0.594153	0.089032
	C199	C	0.404113	0.394090	0.902733
	C200	C	0.095359	0.594343	0.397858
	C201	C	0.907348	0.593367	0.592373
	C202	C	0.096022	0.399801	0.590972
	C203	C	0.907818	0.398534	0.397421
	C204	C	0.905100	0.587560	0.093648
	C205	C	0.099493	0.403023	0.095063
	C206	C	0.100926	0.587948	0.895615
	C207	C	0.904258	0.402800	0.895438
	C208	C	0.095612	0.899178	0.586821
	C209	C	0.098131	0.097166	0.401198
	C210	C	0.904509	0.095199	0.586115
	C211	C	0.902478	0.895816	0.401060
	C212	C	0.594739	0.091745	0.899088
	C213	C	0.405638	0.093149	0.092403
	C214	C	0.594060	0.898633	0.092485
	C215	C	0.405524	0.896218	0.898216
	Zn216	Zn	0.499587	-0.004783	0.746916
	Zn217	Zn	0.498751	-0.004515	0.243983
	Zn218	Zn	0.751414	0.494963	-0.004191
	Zn219	Zn	0.252248	0.494404	-0.004597
	Zn220	Zn	0.000600	0.745232	0.494420
	Zn221	Zn	0.001766	0.248164	0.493948
	Zn222	Zn	0.002055	0.496108	0.743214
	Zn223	Zn	0.002212	0.496091	0.246494
	Zn224	Zn	0.500915	0.745925	-0.003803
	Zn225	Zn	0.501148	0.243559	-0.004002
	Zn226	Zn	0.750973	-0.004554	0.493842
	Zn227	Zn	0.248954	-0.002297	0.494008
	N228	N	0.410418	0.960103	0.676798
	N229	N	0.588019	0.031633	0.676578
	N230	N	0.585963	0.959500	0.314159
	N231	N	0.410364	0.031436	0.312329
	N232	N	0.678242	0.410583	0.958581
	N233	N	0.679182	0.579953	0.033418
	N234	N	0.326464	0.577129	0.958174
	N235	N	0.323568	0.409597	0.032776
	N236	N	0.963988	0.674474	0.408289
	N237	N	0.038246	0.675509	0.580720
	N238	N	0.964729	0.317715	0.580010
	N239	N	0.038807	0.317966	0.407847
	N240	N	0.964531	0.410814	0.672110
	N241	N	0.038792	0.582611	0.672850
	N242	N	0.964458	0.581516	0.316373
	N243	N	0.039544	0.411582	0.317409
	N244	N	0.412565	0.676515	0.960680
	N245	N	0.590448	0.678015	0.031631
	N246	N	0.590309	0.312828	0.960926
	N247	N	0.413312	0.313416	0.031756
	N248	N	0.678365	0.958863	0.408173
	N249	N	0.678308	0.033110	0.579257
	N250	N	0.320857	0.959815	0.579065
	N251	N	0.322732	0.034587	0.410232
	N252	N	0.914486	0.459935	0.176038
	N253	N	0.090899	0.531595	0.176870
	N254	N	0.091406	0.460597	0.811962
	N255	N	0.914485	0.531220	0.814019
	N256	N	0.174383	0.915419	0.455870
	N257	N	0.178507	0.083710	0.530904
	N258	N	0.823800	0.080105	0.456217
	N259	N	0.821677	0.909978	0.530827
	N260	N	0.463966	0.172544	0.910533
	N261	N	0.537087	0.174856	0.083233
	N262	N	0.463397	0.816183	0.081824
	N263	N	0.536788	0.816074	0.908600
	N264	N	0.461518	0.910728	0.171757
	N265	N	0.537519	0.079664	0.172403
	N266	N	0.463140	0.080096	0.818262
	N267	N	0.536507	0.908210	0.815753
	N268	N	0.913683	0.177536	0.457858
	N269	N	0.090284	0.179788	0.529397
	N270	N	0.088244	0.815638	0.458673
	N271	N	0.910746	0.813243	0.529213
	N272	N	0.179225	0.457901	0.910427
	N273	N	0.179780	0.532669	0.079244
	N274	N	0.823519	0.458671	0.080560
	N275	N	0.823408	0.531880	0.909952
	O276	O	-0.008008	-0.078563	-0.042793
	H277	H	-0.014692	-0.078390	-0.043789
	H278	H	-0.007886	-0.072750	-0.052414
	O279	O	0.449628	0.410740	0.568544
	H280	H	0.445956	0.403547	0.547351
	H281	H	0.446005	0.413944	0.568276
	O282	O	0.878172	-0.133534	0.048521
	H283	H	0.883326	-0.125751	0.044699
	H284	H	0.879993	-0.114855	0.038000
	O285	O	-0.053134	0.949038	0.071539
	H286	H	-0.069604	0.943198	0.069284
	H287	H	-0.037839	0.938585	0.057470
	O288	O	0.590316	0.680410	0.618938
	H289	H	0.603328	0.685985	0.625408
	H290	H	0.598763	0.689448	0.630560
	O291	O	0.336120	0.592492	0.532275
	H292	H	0.338176	0.602668	0.537309
	H293	H	0.334563	0.597096	0.526025
	O294	O	1.088842	1.120006	0.952081
	H295	H	1.098022	1.138637	0.958495
	H296	H	1.089532	1.114551	0.972251
	O297	O	0.021490	-0.109553	0.091548
	H298	H	0.015329	-0.115903	0.104157
	H299	H	0.001537	-0.115516	0.088450
	O300	O	0.572470	0.528306	0.509472
	H301	H	0.587451	0.537814	0.506905
	H302	H	0.571394	0.521339	0.505245
	O303	O	0.097025	0.951881	0.901347
	H304	H	0.107967	0.952127	0.897232
	H305	H	0.095140	0.947236	0.900507
	O306	O	0.567822	0.435341	0.549649
	H307	H	0.563650	0.438652	0.543366
	H308	H	0.558522	0.417201	0.561433
	O309	O	0.908119	0.083930	0.038928
	H310	H	0.883421	0.087179	0.040368
	H311	H	0.909961	0.088064	0.039610
	O312	O	-0.171588	-0.080575	0.936447
	H313	H	-0.187523	-0.089256	0.933482
	H314	H	-0.173150	-0.083304	0.948598
	O315	O	0.489192	0.433410	0.434488
	H316	H	0.490526	0.446223	0.439884
	H317	H	0.491500	0.417747	0.427815
	O318	O	0.617137	0.315782	0.366459
	H319	H	0.629358	0.310526	0.364411
	H320	H	0.626942	0.310099	0.358033
	O321	O	0.451696	0.545808	0.579232
	H322	H	0.459366	0.535198	0.579626
	H323	H	0.456075	0.557558	0.580717
	O324	O	0.443325	0.443300	0.467444
	H325	H	0.442196	0.442715	0.457629
	H326	H	0.448538	0.440491	0.476471
	O327	O	0.154100	0.942288	0.886089
	H328	H	0.158859	0.937130	0.892306
	H329	H	0.157590	0.937103	0.890725
	O330	O	0.418338	0.322614	0.586943
	H331	H	0.396409	0.317948	0.589401
	H332	H	0.419223	0.308199	0.581265
	O333	O	-0.015404	1.073409	0.839865
	H334	H	-0.016433	1.089107	0.848328
	H335	H	-0.002162	1.089876	0.836988
	O336	O	1.103283	1.023053	1.112310
	H337	H	1.104366	1.024633	1.101737
	H338	H	1.101492	1.004684	1.111511
	O339	O	0.453566	0.561207	0.547853
	H340	H	0.447171	0.565963	0.541765
	H341	H	0.457967	0.561267	0.559598
	O342	O	1.005994	0.026315	0.176653
	H343	H	1.010082	0.033927	0.195322
	H344	H	1.012857	0.028539	0.165654
	O345	O	0.407064	0.567934	0.392822
	H346	H	0.397580	0.568306	0.392326
	H347	H	0.405247	0.578166	0.382507
	O348	O	0.968484	0.880954	0.966582
	H349	H	0.953743	0.879079	0.950198
	H350	H	0.967554	0.881953	0.982965
	O351	O	0.970282	0.885111	0.155540
	H352	H	0.975772	0.881561	0.137548
	H353	H	0.957879	0.864263	0.168516
	O354	O	0.520254	0.644913	0.433489
	H355	H	0.525808	0.658554	0.430871
	H356	H	0.514538	0.629204	0.438202
	O357	O	0.550195	0.488822	0.398074
	H358	H	0.560867	0.483606	0.401577
	H359	H	0.537455	0.483895	0.406038
	O360	O	0.014611	0.091172	0.108257
	H361	H	0.026257	0.091428	0.118078
	H362	H	0.007641	0.069852	0.095049
	O363	O	0.543510	0.607748	0.465235
	H364	H	0.547223	0.612592	0.467029
	H365	H	0.547686	0.603995	0.454600
	O366	O	0.568762	0.427484	0.558550
	H367	H	0.563416	0.443167	0.574728
	H368	H	0.551669	0.424588	0.569075
	O369	O	0.379875	0.487310	0.521266
	H370	H	0.389260	0.490777	0.510761
	H371	H	0.370824	0.478688	0.515118
	O372	O	0.669512	0.505175	0.642916
	H373	H	0.660681	0.504068	0.629002
	H374	H	0.676803	0.493597	0.649089
	O375	O	0.644068	0.444315	0.348257
	H376	H	0.668204	0.448780	0.347124
	H377	H	0.642651	0.439969	0.351276
	O378	O	0.428601	0.400194	0.502304
	H379	H	0.435697	0.399724	0.494990
	H380	H	0.422641	0.397579	0.499942
	O381	O	-0.062585	1.062085	1.006071
	H382	H	-0.038410	1.059063	0.999327
	H383	H	-0.058513	1.056131	0.991403
	O384	O	0.098369	0.863378	-0.166508
	H385	H	0.097643	0.854542	-0.172014
	H386	H	0.116759	0.853662	-0.169652
	O387	O	0.919888	0.088507	0.890951
	H388	H	0.927860	0.084731	0.898162
	H389	H	0.928423	0.092615	0.891721
	O390	O	-0.022126	1.080897	0.001741
	H391	H	-0.020713	1.063185	-0.003303
	H392	H	-0.042656	1.096182	-0.002447
	O393	O	0.881408	1.163485	-0.088773
	H394	H	0.876188	1.153509	-0.080612
	H395	H	0.884887	1.168711	-0.100029
	O396	O	0.537198	0.397363	0.443487
	H397	H	0.538176	0.400535	0.468390
	H398	H	0.532541	0.409120	0.455661
	O399	O	0.120259	1.028511	0.921544
	H400	H	0.122150	1.031124	0.934868
	H401	H	0.129698	1.024412	0.916777
	O402	O	0.956862	0.885195	0.955698
	H403	H	0.951233	0.885716	0.958126
	H404	H	0.960711	0.888879	0.953475
	O405	O	0.627831	0.676910	0.641986
	H406	H	0.632952	0.674212	0.632134
	H407	H	0.635560	0.670931	0.642628
