data_Molecule from HDF5

_cell_length_a		16.485175
_cell_length_b		16.542691
_cell_length_c		16.509773
_cell_angle_alpha	89.997141
_cell_angle_beta	89.978302
_cell_angle_gamma	89.881516
_symmetry_space_group_name_H-M	'P 1'
_symmetry_Int_Tables_number		1

loop_
	_symmetry_equiv_pos_as_xyz
	x,y,z

loop_
	_atom_site_label
	_atom_site_type_symbol
	_atom_site_fract_x
	_atom_site_fract_y
	_atom_site_fract_z
	H0	H	0.390707	0.845186	0.730697
	H1	H	0.606490	0.155964	0.731320
	H2	H	0.606100	0.845930	0.281890
	H3	H	0.389484	0.157411	0.282848
	H4	H	0.724614	0.393543	0.850867
	H5	H	0.719581	0.608484	0.162581
	H6	H	0.272660	0.610930	0.850052
	H7	H	0.278939	0.398210	0.163207
	H8	H	0.842125	0.724628	0.402042
	H9	H	0.155187	0.726486	0.615780
	H10	H	0.843156	0.278664	0.616285
	H11	H	0.155156	0.278978	0.400297
	H12	H	0.843187	0.395625	0.731932
	H13	H	0.155588	0.611572	0.732221
	H14	H	0.841738	0.609265	0.285413
	H15	H	0.154642	0.395650	0.284275
	H16	H	0.387977	0.727435	0.849997
	H17	H	0.604145	0.725125	0.161204
	H18	H	0.608034	0.277332	0.850066
	H19	H	0.391349	0.278444	0.160749
	H20	H	0.722309	0.845429	0.398347
	H21	H	0.719827	0.157529	0.611987
	H22	H	0.274754	0.845152	0.615289
	H23	H	0.274350	0.157656	0.400355
	H24	H	0.893115	0.345616	0.228796
	H25	H	0.100631	0.659953	0.225724
	H26	H	0.107121	0.346034	0.783294
	H27	H	0.891215	0.659653	0.784590
	H28	H	0.217626	0.898997	0.349624
	H29	H	0.220918	0.108321	0.664756
	H30	H	0.780083	0.103835	0.349086
	H31	H	0.772874	0.893298	0.663623
	H32	H	0.341660	0.225938	0.896648
	H33	H	0.655158	0.221679	0.109850
	H34	H	0.340755	0.781030	0.110057
	H35	H	0.654812	0.777874	0.897958
	H36	H	0.341268	0.895610	0.227692
	H37	H	0.654305	0.106079	0.227028
	H38	H	0.340854	0.108974	0.781849
	H39	H	0.656420	0.896013	0.784761
	H40	H	0.893185	0.223214	0.351337
	H41	H	0.106305	0.225627	0.664348
	H42	H	0.102165	0.782017	0.350019
	H43	H	0.890357	0.778997	0.664554
	H44	H	0.221403	0.345158	0.900498
	H45	H	0.217829	0.659279	0.110179
	H46	H	0.776488	0.345732	0.112059
	H47	H	0.776253	0.660223	0.901960
	H48	H	0.416125	0.109246	0.590568
	H49	H	0.582508	0.891901	0.591448
	H50	H	0.587310	0.114827	0.412880
	H51	H	0.405210	0.888408	0.417859
	H52	H	0.586626	0.413954	0.117223
	H53	H	0.586580	0.594152	0.891567
	H54	H	0.409462	0.595744	0.119265
	H55	H	0.410739	0.417870	0.894171
	H56	H	0.112304	0.593983	0.417894
	H57	H	0.886880	0.593290	0.595363
	H58	H	0.113948	0.405448	0.593806
	H59	H	0.882780	0.408619	0.415971
	H60	H	0.106184	0.417990	0.587076
	H61	H	0.889334	0.588785	0.592607
	H62	H	0.110345	0.589565	0.419344
	H63	H	0.888035	0.412105	0.425004
	H64	H	0.405896	0.588376	0.117612
	H65	H	0.589300	0.586064	0.893370
	H66	H	0.584226	0.412298	0.117335
	H67	H	0.413316	0.413093	0.893747
	H68	H	0.583137	0.111660	0.419352
	H69	H	0.589528	0.888230	0.592719
	H70	H	0.402130	0.113513	0.591133
	H71	H	0.413604	0.890344	0.414520
	H72	H	0.910911	0.613942	0.094559
	H73	H	0.085940	0.388185	0.102764
	H74	H	0.089745	0.612888	0.923873
	H75	H	0.904863	0.390642	0.923559
	H76	H	0.081250	0.918885	0.617137
	H77	H	0.090456	0.094569	0.393288
	H78	H	0.912329	0.091284	0.619926
	H79	H	0.910948	0.915438	0.397002
	H80	H	0.605150	0.084693	0.924152
	H81	H	0.384103	0.094096	0.093728
	H82	H	0.610919	0.913994	0.094816
	H83	H	0.385392	0.915219	0.915262
	H84	H	0.611680	0.911223	0.095445
	H85	H	0.386455	0.088562	0.091082
	H86	H	0.610097	0.085460	0.912805
	H87	H	0.386007	0.910932	0.919840
	H88	H	0.907137	0.092823	0.621308
	H89	H	0.088046	0.082400	0.398236
	H90	H	0.083811	0.906963	0.621504
	H91	H	0.913355	0.910903	0.396081
	H92	H	0.086340	0.615319	0.914532
	H93	H	0.084550	0.391196	0.092361
	H94	H	0.905754	0.615117	0.095176
	H95	H	0.912426	0.389766	0.912565
	H96	H	0.411372	0.115103	0.602731
	H97	H	0.583958	0.888734	0.598454
	H98	H	0.591444	0.113310	0.419498
	H99	H	0.411679	0.891963	0.422991
	H100	H	0.586556	0.411055	0.118547
	H101	H	0.581459	0.588547	0.895306
	H102	H	0.413864	0.590139	0.115352
	H103	H	0.408092	0.413617	0.892152
	H104	H	0.112404	0.590332	0.414590
	H105	H	0.887349	0.588159	0.597767
	H106	H	0.112102	0.419126	0.602266
	H107	H	0.886660	0.418542	0.416821
	H108	H	0.908684	0.615435	0.099224
	H109	H	0.094122	0.387212	0.095667
	H110	H	0.080285	0.610563	0.921023
	H111	H	0.917530	0.395353	0.923401
	H112	H	0.092894	0.915807	0.621917
	H113	H	0.078866	0.092207	0.398481
	H114	H	0.907940	0.087034	0.619565
	H115	H	0.907709	0.911484	0.394516
	H116	H	0.611504	0.094939	0.920446
	H117	H	0.384639	0.088658	0.096748
	H118	H	0.610709	0.911586	0.093074
	H119	H	0.388471	0.916816	0.920852
	C120	C	0.376160	0.009863	0.628801
	C121	C	0.619160	0.992621	0.627556
	C122	C	0.620454	0.010052	0.383976
	C123	C	0.376694	0.993245	0.385299
	C124	C	0.620020	0.379913	0.014538
	C125	C	0.618632	0.622701	0.996993
	C126	C	0.375842	0.624528	0.013975
	C127	C	0.377719	0.381599	0.996685
	C128	C	0.007276	0.623660	0.386002
	C129	C	0.990875	0.623974	0.629085
	C130	C	0.007890	0.380872	0.628639
	C131	C	0.989680	0.380475	0.386251
	C132	C	0.876146	0.510996	0.128979
	C133	C	0.119738	0.493163	0.128513
	C134	C	0.119689	0.510020	0.885942
	C135	C	0.877688	0.494984	0.886231
	C136	C	0.119182	0.881095	0.516361
	C137	C	0.119542	0.122957	0.499866
	C138	C	0.877394	0.122439	0.516210
	C139	C	0.876510	0.879561	0.499112
	C140	C	0.505930	0.122561	0.884307
	C141	C	0.488886	0.122970	0.126578
	C142	C	0.506848	0.880310	0.126702
	C143	C	0.489839	0.880342	0.884793
	C144	C	0.372728	0.892339	0.690395
	C145	C	0.623394	0.109637	0.689721
	C146	C	0.623575	0.892606	0.322877
	C147	C	0.372241	0.110415	0.323618
	C148	C	0.682736	0.376214	0.897404
	C149	C	0.679272	0.626307	0.115297
	C150	C	0.313423	0.628550	0.896944
	C151	C	0.318211	0.379451	0.115673
	C152	C	0.889267	0.684389	0.383794
	C153	C	0.108458	0.685797	0.633160
	C154	C	0.890079	0.319408	0.633614
	C155	C	0.107772	0.319413	0.382835
	C156	C	0.890070	0.377588	0.691076
	C157	C	0.108543	0.628294	0.690932
	C158	C	0.888999	0.626984	0.325699
	C159	C	0.107688	0.377231	0.325058
	C160	C	0.370763	0.686775	0.897005
	C161	C	0.622132	0.684511	0.114500
	C162	C	0.624963	0.318257	0.896854
	C163	C	0.374009	0.319770	0.114122
	C164	C	0.681329	0.892241	0.381030
	C165	C	0.680149	0.110160	0.630717
	C166	C	0.314705	0.892456	0.633049
	C167	C	0.315018	0.110708	0.382305
	C168	C	0.874361	0.392835	0.188871
	C169	C	0.120091	0.612245	0.186641
	C170	C	0.124418	0.392936	0.824116
	C171	C	0.874042	0.612595	0.825262
	C172	C	0.178297	0.879787	0.397373
	C173	C	0.180568	0.126168	0.617776
	C174	C	0.818687	0.123566	0.397224
	C175	C	0.814083	0.875766	0.616717
	C176	C	0.388528	0.185017	0.879698
	C177	C	0.607593	0.182337	0.128603
	C178	C	0.388217	0.820735	0.128618
	C179	C	0.607979	0.818584	0.880695
	C180	C	0.388470	0.877706	0.187245
	C181	C	0.607235	0.124790	0.186758
	C182	C	0.388226	0.126552	0.822532
	C183	C	0.608636	0.877429	0.824330
	C184	C	0.875058	0.182764	0.398080
	C185	C	0.123319	0.184437	0.617603
	C186	C	0.121055	0.821602	0.397522
	C187	C	0.872492	0.818602	0.617221
	C188	C	0.181488	0.392416	0.882537
	C189	C	0.178258	0.611852	0.129041
	C190	C	0.816580	0.392958	0.130777
	C191	C	0.816648	0.612928	0.883725
	C192	C	0.402390	0.091388	0.602340
	C193	C	0.592887	0.910823	0.601483
	C194	C	0.594624	0.091914	0.409888
	C195	C	0.402863	0.911509	0.411075
	C196	C	0.593371	0.405161	0.096387
	C197	C	0.593061	0.596886	0.914788
	C198	C	0.402410	0.598726	0.096000
	C199	C	0.403215	0.407515	0.914744
	C200	C	0.090246	0.598459	0.410582
	C201	C	0.909227	0.597593	0.602788
	C202	C	0.089358	0.406762	0.602094
	C203	C	0.907280	0.406030	0.411774
	C204	C	0.901313	0.593565	0.103718
	C205	C	0.095136	0.410510	0.104068
	C206	C	0.092980	0.591668	0.912210
	C207	C	0.904179	0.413066	0.912289
	C208	C	0.093539	0.906553	0.598854
	C209	C	0.093369	0.097133	0.418083
	C210	C	0.902184	0.097531	0.598844
	C211	C	0.903000	0.905216	0.417272
	C212	C	0.587658	0.095812	0.911298
	C213	C	0.406386	0.097786	0.101095
	C214	C	0.589606	0.905163	0.101537
	C215	C	0.408001	0.906582	0.911081
	Zn216	Zn	0.498271	0.000669	0.756460
	Zn217	Zn	0.497578	0.001479	0.255527
	Zn218	Zn	0.747714	0.502706	0.006429
	Zn219	Zn	0.248383	0.502184	0.006254
	Zn220	Zn	-0.001149	0.751862	0.508017
	Zn221	Zn	-0.001253	0.251707	0.507689
	Zn222	Zn	-0.000755	0.502675	0.757191
	Zn223	Zn	-0.001888	0.502221	0.257591
	Zn224	Zn	0.498183	0.752097	0.004874
	Zn225	Zn	0.498088	0.252055	0.004756
	Zn226	Zn	0.748674	0.000982	0.506779
	Zn227	Zn	0.248190	0.001706	0.507615
	N228	N	0.410276	0.966324	0.687883
	N229	N	0.586176	0.035413	0.687777
	N230	N	0.586440	0.966908	0.324563
	N231	N	0.409890	0.036293	0.325471
	N232	N	0.679909	0.413773	0.971541
	N233	N	0.677194	0.588726	0.041211
	N234	N	0.316453	0.590485	0.970836
	N235	N	0.320292	0.417167	0.041524
	N236	N	0.964019	0.682517	0.420555
	N237	N	0.034201	0.683468	0.595605
	N238	N	0.964157	0.321104	0.595660
	N239	N	0.033261	0.321429	0.420249
	N240	N	0.964337	0.415071	0.688297
	N241	N	0.034407	0.590529	0.688682
	N242	N	0.963427	0.589745	0.327054
	N243	N	0.033198	0.414574	0.326915
	N244	N	0.408903	0.684421	0.970833
	N245	N	0.584898	0.682295	0.040020
	N246	N	0.586532	0.320469	0.970692
	N247	N	0.410123	0.320823	0.039186
	N248	N	0.679591	0.966317	0.418488
	N249	N	0.677497	0.036357	0.592656
	N250	N	0.316811	0.966595	0.595385
	N251	N	0.317709	0.036823	0.420225
	N252	N	0.910440	0.467598	0.187952
	N253	N	0.084369	0.537249	0.186538
	N254	N	0.086863	0.467019	0.826124
	N255	N	0.911372	0.538068	0.826724
	N256	N	0.177737	0.915583	0.472583
	N257	N	0.178297	0.088548	0.543613
	N258	N	0.819924	0.086890	0.471909
	N259	N	0.816296	0.912600	0.542272
	N260	N	0.462914	0.182813	0.917319
	N261	N	0.532722	0.181717	0.092075
	N262	N	0.462877	0.822276	0.091694
	N263	N	0.533040	0.820042	0.917279
	N264	N	0.463323	0.913959	0.186202
	N265	N	0.532468	0.088628	0.185528
	N266	N	0.462269	0.088541	0.825365
	N267	N	0.534375	0.915096	0.826789
	N268	N	0.910553	0.182505	0.473282
	N269	N	0.085917	0.182492	0.543296
	N270	N	0.085104	0.822208	0.472654
	N271	N	0.910703	0.820769	0.543078
	N272	N	0.178740	0.466433	0.920195
	N273	N	0.178351	0.536640	0.093871
	N274	N	0.817582	0.467564	0.094300
	N275	N	0.818614	0.538575	0.920617
	O276	O	0.451253	0.416670	0.414379
	H277	H	0.456114	0.421126	0.408681
	H278	H	0.452930	0.437336	0.412020
	O279	O	0.433067	0.477629	0.678024
	H280	H	0.445290	0.480032	0.663431
	H281	H	0.419276	0.480143	0.670176
	O282	O	1.119390	1.017715	-0.104622
	H283	H	1.120113	1.018366	-0.107279
	H284	H	1.111599	1.015259	-0.075524
	O285	O	0.286611	0.721620	0.489836
	H286	H	0.283371	0.742056	0.491461
	H287	H	0.281748	0.728536	0.481212
	O288	O	0.104673	-0.091466	0.000756
	H289	H	0.118065	-0.100411	0.015540
	H290	H	0.099164	-0.083944	-0.004320
	O291	O	0.978048	0.897315	-0.124101
	H292	H	0.971519	0.897548	-0.140585
	H293	H	0.994873	0.892183	-0.114106
	O294	O	-0.060968	1.036979	0.105436
	H295	H	-0.061891	1.023883	0.112264
	H296	H	-0.071712	1.039863	0.102193
	O297	O	0.596302	0.543013	0.359729
	H298	H	0.584663	0.528926	0.364399
	H299	H	0.586816	0.546280	0.361477
	O300	O	0.638841	0.369167	0.650837
	H301	H	0.620594	0.381063	0.631619
	H302	H	0.617243	0.381632	0.652093
	O303	O	0.492546	0.713741	0.505854
	H304	H	0.486752	0.716170	0.485897
	H305	H	0.485020	0.699741	0.516591
	O306	O	-0.186357	0.833973	1.003554
	H307	H	-0.194227	0.819602	0.995860
	H308	H	-0.173635	0.825207	0.992156
	O309	O	0.523661	0.287691	0.294563
	H310	H	0.516471	0.296713	0.288825
	H311	H	0.532374	0.272415	0.283620
	O312	O	0.345650	0.456570	0.393030
	H313	H	0.330080	0.467424	0.392694
	H314	H	0.346778	0.477381	0.398803
	O315	O	-0.195810	0.191066	0.811114
	H316	H	-0.162272	0.200935	0.821292
	H317	H	-0.216053	0.204023	0.801237
	O318	O	0.030231	1.206059	-0.107656
	H319	H	0.041767	1.216671	-0.095269
	H320	H	0.033426	1.209813	-0.126351
	O321	O	0.656611	0.379143	0.564276
	H322	H	0.670128	0.392967	0.556487
	H323	H	0.657127	0.392453	0.567157
	O324	O	1.223821	0.277340	1.262382
	H325	H	1.219979	0.283663	1.267369
	H326	H	1.217201	0.277932	1.240085
	O327	O	1.061504	0.031617	0.905634
	H328	H	1.064385	0.042924	0.916415
	H329	H	1.033149	0.014776	0.893924
	O330	O	1.008002	0.145336	-0.023878
	H331	H	1.011308	0.147933	-0.028566
	H332	H	1.020795	0.137493	-0.034107
	O333	O	0.930495	1.114136	1.126302
	H334	H	0.931339	1.123989	1.126259
	H335	H	0.927774	1.111335	1.117629
	O336	O	0.994722	0.134803	1.129991
	H337	H	0.984100	0.136374	1.121567
	H338	H	0.984161	0.138752	1.145085
	O339	O	0.360043	0.332573	0.534441
	H340	H	0.372555	0.330635	0.525020
	H341	H	0.341862	0.320362	0.531470
	O342	O	0.702829	0.293128	0.305199
	H343	H	0.713338	0.286789	0.314024
	H344	H	0.683199	0.305727	0.310310
	O345	O	0.176426	0.082925	0.044814
	H346	H	0.177344	0.079546	0.032343
	H347	H	0.185981	0.076221	0.041550
	O348	O	1.076086	0.112813	0.795470
	H349	H	1.064909	0.131052	0.782744
	H350	H	1.077278	0.115498	0.783509
	O351	O	0.894421	1.091739	0.203385
	H352	H	0.888504	1.101693	0.197372
	H353	H	0.909693	1.086890	0.193280
	O354	O	0.297376	0.498865	0.710974
	H355	H	0.304787	0.480218	0.694967
	H356	H	0.277384	0.492221	0.726176
	O357	O	0.784680	1.015592	1.120744
	H358	H	0.783097	1.024171	1.103442
	H359	H	0.776987	1.016298	1.114094
	O360	O	0.474295	0.311260	0.542986
	H361	H	0.477239	0.305800	0.537265
	H362	H	0.482470	0.317647	0.543367
	O363	O	0.598381	0.499580	0.482488
	H364	H	0.598408	0.495210	0.484188
	H365	H	0.591602	0.493785	0.482108
	O366	O	0.705867	0.665836	0.449667
	H367	H	0.716705	0.673930	0.435163
	H368	H	0.684808	0.664456	0.443288
	O369	O	0.438770	0.566933	0.727926
	H370	H	0.433743	0.545592	0.734289
	H371	H	0.437666	0.545086	0.722671
	O372	O	0.502871	0.627146	0.425510
	H373	H	0.489188	0.610932	0.419634
	H374	H	0.504751	0.621255	0.423405
	O375	O	0.197360	0.949995	1.176584
	H376	H	0.196055	0.965509	1.188057
	H377	H	0.188123	0.969524	1.174986
	O378	O	0.794826	0.024550	-0.201787
	H379	H	0.788185	0.035308	-0.219052
	H380	H	0.786859	0.051421	-0.200448
	O381	O	0.604806	0.436947	-0.566201
	H382	H	0.607144	0.433931	-0.547145
	H383	H	0.593880	0.436977	-0.559363
	O384	O	0.148919	-0.851183	0.708653
	H385	H	0.128036	-0.842637	0.684272
	H386	H	0.154652	-0.839637	0.713423
	O387	O	0.142543	0.927419	0.883282
	H388	H	0.154350	0.932988	0.872829
	H389	H	0.141008	0.909852	0.877812
	O390	O	-0.143242	-0.004368	0.960721
	H391	H	-0.130819	-0.016696	0.939800
	H392	H	-0.154580	-0.008046	0.945924
	O393	O	0.789136	1.210219	-0.020020
	H394	H	0.770067	1.226814	-0.025065
	H395	H	0.799715	1.209067	-0.023887
	O396	O	0.277200	0.562167	0.552848
	H397	H	0.286302	0.563301	0.563005
	H398	H	0.280357	0.583622	0.560928
	O399	O	0.376607	0.494578	0.287462
	H400	H	0.380197	0.489319	0.287306
	H401	H	0.369602	0.503364	0.270989
	O402	O	0.200317	0.164468	0.982319
	H403	H	0.198798	0.160236	0.979719
	H404	H	0.218292	0.159651	0.968993
	O405	O	0.037775	-0.020817	0.205351
	H406	H	0.036964	-0.012437	0.224842
	H407	H	0.026973	-0.017011	0.193213
	O408	O	0.716501	0.521548	0.724423
	H409	H	0.720949	0.558824	0.726531
	H410	H	0.732453	0.525158	0.731441
	O411	O	0.293688	0.704197	0.305430
	H412	H	0.282362	0.710040	0.320248
	H413	H	0.310383	0.717810	0.292934
	O414	O	0.308584	0.485553	0.405265
	H415	H	0.306807	0.497538	0.391019
	H416	H	0.299975	0.504917	0.403077
	O417	O	0.546272	0.719483	0.521271
	H418	H	0.550888	0.699928	0.507820
	H419	H	0.555287	0.730578	0.522758
	O420	O	0.923598	0.934613	1.202092
	H421	H	0.916621	0.932330	1.200209
	H422	H	0.905099	0.944980	1.193542
	O423	O	0.140719	0.952574	-0.050008
	H424	H	0.134285	0.942633	-0.030577
	H425	H	0.150726	0.979204	-0.062092
	O426	O	0.747841	0.746764	0.726226
	H427	H	0.724041	0.739754	0.732290
	H428	H	0.753649	0.754250	0.688798
	O429	O	0.494220	0.293066	0.707512
	H430	H	0.493758	0.282584	0.707709
	H431	H	0.490103	0.291457	0.713814
	O432	O	0.716528	0.476790	0.287851
	H433	H	0.720040	0.469214	0.305971
	H434	H	0.745377	0.466948	0.268141
	O435	O	-0.083473	-0.211734	0.192544
	H436	H	-0.093969	-0.235606	0.218969
	H437	H	-0.095024	-0.182920	0.194173
	O438	O	1.195433	-0.191392	0.100895
	H439	H	1.199717	-0.179745	0.102529
	H440	H	1.186280	-0.186356	0.108851
	O441	O	0.712560	0.286884	0.484774
	H442	H	0.718812	0.273194	0.475305
	H443	H	0.729245	0.294355	0.496136
	O444	O	0.058767	0.913425	1.064725
	H445	H	0.043467	0.905341	1.068080
	H446	H	0.062940	0.912967	1.070743
	O447	O	0.449809	0.409886	0.520338
	H448	H	0.436788	0.407034	0.501116
	H449	H	0.457335	0.428967	0.508632
	O450	O	0.482978	0.533968	0.300805
	H451	H	0.490256	0.527269	0.289680
	H452	H	0.472632	0.535561	0.303463
	O453	O	0.518276	0.710770	0.722575
	H454	H	0.508107	0.720706	0.742852
	H455	H	0.504735	0.700222	0.737302
	O456	O	1.029461	-0.211531	-0.201917
	H457	H	1.051338	-0.189144	-0.197282
	H458	H	1.032809	-0.245512	-0.231711
	O459	O	0.556421	0.473629	0.692060
	H460	H	0.574764	0.469832	0.695252
	H461	H	0.574871	0.481091	0.686139
	O462	O	0.503771	0.660150	0.340059
	H463	H	0.500722	0.663105	0.329429
	H464	H	0.511161	0.657185	0.339282
	O465	O	0.805814	-0.186148	0.138605
	H466	H	0.797550	-0.180523	0.141686
	H467	H	0.808309	-0.189599	0.125691
