data_Molecule from HDF5

_cell_length_a		16.337256
_cell_length_b		16.288206
_cell_length_c		16.343106
_cell_angle_alpha	89.959786
_cell_angle_beta	90.014128
_cell_angle_gamma	89.994391
_symmetry_space_group_name_H-M	'P 1'
_symmetry_Int_Tables_number		1

loop_
	_symmetry_equiv_pos_as_xyz
	x,y,z

loop_
	_atom_site_label
	_atom_site_type_symbol
	_atom_site_fract_x
	_atom_site_fract_y
	_atom_site_fract_z
	H0	H	0.403287	0.835808	0.713516
	H1	H	0.598018	0.163572	0.714402
	H2	H	0.599601	0.836485	0.285623
	H3	H	0.402657	0.163325	0.285800
	H4	H	0.715159	0.401432	0.837050
	H5	H	0.714580	0.598772	0.162710
	H6	H	0.284639	0.598775	0.837576
	H7	H	0.285089	0.401067	0.163467
	H8	H	0.836539	0.713432	0.402607
	H9	H	0.163861	0.712975	0.597413
	H10	H	0.836960	0.285880	0.597009
	H11	H	0.163889	0.287208	0.402920
	H12	H	0.836723	0.401251	0.714706
	H13	H	0.162362	0.598528	0.715577
	H14	H	0.836486	0.598141	0.285643
	H15	H	0.163116	0.402880	0.285720
	H16	H	0.402181	0.714287	0.836420
	H17	H	0.596166	0.713809	0.163866
	H18	H	0.596767	0.286122	0.836494
	H19	H	0.402726	0.285464	0.163431
	H20	H	0.714595	0.836403	0.402883
	H21	H	0.714545	0.164105	0.597651
	H22	H	0.287438	0.835605	0.597070
	H23	H	0.286137	0.163188	0.402075
	H24	H	0.901849	0.336555	0.214018
	H25	H	0.097069	0.664053	0.213763
	H26	H	0.096745	0.336445	0.786872
	H27	H	0.901637	0.664186	0.785822
	H28	H	0.214361	0.901733	0.336514
	H29	H	0.214166	0.096533	0.663568
	H30	H	0.786279	0.097840	0.336358
	H31	H	0.786262	0.902735	0.663101
	H32	H	0.336507	0.214050	0.902659
	H33	H	0.663533	0.213530	0.097337
	H34	H	0.336140	0.787196	0.097017
	H35	H	0.663047	0.785550	0.902366
	H36	H	0.337560	0.901394	0.215053
	H37	H	0.663670	0.097520	0.214348
	H38	H	0.336772	0.098313	0.785396
	H39	H	0.663697	0.902132	0.786181
	H40	H	0.902897	0.213924	0.336712
	H41	H	0.097237	0.213263	0.663601
	H42	H	0.096708	0.786993	0.336492
	H43	H	0.903967	0.786840	0.663687
	H44	H	0.212916	0.335855	0.902885
	H45	H	0.213787	0.663273	0.098005
	H46	H	0.785242	0.336589	0.098009
	H47	H	0.785428	0.664000	0.902149
	H48	H	0.403893	0.117641	0.595330
	H49	H	0.596043	0.883317	0.591511
	H50	H	0.597611	0.117615	0.404968
	H51	H	0.407740	0.884433	0.410232
	H52	H	0.593399	0.406937	0.115239
	H53	H	0.586541	0.595192	0.886090
	H54	H	0.402360	0.597725	0.118545
	H55	H	0.409609	0.401758	0.884420
	H56	H	0.115966	0.588629	0.401053
	H57	H	0.882202	0.595855	0.594944
	H58	H	0.115317	0.407922	0.592693
	H59	H	0.884069	0.405446	0.410402
	H60	H	0.116403	0.407611	0.594964
	H61	H	0.884755	0.593876	0.589793
	H62	H	0.117847	0.599347	0.404134
	H63	H	0.884528	0.411011	0.404318
	H64	H	0.403370	0.588817	0.115307
	H65	H	0.597348	0.597242	0.881699
	H66	H	0.593516	0.406786	0.116111
	H67	H	0.399926	0.405934	0.882027
	H68	H	0.590303	0.116699	0.404215
	H69	H	0.594760	0.882704	0.596898
	H70	H	0.410181	0.115226	0.594881
	H71	H	0.403918	0.882022	0.406217
	H72	H	0.902876	0.615623	0.086547
	H73	H	0.084997	0.384974	0.096526
	H74	H	0.087523	0.615598	0.903969
	H75	H	0.910437	0.384980	0.905667
	H76	H	0.104349	0.912492	0.616833
	H77	H	0.095972	0.090674	0.383656
	H78	H	0.905687	0.094271	0.617004
	H79	H	0.909626	0.907140	0.385217
	H80	H	0.616200	0.097790	0.910897
	H81	H	0.383458	0.091197	0.098076
	H82	H	0.617067	0.905511	0.094203
	H83	H	0.381697	0.907926	0.897166
	H84	H	0.616180	0.906124	0.092194
	H85	H	0.383407	0.098125	0.092739
	H86	H	0.613838	0.087664	0.907358
	H87	H	0.382089	0.898507	0.908891
	H88	H	0.906048	0.089200	0.614759
	H89	H	0.091453	0.094252	0.385076
	H90	H	0.084841	0.910580	0.612027
	H91	H	0.905680	0.903144	0.382308
	H92	H	0.092672	0.614155	0.913025
	H93	H	0.093134	0.386183	0.085038
	H94	H	0.902184	0.619278	0.098619
	H95	H	0.905461	0.384994	0.911143
	H96	H	0.406016	0.115067	0.589437
	H97	H	0.591116	0.884990	0.593541
	H98	H	0.593818	0.115823	0.410306
	H99	H	0.409664	0.883454	0.404077
	H100	H	0.593941	0.406584	0.115705
	H101	H	0.594698	0.586345	0.885476
	H102	H	0.410531	0.594791	0.114842
	H103	H	0.407712	0.411914	0.886714
	H104	H	0.114327	0.591857	0.411496
	H105	H	0.884703	0.590174	0.595015
	H106	H	0.116131	0.405730	0.593837
	H107	H	0.881271	0.403199	0.402798
	H108	H	0.913328	0.614329	0.094031
	H109	H	0.098791	0.381080	0.097129
	H110	H	0.097811	0.618946	0.905334
	H111	H	0.903795	0.382726	0.904238
	H112	H	0.094905	0.894975	0.619410
	H113	H	0.096116	0.096293	0.382138
	H114	H	0.910099	0.093325	0.614665
	H115	H	0.903446	0.908360	0.384064
	H116	H	0.618234	0.095213	0.900323
	H117	H	0.386628	0.090458	0.089934
	H118	H	0.616117	0.907626	0.094375
	H119	H	0.386735	0.912698	0.910250
	C120	C	0.378963	0.007804	0.621437
	C121	C	0.621978	0.992025	0.621571
	C122	C	0.621565	0.008109	0.379065
	C123	C	0.379139	0.991500	0.378774
	C124	C	0.621691	0.378515	0.008096
	C125	C	0.620872	0.621452	0.991972
	C126	C	0.377728	0.621916	0.008360
	C127	C	0.377893	0.378222	0.992248
	C128	C	0.008075	0.621521	0.377912
	C129	C	0.991671	0.621631	0.621684
	C130	C	0.007948	0.378785	0.621854
	C131	C	0.991683	0.378903	0.378196
	C132	C	0.877982	0.508716	0.121570
	C133	C	0.120851	0.491898	0.121320
	C134	C	0.121185	0.508177	0.878592
	C135	C	0.878103	0.492248	0.878499
	C136	C	0.122270	0.877766	0.508383
	C137	C	0.122401	0.121544	0.491813
	C138	C	0.878914	0.121219	0.507901
	C139	C	0.878396	0.878040	0.491812
	C140	C	0.508075	0.121461	0.878278
	C141	C	0.492143	0.121401	0.121736
	C142	C	0.508463	0.878119	0.121759
	C143	C	0.491607	0.878229	0.878178
	C144	C	0.382493	0.884499	0.675760
	C145	C	0.619081	0.114805	0.676425
	C146	C	0.619391	0.885107	0.323971
	C147	C	0.381718	0.114509	0.323751
	C148	C	0.676605	0.381064	0.885511
	C149	C	0.676139	0.619074	0.114519
	C150	C	0.322866	0.619160	0.885712
	C151	C	0.323135	0.380838	0.114848
	C152	C	0.885307	0.675993	0.381448
	C153	C	0.114841	0.675372	0.618166
	C154	C	0.885389	0.323543	0.618542
	C155	C	0.114864	0.324559	0.381647
	C156	C	0.885467	0.380873	0.676804
	C157	C	0.114186	0.618763	0.677112
	C158	C	0.885203	0.618855	0.323260
	C159	C	0.114491	0.382079	0.323508
	C160	C	0.380932	0.676873	0.885658
	C161	C	0.617378	0.676008	0.114961
	C162	C	0.618392	0.323464	0.885262
	C163	C	0.381499	0.323475	0.114965
	C164	C	0.676726	0.885080	0.381901
	C165	C	0.677083	0.115154	0.618642
	C166	C	0.324789	0.884549	0.618181
	C167	C	0.324134	0.114518	0.381616
	C168	C	0.880770	0.385321	0.176458
	C169	C	0.117704	0.615046	0.175661
	C170	C	0.118074	0.385265	0.824029
	C171	C	0.880834	0.615434	0.823661
	C172	C	0.176387	0.881203	0.385446
	C173	C	0.176525	0.117902	0.614792
	C174	C	0.824043	0.118622	0.385142
	C175	C	0.824110	0.881464	0.614621
	C176	C	0.384994	0.176079	0.881572
	C177	C	0.614933	0.176285	0.118662
	C178	C	0.385301	0.824393	0.117854
	C179	C	0.614547	0.823379	0.881359
	C180	C	0.385825	0.881427	0.176415
	C181	C	0.614811	0.118602	0.176670
	C182	C	0.385362	0.119039	0.823090
	C183	C	0.614777	0.881360	0.823864
	C184	C	0.881741	0.176378	0.385186
	C185	C	0.118539	0.175768	0.614980
	C186	C	0.118217	0.824021	0.385256
	C187	C	0.882624	0.823975	0.614657
	C188	C	0.175506	0.384974	0.882041
	C189	C	0.175948	0.614906	0.118559
	C190	C	0.823326	0.385293	0.118570
	C191	C	0.823132	0.615292	0.881251
	C192	C	0.400178	0.093867	0.599591
	C193	C	0.600310	0.905901	0.600050
	C194	C	0.600297	0.094445	0.400402
	C195	C	0.400907	0.905358	0.400386
	C196	C	0.599760	0.400302	0.093850
	C197	C	0.599184	0.599305	0.906290
	C198	C	0.399119	0.600223	0.094340
	C199	C	0.399301	0.400128	0.906433
	C200	C	0.093938	0.599759	0.399290
	C201	C	0.905789	0.599783	0.599657
	C202	C	0.093792	0.400591	0.600286
	C203	C	0.905674	0.400202	0.399678
	C204	C	0.899760	0.594424	0.099540
	C205	C	0.098796	0.406030	0.099214
	C206	C	0.099301	0.594110	0.900850
	C207	C	0.900180	0.406514	0.900393
	C208	C	0.100946	0.899498	0.594111
	C209	C	0.100848	0.100163	0.405760
	C210	C	0.900762	0.098922	0.593341
	C211	C	0.899830	0.899801	0.406033
	C212	C	0.593738	0.099961	0.900005
	C213	C	0.406453	0.099791	0.099842
	C214	C	0.594469	0.899793	0.100014
	C215	C	0.405719	0.900028	0.899307
	Zn216	Zn	0.499857	0.000063	0.749943
	Zn217	Zn	0.500717	-0.000181	0.250367
	Zn218	Zn	0.749860	0.500317	0.000035
	Zn219	Zn	0.249388	0.499854	-0.000099
	Zn220	Zn	0.000303	0.749615	0.499729
	Zn221	Zn	0.000498	0.250242	0.500153
	Zn222	Zn	-0.000304	0.500217	0.750580
	Zn223	Zn	-0.000550	0.500010	0.249550
	Zn224	Zn	0.499823	0.750327	-0.000195
	Zn225	Zn	0.499898	0.249861	-0.000276
	Zn226	Zn	0.750032	0.000586	0.499758
	Zn227	Zn	0.250785	-0.000212	0.499971
	N228	N	0.415572	0.962082	0.677753
	N229	N	0.585767	0.037324	0.678475
	N230	N	0.585785	0.962686	0.322199
	N231	N	0.415323	0.037133	0.322059
	N232	N	0.678599	0.414410	0.962745
	N233	N	0.678346	0.585837	0.037063
	N234	N	0.320672	0.585827	0.963035
	N235	N	0.321119	0.414247	0.037655
	N236	N	0.962631	0.677688	0.414545
	N237	N	0.037638	0.677168	0.584562
	N238	N	0.962498	0.322129	0.585102
	N239	N	0.037580	0.322684	0.415151
	N240	N	0.962724	0.414475	0.678831
	N241	N	0.036616	0.586097	0.679404
	N242	N	0.962493	0.585564	0.321037
	N243	N	0.036958	0.414940	0.321132
	N244	N	0.414531	0.678229	0.962808
	N245	N	0.583767	0.677477	0.037871
	N246	N	0.584716	0.321899	0.962496
	N247	N	0.414805	0.321684	0.037682
	N248	N	0.678155	0.962498	0.415347
	N249	N	0.678867	0.037676	0.585261
	N250	N	0.322639	0.962167	0.585089
	N251	N	0.322468	0.037006	0.415157
	N252	N	0.914043	0.462922	0.178288
	N253	N	0.084202	0.537664	0.177368
	N254	N	0.085062	0.462929	0.821871
	N255	N	0.914237	0.538008	0.821896
	N256	N	0.179125	0.914005	0.462894
	N257	N	0.178995	0.085248	0.537263
	N258	N	0.822167	0.085068	0.462374
	N259	N	0.821157	0.914301	0.537268
	N260	N	0.462171	0.177764	0.915166
	N261	N	0.537714	0.178046	0.085005
	N262	N	0.462688	0.822287	0.084610
	N263	N	0.537119	0.821338	0.914136
	N264	N	0.463429	0.914118	0.178681
	N265	N	0.537523	0.085607	0.178807
	N266	N	0.462693	0.085878	0.821097
	N267	N	0.537351	0.914692	0.821569
	N268	N	0.915395	0.177964	0.462271
	N269	N	0.085293	0.177799	0.537526
	N270	N	0.085353	0.821777	0.462665
	N271	N	0.915547	0.822050	0.537285
	N272	N	0.177442	0.462517	0.915199
	N273	N	0.177749	0.537373	0.085200
	N274	N	0.821354	0.462838	0.085243
	N275	N	0.821560	0.537878	0.914875
