data_Molecule from HDF5

_cell_length_a		16.463121
_cell_length_b		16.447885
_cell_length_c		16.478891
_cell_angle_alpha	90.058390
_cell_angle_beta	90.010621
_cell_angle_gamma	90.010665
_symmetry_space_group_name_H-M	'P 1'
_symmetry_Int_Tables_number		1

loop_
	_symmetry_equiv_pos_as_xyz
	x,y,z

loop_
	_atom_site_label
	_atom_site_type_symbol
	_atom_site_fract_x
	_atom_site_fract_y
	_atom_site_fract_z
	H0	H	0.391745	0.841623	0.727581
	H1	H	0.605783	0.156707	0.725166
	H2	H	0.610393	0.842239	0.280485
	H3	H	0.397779	0.156983	0.282660
	H4	H	0.724264	0.389963	0.845804
	H5	H	0.725338	0.605506	0.158551
	H6	H	0.277202	0.605188	0.847138
	H7	H	0.277791	0.390200	0.160249
	H8	H	0.844860	0.724265	0.394850
	H9	H	0.159897	0.722335	0.609597
	H10	H	0.845114	0.276520	0.609408
	H11	H	0.157093	0.274123	0.392643
	H12	H	0.844417	0.392369	0.725268
	H13	H	0.158888	0.608466	0.727140
	H14	H	0.845835	0.609336	0.277615
	H15	H	0.159004	0.392496	0.279318
	H16	H	0.390715	0.723059	0.846849
	H17	H	0.609454	0.722347	0.158741
	H18	H	0.607656	0.274771	0.845810
	H19	H	0.397336	0.278214	0.162111
	H20	H	0.724235	0.841147	0.398561
	H21	H	0.722058	0.157571	0.609213
	H22	H	0.276038	0.842545	0.611867
	H23	H	0.279794	0.156208	0.396917
	H24	H	0.893735	0.342987	0.227774
	H25	H	0.109502	0.657054	0.226364
	H26	H	0.107272	0.342057	0.779593
	H27	H	0.893140	0.656116	0.779687
	H28	H	0.225497	0.891300	0.346084
	H29	H	0.224721	0.106285	0.659619
	H30	H	0.779999	0.104707	0.346099
	H31	H	0.778756	0.891508	0.660279
	H32	H	0.344382	0.220505	0.896660
	H33	H	0.657691	0.223683	0.112915
	H34	H	0.344979	0.773545	0.112163
	H35	H	0.657610	0.773072	0.895000
	H36	H	0.345877	0.889672	0.228540
	H37	H	0.659278	0.106274	0.226113
	H38	H	0.344305	0.104563	0.780808
	H39	H	0.657177	0.887484	0.777525
	H40	H	0.894379	0.221842	0.346461
	H41	H	0.107497	0.222293	0.660108
	H42	H	0.108291	0.777321	0.345338
	H43	H	0.894378	0.775114	0.660093
	H44	H	0.221773	0.340756	0.897299
	H45	H	0.226592	0.655238	0.112665
	H46	H	0.778736	0.341255	0.110490
	H47	H	0.777174	0.654903	0.895054
	H48	H	0.416359	0.108113	0.586688
	H49	H	0.590040	0.885826	0.594321
	H50	H	0.591362	0.112604	0.412961
	H51	H	0.413284	0.887165	0.419761
	H52	H	0.590582	0.413993	0.114032
	H53	H	0.591543	0.588602	0.887739
	H54	H	0.414124	0.587329	0.115689
	H55	H	0.409367	0.411069	0.890501
	H56	H	0.113676	0.592289	0.420652
	H57	H	0.888925	0.592358	0.589160
	H58	H	0.114008	0.412702	0.590431
	H59	H	0.890850	0.409693	0.419067
	H60	H	0.114213	0.412463	0.590964
	H61	H	0.892540	0.584121	0.585763
	H62	H	0.110835	0.580163	0.417098
	H63	H	0.891016	0.417397	0.415234
	H64	H	0.412395	0.583731	0.115217
	H65	H	0.591422	0.579367	0.891952
	H66	H	0.586448	0.409698	0.114320
	H67	H	0.415089	0.407471	0.891564
	H68	H	0.589698	0.111954	0.415987
	H69	H	0.588469	0.886918	0.589449
	H70	H	0.409444	0.112798	0.591834
	H71	H	0.412948	0.885515	0.413109
	H72	H	0.905368	0.614882	0.090521
	H73	H	0.089142	0.386127	0.092558
	H74	H	0.086396	0.610315	0.915432
	H75	H	0.910912	0.384015	0.910974
	H76	H	0.085578	0.908108	0.614661
	H77	H	0.098263	0.089771	0.386817
	H78	H	0.909922	0.091926	0.618069
	H79	H	0.911455	0.916150	0.392299
	H80	H	0.612565	0.085595	0.920022
	H81	H	0.389778	0.088293	0.089424
	H82	H	0.614367	0.903537	0.086845
	H83	H	0.388933	0.910427	0.915849
	H84	H	0.610104	0.916306	0.087508
	H85	H	0.390517	0.083559	0.092029
	H86	H	0.613757	0.081667	0.911569
	H87	H	0.389659	0.911162	0.916156
	H88	H	0.911512	0.085689	0.615861
	H89	H	0.088815	0.078415	0.393645
	H90	H	0.093664	0.910311	0.616695
	H91	H	0.918053	0.910648	0.392880
	H92	H	0.090481	0.611431	0.917625
	H93	H	0.086852	0.388065	0.091918
	H94	H	0.920532	0.611153	0.096580
	H95	H	0.917997	0.386694	0.911519
	H96	H	0.417698	0.110239	0.595782
	H97	H	0.593226	0.885135	0.590154
	H98	H	0.593233	0.112404	0.415702
	H99	H	0.419006	0.887554	0.415931
	H100	H	0.591925	0.408731	0.116267
	H101	H	0.583357	0.585050	0.892618
	H102	H	0.416328	0.583861	0.113978
	H103	H	0.410223	0.404684	0.888081
	H104	H	0.115264	0.588968	0.408720
	H105	H	0.889831	0.584035	0.595272
	H106	H	0.113998	0.411614	0.590821
	H107	H	0.887883	0.410779	0.411404
	H108	H	0.915867	0.606353	0.082043
	H109	H	0.089171	0.387508	0.089730
	H110	H	0.090994	0.612426	0.913287
	H111	H	0.912847	0.387363	0.917549
	H112	H	0.088804	0.916358	0.613267
	H113	H	0.082722	0.093010	0.390507
	H114	H	0.916267	0.090350	0.616100
	H115	H	0.910521	0.907989	0.389290
	H116	H	0.615572	0.090333	0.913259
	H117	H	0.388174	0.087958	0.094120
	H118	H	0.616380	0.910799	0.098016
	H119	H	0.389708	0.910967	0.915508
	C120	C	0.379919	0.006988	0.625035
	C121	C	0.622822	0.990143	0.624722
	C122	C	0.623820	0.007748	0.382475
	C123	C	0.382061	0.990716	0.382957
	C124	C	0.622802	0.376473	0.011274
	C125	C	0.622755	0.618786	0.993925
	C126	C	0.380468	0.618710	0.011593
	C127	C	0.379225	0.375720	0.994570
	C128	C	0.009907	0.621507	0.381522
	C129	C	0.993946	0.620821	0.624127
	C130	C	0.010151	0.378770	0.623620
	C131	C	0.993192	0.378583	0.381109
	C132	C	0.880199	0.507173	0.124124
	C133	C	0.122778	0.490939	0.125304
	C134	C	0.122327	0.507694	0.881859
	C135	C	0.880075	0.489973	0.880374
	C136	C	0.123169	0.878099	0.511498
	C137	C	0.123137	0.120778	0.494003
	C138	C	0.880123	0.121139	0.512319
	C139	C	0.880381	0.877809	0.495095
	C140	C	0.510062	0.119019	0.882363
	C141	C	0.493386	0.120179	0.125246
	C142	C	0.510403	0.876160	0.125132
	C143	C	0.492645	0.876414	0.881551
	C144	C	0.374766	0.889147	0.686970
	C145	C	0.624266	0.109382	0.684884
	C146	C	0.627579	0.889078	0.321545
	C147	C	0.379556	0.109488	0.322501
	C148	C	0.684121	0.372078	0.893101
	C149	C	0.684869	0.623101	0.111520
	C150	C	0.317949	0.622931	0.893848
	C151	C	0.318476	0.372979	0.113001
	C152	C	0.892126	0.683511	0.377524
	C153	C	0.112401	0.681877	0.627133
	C154	C	0.892098	0.317177	0.626901
	C155	C	0.110625	0.315850	0.376261
	C156	C	0.891843	0.375037	0.684668
	C157	C	0.111706	0.625296	0.686150
	C158	C	0.892583	0.626462	0.318945
	C159	C	0.111458	0.375041	0.319807
	C160	C	0.374630	0.681538	0.893888
	C161	C	0.626967	0.681202	0.111643
	C162	C	0.625891	0.314807	0.893059
	C163	C	0.378136	0.317062	0.114137
	C164	C	0.684320	0.888712	0.380417
	C165	C	0.682411	0.109659	0.627358
	C166	C	0.316901	0.889432	0.629194
	C167	C	0.320860	0.109065	0.379530
	C168	C	0.876342	0.389803	0.186798
	C169	C	0.127340	0.609251	0.186553
	C170	C	0.125355	0.389228	0.820453
	C171	C	0.875789	0.608594	0.819879
	C172	C	0.184872	0.874067	0.393336
	C173	C	0.184498	0.124410	0.612467
	C174	C	0.819809	0.123146	0.393678
	C175	C	0.819143	0.873741	0.613275
	C176	C	0.391634	0.179857	0.879437
	C177	C	0.610700	0.182589	0.129707
	C178	C	0.392378	0.814590	0.129386
	C179	C	0.610315	0.813768	0.877192
	C180	C	0.392723	0.872397	0.187538
	C181	C	0.611692	0.123755	0.186176
	C182	C	0.391678	0.122548	0.821163
	C183	C	0.610140	0.870854	0.818799
	C184	C	0.876883	0.181574	0.393762
	C185	C	0.126000	0.181859	0.612743
	C186	C	0.126847	0.816848	0.393077
	C187	C	0.876633	0.815634	0.612824
	C188	C	0.182590	0.388616	0.878864
	C189	C	0.185591	0.608284	0.129571
	C190	C	0.819046	0.389062	0.128249
	C191	C	0.817684	0.607968	0.877122
	C192	C	0.406761	0.089026	0.598765
	C193	C	0.597694	0.907510	0.598870
	C194	C	0.598608	0.090511	0.407493
	C195	C	0.407751	0.908236	0.408898
	C196	C	0.596969	0.403164	0.093451
	C197	C	0.596289	0.592163	0.912011
	C198	C	0.406750	0.592611	0.093436
	C199	C	0.404202	0.400655	0.911733
	C200	C	0.092017	0.594708	0.407948
	C201	C	0.911695	0.594463	0.597689
	C202	C	0.092647	0.404886	0.598013
	C203	C	0.911203	0.405018	0.407508
	C204	C	0.906548	0.589311	0.097474
	C205	C	0.096007	0.408702	0.098898
	C206	C	0.096697	0.589855	0.907941
	C207	C	0.906405	0.407616	0.906117
	C208	C	0.096984	0.904240	0.593495
	C209	C	0.097329	0.094691	0.411801
	C210	C	0.905313	0.096292	0.595198
	C211	C	0.906093	0.903930	0.413005
	C212	C	0.592486	0.092994	0.907770
	C213	C	0.411003	0.094021	0.099140
	C214	C	0.592351	0.902584	0.098343
	C215	C	0.410907	0.903194	0.908256
	Zn216	Zn	0.501469	-0.002066	0.753176
	Zn217	Zn	0.502582	-0.001516	0.253473
	Zn218	Zn	0.752181	0.497671	0.001946
	Zn219	Zn	0.251193	0.498275	0.003396
	Zn220	Zn	0.002380	0.749997	0.502755
	Zn221	Zn	0.002064	0.249743	0.502591
	Zn222	Zn	0.001355	0.499877	0.752499
	Zn223	Zn	0.001899	0.500375	0.253057
	Zn224	Zn	0.500689	0.747454	0.002721
	Zn225	Zn	0.501461	0.248148	0.003156
	Zn226	Zn	0.752190	-0.000588	0.504356
	Zn227	Zn	0.251829	-0.000932	0.502869
	N228	N	0.413325	0.963268	0.684298
	N229	N	0.588419	0.033921	0.683744
	N230	N	0.591032	0.964073	0.322459
	N231	N	0.416761	0.034751	0.324494
	N232	N	0.682615	0.409488	0.967599
	N233	N	0.682306	0.585020	0.037325
	N234	N	0.321181	0.584757	0.967863
	N235	N	0.318625	0.408398	0.037366
	N236	N	0.966140	0.680523	0.415737
	N237	N	0.037971	0.679300	0.589309
	N238	N	0.966695	0.319460	0.589587
	N239	N	0.036050	0.317925	0.413878
	N240	N	0.966290	0.412747	0.682809
	N241	N	0.036846	0.588161	0.684348
	N242	N	0.966816	0.588595	0.321704
	N243	N	0.037439	0.413494	0.322934
	N244	N	0.412741	0.679033	0.968034
	N245	N	0.589182	0.678891	0.037322
	N246	N	0.588697	0.317371	0.967775
	N247	N	0.414842	0.318369	0.039336
	N248	N	0.682362	0.963544	0.417499
	N249	N	0.681849	0.034375	0.591014
	N250	N	0.320129	0.963725	0.591176
	N251	N	0.322214	0.034182	0.416326
	N252	N	0.913966	0.464481	0.184253
	N253	N	0.089326	0.535075	0.184064
	N254	N	0.088826	0.464380	0.821918
	N255	N	0.913511	0.534261	0.821713
	N256	N	0.182644	0.911529	0.467875
	N257	N	0.182905	0.087331	0.537690
	N258	N	0.821589	0.086425	0.468520
	N259	N	0.821339	0.911753	0.539225
	N260	N	0.466238	0.177831	0.916802
	N261	N	0.536026	0.180456	0.092387
	N262	N	0.466539	0.816717	0.091389
	N263	N	0.536252	0.817005	0.915349
	N264	N	0.467368	0.909812	0.185243
	N265	N	0.537389	0.085716	0.183675
	N266	N	0.466360	0.085255	0.822877
	N267	N	0.535855	0.908931	0.821068
	N268	N	0.913732	0.180423	0.468623
	N269	N	0.088806	0.179752	0.538057
	N270	N	0.089043	0.819358	0.467443
	N271	N	0.913984	0.818006	0.538179
	N272	N	0.180871	0.463185	0.916437
	N273	N	0.183011	0.533437	0.092201
	N274	N	0.821519	0.463057	0.089866
	N275	N	0.820281	0.533022	0.914102
	O276	O	-0.109186	0.814752	-0.004705
	H277	H	-0.116568	0.826990	-0.017699
	H278	H	-0.122383	0.804725	-0.016914
	O279	O	1.210008	0.084778	0.920052
	H280	H	1.213643	0.113387	0.933758
	H281	H	1.208107	0.065599	0.945842
	O282	O	0.556781	0.672887	0.487760
	H283	H	0.563723	0.658037	0.490931
	H284	H	0.559912	0.670687	0.464062
	O285	O	0.856057	0.800078	-0.043774
	H286	H	0.850792	0.807150	-0.042661
	H287	H	0.845398	0.805265	-0.049531
	O288	O	0.710901	0.704738	0.523944
	H289	H	0.742312	0.729668	0.521562
	H290	H	0.708655	0.671938	0.501701
	O291	O	0.517983	0.457488	0.641595
	H292	H	0.526477	0.472184	0.645944
	H293	H	0.520320	0.473022	0.634013
	O294	O	-0.002327	0.093497	1.033800
	H295	H	-0.002161	0.099247	1.028330
	H296	H	-0.012668	0.090975	1.035117
	O297	O	0.295587	0.510192	0.345205
	H298	H	0.268794	0.505146	0.329505
	H299	H	0.290728	0.523024	0.353511
	O300	O	0.309162	0.482284	0.711691
	H301	H	0.287570	0.489025	0.730942
	H302	H	0.311596	0.486275	0.698873
	O303	O	0.605521	0.520236	0.582957
	H304	H	0.617179	0.525462	0.584203
	H305	H	0.591054	0.499867	0.569173
	O306	O	0.684798	0.319045	0.318190
	H307	H	0.657459	0.310731	0.331610
	H308	H	0.688216	0.300744	0.342101
	O309	O	0.291971	0.701981	0.479720
	H310	H	0.285483	0.714341	0.474911
	H311	H	0.295546	0.713316	0.497063
	O312	O	0.042379	1.014006	0.820980
	H313	H	0.046769	0.999799	0.812696
	H314	H	0.041791	0.999685	0.825098
	O315	O	0.292060	0.472506	0.497560
	H316	H	0.289757	0.464813	0.502967
	H317	H	0.287366	0.481872	0.497923
	O318	O	1.038637	0.199552	-0.114021
	H319	H	1.050537	0.196297	-0.107266
	H320	H	1.031859	0.184438	-0.118821
	O321	O	-0.195060	0.033411	0.041018
	H322	H	-0.193440	0.043424	0.028898
	H323	H	-0.195049	0.028798	0.071193
	O324	O	0.474766	0.431295	0.310672
	H325	H	0.478180	0.441860	0.320764
	H326	H	0.445714	0.441129	0.317594
	O327	O	0.480001	0.711107	0.288313
	H328	H	0.478671	0.741495	0.261159
	H329	H	0.496081	0.693885	0.293725
	O330	O	-0.019235	0.831538	-0.159331
	H331	H	-0.037396	0.832441	-0.146530
	H332	H	-0.012565	0.815993	-0.172771
	O333	O	0.492730	0.383775	0.486778
	H334	H	0.493449	0.395859	0.497705
	H335	H	0.485538	0.387186	0.493862
	O336	O	0.215122	0.214193	0.035360
	H337	H	0.199276	0.224583	0.041446
	H338	H	0.231365	0.235566	0.036550
	O339	O	0.015994	1.015275	0.800677
	H340	H	0.003476	1.010820	0.804839
	H341	H	0.018427	0.990559	0.803554
	O342	O	-0.000841	0.811221	1.185477
	H343	H	-0.015520	0.803046	1.176127
	H344	H	0.005460	0.801225	1.189994
	O345	O	1.006698	1.174438	0.208119
	H346	H	1.001558	1.175967	0.219271
	H347	H	1.011354	1.157439	0.208961
	O348	O	0.564316	0.541452	0.377539
	H349	H	0.559629	0.532614	0.380487
	H350	H	0.572410	0.532900	0.370635
	O351	O	-0.223062	1.020592	0.782145
	H352	H	-0.209344	1.058503	0.786853
	H353	H	-0.254760	1.032992	0.749590
	O354	O	-0.186332	0.813805	0.190675
	H355	H	-0.186138	0.802409	0.143754
	H356	H	-0.174155	0.793001	0.198252
	O357	O	-0.180176	0.178662	0.820823
	H358	H	-0.189202	0.187854	0.853919
	H359	H	-0.130208	0.187879	0.814937
	O360	O	0.498701	0.403800	0.530869
	H361	H	0.500739	0.423009	0.545022
	H362	H	0.514787	0.394060	0.539595
	O363	O	-0.025138	0.139920	0.896312
	H364	H	-0.022867	0.143031	0.872404
	H365	H	-0.021084	0.128372	0.899898
	O366	O	0.679578	0.395483	0.576702
	H367	H	0.668371	0.398238	0.580669
	H368	H	0.676360	0.408316	0.552764
	O369	O	0.473629	0.452414	0.499249
	H370	H	0.473901	0.436023	0.509067
	H371	H	0.462086	0.437808	0.500905
	O372	O	1.186750	0.186829	1.194611
	H373	H	1.170160	0.192153	1.198318
	H374	H	1.188228	0.168972	1.176183
	O375	O	0.486806	0.378985	0.533955
	H376	H	0.466638	0.386305	0.538029
	H377	H	0.481897	0.368626	0.543802
	O378	O	1.207835	0.819778	1.041358
	H379	H	1.202108	0.829706	1.021074
	H380	H	1.219316	0.812216	1.051212
	O381	O	0.706286	0.312088	0.489910
	H382	H	0.707961	0.300501	0.498425
	H383	H	0.716404	0.328387	0.507711
	O384	O	0.520002	0.709832	0.719166
	H385	H	0.510725	0.718802	0.728495
	H386	H	0.544467	0.722692	0.727321
	O387	O	0.167210	-0.093643	0.829335
	H388	H	0.155765	-0.085786	0.830776
	H389	H	0.180329	-0.073377	0.819576
	O390	O	0.219331	0.022645	0.218367
	H391	H	0.213896	0.037958	0.228498
	H392	H	0.226441	0.014851	0.231423
	O393	O	1.024565	0.925323	1.220261
	H394	H	1.011371	0.921225	1.215742
	H395	H	1.014355	0.910543	1.229948
	O396	O	1.215566	-0.029645	0.046169
	H397	H	1.213207	-0.027516	0.065408
	H398	H	1.210687	-0.041086	0.048704
	O399	O	0.957583	0.075964	0.958754
	H400	H	0.945585	0.084741	0.963878
	H401	H	0.977743	0.073467	0.959460
	O402	O	1.067290	0.906591	1.096919
	H403	H	1.047176	0.894613	1.104754
	H404	H	1.079535	0.909361	1.095377
	O405	O	1.180630	0.754949	-0.276726
	H406	H	1.212197	0.758706	-0.265925
	H407	H	1.172746	0.747950	-0.294235
	O408	O	0.873911	-0.065262	-0.024128
	H409	H	0.875435	-0.052430	-0.015362
	H410	H	0.866866	-0.047734	-0.043594
	O411	O	0.883420	1.177980	0.107859
	H412	H	0.887936	1.173580	0.113610
	H413	H	0.901940	1.174142	0.113048
	O414	O	0.466005	0.390219	0.330394
	H415	H	0.465106	0.380491	0.313877
	H416	H	0.446111	0.414338	0.315815
	O417	O	0.282377	0.283737	0.524892
	H418	H	0.276321	0.267554	0.542020
	H419	H	0.272465	0.274396	0.531883
	O420	O	0.014961	-0.043911	0.112922
	H421	H	0.015997	-0.046882	0.109622
	H422	H	0.022802	-0.044992	0.108196
	O423	O	0.515659	0.347030	0.575165
	H424	H	0.511331	0.347467	0.572074
	H425	H	0.510389	0.368740	0.572577
	O426	O	0.703088	0.518248	0.714115
	H427	H	0.713724	0.515238	0.719368
	H428	H	0.710523	0.534186	0.723706
	O429	O	0.592012	0.630831	0.403445
	H430	H	0.589104	0.627507	0.404255
	H431	H	0.585369	0.607387	0.401419
	O432	O	0.712277	0.478765	0.293281
	H433	H	0.732724	0.466750	0.263670
	H434	H	0.700295	0.440226	0.295365
	O435	O	0.322807	0.663392	0.322881
	H436	H	0.315477	0.661717	0.353833
	H437	H	0.357080	0.667615	0.310049
	O438	O	-0.213596	-0.023045	0.218321
	H439	H	-0.247292	-0.022227	0.246411
	H440	H	-0.205623	-0.074565	0.208100
	O441	O	0.785883	0.210221	-0.017150
	H442	H	0.772078	0.219751	-0.016220
	H443	H	0.787266	0.220757	-0.006887
	O444	O	0.181215	0.894668	0.818803
	H445	H	0.178791	0.918670	0.814526
	H446	H	0.193259	0.913145	0.857907
	O447	O	0.322322	0.317385	0.682986
	H448	H	0.320631	0.341892	0.671889
	H449	H	0.353113	0.319945	0.686523
	O450	O	0.676961	0.675879	0.681448
	H451	H	0.662622	0.659648	0.686923
	H452	H	0.689138	0.686994	0.639857
	O453	O	0.346131	0.625385	0.570502
	H454	H	0.365450	0.625137	0.546501
	H455	H	0.362302	0.627213	0.603097
