data_Molecule from HDF5

_cell_length_a		16.323889
_cell_length_b		16.341236
_cell_length_c		16.293243
_cell_angle_alpha	89.908997
_cell_angle_beta	89.992773
_cell_angle_gamma	90.070840
_symmetry_space_group_name_H-M	'P 1'
_symmetry_Int_Tables_number		1

loop_
	_symmetry_equiv_pos_as_xyz
	x,y,z

loop_
	_atom_site_label
	_atom_site_type_symbol
	_atom_site_fract_x
	_atom_site_fract_y
	_atom_site_fract_z
	H0	H	0.406394	0.830499	0.707877
	H1	H	0.602171	0.157986	0.707067
	H2	H	0.601692	0.830233	0.279732
	H3	H	0.406730	0.156945	0.278353
	H4	H	0.719000	0.395572	0.830173
	H5	H	0.720099	0.592782	0.156401
	H6	H	0.290114	0.591877	0.829969
	H7	H	0.291081	0.396053	0.157666
	H8	H	0.841158	0.709552	0.394422
	H9	H	0.167677	0.709022	0.592124
	H10	H	0.841653	0.279814	0.592458
	H11	H	0.167759	0.280751	0.395271
	H12	H	0.841578	0.396960	0.707259
	H13	H	0.167626	0.593274	0.708436
	H14	H	0.840967	0.592720	0.278611
	H15	H	0.168040	0.398272	0.280153
	H16	H	0.406655	0.707254	0.829433
	H17	H	0.602881	0.709189	0.156542
	H18	H	0.603303	0.278421	0.830900
	H19	H	0.406303	0.278707	0.156661
	H20	H	0.718687	0.830486	0.395822
	H21	H	0.718392	0.157463	0.590042
	H22	H	0.289067	0.831150	0.592473
	H23	H	0.290474	0.157744	0.395240
	H24	H	0.906681	0.330775	0.208896
	H25	H	0.102569	0.657952	0.206508
	H26	H	0.102164	0.330852	0.778988
	H27	H	0.906474	0.656998	0.778707
	H28	H	0.218392	0.897495	0.329711
	H29	H	0.220320	0.093370	0.656724
	H30	H	0.790077	0.092969	0.329702
	H31	H	0.790082	0.896549	0.657260
	H32	H	0.341878	0.209652	0.893384
	H33	H	0.666984	0.209315	0.092920
	H34	H	0.341270	0.777743	0.091946
	H35	H	0.667434	0.778638	0.894393
	H36	H	0.340332	0.895204	0.207485
	H37	H	0.667612	0.091728	0.207473
	H38	H	0.340770	0.090915	0.779701
	H39	H	0.667726	0.895938	0.779257
	H40	H	0.906619	0.208769	0.329796
	H41	H	0.103448	0.208866	0.656962
	H42	H	0.103228	0.780848	0.329857
	H43	H	0.905653	0.779419	0.656935
	H44	H	0.218460	0.331132	0.895315
	H45	H	0.219344	0.657625	0.091020
	H46	H	0.788059	0.331242	0.094528
	H47	H	0.789246	0.656311	0.893718
	H48	H	0.406528	0.111967	0.587512
	H49	H	0.601347	0.874339	0.595650
	H50	H	0.602868	0.109972	0.404246
	H51	H	0.411017	0.880505	0.406206
	H52	H	0.599657	0.405089	0.108885
	H53	H	0.591980	0.584645	0.879313
	H54	H	0.414065	0.588317	0.109556
	H55	H	0.409073	0.398315	0.875680
	H56	H	0.121614	0.590611	0.399467
	H57	H	0.884975	0.592715	0.592228
	H58	H	0.117903	0.404300	0.580562
	H59	H	0.888452	0.397660	0.403476
	H60	H	0.121668	0.404153	0.593036
	H61	H	0.889939	0.590178	0.577336
	H62	H	0.119734	0.589239	0.402690
	H63	H	0.890050	0.405255	0.402178
	H64	H	0.408716	0.587877	0.110931
	H65	H	0.598244	0.592767	0.875119
	H66	H	0.592201	0.400674	0.108896
	H67	H	0.409345	0.403920	0.877737
	H68	H	0.599480	0.111926	0.393152
	H69	H	0.589639	0.881158	0.586494
	H70	H	0.416424	0.109720	0.590923
	H71	H	0.405730	0.876142	0.398457
	H72	H	0.913650	0.608679	0.086480
	H73	H	0.089546	0.381314	0.086392
	H74	H	0.096839	0.610074	0.899691
	H75	H	0.917232	0.379936	0.903418
	H76	H	0.098538	0.894135	0.612850
	H77	H	0.100925	0.077965	0.379582
	H78	H	0.911195	0.090352	0.610158
	H79	H	0.907521	0.907382	0.377833
	H80	H	0.619727	0.077987	0.896016
	H81	H	0.390787	0.080547	0.084847
	H82	H	0.615820	0.902498	0.075396
	H83	H	0.391310	0.908970	0.900660
	H84	H	0.618964	0.909040	0.093240
	H85	H	0.385680	0.088450	0.091901
	H86	H	0.623264	0.094798	0.896590
	H87	H	0.385555	0.897430	0.891805
	H88	H	0.909382	0.086276	0.610352
	H89	H	0.087155	0.090974	0.379704
	H90	H	0.101709	0.906830	0.609317
	H91	H	0.917808	0.902287	0.379519
	H92	H	0.098751	0.609140	0.901691
	H93	H	0.104128	0.379109	0.080437
	H94	H	0.910851	0.609264	0.084417
	H95	H	0.906398	0.378240	0.904544
	H96	H	0.413694	0.107236	0.580570
	H97	H	0.604124	0.878085	0.580118
	H98	H	0.592144	0.107383	0.401188
	H99	H	0.415511	0.878375	0.397593
	H100	H	0.599360	0.397044	0.111521
	H101	H	0.602930	0.582941	0.877020
	H102	H	0.411683	0.583411	0.109178
	H103	H	0.414279	0.400756	0.877922
	H104	H	0.120530	0.586685	0.399856
	H105	H	0.890877	0.578852	0.587993
	H106	H	0.122908	0.393843	0.586078
	H107	H	0.887013	0.400172	0.396455
	H108	H	0.910791	0.609941	0.087400
	H109	H	0.101015	0.374842	0.095619
	H110	H	0.099352	0.611124	0.898859
	H111	H	0.911533	0.376062	0.894711
	H112	H	0.089292	0.902518	0.607010
	H113	H	0.104784	0.095066	0.373204
	H114	H	0.913336	0.087130	0.608690
	H115	H	0.908789	0.895963	0.375115
	H116	H	0.616441	0.086895	0.910224
	H117	H	0.388371	0.091103	0.080998
	H118	H	0.623828	0.890942	0.088954
	H119	H	0.388497	0.894821	0.907382
	C120	C	0.383272	0.001955	0.615074
	C121	C	0.626445	0.985979	0.615449
	C122	C	0.626262	0.001877	0.371491
	C123	C	0.382471	0.986041	0.371896
	C124	C	0.625708	0.372472	0.001940
	C125	C	0.626476	0.615677	0.984756
	C126	C	0.383136	0.614925	0.001715
	C127	C	0.382792	0.372563	0.985284
	C128	C	0.012857	0.616936	0.371600
	C129	C	0.996385	0.615589	0.614518
	C130	C	0.013115	0.372742	0.615132
	C131	C	0.996274	0.373061	0.372216
	C132	C	0.882855	0.501745	0.115351
	C133	C	0.126283	0.486033	0.115690
	C134	C	0.126236	0.502306	0.871690
	C135	C	0.883038	0.485680	0.871953
	C136	C	0.125211	0.873405	0.501506
	C137	C	0.126448	0.116310	0.485464
	C138	C	0.882733	0.116295	0.501713
	C139	C	0.883011	0.873063	0.485490
	C140	C	0.512370	0.115357	0.871943
	C141	C	0.496158	0.115248	0.114677
	C142	C	0.512141	0.871752	0.114866
	C143	C	0.496224	0.872013	0.871668
	C144	C	0.385733	0.879281	0.670022
	C145	C	0.623226	0.108843	0.669838
	C146	C	0.622645	0.878927	0.317575
	C147	C	0.385737	0.108623	0.316721
	C148	C	0.681505	0.374655	0.879185
	C149	C	0.681811	0.613358	0.107926
	C150	C	0.328234	0.612036	0.878553
	C151	C	0.328161	0.374992	0.108387
	C152	C	0.889831	0.671745	0.373735
	C153	C	0.119005	0.671034	0.612446
	C154	C	0.890276	0.317707	0.612792
	C155	C	0.119224	0.318672	0.374805
	C156	C	0.890269	0.375661	0.669940
	C157	C	0.118970	0.613309	0.670211
	C158	C	0.889785	0.613523	0.316606
	C159	C	0.119362	0.376964	0.317628
	C160	C	0.385682	0.669847	0.878322
	C161	C	0.623578	0.670874	0.108082
	C162	C	0.623950	0.316724	0.879379
	C163	C	0.385696	0.317075	0.108241
	C164	C	0.681085	0.879260	0.374801
	C165	C	0.680773	0.108910	0.611627
	C166	C	0.327343	0.879662	0.612874
	C167	C	0.327995	0.108819	0.374811
	C168	C	0.885918	0.379324	0.170926
	C169	C	0.123938	0.608918	0.169937
	C170	C	0.123072	0.379484	0.816869
	C171	C	0.885579	0.608133	0.816510
	C172	C	0.180945	0.876370	0.378674
	C173	C	0.181725	0.113344	0.608269
	C174	C	0.827830	0.113416	0.378598
	C175	C	0.828215	0.875864	0.608738
	C176	C	0.390003	0.170967	0.873495
	C177	C	0.618562	0.170749	0.112697
	C178	C	0.389642	0.816262	0.112565
	C179	C	0.618850	0.816578	0.873827
	C180	C	0.389556	0.874202	0.170271
	C181	C	0.618829	0.112407	0.169668
	C182	C	0.389699	0.112425	0.816732
	C183	C	0.618951	0.875091	0.816815
	C184	C	0.885650	0.170962	0.378531
	C185	C	0.124034	0.171096	0.608244
	C186	C	0.123712	0.818313	0.378807
	C187	C	0.885231	0.817462	0.608276
	C188	C	0.180705	0.379604	0.874806
	C189	C	0.181779	0.608891	0.112279
	C190	C	0.827019	0.379556	0.114038
	C191	C	0.827698	0.607943	0.874057
	C192	C	0.405486	0.087599	0.592884
	C193	C	0.604897	0.899979	0.593857
	C194	C	0.604609	0.087700	0.393149
	C195	C	0.404275	0.900263	0.394191
	C196	C	0.603494	0.394565	0.087599
	C197	C	0.604206	0.593472	0.899373
	C198	C	0.405154	0.593018	0.087612
	C199	C	0.404663	0.394310	0.899313
	C200	C	0.098462	0.595067	0.394029
	C201	C	0.910633	0.593615	0.592300
	C202	C	0.098673	0.394495	0.592989
	C203	C	0.910592	0.394722	0.394189
	C204	C	0.905196	0.587201	0.092638
	C205	C	0.104594	0.400433	0.093830
	C206	C	0.104665	0.587969	0.893595
	C207	C	0.905188	0.400117	0.894445
	C208	C	0.102958	0.894860	0.587483
	C209	C	0.104151	0.094475	0.399592
	C210	C	0.904698	0.094291	0.587571
	C211	C	0.904881	0.895358	0.399740
	C212	C	0.597844	0.093208	0.894684
	C213	C	0.410363	0.093239	0.092382
	C214	C	0.597637	0.894049	0.092371
	C215	C	0.410678	0.893776	0.893718
	Zn216	Zn	0.504503	-0.006031	0.743707
	Zn217	Zn	0.504436	-0.006167	0.243402
	Zn218	Zn	0.754352	0.493450	-0.006605
	Zn219	Zn	0.254709	0.493785	-0.006384
	Zn220	Zn	0.004468	0.744554	0.493266
	Zn221	Zn	0.004694	0.244381	0.493295
	Zn222	Zn	0.004520	0.494317	0.743436
	Zn223	Zn	0.004597	0.494846	0.243843
	Zn224	Zn	0.504177	0.743216	-0.007063
	Zn225	Zn	0.504114	0.244051	-0.006996
	Zn226	Zn	0.754964	-0.005803	0.493374
	Zn227	Zn	0.254319	-0.005714	0.493896
	N228	N	0.419655	0.956425	0.671457
	N229	N	0.590156	0.031302	0.672122
	N230	N	0.589288	0.956129	0.315580
	N231	N	0.418998	0.031465	0.315188
	N232	N	0.682544	0.408627	0.956346
	N233	N	0.683736	0.579646	0.030497
	N234	N	0.326543	0.578688	0.956159
	N235	N	0.326395	0.408832	0.031184
	N236	N	0.967085	0.673946	0.407046
	N237	N	0.041772	0.672520	0.578637
	N238	N	0.967742	0.315617	0.579347
	N239	N	0.041863	0.316235	0.408122
	N240	N	0.967337	0.409042	0.671571
	N241	N	0.041818	0.579400	0.671512
	N242	N	0.967293	0.580311	0.314967
	N243	N	0.041954	0.410040	0.316044
	N244	N	0.419122	0.671608	0.955857
	N245	N	0.590237	0.672470	0.030661
	N246	N	0.590000	0.315309	0.956587
	N247	N	0.418693	0.315335	0.030475
	N248	N	0.683199	0.956701	0.407887
	N249	N	0.682666	0.031563	0.578420
	N250	N	0.325948	0.956862	0.579178
	N251	N	0.326078	0.031456	0.408606
	N252	N	0.919800	0.456501	0.171848
	N253	N	0.090100	0.531817	0.171964
	N254	N	0.089833	0.456810	0.815020
	N255	N	0.919450	0.531189	0.815399
	N256	N	0.181903	0.910141	0.455975
	N257	N	0.183486	0.080286	0.530838
	N258	N	0.825839	0.080216	0.456297
	N259	N	0.826597	0.909743	0.531410
	N260	N	0.467136	0.172651	0.907334
	N261	N	0.541208	0.172566	0.079054
	N262	N	0.466707	0.814573	0.078898
	N263	N	0.541540	0.814711	0.907353
	N264	N	0.466785	0.908256	0.171580
	N265	N	0.541703	0.078602	0.170906
	N266	N	0.466810	0.078651	0.815700
	N267	N	0.541867	0.908753	0.815389
	N268	N	0.918959	0.172913	0.456069
	N269	N	0.090145	0.172793	0.530899
	N270	N	0.089796	0.816454	0.456069
	N271	N	0.918718	0.815913	0.530756
	N272	N	0.182548	0.456839	0.908382
	N273	N	0.183410	0.531529	0.079149
	N274	N	0.825293	0.456542	0.080000
	N275	N	0.825886	0.530683	0.907732
	O276	O	0.955563	-0.058709	1.034590
	H277	H	0.966170	-0.048634	1.033917
	H278	H	0.950326	-0.057927	1.029340
	O279	O	-0.021914	0.973676	1.018289
	H280	H	-0.025182	0.967727	1.024937
	H281	H	-0.018476	0.968404	1.018968
	O282	O	0.929210	0.976495	0.024423
	H283	H	0.933168	0.970981	0.027047
	H284	H	0.935125	0.979078	0.022775
	O285	O	-0.033499	0.951662	1.058427
	H286	H	-0.039368	0.946555	1.071711
	H287	H	-0.046643	0.956355	1.053212
