data_Molecule from HDF5

_cell_length_a		16.802697
_cell_length_b		16.541273
_cell_length_c		16.614740
_cell_angle_alpha	89.945463
_cell_angle_beta	90.022501
_cell_angle_gamma	90.017105
_symmetry_space_group_name_H-M	'P 1'
_symmetry_Int_Tables_number		1

loop_
	_symmetry_equiv_pos_as_xyz
	x,y,z

loop_
	_atom_site_label
	_atom_site_type_symbol
	_atom_site_fract_x
	_atom_site_fract_y
	_atom_site_fract_z
	H0	H	0.369062	0.825993	0.696348
	H1	H	0.579623	0.136578	0.700487
	H2	H	0.571887	0.824154	0.261404
	H3	H	0.371020	0.139537	0.259397
	H4	H	0.696869	0.375064	0.823253
	H5	H	0.694419	0.588786	0.131812
	H6	H	0.251984	0.590705	0.820503
	H7	H	0.250204	0.375793	0.129952
	H8	H	0.820493	0.705052	0.371184
	H9	H	0.128975	0.701145	0.578627
	H10	H	0.818717	0.260519	0.582483
	H11	H	0.129115	0.263674	0.376014
	H12	H	0.817908	0.377809	0.698947
	H13	H	0.128357	0.585828	0.696379
	H14	H	0.821115	0.589854	0.253294
	H15	H	0.129326	0.380462	0.259062
	H16	H	0.370506	0.703153	0.819701
	H17	H	0.574606	0.700777	0.134369
	H18	H	0.580390	0.258552	0.823627
	H19	H	0.365929	0.260390	0.129683
	H20	H	0.690892	0.825688	0.374245
	H21	H	0.695896	0.136658	0.585115
	H22	H	0.250447	0.827723	0.584054
	H23	H	0.254290	0.139725	0.373712
	H24	H	0.868963	0.327354	0.197245
	H25	H	0.076365	0.639549	0.195930
	H26	H	0.075442	0.325790	0.759342
	H27	H	0.869654	0.639843	0.757012
	H28	H	0.194141	0.876468	0.322951
	H29	H	0.194011	0.088167	0.632562
	H30	H	0.752402	0.087722	0.321099
	H31	H	0.753128	0.877843	0.632540
	H32	H	0.322982	0.210831	0.864974
	H33	H	0.624784	0.207082	0.085526
	H34	H	0.315857	0.766469	0.076391
	H35	H	0.626689	0.760799	0.872921
	H36	H	0.315920	0.882054	0.194097
	H37	H	0.624853	0.090201	0.200775
	H38	H	0.322223	0.093620	0.750111
	H39	H	0.623114	0.872016	0.750557
	H40	H	0.869508	0.202448	0.320978
	H41	H	0.074591	0.200450	0.634430
	H42	H	0.075955	0.762619	0.321608
	H43	H	0.872438	0.765565	0.634584
	H44	H	0.193801	0.327833	0.872243
	H45	H	0.193037	0.639595	0.080163
	H46	H	0.750565	0.328872	0.083799
	H47	H	0.753525	0.640183	0.872322
	H48	H	0.385727	0.095550	0.569346
	H49	H	0.561584	0.868769	0.567450
	H50	H	0.563922	0.096833	0.384499
	H51	H	0.381583	0.869334	0.384163
	H52	H	0.562792	0.398160	0.087698
	H53	H	0.560433	0.570028	0.866588
	H54	H	0.378697	0.573684	0.089770
	H55	H	0.388963	0.394845	0.864958
	H56	H	0.083155	0.570500	0.388372
	H57	H	0.862183	0.573853	0.567915
	H58	H	0.084144	0.392849	0.572887
	H59	H	0.863742	0.394237	0.388167
	H60	H	0.083876	0.388241	0.566785
	H61	H	0.862643	0.572445	0.567529
	H62	H	0.084796	0.572090	0.384977
	H63	H	0.862483	0.394026	0.386574
	H64	H	0.382088	0.571992	0.088675
	H65	H	0.563012	0.577535	0.863455
	H66	H	0.559741	0.397048	0.087174
	H67	H	0.381487	0.398634	0.864347
	H68	H	0.559629	0.093557	0.389678
	H69	H	0.557138	0.873278	0.561932
	H70	H	0.388258	0.091172	0.560270
	H71	H	0.381413	0.870404	0.389011
	H72	H	0.882621	0.596182	0.068621
	H73	H	0.059574	0.371627	0.066067
	H74	H	0.063627	0.597238	0.884833
	H75	H	0.879785	0.369820	0.887219
	H76	H	0.066293	0.888514	0.591794
	H77	H	0.067552	0.065158	0.366233
	H78	H	0.878704	0.068987	0.589280
	H79	H	0.886332	0.887401	0.364125
	H80	H	0.582254	0.069970	0.887456
	H81	H	0.362884	0.076368	0.058871
	H82	H	0.584415	0.894768	0.074253
	H83	H	0.363603	0.898129	0.888199
	H84	H	0.586719	0.886595	0.071909
	H85	H	0.365577	0.063078	0.066320
	H86	H	0.579629	0.070219	0.895984
	H87	H	0.361188	0.893112	0.884493
	H88	H	0.885915	0.066820	0.586271
	H89	H	0.056321	0.071950	0.367283
	H90	H	0.067631	0.898753	0.588972
	H91	H	0.875388	0.892403	0.362429
	H92	H	0.059017	0.593951	0.888392
	H93	H	0.066426	0.371544	0.062138
	H94	H	0.887570	0.595155	0.064036
	H95	H	0.886839	0.370993	0.886793
	H96	H	0.378743	0.095812	0.561335
	H97	H	0.565175	0.871519	0.559979
	H98	H	0.566436	0.095880	0.391494
	H99	H	0.377323	0.868218	0.386872
	H100	H	0.562087	0.395030	0.087535
	H101	H	0.568268	0.570654	0.863743
	H102	H	0.381703	0.575969	0.089291
	H103	H	0.387500	0.402561	0.868869
	H104	H	0.083818	0.574537	0.387832
	H105	H	0.861612	0.572786	0.568763
	H106	H	0.081845	0.395727	0.565901
	H107	H	0.863916	0.392060	0.387428
	H108	H	0.881291	0.595819	0.062160
	H109	H	0.065553	0.368121	0.069424
	H110	H	0.064969	0.595663	0.891188
	H111	H	0.882944	0.372907	0.892392
	H112	H	0.057684	0.894506	0.588157
	H113	H	0.066811	0.077959	0.362082
	H114	H	0.884650	0.074595	0.589278
	H115	H	0.884127	0.899091	0.367547
	H116	H	0.579250	0.062942	0.891502
	H117	H	0.358792	0.075018	0.073529
	H118	H	0.582676	0.891998	0.066284
	H119	H	0.363456	0.891910	0.890484
	C120	C	0.352186	-0.008894	0.596976
	C121	C	0.593785	0.973687	0.597363
	C122	C	0.593639	-0.008616	0.356743
	C123	C	0.350372	0.973746	0.356027
	C124	C	0.594799	0.362440	-0.014453
	C125	C	0.594413	0.604229	0.968399
	C126	C	0.350765	0.605306	-0.014740
	C127	C	0.352618	0.363766	0.967728
	C128	C	-0.017591	0.605312	0.354516
	C129	C	0.964693	0.604253	0.598834
	C130	C	-0.019081	0.360380	0.600025
	C131	C	0.965502	0.361555	0.356262
	C132	C	0.852243	0.492218	0.097546
	C133	C	0.095020	0.474032	0.097383
	C134	C	0.093674	0.491970	0.856476
	C135	C	0.852009	0.474880	0.856376
	C136	C	0.094387	0.861948	0.486252
	C137	C	0.093999	0.103208	0.468914
	C138	C	0.851678	0.102994	0.485190
	C139	C	0.851603	0.861403	0.468449
	C140	C	0.480734	0.103207	0.856395
	C141	C	0.463570	0.104824	0.099541
	C142	C	0.480980	0.861042	0.099671
	C143	C	0.464202	0.861089	0.855226
	C144	C	0.350025	0.873589	0.657264
	C145	C	0.597221	0.090269	0.659454
	C146	C	0.592290	0.872121	0.299755
	C147	C	0.351376	0.092513	0.298401
	C148	C	0.656175	0.357506	0.869540
	C149	C	0.653744	0.606548	0.085713
	C150	C	0.292020	0.608328	0.867482
	C151	C	0.290973	0.358709	0.083625
	C152	C	0.866797	0.665275	0.352347
	C153	C	0.081971	0.662319	0.598555
	C154	C	0.864836	0.300489	0.601466
	C155	C	0.082480	0.303424	0.356694
	C156	C	0.864542	0.358906	0.659038
	C157	C	0.081985	0.604637	0.656706
	C158	C	0.867055	0.607926	0.293929
	C159	C	0.082689	0.361275	0.298490
	C160	C	0.351013	0.664356	0.867157
	C161	C	0.594208	0.662034	0.086849
	C162	C	0.598334	0.299847	0.869640
	C163	C	0.348610	0.301357	0.083452
	C164	C	0.651483	0.872763	0.355518
	C165	C	0.654993	0.090278	0.602152
	C166	C	0.291214	0.874518	0.601202
	C167	C	0.293157	0.092306	0.355086
	C168	C	0.850119	0.374543	0.157664
	C169	C	0.095434	0.592559	0.156108
	C170	C	0.094482	0.373359	0.798235
	C171	C	0.850749	0.592798	0.796606
	C172	C	0.153682	0.859012	0.369176
	C173	C	0.153122	0.105546	0.586354
	C174	C	0.792511	0.105822	0.367964
	C175	C	0.793398	0.859966	0.586004
	C176	C	0.367829	0.168125	0.849305
	C177	C	0.578557	0.166328	0.102960
	C178	C	0.362931	0.804760	0.097069
	C179	C	0.579996	0.800642	0.853234
	C180	C	0.362896	0.862347	0.155464
	C181	C	0.578639	0.108277	0.160660
	C182	C	0.367542	0.109963	0.791951
	C183	C	0.578402	0.855840	0.792630
	C184	C	0.850825	0.162683	0.367878
	C185	C	0.094017	0.161596	0.587158
	C186	C	0.095045	0.802483	0.368679
	C187	C	0.852567	0.804087	0.587144
	C188	C	0.153380	0.374424	0.854276
	C189	C	0.153536	0.592516	0.099109
	C190	C	0.791657	0.375217	0.101048
	C191	C	0.792996	0.592840	0.853926
	C192	C	0.377278	0.072897	0.571074
	C193	C	0.568372	0.892526	0.570885
	C194	C	0.570021	0.073879	0.381515
	C195	C	0.373511	0.890832	0.379896
	C196	C	0.568897	0.389111	0.066312
	C197	C	0.570743	0.579765	0.886089
	C198	C	0.374036	0.580919	0.067631
	C199	C	0.378567	0.391005	0.886971
	C200	C	0.063097	0.579831	0.379910
	C201	C	0.883479	0.580005	0.575030
	C202	C	0.062109	0.385205	0.575493
	C203	C	0.884445	0.386224	0.380181
	C204	C	0.876964	0.574318	0.072145
	C205	C	0.070918	0.391836	0.072836
	C206	C	0.069435	0.574255	0.881093
	C207	C	0.876385	0.392675	0.881608
	C208	C	0.070753	0.886754	0.568270
	C209	C	0.070457	0.078735	0.386783
	C210	C	0.875927	0.077349	0.567062
	C211	C	0.875259	0.885964	0.386128
	C212	C	0.559717	0.075342	0.883914
	C213	C	0.383307	0.078951	0.073579
	C214	C	0.563055	0.884348	0.077232
	C215	C	0.383633	0.887017	0.880577
	Zn216	Zn	0.472573	-0.017288	0.726034
	Zn217	Zn	0.472058	-0.017476	0.228790
	Zn218	Zn	0.723317	0.483897	-0.023000
	Zn219	Zn	0.223075	0.483912	-0.023946
	Zn220	Zn	-0.026895	0.733738	0.477492
	Zn221	Zn	-0.027367	0.231686	0.477495
	Zn222	Zn	-0.027050	0.482882	0.728272
	Zn223	Zn	-0.026117	0.482780	0.225718
	Zn224	Zn	0.472851	0.732202	-0.022473
	Zn225	Zn	0.472775	0.234124	-0.023427
	Zn226	Zn	0.722719	-0.017810	0.476794
	Zn227	Zn	0.222780	-0.016966	0.476920
	N228	N	0.387152	0.947443	0.655058
	N229	N	0.559949	0.016594	0.656772
	N230	N	0.557043	0.947006	0.300246
	N231	N	0.386286	0.017617	0.298729
	N232	N	0.654155	0.395724	0.942746
	N233	N	0.654265	0.571560	0.010900
	N234	N	0.291429	0.572467	0.942092
	N235	N	0.293025	0.396679	0.010312
	N236	N	0.939884	0.664004	0.389224
	N237	N	0.008055	0.662474	0.563500
	N238	N	0.938367	0.301065	0.565510
	N239	N	0.008517	0.303056	0.391630
	N240	N	0.937977	0.395292	0.658341
	N241	N	0.007915	0.569586	0.657479
	N242	N	0.940146	0.571392	0.294978
	N243	N	0.008702	0.396555	0.297577
	N244	N	0.387002	0.662545	0.941377
	N245	N	0.558132	0.661105	0.012708
	N246	N	0.560958	0.302512	0.942923
	N247	N	0.386325	0.304326	0.010389
	N248	N	0.652794	0.948180	0.389958
	N249	N	0.653175	0.016740	0.564205
	N250	N	0.292256	0.948836	0.564507
	N251	N	0.292409	0.017346	0.390171
	N252	N	0.887225	0.448426	0.155754
	N253	N	0.059781	0.517844	0.155247
	N254	N	0.058072	0.447575	0.799318
	N255	N	0.886534	0.518235	0.797696
	N256	N	0.153598	0.895332	0.443477
	N257	N	0.153572	0.070249	0.511722
	N258	N	0.792758	0.069419	0.442223
	N259	N	0.792495	0.894677	0.511068
	N260	N	0.439259	0.164064	0.888952
	N261	N	0.505926	0.164500	0.065443
	N262	N	0.437535	0.803510	0.063367
	N263	N	0.507891	0.803752	0.891548
	N264	N	0.437593	0.896128	0.157712
	N265	N	0.506002	0.070441	0.158695
	N266	N	0.438849	0.070043	0.796153
	N267	N	0.505356	0.892911	0.793919
	N268	N	0.886749	0.161380	0.441988
	N269	N	0.057943	0.160461	0.513130
	N270	N	0.058933	0.804130	0.442440
	N271	N	0.887850	0.804514	0.512725
	N272	N	0.153077	0.449252	0.889755
	N273	N	0.153930	0.517611	0.063663
	N274	N	0.792690	0.449640	0.064539
	N275	N	0.793301	0.518265	0.890183
	O276	O	-0.226142	1.163265	0.154993
	H277	H	-0.203982	1.151613	0.129603
	H278	H	-0.217202	1.143848	0.148691
	O279	O	0.251608	0.518734	0.254763
	H280	H	0.252936	0.515386	0.233852
	H281	H	0.248254	0.537481	0.247194
	O282	O	1.184641	-0.111016	1.022214
	H283	H	1.181048	-0.098624	1.009305
	H284	H	1.190666	-0.097174	1.022602
	O285	O	0.477435	0.420717	0.454420
	H286	H	0.476272	0.417341	0.451295
	H287	H	0.475953	0.436065	0.455907
	O288	O	0.679511	0.685905	0.683730
	H289	H	0.695332	0.658263	0.697638
	H290	H	0.660591	0.693698	0.668695
	O291	O	1.292944	0.668885	0.658721
	H292	H	1.316439	0.659552	0.645408
	H293	H	1.288273	0.659832	0.644386
	O294	O	1.143773	0.004840	0.955870
	H295	H	1.147557	-0.001360	0.941155
	H296	H	1.142575	0.009435	0.942809
	O297	O	0.894513	1.061614	-0.089484
	H298	H	0.885853	1.062932	-0.083393
	H299	H	0.895068	1.057076	-0.089104
	O300	O	-0.097996	-0.214081	0.973986
	H301	H	-0.100889	-0.220837	0.970639
	H302	H	-0.094817	-0.198319	0.995847
	O303	O	0.700765	0.331721	0.493295
	H304	H	0.704696	0.313615	0.495311
	H305	H	0.691571	0.320865	0.483031
	O306	O	0.436828	0.283888	0.682610
	H307	H	0.439800	0.286452	0.680166
	H308	H	0.440395	0.286756	0.677385
	O309	O	0.514040	0.694977	0.691745
	H310	H	0.521829	0.693375	0.692322
	H311	H	0.516803	0.712807	0.700286
	O312	O	0.512163	0.444875	0.289815
	H313	H	0.525255	0.446283	0.279323
	H314	H	0.512575	0.433466	0.302215
	O315	O	1.493047	1.265634	1.253859
	H316	H	1.511969	1.260295	1.264223
	H317	H	1.504213	1.245787	1.232318
	O318	O	0.684876	0.566820	0.430479
	H319	H	0.678297	0.572567	0.445893
	H320	H	0.691154	0.566336	0.450314
	O321	O	0.013113	0.762979	0.756068
	H322	H	-0.006962	0.778014	0.742325
	H323	H	-0.002820	0.744542	0.749425
	O324	O	0.965357	1.041609	0.171304
	H325	H	0.949679	1.046007	0.163700
	H326	H	0.971560	1.045186	0.173854
	O327	O	-0.252390	-0.232793	1.009572
	H328	H	-0.266535	-0.245309	1.031001
	H329	H	-0.247491	-0.248479	1.021353
	O330	O	0.441521	0.595217	0.650310
	H331	H	0.418334	0.602013	0.659283
	H332	H	0.448184	0.589428	0.649484
	O333	O	0.687882	0.457673	0.268910
	H334	H	0.693729	0.460601	0.288494
	H335	H	0.701673	0.462715	0.254060
	O336	O	0.333234	0.384643	0.416465
	H337	H	0.320320	0.387598	0.429505
	H338	H	0.342410	0.368792	0.415189
	O339	O	1.161117	-0.207859	1.168667
	H340	H	1.145747	-0.200626	1.132335
	H341	H	1.146332	-0.175161	1.165321
	O342	O	0.693778	0.516041	-0.300537
	H343	H	0.688064	0.509898	-0.307761
	H344	H	0.715266	0.512427	-0.281444
	O345	O	0.027692	0.763302	1.034432
	H346	H	0.034585	0.756841	1.038650
	H347	H	0.016698	0.766741	1.020730
	O348	O	0.536933	0.577742	0.287427
	H349	H	0.515626	0.578080	0.271935
	H350	H	0.529032	0.577231	0.277157
	O351	O	0.690901	1.267257	0.262824
	H352	H	0.685548	1.292227	0.246719
	H353	H	0.714183	1.247162	0.241933
	O354	O	0.527494	-0.558875	0.706875
	H355	H	0.510273	-0.544533	0.707825
	H356	H	0.530626	-0.562985	0.708886
	O357	O	1.147942	0.015507	1.113933
	H358	H	1.148741	0.029311	1.100986
	H359	H	1.166470	0.028131	1.125453
	O360	O	0.907233	0.958742	1.010663
	H361	H	0.912053	0.951885	1.014761
	H362	H	0.908865	0.968792	1.002913
	O363	O	0.174770	-0.212420	-0.232286
	H364	H	0.197019	-0.240312	-0.238623
	H365	H	0.125961	-0.220008	-0.238332
	O366	O	0.445733	0.698713	0.497680
	H367	H	0.439065	0.700401	0.503659
	H368	H	0.449657	0.705470	0.474613
	O369	O	0.371655	0.411997	0.516229
	H370	H	0.368955	0.396772	0.506020
	H371	H	0.366902	0.412714	0.522286
	O372	O	1.189244	0.768592	-0.077043
	H373	H	1.205920	0.766397	-0.088457
	H374	H	1.203513	0.766050	-0.072320
	O375	O	1.532769	0.267196	0.541875
	H376	H	1.538835	0.273682	0.546333
	H377	H	1.540688	0.267222	0.523722
	O378	O	0.278189	0.701048	0.454139
	H379	H	0.254914	0.714309	0.457880
	H380	H	0.279660	0.692523	0.442075
	O381	O	-0.223998	0.798521	0.789677
	H382	H	-0.226727	0.791910	0.787630
	H383	H	-0.205835	0.811558	0.799365
	O384	O	0.888691	0.207299	0.994670
	H385	H	0.889870	0.213354	0.990980
	H386	H	0.885196	0.196840	0.996760
	O387	O	1.352123	0.441082	0.299300
	H388	H	1.350293	0.448982	0.283393
	H389	H	1.367838	0.450177	0.313106
	O390	O	0.262296	0.689608	0.266877
	H391	H	0.255497	0.668424	0.293233
	H392	H	0.229583	0.720320	0.237498
	O393	O	0.287891	0.296631	0.287661
	H394	H	0.309098	0.310565	0.298948
	H395	H	0.301227	0.315616	0.309811
	O396	O	-0.017944	1.004228	0.758037
	H397	H	-0.003535	1.003005	0.762294
	H398	H	-0.019568	1.016279	0.754906
	O399	O	-0.253478	0.144516	0.982911
	H400	H	-0.257810	0.124074	0.991307
	H401	H	-0.262792	0.154232	0.989621
	O402	O	0.431433	0.708100	0.251241
	H403	H	0.403919	0.721748	0.237234
	H404	H	0.407922	0.721609	0.241083
	O405	O	1.200390	-0.037701	0.755858
	H406	H	1.195999	-0.074084	0.755604
	H407	H	1.214749	-0.053227	0.730413
	O408	O	-0.241832	0.193131	-0.234503
	H409	H	-0.245414	0.179801	-0.242371
	H410	H	-0.242432	0.196148	-0.208279
	O411	O	0.794522	0.979410	0.757396
	H412	H	0.769895	0.983215	0.739034
	H413	H	0.805222	0.977170	0.762532
	O414	O	0.929050	-0.154990	1.196240
	H415	H	0.930382	-0.159570	1.189301
	H416	H	0.931980	-0.158117	1.203036
	O417	O	0.570684	0.268632	0.424493
	H418	H	0.577907	0.273869	0.416318
	H419	H	0.576171	0.265419	0.435143
	O420	O	0.525045	0.645167	0.478161
	H421	H	0.539258	0.640379	0.468727
	H422	H	0.521283	0.637282	0.473812
	O423	O	0.197632	0.195804	1.005467
	H424	H	0.187249	0.205111	1.002323
	H425	H	0.212335	0.216203	1.023769
	O426	O	0.699124	0.424057	0.468351
	H427	H	0.689162	0.427781	0.482451
	H428	H	0.702067	0.402054	0.462169
	O429	O	0.886270	1.034565	0.765638
	H430	H	0.876481	1.036987	0.774405
	H431	H	0.882762	1.060940	0.762890
	O432	O	0.042755	1.160378	0.972257
	H433	H	0.045550	1.150796	0.971152
	H434	H	0.036731	1.156147	0.970095
	O435	O	1.052231	0.951713	0.932391
	H436	H	1.058984	0.940995	0.938323
	H437	H	1.057776	0.948745	0.936429
	O438	O	0.403865	-0.446951	0.411901
	H439	H	0.408430	-0.445878	0.415693
	H440	H	0.413899	-0.439077	0.414710
	O441	O	-0.338212	0.294493	-0.336066
	H442	H	-0.363657	0.310288	-0.341392
	H443	H	-0.331826	0.280038	-0.335400
	O444	O	0.279542	0.273839	0.530494
	H445	H	0.279058	0.272989	0.545800
	H446	H	0.256233	0.255846	0.536326
	O447	O	-0.325119	1.674861	0.282994
	H448	H	-0.338409	1.648386	0.298142
	H449	H	-0.348723	1.661961	0.305893
	O450	O	-0.749745	0.451408	1.696860
	H451	H	-0.768927	0.438254	1.721459
	H452	H	-0.753646	0.419096	1.693751
	O453	O	0.321787	0.516896	0.604097
	H454	H	0.309988	0.510877	0.595724
	H455	H	0.318884	0.515916	0.625305
	O456	O	0.762734	-0.218615	1.181825
	H457	H	0.734180	-0.254230	1.215361
	H458	H	0.802903	-0.227402	1.177725
	O459	O	0.944705	1.203347	-0.246223
	H460	H	0.932996	1.212260	-0.250443
	H461	H	0.924021	1.216978	-0.255778
	O462	O	0.185613	0.192843	0.189067
	H463	H	0.186320	0.210190	0.210712
	H464	H	0.187825	0.210946	0.179482
	O465	O	1.055565	0.125304	-0.090029
	H466	H	1.048220	0.120717	-0.084965
	H467	H	1.054859	0.126894	-0.098955
	O468	O	0.705069	0.703814	0.511411
	H469	H	0.684796	0.696133	0.532895
	H470	H	0.735881	0.741495	0.516296
	O471	O	0.961334	0.849453	0.846779
	H472	H	0.953216	0.852355	0.872054
	H473	H	0.947369	0.864022	0.838531
	O474	O	0.166177	0.168578	0.790448
	H475	H	0.160976	0.148154	0.808361
	H476	H	0.145026	0.151282	0.806955
	O477	O	0.736025	0.927700	0.925385
	H478	H	0.733833	0.923559	0.920271
	H479	H	0.733779	0.908648	0.929552
	O480	O	0.254480	0.274746	0.687506
	H481	H	0.292525	0.269930	0.675789
	H482	H	0.228596	0.239955	0.715443
	O483	O	0.540292	0.481500	0.480808
	H484	H	0.545072	0.488814	0.489770
	H485	H	0.518135	0.467085	0.472452
	O486	O	1.140197	-0.002630	1.187493
	H487	H	1.136476	0.028455	1.167762
	H488	H	1.171959	0.010952	1.205917
	O489	O	0.745269	0.953434	0.195556
	H490	H	0.759545	0.914432	0.188895
	H491	H	0.717214	0.940065	0.228668
	O492	O	0.012909	0.207089	0.202236
	H493	H	0.019856	0.209887	0.202303
	H494	H	0.004063	0.224015	0.219490
	O495	O	-0.185290	1.075115	1.069198
	H496	H	-0.170531	1.070586	1.096640
	H497	H	-0.186520	1.040796	1.060194
	O498	O	0.952162	0.879907	1.197521
	H499	H	0.949407	0.864559	1.211846
	H500	H	0.973761	0.895364	1.196733
	O501	O	0.239377	0.449674	0.491772
	H502	H	0.248822	0.459504	0.482447
	H503	H	0.235795	0.447202	0.478073
