data_Molecule from HDF5

_cell_length_a		16.190702
_cell_length_b		16.358964
_cell_length_c		16.252338
_cell_angle_alpha	89.954703
_cell_angle_beta	89.842043
_cell_angle_gamma	90.114011
_symmetry_space_group_name_H-M	'P 1'
_symmetry_Int_Tables_number		1

loop_
	_symmetry_equiv_pos_as_xyz
	x,y,z

loop_
	_atom_site_label
	_atom_site_type_symbol
	_atom_site_fract_x
	_atom_site_fract_y
	_atom_site_fract_z
	H0	H	0.393646	0.841641	0.707754
	H1	H	0.595279	0.167387	0.707600
	H2	H	0.594006	0.841283	0.274513
	H3	H	0.393155	0.166754	0.274498
	H4	H	0.708742	0.406944	0.830278
	H5	H	0.706754	0.604197	0.157626
	H6	H	0.280245	0.601858	0.828620
	H7	H	0.279696	0.406731	0.158122
	H8	H	0.831314	0.721060	0.393320
	H9	H	0.158102	0.719505	0.593987
	H10	H	0.830057	0.287572	0.594799
	H11	H	0.158589	0.291205	0.394926
	H12	H	0.829572	0.403481	0.709563
	H13	H	0.159081	0.600279	0.706298
	H14	H	0.828873	0.603037	0.280990
	H15	H	0.158022	0.406910	0.278885
	H16	H	0.392994	0.719156	0.829083
	H17	H	0.593388	0.721632	0.155330
	H18	H	0.592809	0.291506	0.829457
	H19	H	0.389899	0.285588	0.154983
	H20	H	0.710094	0.841512	0.391029
	H21	H	0.709942	0.167813	0.588956
	H22	H	0.279285	0.841657	0.590099
	H23	H	0.280018	0.168231	0.393807
	H24	H	0.893165	0.341881	0.209988
	H25	H	0.091886	0.668597	0.207910
	H26	H	0.092924	0.341168	0.778476
	H27	H	0.893821	0.666477	0.777195
	H28	H	0.206665	0.908856	0.328089
	H29	H	0.208031	0.102530	0.657068
	H30	H	0.782843	0.101825	0.327754
	H31	H	0.777235	0.904424	0.655601
	H32	H	0.328884	0.219025	0.891700
	H33	H	0.657690	0.219503	0.090053
	H34	H	0.328915	0.790398	0.090544
	H35	H	0.656629	0.788328	0.889889
	H36	H	0.329069	0.906115	0.206333
	H37	H	0.658715	0.102355	0.204030
	H38	H	0.329056	0.100994	0.778398
	H39	H	0.658680	0.908159	0.778569
	H40	H	0.893017	0.221253	0.331178
	H41	H	0.093104	0.218802	0.656839
	H42	H	0.096648	0.787553	0.330605
	H43	H	0.893058	0.788387	0.656766
	H44	H	0.207948	0.341195	0.896075
	H45	H	0.208554	0.668467	0.090812
	H46	H	0.776938	0.342251	0.093802
	H47	H	0.780375	0.667892	0.896804
	H48	H	0.407598	0.119294	0.589510
	H49	H	0.590992	0.885406	0.592952
	H50	H	0.593403	0.120989	0.399307
	H51	H	0.396624	0.890561	0.408801
	H52	H	0.585490	0.406060	0.112064
	H53	H	0.595419	0.593915	0.874222
	H54	H	0.404630	0.597111	0.107944
	H55	H	0.387958	0.408878	0.871839
	H56	H	0.105646	0.592359	0.415236
	H57	H	0.881899	0.580044	0.584980
	H58	H	0.108609	0.410928	0.580486
	H59	H	0.875845	0.401395	0.407975
	H60	H	0.110852	0.415512	0.589353
	H61	H	0.870916	0.602579	0.600092
	H62	H	0.111441	0.586582	0.389751
	H63	H	0.881562	0.420225	0.407776
	H64	H	0.400369	0.602271	0.110766
	H65	H	0.579752	0.591169	0.880705
	H66	H	0.587552	0.414764	0.109760
	H67	H	0.404033	0.423907	0.881292
	H68	H	0.585786	0.120605	0.392422
	H69	H	0.576311	0.892141	0.585353
	H70	H	0.401650	0.119442	0.578563
	H71	H	0.394367	0.884595	0.390809
	H72	H	0.902684	0.620922	0.090164
	H73	H	0.088622	0.390165	0.082622
	H74	H	0.088524	0.619403	0.905609
	H75	H	0.901602	0.389609	0.903347
	H76	H	0.089023	0.906570	0.611611
	H77	H	0.089300	0.097963	0.375663
	H78	H	0.903909	0.096775	0.609180
	H79	H	0.900266	0.913664	0.376955
	H80	H	0.610613	0.102559	0.903356
	H81	H	0.374470	0.103898	0.085245
	H82	H	0.610542	0.910968	0.081995
	H83	H	0.373206	0.913071	0.888661
	H84	H	0.609853	0.913145	0.081995
	H85	H	0.379833	0.093913	0.075231
	H86	H	0.608487	0.093259	0.900091
	H87	H	0.374085	0.901040	0.903423
	H88	H	0.900942	0.096338	0.609853
	H89	H	0.085713	0.098184	0.376559
	H90	H	0.089189	0.914490	0.609710
	H91	H	0.907896	0.912332	0.378525
	H92	H	0.090058	0.622692	0.893849
	H93	H	0.089131	0.387512	0.091099
	H94	H	0.899114	0.620252	0.085549
	H95	H	0.899228	0.387793	0.901155
	H96	H	0.396045	0.122776	0.588527
	H97	H	0.591288	0.889422	0.575358
	H98	H	0.584017	0.116758	0.401723
	H99	H	0.411493	0.891262	0.396129
	H100	H	0.578147	0.411890	0.108168
	H101	H	0.583485	0.606522	0.874087
	H102	H	0.398333	0.595929	0.109742
	H103	H	0.410374	0.402221	0.876787
	H104	H	0.115936	0.611147	0.398689
	H105	H	0.879186	0.606220	0.572672
	H106	H	0.112836	0.406565	0.587922
	H107	H	0.873478	0.411681	0.391321
	H108	H	0.897407	0.621586	0.090007
	H109	H	0.081246	0.390527	0.087633
	H110	H	0.079927	0.617662	0.898362
	H111	H	0.902721	0.389222	0.900778
	H112	H	0.082281	0.909854	0.608721
	H113	H	0.087677	0.101242	0.374512
	H114	H	0.902449	0.093650	0.608273
	H115	H	0.903520	0.906184	0.375555
	H116	H	0.612033	0.100037	0.894348
	H117	H	0.376519	0.089598	0.089152
	H118	H	0.611085	0.912001	0.083751
	H119	H	0.380855	0.918995	0.905780
	C120	C	0.372413	0.013088	0.614114
	C121	C	0.616255	0.996439	0.613281
	C122	C	0.616355	0.012102	0.368940
	C123	C	0.371704	0.996231	0.369703
	C124	C	0.613920	0.383041	0.001908
	C125	C	0.614715	0.626521	0.984489
	C126	C	0.372155	0.626148	0.001092
	C127	C	0.371125	0.382449	0.984771
	C128	C	0.002428	0.625849	0.372468
	C129	C	0.985850	0.624726	0.614687
	C130	C	0.002259	0.381747	0.615482
	C131	C	0.985271	0.382583	0.372828
	C132	C	0.870706	0.513333	0.117051
	C133	C	0.114949	0.497132	0.115356
	C134	C	0.115395	0.512271	0.871131
	C135	C	0.872167	0.496298	0.872413
	C136	C	0.115719	0.882462	0.501453
	C137	C	0.115721	0.126650	0.484347
	C138	C	0.873258	0.124975	0.501434
	C139	C	0.872954	0.881747	0.484432
	C140	C	0.501920	0.126599	0.870189
	C141	C	0.485306	0.125226	0.112316
	C142	C	0.501831	0.883377	0.112001
	C143	C	0.484866	0.882957	0.870206
	C144	C	0.374095	0.890357	0.669689
	C145	C	0.615141	0.118593	0.669191
	C146	C	0.614043	0.889893	0.313093
	C147	C	0.373663	0.118493	0.313683
	C148	C	0.670377	0.386637	0.878989
	C149	C	0.669294	0.624378	0.108120
	C150	C	0.317181	0.623050	0.877926
	C151	C	0.315854	0.385241	0.108232
	C152	C	0.879727	0.681986	0.374162
	C153	C	0.109480	0.680442	0.613261
	C154	C	0.878993	0.325539	0.614589
	C155	C	0.109057	0.328511	0.374816
	C156	C	0.878775	0.383522	0.671260
	C157	C	0.109878	0.621497	0.669268
	C158	C	0.878576	0.623682	0.317903
	C159	C	0.108935	0.386050	0.317123
	C160	C	0.373293	0.681444	0.878146
	C161	C	0.613209	0.683110	0.106875
	C162	C	0.612896	0.329106	0.878396
	C163	C	0.370909	0.325092	0.106766
	C164	C	0.672010	0.889972	0.370759
	C165	C	0.672220	0.118815	0.610067
	C166	C	0.316968	0.890246	0.611378
	C167	C	0.317493	0.119275	0.373156
	C168	C	0.872571	0.390824	0.172547
	C169	C	0.112742	0.619669	0.170510
	C170	C	0.112864	0.389705	0.816665
	C171	C	0.873957	0.618030	0.815800
	C172	C	0.170321	0.886678	0.377736
	C173	C	0.170393	0.123261	0.608048
	C174	C	0.819345	0.122552	0.377435
	C175	C	0.815556	0.883844	0.607052
	C176	C	0.378071	0.181347	0.871761
	C177	C	0.608661	0.181512	0.110580
	C178	C	0.378230	0.827716	0.110797
	C179	C	0.608153	0.827162	0.870976
	C180	C	0.378169	0.885350	0.168167
	C181	C	0.609330	0.123208	0.166902
	C182	C	0.378142	0.122874	0.815275
	C183	C	0.609168	0.886625	0.815499
	C184	C	0.874212	0.181774	0.379016
	C185	C	0.113353	0.181177	0.607807
	C186	C	0.115208	0.826673	0.378804
	C187	C	0.873239	0.826196	0.607609
	C188	C	0.169986	0.389727	0.875253
	C189	C	0.170361	0.619890	0.112017
	C190	C	0.815037	0.390859	0.114506
	C191	C	0.817497	0.618841	0.875388
	C192	C	0.395021	0.098354	0.592074
	C193	C	0.593130	0.911101	0.591067
	C194	C	0.594180	0.097462	0.391234
	C195	C	0.394210	0.910973	0.392038
	C196	C	0.590396	0.404657	0.087784
	C197	C	0.592621	0.604008	0.898624
	C198	C	0.394687	0.604640	0.087343
	C199	C	0.394104	0.405095	0.898872
	C200	C	0.088692	0.603241	0.394727
	C201	C	0.899578	0.602812	0.592330
	C202	C	0.088406	0.404325	0.592517
	C203	C	0.899103	0.404563	0.395571
	C204	C	0.893192	0.598835	0.095035
	C205	C	0.092629	0.411513	0.093540
	C206	C	0.092924	0.597963	0.893018
	C207	C	0.894532	0.410850	0.894970
	C208	C	0.093155	0.903912	0.587712
	C209	C	0.094068	0.105457	0.398089
	C210	C	0.895773	0.102203	0.586759
	C211	C	0.896992	0.904143	0.399160
	C212	C	0.588089	0.105243	0.892733
	C213	C	0.399228	0.102502	0.089833
	C214	C	0.587931	0.905367	0.089356
	C215	C	0.398480	0.904621	0.892587
	Zn216	Zn	0.493919	0.004902	0.742404
	Zn217	Zn	0.494007	0.004402	0.240589
	Zn218	Zn	0.742347	0.504905	-0.005336
	Zn219	Zn	0.243953	0.505080	-0.006696
	Zn220	Zn	-0.005126	0.753332	0.493776
	Zn221	Zn	-0.006527	0.253953	0.493872
	Zn222	Zn	-0.006202	0.503670	0.742446
	Zn223	Zn	-0.006511	0.504766	0.244834
	Zn224	Zn	0.493404	0.754310	-0.008497
	Zn225	Zn	0.493032	0.254109	-0.008086
	Zn226	Zn	0.745496	0.003915	0.491233
	Zn227	Zn	0.243602	0.004992	0.493011
	N228	N	0.407936	0.967734	0.671392
	N229	N	0.580951	0.041408	0.671313
	N230	N	0.580196	0.966985	0.311755
	N231	N	0.406842	0.041167	0.311522
	N232	N	0.671130	0.419434	0.956926
	N233	N	0.670320	0.589954	0.030870
	N234	N	0.316239	0.589537	0.955445
	N235	N	0.316048	0.420347	0.031144
	N236	N	0.957684	0.683200	0.407489
	N237	N	0.031507	0.682304	0.579778
	N238	N	0.956856	0.324377	0.580456
	N239	N	0.030919	0.326181	0.408617
	N240	N	0.956204	0.417813	0.671719
	N241	N	0.032045	0.587559	0.670102
	N242	N	0.956122	0.589450	0.316818
	N243	N	0.030959	0.418847	0.315627
	N244	N	0.406778	0.683496	0.955812
	N245	N	0.579910	0.684380	0.029114
	N246	N	0.578710	0.326561	0.955889
	N247	N	0.404747	0.323379	0.029121
	N248	N	0.673627	0.966934	0.404899
	N249	N	0.672931	0.041765	0.576219
	N250	N	0.315784	0.967278	0.577549
	N251	N	0.316213	0.042298	0.407396
	N252	N	0.906518	0.468007	0.174209
	N253	N	0.079022	0.542364	0.172482
	N254	N	0.079571	0.466941	0.814318
	N255	N	0.907239	0.540778	0.813998
	N256	N	0.170698	0.920758	0.455058
	N257	N	0.172173	0.090179	0.530256
	N258	N	0.818672	0.087686	0.454419
	N259	N	0.815199	0.917561	0.529572
	N260	N	0.456159	0.183740	0.905203
	N261	N	0.530505	0.182894	0.077397
	N262	N	0.456185	0.826235	0.076720
	N263	N	0.529988	0.824728	0.904280
	N264	N	0.455839	0.919359	0.168969
	N265	N	0.531585	0.089080	0.168392
	N266	N	0.455902	0.089588	0.814232
	N267	N	0.531490	0.920630	0.814857
	N268	N	0.906872	0.183633	0.456986
	N269	N	0.080253	0.183321	0.529973
	N270	N	0.082501	0.823603	0.457003
	N271	N	0.908353	0.824811	0.530411
	N272	N	0.171617	0.467108	0.908374
	N273	N	0.172056	0.542655	0.078570
	N274	N	0.813493	0.468017	0.080971
	N275	N	0.816178	0.542033	0.909988
	O276	O	0.009881	-0.015441	0.018340
	H277	H	0.003107	-0.019216	0.007276
	H278	H	0.016274	-0.009545	0.009116
	O279	O	0.502733	0.433498	0.421363
	H280	H	0.499375	0.435022	0.425472
	H281	H	0.516439	0.432370	0.409582
	O282	O	0.508625	0.525876	0.554074
	H283	H	0.514346	0.521541	0.554308
	H284	H	0.511354	0.521180	0.551539
	O285	O	-0.007514	0.970110	1.018269
	H286	H	-0.004592	0.969166	1.018251
	H287	H	-0.006120	0.974168	1.027269
	O288	O	0.577463	0.550362	0.557940
	H289	H	0.573795	0.542436	0.567696
	H290	H	0.576295	0.548641	0.555907
	O291	O	0.992529	1.015249	1.038360
	H292	H	0.994720	1.023476	1.043795
	H293	H	0.997042	1.001907	1.043591
	O294	O	0.919297	1.033205	1.028218
	H295	H	0.914411	1.032136	1.024190
	H296	H	0.926731	1.044240	1.030934
	O297	O	1.013704	0.026007	0.929167
	H298	H	1.010956	0.014592	0.922032
	H299	H	1.015399	0.028440	0.924434
	O300	O	0.493799	0.487061	0.505566
	H301	H	0.500955	0.498365	0.500984
	H302	H	0.485502	0.500705	0.509535
	O303	O	0.990037	0.096909	0.054226
	H304	H	0.992091	0.096720	0.052689
	H305	H	0.983311	0.107127	0.063017
	O306	O	-0.040030	1.019583	0.933627
	H307	H	-0.036380	1.018612	0.938344
	H308	H	-0.043660	1.018799	0.928132
	O309	O	0.469660	0.446533	0.427180
	H310	H	0.467458	0.447703	0.424185
	H311	H	0.485814	0.446715	0.422512
	O312	O	0.971483	0.031290	1.003269
	H313	H	0.972830	0.037898	0.996936
	H314	H	0.973415	0.037217	1.018992
	O315	O	0.485821	0.431882	0.653121
	H316	H	0.478541	0.424941	0.653098
	H317	H	0.470548	0.423978	0.658554
	O318	O	0.422953	0.404797	0.587555
	H319	H	0.413368	0.415792	0.575514
	H320	H	0.418693	0.398518	0.594345
	O321	O	1.018481	0.987834	0.941310
	H322	H	1.016770	0.977515	0.935706
	H323	H	1.013618	0.999394	0.947761
	O324	O	0.710905	0.734769	0.639285
	H325	H	0.709425	0.734272	0.645048
	H326	H	0.718478	0.737923	0.646703
	O327	O	0.485148	0.590866	0.518199
	H328	H	0.491565	0.590606	0.506189
	H329	H	0.487957	0.599447	0.518955
	O330	O	0.932853	-0.092397	0.986197
	H331	H	0.920409	-0.096438	0.977379
	H332	H	0.930961	-0.087826	0.990243
	O333	O	0.957071	1.054582	-0.028753
	H334	H	0.957644	1.054825	-0.023954
	H335	H	0.964724	1.041712	-0.032581
	O336	O	0.448796	0.560936	0.464021
	H337	H	0.452976	0.555176	0.452455
	H338	H	0.443870	0.555811	0.465860
	O339	O	0.416309	0.487843	0.474086
	H340	H	0.412331	0.493576	0.471061
	H341	H	0.402416	0.487731	0.484163
	O342	O	0.037828	1.003408	0.023457
	H343	H	0.047706	1.006082	0.022713
	H344	H	0.030083	1.014093	0.020342
	O345	O	0.024420	-0.052053	-0.036421
	H346	H	0.020327	-0.050762	-0.037369
	H347	H	0.019282	-0.046751	-0.042230
	O348	O	0.389760	0.483180	0.481227
	H349	H	0.381456	0.479707	0.480089
	H350	H	0.386960	0.491403	0.474925
	O351	O	0.503587	0.380966	0.446792
	H352	H	0.512133	0.364116	0.438481
	H353	H	0.512549	0.388576	0.463040
	O354	O	0.537302	0.518913	0.471995
	H355	H	0.548479	0.514136	0.467214
	H356	H	0.536000	0.507129	0.482405
	O357	O	0.589972	0.530609	0.418670
	H358	H	0.581391	0.532059	0.424711
	H359	H	0.591927	0.535619	0.414047
	O360	O	0.463184	-0.517066	0.460846
	H361	H	0.470208	-0.510618	0.456638
	H362	H	0.467571	-0.507705	0.456846
	O363	O	0.611971	0.475393	0.434249
	H364	H	0.624007	0.486528	0.436800
	H365	H	0.609392	0.472901	0.439262
	O366	O	-0.000504	-0.062923	0.988091
	H367	H	-0.005570	-0.067191	0.987320
	H368	H	-0.007149	-0.062869	0.994597
	O369	O	0.487317	0.629871	0.553846
	H370	H	0.474871	0.628790	0.554605
	H371	H	0.500678	0.618239	0.558901
