data_Molecule from HDF5

_cell_length_a		16.454507
_cell_length_b		16.440910
_cell_length_c		16.337981
_cell_angle_alpha	90.104429
_cell_angle_beta	90.133478
_cell_angle_gamma	89.966621
_symmetry_space_group_name_H-M	'P 1'
_symmetry_Int_Tables_number		1

loop_
	_symmetry_equiv_pos_as_xyz
	x,y,z

loop_
	_atom_site_label
	_atom_site_type_symbol
	_atom_site_fract_x
	_atom_site_fract_y
	_atom_site_fract_z
	H0	H	0.383581	0.839505	0.723480
	H1	H	0.592603	0.157159	0.721565
	H2	H	0.590389	0.838494	0.282348
	H3	H	0.384763	0.157404	0.282906
	H4	H	0.710158	0.392165	0.841171
	H5	H	0.710926	0.603302	0.160009
	H6	H	0.265861	0.608028	0.842121
	H7	H	0.270043	0.395427	0.159764
	H8	H	0.828932	0.716857	0.395541
	H9	H	0.146819	0.721778	0.606673
	H10	H	0.830601	0.276478	0.606678
	H11	H	0.146455	0.275614	0.394617
	H12	H	0.829922	0.394807	0.720804
	H13	H	0.147352	0.605858	0.722774
	H14	H	0.829077	0.599855	0.281169
	H15	H	0.147708	0.394449	0.281122
	H16	H	0.384708	0.720649	0.841757
	H17	H	0.595519	0.719585	0.160436
	H18	H	0.597293	0.275144	0.843419
	H19	H	0.387006	0.280768	0.160652
	H20	H	0.707395	0.839207	0.397270
	H21	H	0.711862	0.154768	0.609452
	H22	H	0.268356	0.838851	0.606513
	H23	H	0.266916	0.155832	0.396908
	H24	H	0.884703	0.339358	0.220290
	H25	H	0.091746	0.657330	0.220072
	H26	H	0.096438	0.339878	0.777731
	H27	H	0.885168	0.657212	0.780275
	H28	H	0.208405	0.892019	0.342065
	H29	H	0.210418	0.105307	0.660021
	H30	H	0.767183	0.101274	0.340471
	H31	H	0.767237	0.892940	0.659668
	H32	H	0.331666	0.223587	0.893382
	H33	H	0.648331	0.220022	0.108441
	H34	H	0.332465	0.774897	0.109055
	H35	H	0.647518	0.778237	0.896084
	H36	H	0.329902	0.895460	0.219466
	H37	H	0.648474	0.101820	0.222618
	H38	H	0.330850	0.106890	0.778124
	H39	H	0.647781	0.895849	0.781583
	H40	H	0.882805	0.217366	0.340353
	H41	H	0.095090	0.221349	0.659366
	H42	H	0.090714	0.778892	0.340718
	H43	H	0.882195	0.776591	0.658583
	H44	H	0.213089	0.340787	0.892884
	H45	H	0.210649	0.656358	0.106466
	H46	H	0.768383	0.340060	0.105314
	H47	H	0.766470	0.655983	0.894029
	H48	H	0.396656	0.110856	0.586252
	H49	H	0.575072	0.888282	0.583448
	H50	H	0.576433	0.110739	0.415032
	H51	H	0.396291	0.883133	0.410281
	H52	H	0.572923	0.411624	0.112090
	H53	H	0.574285	0.587223	0.888609
	H54	H	0.396213	0.587261	0.115549
	H55	H	0.403180	0.411775	0.887087
	H56	H	0.105375	0.593045	0.405128
	H57	H	0.876779	0.589299	0.586134
	H58	H	0.100861	0.410507	0.589737
	H59	H	0.874969	0.406232	0.412718
	H60	H	0.101960	0.407914	0.587355
	H61	H	0.877526	0.584509	0.588726
	H62	H	0.100768	0.592521	0.418466
	H63	H	0.875705	0.411297	0.410232
	H64	H	0.403086	0.583253	0.112504
	H65	H	0.579317	0.591364	0.885707
	H66	H	0.581702	0.403749	0.117807
	H67	H	0.402407	0.409969	0.887183
	H68	H	0.579600	0.112817	0.413147
	H69	H	0.584680	0.881562	0.591170
	H70	H	0.398355	0.112310	0.593166
	H71	H	0.398373	0.884235	0.409473
	H72	H	0.900417	0.610321	0.085811
	H73	H	0.079864	0.386360	0.084679
	H74	H	0.071660	0.610985	0.906710
	H75	H	0.899507	0.384698	0.910021
	H76	H	0.073711	0.914994	0.612147
	H77	H	0.074048	0.090124	0.386951
	H78	H	0.897419	0.095004	0.617134
	H79	H	0.891771	0.918434	0.387351
	H80	H	0.602938	0.094676	0.915304
	H81	H	0.377675	0.088474	0.088806
	H82	H	0.601275	0.915999	0.093744
	H83	H	0.378332	0.910847	0.917297
	H84	H	0.605248	0.903762	0.095785
	H85	H	0.374916	0.089027	0.093808
	H86	H	0.596596	0.082528	0.919087
	H87	H	0.376580	0.912246	0.910762
	H88	H	0.893813	0.080436	0.613805
	H89	H	0.081181	0.085999	0.386400
	H90	H	0.073833	0.904507	0.615636
	H91	H	0.908626	0.906553	0.389252
	H92	H	0.075853	0.607081	0.920788
	H93	H	0.083416	0.383242	0.091069
	H94	H	0.896226	0.612940	0.090270
	H95	H	0.902310	0.385613	0.911327
	H96	H	0.402259	0.108894	0.589395
	H97	H	0.571979	0.884271	0.596904
	H98	H	0.576388	0.111482	0.410869
	H99	H	0.397349	0.884052	0.411478
	H100	H	0.584901	0.416019	0.114841
	H101	H	0.580597	0.584923	0.886977
	H102	H	0.404036	0.591292	0.114403
	H103	H	0.401361	0.411440	0.886383
	H104	H	0.100183	0.581435	0.409677
	H105	H	0.875264	0.588868	0.591542
	H106	H	0.100019	0.410811	0.585743
	H107	H	0.874051	0.406075	0.407583
	H108	H	0.902530	0.612009	0.092202
	H109	H	0.075621	0.384772	0.090754
	H110	H	0.085832	0.613747	0.911136
	H111	H	0.899749	0.384954	0.913095
	H112	H	0.083631	0.910722	0.616630
	H113	H	0.074285	0.081756	0.389722
	H114	H	0.908047	0.085214	0.610992
	H115	H	0.890947	0.898634	0.380717
	H116	H	0.602809	0.084303	0.906135
	H117	H	0.375431	0.093616	0.090490
	H118	H	0.601146	0.907438	0.083921
	H119	H	0.374675	0.906863	0.913803
	C120	C	0.367139	0.006160	0.622750
	C121	C	0.609691	0.989387	0.623044
	C122	C	0.608805	0.006442	0.380756
	C123	C	0.365851	0.989077	0.379089
	C124	C	0.611569	0.377401	0.009584
	C125	C	0.611228	0.619913	0.992290
	C126	C	0.368582	0.620524	0.009071
	C127	C	0.369537	0.378985	0.992173
	C128	C	-0.003127	0.619778	0.378859
	C129	C	0.980655	0.620607	0.621798
	C130	C	-0.003276	0.377114	0.621054
	C131	C	0.980187	0.376328	0.378557
	C132	C	0.867915	0.506917	0.121455
	C133	C	0.111229	0.489372	0.121800
	C134	C	0.111538	0.506990	0.878594
	C135	C	0.867948	0.489692	0.879235
	C136	C	0.108708	0.877498	0.509447
	C137	C	0.109799	0.119519	0.492372
	C138	C	0.866789	0.119084	0.508904
	C139	C	0.865994	0.876599	0.491310
	C140	C	0.496955	0.120937	0.880092
	C141	C	0.481122	0.121286	0.123730
	C142	C	0.498129	0.876664	0.122914
	C143	C	0.480810	0.878082	0.881052
	C144	C	0.365395	0.887181	0.683475
	C145	C	0.611464	0.109076	0.682624
	C146	C	0.609390	0.886298	0.321724
	C147	C	0.365593	0.109225	0.321496
	C148	C	0.671088	0.374299	0.889690
	C149	C	0.671397	0.621991	0.112099
	C150	C	0.307007	0.624515	0.889768
	C151	C	0.309816	0.377043	0.112073
	C152	C	0.876913	0.677908	0.377362
	C153	C	0.099424	0.681322	0.624441
	C154	C	0.878102	0.316766	0.624520
	C155	C	0.099183	0.316250	0.376810
	C156	C	0.877813	0.375846	0.681404
	C157	C	0.099850	0.623306	0.682243
	C158	C	0.877081	0.619854	0.319905
	C159	C	0.099850	0.375363	0.320194
	C160	C	0.366076	0.680940	0.889530
	C161	C	0.613546	0.679566	0.112488
	C162	C	0.614608	0.315927	0.890626
	C163	C	0.368052	0.320088	0.112470
	C164	C	0.667591	0.886579	0.378860
	C165	C	0.670889	0.107924	0.626706
	C166	C	0.307922	0.886628	0.625290
	C167	C	0.306757	0.108400	0.378262
	C168	C	0.866671	0.387066	0.180379
	C169	C	0.111788	0.609251	0.181185
	C170	C	0.114889	0.387942	0.817171
	C171	C	0.866312	0.609468	0.820024
	C172	C	0.168284	0.874477	0.389651
	C173	C	0.170474	0.122876	0.612093
	C174	C	0.806554	0.120370	0.388619
	C175	C	0.806927	0.874707	0.611560
	C176	C	0.378719	0.182526	0.876278
	C177	C	0.600439	0.180375	0.126409
	C178	C	0.379493	0.815822	0.126091
	C179	C	0.600025	0.818158	0.878051
	C180	C	0.378034	0.876184	0.180962
	C181	C	0.600490	0.121713	0.183629
	C182	C	0.378222	0.124294	0.818744
	C183	C	0.600156	0.876857	0.821143
	C184	C	0.864002	0.178347	0.388514
	C185	C	0.112826	0.180849	0.611746
	C186	C	0.109556	0.818429	0.388779
	C187	C	0.864051	0.816686	0.611314
	C188	C	0.172972	0.388222	0.874902
	C189	C	0.170642	0.608870	0.124518
	C190	C	0.808536	0.387454	0.123347
	C191	C	0.807393	0.608882	0.876735
	C192	C	0.391839	0.088925	0.596947
	C193	C	0.584536	0.906330	0.597788
	C194	C	0.584541	0.089910	0.405741
	C195	C	0.390241	0.905564	0.403273
	C196	C	0.586812	0.403113	0.093113
	C197	C	0.585347	0.594918	0.908753
	C198	C	0.393859	0.594735	0.092395
	C199	C	0.394804	0.404035	0.908649
	C200	C	0.080482	0.595816	0.403803
	C201	C	0.898097	0.594970	0.596243
	C202	C	0.079718	0.402459	0.595193
	C203	C	0.896613	0.400970	0.403031
	C204	C	0.892794	0.590153	0.096705
	C205	C	0.086715	0.406386	0.096169
	C206	C	0.085426	0.589343	0.905215
	C207	C	0.893268	0.406810	0.904043
	C208	C	0.084024	0.902822	0.592917
	C209	C	0.084024	0.093552	0.409225
	C210	C	0.892308	0.094107	0.592245
	C211	C	0.890129	0.900914	0.407603
	C212	C	0.579266	0.094925	0.906199
	C213	C	0.397638	0.097161	0.098332
	C214	C	0.580934	0.901861	0.098167
	C215	C	0.398107	0.902861	0.906481
	Zn216	Zn	0.488482	-0.001034	0.751980
	Zn217	Zn	0.488825	-0.001485	0.251579
	Zn218	Zn	0.739225	0.498323	0.000675
	Zn219	Zn	0.239955	0.499045	-0.000004
	Zn220	Zn	-0.011974	0.749509	0.500182
	Zn221	Zn	-0.011870	0.247651	0.499948
	Zn222	Zn	-0.010334	0.498500	0.750434
	Zn223	Zn	-0.011075	0.498154	0.249789
	Zn224	Zn	0.489963	0.748702	0.001609
	Zn225	Zn	0.489925	0.249778	0.001421
	Zn226	Zn	0.737871	-0.001822	0.501124
	Zn227	Zn	0.238043	-0.002772	0.501559
	N228	N	0.401341	0.962678	0.682134
	N229	N	0.574324	0.034316	0.680615
	N230	N	0.573299	0.961756	0.323008
	N231	N	0.401302	0.033718	0.321571
	N232	N	0.669363	0.411821	0.964856
	N233	N	0.669930	0.585818	0.036254
	N234	N	0.308379	0.587493	0.965289
	N235	N	0.310566	0.412831	0.036027
	N236	N	0.952634	0.678129	0.413423
	N237	N	0.024212	0.680026	0.587829
	N238	N	0.953244	0.317382	0.588009
	N239	N	0.023561	0.316802	0.412333
	N240	N	0.952918	0.412639	0.679381
	N241	N	0.024997	0.586410	0.681008
	N242	N	0.952569	0.584288	0.320965
	N243	N	0.024737	0.411802	0.321106
	N244	N	0.403522	0.678504	0.964696
	N245	N	0.577151	0.678731	0.036765
	N246	N	0.578309	0.317700	0.966292
	N247	N	0.404353	0.321113	0.036814
	N248	N	0.667319	0.962154	0.414751
	N249	N	0.669909	0.032426	0.590313
	N250	N	0.308655	0.961576	0.588359
	N251	N	0.306783	0.032602	0.413181
	N252	N	0.902764	0.462517	0.179556
	N253	N	0.075822	0.533857	0.179788
	N254	N	0.077630	0.462914	0.819299
	N255	N	0.903091	0.534517	0.821348
	N256	N	0.168047	0.910532	0.465721
	N257	N	0.168848	0.085459	0.536670
	N258	N	0.807859	0.084551	0.464574
	N259	N	0.807904	0.911169	0.536058
	N260	N	0.453596	0.180498	0.913799
	N261	N	0.524995	0.180285	0.090058
	N262	N	0.455171	0.816006	0.090806
	N263	N	0.524930	0.818891	0.914618
	N264	N	0.452851	0.913311	0.179463
	N265	N	0.525090	0.085700	0.182186
	N266	N	0.452674	0.086630	0.821112
	N267	N	0.525158	0.913519	0.822931
	N268	N	0.900588	0.177917	0.464359
	N269	N	0.075908	0.178848	0.536214
	N270	N	0.073308	0.820139	0.464393
	N271	N	0.900017	0.817639	0.535552
	N272	N	0.171205	0.463220	0.912097
	N273	N	0.170585	0.533284	0.088355
	N274	N	0.809228	0.462889	0.087360
	N275	N	0.808172	0.533254	0.912652
	O276	O	0.423658	0.384532	0.389837
	H277	H	0.431661	0.386232	0.393434
	H278	H	0.428948	0.393729	0.400486
	O279	O	0.394861	0.636358	0.312297
	H280	H	0.396924	0.640759	0.322640
	H281	H	0.387923	0.597392	0.308097
	O282	O	0.675497	0.443517	0.490579
	H283	H	0.677155	0.447032	0.501973
	H284	H	0.672994	0.443625	0.499971
	O285	O	0.846320	1.020816	0.044523
	H286	H	0.838227	1.022270	0.040340
	H287	H	0.844868	1.026760	0.038436
	O288	O	0.648531	0.409575	0.385796
	H289	H	0.652786	0.403881	0.397142
	H290	H	0.663031	0.414861	0.381654
	O291	O	1.093659	0.085155	0.991962
	H292	H	1.094598	0.079687	0.994875
	H293	H	1.065430	0.085765	1.000606
	O294	O	0.821626	1.186314	0.850402
	H295	H	0.822118	1.188525	0.848292
	H296	H	0.828043	1.170230	0.828384
	O297	O	0.313942	0.600610	0.387721
	H298	H	0.302212	0.596747	0.393664
	H299	H	0.298487	0.589335	0.385439
	O300	O	0.673152	0.687888	0.686615
	H301	H	0.654316	0.698099	0.675132
	H302	H	0.665524	0.702576	0.673130
	O303	O	0.623995	0.648906	0.407899
	H304	H	0.614818	0.646624	0.413908
	H305	H	0.609854	0.650946	0.404169
	O306	O	0.407504	-0.689386	1.671267
	H307	H	0.415213	-0.691088	1.647351
	H308	H	0.429791	-0.682869	1.689562
	O309	O	0.912456	0.107744	-0.021468
	H310	H	0.911977	0.096560	-0.025845
	H311	H	0.900838	0.120780	-0.011799
	O312	O	0.311632	0.590380	0.523369
	H313	H	0.312762	0.593298	0.536606
	H314	H	0.327814	0.585639	0.517896
	O315	O	-0.094097	-0.137718	0.794643
	H316	H	-0.076294	-0.136652	0.798161
	H317	H	-0.081713	-0.144867	0.783246
	O318	O	0.024796	0.113809	-0.055939
	H319	H	0.041095	0.113770	-0.070155
	H320	H	0.011142	0.100627	-0.057939
	O321	O	0.962487	0.180031	-0.155140
	H322	H	0.961796	0.175087	-0.170692
	H323	H	0.975326	0.167669	-0.159666
	O324	O	0.802134	-0.183788	1.188338
	H325	H	0.815540	-0.179208	1.188709
	H326	H	0.788619	-0.148558	1.201964
	O327	O	0.495542	0.518984	0.398198
	H328	H	0.489745	0.525726	0.398947
	H329	H	0.483901	0.515752	0.386050
	O330	O	-0.044012	0.858928	1.004221
	H331	H	-0.047739	0.858189	1.007915
	H332	H	-0.043968	0.855509	1.008724
	O333	O	-0.100451	0.957782	0.126408
	H334	H	-0.093588	0.955029	0.114469
	H335	H	-0.081157	0.976937	0.133909
	O336	O	1.180670	0.881765	-0.187356
	H337	H	1.188667	0.903707	-0.185079
	H338	H	1.174400	0.891750	-0.182120
	O339	O	-0.215860	0.787839	1.023161
	H340	H	-0.222745	0.775573	1.027048
	H341	H	-0.223718	0.778880	1.053702
	O342	O	0.537549	0.301530	0.313528
	H343	H	0.544199	0.299890	0.305756
	H344	H	0.547653	0.294527	0.316118
	O345	O	0.005107	-0.060783	0.805740
	H346	H	0.013319	-0.063683	0.801896
	H347	H	0.008502	-0.071521	0.812911
	O348	O	0.280593	0.455731	0.662841
	H349	H	0.267697	0.447568	0.656114
	H350	H	0.297915	0.437411	0.652783
	O351	O	1.506592	1.416532	-0.508359
	H352	H	1.504088	1.415138	-0.516115
	H353	H	1.515139	1.399444	-0.521640
	O354	O	1.173586	0.797762	0.988314
	H355	H	1.173344	0.786091	0.996725
	H356	H	1.180535	0.793821	0.988672
	O357	O	-0.152647	0.172768	0.040498
	H358	H	-0.150231	0.179258	0.030539
	H359	H	-0.149618	0.169278	0.023037
	O360	O	0.327390	0.301552	0.548211
	H361	H	0.343330	0.295828	0.535640
	H362	H	0.325775	0.315805	0.549786
	O363	O	1.497098	0.684410	0.680618
	H364	H	1.490647	0.685297	0.688081
	H365	H	1.484621	0.674500	0.673075
	O366	O	0.199414	0.029854	1.213581
	H367	H	0.209147	0.045936	1.222148
	H368	H	0.205023	0.017198	1.227499
	O369	O	1.109810	0.815387	0.913880
	H370	H	1.104486	0.806813	0.940227
	H371	H	1.109764	0.837409	0.914915
	O372	O	0.369053	0.595202	0.338190
	H373	H	0.372919	0.584837	0.346768
	H374	H	0.371213	0.583687	0.330044
	O375	O	-0.040187	0.153984	1.190556
	H376	H	-0.012345	0.152768	1.179777
	H377	H	-0.022551	0.171494	1.199949
	O378	O	-0.140440	0.034521	0.185929
	H379	H	-0.133401	0.057968	0.194615
	H380	H	-0.131995	0.049326	0.173341
	O381	O	0.055597	0.956619	0.031850
	H382	H	0.056978	0.935929	0.040534
	H383	H	0.042647	0.957855	0.044206
	O384	O	0.052575	1.019335	0.989827
	H385	H	0.054772	1.017331	0.977203
	H386	H	0.041084	1.010955	0.982833
	O387	O	0.558991	0.441702	0.691812
	H388	H	0.556875	0.466708	0.694867
	H389	H	0.578873	0.452804	0.691852
	O390	O	0.795237	1.048577	-0.153129
	H391	H	0.788820	1.026820	-0.145392
	H392	H	0.797164	1.042703	-0.153319
	O393	O	0.396043	0.567834	0.307501
	H394	H	0.415795	0.562025	0.309516
	H395	H	0.389413	0.554110	0.307504
	O396	O	0.974879	-0.210337	0.182067
	H397	H	0.961399	-0.222617	0.179986
	H398	H	0.964961	-0.205155	0.190220
	O399	O	0.430950	0.287077	0.608038
	H400	H	0.440414	0.298100	0.617121
	H401	H	0.416808	0.263592	0.634993
	O402	O	1.188930	1.199995	0.154775
	H403	H	1.187158	1.182698	0.132079
	H404	H	1.199657	1.222254	0.142568
	O405	O	0.348852	0.516167	0.706444
	H406	H	0.333919	0.515598	0.696090
	H407	H	0.325937	0.496128	0.711749
	O408	O	0.450815	0.649536	0.498306
	H409	H	0.454367	0.656325	0.507261
	H410	H	0.455621	0.644560	0.493965
	O411	O	1.081769	0.914541	1.039971
	H412	H	1.070240	0.906430	1.037581
	H413	H	1.100780	0.903327	1.057841
	O414	O	0.541423	0.375322	0.493232
	H415	H	0.543773	0.365258	0.501146
	H416	H	0.551051	0.382978	0.508695
	O417	O	0.098504	1.066716	0.793090
	H418	H	0.119270	1.077188	0.773901
	H419	H	0.105421	1.065071	0.813936
	O420	O	0.164969	1.083172	0.961321
	H421	H	0.157515	1.083724	0.965450
	H422	H	0.156707	1.079587	0.980900
	O423	O	0.120174	1.246676	0.249860
	H424	H	0.123716	1.238536	0.256801
	H425	H	0.136968	1.238814	0.241913
	O426	O	0.699729	0.523082	0.708274
	H427	H	0.722814	0.540708	0.724775
	H428	H	0.702984	0.555596	0.708250
	O429	O	0.584526	0.702332	0.417443
	H430	H	0.585441	0.702676	0.404396
	H431	H	0.578871	0.710145	0.395947
	O432	O	0.677241	0.310130	0.374261
	H433	H	0.685678	0.325427	0.375615
	H434	H	0.682459	0.308702	0.378556
	O435	O	-0.028885	-0.070286	-0.036491
	H436	H	-0.030099	-0.062696	-0.031259
	H437	H	-0.040002	-0.085098	-0.026776
	O438	O	0.637659	0.568295	0.526657
	H439	H	0.632023	0.563609	0.542600
	H440	H	0.639202	0.568440	0.541814
	O441	O	0.387850	0.503251	0.562031
	H442	H	0.384325	0.508025	0.560347
	H443	H	0.382685	0.503322	0.578417
