data_Molecule from HDF5

_cell_length_a		16.426709
_cell_length_b		16.408206
_cell_length_c		16.402189
_cell_angle_alpha	89.983908
_cell_angle_beta	90.086115
_cell_angle_gamma	89.940286
_symmetry_space_group_name_H-M	'P 1'
_symmetry_Int_Tables_number		1

loop_
	_symmetry_equiv_pos_as_xyz
	x,y,z

loop_
	_atom_site_label
	_atom_site_type_symbol
	_atom_site_fract_x
	_atom_site_fract_y
	_atom_site_fract_z
	H0	H	0.392560	0.831386	0.707704
	H1	H	0.601312	0.150316	0.709200
	H2	H	0.601109	0.831588	0.268663
	H3	H	0.391366	0.149739	0.267026
	H4	H	0.716462	0.386958	0.829595
	H5	H	0.717890	0.595277	0.148913
	H6	H	0.277158	0.595504	0.828675
	H7	H	0.277775	0.387448	0.148479
	H8	H	0.837445	0.712921	0.382793
	H9	H	0.155709	0.712384	0.594265
	H10	H	0.837358	0.272176	0.592136
	H11	H	0.156965	0.273103	0.387385
	H12	H	0.836896	0.388993	0.707743
	H13	H	0.155979	0.596131	0.709591
	H14	H	0.837687	0.595312	0.268035
	H15	H	0.156870	0.387569	0.269509
	H16	H	0.394684	0.709750	0.828625
	H17	H	0.602703	0.711325	0.148678
	H18	H	0.600294	0.271818	0.828920
	H19	H	0.392512	0.270770	0.147900
	H20	H	0.721276	0.834300	0.379336
	H21	H	0.716269	0.150910	0.592869
	H22	H	0.276830	0.832299	0.591887
	H23	H	0.278131	0.151194	0.385153
	H24	H	0.890076	0.333044	0.211973
	H25	H	0.104494	0.649170	0.211704
	H26	H	0.104818	0.333890	0.765589
	H27	H	0.888330	0.649614	0.765534
	H28	H	0.218069	0.885691	0.330033
	H29	H	0.218441	0.097260	0.647303
	H30	H	0.772682	0.101307	0.330566
	H31	H	0.771994	0.883293	0.644709
	H32	H	0.337830	0.211720	0.882769
	H33	H	0.654512	0.214637	0.096739
	H34	H	0.339924	0.768986	0.093415
	H35	H	0.655079	0.767723	0.881416
	H36	H	0.339301	0.884198	0.208904
	H37	H	0.655045	0.098004	0.212531
	H38	H	0.338059	0.094947	0.768200
	H39	H	0.654864	0.881499	0.763390
	H40	H	0.890227	0.215303	0.330368
	H41	H	0.101076	0.211358	0.647802
	H42	H	0.103575	0.769036	0.330667
	H43	H	0.889840	0.769274	0.646082
	H44	H	0.219113	0.333238	0.884015
	H45	H	0.218657	0.649797	0.095330
	H46	H	0.773704	0.333319	0.097050
	H47	H	0.773051	0.648071	0.881213
	H48	H	0.408394	0.105064	0.581490
	H49	H	0.585432	0.879969	0.573350
	H50	H	0.580690	0.104225	0.397830
	H51	H	0.396942	0.875029	0.402894
	H52	H	0.585655	0.400453	0.102612
	H53	H	0.592345	0.584409	0.872138
	H54	H	0.402438	0.581600	0.103384
	H55	H	0.407103	0.407606	0.877410
	H56	H	0.108396	0.583658	0.406258
	H57	H	0.883048	0.585452	0.575367
	H58	H	0.115556	0.394320	0.585183
	H59	H	0.884763	0.399485	0.406044
	H60	H	0.108205	0.398224	0.569078
	H61	H	0.886116	0.577069	0.574373
	H62	H	0.107367	0.574224	0.399728
	H63	H	0.885310	0.410226	0.397873
	H64	H	0.409681	0.575345	0.099721
	H65	H	0.587994	0.570956	0.878204
	H66	H	0.587660	0.402728	0.103255
	H67	H	0.412895	0.400431	0.875747
	H68	H	0.583235	0.102408	0.403975
	H69	H	0.586054	0.877309	0.576877
	H70	H	0.408885	0.104156	0.576519
	H71	H	0.406886	0.873712	0.388306
	H72	H	0.909897	0.603456	0.078462
	H73	H	0.084361	0.380812	0.070430
	H74	H	0.088222	0.604863	0.902439
	H75	H	0.901209	0.377719	0.904400
	H76	H	0.085440	0.904649	0.600675
	H77	H	0.091501	0.084233	0.372474
	H78	H	0.903352	0.080078	0.602746
	H79	H	0.902132	0.907523	0.373674
	H80	H	0.608373	0.076033	0.899308
	H81	H	0.381374	0.078226	0.087461
	H82	H	0.609611	0.904072	0.076204
	H83	H	0.386821	0.907147	0.900603
	H84	H	0.611984	0.903222	0.078715
	H85	H	0.383968	0.090204	0.072432
	H86	H	0.612045	0.082530	0.895587
	H87	H	0.382103	0.901162	0.893296
	H88	H	0.909182	0.075996	0.598685
	H89	H	0.087311	0.076164	0.376357
	H90	H	0.085649	0.900337	0.602709
	H91	H	0.914922	0.909714	0.379895
	H92	H	0.086529	0.605970	0.897361
	H93	H	0.095356	0.374550	0.079321
	H94	H	0.908634	0.602380	0.074615
	H95	H	0.907081	0.375216	0.891164
	H96	H	0.404680	0.106662	0.578296
	H97	H	0.581961	0.878991	0.576426
	H98	H	0.587692	0.105772	0.399339
	H99	H	0.414367	0.881275	0.403029
	H100	H	0.585145	0.403209	0.101513
	H101	H	0.577710	0.583024	0.877341
	H102	H	0.412077	0.585173	0.101925
	H103	H	0.403282	0.400106	0.873573
	H104	H	0.112370	0.583758	0.395299
	H105	H	0.882750	0.579834	0.582173
	H106	H	0.108493	0.410377	0.582476
	H107	H	0.880456	0.398598	0.393857
	H108	H	0.905754	0.604513	0.077523
	H109	H	0.081338	0.377864	0.085241
	H110	H	0.082799	0.603297	0.901020
	H111	H	0.915297	0.381245	0.902310
	H112	H	0.089568	0.902983	0.602927
	H113	H	0.082529	0.084043	0.375365
	H114	H	0.910455	0.083197	0.600885
	H115	H	0.911805	0.896264	0.374140
	H116	H	0.610253	0.082793	0.903403
	H117	H	0.388813	0.071651	0.071287
	H118	H	0.610784	0.900466	0.076423
	H119	H	0.384133	0.896876	0.902728
	C120	C	0.375766	-0.000354	0.609740
	C121	C	0.617466	0.983296	0.608857
	C122	C	0.617752	-0.000070	0.366861
	C123	C	0.374600	0.982354	0.366274
	C124	C	0.618488	0.369545	-0.002608
	C125	C	0.618824	0.612243	0.980922
	C126	C	0.376112	0.612481	-0.003485
	C127	C	0.375998	0.370465	0.980783
	C128	C	0.004680	0.612703	0.367613
	C129	C	0.988381	0.613392	0.610393
	C130	C	0.005468	0.369834	0.610641
	C131	C	0.988796	0.370693	0.367796
	C132	C	0.875826	0.499016	0.109644
	C133	C	0.119301	0.482545	0.110614
	C134	C	0.118304	0.499902	0.867934
	C135	C	0.875482	0.482662	0.867233
	C136	C	0.118676	0.870233	0.497146
	C137	C	0.118532	0.112998	0.480161
	C138	C	0.875115	0.113531	0.496429
	C139	C	0.875384	0.870711	0.479670
	C140	C	0.505353	0.112316	0.867423
	C141	C	0.488809	0.112772	0.110260
	C142	C	0.506237	0.869816	0.109272
	C143	C	0.488831	0.868638	0.866136
	C144	C	0.374077	0.879542	0.668492
	C145	C	0.619947	0.102451	0.669621
	C146	C	0.620042	0.879886	0.307371
	C147	C	0.373382	0.102097	0.307031
	C148	C	0.677088	0.368367	0.877367
	C149	C	0.678298	0.613958	0.100882
	C150	C	0.316952	0.613883	0.876643
	C151	C	0.317071	0.368744	0.100559
	C152	C	0.885119	0.672554	0.365118
	C153	C	0.107861	0.672867	0.612459
	C154	C	0.885155	0.311404	0.611363
	C155	C	0.108910	0.311937	0.367555
	C156	C	0.885156	0.369201	0.669130
	C157	C	0.107984	0.614602	0.669794
	C158	C	0.885263	0.614052	0.307820
	C159	C	0.108983	0.369227	0.309266
	C160	C	0.375437	0.670904	0.876450
	C161	C	0.620918	0.671915	0.100638
	C162	C	0.619517	0.310697	0.877191
	C163	C	0.374220	0.310548	0.100210
	C164	C	0.679788	0.881180	0.362779
	C165	C	0.676987	0.102830	0.611274
	C166	C	0.316245	0.880065	0.610933
	C167	C	0.316526	0.102728	0.365699
	C168	C	0.872610	0.380499	0.171338
	C169	C	0.122427	0.601588	0.171440
	C170	C	0.121719	0.381016	0.806826
	C171	C	0.871593	0.601776	0.806247
	C172	C	0.178399	0.867618	0.377818
	C173	C	0.178464	0.115214	0.599664
	C174	C	0.813640	0.118117	0.377909
	C175	C	0.813024	0.866365	0.597682
	C176	C	0.385767	0.171773	0.865158
	C177	C	0.607475	0.173745	0.113916
	C178	C	0.387286	0.808970	0.111625
	C179	C	0.607885	0.808054	0.863228
	C180	C	0.387091	0.866417	0.169177
	C181	C	0.607372	0.115813	0.171878
	C182	C	0.385706	0.113536	0.807923
	C183	C	0.607618	0.864839	0.804599
	C184	C	0.872194	0.175001	0.377724
	C185	C	0.119874	0.171832	0.599964
	C186	C	0.121260	0.809570	0.378056
	C187	C	0.871829	0.809510	0.598467
	C188	C	0.179539	0.381070	0.865134
	C189	C	0.179430	0.601924	0.113465
	C190	C	0.814618	0.380386	0.113943
	C191	C	0.813887	0.601203	0.863932
	C192	C	0.400150	0.083376	0.585646
	C193	C	0.591959	0.900547	0.583070
	C194	C	0.591544	0.082509	0.392867
	C195	C	0.399031	0.898329	0.390972
	C196	C	0.593438	0.394728	0.080704
	C197	C	0.593315	0.586915	0.897688
	C198	C	0.400801	0.587802	0.080146
	C199	C	0.400611	0.395468	0.897397
	C200	C	0.087742	0.587830	0.393096
	C201	C	0.905317	0.588128	0.584639
	C202	C	0.088940	0.394017	0.586100
	C203	C	0.905226	0.395578	0.392000
	C204	C	0.900820	0.581826	0.084078
	C205	C	0.094190	0.399352	0.085522
	C206	C	0.092931	0.582977	0.893094
	C207	C	0.900744	0.399695	0.892210
	C208	C	0.093861	0.895352	0.580287
	C209	C	0.094145	0.088481	0.396470
	C210	C	0.900480	0.087172	0.579210
	C211	C	0.901993	0.897010	0.397380
	C212	C	0.588609	0.087634	0.892383
	C213	C	0.406150	0.087443	0.084316
	C214	C	0.589137	0.895171	0.084268
	C215	C	0.406235	0.894457	0.891543
	Zn216	Zn	0.496965	-0.009319	0.738560
	Zn217	Zn	0.496619	-0.009565	0.238456
	Zn218	Zn	0.746625	0.490620	-0.010866
	Zn219	Zn	0.247124	0.491899	-0.010798
	Zn220	Zn	-0.003169	0.742047	0.488574
	Zn221	Zn	-0.003161	0.241466	0.488725
	Zn222	Zn	-0.003270	0.491872	0.738681
	Zn223	Zn	-0.002242	0.491471	0.238139
	Zn224	Zn	0.497847	0.741212	-0.011407
	Zn225	Zn	0.496873	0.241487	-0.011453
	Zn226	Zn	0.746431	-0.007776	0.487636
	Zn227	Zn	0.246840	-0.008112	0.488490
	N228	N	0.410219	0.955071	0.667979
	N229	N	0.583948	0.026900	0.668649
	N230	N	0.582424	0.954804	0.309569
	N231	N	0.408324	0.025918	0.306990
	N232	N	0.676742	0.403862	0.953324
	N233	N	0.677190	0.577708	0.025307
	N234	N	0.317184	0.578452	0.952499
	N235	N	0.317836	0.405207	0.025282
	N236	N	0.960653	0.672064	0.401376
	N237	N	0.032225	0.672438	0.576395
	N238	N	0.961036	0.311172	0.576096
	N239	N	0.033076	0.312512	0.402882
	N240	N	0.960973	0.404618	0.668958
	N241	N	0.032473	0.578603	0.668616
	N242	N	0.960710	0.577860	0.309056
	N243	N	0.033091	0.404706	0.309065
	N244	N	0.411222	0.670235	0.952157
	N245	N	0.584786	0.671045	0.024904
	N246	N	0.583778	0.311357	0.952903
	N247	N	0.410229	0.311568	0.024596
	N248	N	0.678690	0.956823	0.398885
	N249	N	0.675721	0.027558	0.574369
	N250	N	0.317298	0.955660	0.575033
	N251	N	0.317355	0.027066	0.401822
	N252	N	0.910332	0.455225	0.168734
	N253	N	0.085797	0.526519	0.169816
	N254	N	0.084603	0.456159	0.808149
	N255	N	0.909410	0.527246	0.808351
	N256	N	0.176988	0.904711	0.452965
	N257	N	0.177483	0.079183	0.524085
	N258	N	0.815240	0.080629	0.452788
	N259	N	0.815172	0.903711	0.522760
	N260	N	0.461327	0.171219	0.901495
	N261	N	0.532656	0.172084	0.076342
	N262	N	0.462410	0.810981	0.074971
	N263	N	0.533308	0.810350	0.900771
	N264	N	0.461910	0.903508	0.167893
	N265	N	0.532645	0.078431	0.169625
	N266	N	0.461031	0.077085	0.809189
	N267	N	0.532665	0.902175	0.806419
	N268	N	0.909822	0.172088	0.452373
	N269	N	0.083118	0.170442	0.524745
	N270	N	0.084455	0.811353	0.453101
	N271	N	0.909825	0.812042	0.524081
	N272	N	0.177174	0.455822	0.902737
	N273	N	0.177818	0.526714	0.076530
	N274	N	0.816752	0.454901	0.076030
	N275	N	0.816010	0.526205	0.901383
	O276	O	0.602384	0.501613	0.567054
	H277	H	0.583101	0.497032	0.564687
	H278	H	0.604609	0.503604	0.576179
	O279	O	0.518995	0.345279	0.444789
	H280	H	0.530336	0.338799	0.460266
	H281	H	0.524684	0.341821	0.444660
	O282	O	0.551772	0.662611	0.495140
	H283	H	0.539739	0.668557	0.497050
	H284	H	0.561206	0.665015	0.500490
	O285	O	0.957168	0.033537	-0.103432
	H286	H	0.950996	0.045599	-0.115346
	H287	H	0.940310	0.043674	-0.109454
	O288	O	0.187317	0.025143	0.872891
	H289	H	0.171293	0.015813	0.869825
	H290	H	0.196519	0.038586	0.882056
	O291	O	0.549625	0.621368	0.562765
	H292	H	0.528693	0.634277	0.540521
	H293	H	0.543095	0.615830	0.562529
	O294	O	0.336991	0.473814	0.428001
	H295	H	0.351129	0.468652	0.427791
	H296	H	0.339134	0.482174	0.428995
	O297	O	1.036353	1.194965	1.202829
	H298	H	1.040914	1.226009	1.233019
	H299	H	1.040693	1.174158	1.188106
	O300	O	-0.189878	0.086766	0.065839
	H301	H	-0.174897	0.085806	0.082985
	H302	H	-0.193131	0.058112	0.057180
	O303	O	0.409036	0.623107	0.377452
	H304	H	0.422189	0.626562	0.365913
	H305	H	0.411452	0.608715	0.368241
	O306	O	0.983508	0.058840	0.153743
	H307	H	0.987638	0.063335	0.151809
	H308	H	0.981278	0.057600	0.148570
	O309	O	0.354692	0.370628	0.511172
	H310	H	0.361710	0.369870	0.503950
	H311	H	0.358232	0.368187	0.510142
	O312	O	1.007911	0.779641	-0.225312
	H313	H	1.003146	0.788203	-0.224309
	H314	H	1.004665	0.756263	-0.240287
	O315	O	0.785938	0.781858	0.004502
	H316	H	0.779899	0.779242	0.012229
	H317	H	0.784144	0.761250	0.000995
	O318	O	0.572695	0.409057	0.388704
	H319	H	0.582348	0.406561	0.393208
	H320	H	0.574664	0.402040	0.384762
	O321	O	0.819426	-0.188741	1.163710
	H322	H	0.843761	-0.201964	1.155541
	H323	H	0.806741	-0.152643	1.161781
	O324	O	0.060562	-0.180283	1.039957
	H325	H	0.057041	-0.182526	1.009263
	H326	H	0.055426	-0.174949	1.063247
	O327	O	0.506063	0.554464	0.652411
	H328	H	0.507373	0.546298	0.660489
	H329	H	0.506625	0.561382	0.639061
	O330	O	0.489726	0.511707	0.471697
	H331	H	0.493591	0.506080	0.466529
	H332	H	0.480739	0.511827	0.475964
	O333	O	1.209304	0.780899	0.955114
	H334	H	1.215334	0.763922	0.951431
	H335	H	1.212883	0.778545	0.929795
	O336	O	0.538490	0.455272	0.527980
	H337	H	0.523408	0.466191	0.532055
	H338	H	0.536640	0.462740	0.528082
	O339	O	0.972614	0.188061	0.773271
	H340	H	0.980889	0.214602	0.752113
	H341	H	0.959861	0.190395	0.781466
	O342	O	-0.210744	0.969958	1.201520
	H343	H	-0.198998	0.988228	1.208482
	H344	H	-0.223507	0.960781	1.218165
	O345	O	-0.217265	1.006029	0.777516
	H346	H	-0.241380	1.013868	0.759230
	H347	H	-0.222485	1.022491	0.789842
	O348	O	0.586930	0.378630	0.572457
	H349	H	0.576344	0.377366	0.577624
	H350	H	0.579643	0.389834	0.577372
	O351	O	0.001963	-0.030988	0.063601
	H352	H	0.004778	-0.016614	0.066007
	H353	H	0.012185	-0.030402	0.053783
	O354	O	1.028973	0.923269	-0.109551
	H355	H	1.014223	0.930099	-0.124327
	H356	H	1.013826	0.917243	-0.112481
	O357	O	-0.218269	0.958072	-0.041497
	H358	H	-0.220148	0.940725	-0.041815
	H359	H	-0.216825	0.947965	-0.040846
	O360	O	0.303716	0.501137	0.394553
	H361	H	0.294545	0.496157	0.388497
	H362	H	0.298882	0.489540	0.396045
	O363	O	0.549395	0.524285	0.615717
	H364	H	0.546473	0.529578	0.611412
	H365	H	0.533181	0.529581	0.621771
	O366	O	0.483120	0.687670	0.409025
	H367	H	0.480929	0.690699	0.400158
	H368	H	0.486936	0.666557	0.399881
	O369	O	0.427726	0.588046	0.565428
	H370	H	0.445741	0.589551	0.560838
	H371	H	0.423957	0.600597	0.557045
	O372	O	0.349492	0.330922	0.641751
	H373	H	0.340116	0.339831	0.622976
	H374	H	0.335512	0.322181	0.650394
	O375	O	0.634877	0.424449	0.452611
	H376	H	0.636666	0.412938	0.462489
	H377	H	0.631864	0.419594	0.459188
	O378	O	0.490202	0.526716	0.543044
	H379	H	0.495867	0.552179	0.545452
	H380	H	0.497094	0.515362	0.560000
	O381	O	0.472392	0.667186	0.485187
	H382	H	0.475467	0.672255	0.473585
	H383	H	0.457625	0.676558	0.481531
	O384	O	0.197394	0.769929	0.787708
	H385	H	0.190826	0.793946	0.771447
	H386	H	0.179896	0.780069	0.791523
	O387	O	0.975476	0.776706	0.201136
	H388	H	0.975143	0.795152	0.195776
	H389	H	0.978778	0.749899	0.229945
	O390	O	0.529062	0.503019	0.334698
	H391	H	0.533548	0.501274	0.341184
	H392	H	0.533738	0.489577	0.331833
	O393	O	1.135836	0.184763	1.010503
	H394	H	1.142838	0.195116	1.014725
	H395	H	1.122951	0.179136	1.016281
	O396	O	0.116865	0.896162	1.103812
	H397	H	0.130404	0.909197	1.104385
	H398	H	0.131114	0.888282	1.098382
	O399	O	-0.183999	1.167164	0.803203
	H400	H	-0.159097	1.154102	0.795469
	H401	H	-0.194761	1.180658	0.854819
	O402	O	0.992145	-0.099828	0.862107
	H403	H	1.005388	-0.092682	0.862186
	H404	H	0.985188	-0.098696	0.874897
	O405	O	-0.217660	0.202218	-0.037443
	H406	H	-0.236611	0.193984	-0.019318
	H407	H	-0.227825	0.214160	-0.019880
	O408	O	1.641876	1.355650	1.440343
	H409	H	1.644320	1.356293	1.458338
	H410	H	1.642106	1.359589	1.446207
	O411	O	1.161105	1.164089	0.151097
	H412	H	1.152030	1.145635	0.157335
	H413	H	1.152799	1.171851	0.127349
	O414	O	0.086005	0.094080	0.850912
	H415	H	0.066245	0.087439	0.848214
	H416	H	0.076798	0.101787	0.857447
	O417	O	0.141342	0.087618	0.877525
	H418	H	0.126060	0.084997	0.882697
	H419	H	0.137708	0.080436	0.879800
	O420	O	0.036450	1.177771	0.063366
	H421	H	0.044666	1.169713	0.074828
	H422	H	0.057563	1.183833	0.073991
	O423	O	0.958413	-0.008675	-0.020059
	H424	H	0.946455	-0.027278	-0.024153
	H425	H	0.968749	-0.013396	-0.031169
	O426	O	0.201048	0.008977	1.176541
	H427	H	0.203403	0.011404	1.149530
	H428	H	0.227003	0.009584	1.196010
	O429	O	1.113444	0.883558	0.975016
	H430	H	1.115459	0.867867	0.966235
	H431	H	1.111832	0.885408	0.965152
