data_Molecule from HDF5

_cell_length_a		16.317712
_cell_length_b		16.169528
_cell_length_c		16.295577
_cell_angle_alpha	90.119163
_cell_angle_beta	89.457983
_cell_angle_gamma	90.300628
_symmetry_space_group_name_H-M	'P 1'
_symmetry_Int_Tables_number		1

loop_
	_symmetry_equiv_pos_as_xyz
	x,y,z

loop_
	_atom_site_label
	_atom_site_type_symbol
	_atom_site_fract_x
	_atom_site_fract_y
	_atom_site_fract_z
	H0	H	0.387387	0.836553	0.707922
	H1	H	0.588887	0.164629	0.705532
	H2	H	0.591116	0.836544	0.275864
	H3	H	0.393081	0.164951	0.279596
	H4	H	0.708313	0.399661	0.831224
	H5	H	0.703619	0.601413	0.157533
	H6	H	0.274779	0.602018	0.830924
	H7	H	0.270181	0.398901	0.156047
	H8	H	0.824204	0.712931	0.397451
	H9	H	0.151894	0.717424	0.591803
	H10	H	0.824819	0.286635	0.590908
	H11	H	0.153354	0.287190	0.392403
	H12	H	0.827456	0.397024	0.712866
	H13	H	0.151993	0.602680	0.709013
	H14	H	0.824971	0.598367	0.279761
	H15	H	0.151492	0.399570	0.274229
	H16	H	0.394898	0.713557	0.828777
	H17	H	0.586300	0.716193	0.157204
	H18	H	0.589259	0.287265	0.829864
	H19	H	0.388392	0.284976	0.157480
	H20	H	0.705155	0.835713	0.391735
	H21	H	0.704554	0.164239	0.590295
	H22	H	0.272145	0.837101	0.594135
	H23	H	0.277030	0.164780	0.394622
	H24	H	0.888277	0.335290	0.206946
	H25	H	0.088555	0.664355	0.208075
	H26	H	0.088845	0.335761	0.777507
	H27	H	0.891467	0.664373	0.779168
	H28	H	0.206606	0.900260	0.329931
	H29	H	0.204676	0.102747	0.656312
	H30	H	0.776521	0.099071	0.329236
	H31	H	0.770970	0.900061	0.655440
	H32	H	0.326614	0.214979	0.897373
	H33	H	0.653612	0.216864	0.090261
	H34	H	0.326520	0.786089	0.091805
	H35	H	0.653845	0.788123	0.892709
	H36	H	0.328149	0.898409	0.211791
	H37	H	0.653319	0.102389	0.207587
	H38	H	0.327317	0.101579	0.778310
	H39	H	0.651920	0.900695	0.773423
	H40	H	0.894056	0.212248	0.328713
	H41	H	0.085860	0.216279	0.656475
	H42	H	0.088257	0.786069	0.329463
	H43	H	0.887993	0.785768	0.656952
	H44	H	0.205950	0.337110	0.890807
	H45	H	0.203759	0.665010	0.092327
	H46	H	0.772150	0.336719	0.094314
	H47	H	0.778187	0.665610	0.895685
	H48	H	0.399602	0.115382	0.579068
	H49	H	0.579928	0.882108	0.585334
	H50	H	0.582888	0.115426	0.402082
	H51	H	0.391237	0.881020	0.401656
	H52	H	0.590901	0.414093	0.110828
	H53	H	0.590760	0.589184	0.876904
	H54	H	0.395458	0.583405	0.106992
	H55	H	0.404196	0.406402	0.879293
	H56	H	0.108813	0.599482	0.390606
	H57	H	0.878494	0.575695	0.586213
	H58	H	0.105047	0.408738	0.582639
	H59	H	0.875198	0.407437	0.407049
	H60	H	0.104839	0.410844	0.586184
	H61	H	0.867745	0.596007	0.602229
	H62	H	0.102304	0.597196	0.410264
	H63	H	0.872500	0.410954	0.394397
	H64	H	0.404430	0.597720	0.108415
	H65	H	0.580969	0.591682	0.880018
	H66	H	0.573004	0.415272	0.105851
	H67	H	0.393961	0.405281	0.875282
	H68	H	0.586650	0.118038	0.401296
	H69	H	0.579073	0.884104	0.582541
	H70	H	0.389857	0.120863	0.586943
	H71	H	0.402163	0.883052	0.396210
	H72	H	0.897768	0.617487	0.090280
	H73	H	0.081960	0.381963	0.088517
	H74	H	0.084082	0.616567	0.904300
	H75	H	0.894492	0.384401	0.907280
	H76	H	0.086557	0.915296	0.609581
	H77	H	0.088399	0.090250	0.375828
	H78	H	0.889353	0.090601	0.610465
	H79	H	0.897536	0.916307	0.378874
	H80	H	0.603842	0.091721	0.901934
	H81	H	0.371024	0.104725	0.085719
	H82	H	0.606784	0.910032	0.085930
	H83	H	0.374958	0.903626	0.907651
	H84	H	0.606576	0.907583	0.084317
	H85	H	0.378942	0.084749	0.077419
	H86	H	0.606810	0.090714	0.894008
	H87	H	0.376020	0.915174	0.900124
	H88	H	0.899419	0.089797	0.607030
	H89	H	0.082314	0.090596	0.378356
	H90	H	0.073154	0.911215	0.606773
	H91	H	0.906258	0.900786	0.377237
	H92	H	0.085334	0.618656	0.898642
	H93	H	0.075481	0.385134	0.084137
	H94	H	0.898803	0.616861	0.085477
	H95	H	0.895479	0.381219	0.898322
	H96	H	0.402329	0.118841	0.592180
	H97	H	0.581568	0.882078	0.582099
	H98	H	0.582926	0.117922	0.398003
	H99	H	0.400356	0.886397	0.407998
	H100	H	0.579399	0.398988	0.112694
	H101	H	0.587400	0.599199	0.875065
	H102	H	0.387879	0.597712	0.113573
	H103	H	0.397511	0.414639	0.879723
	H104	H	0.101450	0.580774	0.396825
	H105	H	0.874046	0.601612	0.575556
	H106	H	0.105800	0.407243	0.585740
	H107	H	0.869305	0.397660	0.398270
	H108	H	0.894517	0.618517	0.086475
	H109	H	0.083125	0.383764	0.079252
	H110	H	0.079815	0.616811	0.900435
	H111	H	0.903120	0.384773	0.903329
	H112	H	0.082693	0.901290	0.610643
	H113	H	0.085200	0.097379	0.375444
	H114	H	0.895781	0.098177	0.611238
	H115	H	0.888812	0.901759	0.372943
	H116	H	0.607530	0.098465	0.898116
	H117	H	0.372701	0.086270	0.099621
	H118	H	0.605282	0.910237	0.083866
	H119	H	0.371024	0.903120	0.894069
	C120	C	0.367449	0.009564	0.615031
	C121	C	0.609897	0.991541	0.612322
	C122	C	0.612834	0.008633	0.370466
	C123	C	0.369664	0.991989	0.372920
	C124	C	0.611297	0.379705	0.002101
	C125	C	0.613272	0.623020	0.985186
	C126	C	0.368538	0.621672	0.001651
	C127	C	0.367865	0.378864	0.985608
	C128	C	-0.003545	0.621260	0.371466
	C129	C	0.980691	0.622068	0.616291
	C130	C	-0.002527	0.379101	0.614451
	C131	C	0.980462	0.377193	0.369683
	C132	C	0.867173	0.508926	0.116066
	C133	C	0.109605	0.491845	0.113950
	C134	C	0.111896	0.509084	0.871318
	C135	C	0.869313	0.492176	0.873928
	C136	C	0.110787	0.879391	0.501274
	C137	C	0.112591	0.122781	0.484626
	C138	C	0.867846	0.121026	0.501474
	C139	C	0.867122	0.877733	0.484308
	C140	C	0.498366	0.122655	0.870589
	C141	C	0.482152	0.122231	0.115560
	C142	C	0.498661	0.879325	0.114838
	C143	C	0.481436	0.878668	0.870364
	C144	C	0.367924	0.885805	0.670423
	C145	C	0.608416	0.115363	0.667680
	C146	C	0.610988	0.885308	0.314363
	C147	C	0.372513	0.115689	0.317413
	C148	C	0.668838	0.380539	0.879596
	C149	C	0.666632	0.621473	0.108499
	C150	C	0.313406	0.620809	0.879321
	C151	C	0.309728	0.379686	0.107808
	C152	C	0.873389	0.675889	0.375712
	C153	C	0.102977	0.679321	0.612954
	C154	C	0.874134	0.323419	0.612286
	C155	C	0.103940	0.323659	0.371705
	C156	C	0.875342	0.378741	0.672509
	C157	C	0.103135	0.622062	0.671262
	C158	C	0.873517	0.618553	0.317484
	C159	C	0.102833	0.379552	0.312610
	C160	C	0.373135	0.676348	0.878189
	C161	C	0.608319	0.678564	0.108345
	C162	C	0.610012	0.324194	0.879002
	C163	C	0.368479	0.322924	0.108429
	C164	C	0.667848	0.884985	0.371715
	C165	C	0.666049	0.115239	0.610485
	C166	C	0.310565	0.886075	0.613846
	C167	C	0.314841	0.115670	0.374558
	C168	C	0.868585	0.384902	0.170094
	C169	C	0.108453	0.615297	0.170037
	C170	C	0.109571	0.385086	0.815258
	C171	C	0.871383	0.615415	0.817502
	C172	C	0.167841	0.880533	0.378571
	C173	C	0.166769	0.121986	0.607400
	C174	C	0.813936	0.118929	0.378191
	C175	C	0.809697	0.879913	0.607006
	C176	C	0.375326	0.177358	0.875823
	C177	C	0.604606	0.179081	0.111879
	C178	C	0.375640	0.823505	0.112744
	C179	C	0.604556	0.824452	0.871705
	C180	C	0.376640	0.879142	0.172540
	C181	C	0.604439	0.121929	0.170125
	C182	C	0.375726	0.121127	0.816378
	C183	C	0.603520	0.880733	0.812491
	C184	C	0.872407	0.175287	0.377823
	C185	C	0.107779	0.178479	0.607656
	C186	C	0.108633	0.823961	0.378267
	C187	C	0.868135	0.823443	0.607720
	C188	C	0.167508	0.385717	0.871839
	C189	C	0.165697	0.615828	0.112558
	C190	C	0.810847	0.385536	0.113903
	C191	C	0.814987	0.615958	0.875499
	C192	C	0.390435	0.095797	0.592555
	C193	C	0.586876	0.904953	0.590004
	C194	C	0.590675	0.094940	0.393540
	C195	C	0.391441	0.905773	0.395424
	C196	C	0.588037	0.402638	0.087658
	C197	C	0.592457	0.600254	0.899613
	C198	C	0.389786	0.599307	0.087455
	C199	C	0.391603	0.402016	0.900176
	C200	C	0.082107	0.599000	0.392765
	C201	C	0.895368	0.598172	0.594474
	C202	C	0.082994	0.402200	0.591467
	C203	C	0.894624	0.398901	0.393012
	C204	C	0.890344	0.595317	0.093800
	C205	C	0.086784	0.405906	0.090741
	C206	C	0.089660	0.594912	0.894218
	C207	C	0.891196	0.405864	0.896370
	C208	C	0.087727	0.902586	0.586944
	C209	C	0.091455	0.099670	0.398821
	C210	C	0.888688	0.099246	0.587287
	C211	C	0.890644	0.899908	0.398491
	C212	C	0.583962	0.100058	0.891720
	C213	C	0.396302	0.098799	0.093982
	C214	C	0.584210	0.902360	0.091477
	C215	C	0.396116	0.900815	0.893739
	Zn216	Zn	0.489131	0.000325	0.741239
	Zn217	Zn	0.491017	0.000445	0.244151
	Zn218	Zn	0.741030	0.500651	-0.005794
	Zn219	Zn	0.238971	0.500733	-0.006556
	Zn220	Zn	-0.011407	0.750403	0.493107
	Zn221	Zn	-0.010644	0.250084	0.492435
	Zn222	Zn	-0.010396	0.499676	0.744574
	Zn223	Zn	-0.011681	0.499763	0.242594
	Zn224	Zn	0.490402	0.750508	-0.006959
	Zn225	Zn	0.490091	0.250679	-0.006082
	Zn226	Zn	0.739565	-0.000391	0.492166
	Zn227	Zn	0.240313	0.000418	0.493543
	N228	N	0.402429	0.963613	0.671428
	N229	N	0.574212	0.037246	0.668847
	N230	N	0.577532	0.963138	0.313585
	N231	N	0.406034	0.037769	0.316410
	N232	N	0.669847	0.414267	0.957207
	N233	N	0.670010	0.587758	0.030966
	N234	N	0.310682	0.587375	0.956887
	N235	N	0.309401	0.413825	0.030488
	N236	N	0.950752	0.677553	0.408705
	N237	N	0.025942	0.679300	0.579332
	N238	N	0.951209	0.323288	0.576865
	N239	N	0.026797	0.322050	0.406687
	N240	N	0.952875	0.412516	0.673926
	N241	N	0.026083	0.587081	0.673314
	N242	N	0.951005	0.585363	0.314760
	N243	N	0.024886	0.411712	0.311093
	N244	N	0.406560	0.677275	0.955435
	N245	N	0.575858	0.679688	0.030809
	N246	N	0.574985	0.323487	0.956155
	N247	N	0.403976	0.322072	0.031498
	N248	N	0.669018	0.962871	0.405986
	N249	N	0.667089	0.037215	0.576900
	N250	N	0.310122	0.963829	0.579913
	N251	N	0.313092	0.037821	0.408569
	N252	N	0.903173	0.462696	0.171102
	N253	N	0.074016	0.537429	0.170833
	N254	N	0.075532	0.462656	0.814726
	N255	N	0.904796	0.537548	0.816562
	N256	N	0.168964	0.914421	0.456152
	N257	N	0.169743	0.088208	0.529899
	N258	N	0.811050	0.085758	0.455856
	N259	N	0.808801	0.912617	0.529119
	N260	N	0.452610	0.178593	0.908779
	N261	N	0.527452	0.179139	0.078651
	N262	N	0.452660	0.823397	0.077523
	N263	N	0.527851	0.823105	0.907196
	N264	N	0.454008	0.913262	0.173821
	N265	N	0.527119	0.087441	0.172457
	N266	N	0.453060	0.087761	0.813041
	N267	N	0.525859	0.913872	0.811710
	N268	N	0.905354	0.176891	0.455276
	N269	N	0.074831	0.179114	0.530211
	N270	N	0.074130	0.822885	0.455604
	N271	N	0.902959	0.821871	0.530418
	N272	N	0.169401	0.463771	0.905699
	N273	N	0.166525	0.538118	0.078348
	N274	N	0.809977	0.463667	0.080865
	N275	N	0.813614	0.538164	0.909779
	O276	O	0.026439	0.011543	-0.004681
	H277	H	0.029126	0.000135	-0.011801
	H278	H	0.026195	0.013019	-0.007557
	O279	O	1.004466	1.061158	0.038704
	H280	H	1.005763	1.061471	0.025155
	H281	H	1.012036	1.054937	0.031689
	O282	O	0.445394	0.397759	0.530496
	H283	H	0.440595	0.395906	0.534846
	H284	H	0.447709	0.403979	0.529949
	O285	O	-0.011551	1.049161	0.952889
	H286	H	-0.008463	1.049896	0.950419
	H287	H	-0.009628	1.041862	0.973359
	O288	O	0.440470	0.543854	0.398250
	H289	H	0.441410	0.539942	0.393688
	H290	H	0.437591	0.543043	0.412210
	O291	O	1.059858	0.958486	0.957802
	H292	H	1.059751	0.953300	0.954248
	H293	H	1.055283	0.961724	0.964312
	O294	O	0.939914	0.977580	0.918191
	H295	H	0.942726	0.986777	0.911969
	H296	H	0.936756	0.985635	0.923602
	O297	O	0.984713	-0.065645	1.028226
	H298	H	0.988875	-0.060966	1.018745
	H299	H	0.985838	-0.076589	1.027515
	O300	O	0.506851	0.438664	0.532920
	H301	H	0.518211	0.437429	0.528449
	H302	H	0.505892	0.446443	0.528356
	O303	O	0.943615	0.084292	-0.006080
	H304	H	0.936669	0.090551	-0.000066
	H305	H	0.943468	0.084404	-0.003995
	O306	O	-0.007032	0.854292	1.035679
	H307	H	-0.019016	0.853777	1.032783
	H308	H	-0.008157	0.850437	1.041866
	O309	O	0.494657	0.510988	0.479940
	H310	H	0.498190	0.510033	0.468122
	H311	H	0.491435	0.506594	0.468097
	O312	O	1.070504	0.034064	1.081326
	H313	H	1.075941	0.028820	1.088888
	H314	H	1.072144	0.040222	1.093680
	O315	O	0.547649	0.511526	0.506722
	H316	H	0.554784	0.519584	0.512955
	H317	H	0.546413	0.510591	0.506150
	O318	O	0.572547	0.554778	0.550514
	H319	H	0.561765	0.560631	0.557760
	H320	H	0.566092	0.550600	0.550871
	O321	O	1.051986	0.971515	0.896267
	H322	H	1.054221	0.965110	0.892251
	H323	H	1.055021	0.969270	0.890398
	O324	O	0.998339	0.999147	0.941909
	H325	H	0.994007	0.992376	0.942088
	H326	H	1.002601	1.002156	0.947904
	O327	O	0.380595	0.470978	0.484194
	H328	H	0.392951	0.473808	0.484961
	H329	H	0.381229	0.468442	0.483561
	O330	O	1.033192	-0.123413	0.963047
	H331	H	1.035508	-0.116545	0.973161
	H332	H	1.031122	-0.128272	0.962024
	O333	O	0.935170	0.960196	0.007099
	H334	H	0.943440	0.945175	-0.003591
	H335	H	0.929769	0.961022	0.014356
	O336	O	0.491156	0.597295	0.472625
	H337	H	0.498655	0.601864	0.480965
	H338	H	0.495550	0.591108	0.491220
	O339	O	0.423415	0.386429	0.647472
	H340	H	0.427721	0.391827	0.658447
	H341	H	0.417410	0.399819	0.640163
	O342	O	-0.151636	0.959357	0.099875
	H343	H	-0.149827	0.963274	0.093779
	H344	H	-0.158751	0.955993	0.103021
	O345	O	0.045865	0.034440	0.028754
	H346	H	0.042330	0.046511	0.033892
	H347	H	0.047287	0.035983	0.021838
	O348	O	0.484234	0.562609	0.396333
	H349	H	0.471530	0.551914	0.395898
	H350	H	0.486170	0.559144	0.394474
	O351	O	0.485715	0.489083	0.434881
	H352	H	0.509831	0.485810	0.432778
	H353	H	0.481247	0.498175	0.429746
	O354	O	0.501442	0.552223	0.507722
	H355	H	0.510019	0.558432	0.509152
	H356	H	0.498997	0.550031	0.505064
	O357	O	0.436741	0.488184	0.519209
	H358	H	0.435655	0.482904	0.531649
	H359	H	0.442434	0.480634	0.523715
	O360	O	0.490139	-0.619394	0.498993
	H361	H	0.484181	-0.621208	0.496757
	H362	H	0.475842	-0.620116	0.504759
	O363	O	0.388444	0.512727	0.486702
	H364	H	0.378808	0.504571	0.487205
	H365	H	0.384248	0.511674	0.473937
	O366	O	0.041290	0.087015	1.009360
	H367	H	0.044248	0.085237	1.004053
	H368	H	0.038451	0.092023	1.013837
	O369	O	0.487975	0.523619	0.515061
	H370	H	0.480130	0.515424	0.509561
	H371	H	0.486851	0.529586	0.514131
