data_Molecule from HDF5

_cell_length_a		16.139941
_cell_length_b		16.179105
_cell_length_c		16.433317
_cell_angle_alpha	90.132222
_cell_angle_beta	90.402953
_cell_angle_gamma	89.790436
_symmetry_space_group_name_H-M	'P 1'
_symmetry_Int_Tables_number		1

loop_
	_symmetry_equiv_pos_as_xyz
	x,y,z

loop_
	_atom_site_label
	_atom_site_type_symbol
	_atom_site_fract_x
	_atom_site_fract_y
	_atom_site_fract_z
	H0	H	0.388758	0.832135	0.707734
	H1	H	0.591379	0.158885	0.711557
	H2	H	0.590592	0.832943	0.277475
	H3	H	0.386217	0.159263	0.276575
	H4	H	0.704071	0.395100	0.831039
	H5	H	0.704303	0.593127	0.156401
	H6	H	0.271682	0.594275	0.831606
	H7	H	0.277097	0.400006	0.157812
	H8	H	0.823557	0.709012	0.396992
	H9	H	0.155024	0.708631	0.591854
	H10	H	0.824583	0.284192	0.590411
	H11	H	0.154568	0.282753	0.397981
	H12	H	0.824651	0.398224	0.706828
	H13	H	0.152642	0.599121	0.712561
	H14	H	0.825956	0.599999	0.275385
	H15	H	0.153616	0.394643	0.278717
	H16	H	0.389744	0.709776	0.830140
	H17	H	0.588734	0.711705	0.156055
	H18	H	0.587197	0.279621	0.831336
	H19	H	0.391741	0.280841	0.156104
	H20	H	0.701244	0.831506	0.397644
	H21	H	0.701005	0.161827	0.592388
	H22	H	0.278770	0.830999	0.586726
	H23	H	0.275528	0.161779	0.396075
	H24	H	0.889623	0.333370	0.209530
	H25	H	0.090831	0.659761	0.210708
	H26	H	0.092224	0.333662	0.777030
	H27	H	0.885702	0.660056	0.777768
	H28	H	0.202228	0.897735	0.330192
	H29	H	0.206726	0.096365	0.654283
	H30	H	0.771680	0.095018	0.331012
	H31	H	0.775422	0.899270	0.656501
	H32	H	0.323459	0.208684	0.896133
	H33	H	0.655221	0.206815	0.091075
	H34	H	0.322244	0.785990	0.086913
	H35	H	0.654404	0.782603	0.897826
	H36	H	0.324349	0.895360	0.207890
	H37	H	0.651775	0.096501	0.211374
	H38	H	0.325873	0.098982	0.775561
	H39	H	0.653839	0.894814	0.779743
	H40	H	0.886362	0.214016	0.331619
	H41	H	0.089322	0.211845	0.655480
	H42	H	0.087190	0.779788	0.331409
	H43	H	0.891258	0.781221	0.656581
	H44	H	0.200012	0.330803	0.898963
	H45	H	0.201014	0.661167	0.092372
	H46	H	0.779911	0.330054	0.088547
	H47	H	0.773709	0.660296	0.896477
	H48	H	0.397818	0.115111	0.591884
	H49	H	0.582754	0.875506	0.596811
	H50	H	0.581393	0.114794	0.398192
	H51	H	0.401929	0.882971	0.410078
	H52	H	0.588796	0.398824	0.111472
	H53	H	0.574344	0.582735	0.881876
	H54	H	0.395472	0.593296	0.109779
	H55	H	0.394141	0.394115	0.875850
	H56	H	0.104934	0.585805	0.405238
	H57	H	0.873411	0.581502	0.586945
	H58	H	0.106914	0.403627	0.587421
	H59	H	0.870485	0.402791	0.398563
	H60	H	0.106699	0.407015	0.586459
	H61	H	0.868843	0.592112	0.594541
	H62	H	0.107668	0.585421	0.399066
	H63	H	0.873473	0.406885	0.403366
	H64	H	0.394877	0.590155	0.109288
	H65	H	0.578919	0.597620	0.876164
	H66	H	0.584659	0.407309	0.107755
	H67	H	0.387369	0.407906	0.877795
	H68	H	0.574941	0.112988	0.399462
	H69	H	0.573870	0.883165	0.584358
	H70	H	0.403124	0.111355	0.584397
	H71	H	0.384288	0.874663	0.397436
	H72	H	0.897851	0.612233	0.081398
	H73	H	0.079121	0.379841	0.086237
	H74	H	0.089877	0.618856	0.896476
	H75	H	0.897000	0.376711	0.893825
	H76	H	0.083961	0.901645	0.609480
	H77	H	0.073396	0.089973	0.378345
	H78	H	0.901734	0.090906	0.607369
	H79	H	0.904027	0.907075	0.382395
	H80	H	0.608016	0.089624	0.899232
	H81	H	0.372533	0.089619	0.079060
	H82	H	0.607207	0.904091	0.090276
	H83	H	0.372566	0.900326	0.906793
	H84	H	0.606672	0.901509	0.086831
	H85	H	0.371662	0.082554	0.088384
	H86	H	0.606297	0.087815	0.903741
	H87	H	0.373730	0.914570	0.896343
	H88	H	0.893441	0.096720	0.610537
	H89	H	0.083560	0.096898	0.375647
	H90	H	0.085583	0.904279	0.608691
	H91	H	0.894663	0.893254	0.375310
	H92	H	0.067444	0.611471	0.894908
	H93	H	0.085008	0.378151	0.086646
	H94	H	0.892912	0.615949	0.088820
	H95	H	0.902479	0.380575	0.899410
	H96	H	0.394208	0.113698	0.582814
	H97	H	0.589795	0.877475	0.581721
	H98	H	0.579889	0.112599	0.404666
	H99	H	0.404858	0.877982	0.387919
	H100	H	0.578867	0.399045	0.108081
	H101	H	0.589497	0.584818	0.876438
	H102	H	0.397755	0.591353	0.108769
	H103	H	0.402234	0.405583	0.881717
	H104	H	0.107548	0.591020	0.402093
	H105	H	0.872110	0.594328	0.580852
	H106	H	0.106974	0.406618	0.589783
	H107	H	0.871935	0.409428	0.397410
	H108	H	0.901890	0.613421	0.089997
	H109	H	0.081106	0.378150	0.091054
	H110	H	0.079409	0.610227	0.914969
	H111	H	0.894242	0.377854	0.901201
	H112	H	0.082397	0.904283	0.607770
	H113	H	0.084836	0.084692	0.378351
	H114	H	0.892686	0.086528	0.608587
	H115	H	0.886772	0.908729	0.378325
	H116	H	0.606600	0.084537	0.899727
	H117	H	0.368401	0.094005	0.089749
	H118	H	0.605218	0.905890	0.086206
	H119	H	0.367462	0.898941	0.889568
	C120	C	0.369290	0.004753	0.614099
	C121	C	0.611161	0.987283	0.616207
	C122	C	0.608929	0.004843	0.372554
	C123	C	0.367291	0.987540	0.370830
	C124	C	0.612226	0.373053	0.002038
	C125	C	0.610523	0.617128	0.985542
	C126	C	0.365915	0.619849	0.002067
	C127	C	0.367294	0.374704	0.985943
	C128	C	-0.002011	0.617648	0.372829
	C129	C	0.980707	0.618386	0.616345
	C130	C	-0.001790	0.376657	0.615052
	C131	C	0.980987	0.376326	0.372232
	C132	C	0.869015	0.504973	0.114777
	C133	C	0.111256	0.487404	0.116430
	C134	C	0.109325	0.504996	0.873422
	C135	C	0.867266	0.487341	0.870791
	C136	C	0.111540	0.874474	0.501415
	C137	C	0.110908	0.119365	0.484448
	C138	C	0.866219	0.120017	0.501622
	C139	C	0.867398	0.874745	0.486018
	C140	C	0.497951	0.117486	0.871673
	C141	C	0.479806	0.117252	0.114855
	C142	C	0.497105	0.875277	0.114758
	C143	C	0.480617	0.875007	0.870825
	C144	C	0.370096	0.881127	0.669107
	C145	C	0.610159	0.110478	0.672335
	C146	C	0.609120	0.881604	0.316575
	C147	C	0.366998	0.110837	0.315165
	C148	C	0.666310	0.375415	0.879523
	C149	C	0.666223	0.614176	0.107884
	C150	C	0.309592	0.615963	0.880038
	C151	C	0.313904	0.378471	0.108787
	C152	C	0.873376	0.672421	0.375594
	C153	C	0.105223	0.672390	0.613523
	C154	C	0.873671	0.321770	0.611357
	C155	C	0.105295	0.320439	0.376570
	C156	C	0.873927	0.378268	0.669500
	C157	C	0.104131	0.617430	0.673077
	C158	C	0.874639	0.618170	0.315264
	C159	C	0.104901	0.375904	0.317298
	C160	C	0.368675	0.672959	0.879166
	C161	C	0.608274	0.672805	0.107681
	C162	C	0.608173	0.317612	0.879666
	C163	C	0.370927	0.319342	0.108069
	C164	C	0.664108	0.880922	0.376289
	C165	C	0.664982	0.111843	0.613244
	C166	C	0.314915	0.880488	0.609386
	C167	C	0.312133	0.111867	0.374560
	C168	C	0.870626	0.381553	0.170405
	C169	C	0.109882	0.610918	0.171979
	C170	C	0.109855	0.381934	0.817018
	C171	C	0.866584	0.610854	0.815704
	C172	C	0.164926	0.877138	0.378785
	C173	C	0.167748	0.116455	0.606264
	C174	C	0.809592	0.116778	0.379622
	C175	C	0.813297	0.878224	0.608189
	C176	C	0.373535	0.172223	0.874711
	C177	C	0.604910	0.171063	0.112502
	C178	C	0.372232	0.821884	0.109186
	C179	C	0.605096	0.820126	0.876329
	C180	C	0.373035	0.876752	0.168826
	C181	C	0.603471	0.115895	0.171846
	C182	C	0.374786	0.117457	0.814813
	C183	C	0.604761	0.875862	0.817395
	C184	C	0.867131	0.175494	0.379822
	C185	C	0.109435	0.174163	0.606792
	C186	C	0.108178	0.818052	0.379717
	C187	C	0.870722	0.819510	0.608246
	C188	C	0.163517	0.380442	0.877707
	C189	C	0.164738	0.611717	0.113017
	C190	C	0.816214	0.379856	0.110267
	C191	C	0.811366	0.611124	0.874979
	C192	C	0.391910	0.091079	0.592848
	C193	C	0.588818	0.901026	0.594155
	C194	C	0.585589	0.091165	0.394387
	C195	C	0.390343	0.900837	0.392072
	C196	C	0.590582	0.395383	0.087080
	C197	C	0.587685	0.594857	0.900161
	C198	C	0.389137	0.597942	0.087239
	C199	C	0.388251	0.396320	0.900618
	C200	C	0.084402	0.594347	0.395453
	C201	C	0.893922	0.596012	0.594011
	C202	C	0.084480	0.399036	0.594194
	C203	C	0.894409	0.399575	0.393471
	C204	C	0.890831	0.591554	0.093080
	C205	C	0.088695	0.400908	0.094332
	C206	C	0.085845	0.591249	0.895647
	C207	C	0.890747	0.400637	0.891949
	C208	C	0.090340	0.896905	0.586594
	C209	C	0.087311	0.097181	0.399404
	C210	C	0.889016	0.097782	0.586850
	C211	C	0.888875	0.896335	0.400790
	C212	C	0.584681	0.094098	0.894446
	C213	C	0.393284	0.095177	0.092244
	C214	C	0.583866	0.897533	0.094069
	C215	C	0.393577	0.897855	0.891485
	Zn216	Zn	0.489831	-0.003978	0.743510
	Zn217	Zn	0.488299	-0.003729	0.243134
	Zn218	Zn	0.741149	0.495365	-0.006515
	Zn219	Zn	0.237409	0.496537	-0.005364
	Zn220	Zn	-0.010929	0.745201	0.494252
	Zn221	Zn	-0.010895	0.248990	0.493641
	Zn222	Zn	-0.010610	0.496907	0.744145
	Zn223	Zn	-0.010085	0.496868	0.243778
	Zn224	Zn	0.488934	0.747942	-0.006901
	Zn225	Zn	0.489515	0.244623	-0.006443
	Zn226	Zn	0.737469	-0.003076	0.493948
	Zn227	Zn	0.240358	-0.003388	0.492290
	N228	N	0.402968	0.959427	0.672230
	N229	N	0.577555	0.032208	0.674292
	N230	N	0.575546	0.959740	0.313991
	N231	N	0.400710	0.032567	0.312834
	N232	N	0.668894	0.409139	0.956482
	N233	N	0.667544	0.580238	0.031009
	N234	N	0.307759	0.583713	0.957496
	N235	N	0.311642	0.412298	0.031994
	N236	N	0.951034	0.672056	0.410783
	N237	N	0.027437	0.672847	0.578649
	N238	N	0.951641	0.320594	0.578147
	N239	N	0.027449	0.320649	0.409873
	N240	N	0.952120	0.411924	0.671859
	N241	N	0.025642	0.584811	0.674989
	N242	N	0.953179	0.584722	0.313428
	N243	N	0.026449	0.409747	0.314315
	N244	N	0.402716	0.675619	0.956130
	N245	N	0.574628	0.674936	0.030497
	N246	N	0.575030	0.316233	0.956617
	N247	N	0.403298	0.316751	0.030803
	N248	N	0.663997	0.958531	0.410585
	N249	N	0.665613	0.034278	0.578661
	N250	N	0.314289	0.958266	0.575800
	N251	N	0.312264	0.034142	0.408326
	N252	N	0.902691	0.460237	0.173371
	N253	N	0.077323	0.532460	0.174233
	N254	N	0.076935	0.460390	0.814248
	N255	N	0.900837	0.532852	0.813183
	N256	N	0.167392	0.911296	0.455599
	N257	N	0.168773	0.083004	0.529207
	N258	N	0.808974	0.082924	0.456386
	N259	N	0.810874	0.911720	0.531288
	N260	N	0.451313	0.172248	0.909377
	N261	N	0.527158	0.172010	0.077707
	N262	N	0.450295	0.820955	0.076091
	N263	N	0.526763	0.819533	0.908717
	N264	N	0.451731	0.909175	0.172527
	N265	N	0.524855	0.083254	0.173518
	N266	N	0.453477	0.084338	0.812689
	N267	N	0.526253	0.909393	0.814101
	N268	N	0.901561	0.177576	0.456677
	N269	N	0.074721	0.175885	0.530139
	N270	N	0.075749	0.816162	0.456855
	N271	N	0.903542	0.817337	0.531230
	N272	N	0.163195	0.457985	0.912280
	N273	N	0.165466	0.533951	0.079090
	N274	N	0.815194	0.457641	0.076437
	N275	N	0.811761	0.533209	0.908281
	O276	O	0.485403	0.537938	0.497907
	H277	H	0.491121	0.542333	0.493246
	H278	H	0.481597	0.542536	0.493801
	O279	O	0.476992	0.496734	0.477947
	H280	H	0.481937	0.491914	0.491380
	H281	H	0.480084	0.494433	0.477010
	O282	O	0.499852	0.417823	0.510494
	H283	H	0.507180	0.415498	0.510536
	H284	H	0.505067	0.403581	0.506072
	O285	O	0.520656	1.556479	0.468736
	H286	H	0.524280	1.572359	0.472021
	H287	H	0.517430	1.558381	0.477868
	O288	O	0.537636	0.484405	0.529666
	H289	H	0.542823	0.477238	0.527832
	H290	H	0.537133	0.481017	0.533944
	O291	O	0.009179	-0.001639	0.900036
	H292	H	0.009875	-0.004294	0.908893
	H293	H	0.016700	-0.002809	0.902170
	O294	O	1.030012	0.029522	1.013967
	H295	H	1.024410	0.039777	1.005905
	H296	H	1.028164	0.025069	1.018949
	O297	O	0.511838	0.527290	0.567767
	H298	H	0.512277	0.521684	0.572307
	H299	H	0.513579	0.530312	0.569211
	O300	O	0.480616	0.465454	0.462586
	H301	H	0.486395	0.477084	0.462943
	H302	H	0.477412	0.453538	0.460166
	O303	O	0.038346	0.931964	-0.047054
	H304	H	0.046111	0.929290	-0.054159
	H305	H	0.046690	0.926657	-0.043792
	O306	O	0.553354	0.496189	1.457507
	H307	H	0.560839	0.492722	1.455491
	H308	H	0.545700	0.499561	1.460439
	O309	O	0.487009	0.460778	0.489018
	H310	H	0.476099	0.459973	0.488241
	H311	H	0.484135	0.467618	0.480346
	O312	O	0.545690	0.531594	0.510965
	H313	H	0.535726	0.526759	0.511351
	H314	H	0.538247	0.536496	0.509731
	O315	O	0.991589	-0.011025	0.982634
	H316	H	0.996429	-0.010053	0.982445
	H317	H	0.987532	-0.011392	0.979570
	O318	O	-0.010046	0.001476	-0.028010
	H319	H	-0.006358	0.002817	-0.034536
	H320	H	-0.012487	-0.006688	-0.040488
	O321	O	1.037993	0.999567	0.990616
	H322	H	1.035656	1.006870	0.987860
	H323	H	1.048740	0.998765	0.997814
	O324	O	1.044882	0.003606	-0.033310
	H325	H	1.045714	0.009132	-0.037370
	H326	H	1.047168	-0.003421	-0.027394
	O327	O	1.452240	0.523278	0.464380
	H328	H	1.445744	0.525223	0.467652
	H329	H	1.473107	0.520110	0.457924
	O330	O	0.517964	0.465285	0.455288
	H331	H	0.526089	0.469037	0.452338
	H332	H	0.521024	0.460879	0.456835
	O333	O	0.497326	0.491872	0.550905
	H334	H	0.488319	0.493754	0.550068
	H335	H	0.504449	0.485679	0.555432
