data_Molecule from HDF5

_cell_length_a		16.318566
_cell_length_b		16.281023
_cell_length_c		16.251126
_cell_angle_alpha	89.951250
_cell_angle_beta	89.824810
_cell_angle_gamma	89.838079
_symmetry_space_group_name_H-M	'P 1'
_symmetry_Int_Tables_number		1

loop_
	_symmetry_equiv_pos_as_xyz
	x,y,z

loop_
	_atom_site_label
	_atom_site_type_symbol
	_atom_site_fract_x
	_atom_site_fract_y
	_atom_site_fract_z
	H0	H	0.390253	0.830879	0.710298
	H1	H	0.584723	0.158687	0.708726
	H2	H	0.586016	0.830780	0.281838
	H3	H	0.389862	0.158664	0.281305
	H4	H	0.702898	0.395643	0.831349
	H5	H	0.702690	0.593529	0.158407
	H6	H	0.274500	0.593799	0.831107
	H7	H	0.272913	0.396078	0.158588
	H8	H	0.825581	0.710986	0.395748
	H9	H	0.151962	0.709649	0.593004
	H10	H	0.825293	0.280308	0.593503
	H11	H	0.151375	0.278465	0.395625
	H12	H	0.824946	0.396392	0.709206
	H13	H	0.152208	0.592675	0.709216
	H14	H	0.824326	0.592829	0.281904
	H15	H	0.151564	0.395512	0.279283
	H16	H	0.390452	0.709702	0.831338
	H17	H	0.585986	0.708171	0.159476
	H18	H	0.586620	0.281161	0.831650
	H19	H	0.390426	0.281746	0.159717
	H20	H	0.703848	0.831682	0.395607
	H21	H	0.701749	0.158627	0.593773
	H22	H	0.274540	0.831301	0.594003
	H23	H	0.273220	0.158083	0.397116
	H24	H	0.889762	0.330994	0.208696
	H25	H	0.084424	0.658757	0.207562
	H26	H	0.087759	0.330440	0.779706
	H27	H	0.890184	0.658392	0.779712
	H28	H	0.205329	0.894359	0.332015
	H29	H	0.201947	0.093188	0.658877
	H30	H	0.773315	0.093500	0.331540
	H31	H	0.774219	0.896540	0.659399
	H32	H	0.325600	0.210002	0.897596
	H33	H	0.651861	0.209968	0.094047
	H34	H	0.325147	0.780620	0.095664
	H35	H	0.651885	0.780146	0.897018
	H36	H	0.324861	0.896707	0.210565
	H37	H	0.652133	0.094118	0.210355
	H38	H	0.325238	0.094148	0.781655
	H39	H	0.652247	0.896240	0.779921
	H40	H	0.890223	0.208140	0.330607
	H41	H	0.084563	0.207228	0.659245
	H42	H	0.087140	0.781391	0.330470
	H43	H	0.890065	0.780895	0.658568
	H44	H	0.205228	0.331216	0.894648
	H45	H	0.202166	0.658169	0.093623
	H46	H	0.773649	0.331459	0.093908
	H47	H	0.773018	0.658521	0.895217
	H48	H	0.404645	0.109926	0.593252
	H49	H	0.579109	0.881101	0.580294
	H50	H	0.581885	0.110081	0.405694
	H51	H	0.394342	0.880318	0.410124
	H52	H	0.580895	0.405006	0.110670
	H53	H	0.592206	0.589034	0.874987
	H54	H	0.393627	0.596356	0.115807
	H55	H	0.391906	0.399663	0.876386
	H56	H	0.105503	0.584737	0.396948
	H57	H	0.872982	0.586484	0.588874
	H58	H	0.105627	0.396781	0.586148
	H59	H	0.870282	0.396820	0.398309
	H60	H	0.103425	0.403355	0.583585
	H61	H	0.871667	0.590189	0.587883
	H62	H	0.106446	0.592293	0.399279
	H63	H	0.872823	0.401107	0.406441
	H64	H	0.387366	0.581895	0.111611
	H65	H	0.578168	0.577449	0.882171
	H66	H	0.579168	0.399399	0.112797
	H67	H	0.395891	0.407093	0.879849
	H68	H	0.583720	0.112787	0.400901
	H69	H	0.589756	0.875346	0.589313
	H70	H	0.391022	0.108805	0.577549
	H71	H	0.390821	0.874586	0.398540
	H72	H	0.892297	0.610814	0.081563
	H73	H	0.075311	0.383076	0.078648
	H74	H	0.089016	0.610866	0.907697
	H75	H	0.884557	0.374144	0.898363
	H76	H	0.087392	0.903037	0.613521
	H77	H	0.077018	0.098382	0.375911
	H78	H	0.888314	0.084680	0.613171
	H79	H	0.905282	0.897609	0.379028
	H80	H	0.602605	0.082182	0.903094
	H81	H	0.373652	0.093331	0.080433
	H82	H	0.605614	0.902333	0.093709
	H83	H	0.372549	0.904059	0.901362
	H84	H	0.605640	0.895742	0.087284
	H85	H	0.375523	0.078723	0.088931
	H86	H	0.607430	0.088853	0.896110
	H87	H	0.371951	0.900627	0.902567
	H88	H	0.899435	0.084600	0.609295
	H89	H	0.092708	0.082449	0.375746
	H90	H	0.077464	0.906423	0.608158
	H91	H	0.887476	0.895800	0.373331
	H92	H	0.082239	0.613465	0.892447
	H93	H	0.091368	0.375206	0.084982
	H94	H	0.891063	0.613169	0.091161
	H95	H	0.904465	0.378723	0.893655
	H96	H	0.385301	0.115937	0.595773
	H97	H	0.576045	0.877780	0.594179
	H98	H	0.578521	0.111730	0.400954
	H99	H	0.402753	0.879300	0.399597
	H100	H	0.584844	0.401046	0.112933
	H101	H	0.574230	0.596524	0.878059
	H102	H	0.402910	0.584673	0.108071
	H103	H	0.400307	0.399732	0.879172
	H104	H	0.103158	0.587527	0.404994
	H105	H	0.873462	0.588065	0.585173
	H106	H	0.105493	0.402331	0.590534
	H107	H	0.872319	0.405357	0.399125
	H108	H	0.899821	0.609706	0.088093
	H109	H	0.076688	0.376504	0.096115
	H110	H	0.072536	0.606734	0.905124
	H111	H	0.896765	0.381945	0.912868
	H112	H	0.078549	0.895558	0.612746
	H113	H	0.073089	0.078095	0.383545
	H114	H	0.894705	0.093994	0.614265
	H115	H	0.893571	0.912763	0.380474
	H116	H	0.604943	0.092227	0.905697
	H117	H	0.369235	0.092784	0.097126
	H118	H	0.602870	0.903699	0.084637
	H119	H	0.373083	0.902994	0.904981
	C120	C	0.366196	0.003288	0.617306
	C121	C	0.609440	0.986442	0.616212
	C122	C	0.610204	0.003195	0.373766
	C123	C	0.367070	0.986434	0.374142
	C124	C	0.610033	0.373494	0.003758
	C125	C	0.609764	0.616004	0.986643
	C126	C	0.366591	0.616531	0.003724
	C127	C	0.367057	0.373552	0.986721
	C128	C	-0.003264	0.616323	0.372897
	C129	C	0.980320	0.616456	0.616048
	C130	C	-0.003170	0.372616	0.615632
	C131	C	0.980059	0.372383	0.372744
	C132	C	0.866327	0.503038	0.115834
	C133	C	0.109504	0.486161	0.115873
	C134	C	0.110641	0.502511	0.872712
	C135	C	0.866783	0.486588	0.872963
	C136	C	0.110367	0.872713	0.503479
	C137	C	0.109056	0.115254	0.486627
	C138	C	0.866021	0.116456	0.503667
	C139	C	0.866950	0.873680	0.486499
	C140	C	0.497181	0.116831	0.873726
	C141	C	0.480858	0.116744	0.117055
	C142	C	0.496493	0.873013	0.117243
	C143	C	0.480388	0.873524	0.873935
	C144	C	0.369774	0.879893	0.672513
	C145	C	0.605793	0.110055	0.670626
	C146	C	0.606987	0.879876	0.319297
	C147	C	0.369646	0.109873	0.319419
	C148	C	0.665125	0.375332	0.880326
	C149	C	0.664300	0.613314	0.110032
	C150	C	0.312341	0.614006	0.880019
	C151	C	0.311202	0.375524	0.109931
	C152	C	0.873817	0.671809	0.376121
	C153	C	0.103628	0.671277	0.613379
	C154	C	0.873695	0.318466	0.613336
	C155	C	0.102745	0.316875	0.375324
	C156	C	0.873724	0.375575	0.671289
	C157	C	0.103654	0.613179	0.670914
	C158	C	0.873464	0.613928	0.318811
	C159	C	0.102916	0.374786	0.317281
	C160	C	0.369473	0.672036	0.880302
	C161	C	0.606669	0.670627	0.110281
	C162	C	0.607301	0.318542	0.880440
	C163	C	0.369412	0.318715	0.110309
	C164	C	0.665874	0.880502	0.375507
	C165	C	0.663946	0.109732	0.613749
	C166	C	0.312140	0.879926	0.614870
	C167	C	0.311330	0.109389	0.376504
	C168	C	0.869164	0.380007	0.171123
	C169	C	0.105993	0.609716	0.170248
	C170	C	0.108108	0.379230	0.817610
	C171	C	0.869250	0.609653	0.817720
	C172	C	0.166183	0.874674	0.380375
	C173	C	0.163873	0.113137	0.609916
	C174	C	0.810947	0.113989	0.380440
	C175	C	0.812179	0.876541	0.610185
	C176	C	0.374137	0.172165	0.876914
	C177	C	0.603367	0.171759	0.114209
	C178	C	0.373945	0.818307	0.115676
	C179	C	0.603256	0.817786	0.875886
	C180	C	0.373784	0.876236	0.172791
	C181	C	0.603470	0.114141	0.172102
	C182	C	0.373886	0.114285	0.819359
	C183	C	0.603491	0.875776	0.818290
	C184	C	0.869071	0.170882	0.380004
	C185	C	0.105693	0.169897	0.610051
	C186	C	0.107647	0.818385	0.379767
	C187	C	0.869545	0.818849	0.609868
	C188	C	0.166753	0.379860	0.874429
	C189	C	0.164492	0.609291	0.113724
	C190	C	0.811295	0.380178	0.114110
	C191	C	0.810921	0.609440	0.875047
	C192	C	0.387375	0.089313	0.595357
	C193	C	0.587998	0.900443	0.594361
	C194	C	0.587776	0.089502	0.395871
	C195	C	0.389329	0.900321	0.396230
	C196	C	0.588196	0.395318	0.089881
	C197	C	0.587952	0.594253	0.900580
	C198	C	0.388194	0.594207	0.089818
	C199	C	0.389458	0.395683	0.900675
	C200	C	0.082810	0.594664	0.394106
	C201	C	0.895084	0.594609	0.593896
	C202	C	0.082638	0.394522	0.593501
	C203	C	0.894025	0.394608	0.394869
	C204	C	0.888132	0.589048	0.093558
	C205	C	0.087677	0.400379	0.093272
	C206	C	0.088117	0.588273	0.895128
	C207	C	0.888877	0.400504	0.894994
	C208	C	0.087809	0.894929	0.589345
	C209	C	0.087319	0.092846	0.400509
	C210	C	0.887872	0.094338	0.590071
	C211	C	0.888972	0.895503	0.400047
	C212	C	0.582809	0.094434	0.895087
	C213	C	0.394980	0.094854	0.095302
	C214	C	0.582628	0.894239	0.095038
	C215	C	0.394842	0.895911	0.896341
	Zn216	Zn	0.488369	-0.004900	0.745172
	Zn217	Zn	0.488713	-0.005206	0.245445
	Zn218	Zn	0.738045	0.494648	-0.005036
	Zn219	Zn	0.238653	0.494715	-0.005061
	Zn220	Zn	-0.011555	0.745186	0.494644
	Zn221	Zn	-0.011956	0.243874	0.494943
	Zn222	Zn	-0.011458	0.494250	0.744295
	Zn223	Zn	-0.012160	0.495038	0.243981
	Zn224	Zn	0.488387	0.744371	-0.004396
	Zn225	Zn	0.488684	0.245568	-0.004478
	Zn226	Zn	0.738448	-0.005189	0.495200
	Zn227	Zn	0.238015	-0.005564	0.495141
	N228	N	0.402420	0.957701	0.674270
	N229	N	0.572376	0.032528	0.672088
	N230	N	0.573214	0.957404	0.318018
	N231	N	0.403454	0.032331	0.317741
	N232	N	0.666848	0.408885	0.957954
	N233	N	0.666379	0.580067	0.032241
	N234	N	0.310377	0.580375	0.957666
	N235	N	0.309569	0.408738	0.032251
	N236	N	0.951482	0.673823	0.408883
	N237	N	0.026115	0.673550	0.580105
	N238	N	0.951079	0.316557	0.579683
	N239	N	0.025145	0.315250	0.408666
	N240	N	0.951266	0.408903	0.672615
	N241	N	0.026316	0.579875	0.672639
	N242	N	0.950767	0.580075	0.316938
	N243	N	0.025591	0.408892	0.315724
	N244	N	0.402527	0.673608	0.958114
	N245	N	0.573219	0.672182	0.032593
	N246	N	0.573819	0.317154	0.958216
	N247	N	0.403543	0.317497	0.032803
	N248	N	0.667539	0.958071	0.408982
	N249	N	0.666376	0.031969	0.580627
	N250	N	0.309598	0.957438	0.581408
	N251	N	0.309862	0.031689	0.409899
	N252	N	0.902689	0.457548	0.172185
	N253	N	0.072459	0.532402	0.171548
	N254	N	0.073970	0.456650	0.816354
	N255	N	0.903286	0.532289	0.816468
	N256	N	0.167851	0.907795	0.458137
	N257	N	0.166000	0.079577	0.532160
	N258	N	0.809076	0.080794	0.458369
	N259	N	0.810728	0.910019	0.532404
	N260	N	0.451635	0.174004	0.909846
	N261	N	0.526125	0.173131	0.080481
	N262	N	0.451243	0.816302	0.081688
	N263	N	0.525833	0.816393	0.909943
	N264	N	0.451184	0.909454	0.173906
	N265	N	0.526263	0.080574	0.173953
	N266	N	0.451161	0.080628	0.817264
	N267	N	0.526068	0.909490	0.816824
	N268	N	0.902693	0.172297	0.457586
	N269	N	0.072507	0.171223	0.532445
	N270	N	0.073682	0.816927	0.457399
	N271	N	0.903095	0.817208	0.532089
	N272	N	0.168078	0.457258	0.908111
	N273	N	0.166513	0.531521	0.080203
	N274	N	0.809609	0.457672	0.080277
	N275	N	0.809431	0.531817	0.908781
	O276	O	1.082885	-0.094201	0.993026
	H277	H	1.088930	-0.094410	0.991488
	H278	H	1.079192	-0.086503	0.988533
	O279	O	1.064103	0.963607	0.969442
	H280	H	1.072059	0.959134	0.975252
	H281	H	1.064699	0.947452	0.969598
	O282	O	1.052288	0.940356	-0.037984
	H283	H	1.043867	0.942241	-0.043618
	H284	H	1.060368	0.948556	-0.041121
	O285	O	1.078296	0.939414	0.983689
	H286	H	1.077801	0.938653	0.988407
	H287	H	1.083482	0.935988	0.985203
