data_Molecule from HDF5

_cell_length_a		16.169627
_cell_length_b		16.486559
_cell_length_c		16.203461
_cell_angle_alpha	90.256471
_cell_angle_beta	90.147291
_cell_angle_gamma	89.968591
_symmetry_space_group_name_H-M	'P 1'
_symmetry_Int_Tables_number		1

loop_
	_symmetry_equiv_pos_as_xyz
	x,y,z

loop_
	_atom_site_label
	_atom_site_type_symbol
	_atom_site_fract_x
	_atom_site_fract_y
	_atom_site_fract_z
	H0	H	0.401060	0.833438	0.711028
	H1	H	0.601444	0.154681	0.714563
	H2	H	0.604153	0.833447	0.276535
	H3	H	0.401611	0.155810	0.278288
	H4	H	0.713702	0.394140	0.830908
	H5	H	0.712965	0.592146	0.159930
	H6	H	0.284447	0.591153	0.831568
	H7	H	0.285831	0.396259	0.159715
	H8	H	0.838723	0.714316	0.393901
	H9	H	0.163110	0.713096	0.600928
	H10	H	0.840443	0.275528	0.601830
	H11	H	0.163494	0.277886	0.392648
	H12	H	0.836063	0.397295	0.707745
	H13	H	0.164149	0.595487	0.712848
	H14	H	0.834639	0.595005	0.283346
	H15	H	0.164401	0.397761	0.281766
	H16	H	0.395374	0.711260	0.832558
	H17	H	0.604487	0.714185	0.156685
	H18	H	0.602231	0.274503	0.833203
	H19	H	0.395193	0.275193	0.157224
	H20	H	0.721159	0.833892	0.394600
	H21	H	0.717814	0.156326	0.596391
	H22	H	0.284523	0.833868	0.595218
	H23	H	0.284103	0.155799	0.395289
	H24	H	0.897842	0.333537	0.214404
	H25	H	0.099559	0.656833	0.214268
	H26	H	0.099662	0.333564	0.777375
	H27	H	0.896938	0.655293	0.778243
	H28	H	0.214184	0.895567	0.331618
	H29	H	0.216159	0.092899	0.660346
	H30	H	0.786900	0.094275	0.332810
	H31	H	0.787990	0.898189	0.660575
	H32	H	0.337584	0.210786	0.890994
	H33	H	0.661360	0.215037	0.101900
	H34	H	0.337866	0.777269	0.098245
	H35	H	0.662442	0.775350	0.892048
	H36	H	0.338175	0.893477	0.211160
	H37	H	0.665707	0.092695	0.208703
	H38	H	0.335578	0.089401	0.782083
	H39	H	0.666226	0.895039	0.782439
	H40	H	0.896669	0.214151	0.335173
	H41	H	0.106861	0.214345	0.658576
	H42	H	0.105534	0.775009	0.334978
	H43	H	0.898321	0.778006	0.659022
	H44	H	0.216737	0.332697	0.894928
	H45	H	0.218343	0.655652	0.098689
	H46	H	0.784994	0.331776	0.093358
	H47	H	0.783220	0.655818	0.897423
	H48	H	0.412372	0.110696	0.597498
	H49	H	0.594589	0.878056	0.594437
	H50	H	0.592461	0.109523	0.396337
	H51	H	0.403538	0.878091	0.398978
	H52	H	0.594924	0.398125	0.114341
	H53	H	0.588043	0.584147	0.879594
	H54	H	0.411238	0.593578	0.112888
	H55	H	0.402852	0.396524	0.876426
	H56	H	0.117384	0.592229	0.409508
	H57	H	0.884454	0.591443	0.583429
	H58	H	0.118065	0.407111	0.591815
	H59	H	0.886277	0.405206	0.411988
	H60	H	0.119754	0.398547	0.584888
	H61	H	0.884874	0.585115	0.585507
	H62	H	0.113636	0.581642	0.409187
	H63	H	0.883671	0.406082	0.402295
	H64	H	0.405180	0.584541	0.112785
	H65	H	0.588815	0.586663	0.879120
	H66	H	0.592029	0.408638	0.110506
	H67	H	0.407983	0.408603	0.880887
	H68	H	0.588892	0.106140	0.407961
	H69	H	0.590014	0.883170	0.583819
	H70	H	0.415142	0.105786	0.581928
	H71	H	0.415253	0.881325	0.398285
	H72	H	0.907897	0.607427	0.088053
	H73	H	0.087198	0.383643	0.083003
	H74	H	0.087165	0.603994	0.915203
	H75	H	0.906285	0.378434	0.896991
	H76	H	0.093455	0.906242	0.612388
	H77	H	0.095408	0.084286	0.379547
	H78	H	0.911426	0.080081	0.610151
	H79	H	0.917443	0.900611	0.381607
	H80	H	0.618463	0.086450	0.902328
	H81	H	0.383808	0.085728	0.085473
	H82	H	0.617643	0.903100	0.086433
	H83	H	0.382174	0.898639	0.900245
	H84	H	0.618491	0.898560	0.083296
	H85	H	0.384979	0.085157	0.083989
	H86	H	0.616872	0.090263	0.909740
	H87	H	0.384454	0.899290	0.907086
	H88	H	0.919757	0.091580	0.612059
	H89	H	0.086224	0.085264	0.381936
	H90	H	0.090439	0.902521	0.612692
	H91	H	0.909551	0.901380	0.378758
	H92	H	0.101321	0.611201	0.904978
	H93	H	0.097888	0.379446	0.088525
	H94	H	0.903315	0.608888	0.088593
	H95	H	0.911146	0.381229	0.902431
	H96	H	0.399947	0.111004	0.586255
	H97	H	0.601727	0.878985	0.584354
	H98	H	0.601011	0.109513	0.405787
	H99	H	0.408798	0.882783	0.409255
	H100	H	0.583723	0.400196	0.110034
	H101	H	0.590599	0.584495	0.879324
	H102	H	0.415862	0.584362	0.108851
	H103	H	0.416390	0.397132	0.880632
	H104	H	0.118805	0.585545	0.399685
	H105	H	0.882557	0.590340	0.588568
	H106	H	0.114788	0.407805	0.581129
	H107	H	0.882046	0.397299	0.406527
	H108	H	0.906771	0.609323	0.092371
	H109	H	0.087766	0.380256	0.095144
	H110	H	0.084131	0.608383	0.896663
	H111	H	0.903594	0.379800	0.904819
	H112	H	0.094660	0.901299	0.614073
	H113	H	0.090962	0.092923	0.379004
	H114	H	0.905676	0.091984	0.616002
	H115	H	0.913479	0.907754	0.382045
	H116	H	0.615011	0.081825	0.908029
	H117	H	0.384458	0.084686	0.085397
	H118	H	0.616257	0.903423	0.080799
	H119	H	0.384894	0.905522	0.902263
	C120	C	0.380131	0.002769	0.617160
	C121	C	0.624704	0.986196	0.618100
	C122	C	0.624829	0.002549	0.372922
	C123	C	0.379369	0.986670	0.372362
	C124	C	0.620050	0.372451	0.003589
	C125	C	0.620357	0.615452	0.986738
	C126	C	0.379113	0.616112	0.003744
	C127	C	0.378786	0.371935	0.987036
	C128	C	0.008649	0.616447	0.375848
	C129	C	0.991967	0.617712	0.617214
	C130	C	0.009908	0.374845	0.616374
	C131	C	0.991857	0.373482	0.375613
	C132	C	0.876726	0.502038	0.118836
	C133	C	0.121405	0.486995	0.118923
	C134	C	0.121274	0.502363	0.874679
	C135	C	0.876919	0.486337	0.872711
	C136	C	0.122880	0.873099	0.505063
	C137	C	0.122456	0.117099	0.487662
	C138	C	0.881222	0.117075	0.505129
	C139	C	0.882255	0.874488	0.488467
	C140	C	0.508672	0.114423	0.875493
	C141	C	0.492132	0.115577	0.116161
	C142	C	0.509343	0.872475	0.114984
	C143	C	0.491922	0.871455	0.873075
	C144	C	0.381706	0.881357	0.672518
	C145	C	0.622381	0.107043	0.675591
	C146	C	0.624011	0.881668	0.315715
	C147	C	0.381245	0.107744	0.316532
	C148	C	0.676070	0.374152	0.880351
	C149	C	0.676807	0.613782	0.110027
	C150	C	0.321938	0.612859	0.880925
	C151	C	0.322835	0.375008	0.110527
	C152	C	0.886707	0.674599	0.375577
	C153	C	0.114673	0.674196	0.619107
	C154	C	0.888137	0.315967	0.618614
	C155	C	0.114650	0.316959	0.374397
	C156	C	0.885911	0.376548	0.671601
	C157	C	0.114814	0.615710	0.674961
	C158	C	0.884674	0.615149	0.320436
	C159	C	0.115116	0.376343	0.318937
	C160	C	0.377106	0.672602	0.881418
	C161	C	0.622470	0.674225	0.108600
	C162	C	0.620602	0.314470	0.881311
	C163	C	0.377022	0.314607	0.109040
	C164	C	0.682425	0.882002	0.374083
	C165	C	0.680206	0.107781	0.616888
	C166	C	0.323645	0.881592	0.614820
	C167	C	0.322740	0.107689	0.374667
	C168	C	0.878415	0.381239	0.175197
	C169	C	0.120043	0.608425	0.175890
	C170	C	0.120107	0.381449	0.816575
	C171	C	0.877469	0.607053	0.816749
	C172	C	0.177900	0.874767	0.381438
	C173	C	0.179133	0.114251	0.610889
	C174	C	0.824368	0.114959	0.382144
	C175	C	0.825872	0.877251	0.611447
	C176	C	0.386069	0.171215	0.873525
	C177	C	0.613664	0.174581	0.118817
	C178	C	0.386886	0.815816	0.116309
	C179	C	0.614371	0.814242	0.873039
	C180	C	0.386979	0.873811	0.172701
	C181	C	0.615719	0.114108	0.172409
	C182	C	0.385214	0.111194	0.818788
	C183	C	0.616120	0.873995	0.818472
	C184	C	0.879309	0.174457	0.383284
	C185	C	0.124660	0.174685	0.609953
	C186	C	0.123596	0.814804	0.383102
	C187	C	0.880667	0.817648	0.610692
	C188	C	0.177863	0.380927	0.875311
	C189	C	0.179306	0.607812	0.118670
	C190	C	0.822144	0.380398	0.115023
	C191	C	0.820468	0.607238	0.875787
	C192	C	0.402529	0.087137	0.595080
	C193	C	0.602177	0.901984	0.594366
	C194	C	0.600984	0.086598	0.396404
	C195	C	0.402552	0.902468	0.395274
	C196	C	0.596882	0.395540	0.089304
	C197	C	0.596119	0.591893	0.901378
	C198	C	0.403518	0.594004	0.089205
	C199	C	0.402208	0.394045	0.901475
	C200	C	0.094418	0.593136	0.399130
	C201	C	0.906284	0.595462	0.592926
	C202	C	0.095366	0.397859	0.592843
	C203	C	0.906187	0.396136	0.399893
	C204	C	0.899442	0.586715	0.096361
	C205	C	0.098027	0.403206	0.095494
	C206	C	0.097724	0.585982	0.898687
	C207	C	0.900226	0.401609	0.895014
	C208	C	0.099595	0.896420	0.590679
	C209	C	0.098141	0.094220	0.402187
	C210	C	0.905403	0.094511	0.590551
	C211	C	0.906531	0.896741	0.403003
	C212	C	0.594457	0.092408	0.899705
	C213	C	0.406754	0.092091	0.091884
	C214	C	0.595153	0.895214	0.090741
	C215	C	0.406104	0.894442	0.896172
	Zn216	Zn	0.501324	-0.006368	0.747000
	Zn217	Zn	0.501962	-0.006011	0.242885
	Zn218	Zn	0.748020	0.493857	-0.004296
	Zn219	Zn	0.251373	0.493967	-0.003401
	Zn220	Zn	0.001736	0.745154	0.496471
	Zn221	Zn	0.001710	0.245893	0.497032
	Zn222	Zn	-0.000244	0.495173	0.743789
	Zn223	Zn	-0.001010	0.495266	0.248386
	Zn224	Zn	0.500171	0.744565	-0.005267
	Zn225	Zn	0.499422	0.243665	-0.004043
	Zn226	Zn	0.754428	-0.004748	0.495993
	Zn227	Zn	0.250194	-0.005183	0.495417
	N228	N	0.416042	0.957543	0.674020
	N229	N	0.588719	0.030649	0.676580
	N230	N	0.588993	0.957660	0.314792
	N231	N	0.415646	0.031532	0.315052
	N232	N	0.675973	0.409335	0.957462
	N233	N	0.675559	0.577845	0.033336
	N234	N	0.322835	0.578713	0.958136
	N235	N	0.323704	0.409765	0.033758
	N236	N	0.964864	0.675431	0.409377
	N237	N	0.037260	0.675636	0.583960
	N238	N	0.966182	0.314798	0.584716
	N239	N	0.036815	0.314760	0.408364
	N240	N	0.962443	0.412634	0.670186
	N241	N	0.037424	0.581446	0.673936
	N242	N	0.961571	0.579582	0.320600
	N243	N	0.037628	0.410752	0.319528
	N244	N	0.411901	0.674787	0.958984
	N245	N	0.587982	0.675219	0.030903
	N246	N	0.586589	0.313281	0.959065
	N247	N	0.411031	0.312546	0.031321
	N248	N	0.683137	0.958260	0.408843
	N249	N	0.681884	0.031497	0.582017
	N250	N	0.322580	0.957858	0.580752
	N251	N	0.321256	0.031247	0.408558
	N252	N	0.911343	0.458087	0.177647
	N253	N	0.084599	0.532612	0.176125
	N254	N	0.085633	0.457794	0.816052
	N255	N	0.911775	0.530783	0.814627
	N256	N	0.177723	0.910378	0.458315
	N257	N	0.178061	0.079017	0.533753
	N258	N	0.825655	0.079874	0.458823
	N259	N	0.826703	0.911828	0.534422
	N260	N	0.463717	0.173446	0.908135
	N261	N	0.535673	0.175805	0.084759
	N262	N	0.464171	0.814816	0.081262
	N263	N	0.536241	0.812519	0.906079
	N264	N	0.464308	0.908415	0.171869
	N265	N	0.539151	0.077956	0.171027
	N266	N	0.462609	0.076649	0.819832
	N267	N	0.538759	0.908818	0.818347
	N268	N	0.913910	0.176025	0.460911
	N269	N	0.090147	0.176480	0.532445
	N270	N	0.090179	0.813500	0.461072
	N271	N	0.915016	0.815723	0.533060
	N272	N	0.178864	0.456933	0.910687
	N273	N	0.180441	0.531473	0.084100
	N274	N	0.821185	0.456448	0.080594
	N275	N	0.819955	0.530934	0.909850
	O276	O	0.005397	0.084693	-0.006166
	H277	H	-0.008680	0.076380	-0.004200
	H278	H	-0.012573	0.084260	-0.017088
	O279	O	0.365853	0.378180	0.644969
	H280	H	0.378652	0.373641	0.648817
	H281	H	0.362310	0.381860	0.659294
	O282	O	0.936057	-0.165415	-0.082502
	H283	H	0.946069	-0.175911	-0.085884
	H284	H	0.945313	-0.171002	-0.068960
	O285	O	-0.042236	0.877072	0.143684
	H286	H	-0.040220	0.878592	0.155315
	H287	H	-0.022860	0.873458	0.134932
	O288	O	1.128704	0.844649	-0.073519
	H289	H	1.133209	0.851523	-0.061996
	H290	H	1.136896	0.835023	-0.065348
	O291	O	0.586025	0.635005	0.659307
	H292	H	0.590666	0.628658	0.642708
	H293	H	0.591639	0.651690	0.683171
	O294	O	0.877366	0.876656	1.126662
	H295	H	0.883820	0.878905	1.122712
	H296	H	0.873606	0.867193	1.127212
	O297	O	0.052627	-0.117436	-0.001122
	H298	H	0.066857	-0.122729	0.001869
	H299	H	0.056674	-0.118693	-0.015900
	O300	O	0.473301	0.553410	0.508391
	H301	H	0.465895	0.550206	0.523811
	H302	H	0.489606	0.552339	0.506667
	O303	O	-0.004436	0.871096	1.022578
	H304	H	0.008795	0.851107	1.026262
	H305	H	0.007499	0.881702	1.024001
	O306	O	0.616467	0.543619	0.559329
	H307	H	0.622509	0.549499	0.574436
	H308	H	0.619048	0.556006	0.552388
	O309	O	0.964848	0.119330	0.101870
	H310	H	0.974250	0.107739	0.102721
	H311	H	0.964472	0.115063	0.105081
	O312	O	-0.054131	0.010324	1.101305
	H313	H	-0.069569	0.005629	1.099988
	H314	H	-0.050712	0.005263	1.091667
	O315	O	0.499963	0.597036	0.553744
	H316	H	0.504106	0.603289	0.554508
	H317	H	0.489905	0.594895	0.545568
	O318	O	0.414115	0.621944	0.537348
	H319	H	0.408335	0.619179	0.540066
	H320	H	0.408909	0.629223	0.525486
	O321	O	0.538469	0.339349	0.381746
	H322	H	0.534333	0.340682	0.390254
	H323	H	0.533263	0.338334	0.378926
	O324	O	0.426397	0.454322	0.556758
	H325	H	0.426161	0.446847	0.569179
	H326	H	0.443315	0.444473	0.553343
	O327	O	0.027556	1.075095	0.954769
	H328	H	0.026278	1.076270	0.957358
	H329	H	0.019840	1.087615	0.958148
	O330	O	0.463943	0.459217	0.392498
	H331	H	0.453853	0.450614	0.389962
	H332	H	0.454068	0.472594	0.402212
	O333	O	-0.128649	1.042255	0.867192
	H334	H	-0.139704	1.045077	0.850589
	H335	H	-0.125681	1.042791	0.876129
	O336	O	1.135161	1.164802	1.113691
	H337	H	1.116538	1.162209	1.107773
	H338	H	1.127511	1.169016	1.116736
	O339	O	0.357082	0.332862	0.473489
	H340	H	0.360567	0.331893	0.492216
	H341	H	0.350167	0.323398	0.482754
	O342	O	1.133293	-0.145384	-0.157026
	H343	H	1.141709	-0.152894	-0.162876
	H344	H	1.130798	-0.131083	-0.157451
	O345	O	0.598521	0.510305	0.514113
	H346	H	0.610886	0.501998	0.506783
	H347	H	0.592027	0.505595	0.513387
	O348	O	0.967667	1.026952	0.865562
	H349	H	0.961365	1.025133	0.856166
	H350	H	0.968708	1.029413	0.868037
	O351	O	0.549079	0.412269	0.524262
	H352	H	0.528677	0.423222	0.532678
	H353	H	0.561424	0.421544	0.516933
	O354	O	0.602445	0.500681	0.569870
	H355	H	0.589652	0.496336	0.578901
	H356	H	0.607457	0.513801	0.552713
	O357	O	0.554657	0.526998	0.406604
	H358	H	0.560542	0.516111	0.394016
	H359	H	0.553697	0.534612	0.397509
	O360	O	-0.004617	0.147756	-0.063300
	H361	H	-0.008249	0.136843	-0.064652
	H362	H	0.002938	0.157955	-0.053618
	O363	O	0.540015	0.547785	0.461307
	H364	H	0.539180	0.547829	0.451545
	H365	H	0.531066	0.550436	0.446609
	O366	O	0.509170	0.554999	0.539921
	H367	H	0.498428	0.563767	0.536095
	H368	H	0.522104	0.568249	0.537310
	O369	O	0.638653	0.343786	0.369522
	H370	H	0.646964	0.329101	0.371216
	H371	H	0.625807	0.342927	0.362037
	O372	O	-0.050539	1.089658	0.972162
	H373	H	-0.046790	1.086133	0.961871
	H374	H	-0.060313	1.089801	0.982089
	O375	O	0.368248	0.611964	0.362310
	H376	H	0.374565	0.609072	0.360492
	H377	H	0.365865	0.597937	0.361560
	O378	O	0.426659	0.319036	0.446635
	H379	H	0.419997	0.324270	0.439926
	H380	H	0.424322	0.315146	0.472698
	O381	O	0.549164	0.538513	0.394011
	H382	H	0.546637	0.520094	0.395169
	H383	H	0.558539	0.539894	0.393507
	O384	O	0.000734	1.118880	-0.049635
	H385	H	-0.008746	1.122931	-0.047881
	H386	H	0.002146	1.123986	-0.039182
	O387	O	0.925405	0.090942	0.897333
	H388	H	0.924937	0.095494	0.909515
	H389	H	0.920045	0.072577	0.892523
	O390	O	0.083986	1.087417	0.038683
	H391	H	0.076229	1.079656	0.045990
	H392	H	0.068602	1.093844	0.024424
	O393	O	1.144537	0.917916	0.087959
	H394	H	1.130215	0.930806	0.086036
	H395	H	1.154122	0.921878	0.089541
	O396	O	0.439733	0.500592	0.496666
	H397	H	0.448272	0.497170	0.489227
	H398	H	0.438082	0.509506	0.504207
	O399	O	0.046840	0.934308	1.122630
	H400	H	0.035126	0.949146	1.130534
	H401	H	0.058045	0.936278	1.122174
	O402	O	1.011916	1.005771	0.973644
	H403	H	1.019411	1.017477	0.966549
	H404	H	1.026402	1.004405	0.978255
	O405	O	0.470197	0.650081	0.420437
	H406	H	0.469187	0.639310	0.413526
	H407	H	0.460672	0.653861	0.397311
