data_Molecule from HDF5

_cell_length_a		16.222586
_cell_length_b		16.394931
_cell_length_c		16.205167
_cell_angle_alpha	89.925710
_cell_angle_beta	89.975055
_cell_angle_gamma	89.844956
_symmetry_space_group_name_H-M	'P 1'
_symmetry_Int_Tables_number		1

loop_
	_symmetry_equiv_pos_as_xyz
	x,y,z

loop_
	_atom_site_label
	_atom_site_type_symbol
	_atom_site_fract_x
	_atom_site_fract_y
	_atom_site_fract_z
	H0	H	0.406516	0.833927	0.718269
	H1	H	0.601996	0.159870	0.716821
	H2	H	0.603665	0.833612	0.287417
	H3	H	0.406294	0.159670	0.287037
	H4	H	0.717929	0.399909	0.837923
	H5	H	0.714686	0.591594	0.168112
	H6	H	0.291993	0.593010	0.837392
	H7	H	0.292907	0.400366	0.167340
	H8	H	0.841264	0.713339	0.401380
	H9	H	0.168349	0.711195	0.602066
	H10	H	0.841285	0.281648	0.602978
	H11	H	0.168865	0.281384	0.403570
	H12	H	0.839991	0.401349	0.714849
	H13	H	0.169611	0.592100	0.714309
	H14	H	0.838837	0.593314	0.290192
	H15	H	0.169233	0.399459	0.289431
	H16	H	0.403847	0.711599	0.838076
	H17	H	0.603141	0.710572	0.166371
	H18	H	0.604868	0.282021	0.838267
	H19	H	0.403646	0.280244	0.165385
	H20	H	0.719354	0.833236	0.404315
	H21	H	0.717591	0.160174	0.599457
	H22	H	0.289955	0.833205	0.601369
	H23	H	0.288910	0.159295	0.404221
	H24	H	0.907037	0.333319	0.217132
	H25	H	0.102111	0.659742	0.216784
	H26	H	0.103511	0.333427	0.788174
	H27	H	0.906468	0.660394	0.788271
	H28	H	0.217075	0.900338	0.337507
	H29	H	0.216250	0.092125	0.668078
	H30	H	0.791768	0.094382	0.337373
	H31	H	0.791982	0.899530	0.666952
	H32	H	0.340951	0.211926	0.901385
	H33	H	0.668229	0.211327	0.101789
	H34	H	0.340510	0.781392	0.102181
	H35	H	0.668353	0.781262	0.903083
	H36	H	0.339992	0.899570	0.215948
	H37	H	0.670125	0.091560	0.212858
	H38	H	0.339785	0.092850	0.789748
	H39	H	0.669549	0.899955	0.790398
	H40	H	0.904330	0.212901	0.339261
	H41	H	0.103867	0.210569	0.666631
	H42	H	0.105027	0.781276	0.338107
	H43	H	0.906547	0.782437	0.666679
	H44	H	0.220045	0.333908	0.903890
	H45	H	0.218768	0.659560	0.099232
	H46	H	0.790726	0.333383	0.100201
	H47	H	0.789123	0.660117	0.905322
	H48	H	0.406986	0.113607	0.600915
	H49	H	0.596802	0.879644	0.602344
	H50	H	0.602233	0.111960	0.412457
	H51	H	0.417980	0.885137	0.415373
	H52	H	0.588744	0.408077	0.115458
	H53	H	0.598581	0.592300	0.883778
	H54	H	0.407450	0.597012	0.122500
	H55	H	0.427136	0.407575	0.890910
	H56	H	0.119835	0.590132	0.414870
	H57	H	0.886615	0.593870	0.593559
	H58	H	0.125612	0.392315	0.598079
	H59	H	0.884072	0.396134	0.404450
	H60	H	0.118523	0.403563	0.584857
	H61	H	0.888294	0.588392	0.592660
	H62	H	0.119632	0.584932	0.408121
	H63	H	0.890082	0.401029	0.419378
	H64	H	0.407522	0.582370	0.118019
	H65	H	0.597340	0.587441	0.885627
	H66	H	0.594150	0.392311	0.122082
	H67	H	0.410352	0.388318	0.879788
	H68	H	0.601008	0.114424	0.401746
	H69	H	0.595474	0.883308	0.592300
	H70	H	0.417218	0.110345	0.595835
	H71	H	0.402359	0.879368	0.412263
	H72	H	0.903951	0.615855	0.104317
	H73	H	0.097719	0.379479	0.100937
	H74	H	0.091184	0.611372	0.905193
	H75	H	0.915877	0.387642	0.926503
	H76	H	0.093299	0.902069	0.618525
	H77	H	0.090689	0.093265	0.386100
	H78	H	0.910769	0.088063	0.619195
	H79	H	0.908064	0.895479	0.381383
	H80	H	0.624719	0.095460	0.902419
	H81	H	0.391225	0.088613	0.083019
	H82	H	0.618506	0.906035	0.090018
	H83	H	0.384073	0.892299	0.910849
	H84	H	0.623309	0.902706	0.100992
	H85	H	0.387880	0.081352	0.101615
	H86	H	0.620663	0.094260	0.918072
	H87	H	0.391404	0.908412	0.918397
	H88	H	0.913781	0.090772	0.618672
	H89	H	0.102172	0.093178	0.382867
	H90	H	0.097945	0.898403	0.621174
	H91	H	0.907494	0.910930	0.385903
	H92	H	0.098856	0.610415	0.915830
	H93	H	0.094417	0.383860	0.093379
	H94	H	0.918767	0.610368	0.097892
	H95	H	0.892881	0.375125	0.905053
	H96	H	0.407143	0.111295	0.589077
	H97	H	0.605022	0.878847	0.595075
	H98	H	0.592545	0.111076	0.408272
	H99	H	0.414164	0.879446	0.400188
	H100	H	0.605897	0.406775	0.121468
	H101	H	0.593697	0.591282	0.885868
	H102	H	0.420405	0.591077	0.116877
	H103	H	0.401416	0.414003	0.884545
	H104	H	0.122947	0.593015	0.407108
	H105	H	0.887357	0.589783	0.598212
	H106	H	0.121787	0.410217	0.601915
	H107	H	0.888695	0.411445	0.406844
	H108	H	0.905142	0.611736	0.087955
	H109	H	0.102836	0.379922	0.093890
	H110	H	0.103944	0.615061	0.904184
	H111	H	0.924020	0.380907	0.894307
	H112	H	0.099571	0.904811	0.619667
	H113	H	0.096819	0.083830	0.387094
	H114	H	0.910398	0.091484	0.621099
	H115	H	0.921302	0.903015	0.387880
	H116	H	0.620484	0.081401	0.908584
	H117	H	0.383891	0.100406	0.097147
	H118	H	0.622646	0.894832	0.091860
	H119	H	0.385647	0.907300	0.901236
	C120	C	0.382106	0.004301	0.624321
	C121	C	0.626442	0.988590	0.624111
	C122	C	0.626962	0.004906	0.379837
	C123	C	0.382370	0.988582	0.380265
	C124	C	0.625519	0.374686	0.010901
	C125	C	0.625046	0.617731	0.994168
	C126	C	0.383060	0.618095	0.010445
	C127	C	0.383654	0.374866	0.993668
	C128	C	0.012276	0.618023	0.381221
	C129	C	0.996129	0.618142	0.623323
	C130	C	0.013190	0.374778	0.623569
	C131	C	0.996524	0.374739	0.381483
	C132	C	0.881721	0.505011	0.124823
	C133	C	0.126676	0.488490	0.124570
	C134	C	0.126643	0.504608	0.880242
	C135	C	0.882155	0.488844	0.880398
	C136	C	0.125739	0.874301	0.510972
	C137	C	0.125358	0.117806	0.494250
	C138	C	0.882871	0.118653	0.511074
	C139	C	0.883800	0.874951	0.493838
	C140	C	0.513286	0.118431	0.880605
	C141	C	0.496381	0.117707	0.122618
	C142	C	0.513060	0.873658	0.123676
	C143	C	0.495618	0.874840	0.881415
	C144	C	0.385628	0.882102	0.679805
	C145	C	0.623000	0.111235	0.678852
	C146	C	0.623944	0.882015	0.325749
	C147	C	0.385346	0.111069	0.325138
	C148	C	0.680430	0.378673	0.887137
	C149	C	0.678385	0.613296	0.118652
	C150	C	0.328706	0.614707	0.886594
	C151	C	0.329289	0.378753	0.117633
	C152	C	0.889529	0.674276	0.382178
	C153	C	0.119453	0.673048	0.621657
	C154	C	0.889702	0.320229	0.622210
	C155	C	0.119879	0.319415	0.383552
	C156	C	0.889231	0.379459	0.677987
	C157	C	0.120158	0.613847	0.677280
	C158	C	0.888363	0.614833	0.326884
	C159	C	0.120130	0.378162	0.326748
	C160	C	0.384684	0.673276	0.887012
	C161	C	0.622936	0.672512	0.117578
	C162	C	0.624443	0.319864	0.887462
	C163	C	0.384923	0.319506	0.117042
	C164	C	0.681678	0.881984	0.383491
	C165	C	0.680925	0.111192	0.621003
	C166	C	0.327494	0.881958	0.621841
	C167	C	0.326696	0.110728	0.382978
	C168	C	0.885811	0.381933	0.179471
	C169	C	0.123529	0.610979	0.179148
	C170	C	0.123718	0.382064	0.825972
	C171	C	0.884953	0.611577	0.825828
	C172	C	0.180198	0.878320	0.386777
	C173	C	0.179106	0.113271	0.618684
	C174	C	0.828773	0.115307	0.386944
	C175	C	0.829449	0.878641	0.617902
	C176	C	0.389864	0.173818	0.881853
	C177	C	0.619697	0.172780	0.121025
	C178	C	0.389286	0.819496	0.121899
	C179	C	0.619519	0.819453	0.883129
	C180	C	0.389129	0.878026	0.178663
	C181	C	0.620457	0.113486	0.176512
	C182	C	0.389138	0.114375	0.826598
	C183	C	0.619992	0.878398	0.827146
	C184	C	0.884190	0.174603	0.387959
	C185	C	0.123371	0.171871	0.618181
	C186	C	0.124569	0.819172	0.387288
	C187	C	0.885698	0.819949	0.617595
	C188	C	0.181486	0.382193	0.883567
	C189	C	0.181179	0.610903	0.120718
	C190	C	0.828285	0.381883	0.121374
	C191	C	0.826636	0.611334	0.883867
	C192	C	0.403929	0.089885	0.601781
	C193	C	0.605367	0.902921	0.602801
	C194	C	0.605255	0.090257	0.401154
	C195	C	0.404860	0.903259	0.402700
	C196	C	0.602970	0.396104	0.097444
	C197	C	0.603021	0.596378	0.907436
	C198	C	0.405300	0.596413	0.096904
	C199	C	0.406200	0.396775	0.907191
	C200	C	0.098619	0.595902	0.403520
	C201	C	0.909719	0.596880	0.601246
	C202	C	0.099633	0.395704	0.601432
	C203	C	0.909875	0.396512	0.403706
	C204	C	0.902898	0.590467	0.103083
	C205	C	0.104794	0.403169	0.102599
	C206	C	0.104529	0.590284	0.902049
	C207	C	0.904411	0.403372	0.902066
	C208	C	0.103640	0.895597	0.597470
	C209	C	0.103111	0.096448	0.407722
	C210	C	0.905168	0.096630	0.597199
	C211	C	0.905883	0.896678	0.407391
	C212	C	0.599639	0.096852	0.903153
	C213	C	0.409893	0.096313	0.100507
	C214	C	0.599207	0.894908	0.101070
	C215	C	0.409440	0.896408	0.903475
	Zn216	Zn	0.504683	-0.003356	0.753078
	Zn217	Zn	0.504943	-0.003816	0.251175
	Zn218	Zn	0.753098	0.496334	0.002798
	Zn219	Zn	0.255870	0.496388	0.001695
	Zn220	Zn	0.004790	0.746180	0.502047
	Zn221	Zn	0.004930	0.246147	0.503054
	Zn222	Zn	0.004852	0.496598	0.751272
	Zn223	Zn	0.003826	0.496898	0.253419
	Zn224	Zn	0.504291	0.745871	0.002143
	Zn225	Zn	0.504506	0.246217	0.002550
	Zn226	Zn	0.755681	-0.003238	0.502150
	Zn227	Zn	0.252713	-0.003543	0.502669
	N228	N	0.418797	0.959194	0.681397
	N229	N	0.589915	0.034054	0.680849
	N230	N	0.590702	0.959177	0.323157
	N231	N	0.419146	0.033981	0.323317
	N232	N	0.681310	0.411827	0.964890
	N233	N	0.679581	0.579854	0.040986
	N234	N	0.327912	0.581002	0.964125
	N235	N	0.328725	0.412617	0.039980
	N236	N	0.967510	0.676032	0.415457
	N237	N	0.041233	0.675753	0.588781
	N238	N	0.967951	0.317016	0.589366
	N239	N	0.041864	0.317361	0.416946
	N240	N	0.966988	0.412447	0.678990
	N241	N	0.042625	0.580231	0.678226
	N242	N	0.965866	0.580539	0.326294
	N243	N	0.042387	0.411789	0.325555
	N244	N	0.417839	0.675529	0.965226
	N245	N	0.590497	0.675311	0.039081
	N246	N	0.591066	0.317253	0.965667
	N247	N	0.417883	0.316889	0.038884
	N248	N	0.683656	0.959253	0.416579
	N249	N	0.683155	0.034040	0.587495
	N250	N	0.325455	0.959052	0.587913
	N251	N	0.324963	0.033737	0.416689
	N252	N	0.918413	0.459431	0.181661
	N253	N	0.090236	0.534025	0.181445
	N254	N	0.090321	0.459298	0.823713
	N255	N	0.918706	0.534657	0.823404
	N256	N	0.180892	0.911817	0.464356
	N257	N	0.180280	0.080319	0.540682
	N258	N	0.827796	0.081330	0.464458
	N259	N	0.827875	0.911905	0.539978
	N260	N	0.467961	0.176243	0.914997
	N261	N	0.541521	0.175462	0.088308
	N262	N	0.467326	0.816579	0.088815
	N263	N	0.541296	0.816921	0.916075
	N264	N	0.467001	0.911231	0.179793
	N265	N	0.542806	0.079955	0.177550
	N266	N	0.466830	0.080637	0.825649
	N267	N	0.542340	0.912260	0.826135
	N268	N	0.917483	0.176549	0.466047
	N269	N	0.090683	0.174793	0.539943
	N270	N	0.091490	0.816431	0.465599
	N271	N	0.918861	0.817673	0.539467
	N272	N	0.183332	0.459357	0.916801
	N273	N	0.183426	0.533692	0.087532
	N274	N	0.825597	0.459049	0.088076
	N275	N	0.824984	0.533991	0.917057
	O276	O	-0.032015	0.051478	0.984102
	H277	H	-0.036875	0.054793	0.980968
	H278	H	-0.033174	0.055556	0.985721
	O279	O	0.510537	0.497956	0.470714
	H280	H	0.512600	0.504387	0.469311
	H281	H	0.512206	0.495843	0.462291
	O282	O	0.486381	0.563744	0.509270
	H283	H	0.486049	0.565095	0.508339
	H284	H	0.490493	0.563444	0.501841
	O285	O	0.525346	0.560611	0.525241
	H286	H	0.521142	0.563010	0.522687
	H287	H	0.520729	0.561281	0.512921
	O288	O	0.474576	0.563190	0.518547
	H289	H	0.477929	0.554674	0.519668
	H290	H	0.477842	0.564568	0.525703
	O291	O	-0.503974	1.549106	0.443276
	H292	H	-0.511509	1.546216	0.440812
	H293	H	-0.497649	1.557670	0.447041
	O294	O	0.500625	0.532373	0.489276
	H295	H	0.488726	0.534084	0.496369
	H296	H	0.504747	0.541423	0.505136
	O297	O	1.024750	0.034618	-0.000460
	H298	H	1.028306	0.034888	0.002527
	H299	H	1.024871	0.031063	0.000270
