data_Molecule from HDF5

_cell_length_a		16.414094
_cell_length_b		16.196219
_cell_length_c		16.066353
_cell_angle_alpha	89.955451
_cell_angle_beta	89.264932
_cell_angle_gamma	90.097019
_symmetry_space_group_name_H-M	'P 1'
_symmetry_Int_Tables_number		1

loop_
	_symmetry_equiv_pos_as_xyz
	x,y,z

loop_
	_atom_site_label
	_atom_site_type_symbol
	_atom_site_fract_x
	_atom_site_fract_y
	_atom_site_fract_z
	H0	H	0.404246	0.844613	0.701750
	H1	H	0.597596	0.174144	0.698189
	H2	H	0.601205	0.842989	0.274168
	H3	H	0.410409	0.174803	0.276973
	H4	H	0.719962	0.406062	0.823510
	H5	H	0.716322	0.610545	0.151101
	H6	H	0.290147	0.609359	0.822668
	H7	H	0.283460	0.405654	0.150991
	H8	H	0.841406	0.725417	0.388245
	H9	H	0.164747	0.725883	0.585164
	H10	H	0.839676	0.292738	0.588612
	H11	H	0.165006	0.292029	0.383962
	H12	H	0.840416	0.409713	0.704529
	H13	H	0.165659	0.606527	0.698658
	H14	H	0.839488	0.605493	0.274868
	H15	H	0.165950	0.410735	0.269937
	H16	H	0.407353	0.721567	0.822033
	H17	H	0.598476	0.721585	0.153012
	H18	H	0.602402	0.295130	0.823160
	H19	H	0.401103	0.296477	0.153550
	H20	H	0.721994	0.846599	0.382747
	H21	H	0.718364	0.172010	0.588257
	H22	H	0.283165	0.846490	0.592812
	H23	H	0.287314	0.172786	0.386134
	H24	H	0.904318	0.343455	0.201286
	H25	H	0.098001	0.673658	0.195930
	H26	H	0.099825	0.342776	0.772163
	H27	H	0.907666	0.673467	0.775182
	H28	H	0.221963	0.907364	0.324537
	H29	H	0.215029	0.112018	0.652172
	H30	H	0.789697	0.110290	0.322472
	H31	H	0.784109	0.906140	0.650568
	H32	H	0.339299	0.224266	0.891566
	H33	H	0.664304	0.226664	0.085749
	H34	H	0.339898	0.793605	0.089737
	H35	H	0.664289	0.792467	0.883786
	H36	H	0.340749	0.909762	0.206223
	H37	H	0.667092	0.104722	0.197828
	H38	H	0.338780	0.107677	0.773904
	H39	H	0.665288	0.911050	0.769154
	H40	H	0.907511	0.220580	0.320364
	H41	H	0.095923	0.221579	0.652416
	H42	H	0.103371	0.797663	0.321635
	H43	H	0.900424	0.793823	0.651504
	H44	H	0.222706	0.344837	0.881310
	H45	H	0.218645	0.670573	0.087843
	H46	H	0.783240	0.345133	0.090723
	H47	H	0.787024	0.671241	0.884272
	H48	H	0.400629	0.132544	0.594326
	H49	H	0.599910	0.891303	0.573771
	H50	H	0.600138	0.127621	0.390643
	H51	H	0.413832	0.893004	0.397243
	H52	H	0.596196	0.426324	0.104033
	H53	H	0.601357	0.596232	0.868579
	H54	H	0.413578	0.598984	0.104482
	H55	H	0.409074	0.407405	0.865645
	H56	H	0.121752	0.602239	0.381260
	H57	H	0.890104	0.599191	0.573902
	H58	H	0.119058	0.414107	0.581014
	H59	H	0.885633	0.403792	0.398311
	H60	H	0.117754	0.411818	0.573913
	H61	H	0.886852	0.597266	0.586140
	H62	H	0.119871	0.613484	0.395222
	H63	H	0.891146	0.420809	0.401330
	H64	H	0.405652	0.605281	0.108251
	H65	H	0.591216	0.598909	0.870249
	H66	H	0.584879	0.416882	0.103857
	H67	H	0.403676	0.423985	0.868321
	H68	H	0.594580	0.125322	0.393327
	H69	H	0.594710	0.889824	0.582690
	H70	H	0.422869	0.121565	0.578724
	H71	H	0.409286	0.893492	0.402690
	H72	H	0.911738	0.621979	0.071719
	H73	H	0.093261	0.389714	0.080751
	H74	H	0.095105	0.622780	0.898113
	H75	H	0.918220	0.392510	0.894608
	H76	H	0.092446	0.919137	0.605484
	H77	H	0.088408	0.092920	0.373875
	H78	H	0.906747	0.100670	0.605262
	H79	H	0.913624	0.919081	0.369903
	H80	H	0.617200	0.108657	0.896641
	H81	H	0.386835	0.100452	0.085627
	H82	H	0.615624	0.919108	0.075030
	H83	H	0.385859	0.910050	0.899212
	H84	H	0.620272	0.915896	0.085119
	H85	H	0.385488	0.105700	0.082947
	H86	H	0.614745	0.096945	0.895516
	H87	H	0.390100	0.919745	0.899381
	H88	H	0.908394	0.100038	0.605996
	H89	H	0.094917	0.111422	0.365511
	H90	H	0.091176	0.916452	0.605508
	H91	H	0.912829	0.916406	0.368232
	H92	H	0.102044	0.625251	0.895727
	H93	H	0.093360	0.391922	0.073433
	H94	H	0.900104	0.628205	0.078213
	H95	H	0.905935	0.392812	0.906048
	H96	H	0.398008	0.126212	0.565783
	H97	H	0.590775	0.894463	0.573516
	H98	H	0.601030	0.125727	0.397374
	H99	H	0.407185	0.891380	0.396387
	H100	H	0.596913	0.412669	0.109364
	H101	H	0.598265	0.606691	0.867067
	H102	H	0.404397	0.595501	0.104966
	H103	H	0.420379	0.419985	0.872618
	H104	H	0.115246	0.595386	0.396965
	H105	H	0.885210	0.609057	0.580955
	H106	H	0.116363	0.418125	0.575231
	H107	H	0.885587	0.417464	0.385313
	H108	H	0.912502	0.626601	0.085900
	H109	H	0.099265	0.389281	0.077333
	H110	H	0.096614	0.625565	0.890195
	H111	H	0.902946	0.386910	0.890688
	H112	H	0.094201	0.916947	0.607272
	H113	H	0.107964	0.095747	0.365907
	H114	H	0.907640	0.101195	0.605315
	H115	H	0.910051	0.918832	0.368209
	H116	H	0.619267	0.103227	0.886210
	H117	H	0.388166	0.100891	0.080821
	H118	H	0.619928	0.908498	0.076379
	H119	H	0.385682	0.915757	0.890212
	C120	C	0.378847	0.018088	0.609804
	C121	C	0.623126	1.000444	0.606140
	C122	C	0.626737	0.017686	0.364217
	C123	C	0.382353	1.001056	0.368211
	C124	C	0.622567	0.388817	-0.003548
	C125	C	0.624525	0.630440	0.977676
	C126	C	0.381058	0.629176	-0.003355
	C127	C	0.380805	0.387558	0.978146
	C128	C	0.011341	0.631992	0.363657
	C129	C	0.994572	0.630944	0.608418
	C130	C	0.010566	0.385908	0.607878
	C131	C	0.994750	0.385941	0.364269
	C132	C	0.879092	0.517041	0.108989
	C133	C	0.123535	0.499087	0.106325
	C134	C	0.126260	0.516187	0.864265
	C135	C	0.881373	0.499555	0.866794
	C136	C	0.123467	0.888460	0.496809
	C137	C	0.123970	0.130103	0.477891
	C138	C	0.880944	0.129915	0.495965
	C139	C	0.880974	0.887766	0.477658
	C140	C	0.509782	0.131776	0.865179
	C141	C	0.494183	0.131039	0.110228
	C142	C	0.511366	0.885729	0.109698
	C143	C	0.494395	0.886629	0.865401
	C144	C	0.382933	0.893958	0.664786
	C145	C	0.619390	0.124591	0.661299
	C146	C	0.622743	0.893322	0.310102
	C147	C	0.387856	0.125266	0.313416
	C148	C	0.680432	0.388195	0.872524
	C149	C	0.678584	0.629805	0.102075
	C150	C	0.327676	0.628537	0.872033
	C151	C	0.322739	0.387150	0.102130
	C152	C	0.889489	0.687141	0.367368
	C153	C	0.116520	0.687191	0.605470
	C154	C	0.888250	0.331030	0.607555
	C155	C	0.116640	0.330377	0.364553
	C156	C	0.888559	0.388945	0.665387
	C157	C	0.116924	0.627684	0.661993
	C158	C	0.888686	0.627322	0.311161
	C159	C	0.117141	0.389235	0.307668
	C160	C	0.385731	0.684392	0.871753
	C161	C	0.620105	0.685193	0.102816
	C162	C	0.621844	0.332883	0.872346
	C163	C	0.381050	0.332545	0.103256
	C164	C	0.682968	0.894950	0.364358
	C165	C	0.679239	0.123591	0.606335
	C166	C	0.322351	0.895176	0.610869
	C167	C	0.326709	0.124131	0.367871
	C168	C	0.882506	0.393163	0.164453
	C169	C	0.119794	0.623727	0.159935
	C170	C	0.122080	0.392250	0.809028
	C171	C	0.886004	0.623757	0.811850
	C172	C	0.182002	0.888720	0.373006
	C173	C	0.177394	0.130449	0.602788
	C174	C	0.827460	0.129132	0.371447
	C175	C	0.822883	0.887549	0.601344
	C176	C	0.387780	0.186707	0.869634
	C177	C	0.616477	0.187097	0.106131
	C178	C	0.388804	0.830806	0.109550
	C179	C	0.616095	0.831092	0.865048
	C180	C	0.389170	0.888814	0.167374
	C181	C	0.617776	0.127007	0.162055
	C182	C	0.387479	0.128700	0.811321
	C183	C	0.616570	0.890112	0.808031
	C184	C	0.885800	0.184125	0.370558
	C185	C	0.118707	0.185230	0.602729
	C186	C	0.123156	0.834241	0.371522
	C187	C	0.880909	0.831536	0.601957
	C188	C	0.182951	0.393420	0.863535
	C189	C	0.179792	0.622167	0.106281
	C190	C	0.822231	0.394115	0.109572
	C191	C	0.825925	0.622799	0.866245
	C192	C	0.400670	0.104500	0.586465
	C193	C	0.601358	0.914187	0.583325
	C194	C	0.605009	0.104165	0.387054
	C195	C	0.403622	0.914970	0.391889
	C196	C	0.599294	0.411789	0.083429
	C197	C	0.603177	0.607620	0.891027
	C198	C	0.401719	0.606555	0.083375
	C199	C	0.404170	0.410303	0.891388
	C200	C	0.096856	0.610437	0.384766
	C201	C	0.909314	0.608721	0.586603
	C202	C	0.095726	0.408163	0.583950
	C203	C	0.909561	0.407727	0.387853
	C204	C	0.901400	0.603246	0.085572
	C205	C	0.101680	0.412888	0.083770
	C206	C	0.104367	0.602319	0.887750
	C207	C	0.902744	0.413076	0.890291
	C208	C	0.099729	0.911004	0.583428
	C209	C	0.103280	0.106742	0.391085
	C210	C	0.901283	0.107320	0.582867
	C211	C	0.905121	0.911260	0.391194
	C212	C	0.594944	0.109489	0.886466
	C213	C	0.409026	0.108938	0.089420
	C214	C	0.596574	0.907867	0.085747
	C215	C	0.409178	0.908672	0.889226
	Zn216	Zn	0.501882	0.009180	0.735634
	Zn217	Zn	0.503834	0.008330	0.238482
	Zn218	Zn	0.751459	0.508785	-0.013146
	Zn219	Zn	0.253749	0.508021	-0.013050
	Zn220	Zn	0.002874	0.761262	0.486883
	Zn221	Zn	0.002068	0.256498	0.486040
	Zn222	Zn	0.003026	0.508211	0.737807
	Zn223	Zn	0.003290	0.508753	0.235011
	Zn224	Zn	0.502274	0.757042	-0.012538
	Zn225	Zn	0.501828	0.261268	-0.011563
	Zn226	Zn	0.753585	0.009160	0.486274
	Zn227	Zn	0.250880	0.009385	0.488754
	N228	N	0.417243	0.971392	0.664308
	N229	N	0.584852	0.047079	0.661065
	N230	N	0.588634	0.970842	0.309933
	N231	N	0.422092	0.047721	0.313752
	N232	N	0.680738	0.422374	0.950737
	N233	N	0.681604	0.596427	0.023446
	N234	N	0.324686	0.594899	0.950597
	N235	N	0.322578	0.420815	0.023552
	N236	N	0.966899	0.690204	0.399233
	N237	N	0.039378	0.689264	0.572680
	N238	N	0.965027	0.329181	0.572278
	N239	N	0.039649	0.328201	0.398990
	N240	N	0.965528	0.422638	0.665505
	N241	N	0.040155	0.593549	0.663924
	N242	N	0.965615	0.593787	0.308822
	N243	N	0.040301	0.423304	0.307442
	N244	N	0.418325	0.684850	0.950237
	N245	N	0.587136	0.685830	0.024479
	N246	N	0.586498	0.333230	0.950479
	N247	N	0.416936	0.332814	0.025194
	N248	N	0.685703	0.973457	0.397176
	N249	N	0.681622	0.045470	0.572823
	N250	N	0.319921	0.973447	0.577271
	N251	N	0.323137	0.045914	0.401314
	N252	N	0.917148	0.470626	0.164319
	N253	N	0.085356	0.546295	0.160172
	N254	N	0.087607	0.469660	0.809340
	N255	N	0.919789	0.546143	0.812177
	N256	N	0.182039	0.921844	0.451775
	N257	N	0.180892	0.096948	0.524098
	N258	N	0.824161	0.096119	0.450295
	N259	N	0.822951	0.921753	0.522970
	N260	N	0.464757	0.188746	0.902372
	N261	N	0.538624	0.190024	0.074985
	N262	N	0.465715	0.828921	0.074315
	N263	N	0.539010	0.828689	0.899784
	N264	N	0.466404	0.921960	0.167778
	N265	N	0.541008	0.092902	0.164550
	N266	N	0.464544	0.095203	0.808354
	N267	N	0.539894	0.924060	0.808303
	N268	N	0.918241	0.184688	0.448915
	N269	N	0.085989	0.185016	0.524271
	N270	N	0.087345	0.833793	0.449450
	N271	N	0.916563	0.831723	0.524048
	N272	N	0.185584	0.471459	0.897289
	N273	N	0.182255	0.543739	0.073523
	N274	N	0.820079	0.472267	0.075774
	N275	N	0.822892	0.544369	0.899781
	O276	O	-0.538059	-0.546293	0.414563
	H277	H	-0.528553	-0.550384	0.413054
	H278	H	-0.548355	-0.548996	0.406175
	O279	O	0.552854	0.501990	0.519486
	H280	H	0.554637	0.504584	0.525941
	H281	H	0.555975	0.504473	0.516421
	O282	O	0.580555	0.589386	0.509428
	H283	H	0.583343	0.584236	0.514029
	H284	H	0.568409	0.593191	0.518456
	O285	O	0.050243	0.977404	0.982064
	H286	H	0.052476	0.974699	0.973997
	H287	H	0.046327	0.976448	0.983830
	O288	O	0.482088	0.507119	0.444490
	H289	H	0.490049	0.505615	0.430845
	H290	H	0.481174	0.495720	0.443664
	O291	O	1.027974	0.915340	0.970188
	H292	H	1.042731	0.916677	0.979355
	H293	H	1.026707	0.912083	0.969620
	O294	O	0.990956	1.005936	0.980834
	H295	H	0.992300	1.008312	0.984645
	H296	H	0.983778	1.004379	0.980448
	O297	O	1.068551	0.002570	1.023715
	H298	H	1.067923	-0.000668	1.031093
	H299	H	1.063538	-0.006808	1.031503
	O300	O	0.556813	0.581546	0.462606
	H301	H	0.555663	0.575995	0.459732
	H302	H	0.552274	0.583503	0.458351
	O303	O	0.951928	-0.011736	0.011685
	H304	H	0.950207	-0.009447	0.018667
	H305	H	0.945550	-0.015802	0.012654
	O306	O	0.069987	0.881521	0.876073
	H307	H	0.062141	0.877293	0.887052
	H308	H	0.078172	0.874978	0.885356
	O309	O	0.423451	0.518667	0.486253
	H310	H	0.426635	0.505684	0.479055
	H311	H	0.422792	0.512998	0.493391
	O312	O	1.055462	-0.009513	0.898415
	H313	H	1.060357	-0.026520	0.892720
	H314	H	1.066143	-0.019381	0.897370
	O315	O	0.511275	0.398514	0.442937
	H316	H	0.520834	0.405984	0.443768
	H317	H	0.513123	0.397030	0.444415
	O318	O	0.016121	-0.042043	0.942078
	H319	H	0.013734	-0.041439	0.944927
	H320	H	0.017458	-0.046317	0.931829
	O321	O	0.963901	1.017659	0.906102
	H322	H	0.962078	1.024654	0.897335
	H323	H	0.964470	1.013879	0.910177
	O324	O	0.512202	0.504235	0.391860
	H325	H	0.512939	0.495642	0.395328
	H326	H	0.513728	0.488792	0.390704
	O327	O	0.533351	0.519037	0.526976
	H328	H	0.532155	0.514498	0.532173
	H329	H	0.540385	0.524587	0.539666
	O330	O	0.922256	0.005935	0.960103
	H331	H	0.927716	0.003057	0.950578
	H332	H	0.926466	0.011484	0.955411
	O333	O	0.885131	0.978450	0.011458
	H334	H	0.884087	0.980362	0.003478
	H335	H	0.880909	0.978000	0.004457
	O336	O	0.504836	0.454636	0.483030
	H337	H	0.504577	0.450870	0.481076
	H338	H	0.514548	0.453970	0.494606
	O339	O	0.535712	0.487625	0.515262
	H340	H	0.538471	0.493160	0.512195
	H341	H	0.541444	0.481000	0.518070
	O342	O	0.384719	1.468730	0.475617
	H343	H	0.379056	1.470168	0.470213
	H344	H	0.379345	1.457341	0.464693
	O345	O	0.011654	-0.024462	0.099360
	H346	H	-0.001107	-0.026322	0.098451
	H347	H	0.007063	-0.022526	0.102162
	O348	O	0.490485	0.566351	0.463365
	H349	H	0.483241	0.565038	0.459250
	H350	H	0.488744	0.570014	0.463408
	O351	O	-0.145790	0.082066	0.900467
	H352	H	-0.145098	0.086079	0.888918
	H353	H	-0.146034	0.067311	0.904028
	O354	O	0.491183	0.455029	0.578155
	H355	H	0.495110	0.445633	0.571535
	H356	H	0.499733	0.464554	0.578896
	O357	O	0.515446	0.482646	0.465072
	H358	H	0.518115	0.490597	0.470558
	H359	H	0.524389	0.479005	0.468255
	O360	O	0.064464	0.018494	0.106899
	H361	H	0.063143	0.026676	0.108977
	H362	H	0.059955	0.027773	0.104730
	O363	O	0.527370	0.574590	0.536380
	H364	H	0.529679	0.583762	0.541816
	H365	H	0.516155	0.578219	0.539842
	O366	O	0.043054	0.024878	0.935769
	H367	H	0.046829	0.029044	0.932197
	H368	H	0.040807	0.026721	0.947549
	O369	O	0.547642	0.617377	0.523604
	H370	H	0.533181	0.625157	0.514271
	H371	H	0.549299	0.617356	0.529110
