data_Molecule from HDF5

_cell_length_a		16.509585
_cell_length_b		16.490254
_cell_length_c		16.612333
_cell_angle_alpha	89.955136
_cell_angle_beta	89.910176
_cell_angle_gamma	89.985998
_symmetry_space_group_name_H-M	'P 1'
_symmetry_Int_Tables_number		1

loop_
	_symmetry_equiv_pos_as_xyz
	x,y,z

loop_
	_atom_site_label
	_atom_site_type_symbol
	_atom_site_fract_x
	_atom_site_fract_y
	_atom_site_fract_z
	H0	H	0.388400	0.853791	0.717422
	H1	H	0.599478	0.168145	0.719193
	H2	H	0.599009	0.855112	0.275613
	H3	H	0.386779	0.168633	0.275700
	H4	H	0.714990	0.405047	0.840147
	H5	H	0.714307	0.614528	0.154589
	H6	H	0.271139	0.617901	0.842715
	H7	H	0.269275	0.404153	0.153301
	H8	H	0.835855	0.732196	0.391849
	H9	H	0.151139	0.730439	0.598040
	H10	H	0.835895	0.289192	0.603783
	H11	H	0.150244	0.290697	0.392882
	H12	H	0.836742	0.404950	0.720550
	H13	H	0.150631	0.617491	0.717455
	H14	H	0.836873	0.618084	0.273373
	H15	H	0.150049	0.405057	0.275146
	H16	H	0.388239	0.734458	0.842693
	H17	H	0.598591	0.732019	0.154385
	H18	H	0.598609	0.288522	0.841103
	H19	H	0.385615	0.288354	0.153631
	H20	H	0.713141	0.854402	0.392662
	H21	H	0.714743	0.168051	0.602436
	H22	H	0.274371	0.852883	0.599496
	H23	H	0.271469	0.169019	0.392973
	H24	H	0.886500	0.353355	0.219645
	H25	H	0.097773	0.667904	0.218238
	H26	H	0.103721	0.357183	0.771044
	H27	H	0.889322	0.668298	0.777298
	H28	H	0.215151	0.905925	0.340866
	H29	H	0.212070	0.114993	0.654108
	H30	H	0.769835	0.118260	0.341203
	H31	H	0.771220	0.907248	0.652212
	H32	H	0.336605	0.232925	0.893497
	H33	H	0.650663	0.232021	0.101717
	H34	H	0.336804	0.789604	0.102906
	H35	H	0.651184	0.792386	0.893870
	H36	H	0.336416	0.905772	0.219326
	H37	H	0.649818	0.117303	0.219014
	H38	H	0.336518	0.118699	0.775022
	H39	H	0.649813	0.907121	0.775767
	H40	H	0.885772	0.235598	0.341568
	H41	H	0.097327	0.233445	0.652864
	H42	H	0.098222	0.789092	0.340794
	H43	H	0.888423	0.790391	0.652161
	H44	H	0.216987	0.355358	0.890378
	H45	H	0.214220	0.668614	0.102144
	H46	H	0.772859	0.352028	0.101515
	H47	H	0.774176	0.668288	0.894944
	H48	H	0.401049	0.125680	0.590292
	H49	H	0.575089	0.902127	0.585186
	H50	H	0.592722	0.128651	0.407999
	H51	H	0.406129	0.899227	0.408064
	H52	H	0.587314	0.430201	0.107561
	H53	H	0.586734	0.596154	0.886139
	H54	H	0.402672	0.602803	0.111013
	H55	H	0.405214	0.423948	0.886995
	H56	H	0.103721	0.600601	0.412781
	H57	H	0.882001	0.597994	0.584794
	H58	H	0.101341	0.429833	0.581697
	H59	H	0.880293	0.420625	0.410125
	H60	H	0.106367	0.424833	0.591019
	H61	H	0.879368	0.598682	0.591146
	H62	H	0.104379	0.593565	0.405155
	H63	H	0.882417	0.426725	0.409893
	H64	H	0.402992	0.595322	0.109019
	H65	H	0.578689	0.602310	0.886537
	H66	H	0.573824	0.420418	0.106270
	H67	H	0.405855	0.422859	0.887056
	H68	H	0.573192	0.125088	0.397723
	H69	H	0.586049	0.898921	0.581336
	H70	H	0.406012	0.123617	0.587113
	H71	H	0.402982	0.899642	0.410069
	H72	H	0.903860	0.620744	0.081179
	H73	H	0.083420	0.400184	0.078889
	H74	H	0.086141	0.624994	0.911739
	H75	H	0.903684	0.397569	0.907818
	H76	H	0.083106	0.912807	0.612097
	H77	H	0.089454	0.101053	0.382774
	H78	H	0.904624	0.099117	0.606943
	H79	H	0.902229	0.918453	0.382658
	H80	H	0.606897	0.107222	0.911726
	H81	H	0.382221	0.094117	0.089264
	H82	H	0.607560	0.925819	0.094888
	H83	H	0.382997	0.928596	0.908844
	H84	H	0.607557	0.915762	0.085047
	H85	H	0.378007	0.104404	0.091508
	H86	H	0.601445	0.092329	0.912793
	H87	H	0.378648	0.922154	0.904372
	H88	H	0.904514	0.100807	0.608057
	H89	H	0.079068	0.092918	0.388432
	H90	H	0.089606	0.926030	0.608892
	H91	H	0.901153	0.926226	0.384304
	H92	H	0.081724	0.625542	0.902189
	H93	H	0.084638	0.396636	0.089753
	H94	H	0.900923	0.624892	0.088402
	H95	H	0.906182	0.397063	0.905926
	H96	H	0.400439	0.125008	0.583880
	H97	H	0.582071	0.895972	0.592312
	H98	H	0.575697	0.119155	0.419004
	H99	H	0.403298	0.898419	0.406847
	H100	H	0.588258	0.414360	0.112625
	H101	H	0.587248	0.606040	0.883241
	H102	H	0.409567	0.599945	0.108091
	H103	H	0.405059	0.422831	0.887375
	H104	H	0.107296	0.603631	0.403648
	H105	H	0.879363	0.603700	0.586663
	H106	H	0.105313	0.418117	0.581050
	H107	H	0.879704	0.424035	0.404819
	H108	H	0.908863	0.621659	0.088208
	H109	H	0.074692	0.401114	0.086364
	H110	H	0.076754	0.620607	0.910254
	H111	H	0.906803	0.398473	0.908956
	H112	H	0.075624	0.923760	0.605655
	H113	H	0.076268	0.106546	0.384918
	H114	H	0.902687	0.099406	0.608445
	H115	H	0.908128	0.922123	0.385846
	H116	H	0.607176	0.097546	0.898826
	H117	H	0.381772	0.102088	0.080892
	H118	H	0.602591	0.927926	0.082219
	H119	H	0.381334	0.920359	0.912623
	C120	C	0.371165	0.020202	0.618489
	C121	C	0.613810	1.003008	0.618286
	C122	C	0.613473	0.020566	0.376072
	C123	C	0.371173	1.002859	0.375809
	C124	C	0.615288	0.388958	0.005558
	C125	C	0.615749	0.632997	0.989175
	C126	C	0.372468	0.632521	0.006540
	C127	C	0.371611	0.389592	0.989542
	C128	C	0.001557	0.632346	0.374872
	C129	C	0.984522	0.632683	0.618556
	C130	C	0.000896	0.391066	0.617876
	C131	C	0.984643	0.390700	0.375894
	C132	C	0.871856	0.518530	0.118570
	C133	C	0.113599	0.502945	0.117704
	C134	C	0.115254	0.520144	0.875441
	C135	C	0.873200	0.501984	0.876201
	C136	C	0.114844	0.889276	0.505304
	C137	C	0.113485	0.132250	0.488706
	C138	C	0.870606	0.133496	0.505170
	C139	C	0.871746	0.890253	0.487601
	C140	C	0.501658	0.132578	0.875717
	C141	C	0.484660	0.132295	0.118825
	C142	C	0.501951	0.890492	0.119242
	C143	C	0.484836	0.891072	0.876265
	C144	C	0.370208	0.901157	0.677504
	C145	C	0.617378	0.120993	0.678982
	C146	C	0.616519	0.902133	0.316013
	C147	C	0.368416	0.121285	0.315648
	C148	C	0.675203	0.386844	0.887506
	C149	C	0.674383	0.633581	0.107464
	C150	C	0.311808	0.635814	0.889177
	C151	C	0.309889	0.386066	0.106488
	C152	C	0.883234	0.692565	0.372952
	C153	C	0.103523	0.691607	0.618145
	C154	C	0.883051	0.329884	0.621425
	C155	C	0.103080	0.330668	0.374277
	C156	C	0.883386	0.387410	0.679617
	C157	C	0.103185	0.635331	0.677420
	C158	C	0.883750	0.635805	0.314165
	C159	C	0.103031	0.387526	0.315635
	C160	C	0.369955	0.693657	0.889222
	C161	C	0.616857	0.692118	0.107272
	C162	C	0.617319	0.328804	0.887912
	C163	C	0.368187	0.328561	0.106785
	C164	C	0.673480	0.901674	0.373941
	C165	C	0.674657	0.120997	0.620819
	C166	C	0.313315	0.900592	0.618987
	C167	C	0.310988	0.121411	0.373844
	C168	C	0.868858	0.400360	0.179150
	C169	C	0.116213	0.621056	0.178049
	C170	C	0.120424	0.403258	0.812942
	C171	C	0.871178	0.621009	0.817339
	C172	C	0.174781	0.887416	0.387600
	C173	C	0.172487	0.133810	0.606885
	C174	C	0.810048	0.136320	0.387860
	C175	C	0.811705	0.888482	0.605416
	C176	C	0.383467	0.192964	0.874337
	C177	C	0.603325	0.192027	0.120293
	C178	C	0.383861	0.829999	0.121180
	C179	C	0.603483	0.831642	0.874807
	C180	C	0.383513	0.887939	0.178886
	C181	C	0.603024	0.134784	0.178584
	C182	C	0.383669	0.136184	0.815563
	C183	C	0.602914	0.888679	0.816118
	C184	C	0.867805	0.194632	0.388101
	C185	C	0.115405	0.192631	0.606334
	C186	C	0.116657	0.829525	0.387290
	C187	C	0.869786	0.830585	0.605424
	C188	C	0.176695	0.402518	0.872153
	C189	C	0.173924	0.621351	0.120220
	C190	C	0.812241	0.399636	0.120350
	C191	C	0.813755	0.620838	0.875525
	C192	C	0.395363	0.103263	0.594161
	C193	C	0.588250	0.920517	0.593324
	C194	C	0.587995	0.102812	0.401165
	C195	C	0.396699	0.920551	0.401090
	C196	C	0.590189	0.414175	0.087252
	C197	C	0.591242	0.608557	0.906657
	C198	C	0.397850	0.606595	0.087866
	C199	C	0.397988	0.415720	0.908407
	C200	C	0.083676	0.606589	0.400021
	C201	C	0.901854	0.607489	0.594544
	C202	C	0.082931	0.416965	0.592128
	C203	C	0.902237	0.416393	0.400866
	C204	C	0.897035	0.600997	0.093360
	C205	C	0.088078	0.420712	0.092457
	C206	C	0.089004	0.602263	0.900785
	C207	C	0.898307	0.419280	0.900456
	C208	C	0.089770	0.913826	0.587442
	C209	C	0.088763	0.107272	0.406812
	C210	C	0.896471	0.107135	0.586673
	C211	C	0.896704	0.915192	0.405553
	C212	C	0.583799	0.106670	0.900775
	C213	C	0.402089	0.107438	0.094307
	C214	C	0.584538	0.915894	0.094407
	C215	C	0.402335	0.916378	0.901448
	Zn216	Zn	0.492790	0.011867	0.746800
	Zn217	Zn	0.493010	0.011665	0.247942
	Zn218	Zn	0.744012	0.510272	-0.002758
	Zn219	Zn	0.242886	0.511313	-0.002120
	Zn220	Zn	-0.007081	0.760489	0.495924
	Zn221	Zn	-0.007225	0.261975	0.496900
	Zn222	Zn	-0.005983	0.511269	0.747333
	Zn223	Zn	-0.007094	0.510521	0.246930
	Zn224	Zn	0.493914	0.762212	-0.002055
	Zn225	Zn	0.493167	0.260361	-0.002232
	Zn226	Zn	0.741783	0.011376	0.496341
	Zn227	Zn	0.243077	0.011355	0.497060
	N228	N	0.405194	0.976806	0.677839
	N229	N	0.580317	0.046455	0.677566
	N230	N	0.580084	0.976993	0.317057
	N231	N	0.404943	0.046438	0.316587
	N232	N	0.674311	0.423248	0.961760
	N233	N	0.673945	0.597639	0.032984
	N234	N	0.313308	0.598437	0.963043
	N235	N	0.311757	0.423144	0.032600
	N236	N	0.957373	0.690390	0.410043
	N237	N	0.028570	0.690385	0.582378
	N238	N	0.957128	0.332146	0.583538
	N239	N	0.028419	0.332334	0.410695
	N240	N	0.957766	0.424575	0.677689
	N241	N	0.027999	0.599767	0.678101
	N242	N	0.958368	0.599081	0.315140
	N243	N	0.028019	0.423721	0.316260
	N244	N	0.406800	0.692031	0.963224
	N245	N	0.581402	0.692118	0.032365
	N246	N	0.580884	0.329790	0.962319
	N247	N	0.405790	0.330323	0.032878
	N248	N	0.671963	0.976420	0.410481
	N249	N	0.672550	0.046621	0.583713
	N250	N	0.313796	0.975607	0.583086
	N251	N	0.312269	0.046586	0.410132
	N252	N	0.904973	0.475335	0.178314
	N253	N	0.079305	0.546512	0.176444
	N254	N	0.082894	0.477442	0.814996
	N255	N	0.907316	0.546076	0.817547
	N256	N	0.173621	0.923779	0.461889
	N257	N	0.171552	0.097073	0.532745
	N258	N	0.811761	0.099076	0.461647
	N259	N	0.812690	0.924653	0.531065
	N260	N	0.457824	0.190782	0.911056
	N261	N	0.528641	0.190825	0.083997
	N262	N	0.458514	0.831666	0.084705
	N263	N	0.528901	0.832921	0.911455
	N264	N	0.458053	0.924723	0.177788
	N265	N	0.528186	0.098565	0.177857
	N266	N	0.458152	0.099238	0.816361
	N267	N	0.528057	0.924959	0.816953
	N268	N	0.904480	0.193171	0.462278
	N269	N	0.079449	0.191840	0.531822
	N270	N	0.080143	0.830441	0.461591
	N271	N	0.906138	0.831230	0.531035
	N272	N	0.173572	0.476226	0.910423
	N273	N	0.172319	0.546918	0.083302
	N274	N	0.814036	0.474199	0.083303
	N275	N	0.814811	0.545901	0.911500
	O276	O	1.215860	0.950138	-0.194589
	H277	H	1.250942	0.944030	-0.228339
	H278	H	1.207807	0.907511	-0.189284
	O279	O	-0.207241	0.053045	0.862504
	H280	H	-0.210830	0.044651	0.881273
	H281	H	-0.203163	0.043319	0.854572
	O282	O	0.754169	0.833587	0.824688
	H283	H	0.765820	0.830187	0.824517
	H284	H	0.766173	0.846349	0.840220
	O285	O	0.536188	0.505156	0.397937
	H286	H	0.520096	0.500081	0.399127
	H287	H	0.540254	0.502408	0.390428
	O288	O	1.377104	-0.339394	1.327294
	H289	H	1.366283	-0.324412	1.343401
	H290	H	1.366615	-0.343176	1.338016
	O291	O	0.491546	0.626634	0.721804
	H292	H	0.499148	0.645345	0.729379
	H293	H	0.502679	0.619512	0.717808
	O294	O	-0.121416	-0.021725	0.214467
	H295	H	-0.130539	-0.016584	0.226604
	H296	H	-0.114898	-0.020419	0.206474
	O297	O	0.796220	0.093310	0.167225
	H298	H	0.800224	0.095414	0.169113
	H299	H	0.794969	0.087300	0.156315
	O300	O	0.207841	-0.162490	-0.027225
	H301	H	0.232520	-0.174703	-0.028184
	H302	H	0.198543	-0.152404	-0.026089
	O303	O	-0.131115	-0.187476	0.171003
	H304	H	-0.144522	-0.174964	0.175036
	H305	H	-0.099584	-0.189955	0.173438
	O306	O	0.867895	-0.091684	0.015267
	H307	H	0.852410	-0.099616	0.032626
	H308	H	0.863354	-0.096168	0.036581
	O309	O	0.690064	0.314840	0.300147
	H310	H	0.676970	0.310184	0.331070
	H311	H	0.663748	0.324511	0.290116
	O312	O	0.402799	0.387513	0.501833
	H313	H	0.411034	0.394915	0.494223
	H314	H	0.392289	0.397269	0.517440
	O315	O	0.666132	0.672780	0.283017
	H316	H	0.667872	0.660322	0.293562
	H317	H	0.685652	0.685331	0.275394
	O318	O	0.914991	1.005708	0.006054
	H319	H	0.918462	1.011352	0.006603
	H320	H	0.916063	1.021461	-0.005352
	O321	O	0.021592	0.867818	1.046621
	H322	H	0.021116	0.872174	1.044619
	H323	H	0.021722	0.876585	1.033676
	O324	O	0.947663	-0.100774	1.141973
	H325	H	0.950594	-0.085036	1.157601
	H326	H	0.925920	-0.112930	1.142097
	O327	O	1.498898	0.662049	0.628322
	H328	H	1.494571	0.676457	0.627455
	H329	H	1.518400	0.664820	0.621847
	O330	O	0.641855	0.454173	0.382475
	H331	H	0.646966	0.444428	0.378867
	H332	H	0.650841	0.441643	0.360800
	O333	O	0.281696	0.299314	0.519754
	H334	H	0.271433	0.283629	0.539516
	H335	H	0.276043	0.304611	0.540904
	O336	O	0.711049	0.725233	0.524090
	H337	H	0.724389	0.732149	0.535507
	H338	H	0.722330	0.726951	0.528649
	O339	O	0.410600	0.533653	0.556045
	H340	H	0.420355	0.526352	0.557000
	H341	H	0.421416	0.533245	0.561416
	O342	O	0.117841	1.174040	-0.009735
	H343	H	0.123271	1.171072	-0.009139
	H344	H	0.117886	1.185122	-0.015624
	O345	O	0.074094	0.227404	0.133824
	H346	H	0.102936	0.219440	0.121863
	H347	H	0.073774	0.257039	0.155082
	O348	O	0.652963	0.684208	0.643889
	H349	H	0.653121	0.667534	0.641455
	H350	H	0.666283	0.695496	0.660239
	O351	O	0.209626	0.039213	1.211153
	H352	H	0.212535	0.052310	1.216969
	H353	H	0.213127	0.033897	1.227178
	O354	O	0.970600	0.216844	1.117778
	H355	H	0.967584	0.220047	1.134531
	H356	H	0.970749	0.224423	1.119478
	O357	O	0.536764	0.581565	0.581460
	H358	H	0.554695	0.594651	0.585724
	H359	H	0.542165	0.591824	0.571953
	O360	O	0.281604	0.541746	0.287449
	H361	H	0.275970	0.561505	0.304152
	H362	H	0.264453	0.551233	0.268639
	O363	O	0.689383	0.314365	0.466608
	H364	H	0.698001	0.291732	0.467238
	H365	H	0.694171	0.325417	0.463366
	O366	O	0.775369	0.229122	0.959166
	H367	H	0.754941	0.250456	0.951829
	H368	H	0.775353	0.229946	0.956181
	O369	O	0.167610	0.162367	0.829459
	H370	H	0.159650	0.146976	0.844312
	H371	H	0.146560	0.156372	0.827448
	O372	O	0.223480	0.725436	0.713467
	H373	H	0.228064	0.695105	0.691914
	H374	H	0.236310	0.714533	0.712271
	O375	O	1.188592	0.204583	0.193272
	H376	H	1.181690	0.216402	0.175833
	H377	H	1.193920	0.178861	0.173755
	O378	O	0.095696	-0.032791	1.099017
	H379	H	0.094075	-0.022083	1.089828
	H380	H	0.073098	-0.031476	1.091013
	O381	O	0.063446	1.014670	0.105845
	H382	H	0.069361	1.023683	0.102704
	H383	H	0.066538	1.019765	0.106465
	O384	O	0.444744	0.405414	0.338230
	H385	H	0.439270	0.406712	0.325262
	H386	H	0.433450	0.418018	0.337709
	O387	O	0.180355	0.803218	1.198322
	H388	H	0.153374	0.819074	1.178446
	H389	H	0.181580	0.817303	1.199359
	O390	O	-0.101874	1.124178	1.035431
	H391	H	-0.121844	1.121672	1.036688
	H392	H	-0.119824	1.138315	1.039807
	O393	O	1.214850	-0.038982	0.040508
	H394	H	1.209228	-0.042092	0.039165
	H395	H	1.222788	-0.020763	0.051970
	O396	O	0.462585	0.520116	0.362346
	H397	H	0.454793	0.518513	0.365589
	H398	H	0.464113	0.532743	0.363832
	O399	O	0.525995	0.295214	0.282136
	H400	H	0.512160	0.288817	0.269545
	H401	H	0.509037	0.302404	0.263521
	O402	O	0.822420	0.191050	0.824837
	H403	H	0.834663	0.176030	0.836913
	H404	H	0.794276	0.197313	0.812234
	O405	O	0.460435	0.305822	0.703778
	H406	H	0.461436	0.312646	0.707195
	H407	H	0.463628	0.287693	0.703583
	O408	O	0.911468	1.036619	0.792493
	H409	H	0.914236	1.042785	0.791353
	H410	H	0.898893	1.040587	0.783850
	O411	O	0.838153	0.997864	-0.026655
	H412	H	0.838492	0.999313	-0.020341
	H413	H	0.839928	1.005140	-0.025445
	O414	O	0.053839	-0.099590	0.014439
	H415	H	0.061748	-0.101832	0.012252
	H416	H	0.045982	-0.103404	0.010823
	O417	O	0.457028	0.473529	0.530318
	H418	H	0.463864	0.463254	0.521799
	H419	H	0.457280	0.473564	0.536488
	O420	O	1.007244	-0.008729	0.779238
	H421	H	1.022018	-0.019292	0.777523
	H422	H	1.033136	-0.008046	0.773085
	O423	O	0.852043	0.853845	-0.141424
	H424	H	0.843969	0.861101	-0.127310
	H425	H	0.857966	0.876664	-0.132912
	O426	O	0.472584	0.723706	0.302799
	H427	H	0.460315	0.736806	0.282407
	H428	H	0.444116	0.726508	0.301723
	O429	O	0.489665	0.344211	0.495396
	H430	H	0.479367	0.348921	0.493015
	H431	H	0.489528	0.351019	0.488058
	O432	O	0.914047	0.159077	1.126743
	H433	H	0.899409	0.171336	1.118070
	H434	H	0.937091	0.156500	1.135615
	O435	O	0.335172	0.676846	0.432047
	H436	H	0.327021	0.659149	0.442907
	H437	H	0.324416	0.690630	0.437554
	O438	O	0.543972	0.447065	0.671884
	H439	H	0.532507	0.450007	0.667701
	H440	H	0.540789	0.440220	0.679965
	O441	O	0.704062	0.568121	0.321387
	H442	H	0.714978	0.556064	0.323945
	H443	H	0.691199	0.556606	0.323230
	O444	O	0.501435	0.555430	0.362136
	H445	H	0.517748	0.568963	0.358497
	H446	H	0.490649	0.559703	0.353871
	O447	O	0.569324	0.392923	0.611271
	H448	H	0.565769	0.400326	0.600257
	H449	H	0.555470	0.399819	0.598662
	O450	O	1.195526	-0.182498	-0.202963
	H451	H	1.164282	-0.189627	-0.203852
	H452	H	1.215819	-0.204302	-0.204363
	O453	O	0.288999	0.310372	0.696886
	H454	H	0.276607	0.292801	0.721384
	H455	H	0.310580	0.324102	0.702678
	O456	O	0.001278	0.796118	0.818733
	H457	H	-0.008966	0.787812	0.830383
	H458	H	0.007105	0.791726	0.819147
	O459	O	0.699153	0.514667	0.707861
	H460	H	0.697214	0.526240	0.717235
	H461	H	0.707149	0.517465	0.700664
	O462	O	0.716886	0.508355	0.540814
	H463	H	0.710129	0.499419	0.544558
	H464	H	0.713601	0.512127	0.545741
	O465	O	0.456366	0.724710	0.538692
	H466	H	0.470206	0.731228	0.523000
	H467	H	0.463486	0.730816	0.529771
	O468	O	0.155416	1.050486	-0.133606
	H469	H	0.138066	1.048935	-0.126029
	H470	H	0.174834	1.028803	-0.147483
	O471	O	0.300606	0.501092	0.707408
	H472	H	0.303348	0.499923	0.723601
	H473	H	0.296135	0.496402	0.713283
	O474	O	0.927309	1.153678	-0.139186
	H475	H	0.910589	1.150802	-0.134617
	H476	H	0.920971	1.158606	-0.136597
	O477	O	0.290551	0.522884	0.466999
	H478	H	0.294056	0.519346	0.470459
	H479	H	0.286550	0.500492	0.481058
