data_Molecule from HDF5

_cell_length_a		16.286608
_cell_length_b		16.273715
_cell_length_c		16.293437
_cell_angle_alpha	89.951591
_cell_angle_beta	89.960541
_cell_angle_gamma	90.011979
_symmetry_space_group_name_H-M	'P 1'
_symmetry_Int_Tables_number		1

loop_
	_symmetry_equiv_pos_as_xyz
	x,y,z

loop_
	_atom_site_label
	_atom_site_type_symbol
	_atom_site_fract_x
	_atom_site_fract_y
	_atom_site_fract_z
	H0	H	0.395068	0.829447	0.707597
	H1	H	0.591795	0.157223	0.709510
	H2	H	0.589355	0.828903	0.280746
	H3	H	0.393953	0.157373	0.280029
	H4	H	0.705239	0.395308	0.830273
	H5	H	0.705292	0.591360	0.157278
	H6	H	0.277403	0.591292	0.830217
	H7	H	0.276495	0.395519	0.157832
	H8	H	0.827888	0.707975	0.396029
	H9	H	0.155399	0.707472	0.590670
	H10	H	0.827939	0.278489	0.591603
	H11	H	0.155989	0.279277	0.395395
	H12	H	0.827638	0.394830	0.707882
	H13	H	0.155380	0.591364	0.707534
	H14	H	0.827402	0.590988	0.280344
	H15	H	0.155411	0.395578	0.279546
	H16	H	0.393205	0.707980	0.830036
	H17	H	0.588510	0.705829	0.157779
	H18	H	0.588688	0.279540	0.830434
	H19	H	0.391161	0.277544	0.157383
	H20	H	0.704858	0.828632	0.398101
	H21	H	0.707654	0.156959	0.592699
	H22	H	0.278677	0.829290	0.591625
	H23	H	0.278624	0.157351	0.396890
	H24	H	0.892951	0.328616	0.207904
	H25	H	0.089817	0.657210	0.207945
	H26	H	0.089890	0.328534	0.780392
	H27	H	0.892771	0.656303	0.778707
	H28	H	0.206727	0.895080	0.330279
	H29	H	0.206276	0.090446	0.657859
	H30	H	0.777501	0.092170	0.330208
	H31	H	0.777368	0.893632	0.657803
	H32	H	0.327315	0.207087	0.896010
	H33	H	0.654923	0.208091	0.092063
	H34	H	0.327550	0.779640	0.091927
	H35	H	0.655071	0.779270	0.896192
	H36	H	0.328317	0.894140	0.209552
	H37	H	0.655553	0.091793	0.208044
	H38	H	0.327570	0.090674	0.780374
	H39	H	0.655053	0.895230	0.780065
	H40	H	0.894935	0.206706	0.329972
	H41	H	0.091232	0.207354	0.657843
	H42	H	0.090114	0.779492	0.330248
	H43	H	0.893998	0.779409	0.657799
	H44	H	0.206371	0.329889	0.895768
	H45	H	0.205218	0.657463	0.091395
	H46	H	0.776376	0.329332	0.092151
	H47	H	0.777613	0.657247	0.895126
	H48	H	0.406958	0.106842	0.586766
	H49	H	0.585105	0.877173	0.587554
	H50	H	0.590112	0.110882	0.402809
	H51	H	0.403891	0.879284	0.407827
	H52	H	0.583750	0.399060	0.110210
	H53	H	0.590737	0.583851	0.876190
	H54	H	0.403478	0.590065	0.109622
	H55	H	0.405134	0.397333	0.879285
	H56	H	0.106368	0.579898	0.399210
	H57	H	0.875350	0.590702	0.582053
	H58	H	0.105936	0.401807	0.581345
	H59	H	0.871023	0.396211	0.391098
	H60	H	0.108654	0.403588	0.592076
	H61	H	0.878185	0.579727	0.585359
	H62	H	0.110801	0.590561	0.393598
	H63	H	0.876060	0.391921	0.407438
	H64	H	0.391457	0.590072	0.113039
	H65	H	0.580003	0.584227	0.879927
	H66	H	0.585735	0.400898	0.110813
	H67	H	0.392671	0.394812	0.874173
	H68	H	0.585159	0.110568	0.395937
	H69	H	0.585894	0.876983	0.587530
	H70	H	0.393803	0.110019	0.580391
	H71	H	0.391100	0.874232	0.401940
	H72	H	0.890512	0.614167	0.094833
	H73	H	0.087349	0.375995	0.088893
	H74	H	0.075065	0.606199	0.902091
	H75	H	0.897805	0.375926	0.899458
	H76	H	0.093840	0.900330	0.612382
	H77	H	0.071935	0.082922	0.382660
	H78	H	0.906425	0.092525	0.610262
	H79	H	0.892409	0.898605	0.376491
	H80	H	0.607974	0.085979	0.899326
	H81	H	0.373059	0.081635	0.098791
	H82	H	0.607920	0.898904	0.085368
	H83	H	0.372040	0.899640	0.891279
	H84	H	0.607256	0.901770	0.086567
	H85	H	0.372317	0.096982	0.084207
	H86	H	0.608327	0.089554	0.902078
	H87	H	0.373387	0.891355	0.905639
	H88	H	0.890876	0.087905	0.613891
	H89	H	0.088728	0.100496	0.372337
	H90	H	0.081259	0.907420	0.606861
	H91	H	0.900142	0.905867	0.379673
	H92	H	0.091308	0.609520	0.906074
	H93	H	0.080702	0.377305	0.089708
	H94	H	0.910350	0.607038	0.091085
	H95	H	0.900014	0.377817	0.901163
	H96	H	0.396278	0.112997	0.594409
	H97	H	0.585306	0.877678	0.588419
	H98	H	0.582418	0.108522	0.403222
	H99	H	0.403379	0.876094	0.393216
	H100	H	0.583132	0.401687	0.110382
	H101	H	0.584555	0.593184	0.875256
	H102	H	0.396373	0.579640	0.108686
	H103	H	0.395978	0.407022	0.879306
	H104	H	0.107439	0.590601	0.406118
	H105	H	0.872636	0.587442	0.592674
	H106	H	0.110080	0.393555	0.587047
	H107	H	0.878512	0.408523	0.402015
	H108	H	0.895997	0.606184	0.075696
	H109	H	0.083648	0.377711	0.083384
	H110	H	0.085606	0.613337	0.890721
	H111	H	0.896951	0.376628	0.902250
	H112	H	0.081004	0.892815	0.611596
	H113	H	0.096597	0.075665	0.377405
	H114	H	0.902092	0.076782	0.606090
	H115	H	0.902910	0.895243	0.377220
	H116	H	0.607104	0.085616	0.903523
	H117	H	0.380091	0.078158	0.078820
	H118	H	0.608945	0.899481	0.088842
	H119	H	0.378035	0.907825	0.904909
	C120	C	0.370861	0.001740	0.615394
	C121	C	0.614243	0.985358	0.616271
	C122	C	0.613915	0.001596	0.372600
	C123	C	0.370911	0.984993	0.372777
	C124	C	0.612427	0.372038	0.002280
	C125	C	0.613193	0.615130	0.985350
	C126	C	0.369651	0.614885	0.002106
	C127	C	0.369538	0.371665	0.985793
	C128	C	-0.000159	0.615165	0.371812
	C129	C	0.983719	0.614524	0.615019
	C130	C	0.000106	0.370958	0.615460
	C131	C	0.983677	0.371302	0.372137
	C132	C	0.869505	0.501023	0.115860
	C133	C	0.112577	0.485088	0.115335
	C134	C	0.112847	0.501636	0.871684
	C135	C	0.870100	0.484951	0.872592
	C136	C	0.113650	0.871641	0.502094
	C137	C	0.114115	0.114515	0.485614
	C138	C	0.871037	0.114152	0.502040
	C139	C	0.870180	0.871493	0.485996
	C140	C	0.499562	0.115361	0.872862
	C141	C	0.483193	0.114523	0.115488
	C142	C	0.499699	0.871430	0.115817
	C143	C	0.483001	0.871839	0.872701
	C144	C	0.374202	0.878201	0.669723
	C145	C	0.612045	0.108316	0.671571
	C146	C	0.610594	0.877806	0.318540
	C147	C	0.373574	0.108513	0.317909
	C148	C	0.667127	0.374619	0.879054
	C149	C	0.667565	0.611997	0.108604
	C150	C	0.315236	0.612127	0.878738
	C151	C	0.314506	0.374563	0.109040
	C152	C	0.876588	0.669829	0.375349
	C153	C	0.106609	0.669525	0.611640
	C154	C	0.876690	0.316319	0.612408
	C155	C	0.107111	0.317302	0.375234
	C156	C	0.876613	0.373814	0.670386
	C157	C	0.106695	0.611687	0.669623
	C158	C	0.876262	0.611487	0.318201
	C159	C	0.106822	0.374859	0.317554
	C160	C	0.372661	0.669862	0.878842
	C161	C	0.609576	0.668990	0.108715
	C162	C	0.609204	0.317259	0.879127
	C163	C	0.371696	0.316476	0.108911
	C164	C	0.667808	0.877651	0.376640
	C165	C	0.669431	0.108410	0.613412
	C166	C	0.316367	0.878207	0.612356
	C167	C	0.316400	0.108696	0.375826
	C168	C	0.872092	0.377724	0.170487
	C169	C	0.110091	0.608462	0.169814
	C170	C	0.110340	0.377647	0.817616
	C171	C	0.872447	0.607828	0.817002
	C172	C	0.168867	0.874252	0.379062
	C173	C	0.168783	0.111463	0.609066
	C174	C	0.815852	0.112096	0.378873
	C175	C	0.815398	0.873904	0.609028
	C176	C	0.376315	0.169553	0.875564
	C177	C	0.606132	0.170237	0.112908
	C178	C	0.376577	0.816887	0.113222
	C179	C	0.606350	0.817253	0.875587
	C180	C	0.376966	0.873795	0.171465
	C181	C	0.606550	0.112382	0.170402
	C182	C	0.376422	0.111786	0.818066
	C183	C	0.606065	0.874759	0.817783
	C184	C	0.873981	0.169188	0.378809
	C185	C	0.111548	0.169320	0.608992
	C186	C	0.110585	0.817114	0.379009
	C187	C	0.873111	0.816821	0.609130
	C188	C	0.167949	0.378228	0.875197
	C189	C	0.167219	0.608559	0.111783
	C190	C	0.814417	0.377970	0.112780
	C191	C	0.815353	0.608284	0.874980
	C192	C	0.392533	0.087806	0.593574
	C193	C	0.592054	0.899245	0.594225
	C194	C	0.592409	0.087633	0.394142
	C195	C	0.392835	0.898942	0.394680
	C196	C	0.590698	0.394199	0.088238
	C197	C	0.591575	0.593450	0.899169
	C198	C	0.390884	0.593120	0.088196
	C199	C	0.391331	0.393578	0.899916
	C200	C	0.085900	0.593659	0.393396
	C201	C	0.897384	0.592454	0.593076
	C202	C	0.086083	0.393167	0.593571
	C203	C	0.897430	0.392598	0.393901
	C204	C	0.892220	0.586951	0.093650
	C205	C	0.090720	0.399189	0.093662
	C206	C	0.090500	0.587586	0.893094
	C207	C	0.891762	0.398964	0.894566
	C208	C	0.091746	0.893616	0.588213
	C209	C	0.092309	0.092690	0.399693
	C210	C	0.893085	0.092020	0.587849
	C211	C	0.892112	0.893387	0.399963
	C212	C	0.585569	0.093513	0.895167
	C213	C	0.397422	0.092217	0.093674
	C214	C	0.585785	0.893581	0.093603
	C215	C	0.396802	0.893281	0.894300
	Zn216	Zn	0.491875	-0.006218	0.744173
	Zn217	Zn	0.492181	-0.006988	0.244007
	Zn218	Zn	0.741349	0.493625	-0.006293
	Zn219	Zn	0.241072	0.493564	-0.006174
	Zn220	Zn	-0.008379	0.743603	0.493591
	Zn221	Zn	-0.007696	0.242796	0.494067
	Zn222	Zn	-0.008624	0.492636	0.743660
	Zn223	Zn	-0.008522	0.492892	0.243917
	Zn224	Zn	0.491540	0.743039	-0.005863
	Zn225	Zn	0.491013	0.243594	-0.005619
	Zn226	Zn	0.742331	-0.006650	0.494340
	Zn227	Zn	0.242389	-0.006779	0.493742
	N228	N	0.407342	0.955874	0.671703
	N229	N	0.578395	0.030700	0.673325
	N230	N	0.577778	0.955586	0.315937
	N231	N	0.406743	0.030656	0.315889
	N232	N	0.669367	0.407900	0.956555
	N233	N	0.669942	0.579271	0.030875
	N234	N	0.313098	0.578715	0.956237
	N235	N	0.312837	0.408129	0.031409
	N236	N	0.954337	0.671989	0.408126
	N237	N	0.028887	0.671278	0.578657
	N238	N	0.954354	0.314357	0.579298
	N239	N	0.029480	0.315071	0.408524
	N240	N	0.954300	0.407303	0.672077
	N241	N	0.029244	0.578001	0.671527
	N242	N	0.953911	0.578136	0.315961
	N243	N	0.029003	0.407547	0.315389
	N244	N	0.405693	0.671669	0.956560
	N245	N	0.576503	0.670956	0.031078
	N246	N	0.575980	0.315520	0.956864
	N247	N	0.404933	0.314573	0.031459
	N248	N	0.670055	0.955597	0.409557
	N249	N	0.670871	0.030844	0.579913
	N250	N	0.314172	0.956169	0.579178
	N251	N	0.314647	0.031108	0.409161
	N252	N	0.905585	0.455353	0.172551
	N253	N	0.076963	0.530704	0.172306
	N254	N	0.076702	0.455262	0.815272
	N255	N	0.905866	0.530259	0.815362
	N256	N	0.170747	0.907498	0.456646
	N257	N	0.170682	0.078256	0.531415
	N258	N	0.813764	0.078740	0.456467
	N259	N	0.813602	0.907389	0.531446
	N260	N	0.453825	0.171742	0.908917
	N261	N	0.528548	0.171716	0.079653
	N262	N	0.453926	0.815453	0.079239
	N263	N	0.528791	0.815407	0.909195
	N264	N	0.454714	0.906947	0.173063
	N265	N	0.529092	0.078234	0.172190
	N266	N	0.454198	0.078525	0.816391
	N267	N	0.528489	0.907984	0.815855
	N268	N	0.907631	0.170482	0.456268
	N269	N	0.078199	0.171470	0.531345
	N270	N	0.076893	0.815559	0.456597
	N271	N	0.906516	0.815221	0.531638
	N272	N	0.169626	0.456068	0.908165
	N273	N	0.168803	0.530867	0.078640
	N274	N	0.812710	0.455650	0.079532
	N275	N	0.813606	0.530842	0.908663
	O276	O	0.940618	-0.001909	1.035342
	H277	H	0.946437	0.004705	1.046878
	H278	H	0.928301	-0.003043	1.033106
	O279	O	0.941446	1.002487	1.015307
	H280	H	0.936743	0.996980	1.016103
	H281	H	0.941276	1.001100	1.007851
	O282	O	0.934667	0.985622	0.000092
	H283	H	0.932793	0.987901	-0.001985
	H284	H	0.934304	0.981547	0.000662
	O285	O	0.952869	0.993576	1.008052
	H286	H	0.948869	0.996271	1.009466
	H287	H	0.960164	0.998272	1.007734
