data_Molecule from HDF5

_cell_length_a		16.256991
_cell_length_b		16.396859
_cell_length_c		16.293407
_cell_angle_alpha	89.864554
_cell_angle_beta	90.235280
_cell_angle_gamma	90.095863
_symmetry_space_group_name_H-M	'P 1'
_symmetry_Int_Tables_number		1

loop_
	_symmetry_equiv_pos_as_xyz
	x,y,z

loop_
	_atom_site_label
	_atom_site_type_symbol
	_atom_site_fract_x
	_atom_site_fract_y
	_atom_site_fract_z
	H0	H	0.389505	0.823173	0.721005
	H1	H	0.595284	0.145267	0.720929
	H2	H	0.594109	0.822892	0.287081
	H3	H	0.390515	0.143828	0.283093
	H4	H	0.710671	0.381412	0.841097
	H5	H	0.710216	0.583128	0.165731
	H6	H	0.276517	0.583865	0.840605
	H7	H	0.278632	0.383651	0.166901
	H8	H	0.830851	0.705048	0.398832
	H9	H	0.156095	0.703151	0.603550
	H10	H	0.832342	0.266742	0.606490
	H11	H	0.155111	0.269865	0.401122
	H12	H	0.831113	0.383632	0.719907
	H13	H	0.156199	0.587741	0.720311
	H14	H	0.830899	0.587896	0.284121
	H15	H	0.157671	0.389749	0.290359
	H16	H	0.387251	0.704577	0.842925
	H17	H	0.597307	0.701809	0.165145
	H18	H	0.594499	0.265715	0.841119
	H19	H	0.391853	0.265094	0.165181
	H20	H	0.711812	0.824717	0.401553
	H21	H	0.711342	0.146061	0.605631
	H22	H	0.275127	0.823687	0.603229
	H23	H	0.278872	0.146939	0.402684
	H24	H	0.893261	0.324695	0.221847
	H25	H	0.096179	0.647085	0.219125
	H26	H	0.095734	0.325622	0.783954
	H27	H	0.887862	0.646217	0.782564
	H28	H	0.207125	0.887410	0.339322
	H29	H	0.210614	0.085051	0.665836
	H30	H	0.775160	0.088118	0.341091
	H31	H	0.773966	0.881601	0.664271
	H32	H	0.331284	0.200642	0.900141
	H33	H	0.653818	0.203198	0.108623
	H34	H	0.332231	0.763295	0.106701
	H35	H	0.654735	0.763409	0.899790
	H36	H	0.329812	0.881457	0.219270
	H37	H	0.654492	0.084318	0.220725
	H38	H	0.330537	0.083044	0.785915
	H39	H	0.655628	0.880091	0.785053
	H40	H	0.890812	0.204914	0.340849
	H41	H	0.098731	0.205134	0.664791
	H42	H	0.095403	0.768623	0.341503
	H43	H	0.888114	0.764459	0.663383
	H44	H	0.208281	0.323032	0.903342
	H45	H	0.214047	0.644551	0.105963
	H46	H	0.777507	0.323061	0.105332
	H47	H	0.772514	0.644997	0.899688
	H48	H	0.401811	0.096933	0.586546
	H49	H	0.592507	0.868540	0.592377
	H50	H	0.583915	0.098519	0.412326
	H51	H	0.405336	0.868294	0.404460
	H52	H	0.575895	0.391341	0.115291
	H53	H	0.578953	0.568662	0.891293
	H54	H	0.408423	0.571794	0.115822
	H55	H	0.402334	0.384611	0.886414
	H56	H	0.106994	0.578795	0.416556
	H57	H	0.878503	0.574544	0.592456
	H58	H	0.106749	0.395523	0.587988
	H59	H	0.874494	0.387141	0.410407
	H60	H	0.107757	0.401594	0.596422
	H61	H	0.877833	0.577336	0.593316
	H62	H	0.108578	0.575905	0.408546
	H63	H	0.880409	0.397652	0.420078
	H64	H	0.403764	0.578009	0.120355
	H65	H	0.578490	0.579972	0.887718
	H66	H	0.588268	0.383896	0.121822
	H67	H	0.394159	0.392767	0.886135
	H68	H	0.582543	0.099235	0.409421
	H69	H	0.579245	0.869057	0.602022
	H70	H	0.395989	0.102611	0.599104
	H71	H	0.402526	0.872234	0.419512
	H72	H	0.897013	0.599459	0.086717
	H73	H	0.081522	0.371541	0.094267
	H74	H	0.080269	0.597955	0.914524
	H75	H	0.904538	0.369691	0.906552
	H76	H	0.081767	0.898068	0.616594
	H77	H	0.089748	0.084195	0.384805
	H78	H	0.904702	0.078914	0.617654
	H79	H	0.903649	0.893740	0.387968
	H80	H	0.607005	0.068647	0.911680
	H81	H	0.376566	0.072675	0.096060
	H82	H	0.609573	0.889690	0.095721
	H83	H	0.378745	0.894969	0.911176
	H84	H	0.607837	0.892321	0.091533
	H85	H	0.375679	0.078440	0.091519
	H86	H	0.611759	0.079843	0.908436
	H87	H	0.378067	0.890154	0.912394
	H88	H	0.901942	0.075298	0.618258
	H89	H	0.085854	0.074709	0.388301
	H90	H	0.081613	0.891046	0.618973
	H91	H	0.900761	0.898214	0.388834
	H92	H	0.088946	0.599846	0.915591
	H93	H	0.090720	0.368484	0.095820
	H94	H	0.899196	0.602457	0.099970
	H95	H	0.908753	0.375400	0.915752
	H96	H	0.410567	0.097940	0.599369
	H97	H	0.579022	0.874529	0.585860
	H98	H	0.581367	0.098676	0.412029
	H99	H	0.391326	0.866217	0.411014
	H100	H	0.589826	0.398786	0.117120
	H101	H	0.588746	0.573198	0.887227
	H102	H	0.400360	0.570461	0.118012
	H103	H	0.404415	0.395624	0.891076
	H104	H	0.110464	0.583705	0.410860
	H105	H	0.879120	0.577193	0.590354
	H106	H	0.111187	0.391377	0.596651
	H107	H	0.877609	0.401465	0.405501
	H108	H	0.909092	0.597186	0.092599
	H109	H	0.084472	0.368559	0.103150
	H110	H	0.084951	0.601086	0.907060
	H111	H	0.898211	0.371041	0.915513
	H112	H	0.087635	0.895119	0.619419
	H113	H	0.079514	0.083156	0.388857
	H114	H	0.906486	0.074897	0.616369
	H115	H	0.905769	0.897998	0.390314
	H116	H	0.608000	0.077557	0.919673
	H117	H	0.378932	0.071831	0.088755
	H118	H	0.608014	0.894599	0.096179
	H119	H	0.380144	0.893643	0.915700
	C120	C	0.371286	-0.007192	0.625108
	C121	C	0.614623	0.976608	0.624451
	C122	C	0.614059	-0.006998	0.381279
	C123	C	0.370541	0.975400	0.380794
	C124	C	0.614779	0.361407	0.011260
	C125	C	0.614054	0.604636	0.995328
	C126	C	0.371811	0.605080	0.011795
	C127	C	0.370748	0.361395	0.995047
	C128	C	0.001530	0.609379	0.380589
	C129	C	0.985313	0.607292	0.623314
	C130	C	0.002126	0.364893	0.624623
	C131	C	0.985146	0.366428	0.382642
	C132	C	0.871745	0.493625	0.124960
	C133	C	0.115936	0.476439	0.126029
	C134	C	0.114215	0.493308	0.882239
	C135	C	0.871640	0.477441	0.880906
	C136	C	0.113767	0.865431	0.510956
	C137	C	0.115936	0.109469	0.494705
	C138	C	0.872630	0.107681	0.510811
	C139	C	0.871421	0.864550	0.494922
	C140	C	0.501638	0.104781	0.881794
	C141	C	0.484043	0.104692	0.124107
	C142	C	0.501554	0.861589	0.124876
	C143	C	0.485381	0.861890	0.881973
	C144	C	0.370606	0.871615	0.682318
	C145	C	0.615001	0.097221	0.682662
	C146	C	0.613969	0.871457	0.324977
	C147	C	0.371390	0.096394	0.322659
	C148	C	0.671770	0.362354	0.889591
	C149	C	0.671996	0.603675	0.117051
	C150	C	0.314029	0.604527	0.889737
	C151	C	0.315873	0.363186	0.117748
	C152	C	0.879461	0.666335	0.379599
	C153	C	0.107267	0.664991	0.623476
	C154	C	0.880494	0.306236	0.625269
	C155	C	0.107154	0.309424	0.382656
	C156	C	0.879969	0.364399	0.681832
	C157	C	0.107385	0.607783	0.681757
	C158	C	0.879449	0.608203	0.322644
	C159	C	0.108192	0.368918	0.327207
	C160	C	0.369390	0.664393	0.890895
	C161	C	0.615700	0.662616	0.116728
	C162	C	0.613989	0.304460	0.889627
	C163	C	0.372438	0.304304	0.116882
	C164	C	0.672733	0.872450	0.381758
	C165	C	0.672296	0.097766	0.624796
	C166	C	0.313410	0.871801	0.623867
	C167	C	0.315929	0.097908	0.382262
	C168	C	0.873104	0.372608	0.182654
	C169	C	0.115425	0.598404	0.181154
	C170	C	0.114942	0.373078	0.823349
	C171	C	0.869603	0.597868	0.821948
	C172	C	0.169714	0.867287	0.388468
	C173	C	0.172807	0.106398	0.616859
	C174	C	0.813855	0.107870	0.389545
	C175	C	0.813091	0.862984	0.615965
	C176	C	0.379590	0.161615	0.881005
	C177	C	0.605441	0.163348	0.126328
	C178	C	0.379863	0.803213	0.125143
	C179	C	0.606692	0.802951	0.881135
	C180	C	0.378908	0.861935	0.181243
	C181	C	0.605764	0.104191	0.182309
	C182	C	0.379382	0.103169	0.824228
	C183	C	0.606987	0.861218	0.824008
	C184	C	0.871619	0.165976	0.389556
	C185	C	0.117163	0.166188	0.616473
	C186	C	0.114070	0.807885	0.389474
	C187	C	0.869662	0.804414	0.615322
	C188	C	0.170463	0.371809	0.882944
	C189	C	0.174547	0.596995	0.125163
	C190	C	0.815820	0.371630	0.124544
	C191	C	0.812211	0.597394	0.880498
	C192	C	0.395500	0.077311	0.601705
	C193	C	0.590713	0.892601	0.600232
	C194	C	0.589737	0.076961	0.404615
	C195	C	0.393200	0.890880	0.404532
	C196	C	0.591524	0.384609	0.096096
	C197	C	0.589152	0.580797	0.910774
	C198	C	0.396928	0.580667	0.096194
	C199	C	0.393491	0.384461	0.909995
	C200	C	0.086557	0.586186	0.404876
	C201	C	0.900528	0.583300	0.599108
	C202	C	0.086586	0.388992	0.600710
	C203	C	0.899820	0.388870	0.405406
	C204	C	0.895051	0.577913	0.100220
	C205	C	0.092361	0.391728	0.104151
	C206	C	0.091272	0.577617	0.905763
	C207	C	0.896678	0.393801	0.905535
	C208	C	0.090403	0.888140	0.596156
	C209	C	0.091994	0.087246	0.409538
	C210	C	0.897323	0.083339	0.595459
	C211	C	0.896250	0.889620	0.410776
	C212	C	0.586891	0.081970	0.906204
	C213	C	0.399056	0.081025	0.099308
	C214	C	0.586290	0.885133	0.101316
	C215	C	0.400966	0.885975	0.906215
	Zn216	Zn	0.493898	-0.016458	0.753366
	Zn217	Zn	0.492242	-0.016985	0.252569
	Zn218	Zn	0.743275	0.483643	0.002952
	Zn219	Zn	0.243086	0.483998	0.003425
	Zn220	Zn	-0.007607	0.736553	0.502803
	Zn221	Zn	-0.006295	0.237257	0.503391
	Zn222	Zn	-0.006408	0.486239	0.752143
	Zn223	Zn	-0.006491	0.486482	0.253505
	Zn224	Zn	0.492940	0.733106	0.003678
	Zn225	Zn	0.493056	0.233028	0.002877
	Zn226	Zn	0.743152	-0.013984	0.503372
	Zn227	Zn	0.242580	-0.014520	0.502660
	N228	N	0.405756	0.947918	0.683177
	N229	N	0.580065	0.020727	0.682778
	N230	N	0.578341	0.947372	0.324423
	N231	N	0.404377	0.019190	0.321487
	N232	N	0.672525	0.397126	0.966370
	N233	N	0.671213	0.568429	0.040590
	N234	N	0.315496	0.568101	0.965953
	N235	N	0.314763	0.398104	0.040967
	N236	N	0.956453	0.667322	0.414707
	N237	N	0.030220	0.665134	0.588502
	N238	N	0.957312	0.306287	0.590508
	N239	N	0.029947	0.307859	0.416606
	N240	N	0.956559	0.400205	0.681623
	N241	N	0.030565	0.572379	0.681744
	N242	N	0.956445	0.573756	0.322818
	N243	N	0.031165	0.403741	0.326999
	N244	N	0.404381	0.664839	0.967826
	N245	N	0.580493	0.663360	0.039838
	N246	N	0.579431	0.303913	0.966381
	N247	N	0.405742	0.303156	0.039547
	N248	N	0.673005	0.948978	0.415912
	N249	N	0.672365	0.021741	0.589490
	N250	N	0.313612	0.948411	0.589174
	N251	N	0.315029	0.021783	0.417477
	N252	N	0.907108	0.449374	0.182865
	N253	N	0.079784	0.522413	0.181913
	N254	N	0.080683	0.449597	0.822761
	N255	N	0.905834	0.522249	0.822133
	N256	N	0.169833	0.902136	0.465082
	N257	N	0.172348	0.071975	0.540013
	N258	N	0.814302	0.072357	0.466169
	N259	N	0.814167	0.899841	0.540116
	N260	N	0.456741	0.162780	0.915869
	N261	N	0.528555	0.163713	0.090876
	N262	N	0.456902	0.802764	0.090811
	N263	N	0.530134	0.803386	0.916745
	N264	N	0.455568	0.897482	0.181305
	N265	N	0.529321	0.068398	0.180974
	N266	N	0.456480	0.068651	0.824431
	N267	N	0.530608	0.897037	0.824258
	N268	N	0.907327	0.165943	0.466149
	N269	N	0.082681	0.168401	0.539244
	N270	N	0.079932	0.806625	0.466637
	N271	N	0.905033	0.805221	0.538837
	N272	N	0.170244	0.447648	0.918856
	N273	N	0.175139	0.520189	0.091664
	N274	N	0.814582	0.448135	0.089523
	N275	N	0.813203	0.521403	0.916221
	O276	O	0.570700	0.413515	0.515776
	H277	H	0.585337	0.417487	0.510936
	H278	H	0.570727	0.412990	0.515393
	O279	O	0.371985	0.362425	0.534544
	H280	H	0.359230	0.338529	0.543438
	H281	H	0.369609	0.367933	0.546437
	O282	O	0.926785	-0.116278	1.009501
	H283	H	0.925431	-0.124338	1.020499
	H284	H	0.915949	-0.125505	0.999948
	O285	O	0.425488	0.603561	0.614428
	H286	H	0.418500	0.604773	0.606134
	H287	H	0.421152	0.592484	0.617829
	O288	O	1.060976	0.999445	1.082255
	H289	H	1.050320	0.992164	1.085490
	H290	H	1.072978	1.010957	1.084988
	O291	O	0.160968	0.856556	-0.157410
	H292	H	0.169361	0.865565	-0.163998
	H293	H	0.180283	0.848020	-0.153861
	O294	O	0.414703	0.547925	0.419377
	H295	H	0.425129	0.544814	0.414518
	H296	H	0.398164	0.538685	0.431386
	O297	O	0.543192	0.376263	0.628894
	H298	H	0.542783	0.388482	0.612601
	H299	H	0.549930	0.383358	0.638332
	O300	O	0.452803	0.451635	0.396745
	H301	H	0.458663	0.451833	0.406240
	H302	H	0.452345	0.437918	0.395131
	O303	O	0.451143	0.620109	0.363956
	H304	H	0.441832	0.633698	0.348123
	H305	H	0.438584	0.611840	0.362505
	O306	O	0.403300	0.479858	0.531440
	H307	H	0.408931	0.474254	0.523209
	H308	H	0.407576	0.475907	0.537191
	O309	O	0.332479	0.467411	0.501908
	H310	H	0.335125	0.464970	0.505755
	H311	H	0.346720	0.471646	0.512176
	O312	O	0.090624	-0.194547	-0.101759
	H313	H	0.083830	-0.201464	-0.108286
	H314	H	0.093897	-0.195181	-0.096652
	O315	O	0.492043	0.509469	0.615850
	H316	H	0.495331	0.513136	0.630225
	H317	H	0.501105	0.506539	0.612087
	O318	O	0.545792	1.476459	1.369838
	H319	H	0.545428	1.473751	1.359657
	H320	H	0.536373	1.453482	1.365088
	O321	O	0.444811	0.571864	0.453973
	H322	H	0.435585	0.569374	0.442708
	H323	H	0.445444	0.571464	0.475060
	O324	O	0.024047	0.961898	0.029548
	H325	H	0.012806	0.946555	0.017552
	H326	H	0.020012	0.974454	0.034825
	O327	O	0.501705	0.489793	0.468912
	H328	H	0.497543	0.488224	0.459255
	H329	H	0.499663	0.484314	0.470163
	O330	O	-0.144995	0.170340	0.830194
	H331	H	-0.143722	0.164183	0.833300
	H332	H	-0.146101	0.175548	0.834511
	O333	O	0.065030	0.151709	0.975153
	H334	H	0.052836	0.156443	0.983296
	H335	H	0.042527	0.152282	0.975925
	O336	O	0.413304	0.419760	0.389419
	H337	H	0.413109	0.412849	0.398354
	H338	H	0.419882	0.410876	0.391848
	O339	O	1.117936	0.093491	-0.001560
	H340	H	1.099795	0.091421	0.016482
	H341	H	1.128828	0.096463	0.012970
	O342	O	-0.192135	-0.184672	0.070735
	H343	H	-0.201497	-0.190224	0.059059
	H344	H	-0.195124	-0.178236	0.068270
	O345	O	1.015427	0.009068	0.823995
	H346	H	1.026911	0.006177	0.831454
	H347	H	1.022151	0.009638	0.821477
	O348	O	1.075770	1.024354	0.062153
	H349	H	1.071229	1.036889	0.052567
	H350	H	1.068432	1.031818	0.067773
	O351	O	0.622398	0.607677	0.534963
	H352	H	0.605725	0.609415	0.531457
	H353	H	0.618056	0.620032	0.548215
	O354	O	1.016727	0.173753	1.133659
	H355	H	1.022296	0.178381	1.124602
	H356	H	1.028506	0.165424	1.128303
	O357	O	0.599781	0.516150	0.494115
	H358	H	0.600545	0.522365	0.502744
	H359	H	0.597502	0.516976	0.495459
	O360	O	0.503713	0.449158	0.372682
	H361	H	0.499279	0.463932	0.368691
	H362	H	0.499097	0.455748	0.352811
	O363	O	-0.112340	0.817631	1.197550
	H364	H	-0.112340	0.814987	1.201588
	H365	H	-0.110666	0.793516	1.201700
	O366	O	1.132232	0.969877	-0.020668
	H367	H	1.122370	0.965536	-0.006113
	H368	H	1.144637	0.985305	-0.023053
	O369	O	-0.168488	0.951342	-0.105793
	H370	H	-0.152887	0.954354	-0.111529
	H371	H	-0.175330	0.953331	-0.116078
	O372	O	0.531214	0.428089	0.465427
	H373	H	0.543390	0.415669	0.466280
	H374	H	0.539340	0.428641	0.452091
	O375	O	0.600161	0.377439	0.498290
	H376	H	0.609796	0.379404	0.492322
	H377	H	0.606456	0.375228	0.505004
	O378	O	1.169104	1.139729	0.133656
	H379	H	1.155142	1.136876	0.126520
	H380	H	1.161718	1.127066	0.136569
	O381	O	0.977479	0.009574	-0.019302
	H382	H	0.983201	0.005335	-0.028005
	H383	H	0.982264	0.028359	-0.019105
	O384	O	0.894071	1.071178	0.090562
	H385	H	0.897498	1.058911	0.087013
	H386	H	0.897005	1.051849	0.099283
	O387	O	-0.208192	0.002743	0.140653
	H388	H	-0.200825	-0.001166	0.148070
	H389	H	-0.226781	-0.012219	0.143912
	O390	O	0.050386	0.816412	0.097125
	H391	H	0.061510	0.824478	0.109299
	H392	H	0.076211	0.806043	0.087371
	O393	O	0.851773	1.006655	0.982662
	H394	H	0.836772	1.004133	0.968561
	H395	H	0.850251	1.006731	0.994399
	O396	O	0.561775	0.629020	0.607583
	H397	H	0.546377	0.631046	0.606740
	H398	H	0.551268	0.634912	0.607091
	O399	O	0.044793	0.831252	0.974884
	H400	H	0.034025	0.833629	0.981382
	H401	H	0.055323	0.815960	0.978593
	O402	O	0.443424	0.529867	0.649661
	H403	H	0.433032	0.510942	0.650590
	H404	H	0.451884	0.532572	0.643331
	O405	O	1.175720	1.069879	0.122283
	H406	H	1.186718	1.071857	0.118665
	H407	H	1.179867	1.063521	0.115148
	O408	O	0.832675	1.137441	-0.127377
	H409	H	0.827892	1.133649	-0.134410
	H410	H	0.817370	1.140642	-0.120338
	O411	O	0.916463	-0.080068	0.905284
	H412	H	0.920591	-0.072926	0.891870
	H413	H	0.928740	-0.067779	0.894989
	O414	O	0.670252	0.485810	0.559006
	H415	H	0.662989	0.499212	0.548191
	H416	H	0.690386	0.495241	0.564138
	O417	O	0.531420	0.341666	0.547782
	H418	H	0.528001	0.339237	0.541707
	H419	H	0.545721	0.339448	0.552925
