data_Molecule from HDF5

_cell_length_a		16.377389
_cell_length_b		16.446541
_cell_length_c		16.519206
_cell_angle_alpha	90.086204
_cell_angle_beta	89.973155
_cell_angle_gamma	90.002417
_symmetry_space_group_name_H-M	'P 1'
_symmetry_Int_Tables_number		1

loop_
	_symmetry_equiv_pos_as_xyz
	x,y,z

loop_
	_atom_site_label
	_atom_site_type_symbol
	_atom_site_fract_x
	_atom_site_fract_y
	_atom_site_fract_z
	H0	H	0.390472	0.848108	0.727697
	H1	H	0.610117	0.159993	0.724008
	H2	H	0.609759	0.845167	0.277551
	H3	H	0.393413	0.158159	0.275152
	H4	H	0.725709	0.398074	0.843532
	H5	H	0.724716	0.609235	0.158550
	H6	H	0.279856	0.609521	0.844127
	H7	H	0.282142	0.398926	0.157287
	H8	H	0.842427	0.722876	0.397271
	H9	H	0.160257	0.727744	0.608795
	H10	H	0.844247	0.281479	0.606834
	H11	H	0.159889	0.281916	0.394743
	H12	H	0.845214	0.396235	0.723845
	H13	H	0.158533	0.613734	0.726739
	H14	H	0.843673	0.609001	0.279348
	H15	H	0.160060	0.398513	0.279594
	H16	H	0.396592	0.726032	0.844377
	H17	H	0.611782	0.728297	0.156437
	H18	H	0.612579	0.277402	0.845163
	H19	H	0.398375	0.281736	0.157016
	H20	H	0.724682	0.844223	0.394183
	H21	H	0.722346	0.161334	0.604429
	H22	H	0.277459	0.846919	0.609241
	H23	H	0.278758	0.159322	0.393313
	H24	H	0.897072	0.345222	0.222212
	H25	H	0.109603	0.662060	0.223124
	H26	H	0.109962	0.345814	0.776707
	H27	H	0.895948	0.660338	0.777872
	H28	H	0.225933	0.896486	0.343546
	H29	H	0.223320	0.108344	0.658932
	H30	H	0.781802	0.107257	0.341978
	H31	H	0.782877	0.900366	0.659689
	H32	H	0.344857	0.226743	0.893769
	H33	H	0.662360	0.222526	0.105148
	H34	H	0.345230	0.780293	0.107342
	H35	H	0.662014	0.783431	0.896581
	H36	H	0.345287	0.893829	0.224553
	H37	H	0.661471	0.106836	0.221890
	H38	H	0.345020	0.110687	0.777835
	H39	H	0.660246	0.895901	0.777588
	H40	H	0.896851	0.224301	0.343193
	H41	H	0.106439	0.224903	0.658931
	H42	H	0.110180	0.779377	0.343774
	H43	H	0.898671	0.783189	0.659250
	H44	H	0.223886	0.344345	0.894781
	H45	H	0.223574	0.662448	0.104654
	H46	H	0.782428	0.344537	0.105621
	H47	H	0.782591	0.662014	0.896640
	H48	H	0.409540	0.115938	0.585836
	H49	H	0.589156	0.890093	0.591076
	H50	H	0.592641	0.113036	0.419345
	H51	H	0.412309	0.889641	0.412929
	H52	H	0.593541	0.409285	0.114752
	H53	H	0.584481	0.597163	0.889398
	H54	H	0.416041	0.591702	0.112264
	H55	H	0.415045	0.416727	0.887948
	H56	H	0.118971	0.594021	0.404883
	H57	H	0.888906	0.594653	0.589069
	H58	H	0.116675	0.414298	0.591965
	H59	H	0.887535	0.412184	0.411028
	H60	H	0.114532	0.413217	0.585574
	H61	H	0.892196	0.590531	0.585180
	H62	H	0.114593	0.596687	0.418400
	H63	H	0.888909	0.415455	0.413715
	H64	H	0.414259	0.593978	0.113044
	H65	H	0.599329	0.596007	0.884645
	H66	H	0.595187	0.417273	0.113259
	H67	H	0.417261	0.413422	0.888354
	H68	H	0.599059	0.120022	0.405811
	H69	H	0.590369	0.891686	0.586973
	H70	H	0.416129	0.117026	0.595913
	H71	H	0.420226	0.891769	0.410679
	H72	H	0.913841	0.614440	0.083734
	H73	H	0.090161	0.391568	0.090099
	H74	H	0.087595	0.615235	0.909934
	H75	H	0.912913	0.389789	0.911793
	H76	H	0.084358	0.919858	0.608821
	H77	H	0.097388	0.090239	0.387394
	H78	H	0.913573	0.091915	0.612811
	H79	H	0.916249	0.914466	0.389138
	H80	H	0.612359	0.090005	0.920705
	H81	H	0.392488	0.090358	0.080341
	H82	H	0.614461	0.916048	0.086516
	H83	H	0.389155	0.910909	0.915168
	H84	H	0.616437	0.918380	0.092819
	H85	H	0.389814	0.084239	0.095409
	H86	H	0.614405	0.082036	0.908234
	H87	H	0.391060	0.918461	0.916465
	H88	H	0.912525	0.095105	0.614264
	H89	H	0.085860	0.089037	0.391308
	H90	H	0.087856	0.909506	0.614085
	H91	H	0.913574	0.910305	0.386714
	H92	H	0.087934	0.613118	0.917253
	H93	H	0.092361	0.391149	0.089480
	H94	H	0.908768	0.619413	0.094366
	H95	H	0.916489	0.390788	0.910204
	H96	H	0.421216	0.111635	0.585657
	H97	H	0.592993	0.889338	0.589486
	H98	H	0.583344	0.114902	0.406366
	H99	H	0.417219	0.893182	0.418516
	H100	H	0.587359	0.414078	0.111429
	H101	H	0.592179	0.583582	0.891997
	H102	H	0.412869	0.591041	0.113491
	H103	H	0.413268	0.412876	0.886482
	H104	H	0.112913	0.583465	0.412750
	H105	H	0.890407	0.588416	0.591402
	H106	H	0.113922	0.419806	0.588332
	H107	H	0.887338	0.416320	0.409555
	H108	H	0.920915	0.614940	0.094215
	H109	H	0.091448	0.390243	0.092173
	H110	H	0.094739	0.616039	0.913860
	H111	H	0.915504	0.391760	0.914069
	H112	H	0.095974	0.918476	0.612983
	H113	H	0.089847	0.099441	0.386256
	H114	H	0.910428	0.091805	0.613866
	H115	H	0.910353	0.914897	0.388152
	H116	H	0.619154	0.096313	0.909252
	H117	H	0.385586	0.099463	0.091769
	H118	H	0.618436	0.911904	0.090568
	H119	H	0.388584	0.915871	0.909109
	C120	C	0.380848	0.012026	0.623273
	C121	C	0.623326	0.994638	0.621627
	C122	C	0.624433	0.011185	0.378670
	C123	C	0.381959	0.994496	0.379773
	C124	C	0.625163	0.381158	0.009255
	C125	C	0.624769	0.625115	0.992601
	C126	C	0.381804	0.624774	0.009298
	C127	C	0.382338	0.381804	0.991355
	C128	C	0.010682	0.624426	0.379781
	C129	C	0.994399	0.624834	0.622131
	C130	C	0.010907	0.382284	0.622000
	C131	C	0.992916	0.382421	0.379371
	C132	C	0.881779	0.511936	0.122670
	C133	C	0.124310	0.495337	0.122739
	C134	C	0.124253	0.510997	0.879477
	C135	C	0.881740	0.494813	0.879317
	C136	C	0.123745	0.881678	0.508833
	C137	C	0.123404	0.125335	0.492621
	C138	C	0.880210	0.124827	0.509190
	C139	C	0.880763	0.881500	0.492404
	C140	C	0.511118	0.123867	0.879520
	C141	C	0.494308	0.123714	0.121901
	C142	C	0.511978	0.881637	0.122658
	C143	C	0.494044	0.882175	0.879967
	C144	C	0.374879	0.894592	0.685932
	C145	C	0.627044	0.112912	0.682876
	C146	C	0.627682	0.892480	0.317995
	C147	C	0.376661	0.111557	0.316715
	C148	C	0.685894	0.379104	0.890959
	C149	C	0.684914	0.627457	0.110994
	C150	C	0.320557	0.627614	0.891197
	C151	C	0.322242	0.380000	0.110088
	C152	C	0.890590	0.684080	0.378164
	C153	C	0.112705	0.686927	0.626178
	C154	C	0.891910	0.321382	0.625165
	C155	C	0.112533	0.322164	0.376845
	C156	C	0.892279	0.378656	0.683222
	C157	C	0.112128	0.630104	0.684934
	C158	C	0.890925	0.626965	0.319833
	C159	C	0.112845	0.380294	0.319761
	C160	C	0.378683	0.685570	0.891435
	C161	C	0.628728	0.686945	0.110019
	C162	C	0.629294	0.319437	0.891481
	C163	C	0.379943	0.321839	0.109959
	C164	C	0.684907	0.892057	0.376174
	C165	C	0.682895	0.113763	0.623221
	C166	C	0.318134	0.894301	0.627084
	C167	C	0.319869	0.112490	0.375771
	C168	C	0.879180	0.392824	0.182508
	C169	C	0.127135	0.614535	0.182591
	C170	C	0.127689	0.392926	0.817385
	C171	C	0.877889	0.613070	0.818233
	C172	C	0.185641	0.878253	0.390823
	C173	C	0.183534	0.127216	0.611515
	C174	C	0.821017	0.126139	0.390071
	C175	C	0.822119	0.881213	0.611941
	C176	C	0.392599	0.186222	0.876000
	C177	C	0.614211	0.183031	0.123790
	C178	C	0.392731	0.820404	0.125359
	C179	C	0.613922	0.822209	0.877449
	C180	C	0.392677	0.877197	0.183659
	C181	C	0.613765	0.125862	0.182148
	C182	C	0.392394	0.128310	0.818411
	C183	C	0.612882	0.878637	0.818479
	C184	C	0.878165	0.184696	0.390491
	C185	C	0.125386	0.185281	0.611431
	C186	C	0.128187	0.819709	0.390987
	C187	C	0.879833	0.822916	0.611917
	C188	C	0.184432	0.392093	0.876348
	C189	C	0.184279	0.614726	0.123910
	C190	C	0.821942	0.392558	0.124409
	C191	C	0.821793	0.613988	0.877628
	C192	C	0.408029	0.093744	0.596733
	C193	C	0.597891	0.911968	0.596514
	C194	C	0.598972	0.094323	0.403384
	C195	C	0.408818	0.912773	0.406712
	C196	C	0.599351	0.406238	0.091713
	C197	C	0.599233	0.599620	0.910228
	C198	C	0.407148	0.599447	0.091376
	C199	C	0.407835	0.407073	0.909030
	C200	C	0.093689	0.598829	0.404844
	C201	C	0.911895	0.598693	0.595880
	C202	C	0.093523	0.408241	0.596099
	C203	C	0.909826	0.407465	0.404306
	C204	C	0.907083	0.594773	0.097883
	C205	C	0.098852	0.412581	0.097622
	C206	C	0.097665	0.593404	0.906128
	C207	C	0.907525	0.412355	0.904735
	C208	C	0.097156	0.908117	0.590512
	C209	C	0.098263	0.100311	0.410065
	C210	C	0.905166	0.100087	0.592028
	C211	C	0.906129	0.906000	0.409575
	C212	C	0.593940	0.097155	0.905397
	C213	C	0.410999	0.098545	0.096581
	C214	C	0.594711	0.907844	0.097288
	C215	C	0.411430	0.907726	0.905902
	Zn216	Zn	0.502690	0.003236	0.751115
	Zn217	Zn	0.502623	0.002142	0.250131
	Zn218	Zn	0.753486	0.503470	0.001292
	Zn219	Zn	0.252608	0.502894	0.000354
	Zn220	Zn	0.002440	0.752902	0.500857
	Zn221	Zn	0.001696	0.253962	0.500557
	Zn222	Zn	0.002903	0.503142	0.750642
	Zn223	Zn	0.002297	0.503832	0.251228
	Zn224	Zn	0.503237	0.754046	0.001378
	Zn225	Zn	0.503154	0.252112	0.000559
	Zn226	Zn	0.752409	0.002829	0.500469
	Zn227	Zn	0.252651	0.003512	0.500943
	N228	N	0.413084	0.968838	0.683675
	N229	N	0.590638	0.037675	0.682075
	N230	N	0.590933	0.967540	0.319230
	N231	N	0.414759	0.037323	0.319332
	N232	N	0.683394	0.416656	0.965297
	N233	N	0.682409	0.589463	0.036989
	N234	N	0.322337	0.590376	0.965571
	N235	N	0.323569	0.416435	0.035412
	N236	N	0.966094	0.682779	0.414598
	N237	N	0.038632	0.683445	0.587708
	N238	N	0.966607	0.323777	0.587610
	N239	N	0.037143	0.323344	0.413458
	N240	N	0.967383	0.415811	0.681504
	N241	N	0.037524	0.591942	0.682463
	N242	N	0.966632	0.590902	0.320528
	N243	N	0.037500	0.416808	0.320994
	N244	N	0.415943	0.683933	0.965792
	N245	N	0.591842	0.685324	0.035490
	N246	N	0.592313	0.320563	0.966054
	N247	N	0.416558	0.322689	0.035108
	N248	N	0.682929	0.967003	0.413271
	N249	N	0.680677	0.039260	0.585824
	N250	N	0.321776	0.968231	0.588601
	N251	N	0.322978	0.038595	0.414307
	N252	N	0.915607	0.468045	0.181580
	N253	N	0.090571	0.539276	0.182071
	N254	N	0.091139	0.468226	0.819063
	N255	N	0.914298	0.537951	0.818986
	N256	N	0.183257	0.915805	0.465225
	N257	N	0.182718	0.090960	0.536594
	N258	N	0.822075	0.089818	0.464948
	N259	N	0.822268	0.916380	0.536355
	N260	N	0.467572	0.183412	0.913066
	N261	N	0.538663	0.182056	0.087391
	N262	N	0.467870	0.823048	0.088181
	N263	N	0.539175	0.824242	0.914955
	N264	N	0.467782	0.914381	0.182166
	N265	N	0.538055	0.089861	0.181250
	N266	N	0.467187	0.090280	0.820555
	N267	N	0.537234	0.914946	0.819585
	N268	N	0.914144	0.184079	0.465765
	N269	N	0.089328	0.184548	0.536369
	N270	N	0.090777	0.821545	0.465361
	N271	N	0.915152	0.822783	0.536482
	N272	N	0.182371	0.466666	0.913925
	N273	N	0.182726	0.539540	0.087347
	N274	N	0.823223	0.467635	0.087886
	N275	N	0.823635	0.539262	0.914659
	O276	O	0.299136	0.518193	0.293234
	H277	H	0.319559	0.507496	0.289384
	H278	H	0.280248	0.507102	0.299902
	O279	O	0.994582	0.173447	0.849952
	H280	H	0.994095	0.166327	0.847505
	H281	H	1.006309	0.177776	0.845037
	O282	O	0.359264	0.507424	0.715776
	H283	H	0.357157	0.530602	0.691798
	H284	H	0.340217	0.515789	0.730076
	O285	O	0.484856	0.705747	0.291960
	H286	H	0.505889	0.696648	0.286193
	H287	H	0.488601	0.719559	0.279909
	O288	O	0.831444	0.816652	0.182752
	H289	H	0.833282	0.831289	0.163271
	H290	H	0.839991	0.832215	0.178785
	O291	O	0.281267	0.281887	0.527313
	H292	H	0.269717	0.268322	0.555728
	H293	H	0.268736	0.270842	0.552195
	O294	O	-0.090409	0.055941	1.110839
	H295	H	-0.093734	0.069443	1.098437
	H296	H	-0.067564	0.076121	1.109100
	O297	O	0.421163	0.616676	0.492561
	H298	H	0.420550	0.618335	0.475898
	H299	H	0.425378	0.598132	0.471592
	O300	O	0.702199	0.395639	0.613225
	H301	H	0.676240	0.399838	0.607207
	H302	H	0.701479	0.401696	0.590915
	O303	O	0.665053	0.299193	0.501732
	H304	H	0.667629	0.293082	0.505584
	H305	H	0.674039	0.295087	0.489254
	O306	O	0.394318	0.571337	0.606954
	H307	H	0.395687	0.571001	0.613151
	H308	H	0.397449	0.567413	0.598908
	O309	O	0.696676	0.335338	0.314278
	H310	H	0.704412	0.346812	0.320626
	H311	H	0.666118	0.323871	0.314299
	O312	O	-0.077909	0.975429	0.859530
	H313	H	-0.082849	0.975094	0.853658
	H314	H	-0.070357	0.985655	0.867146
	O315	O	0.661001	0.702667	0.548095
	H316	H	0.669952	0.698322	0.542107
	H317	H	0.660032	0.703419	0.569784
	O318	O	0.992588	0.183340	0.180886
	H319	H	1.001617	0.189755	0.181277
	H320	H	1.004803	0.191708	0.187713
	O321	O	0.079725	0.127328	-0.039711
	H322	H	0.082072	0.131897	-0.033118
	H323	H	0.070829	0.127641	-0.037486
	O324	O	0.532159	0.290883	0.284532
	H325	H	0.531309	0.263176	0.265745
	H326	H	0.527746	0.286235	0.303207
	O327	O	0.528180	0.288921	0.609023
	H328	H	0.519723	0.282245	0.634856
	H329	H	0.521469	0.289590	0.602739
	O330	O	0.195950	0.804608	-0.053351
	H331	H	0.213357	0.806334	-0.057920
	H332	H	0.195805	0.799600	-0.045836
	O333	O	0.446489	0.282660	0.433362
	H334	H	0.447897	0.280790	0.437545
	H335	H	0.435219	0.281246	0.459179
	O336	O	0.006527	-0.181167	0.212727
	H337	H	-0.002534	-0.182508	0.212099
	H338	H	-0.003583	-0.185377	0.226569
	O339	O	0.027816	0.874937	0.796552
	H340	H	0.018318	0.874519	0.798966
	H341	H	0.024912	0.873239	0.798777
	O342	O	0.201398	0.984685	0.811791
	H343	H	0.207834	0.964061	0.804196
	H344	H	0.216452	0.971889	0.807060
	O345	O	0.816001	0.823539	-0.043733
	H346	H	0.815514	0.841129	-0.028858
	H347	H	0.803656	0.814952	-0.045105
	O348	O	0.329479	0.676938	0.327860
	H349	H	0.338578	0.644810	0.315543
	H350	H	0.358799	0.668282	0.319486
	O351	O	0.210724	1.178553	1.203717
	H352	H	0.224191	1.184354	1.212795
	H353	H	0.220552	1.176101	1.216460
	O354	O	0.174044	1.194155	0.126383
	H355	H	0.165372	1.193988	0.146190
	H356	H	0.177759	1.183853	0.137684
	O357	O	0.011950	-0.026733	0.943404
	H358	H	0.021094	-0.024279	0.950018
	H359	H	0.025776	-0.030423	0.949005
	O360	O	0.527742	0.714278	0.713904
	H361	H	0.505250	0.724875	0.675117
	H362	H	0.527765	0.746239	0.741086
	O363	O	0.167037	-0.160856	0.812266
	H364	H	0.157371	-0.171869	0.807172
	H365	H	0.150999	-0.175434	0.826212
	O366	O	0.371639	0.373284	0.339402
	H367	H	0.374992	0.370221	0.358917
	H368	H	0.386454	0.376040	0.353425
	O369	O	0.635215	0.516588	0.463738
	H370	H	0.648419	0.509090	0.472455
	H371	H	0.625325	0.530217	0.463075
	O372	O	0.829824	-0.007088	1.197340
	H373	H	0.814651	0.000897	1.213721
	H374	H	0.844390	0.003532	1.187924
	O375	O	0.567692	0.416117	0.470333
	H376	H	0.567608	0.420438	0.474747
	H377	H	0.584095	0.418401	0.464003
	O378	O	0.624551	0.632406	0.648346
	H379	H	0.632986	0.618565	0.634767
	H380	H	0.615257	0.636395	0.653113
	O381	O	0.618426	0.585920	0.521525
	H382	H	0.614434	0.580394	0.542765
	H383	H	0.625371	0.589639	0.533912
	O384	O	0.598919	0.622804	0.477861
	H385	H	0.612299	0.636813	0.466139
	H386	H	0.598061	0.621243	0.470425
	O387	O	-0.018134	-0.201294	0.990707
	H388	H	-0.018425	-0.198686	0.998429
	H389	H	-0.020457	-0.200656	0.997369
	O390	O	0.036304	0.172155	0.016706
	H391	H	0.030364	0.166496	0.023748
	H392	H	0.046778	0.196877	0.014121
	O393	O	0.810265	1.156756	0.805149
	H394	H	0.810407	1.167148	0.782280
	H395	H	0.828286	1.128425	0.802460
	O396	O	1.034717	0.099621	0.155685
	H397	H	1.046339	0.085668	0.143713
	H398	H	1.039844	0.089043	0.161715
	O399	O	0.794604	0.209234	0.935221
	H400	H	0.780055	0.212185	0.910264
	H401	H	0.806907	0.219697	0.918267
	O402	O	0.881224	1.036200	0.812484
	H403	H	0.890984	1.042164	0.820373
	H404	H	0.881869	1.034180	0.816972
	O405	O	1.000387	0.912335	0.051587
	H406	H	1.006382	0.904871	0.055279
	H407	H	1.008248	0.907106	0.051508
	O408	O	0.813112	-0.013032	-0.033558
	H409	H	0.821088	0.007371	-0.027883
	H410	H	0.809673	-0.001574	-0.042096
	O411	O	1.000714	1.006407	-0.032315
	H412	H	1.015778	1.012953	-0.026070
	H413	H	1.001341	0.996791	-0.019267
	O414	O	0.454989	0.623778	0.658974
	H415	H	0.430689	0.626633	0.644534
	H416	H	0.456958	0.640652	0.652328
	O417	O	0.673537	0.552690	0.303594
	H418	H	0.681039	0.538279	0.297087
	H419	H	0.687941	0.535833	0.303904
	O420	O	0.050724	-0.000975	0.212934
	H421	H	0.041129	-0.008015	0.208336
	H422	H	0.037765	-0.000874	0.209860
	O423	O	0.613722	0.465303	0.715395
	H424	H	0.612218	0.483851	0.717559
	H425	H	0.623105	0.476254	0.712846
	O426	O	0.555140	0.512497	0.354525
	H427	H	0.566095	0.508795	0.349649
	H428	H	0.563576	0.531465	0.360718
	O429	O	0.286116	0.720526	0.479067
	H430	H	0.252140	0.754039	0.469759
	H431	H	0.298079	0.705883	0.432364
	O432	O	0.292844	0.474162	0.471147
	H433	H	0.287825	0.472490	0.477742
	H434	H	0.298675	0.458831	0.465999
	O435	O	0.408261	0.519356	0.455199
	H436	H	0.419424	0.518982	0.441459
	H437	H	0.405354	0.517202	0.461505
	O438	O	0.136361	0.089393	-0.028301
	H439	H	0.134523	0.106268	-0.044115
	H440	H	0.148563	0.088596	-0.048522
	O441	O	1.021248	0.048940	0.055162
	H442	H	1.009328	0.053581	0.057933
	H443	H	1.027842	0.047511	0.046201
	O444	O	0.197722	0.919651	1.036664
	H445	H	0.197499	0.923721	1.017344
	H446	H	0.197885	0.931497	1.047513
	O447	O	0.310962	0.377290	0.694600
	H448	H	0.325832	0.374965	0.707042
	H449	H	0.314163	0.416109	0.698384
	O450	O	0.704704	0.646187	0.647886
	H451	H	0.717100	0.649872	0.672932
	H452	H	0.708896	0.638289	0.645498
	O453	O	0.427198	0.299569	0.704650
	H454	H	0.445506	0.294844	0.725523
	H455	H	0.429132	0.330174	0.724281
