data_Molecule from HDF5

_cell_length_a		16.471063
_cell_length_b		16.405291
_cell_length_c		16.589254
_cell_angle_alpha	90.219228
_cell_angle_beta	89.926498
_cell_angle_gamma	89.890279
_symmetry_space_group_name_H-M	'P 1'
_symmetry_Int_Tables_number		1

loop_
	_symmetry_equiv_pos_as_xyz
	x,y,z

loop_
	_atom_site_label
	_atom_site_type_symbol
	_atom_site_fract_x
	_atom_site_fract_y
	_atom_site_fract_z
	H0	H	0.398033	0.838297	0.729935
	H1	H	0.610893	0.154051	0.732045
	H2	H	0.614942	0.839232	0.283833
	H3	H	0.399725	0.153844	0.287931
	H4	H	0.725248	0.390663	0.852043
	H5	H	0.727166	0.606244	0.164780
	H6	H	0.279798	0.602722	0.853321
	H7	H	0.281069	0.392752	0.166183
	H8	H	0.846762	0.720403	0.403864
	H9	H	0.162026	0.718265	0.615491
	H10	H	0.844696	0.279113	0.610132
	H11	H	0.163245	0.278076	0.405868
	H12	H	0.845951	0.392844	0.729336
	H13	H	0.160917	0.603527	0.732332
	H14	H	0.847421	0.606278	0.285599
	H15	H	0.160787	0.389164	0.285554
	H16	H	0.396521	0.717929	0.852754
	H17	H	0.608927	0.720306	0.165980
	H18	H	0.608796	0.273998	0.852081
	H19	H	0.399186	0.276535	0.167175
	H20	H	0.729276	0.839752	0.400506
	H21	H	0.722920	0.156021	0.612831
	H22	H	0.283366	0.837829	0.613684
	H23	H	0.285241	0.155259	0.405373
	H24	H	0.898644	0.339628	0.229330
	H25	H	0.111213	0.654725	0.234136
	H26	H	0.106968	0.338897	0.788903
	H27	H	0.894775	0.654397	0.785933
	H28	H	0.224983	0.891567	0.351539
	H29	H	0.223143	0.099763	0.665696
	H30	H	0.782672	0.100850	0.351663
	H31	H	0.782004	0.891842	0.665784
	H32	H	0.344150	0.211017	0.910721
	H33	H	0.662377	0.216242	0.112636
	H34	H	0.344125	0.778930	0.110405
	H35	H	0.662383	0.774757	0.905032
	H36	H	0.347318	0.889777	0.231658
	H37	H	0.662772	0.100256	0.228735
	H38	H	0.346159	0.097006	0.791013
	H39	H	0.662620	0.889795	0.787784
	H40	H	0.903235	0.213412	0.349447
	H41	H	0.104591	0.215428	0.666226
	H42	H	0.108585	0.773870	0.352757
	H43	H	0.899348	0.777367	0.667224
	H44	H	0.221501	0.338254	0.906326
	H45	H	0.223149	0.656757	0.114113
	H46	H	0.785025	0.338216	0.111104
	H47	H	0.781034	0.655368	0.904052
	H48	H	0.413266	0.110746	0.600502
	H49	H	0.592171	0.883671	0.598534
	H50	H	0.592047	0.106781	0.424916
	H51	H	0.424589	0.884665	0.416772
	H52	H	0.592326	0.410034	0.119634
	H53	H	0.587378	0.586052	0.898897
	H54	H	0.418563	0.585026	0.118962
	H55	H	0.412550	0.402486	0.897261
	H56	H	0.114387	0.581572	0.424267
	H57	H	0.892274	0.581687	0.601625
	H58	H	0.118505	0.402445	0.599508
	H59	H	0.892329	0.410909	0.419477
	H60	H	0.115387	0.408979	0.596323
	H61	H	0.890058	0.590269	0.600126
	H62	H	0.115958	0.581730	0.419519
	H63	H	0.888787	0.406474	0.413400
	H64	H	0.412548	0.592250	0.123460
	H65	H	0.595049	0.586452	0.896456
	H66	H	0.591852	0.406265	0.120935
	H67	H	0.410231	0.405357	0.895781
	H68	H	0.594769	0.109486	0.417987
	H69	H	0.592074	0.884407	0.595033
	H70	H	0.417134	0.109100	0.601215
	H71	H	0.413280	0.884630	0.428023
	H72	H	0.915871	0.610324	0.098738
	H73	H	0.087631	0.388101	0.094222
	H74	H	0.092633	0.611114	0.921974
	H75	H	0.911146	0.383671	0.920825
	H76	H	0.097218	0.905515	0.623622
	H77	H	0.094921	0.085089	0.396419
	H78	H	0.915631	0.084123	0.619546
	H79	H	0.923089	0.912196	0.401843
	H80	H	0.618466	0.083831	0.918212
	H81	H	0.389933	0.090346	0.096727
	H82	H	0.612765	0.912777	0.090535
	H83	H	0.393276	0.916501	0.913396
	H84	H	0.617244	0.912952	0.103801
	H85	H	0.393516	0.080532	0.097867
	H86	H	0.618463	0.085843	0.919455
	H87	H	0.386302	0.899498	0.912397
	H88	H	0.915248	0.093343	0.622434
	H89	H	0.094941	0.088507	0.393912
	H90	H	0.096653	0.912693	0.620256
	H91	H	0.916988	0.903369	0.396417
	H92	H	0.090991	0.611640	0.918731
	H93	H	0.096994	0.383162	0.096265
	H94	H	0.915869	0.610780	0.097549
	H95	H	0.915535	0.382848	0.914264
	H96	H	0.414957	0.108697	0.597040
	H97	H	0.595392	0.883350	0.596541
	H98	H	0.587361	0.107366	0.418340
	H99	H	0.410400	0.878672	0.413192
	H100	H	0.595173	0.408178	0.121600
	H101	H	0.592371	0.579361	0.899788
	H102	H	0.408603	0.582664	0.121690
	H103	H	0.413417	0.405709	0.898263
	H104	H	0.116036	0.586087	0.422206
	H105	H	0.893501	0.585826	0.593535
	H106	H	0.118461	0.408952	0.603939
	H107	H	0.890196	0.403052	0.420666
	H108	H	0.915373	0.610640	0.097991
	H109	H	0.089185	0.383796	0.103363
	H110	H	0.088650	0.610497	0.921171
	H111	H	0.918327	0.385859	0.920867
	H112	H	0.090706	0.907791	0.620005
	H113	H	0.098448	0.085836	0.394131
	H114	H	0.907253	0.087970	0.623164
	H115	H	0.911624	0.914326	0.398209
	H116	H	0.618095	0.084222	0.920316
	H117	H	0.389476	0.085918	0.106126
	H118	H	0.618451	0.901912	0.095401
	H119	H	0.393549	0.905780	0.928102
	C120	C	0.383293	0.004575	0.630551
	C121	C	0.625632	0.988238	0.629748
	C122	C	0.625853	0.004360	0.387473
	C123	C	0.384059	0.987397	0.387624
	C124	C	0.625240	0.375103	0.017369
	C125	C	0.624632	0.618034	1.001496
	C126	C	0.380892	0.618645	0.017741
	C127	C	0.381188	0.374050	1.001314
	C128	C	0.011676	0.617252	0.389379
	C129	C	0.995379	0.618941	0.631605
	C130	C	0.012471	0.375539	0.630492
	C131	C	0.994965	0.374786	0.386335
	C132	C	0.883567	0.505690	0.129429
	C133	C	0.124568	0.489323	0.131030
	C134	C	0.123099	0.506007	0.889114
	C135	C	0.881696	0.488659	0.886819
	C136	C	0.126774	0.875117	0.517579
	C137	C	0.126173	0.117974	0.499439
	C138	C	0.882079	0.118811	0.516982
	C139	C	0.883996	0.876924	0.501931
	C140	C	0.513063	0.115850	0.888966
	C141	C	0.495603	0.117715	0.131499
	C142	C	0.512236	0.875919	0.129470
	C143	C	0.495391	0.873822	0.886323
	C144	C	0.380363	0.885811	0.690014
	C145	C	0.628448	0.106739	0.691313
	C146	C	0.631569	0.886557	0.325028
	C147	C	0.381478	0.106564	0.327806
	C148	C	0.685223	0.372329	0.899402
	C149	C	0.686194	0.622841	0.118422
	C150	C	0.319926	0.621264	0.900320
	C151	C	0.321568	0.373716	0.119401
	C152	C	0.893772	0.679520	0.386172
	C153	C	0.114247	0.678640	0.633789
	C154	C	0.892603	0.317755	0.630096
	C155	C	0.114930	0.316151	0.385863
	C156	C	0.893244	0.374430	0.689386
	C157	C	0.113730	0.621307	0.692030
	C158	C	0.894182	0.622739	0.327352
	C159	C	0.113715	0.371869	0.326308
	C160	C	0.378290	0.678483	0.899993
	C161	C	0.627276	0.679765	0.118811
	C162	C	0.627094	0.314312	0.899287
	C163	C	0.380257	0.315746	0.119849
	C164	C	0.688457	0.886606	0.383281
	C165	C	0.684199	0.107894	0.631736
	C166	C	0.323426	0.885496	0.631764
	C167	C	0.324247	0.107099	0.385897
	C168	C	0.880638	0.386789	0.189137
	C169	C	0.128083	0.607961	0.192508
	C170	C	0.125295	0.386458	0.829312
	C171	C	0.877595	0.607308	0.826491
	C172	C	0.185856	0.872615	0.398972
	C173	C	0.183818	0.119119	0.618538
	C174	C	0.823292	0.119161	0.398462
	C175	C	0.822685	0.874046	0.619183
	C176	C	0.392390	0.172989	0.890179
	C177	C	0.614979	0.176897	0.132252
	C178	C	0.392502	0.817469	0.130147
	C179	C	0.614718	0.814148	0.885721
	C180	C	0.394074	0.872406	0.190643
	C181	C	0.614937	0.119271	0.190081
	C182	C	0.393402	0.116207	0.830925
	C183	C	0.615009	0.871421	0.827507
	C184	C	0.882816	0.175504	0.397472
	C185	C	0.124971	0.176427	0.618751
	C186	C	0.128055	0.814202	0.399749
	C187	C	0.881412	0.817138	0.619764
	C188	C	0.182062	0.386078	0.887708
	C189	C	0.184021	0.608846	0.132951
	C190	C	0.824203	0.386238	0.130243
	C191	C	0.821063	0.607749	0.885199
	C192	C	0.408246	0.087776	0.606242
	C193	C	0.600324	0.905392	0.604007
	C194	C	0.599013	0.086500	0.413381
	C195	C	0.409090	0.904288	0.412238
	C196	C	0.600344	0.400799	0.099430
	C197	C	0.598892	0.591556	0.919711
	C198	C	0.406079	0.593689	0.099829
	C199	C	0.405225	0.397721	0.918610
	C200	C	0.093818	0.590788	0.414722
	C201	C	0.913166	0.593282	0.605775
	C202	C	0.095890	0.399922	0.606673
	C203	C	0.912157	0.399598	0.410736
	C204	C	0.908511	0.588946	0.105148
	C205	C	0.098647	0.406602	0.105387
	C206	C	0.098047	0.589220	0.913609
	C207	C	0.907406	0.405748	0.911559
	C208	C	0.102018	0.901108	0.599923
	C209	C	0.102836	0.093523	0.416462
	C210	C	0.905756	0.095303	0.599987
	C211	C	0.909652	0.902456	0.420180
	C212	C	0.596532	0.091734	0.912664
	C213	C	0.412600	0.092847	0.107267
	C214	C	0.594720	0.901627	0.103918
	C215	C	0.412718	0.899595	0.910847
	Zn216	Zn	0.505119	-0.004649	0.758487
	Zn217	Zn	0.505017	-0.004509	0.259303
	Zn218	Zn	0.754411	0.497507	0.008914
	Zn219	Zn	0.252340	0.497709	0.009334
	Zn220	Zn	0.004102	0.746684	0.509902
	Zn221	Zn	0.004124	0.247092	0.508105
	Zn222	Zn	0.003124	0.497443	0.759507
	Zn223	Zn	0.003918	0.497625	0.259197
	Zn224	Zn	0.503034	0.746961	0.008738
	Zn225	Zn	0.504280	0.245268	0.009628
	Zn226	Zn	0.753539	-0.003128	0.509014
	Zn227	Zn	0.255479	-0.003650	0.508739
	N228	N	0.417181	0.960717	0.689217
	N229	N	0.592879	0.031053	0.690335
	N230	N	0.593104	0.960727	0.327552
	N231	N	0.417781	0.031042	0.328562
	N232	N	0.684213	0.409578	0.973680
	N233	N	0.684720	0.585146	0.044260
	N234	N	0.321377	0.584753	0.974634
	N235	N	0.321786	0.409171	0.044581
	N236	N	0.967776	0.676179	0.424042
	N237	N	0.039473	0.677482	0.597195
	N238	N	0.967788	0.318273	0.594058
	N239	N	0.040090	0.317797	0.422352
	N240	N	0.968749	0.409670	0.689619
	N241	N	0.038601	0.585248	0.691144
	N242	N	0.968471	0.584416	0.329307
	N243	N	0.038131	0.407643	0.326225
	N244	N	0.415347	0.677002	0.974106
	N245	N	0.589624	0.676740	0.045033
	N246	N	0.590396	0.316037	0.973689
	N247	N	0.416764	0.316046	0.045447
	N248	N	0.684936	0.960905	0.421469
	N249	N	0.682430	0.033250	0.594135
	N250	N	0.325166	0.960499	0.595243
	N251	N	0.325719	0.032001	0.422398
	N252	N	0.916612	0.462170	0.188984
	N253	N	0.092057	0.532473	0.191402
	N254	N	0.089350	0.462048	0.829903
	N255	N	0.914795	0.532211	0.827498
	N256	N	0.185159	0.909577	0.473420
	N257	N	0.184911	0.083685	0.543388
	N258	N	0.822501	0.085044	0.473958
	N259	N	0.823992	0.910383	0.544750
	N260	N	0.467925	0.173071	0.925279
	N261	N	0.539627	0.176387	0.096812
	N262	N	0.467158	0.819323	0.093020
	N263	N	0.539340	0.815128	0.921210
	N264	N	0.469596	0.907868	0.190491
	N265	N	0.539675	0.083459	0.189928
	N266	N	0.469524	0.081831	0.829826
	N267	N	0.539771	0.907680	0.827584
	N268	N	0.918542	0.175540	0.472287
	N269	N	0.090091	0.175996	0.543513
	N270	N	0.092340	0.815500	0.474656
	N271	N	0.918998	0.818877	0.545944
	N272	N	0.181212	0.461582	0.923824
	N273	N	0.182096	0.533868	0.095635
	N274	N	0.825753	0.461432	0.093943
	N275	N	0.823468	0.532802	0.921729
	O276	O	0.522061	0.711077	0.371711
	H277	H	0.524015	0.698282	0.378565
	H278	H	0.547299	0.714593	0.376919
	O279	O	0.305111	0.694954	0.307027
	H280	H	0.325468	0.700967	0.329463
	H281	H	0.324004	0.684676	0.318989
	O282	O	0.983041	1.195951	-0.191397
	H283	H	0.980781	1.180407	-0.197127
	H284	H	0.989359	1.205021	-0.182438
	O285	O	0.488428	0.513428	0.673449
	H286	H	0.470828	0.500322	0.682335
	H287	H	0.499170	0.505332	0.676650
	O288	O	-0.136814	-0.020580	-0.111932
	H289	H	-0.139966	-0.032638	-0.103540
	H290	H	-0.140723	-0.019364	-0.118916
	O291	O	0.517185	0.323284	0.723316
	H292	H	0.524587	0.305338	0.728198
	H293	H	0.500529	0.329792	0.722685
	O294	O	0.196096	0.805967	-0.123834
	H295	H	0.204562	0.785110	-0.131921
	H296	H	0.201844	0.802921	-0.095137
	O297	O	0.479547	0.400459	0.390482
	H298	H	0.479130	0.398233	0.400768
	H299	H	0.456472	0.388937	0.380775
	O300	O	0.544765	0.566116	0.396022
	H301	H	0.536466	0.555697	0.401977
	H302	H	0.543539	0.576426	0.398399
	O303	O	0.651077	0.505066	0.587053
	H304	H	0.651575	0.500277	0.569764
	H305	H	0.655739	0.522582	0.586458
	O306	O	-0.039684	0.938926	0.876232
	H307	H	-0.052967	0.935377	0.859703
	H308	H	-0.043655	0.951184	0.883276
	O309	O	0.463171	0.287018	0.464228
	H310	H	0.478366	0.296182	0.449660
	H311	H	0.472927	0.289337	0.467513
	O312	O	0.531089	0.715060	0.727551
	H313	H	0.522410	0.703636	0.736305
	H314	H	0.528082	0.730590	0.751977
	O315	O	0.216969	0.206291	1.094375
	H316	H	0.212510	0.188246	1.127847
	H317	H	0.242617	0.233335	1.105652
	O318	O	-0.126443	1.111231	0.057921
	H319	H	-0.121733	1.121484	0.035886
	H320	H	-0.129711	1.122066	0.071997
	O321	O	0.569630	0.361333	0.618013
	H322	H	0.552047	0.364489	0.621034
	H323	H	0.569413	0.355308	0.624815
	O324	O	0.903578	0.003446	0.932555
	H325	H	0.900204	-0.011392	0.942008
	H326	H	0.910643	-0.004246	0.934313
	O327	O	1.000857	-0.158624	1.021318
	H328	H	0.993267	-0.158325	1.019251
	H329	H	1.007850	-0.151416	1.019258
	O330	O	0.592088	0.419674	-0.419096
	H331	H	0.595682	0.435924	-0.426166
	H332	H	0.592438	0.411798	-0.431860
	O333	O	1.038628	0.960299	0.907824
	H334	H	1.054710	0.946137	0.916669
	H335	H	1.040440	0.944192	0.895994
	O336	O	0.807365	-0.007580	1.178167
	H337	H	0.803932	-0.012947	1.182279
	H338	H	0.812795	-0.004813	1.180704
	O339	O	0.661900	0.272020	0.500616
	H340	H	0.681748	0.254732	0.500193
	H341	H	0.653947	0.274566	0.492738
	O342	O	0.716853	0.709271	0.535340
	H343	H	0.713709	0.688938	0.553155
	H344	H	0.736961	0.731781	0.531102
	O345	O	0.157462	0.049152	-0.021683
	H346	H	0.157245	0.060543	-0.031703
	H347	H	0.159143	0.060078	-0.008346
	O348	O	0.940578	-0.103136	1.193157
	H349	H	0.925423	-0.081473	1.192079
	H350	H	0.919369	-0.115629	1.175871
	O351	O	0.913784	1.044067	0.183382
	H352	H	0.923102	1.046773	0.177654
	H353	H	0.918837	1.052076	0.182253
	O354	O	0.289158	0.517539	0.295285
	H355	H	0.274143	0.536843	0.282636
	H356	H	0.291457	0.528180	0.300273
	O357	O	0.887150	1.151581	0.975039
	H358	H	0.865785	1.148641	0.959344
	H359	H	0.886398	1.143290	0.965500
	O360	O	0.299643	0.523961	0.547367
	H361	H	0.307043	0.512177	0.545464
	H362	H	0.310236	0.513977	0.544023
	O363	O	0.498427	0.463558	0.534874
	H364	H	0.506916	0.463274	0.521862
	H365	H	0.506411	0.464011	0.539809
	O366	O	1.257521	0.249360	0.754128
	H367	H	1.226654	0.226632	0.777553
	H368	H	1.264717	0.229051	0.734626
	O369	O	0.364123	0.546882	0.693680
	H370	H	0.371722	0.521237	0.687317
	H371	H	0.341725	0.534489	0.701990
	O372	O	0.569360	0.616539	0.363904
	H373	H	0.576902	0.616929	0.375864
	H374	H	0.574421	0.630029	0.367308
	O375	O	0.034430	1.209883	1.221956
	H376	H	0.041618	1.217333	1.214560
	H377	H	0.030192	1.228756	1.237637
	O378	O	1.076195	0.142667	0.009742
	H379	H	1.095072	0.148059	0.016891
	H380	H	1.081980	0.147369	0.019405
	O381	O	1.180420	0.126922	0.158657
	H382	H	1.187587	0.109016	0.168845
	H383	H	1.166028	0.111147	0.167136
	O384	O	-0.186208	0.115833	1.083101
	H385	H	-0.180388	0.115979	1.073075
	H386	H	-0.174917	0.113187	1.073558
	O387	O	-0.180854	1.188029	0.824122
	H388	H	-0.198505	1.182107	0.798405
	H389	H	-0.141928	1.189467	0.828187
	O390	O	0.010810	-0.158811	1.212354
	H391	H	-0.002500	-0.142793	1.208901
	H392	H	0.010052	-0.176369	1.219154
	O393	O	1.131803	1.078274	-0.115282
	H394	H	1.133777	1.062972	-0.101790
	H395	H	1.110315	1.072482	-0.100712
	O396	O	0.497548	0.565005	0.559478
	H397	H	0.492509	0.571875	0.552292
	H398	H	0.505790	0.558795	0.564666
	O399	O	0.317517	0.381453	0.367034
	H400	H	0.309341	0.379956	0.372662
	H401	H	0.317562	0.390271	0.369501
	O402	O	0.027480	-0.221139	0.795918
	H403	H	0.034333	-0.238975	0.777552
	H404	H	0.048725	-0.224401	0.790051
	O405	O	0.197265	-0.068351	-0.181378
	H406	H	0.208017	-0.069221	-0.188235
	H407	H	0.202788	-0.082387	-0.164236
	O408	O	0.722019	0.474170	0.290578
	H409	H	0.729182	0.454297	0.287543
	H410	H	0.734094	0.449969	0.279291
	O411	O	0.395347	0.490961	0.502498
	H412	H	0.405411	0.477918	0.506782
	H413	H	0.406570	0.490562	0.490811
	O414	O	0.533972	0.276612	0.293468
	H415	H	0.545131	0.262166	0.279077
	H416	H	0.520588	0.280463	0.278070
	O417	O	0.717662	0.287372	0.366186
	H418	H	0.712625	0.281550	0.368813
	H419	H	0.733561	0.267980	0.347956
	O420	O	0.541986	0.683600	0.461200
	H421	H	0.543123	0.684349	0.475718
	H422	H	0.546027	0.678230	0.446334
	O423	O	0.056458	1.083696	0.019538
	H424	H	0.066122	1.086170	0.021694
	H425	H	0.057881	1.089620	0.022639
	O426	O	0.710619	1.526824	0.716074
	H427	H	0.706884	1.529054	0.707816
	H428	H	0.724895	1.525918	0.729293
	O429	O	0.139492	0.843376	-0.056621
	H430	H	0.140148	0.824473	-0.042118
	H431	H	0.138945	0.848568	-0.047308
	O432	O	0.292019	0.405625	0.723040
	H433	H	0.275519	0.392317	0.717185
	H434	H	0.281292	0.368064	0.729953
	O435	O	0.194344	-0.000924	0.167599
	H436	H	0.202204	-0.020379	0.176312
	H437	H	0.188100	-0.006910	0.159248
	O438	O	0.916332	-0.213859	-0.022457
	H439	H	0.923223	-0.215450	-0.031761
	H440	H	0.919830	-0.212880	-0.039180
	O441	O	0.480772	0.622538	0.491786
	H442	H	0.484211	0.641702	0.484444
	H443	H	0.473538	0.621472	0.509965
	O444	O	0.141428	0.878580	1.184797
	H445	H	0.147278	0.861655	1.197516
	H446	H	0.121147	0.881096	1.187591
	O447	O	0.731448	0.605434	0.395367
	H448	H	0.717139	0.608013	0.406879
	H449	H	0.735068	0.602157	0.396615
	O450	O	0.291226	0.287566	0.545565
	H451	H	0.285256	0.277928	0.541179
	H452	H	0.305906	0.275380	0.527358
	O453	O	0.287875	0.714335	0.475891
	H454	H	0.274748	0.723902	0.480265
	H455	H	0.276248	0.714611	0.493828
	O456	O	0.838791	0.153883	-0.156770
	H457	H	0.821298	0.170670	-0.165617
	H458	H	0.828228	0.154932	-0.176063
	O459	O	0.449019	0.459162	0.302720
	H460	H	0.464984	0.476289	0.302196
	H461	H	0.448939	0.471777	0.303960
	O462	O	0.694824	0.690176	0.695338
	H463	H	0.686413	0.661235	0.701867
	H464	H	0.673967	0.693372	0.681790
	O465	O	0.811342	-0.201633	0.078451
	H466	H	0.796111	-0.211073	0.080831
	H467	H	0.823665	-0.201870	0.063115
