data_Molecule from HDF5

_cell_length_a		16.768086
_cell_length_b		16.606601
_cell_length_c		16.538796
_cell_angle_alpha	89.893799
_cell_angle_beta	89.901963
_cell_angle_gamma	90.076103
_symmetry_space_group_name_H-M	'P 1'
_symmetry_Int_Tables_number		1

loop_
	_symmetry_equiv_pos_as_xyz
	x,y,z

loop_
	_atom_site_label
	_atom_site_type_symbol
	_atom_site_fract_x
	_atom_site_fract_y
	_atom_site_fract_z
	H0	H	0.411794	0.830613	0.723512
	H1	H	0.624345	0.138760	0.723456
	H2	H	0.619979	0.826715	0.283636
	H3	H	0.416790	0.141596	0.282942
	H4	H	0.740181	0.377946	0.846496
	H5	H	0.743767	0.595461	0.154359
	H6	H	0.300099	0.587919	0.844500
	H7	H	0.299561	0.380308	0.159618
	H8	H	0.866480	0.709925	0.392142
	H9	H	0.172056	0.707299	0.608639
	H10	H	0.863221	0.263283	0.605750
	H11	H	0.171084	0.260480	0.394212
	H12	H	0.862856	0.380692	0.721239
	H13	H	0.173580	0.588849	0.722732
	H14	H	0.868115	0.595044	0.274424
	H15	H	0.170934	0.376504	0.277528
	H16	H	0.414747	0.704000	0.844836
	H17	H	0.624093	0.706596	0.156745
	H18	H	0.623631	0.263323	0.846657
	H19	H	0.417289	0.266651	0.160442
	H20	H	0.738864	0.827896	0.396524
	H21	H	0.742836	0.137271	0.608905
	H22	H	0.293687	0.832003	0.609604
	H23	H	0.297413	0.140546	0.395981
	H24	H	0.911451	0.330482	0.224996
	H25	H	0.125260	0.638944	0.223320
	H26	H	0.118368	0.324933	0.786093
	H27	H	0.919188	0.641626	0.784238
	H28	H	0.239431	0.879827	0.345936
	H29	H	0.238255	0.090694	0.656472
	H30	H	0.796683	0.089922	0.345738
	H31	H	0.794663	0.876656	0.656338
	H32	H	0.364977	0.207738	0.896267
	H33	H	0.674401	0.204638	0.106338
	H34	H	0.362669	0.764491	0.105591
	H35	H	0.670125	0.760061	0.892986
	H36	H	0.362401	0.882324	0.221018
	H37	H	0.674614	0.086456	0.221532
	H38	H	0.366694	0.095541	0.776823
	H39	H	0.671189	0.878707	0.778660
	H40	H	0.912027	0.205933	0.345640
	H41	H	0.117790	0.200556	0.659260
	H42	H	0.124030	0.763935	0.346205
	H43	H	0.913985	0.763424	0.657517
	H44	H	0.237551	0.326593	0.898418
	H45	H	0.242427	0.638586	0.109272
	H46	H	0.792983	0.332423	0.111824
	H47	H	0.799284	0.640514	0.896649
	H48	H	0.421747	0.097578	0.586677
	H49	H	0.603926	0.875017	0.584756
	H50	H	0.612206	0.098123	0.411060
	H51	H	0.421273	0.870738	0.412461
	H52	H	0.609002	0.392325	0.116453
	H53	H	0.611113	0.564395	0.891350
	H54	H	0.429144	0.575051	0.114773
	H55	H	0.421432	0.398999	0.889417
	H56	H	0.127519	0.569348	0.414220
	H57	H	0.908960	0.574681	0.588124
	H58	H	0.129308	0.394033	0.594372
	H59	H	0.907244	0.398280	0.411255
	H60	H	0.132034	0.389646	0.594776
	H61	H	0.908048	0.570327	0.593858
	H62	H	0.128941	0.574364	0.413379
	H63	H	0.906841	0.392864	0.415703
	H64	H	0.426132	0.571948	0.115287
	H65	H	0.598709	0.571206	0.892784
	H66	H	0.611383	0.403013	0.113097
	H67	H	0.434470	0.397596	0.892988
	H68	H	0.605091	0.095136	0.411150
	H69	H	0.610934	0.870836	0.589158
	H70	H	0.432500	0.098221	0.595304
	H71	H	0.431191	0.871797	0.408752
	H72	H	0.931752	0.596088	0.091733
	H73	H	0.109364	0.372961	0.089110
	H74	H	0.113906	0.597926	0.908715
	H75	H	0.931834	0.371860	0.908089
	H76	H	0.109813	0.898852	0.613818
	H77	H	0.107733	0.070547	0.388944
	H78	H	0.930748	0.070424	0.611498
	H79	H	0.927825	0.898268	0.388975
	H80	H	0.626059	0.065655	0.912568
	H81	H	0.407165	0.076521	0.093194
	H82	H	0.631966	0.889251	0.094859
	H83	H	0.409318	0.900451	0.914737
	H84	H	0.627590	0.892655	0.086190
	H85	H	0.407963	0.074657	0.091523
	H86	H	0.631176	0.077099	0.910240
	H87	H	0.405687	0.895493	0.909466
	H88	H	0.929493	0.074180	0.614313
	H89	H	0.105690	0.075616	0.388304
	H90	H	0.104010	0.899001	0.611827
	H91	H	0.931859	0.897677	0.390795
	H92	H	0.106920	0.595694	0.910159
	H93	H	0.106623	0.372264	0.089958
	H94	H	0.936080	0.592176	0.085266
	H95	H	0.926879	0.373540	0.918911
	H96	H	0.434480	0.092622	0.582534
	H97	H	0.603193	0.872945	0.593749
	H98	H	0.609584	0.094015	0.417117
	H99	H	0.428674	0.874896	0.419404
	H100	H	0.600873	0.398432	0.111079
	H101	H	0.610294	0.577919	0.886516
	H102	H	0.430203	0.571026	0.112853
	H103	H	0.427857	0.387439	0.886675
	H104	H	0.126597	0.572803	0.418043
	H105	H	0.906445	0.577553	0.594375
	H106	H	0.129434	0.390846	0.590718
	H107	H	0.910988	0.398317	0.417249
	H108	H	0.928993	0.595827	0.083163
	H109	H	0.106949	0.373373	0.087986
	H110	H	0.112054	0.594912	0.915205
	H111	H	0.920444	0.368695	0.910069
	H112	H	0.105882	0.894447	0.614516
	H113	H	0.110690	0.074577	0.386681
	H114	H	0.926590	0.070615	0.614148
	H115	H	0.929380	0.894741	0.389424
	H116	H	0.625505	0.074635	0.921472
	H117	H	0.407478	0.074067	0.094017
	H118	H	0.629032	0.899174	0.094398
	H119	H	0.407322	0.893011	0.916740
	C120	C	0.396356	-0.005881	0.622085
	C121	C	0.639514	0.975362	0.622790
	C122	C	0.639720	-0.007458	0.380872
	C123	C	0.396428	0.976218	0.380842
	C124	C	0.639790	0.364372	0.010666
	C125	C	0.639183	0.605458	0.992920
	C126	C	0.397245	0.604553	0.010277
	C127	C	0.397327	0.363163	0.993919
	C128	C	0.027129	0.606101	0.380664
	C129	C	1.010391	0.605952	0.623745
	C130	C	0.026935	0.361569	0.623576
	C131	C	1.009868	0.362999	0.380700
	C132	C	0.897832	0.493412	0.122206
	C133	C	0.140206	0.475380	0.122244
	C134	C	0.140236	0.492001	0.880623
	C135	C	0.896477	0.475241	0.880364
	C136	C	0.139125	0.864650	0.510445
	C137	C	0.138679	0.105521	0.492072
	C138	C	0.896657	0.104466	0.510087
	C139	C	0.896894	0.863390	0.492904
	C140	C	0.527005	0.106722	0.880736
	C141	C	0.510581	0.106091	0.124196
	C142	C	0.526545	0.862647	0.123307
	C143	C	0.509313	0.863496	0.880664
	C144	C	0.393504	0.877420	0.683266
	C145	C	0.642729	0.092002	0.683409
	C146	C	0.639597	0.874104	0.322466
	C147	C	0.396963	0.094178	0.321928
	C148	C	0.700291	0.360463	0.893661
	C149	C	0.701519	0.611233	0.108867
	C150	C	0.339148	0.606225	0.892010
	C151	C	0.339112	0.361851	0.112436
	C152	C	0.912539	0.668681	0.375349
	C153	C	0.126289	0.666094	0.625801
	C154	C	0.909842	0.303269	0.624520
	C155	C	0.125041	0.301089	0.376450
	C156	C	0.909575	0.361522	0.681966
	C157	C	0.126795	0.607184	0.682815
	C158	C	0.913111	0.611379	0.316886
	C159	C	0.124887	0.358872	0.318494
	C160	C	0.396486	0.663889	0.892053
	C161	C	0.642493	0.666835	0.109686
	C162	C	0.642106	0.303617	0.893526
	C163	C	0.397594	0.305414	0.113102
	C164	C	0.698522	0.874630	0.378685
	C165	C	0.701323	0.091383	0.626432
	C166	C	0.334846	0.878020	0.626721
	C167	C	0.337806	0.093911	0.378160
	C168	C	0.893491	0.377322	0.184650
	C169	C	0.143138	0.592286	0.183017
	C170	C	0.138730	0.372881	0.823875
	C171	C	0.898415	0.593992	0.822494
	C172	C	0.199478	0.861551	0.392895
	C173	C	0.197445	0.107834	0.610255
	C174	C	0.836488	0.107806	0.392720
	C175	C	0.835932	0.859228	0.610003
	C176	C	0.411607	0.168099	0.877550
	C177	C	0.627676	0.164717	0.125011
	C178	C	0.409338	0.804350	0.124287
	C179	C	0.624424	0.801554	0.876121
	C180	C	0.409208	0.862668	0.181735
	C181	C	0.627787	0.105983	0.182394
	C182	C	0.412272	0.111947	0.818378
	C183	C	0.624733	0.860343	0.819012
	C184	C	0.893792	0.165465	0.392603
	C185	C	0.137768	0.162611	0.611442
	C186	C	0.141932	0.804206	0.392943
	C187	C	0.894744	0.803015	0.610561
	C188	C	0.197954	0.373514	0.879748
	C189	C	0.201476	0.591895	0.126105
	C190	C	0.834833	0.378053	0.128158
	C191	C	0.839022	0.593540	0.878497
	C192	C	0.422117	0.075068	0.595535
	C193	C	0.613362	0.894050	0.596655
	C194	C	0.615884	0.074469	0.406089
	C195	C	0.420134	0.893852	0.406368
	C196	C	0.614214	0.390516	0.092384
	C197	C	0.613811	0.578600	0.911548
	C198	C	0.421654	0.579823	0.092770
	C199	C	0.421160	0.387541	0.911184
	C200	C	0.106833	0.579576	0.407527
	C201	C	0.929152	0.581191	0.599009
	C202	C	0.108946	0.384817	0.599968
	C203	C	0.929225	0.389105	0.407249
	C204	C	0.924675	0.573875	0.094506
	C205	C	0.114623	0.394025	0.096490
	C206	C	0.117579	0.574538	0.904472
	C207	C	0.919730	0.392731	0.905263
	C208	C	0.113819	0.890226	0.592065
	C209	C	0.114904	0.080845	0.409474
	C210	C	0.921743	0.079207	0.591926
	C211	C	0.922369	0.889521	0.410967
	C212	C	0.606917	0.079927	0.907105
	C213	C	0.428751	0.082081	0.099924
	C214	C	0.608116	0.886732	0.098930
	C215	C	0.428470	0.888943	0.906513
	Zn216	Zn	0.517307	-0.014693	0.751178
	Zn217	Zn	0.518218	-0.016094	0.252878
	Zn218	Zn	0.768426	0.485616	0.001966
	Zn219	Zn	0.269037	0.482923	0.001494
	Zn220	Zn	0.018677	0.735904	0.501963
	Zn221	Zn	0.017784	0.232961	0.501267
	Zn222	Zn	0.018722	0.483080	0.752366
	Zn223	Zn	0.018881	0.484434	0.251488
	Zn224	Zn	0.518122	0.733373	0.002015
	Zn225	Zn	0.518726	0.235576	0.002777
	Zn226	Zn	0.768549	-0.016451	0.501411
	Zn227	Zn	0.267073	-0.014110	0.501265
	N228	N	0.431066	0.950732	0.680772
	N229	N	0.604957	0.018739	0.681107
	N230	N	0.603807	0.948440	0.323510
	N231	N	0.432583	0.019685	0.323422
	N232	N	0.698867	0.397745	0.967723
	N233	N	0.699643	0.573586	0.035186
	N234	N	0.339211	0.570092	0.966800
	N235	N	0.338723	0.396807	0.037197
	N236	N	0.984520	0.665667	0.414292
	N237	N	0.052737	0.665449	0.589645
	N238	N	0.983807	0.303129	0.588905
	N239	N	0.052400	0.303586	0.414378
	N240	N	0.983514	0.397050	0.681634
	N241	N	0.053598	0.570342	0.681764
	N242	N	0.985416	0.572970	0.319966
	N243	N	0.052036	0.396654	0.320916
	N244	N	0.431821	0.663093	0.966906
	N245	N	0.604370	0.663504	0.036496
	N246	N	0.604976	0.305982	0.967522
	N247	N	0.432835	0.305819	0.038212
	N248	N	0.699120	0.949313	0.414161
	N249	N	0.699680	0.017386	0.589686
	N250	N	0.336116	0.951820	0.589665
	N251	N	0.337183	0.019267	0.413952
	N252	N	0.932273	0.450130	0.180990
	N253	N	0.105487	0.518869	0.180701
	N254	N	0.103603	0.447538	0.824012
	N255	N	0.933236	0.519121	0.823221
	N256	N	0.198116	0.898355	0.467132
	N257	N	0.198342	0.073249	0.534815
	N258	N	0.838105	0.070459	0.466745
	N259	N	0.836967	0.895729	0.535505
	N260	N	0.484105	0.165291	0.915639
	N261	N	0.553483	0.165307	0.089933
	N262	N	0.483338	0.804041	0.088937
	N263	N	0.551525	0.803383	0.913825
	N264	N	0.483271	0.898129	0.181480
	N265	N	0.553809	0.070354	0.182030
	N266	N	0.485026	0.074388	0.820062
	N267	N	0.552017	0.898062	0.821561
	N268	N	0.930716	0.163520	0.466613
	N269	N	0.102375	0.161694	0.536668
	N270	N	0.105120	0.805827	0.467110
	N271	N	0.931777	0.805207	0.536515
	N272	N	0.199383	0.448764	0.914160
	N273	N	0.200010	0.517967	0.089135
	N274	N	0.837435	0.451307	0.089883
	N275	N	0.837386	0.518472	0.913356
	O276	O	-0.095453	0.884465	0.024384
	H277	H	-0.111436	0.892628	0.021081
	H278	H	-0.085173	0.893862	0.011120
	O279	O	-0.171996	0.785030	0.057361
	H280	H	-0.183724	0.769144	0.053496
	H281	H	-0.185968	0.783274	0.076952
	O282	O	1.244441	0.202881	1.041350
	H283	H	1.269331	0.227398	1.039388
	H284	H	1.241530	0.197165	1.071143
	O285	O	0.344715	0.536648	0.624011
	H286	H	0.353593	0.547455	0.626346
	H287	H	0.329300	0.532203	0.636109
	O288	O	0.295847	0.699035	0.472561
	H289	H	0.306608	0.709450	0.471288
	H290	H	0.291724	0.706368	0.477248
	O291	O	0.716925	0.306182	0.461591
	H292	H	0.712773	0.303579	0.476524
	H293	H	0.714405	0.309035	0.476529
	O294	O	1.052394	0.200773	1.213580
	H295	H	1.058338	0.224204	1.232865
	H296	H	1.066872	0.185706	1.219256
	O297	O	0.024535	0.922907	-0.158795
	H298	H	0.026650	0.924970	-0.144027
	H299	H	0.020166	0.919620	-0.161662
	O300	O	-0.033875	0.055810	1.221622
	H301	H	-0.032434	0.033178	1.223288
	H302	H	-0.018275	0.063813	1.210250
	O303	O	0.481529	0.684105	0.543095
	H304	H	0.507462	0.683159	0.549785
	H305	H	0.488123	0.679229	0.535200
	O306	O	0.463508	0.542039	0.587555
	H307	H	0.456847	0.540012	0.587731
	H308	H	0.459031	0.549514	0.576506
	O309	O	0.328994	0.295689	0.314482
	H310	H	0.325264	0.294481	0.317055
	H311	H	0.328529	0.319743	0.339799
	O312	O	0.711501	0.288299	0.694111
	H313	H	0.691487	0.313526	0.681933
	H314	H	0.691676	0.299581	0.669961
	O315	O	0.805566	0.939100	0.949240
	H316	H	0.806603	0.929050	0.975304
	H317	H	0.797856	0.951408	0.935892
	O318	O	0.556565	0.261005	0.281168
	H319	H	0.572031	0.246574	0.258241
	H320	H	0.580784	0.258104	0.273120
	O321	O	0.015083	1.100951	0.845618
	H322	H	0.002408	1.121022	0.834471
	H323	H	0.023063	1.099689	0.860576
	O324	O	1.246508	0.974829	-0.186632
	H325	H	1.266119	0.967672	-0.215355
	H326	H	1.232062	0.983383	-0.184085
	O327	O	0.096574	-0.118373	1.216786
	H328	H	0.089495	-0.123366	1.210341
	H329	H	0.091816	-0.141336	1.231555
	O330	O	0.509279	0.448963	0.281243
	H331	H	0.493955	0.442169	0.295430
	H332	H	0.489910	0.432397	0.268943
	O333	O	-0.015506	0.900280	0.804780
	H334	H	-0.002928	0.906373	0.813343
	H335	H	-0.015940	0.907200	0.793567
	O336	O	0.574994	0.717277	0.458849
	H337	H	0.571135	0.699996	0.453463
	H338	H	0.582435	0.722964	0.451510
	O339	O	0.832096	0.168118	1.188006
	H340	H	0.839094	0.146722	1.169593
	H341	H	0.861621	0.157319	1.175349
	O342	O	-0.039401	0.165498	0.051988
	H343	H	-0.036678	0.177429	0.049333
	H344	H	-0.041908	0.170234	0.044686
	O345	O	-0.089367	0.842776	1.208856
	H346	H	-0.108323	0.809988	1.218172
	H347	H	-0.090351	0.851103	1.200014
	O348	O	-0.191860	0.190954	-0.202349
	H349	H	-0.215322	0.192854	-0.224990
	H350	H	-0.208987	0.190692	-0.197740
	O351	O	0.579949	0.253808	0.521640
	H352	H	0.570716	0.249235	0.511349
	H353	H	0.582390	0.268872	0.517758
	O354	O	0.074004	-0.084420	1.202124
	H355	H	0.048204	-0.087731	1.196480
	H356	H	0.057907	-0.091486	1.193397
	O357	O	0.513773	0.480510	0.450512
	H358	H	0.510749	0.479823	0.442355
	H359	H	0.505685	0.474551	0.446877
	O360	O	0.292569	0.456996	0.723215
	H361	H	0.287772	0.431643	0.726353
	H362	H	0.285472	0.453300	0.745844
	O363	O	0.304507	0.276416	0.549311
	H364	H	0.286980	0.259820	0.556117
	H365	H	0.303413	0.281510	0.556586
	O366	O	0.226554	-0.019887	0.078281
	H367	H	0.235335	-0.020298	0.063656
	H368	H	0.234882	-0.010768	0.073300
	O369	O	0.617583	0.386693	0.626089
	H370	H	0.611697	0.390045	0.645503
	H371	H	0.615054	0.405908	0.606174
	O372	O	1.242548	0.757104	-0.031240
	H373	H	1.257827	0.754838	-0.048052
	H374	H	1.256320	0.742163	-0.047548
	O375	O	1.004960	-0.183037	-0.009086
	H376	H	1.008356	-0.184458	-0.011250
	H377	H	1.011080	-0.173831	-0.015701
	O378	O	0.104325	1.183010	0.952329
	H379	H	0.130264	1.196092	0.971964
	H380	H	0.091651	1.190149	0.938164
	O381	O	0.209600	0.793418	1.194214
	H382	H	0.180326	0.812201	1.186777
	H383	H	0.199927	0.811011	1.167431
	O384	O	0.120739	-0.032840	-0.076393
	H385	H	0.116055	-0.022407	-0.071012
	H386	H	0.122111	-0.031632	-0.081937
	O387	O	1.345522	1.441558	0.399092
	H388	H	1.334598	1.446148	0.402539
	H389	H	1.334090	1.455884	0.398699
	O390	O	0.306880	0.689962	0.294127
	H391	H	0.285171	0.716550	0.293696
	H392	H	0.308717	0.705571	0.302404
	O393	O	0.482696	0.277426	0.698836
	H394	H	0.492511	0.302803	0.688177
	H395	H	0.489515	0.257680	0.711885
	O396	O	-0.473556	0.573701	0.710910
	H397	H	-0.455113	0.579479	0.707321
	H398	H	-0.459566	0.591492	0.710510
	O399	O	-0.202762	-0.041174	1.220111
	H400	H	-0.221592	-0.050353	1.232225
	H401	H	-0.192615	-0.050822	1.223962
	O402	O	0.729276	0.270618	0.288505
	H403	H	0.742937	0.260709	0.311668
	H404	H	0.750454	0.250287	0.282824
	O405	O	1.072259	-0.040886	0.962759
	H406	H	1.077189	-0.038530	0.964320
	H407	H	1.073452	-0.030173	0.971883
	O408	O	0.213428	0.006978	-0.122657
	H409	H	0.204884	0.012743	-0.144597
	H410	H	0.204515	0.020163	-0.110000
	O411	O	0.591810	0.517108	0.642586
	H412	H	0.589796	0.535626	0.631421
	H413	H	0.587237	0.510955	0.644176
	O414	O	0.459547	0.401116	0.583618
	H415	H	0.475471	0.408475	0.574460
	H416	H	0.448555	0.403620	0.575421
	O417	O	0.327769	0.676648	0.685785
	H418	H	0.349090	0.650925	0.678542
	H419	H	0.338941	0.681508	0.663956
	O420	O	0.647501	0.612529	0.290864
	H421	H	0.623632	0.595331	0.285730
	H422	H	0.642941	0.592996	0.297638
	O423	O	0.072245	-0.171255	1.126514
	H424	H	0.066954	-0.185077	1.120032
	H425	H	0.075607	-0.172073	1.115031
	O426	O	0.735171	0.699019	0.535833
	H427	H	0.746356	0.694549	0.522765
	H428	H	0.741086	0.703061	0.524327
	O429	O	1.232086	0.768452	0.795329
	H430	H	1.234814	0.758655	0.775759
	H431	H	1.240600	0.785155	0.790387
	O432	O	0.473748	0.302384	0.475299
	H433	H	0.466161	0.289129	0.458709
	H434	H	0.459827	0.308018	0.466993
	O435	O	0.213339	1.163295	-0.183328
	H436	H	0.195628	1.137472	-0.190454
	H437	H	0.218980	1.174799	-0.179474
	O438	O	-0.007609	-0.021593	0.051604
	H439	H	-0.008644	-0.027842	0.048515
	H440	H	0.002651	-0.012056	0.054209
	O441	O	0.099233	0.021437	0.144542
	H442	H	0.095249	0.013160	0.145503
	H443	H	0.096346	0.026157	0.152000
	O444	O	0.481593	0.706792	0.276243
	H445	H	0.471477	0.724601	0.268405
	H446	H	0.459800	0.711303	0.261935
	O447	O	-0.255549	0.515926	0.727867
	H448	H	-0.243038	0.538174	0.747408
	H449	H	-0.259283	0.527769	0.744219
	O450	O	0.305156	1.276342	0.704538
	H451	H	0.305719	1.279461	0.722242
	H452	H	0.335456	1.275185	0.687833
	O453	O	0.742979	0.473762	0.283596
	H454	H	0.739925	0.441076	0.276317
	H455	H	0.744374	0.461151	0.262792
	O456	O	0.694827	0.657471	0.672410
	H457	H	0.701331	0.656645	0.645558
	H458	H	0.714418	0.679239	0.684211
	O459	O	0.756027	0.720809	0.262704
	H460	H	0.762315	0.713481	0.267940
	H461	H	0.728824	0.691813	0.278004
	O462	O	0.594243	0.498074	0.376722
	H463	H	0.592738	0.487477	0.373751
	H464	H	0.578793	0.503890	0.369875
	O465	O	0.977742	0.202138	-0.219593
	H466	H	0.954012	0.213228	-0.226203
	H467	H	0.955234	0.218608	-0.234105
	O468	O	0.365963	0.349535	0.467702
	H469	H	0.365376	0.348646	0.475279
	H470	H	0.370384	0.342773	0.464724
	O471	O	0.589944	0.697497	0.717065
	H472	H	0.607395	0.691240	0.718505
	H473	H	0.617390	0.718857	0.737323
	O474	O	0.296194	0.512576	0.285757
	H475	H	0.286729	0.538925	0.281888
	H476	H	0.284741	0.537252	0.269967
	O477	O	-0.176143	0.792367	1.808799
	H478	H	-0.146336	0.803565	1.826769
	H479	H	-0.174003	0.810412	1.831636
	O480	O	0.746242	0.397097	0.545676
	H481	H	0.740790	0.408468	0.532404
	H482	H	0.745669	0.407414	0.572740
	O483	O	0.758446	0.549970	0.450070
	H484	H	0.752094	0.527164	0.440362
	H485	H	0.765165	0.544554	0.433690
	O486	O	1.029969	-0.229683	0.831128
	H487	H	1.046741	-0.247251	0.826763
	H488	H	1.053325	-0.216021	0.829569
	O489	O	1.192334	1.174680	0.174946
	H490	H	1.199120	1.139965	0.180748
	H491	H	1.184622	1.185043	0.184401
	O492	O	-0.213524	0.021269	0.043192
	H493	H	-0.212426	0.032956	0.064524
	H494	H	-0.219853	0.026160	0.031843
	O495	O	-0.204543	1.016856	0.785048
	H496	H	-0.207234	1.021245	0.770337
	H497	H	-0.207169	1.008632	0.775954
	O498	O	0.803273	1.198349	0.973455
	H499	H	0.812066	1.197989	0.963471
	H500	H	0.789741	1.214855	0.964912
	O501	O	0.363734	0.571016	0.463177
	H502	H	0.372451	0.579326	0.484132
	H503	H	0.361695	0.553265	0.460626
