data_Molecule from HDF5

_cell_length_a		16.350544
_cell_length_b		16.262709
_cell_length_c		16.198705
_cell_angle_alpha	90.081393
_cell_angle_beta	90.079659
_cell_angle_gamma	90.126569
_symmetry_space_group_name_H-M	'P 1'
_symmetry_Int_Tables_number		1

loop_
	_symmetry_equiv_pos_as_xyz
	x,y,z

loop_
	_atom_site_label
	_atom_site_type_symbol
	_atom_site_fract_x
	_atom_site_fract_y
	_atom_site_fract_z
	H0	H	0.406792	0.842700	0.715771
	H1	H	0.599503	0.171466	0.718539
	H2	H	0.599124	0.842256	0.292424
	H3	H	0.405876	0.172055	0.290712
	H4	H	0.716224	0.407169	0.840996
	H5	H	0.716861	0.605568	0.169352
	H6	H	0.286198	0.606417	0.841100
	H7	H	0.287334	0.408311	0.169288
	H8	H	0.839038	0.722494	0.406310
	H9	H	0.165238	0.722977	0.604698
	H10	H	0.839215	0.291119	0.604732
	H11	H	0.164846	0.291816	0.405702
	H12	H	0.838310	0.409352	0.718313
	H13	H	0.165042	0.605729	0.720584
	H14	H	0.837856	0.604580	0.291676
	H15	H	0.165301	0.409323	0.290460
	H16	H	0.405963	0.717640	0.838678
	H17	H	0.599950	0.719547	0.169772
	H18	H	0.599074	0.293803	0.840127
	H19	H	0.403933	0.292842	0.169193
	H20	H	0.718375	0.844577	0.404810
	H21	H	0.716840	0.171302	0.604853
	H22	H	0.286783	0.844957	0.605435
	H23	H	0.287939	0.171782	0.405455
	H24	H	0.905673	0.342413	0.217114
	H25	H	0.099527	0.671560	0.218457
	H26	H	0.099212	0.342985	0.791303
	H27	H	0.904954	0.670993	0.791626
	H28	H	0.217641	0.907774	0.341119
	H29	H	0.217020	0.107021	0.670082
	H30	H	0.788102	0.106143	0.341420
	H31	H	0.787305	0.908379	0.670015
	H32	H	0.338595	0.220955	0.905157
	H33	H	0.664545	0.223699	0.105160
	H34	H	0.338823	0.792621	0.102583
	H35	H	0.665376	0.791856	0.905754
	H36	H	0.339425	0.909167	0.217924
	H37	H	0.666589	0.104446	0.218599
	H38	H	0.338494	0.102687	0.791170
	H39	H	0.666592	0.910544	0.791897
	H40	H	0.905300	0.218967	0.340328
	H41	H	0.099969	0.221539	0.670189
	H42	H	0.098467	0.795422	0.339601
	H43	H	0.905727	0.795196	0.671075
	H44	H	0.217242	0.343599	0.905208
	H45	H	0.216953	0.670782	0.104261
	H46	H	0.786740	0.343671	0.105032
	H47	H	0.787048	0.669984	0.905217
	H48	H	0.409931	0.123604	0.594733
	H49	H	0.595305	0.891008	0.596991
	H50	H	0.597365	0.127357	0.403245
	H51	H	0.415588	0.895186	0.417993
	H52	H	0.592059	0.412025	0.122163
	H53	H	0.604283	0.602423	0.884522
	H54	H	0.401851	0.609608	0.126754
	H55	H	0.411712	0.410977	0.888000
	H56	H	0.121184	0.603918	0.403268
	H57	H	0.886515	0.602705	0.595018
	H58	H	0.119258	0.412397	0.602262
	H59	H	0.882750	0.402939	0.410821
	H60	H	0.117956	0.411736	0.594006
	H61	H	0.886265	0.598719	0.598897
	H62	H	0.118027	0.608463	0.418776
	H63	H	0.889949	0.415941	0.421756
	H64	H	0.404143	0.587866	0.119560
	H65	H	0.595249	0.590757	0.889920
	H66	H	0.599698	0.413799	0.123448
	H67	H	0.403886	0.412439	0.886359
	H68	H	0.588014	0.120961	0.414755
	H69	H	0.597035	0.889982	0.596336
	H70	H	0.405313	0.126584	0.599921
	H71	H	0.401299	0.890616	0.416425
	H72	H	0.913512	0.619945	0.091294
	H73	H	0.088617	0.396678	0.083612
	H74	H	0.093226	0.622676	0.913460
	H75	H	0.922257	0.395705	0.917596
	H76	H	0.096511	0.911291	0.623506
	H77	H	0.098323	0.105099	0.387036
	H78	H	0.905518	0.091238	0.621072
	H79	H	0.909850	0.904891	0.385944
	H80	H	0.615506	0.092823	0.914359
	H81	H	0.384921	0.097904	0.104417
	H82	H	0.618717	0.914244	0.099612
	H83	H	0.385138	0.911196	0.905745
	H84	H	0.620288	0.909462	0.098941
	H85	H	0.385511	0.106426	0.094002
	H86	H	0.620864	0.101635	0.903743
	H87	H	0.384585	0.907452	0.911777
	H88	H	0.918661	0.101663	0.620886
	H89	H	0.099941	0.095190	0.388609
	H90	H	0.099664	0.917329	0.622559
	H91	H	0.900347	0.919895	0.388074
	H92	H	0.096492	0.623424	0.915479
	H93	H	0.112465	0.386183	0.098100
	H94	H	0.900017	0.625704	0.097012
	H95	H	0.896186	0.389120	0.921359
	H96	H	0.412324	0.124789	0.601648
	H97	H	0.596050	0.890279	0.598245
	H98	H	0.604260	0.124360	0.418109
	H99	H	0.410448	0.889204	0.404606
	H100	H	0.594045	0.418679	0.120529
	H101	H	0.589152	0.605380	0.887632
	H102	H	0.421805	0.601752	0.118769
	H103	H	0.409030	0.418556	0.889329
	H104	H	0.114757	0.593335	0.413913
	H105	H	0.885039	0.603864	0.600328
	H106	H	0.116356	0.419042	0.597960
	H107	H	0.886343	0.420092	0.403429
	H108	H	0.912289	0.625284	0.105767
	H109	H	0.086255	0.388359	0.112679
	H110	H	0.095798	0.624287	0.911470
	H111	H	0.907871	0.385082	0.897219
	H112	H	0.092882	0.917222	0.621328
	H113	H	0.090645	0.098999	0.389670
	H114	H	0.903343	0.107115	0.627251
	H115	H	0.916832	0.919463	0.392607
	H116	H	0.619140	0.107205	0.917337
	H117	H	0.389841	0.093969	0.092519
	H118	H	0.618614	0.912133	0.095368
	H119	H	0.387015	0.914304	0.911626
	C120	C	0.381541	0.016203	0.626339
	C121	C	0.623969	0.998835	0.626248
	C122	C	0.624101	0.015608	0.383786
	C123	C	0.380936	0.999652	0.383576
	C124	C	0.623128	0.385987	0.013109
	C125	C	0.624168	0.628095	0.996275
	C126	C	0.380994	0.627758	0.012936
	C127	C	0.379933	0.385505	0.996550
	C128	C	0.009928	0.629468	0.383525
	C129	C	0.993589	0.629948	0.627440
	C130	C	0.009903	0.385745	0.626590
	C131	C	0.993925	0.385109	0.383108
	C132	C	0.880579	0.515462	0.126050
	C133	C	0.124230	0.498573	0.127263
	C134	C	0.123200	0.515281	0.884174
	C135	C	0.880506	0.498258	0.883590
	C136	C	0.124440	0.886297	0.513767
	C137	C	0.124637	0.129057	0.497084
	C138	C	0.881098	0.128317	0.513730
	C139	C	0.880828	0.886345	0.497779
	C140	C	0.510387	0.128306	0.883167
	C141	C	0.494530	0.128193	0.126073
	C142	C	0.510883	0.884199	0.126131
	C143	C	0.493957	0.883739	0.882074
	C144	C	0.385372	0.892086	0.679398
	C145	C	0.620570	0.122397	0.681154
	C146	C	0.620592	0.891782	0.329379
	C147	C	0.384768	0.123188	0.328446
	C148	C	0.678336	0.387291	0.889977
	C149	C	0.678990	0.625706	0.120201
	C150	C	0.325125	0.626044	0.889416
	C151	C	0.325339	0.388106	0.120306
	C152	C	0.887482	0.684437	0.385878
	C153	C	0.116591	0.684627	0.625260
	C154	C	0.887676	0.329899	0.624351
	C155	C	0.116396	0.330197	0.385645
	C156	C	0.887186	0.388717	0.681189
	C157	C	0.116362	0.626444	0.682731
	C158	C	0.886851	0.625547	0.329076
	C159	C	0.116566	0.388541	0.328304
	C160	C	0.384549	0.681362	0.888509
	C161	C	0.621094	0.682643	0.120306
	C162	C	0.619822	0.331273	0.889311
	C163	C	0.383165	0.330687	0.120265
	C164	C	0.679764	0.892915	0.385336
	C165	C	0.678784	0.122322	0.624436
	C166	C	0.325830	0.893168	0.624255
	C167	C	0.326317	0.123111	0.385619
	C168	C	0.884148	0.391530	0.180056
	C169	C	0.120710	0.622329	0.181491
	C170	C	0.120426	0.392092	0.828646
	C171	C	0.883720	0.621845	0.829037
	C172	C	0.179311	0.888097	0.389860
	C173	C	0.179057	0.127141	0.621154
	C174	C	0.826183	0.125965	0.390308
	C175	C	0.825537	0.888177	0.621173
	C176	C	0.387447	0.182955	0.885170
	C177	C	0.616482	0.184500	0.124475
	C178	C	0.387874	0.830240	0.122986
	C179	C	0.616837	0.829816	0.885261
	C180	C	0.388002	0.888021	0.180452
	C181	C	0.617634	0.125313	0.180851
	C182	C	0.387166	0.124012	0.828736
	C183	C	0.617301	0.888491	0.828549
	C184	C	0.884692	0.182055	0.389835
	C185	C	0.121005	0.184072	0.621031
	C186	C	0.120239	0.831975	0.389293
	C187	C	0.884540	0.832144	0.621721
	C188	C	0.178761	0.392178	0.885548
	C189	C	0.179381	0.621886	0.125024
	C190	C	0.825399	0.392125	0.124066
	C191	C	0.825382	0.621337	0.885622
	C192	C	0.403003	0.102702	0.605120
	C193	C	0.602577	0.912544	0.603704
	C194	C	0.602674	0.101929	0.405481
	C195	C	0.402774	0.914014	0.406279
	C196	C	0.601517	0.408234	0.099687
	C197	C	0.602533	0.606093	0.909744
	C198	C	0.402800	0.606077	0.099240
	C199	C	0.401700	0.407526	0.910107
	C200	C	0.095550	0.608245	0.405494
	C201	C	0.908037	0.608230	0.604777
	C202	C	0.095802	0.407947	0.604484
	C203	C	0.908304	0.406563	0.405271
	C204	C	0.902261	0.601429	0.104475
	C205	C	0.102378	0.412667	0.104729
	C206	C	0.101638	0.601238	0.906800
	C207	C	0.902336	0.412229	0.905695
	C208	C	0.102771	0.908667	0.599918
	C209	C	0.102815	0.106414	0.410789
	C210	C	0.902855	0.106416	0.600939
	C211	C	0.902616	0.908342	0.411220
	C212	C	0.596148	0.106961	0.905208
	C213	C	0.408941	0.105804	0.103657
	C214	C	0.596980	0.905727	0.104524
	C215	C	0.407997	0.904685	0.903345
	Zn216	Zn	0.502392	0.006923	0.754456
	Zn217	Zn	0.502663	0.006753	0.254682
	Zn218	Zn	0.752157	0.506650	0.005128
	Zn219	Zn	0.252056	0.506994	0.005165
	Zn220	Zn	0.002330	0.758453	0.505759
	Zn221	Zn	0.002194	0.256303	0.505340
	Zn222	Zn	0.001738	0.507002	0.755482
	Zn223	Zn	0.001745	0.507202	0.254673
	Zn224	Zn	0.502245	0.755587	0.004499
	Zn225	Zn	0.502078	0.257646	0.004491
	Zn226	Zn	0.752520	0.007477	0.505505
	Zn227	Zn	0.252781	0.008302	0.505612
	N228	N	0.419325	0.969510	0.680552
	N229	N	0.587445	0.044610	0.682650
	N230	N	0.586633	0.969122	0.328193
	N231	N	0.417820	0.045381	0.326845
	N232	N	0.680529	0.420810	0.968056
	N233	N	0.680932	0.592392	0.042100
	N234	N	0.322962	0.593160	0.967487
	N235	N	0.323071	0.421395	0.042224
	N236	N	0.964805	0.686763	0.419266
	N237	N	0.039457	0.686841	0.591443
	N238	N	0.965037	0.328031	0.591223
	N239	N	0.039102	0.327996	0.418997
	N240	N	0.964234	0.422880	0.682286
	N241	N	0.038908	0.592964	0.683954
	N242	N	0.964119	0.592068	0.327402
	N243	N	0.039448	0.421893	0.326719
	N244	N	0.418583	0.682566	0.966314
	N245	N	0.587996	0.684373	0.042168
	N246	N	0.586106	0.330498	0.967052
	N247	N	0.416352	0.329073	0.042379
	N248	N	0.682023	0.970902	0.418371
	N249	N	0.680824	0.044470	0.590913
	N250	N	0.323106	0.971420	0.592185
	N251	N	0.323920	0.045503	0.419191
	N252	N	0.917719	0.469103	0.181550
	N253	N	0.087248	0.544796	0.183025
	N254	N	0.086499	0.469439	0.827836
	N255	N	0.917500	0.544424	0.827867
	N256	N	0.182133	0.921093	0.468093
	N257	N	0.181494	0.093829	0.543113
	N258	N	0.823895	0.093300	0.468535
	N259	N	0.823345	0.921206	0.543132
	N260	N	0.464970	0.185595	0.918478
	N261	N	0.539041	0.186224	0.091066
	N262	N	0.465437	0.827716	0.090139
	N263	N	0.539390	0.826944	0.917913
	N264	N	0.465611	0.920957	0.182554
	N265	N	0.540566	0.091054	0.181997
	N266	N	0.464460	0.090708	0.827333
	N267	N	0.539806	0.921404	0.826422
	N268	N	0.918345	0.183302	0.467844
	N269	N	0.087876	0.185353	0.542925
	N270	N	0.086804	0.830774	0.467200
	N271	N	0.918102	0.830817	0.543828
	N272	N	0.180622	0.469804	0.919356
	N273	N	0.181637	0.543833	0.091976
	N274	N	0.822909	0.470066	0.091196
	N275	N	0.823348	0.543563	0.918953
	O276	O	0.469041	0.565157	0.444458
	H277	H	0.472307	0.565245	0.452572
	H278	H	0.468682	0.568492	0.435883
	O279	O	0.034869	-0.031214	0.041055
	H280	H	0.046107	-0.032123	0.046849
	H281	H	0.031487	-0.030621	0.048185
	O282	O	0.485067	0.543453	0.501503
	H283	H	0.479052	0.550316	0.502619
	H284	H	0.487504	0.543958	0.504614
	O285	O	0.473441	0.548358	0.507237
	H286	H	0.477514	0.544092	0.497507
	H287	H	0.467796	0.543483	0.505613
	O288	O	1.012270	-0.017272	0.093303
	H289	H	1.011001	-0.016541	0.098745
	H290	H	1.008031	-0.016919	0.096189
	O291	O	-0.511006	0.523631	-0.529916
	H292	H	-0.517671	0.520539	-0.535697
	H293	H	-0.519399	0.530662	-0.528586
	O294	O	0.484750	0.569034	0.500832
	H295	H	0.470950	0.570082	0.490492
	H296	H	0.485648	0.568395	0.506649
	O297	O	0.041132	1.000275	0.052501
	H298	H	0.042775	1.004249	0.055313
	H299	H	0.034643	0.993493	0.048499
	O300	O	1.483951	-0.449101	0.475047
	H301	H	1.489898	-0.448409	0.481042
	H302	H	1.486663	-0.451593	0.485268
	O303	O	0.528812	0.568418	0.475969
	H304	H	0.530845	0.570797	0.470184
	H305	H	0.526821	0.563580	0.471800
	O306	O	0.000245	0.980964	1.077307
	H307	H	0.000256	0.983605	1.070810
	H308	H	0.002926	0.976649	1.073021
	O309	O	0.510433	0.494136	0.555387
	H310	H	0.516468	0.502751	0.558474
	H311	H	0.515079	0.500386	0.553922
