data_Molecule from HDF5

_cell_length_a		16.640660
_cell_length_b		16.772000
_cell_length_c		16.512575
_cell_angle_alpha	90.011120
_cell_angle_beta	89.922985
_cell_angle_gamma	89.959189
_symmetry_space_group_name_H-M	'P 1'
_symmetry_Int_Tables_number		1

loop_
	_symmetry_equiv_pos_as_xyz
	x,y,z

loop_
	_atom_site_label
	_atom_site_type_symbol
	_atom_site_fract_x
	_atom_site_fract_y
	_atom_site_fract_z
	H0	H	0.395048	0.847623	0.717936
	H1	H	0.603759	0.156362	0.717034
	H2	H	0.601136	0.844809	0.279158
	H3	H	0.395085	0.155297	0.273587
	H4	H	0.724687	0.390801	0.843569
	H5	H	0.715859	0.601306	0.154794
	H6	H	0.284028	0.601240	0.837254
	H7	H	0.279695	0.396664	0.154081
	H8	H	0.846244	0.723448	0.389089
	H9	H	0.153251	0.725617	0.604935
	H10	H	0.845004	0.280469	0.601413
	H11	H	0.154943	0.277062	0.386386
	H12	H	0.845603	0.395924	0.717808
	H13	H	0.154583	0.606124	0.717511
	H14	H	0.845367	0.604771	0.275895
	H15	H	0.157597	0.398405	0.276266
	H16	H	0.399360	0.716989	0.837270
	H17	H	0.602274	0.718643	0.153798
	H18	H	0.608815	0.275511	0.843929
	H19	H	0.394204	0.279859	0.153663
	H20	H	0.718964	0.846270	0.394306
	H21	H	0.720888	0.156138	0.600811
	H22	H	0.276169	0.848967	0.604334
	H23	H	0.277015	0.154701	0.389473
	H24	H	0.896808	0.346199	0.217541
	H25	H	0.105847	0.654849	0.217583
	H26	H	0.105338	0.346539	0.773552
	H27	H	0.893651	0.653452	0.773164
	H28	H	0.221698	0.896113	0.340584
	H29	H	0.220048	0.107074	0.651540
	H30	H	0.782829	0.102650	0.336956
	H31	H	0.782130	0.899457	0.653054
	H32	H	0.347086	0.226823	0.886370
	H33	H	0.651749	0.225682	0.106269
	H34	H	0.343214	0.782777	0.097011
	H35	H	0.655489	0.779164	0.889780
	H36	H	0.341521	0.900919	0.211547
	H37	H	0.655436	0.104798	0.216676
	H38	H	0.346868	0.109126	0.772102
	H39	H	0.657096	0.897596	0.776234
	H40	H	0.895933	0.220602	0.337780
	H41	H	0.104957	0.223067	0.650697
	H42	H	0.106715	0.780447	0.340137
	H43	H	0.894091	0.780206	0.650846
	H44	H	0.222288	0.346144	0.889432
	H45	H	0.220445	0.655387	0.098688
	H46	H	0.777263	0.347494	0.104586
	H47	H	0.777514	0.653794	0.890436
	H48	H	0.410867	0.112092	0.583874
	H49	H	0.586521	0.889718	0.592800
	H50	H	0.592565	0.112782	0.407769
	H51	H	0.403217	0.886702	0.402024
	H52	H	0.585318	0.413211	0.108890
	H53	H	0.589288	0.589576	0.883298
	H54	H	0.406220	0.592199	0.110842
	H55	H	0.413627	0.417304	0.887830
	H56	H	0.112145	0.588999	0.405008
	H57	H	0.892673	0.588846	0.575187
	H58	H	0.108774	0.415812	0.578636
	H59	H	0.890310	0.409547	0.412054
	H60	H	0.111904	0.413688	0.587742
	H61	H	0.889034	0.584544	0.589773
	H62	H	0.114077	0.594108	0.405566
	H63	H	0.889837	0.416037	0.404879
	H64	H	0.410768	0.589484	0.108376
	H65	H	0.589629	0.592198	0.881748
	H66	H	0.587426	0.412987	0.108634
	H67	H	0.416698	0.407863	0.884955
	H68	H	0.593390	0.114882	0.402832
	H69	H	0.587096	0.894271	0.578746
	H70	H	0.413232	0.110869	0.583727
	H71	H	0.417277	0.891105	0.403096
	H72	H	0.909786	0.612582	0.088360
	H73	H	0.091854	0.388969	0.086316
	H74	H	0.090938	0.609659	0.909676
	H75	H	0.913175	0.391268	0.910369
	H76	H	0.093429	0.912704	0.610409
	H77	H	0.087635	0.084084	0.386145
	H78	H	0.910026	0.087461	0.606149
	H79	H	0.910650	0.905821	0.380340
	H80	H	0.607686	0.085956	0.913157
	H81	H	0.387420	0.092599	0.082977
	H82	H	0.612195	0.910250	0.088247
	H83	H	0.388895	0.907621	0.907639
	H84	H	0.614890	0.905037	0.088866
	H85	H	0.389913	0.087345	0.081551
	H86	H	0.610483	0.087123	0.907592
	H87	H	0.389596	0.910939	0.907484
	H88	H	0.915133	0.096101	0.608593
	H89	H	0.082822	0.094249	0.382900
	H90	H	0.084500	0.919282	0.604496
	H91	H	0.906324	0.914424	0.381458
	H92	H	0.093936	0.612941	0.905397
	H93	H	0.089650	0.389639	0.086075
	H94	H	0.911815	0.609789	0.084720
	H95	H	0.912268	0.391520	0.909404
	H96	H	0.411425	0.110884	0.581546
	H97	H	0.598984	0.888363	0.585014
	H98	H	0.589045	0.113202	0.404329
	H99	H	0.408096	0.893303	0.414798
	H100	H	0.586471	0.414297	0.107938
	H101	H	0.591921	0.590258	0.882996
	H102	H	0.411071	0.595282	0.110045
	H103	H	0.407064	0.410891	0.883281
	H104	H	0.112400	0.591694	0.409788
	H105	H	0.885992	0.598654	0.584862
	H106	H	0.112072	0.406533	0.580754
	H107	H	0.887013	0.407212	0.403457
	H108	H	0.907472	0.612495	0.083680
	H109	H	0.091038	0.389520	0.084437
	H110	H	0.088583	0.610690	0.904296
	H111	H	0.913127	0.391567	0.909160
	H112	H	0.082785	0.907238	0.607648
	H113	H	0.094314	0.091708	0.380169
	H114	H	0.905327	0.094625	0.610516
	H115	H	0.915447	0.913577	0.384701
	H116	H	0.610358	0.091566	0.912057
	H117	H	0.387928	0.087636	0.087162
	H118	H	0.612345	0.906871	0.083536
	H119	H	0.388021	0.909252	0.904936
	C120	C	0.378525	0.010124	0.617409
	C121	C	0.622298	0.993066	0.617568
	C122	C	0.621850	0.010250	0.374407
	C123	C	0.377297	0.992221	0.373950
	C124	C	0.620825	0.379427	0.006347
	C125	C	0.620639	0.621209	0.987386
	C126	C	0.379004	0.621986	0.004697
	C127	C	0.379271	0.379828	0.988775
	C128	C	0.009792	0.623045	0.374293
	C129	C	0.991629	0.622619	0.616508
	C130	C	0.008490	0.379918	0.615805
	C131	C	0.992223	0.379271	0.374135
	C132	C	0.878313	0.509491	0.118383
	C133	C	0.122174	0.491995	0.117080
	C134	C	0.122832	0.509027	0.873693
	C135	C	0.879371	0.492534	0.875930
	C136	C	0.120287	0.880976	0.504421
	C137	C	0.120249	0.122089	0.486606
	C138	C	0.879061	0.122843	0.503881
	C139	C	0.879268	0.880402	0.486407
	C140	C	0.508200	0.121980	0.876360
	C141	C	0.490758	0.121734	0.117533
	C142	C	0.508748	0.878413	0.116901
	C143	C	0.492279	0.878799	0.874521
	C144	C	0.376144	0.894417	0.678422
	C145	C	0.623133	0.109785	0.677100
	C146	C	0.621240	0.892364	0.317281
	C147	C	0.375960	0.108680	0.313735
	C148	C	0.683516	0.374039	0.889961
	C149	C	0.677579	0.621087	0.107050
	C150	C	0.322719	0.620825	0.884916
	C151	C	0.319193	0.378087	0.106673
	C152	C	0.892898	0.682952	0.371159
	C153	C	0.107325	0.684006	0.621335
	C154	C	0.891918	0.320261	0.619213
	C155	C	0.108865	0.318490	0.370148
	C156	C	0.891962	0.377866	0.676942
	C157	C	0.107974	0.624943	0.677670
	C158	C	0.892387	0.624030	0.314782
	C159	C	0.110123	0.378443	0.314927
	C160	C	0.379713	0.678623	0.885143
	C161	C	0.620956	0.679262	0.106411
	C162	C	0.625849	0.316813	0.890073
	C163	C	0.376271	0.320160	0.106679
	C164	C	0.679796	0.892989	0.374412
	C165	C	0.681190	0.109788	0.619273
	C166	C	0.317123	0.894914	0.621647
	C167	C	0.317377	0.108545	0.371194
	C168	C	0.877558	0.392894	0.177980
	C169	C	0.123894	0.608515	0.176888
	C170	C	0.124071	0.392698	0.813683
	C171	C	0.876049	0.607485	0.814244
	C172	C	0.181342	0.878163	0.387319
	C173	C	0.180111	0.124899	0.604495
	C174	C	0.821316	0.122452	0.384720
	C175	C	0.820986	0.880105	0.605298
	C176	C	0.393012	0.184841	0.870053
	C177	C	0.606246	0.183850	0.122725
	C178	C	0.390199	0.821765	0.116309
	C179	C	0.609351	0.819622	0.872026
	C180	C	0.389349	0.880585	0.173044
	C181	C	0.607852	0.123674	0.177663
	C182	C	0.392802	0.126313	0.813239
	C183	C	0.609946	0.878737	0.815731
	C184	C	0.877878	0.180873	0.384942
	C185	C	0.123210	0.182726	0.603930
	C186	C	0.124089	0.820608	0.387239
	C187	C	0.876612	0.820836	0.604339
	C188	C	0.182335	0.392639	0.871341
	C189	C	0.180982	0.608909	0.117995
	C190	C	0.818105	0.393599	0.121752
	C191	C	0.818118	0.607686	0.872421
	C192	C	0.404447	0.090513	0.590633
	C193	C	0.597833	0.911943	0.592710
	C194	C	0.598491	0.092163	0.397961
	C195	C	0.402292	0.911511	0.399495
	C196	C	0.594145	0.405967	0.087356
	C197	C	0.597101	0.597411	0.904578
	C198	C	0.402449	0.598952	0.088028
	C199	C	0.405052	0.404664	0.906656
	C200	C	0.091525	0.598673	0.399657
	C201	C	0.910417	0.597699	0.590684
	C202	C	0.089862	0.404829	0.589828
	C203	C	0.910440	0.403996	0.399392
	C204	C	0.902777	0.590592	0.092687
	C205	C	0.097699	0.410510	0.092653
	C206	C	0.098109	0.590080	0.899082
	C207	C	0.905452	0.412357	0.902235
	C208	C	0.094297	0.906038	0.586294
	C209	C	0.095459	0.097265	0.404482
	C210	C	0.903323	0.099533	0.586740
	C211	C	0.903828	0.904468	0.403633
	C212	C	0.588602	0.095631	0.903440
	C213	C	0.409538	0.096532	0.091157
	C214	C	0.591741	0.900958	0.093524
	C215	C	0.410135	0.902468	0.899568
	Zn216	Zn	0.500524	0.001210	0.746544
	Zn217	Zn	0.499534	0.000055	0.245473
	Zn218	Zn	0.748408	0.500356	-0.003037
	Zn219	Zn	0.251320	0.500376	-0.004155
	Zn220	Zn	0.000557	0.751773	0.495761
	Zn221	Zn	0.000232	0.250806	0.494694
	Zn222	Zn	0.000445	0.500533	0.745060
	Zn223	Zn	0.001067	0.500632	0.246576
	Zn224	Zn	0.500453	0.749673	-0.004582
	Zn225	Zn	0.499380	0.251158	-0.002752
	Zn226	Zn	0.751173	0.001891	0.495867
	Zn227	Zn	0.248726	0.001819	0.496326
	N228	N	0.413273	0.967337	0.676362
	N229	N	0.587479	0.036116	0.676487
	N230	N	0.586102	0.966419	0.316685
	N231	N	0.412403	0.035308	0.315168
	N232	N	0.680480	0.412556	0.963194
	N233	N	0.677708	0.585806	0.032012
	N234	N	0.321933	0.586316	0.960380
	N235	N	0.320913	0.414453	0.032120
	N236	N	0.967058	0.682685	0.407301
	N237	N	0.033900	0.682766	0.584095
	N238	N	0.965532	0.321242	0.581930
	N239	N	0.034374	0.318691	0.406213
	N240	N	0.965550	0.414598	0.674894
	N241	N	0.034752	0.587525	0.675125
	N242	N	0.966356	0.587629	0.316147
	N243	N	0.036559	0.415413	0.317334
	N244	N	0.413931	0.679584	0.960762
	N245	N	0.586773	0.680001	0.030847
	N246	N	0.587535	0.320045	0.963460
	N247	N	0.412701	0.320978	0.032108
	N248	N	0.680776	0.967512	0.408832
	N249	N	0.681126	0.036002	0.583169
	N250	N	0.318453	0.967997	0.584416
	N251	N	0.317864	0.035081	0.407765
	N252	N	0.914134	0.466116	0.176231
	N253	N	0.087976	0.534796	0.176439
	N254	N	0.087956	0.466237	0.814796
	N255	N	0.913434	0.534873	0.816271
	N256	N	0.179379	0.914952	0.461516
	N257	N	0.178735	0.088131	0.530283
	N258	N	0.821651	0.087295	0.459702
	N259	N	0.822365	0.916338	0.530835
	N260	N	0.465874	0.182382	0.908588
	N261	N	0.532314	0.182713	0.085944
	N262	N	0.465646	0.820120	0.082327
	N263	N	0.535033	0.819475	0.908042
	N264	N	0.464340	0.914730	0.174023
	N265	N	0.534971	0.085540	0.174580
	N266	N	0.465366	0.087753	0.816867
	N267	N	0.535948	0.914846	0.817141
	N268	N	0.912787	0.181688	0.460285
	N269	N	0.087012	0.181515	0.529435
	N270	N	0.086862	0.822193	0.461311
	N271	N	0.912004	0.820530	0.529197
	N272	N	0.181741	0.465973	0.907957
	N273	N	0.180177	0.535389	0.081728
	N274	N	0.818100	0.467314	0.085530
	N275	N	0.819904	0.535008	0.910179
	O276	O	-0.115901	0.943575	0.028908
	H277	H	-0.111196	0.928695	0.006543
	H278	H	-0.127163	0.941060	0.033360
	O279	O	0.336618	0.425914	0.282839
	H280	H	0.329358	0.443059	0.265607
	H281	H	0.329943	0.437494	0.277902
	O282	O	1.181461	0.121882	0.984358
	H283	H	1.179278	0.140613	0.968417
	H284	H	1.189128	0.135225	0.979719
	O285	O	0.442005	0.534948	0.627893
	H286	H	0.449722	0.533887	0.636499
	H287	H	0.444416	0.526929	0.634428
	O288	O	0.700283	0.698939	0.698846
	H289	H	0.715794	0.717242	0.671664
	H290	H	0.724016	0.721478	0.699419
	O291	O	0.516737	0.432019	0.697651
	H292	H	0.524020	0.431580	0.707146
	H293	H	0.519193	0.422898	0.701815
	O294	O	1.055758	-0.032290	1.225131
	H295	H	1.032414	-0.040859	1.228633
	H296	H	1.042777	-0.028564	1.218941
	O297	O	0.290808	0.718117	0.285087
	H298	H	0.282902	0.686102	0.302855
	H299	H	0.256774	0.743974	0.252483
	O300	O	-0.214932	0.200176	0.906426
	H301	H	-0.222602	0.217453	0.893289
	H302	H	-0.206255	0.190390	0.902220
	O303	O	0.504350	0.732659	0.344184
	H304	H	0.477412	0.734613	0.332834
	H305	H	0.504657	0.743123	0.332730
	O306	O	0.449817	0.277067	0.604988
	H307	H	0.451749	0.271843	0.591238
	H308	H	0.464763	0.302410	0.599464
	O309	O	0.712095	0.540683	0.489174
	H310	H	0.722792	0.509986	0.480751
	H311	H	0.703288	0.527252	0.498472
	O312	O	0.386613	0.552488	0.535306
	H313	H	0.379178	0.564424	0.544274
	H314	H	0.388000	0.567841	0.540793
	O315	O	1.221589	0.780210	0.962452
	H316	H	1.236351	0.761948	0.960164
	H317	H	1.217518	0.779260	0.954201
	O318	O	0.722349	0.526635	0.721051
	H319	H	0.725447	0.549827	0.725729
	H320	H	0.738905	0.550877	0.740380
	O321	O	0.237415	0.767432	0.763169
	H322	H	0.253383	0.782564	0.775853
	H323	H	0.263093	0.732886	0.735019
	O324	O	0.973139	0.778201	0.213243
	H325	H	0.948690	0.774693	0.221878
	H326	H	0.958312	0.763618	0.226378
	O327	O	-0.220632	-0.041289	1.216633
	H328	H	-0.240712	-0.023779	1.209861
	H329	H	-0.236012	-0.020861	1.217347
	O330	O	0.716760	0.721645	0.532985
	H331	H	0.718701	0.700853	0.507411
	H332	H	0.737721	0.731118	0.524290
	O333	O	0.313846	0.657262	0.672245
	H334	H	0.325325	0.651194	0.644990
	H335	H	0.340577	0.643727	0.658930
	O336	O	0.384850	0.669822	0.423816
	H337	H	0.370272	0.666489	0.423257
	H338	H	0.384630	0.679981	0.416485
	O339	O	0.977012	0.225781	0.780970
	H340	H	0.960826	0.208562	0.772929
	H341	H	0.955339	0.243553	0.757749
	O342	O	-0.071857	-0.169378	-0.027535
	H343	H	-0.074344	-0.166232	-0.039801
	H344	H	-0.073425	-0.170654	-0.025802
	O345	O	-0.171649	1.197822	1.163557
	H346	H	-0.162844	1.191994	1.138757
	H347	H	-0.159199	1.195198	1.146461
	O348	O	0.223684	0.145441	0.027720
	H349	H	0.243875	0.150477	0.022920
	H350	H	0.213046	0.142087	0.056827
	O351	O	0.503205	0.555186	0.325797
	H352	H	0.525073	0.578715	0.320328
	H353	H	0.496674	0.550199	0.329641
	O354	O	0.055740	-0.232416	1.047728
	H355	H	0.048156	-0.241889	1.044191
	H356	H	0.041176	-0.232138	1.048729
	O357	O	0.708404	0.292297	0.484890
	H358	H	0.740008	0.258070	0.473202
	H359	H	0.696840	0.310390	0.468373
	O360	O	0.281141	0.279562	0.526781
	H361	H	0.269471	0.266098	0.511356
	H362	H	0.270459	0.293355	0.516129
	O363	O	-0.154981	0.011599	-0.051830
	H364	H	-0.158705	0.008346	-0.053145
	H365	H	-0.149476	0.008144	-0.052576
	O366	O	0.726851	0.468450	0.278550
	H367	H	0.744388	0.449657	0.256578
	H368	H	0.726714	0.434374	0.273369
	O369	O	0.539895	0.291319	0.285322
	H370	H	0.522649	0.298833	0.287330
	H371	H	0.524209	0.284744	0.288399
	O372	O	0.954338	0.984528	-0.170501
	H373	H	0.945904	0.973624	-0.154786
	H374	H	0.981247	0.980498	-0.174178
	O375	O	0.955531	-0.058591	-0.223070
	H376	H	0.971224	-0.074290	-0.211784
	H377	H	0.960703	-0.061725	-0.226595
	O378	O	0.617699	0.524986	0.361944
	H379	H	0.611141	0.508008	0.374700
	H380	H	0.625594	0.509245	0.339681
	O381	O	0.105258	0.827553	0.802960
	H382	H	0.116876	0.814162	0.799798
	H383	H	0.132619	0.829493	0.798923
	O384	O	0.801505	-0.201864	0.792232
	H385	H	0.824139	-0.186388	0.800212
	H386	H	0.816824	-0.183490	0.819622
	O387	O	1.103717	1.199857	-0.002250
	H388	H	1.120497	1.207298	-0.023569
	H389	H	1.114282	1.204215	-0.010785
	O390	O	0.430085	0.405747	0.445747
	H391	H	0.434991	0.412128	0.444474
	H392	H	0.418620	0.406905	0.445044
	O393	O	0.548782	0.525836	0.581555
	H394	H	0.556733	0.537675	0.576092
	H395	H	0.557494	0.539042	0.590147
	O396	O	-0.040523	0.791038	0.823085
	H397	H	-0.028040	0.779550	0.828434
	H398	H	-0.019721	0.793674	0.814052
	O399	O	0.116716	0.121824	0.786374
	H400	H	0.100137	0.102592	0.802908
	H401	H	0.119630	0.102292	0.784415
	O402	O	1.068063	0.073591	-0.070754
	H403	H	1.063001	0.085363	-0.069193
	H404	H	1.086320	0.067074	-0.076430
	O405	O	1.009254	0.042158	1.012071
	H406	H	1.012971	0.050363	1.002458
	H407	H	1.016727	0.040543	1.011716
	O408	O	-0.034004	0.202848	0.069865
	H409	H	-0.022266	0.210349	0.045359
	H410	H	-0.015698	0.204497	0.067558
	O411	O	0.387285	0.372506	0.316153
	H412	H	0.400326	0.373092	0.330207
	H413	H	0.401803	0.397167	0.309640
	O414	O	0.753521	0.242059	0.746615
	H415	H	0.731515	0.251000	0.729377
	H416	H	0.741292	0.240626	0.758370
	O417	O	0.479396	0.411120	0.388263
	H418	H	0.491223	0.413180	0.402385
	H419	H	0.481065	0.424685	0.396812
	O420	O	0.294029	0.459227	0.421114
	H421	H	0.299548	0.475433	0.442710
	H422	H	0.309163	0.459974	0.414650
	O423	O	-0.138572	0.214052	0.963501
	H424	H	-0.143773	0.231970	0.947027
	H425	H	-0.125858	0.194227	0.948139
	O426	O	0.662766	0.382688	0.558029
	H427	H	0.658051	0.379727	0.562761
	H428	H	0.645631	0.384729	0.568252
	O429	O	0.776435	0.772127	1.030478
	H430	H	0.752140	0.755915	1.044163
	H431	H	0.773258	0.776519	1.054330
	O432	O	0.654340	0.355819	0.692550
	H433	H	0.641631	0.368198	0.697605
	H434	H	0.649230	0.371799	0.675430
	O435	O	0.181244	0.808424	0.175640
	H436	H	0.152683	0.815256	0.160303
	H437	H	0.168538	0.828015	0.155936
	O438	O	0.098100	-0.101447	0.001504
	H439	H	0.104129	-0.104179	0.018460
	H440	H	0.097211	-0.102484	0.007953
	O441	O	0.033828	0.221314	0.213791
	H442	H	0.029152	0.229346	0.231469
	H443	H	0.035505	0.225669	0.217604
	O444	O	0.618843	0.415050	0.474034
	H445	H	0.622973	0.413500	0.484156
	H446	H	0.614118	0.416956	0.469817
	O447	O	0.200473	1.176662	1.192463
	H448	H	0.207607	1.139550	1.193604
	H449	H	0.179916	1.189115	1.204330
	O450	O	0.231392	1.002568	0.963282
	H451	H	0.228021	1.021312	0.966491
	H452	H	0.233680	1.009804	0.988099
	O453	O	0.283693	0.616809	0.344425
	H454	H	0.283258	0.601170	0.356281
	H455	H	0.277504	0.611182	0.350095
	O456	O	0.258551	0.264800	0.736786
	H457	H	0.250087	0.254999	0.707791
	H458	H	0.254215	0.260673	0.728852
	O459	O	0.721074	0.721793	0.281306
	H460	H	0.718327	0.702545	0.279469
	H461	H	0.706046	0.727336	0.295145
	O462	O	0.703740	0.296561	0.292866
	H463	H	0.668504	0.292334	0.302933
	H464	H	0.705204	0.269511	0.266108
	O465	O	1.224941	-0.026866	-0.223467
	H466	H	1.245052	-0.034313	-0.244793
	H467	H	1.233796	-0.022978	-0.206755
	O468	O	0.500777	0.672048	0.421416
	H469	H	0.497166	0.677948	0.424214
	H470	H	0.498541	0.665772	0.409777
	O471	O	0.276093	0.462991	0.648165
	H472	H	0.271861	0.463350	0.666147
	H473	H	0.277726	0.450754	0.648424
	O474	O	0.353536	0.721983	0.502148
	H475	H	0.372467	0.729865	0.488942
	H476	H	0.349866	0.734695	0.477694
	O477	O	0.529645	0.720641	1.710905
	H478	H	0.552941	0.726258	1.723004
	H479	H	0.555725	0.729684	1.718922
	O480	O	0.439829	0.600927	0.568133
	H481	H	0.427339	0.613403	0.572918
	H482	H	0.447037	0.602307	0.560292
	O483	O	0.472381	0.283229	0.710994
	H484	H	0.445980	0.284580	0.698545
	H485	H	0.463020	0.266144	0.735568
	O486	O	0.933137	0.033095	1.176923
	H487	H	0.909405	0.033016	1.176401
	H488	H	0.935290	0.033707	1.152312
	O489	O	0.777950	1.026230	0.071605
	H490	H	0.769132	1.054011	0.051544
	H491	H	0.802493	1.024446	0.059511
	O492	O	0.207256	0.019454	0.199966
	H493	H	0.223733	0.020787	0.229146
	H494	H	0.190251	0.003065	0.201802
	O495	O	-0.220624	1.045533	0.777748
	H496	H	-0.235150	1.031372	0.756585
	H497	H	-0.219913	1.046279	0.783659
	O498	O	0.831447	0.829753	1.157692
	H499	H	0.812609	0.825941	1.181870
	H500	H	0.839062	0.857109	1.161600
	O501	O	0.496320	0.478120	0.510518
	H502	H	0.498720	0.475762	0.497489
	H503	H	0.506391	0.484233	0.522918
