data_Molecule from HDF5

_cell_length_a		16.408573
_cell_length_b		16.455839
_cell_length_c		16.331983
_cell_angle_alpha	90.003844
_cell_angle_beta	89.992365
_cell_angle_gamma	89.909975
_symmetry_space_group_name_H-M	'P 1'
_symmetry_Int_Tables_number		1

loop_
	_symmetry_equiv_pos_as_xyz
	x,y,z

loop_
	_atom_site_label
	_atom_site_type_symbol
	_atom_site_fract_x
	_atom_site_fract_y
	_atom_site_fract_z
	H0	H	0.388759	0.833166	0.717725
	H1	H	0.599203	0.149761	0.721547
	H2	H	0.596423	0.835079	0.277088
	H3	H	0.385186	0.152089	0.276158
	H4	H	0.711337	0.387827	0.837828
	H5	H	0.710573	0.595169	0.158494
	H6	H	0.269801	0.598251	0.839642
	H7	H	0.269374	0.384195	0.157336
	H8	H	0.834801	0.714009	0.393610
	H9	H	0.153354	0.712955	0.603485
	H10	H	0.835674	0.270907	0.605417
	H11	H	0.149637	0.267040	0.387599
	H12	H	0.832426	0.392440	0.715514
	H13	H	0.150479	0.600766	0.723300
	H14	H	0.832274	0.595074	0.281061
	H15	H	0.150094	0.385446	0.274232
	H16	H	0.383159	0.715673	0.840084
	H17	H	0.595644	0.712939	0.157591
	H18	H	0.598043	0.270681	0.838767
	H19	H	0.385316	0.269094	0.156924
	H20	H	0.713591	0.834080	0.393456
	H21	H	0.715753	0.150147	0.605941
	H22	H	0.272582	0.834089	0.602349
	H23	H	0.266527	0.149756	0.388761
	H24	H	0.886393	0.334115	0.219396
	H25	H	0.095869	0.650632	0.219396
	H26	H	0.098715	0.335108	0.774619
	H27	H	0.890475	0.652704	0.781129
	H28	H	0.214252	0.887200	0.338895
	H29	H	0.214550	0.097562	0.657604
	H30	H	0.773619	0.096736	0.338443
	H31	H	0.774929	0.888775	0.658645
	H32	H	0.334234	0.216020	0.890480
	H33	H	0.650708	0.213417	0.103359
	H34	H	0.334428	0.769193	0.108364
	H35	H	0.649940	0.770395	0.893753
	H36	H	0.334494	0.886979	0.222666
	H37	H	0.650617	0.098602	0.219271
	H38	H	0.333273	0.097653	0.776271
	H39	H	0.652201	0.889274	0.781043
	H40	H	0.887788	0.213722	0.339130
	H41	H	0.102883	0.217218	0.656295
	H42	H	0.101361	0.770559	0.339100
	H43	H	0.893006	0.774893	0.659146
	H44	H	0.215345	0.334445	0.890119
	H45	H	0.215865	0.649014	0.106644
	H46	H	0.770402	0.334131	0.103428
	H47	H	0.771247	0.650767	0.894482
	H48	H	0.402043	0.105636	0.585981
	H49	H	0.588086	0.876507	0.592394
	H50	H	0.587781	0.107602	0.410815
	H51	H	0.412949	0.886103	0.415227
	H52	H	0.582336	0.396918	0.114048
	H53	H	0.576064	0.579314	0.886459
	H54	H	0.399296	0.573545	0.110648
	H55	H	0.403377	0.411318	0.887698
	H56	H	0.104154	0.576039	0.411350
	H57	H	0.876641	0.588933	0.593365
	H58	H	0.106360	0.401820	0.583938
	H59	H	0.879791	0.401868	0.413655
	H60	H	0.103846	0.407838	0.582702
	H61	H	0.880597	0.586774	0.580611
	H62	H	0.107615	0.581144	0.402177
	H63	H	0.880844	0.406805	0.410502
	H64	H	0.413176	0.579911	0.108510
	H65	H	0.579810	0.587831	0.882532
	H66	H	0.585199	0.406614	0.112866
	H67	H	0.411410	0.401742	0.887527
	H68	H	0.581740	0.107075	0.404510
	H69	H	0.579145	0.879052	0.589958
	H70	H	0.406501	0.105380	0.588012
	H71	H	0.395758	0.880253	0.415357
	H72	H	0.902834	0.604345	0.085686
	H73	H	0.081566	0.378504	0.087054
	H74	H	0.074380	0.603272	0.907429
	H75	H	0.903954	0.381741	0.915789
	H76	H	0.084816	0.899194	0.614555
	H77	H	0.078376	0.077337	0.387548
	H78	H	0.904940	0.077184	0.610557
	H79	H	0.894063	0.903959	0.381542
	H80	H	0.608602	0.084600	0.903356
	H81	H	0.379137	0.085593	0.083259
	H82	H	0.603802	0.905548	0.086104
	H83	H	0.375814	0.894855	0.911624
	H84	H	0.606410	0.901979	0.088584
	H85	H	0.381292	0.076954	0.083379
	H86	H	0.603726	0.085629	0.916971
	H87	H	0.382114	0.909245	0.914115
	H88	H	0.908263	0.085482	0.612493
	H89	H	0.077241	0.081998	0.385671
	H90	H	0.085537	0.907105	0.611451
	H91	H	0.909196	0.910347	0.387947
	H92	H	0.079608	0.602053	0.918820
	H93	H	0.077008	0.380514	0.086322
	H94	H	0.896173	0.606620	0.086869
	H95	H	0.892590	0.374888	0.906451
	H96	H	0.404858	0.103765	0.583248
	H97	H	0.586143	0.880039	0.583444
	H98	H	0.579922	0.104424	0.412469
	H99	H	0.405880	0.878739	0.400042
	H100	H	0.576025	0.403839	0.110469
	H101	H	0.585153	0.579553	0.882746
	H102	H	0.402045	0.587239	0.115373
	H103	H	0.399670	0.400980	0.882237
	H104	H	0.107044	0.586525	0.411835
	H105	H	0.881422	0.577364	0.589341
	H106	H	0.106478	0.406498	0.588240
	H107	H	0.878561	0.401832	0.407670
	H108	H	0.901055	0.606825	0.092442
	H109	H	0.080600	0.380255	0.082867
	H110	H	0.086488	0.606721	0.909319
	H111	H	0.906950	0.377951	0.900061
	H112	H	0.078288	0.902790	0.610627
	H113	H	0.081569	0.079962	0.384914
	H114	H	0.900366	0.083060	0.614373
	H115	H	0.907683	0.893314	0.382358
	H116	H	0.602624	0.073164	0.908809
	H117	H	0.377794	0.080854	0.090815
	H118	H	0.604305	0.901224	0.084012
	H119	H	0.375820	0.905053	0.899613
	C120	C	0.371922	0.000588	0.618650
	C121	C	0.615504	0.983619	0.620803
	C122	C	0.614405	0.001278	0.377199
	C123	C	0.371083	0.985430	0.376566
	C124	C	0.613135	0.370706	0.006625
	C125	C	0.612313	0.613566	0.989651
	C126	C	0.370455	0.613657	0.007006
	C127	C	0.371528	0.371190	0.990410
	C128	C	0.001411	0.613839	0.376576
	C129	C	0.984782	0.615605	0.620016
	C130	C	0.001363	0.372670	0.618472
	C131	C	0.984270	0.370722	0.376641
	C132	C	0.869164	0.501079	0.119817
	C133	C	0.113022	0.483547	0.119202
	C134	C	0.113501	0.500692	0.877016
	C135	C	0.869933	0.483787	0.876664
	C136	C	0.115069	0.870730	0.506671
	C137	C	0.113582	0.113420	0.490328
	C138	C	0.871645	0.114309	0.507292
	C139	C	0.872893	0.871486	0.489737
	C140	C	0.500484	0.114011	0.876515
	C141	C	0.483692	0.113935	0.118981
	C142	C	0.500475	0.871089	0.120033
	C143	C	0.483056	0.870797	0.877153
	C144	C	0.370286	0.881053	0.678165
	C145	C	0.617175	0.102669	0.681193
	C146	C	0.615534	0.882402	0.317049
	C147	C	0.367249	0.104195	0.315560
	C148	C	0.672231	0.368888	0.886136
	C149	C	0.671280	0.614404	0.110243
	C150	C	0.309696	0.616417	0.887458
	C151	C	0.309919	0.367226	0.109751
	C152	C	0.882259	0.674212	0.375062
	C153	C	0.105053	0.673943	0.622054
	C154	C	0.882610	0.311804	0.622676
	C155	C	0.102572	0.308651	0.371531
	C156	C	0.881152	0.372232	0.677578
	C157	C	0.103609	0.618210	0.681979
	C158	C	0.881025	0.614943	0.318866
	C159	C	0.102689	0.367195	0.314404
	C160	C	0.366164	0.675192	0.887907
	C161	C	0.614073	0.672754	0.110023
	C162	C	0.615982	0.310330	0.886735
	C163	C	0.367770	0.309889	0.109650
	C164	C	0.673686	0.881967	0.374992
	C165	C	0.675488	0.102391	0.623737
	C166	C	0.312025	0.881493	0.620927
	C167	C	0.308054	0.103258	0.371790
	C168	C	0.867838	0.381495	0.179413
	C169	C	0.114913	0.603015	0.179686
	C170	C	0.116947	0.382382	0.814936
	C171	C	0.870048	0.604111	0.818913
	C172	C	0.175007	0.868725	0.386897
	C173	C	0.174810	0.116359	0.609616
	C174	C	0.812564	0.115754	0.386827
	C175	C	0.814467	0.870465	0.610503
	C176	C	0.381771	0.175309	0.872802
	C177	C	0.603047	0.173781	0.121543
	C178	C	0.381803	0.809943	0.124829
	C179	C	0.602588	0.810810	0.875436
	C180	C	0.381855	0.868601	0.181955
	C181	C	0.602925	0.116522	0.179327
	C182	C	0.381141	0.116363	0.815909
	C183	C	0.603535	0.869706	0.819064
	C184	C	0.869244	0.174217	0.387152
	C185	C	0.118945	0.175838	0.608935
	C186	C	0.118468	0.810569	0.387131
	C187	C	0.872999	0.813501	0.610774
	C188	C	0.175303	0.382365	0.872433
	C189	C	0.174678	0.602042	0.123529
	C190	C	0.810029	0.381683	0.121769
	C191	C	0.811029	0.603419	0.875721
	C192	C	0.397192	0.083387	0.593089
	C193	C	0.591166	0.900461	0.595825
	C194	C	0.590086	0.084552	0.402195
	C195	C	0.397385	0.903120	0.402636
	C196	C	0.588349	0.395275	0.090526
	C197	C	0.587551	0.589138	0.905834
	C198	C	0.397053	0.587666	0.089743
	C199	C	0.397496	0.397125	0.907517
	C200	C	0.084605	0.588662	0.401339
	C201	C	0.901376	0.591288	0.594893
	C202	C	0.083923	0.397893	0.592495
	C203	C	0.901426	0.396243	0.402991
	C204	C	0.893070	0.584321	0.095345
	C205	C	0.087212	0.401274	0.092934
	C206	C	0.087556	0.582807	0.904060
	C207	C	0.894101	0.400045	0.900619
	C208	C	0.090096	0.895690	0.590429
	C209	C	0.086856	0.087148	0.407554
	C210	C	0.897033	0.089171	0.590675
	C211	C	0.896774	0.895686	0.405667
	C212	C	0.583398	0.088428	0.902281
	C213	C	0.400933	0.088503	0.093223
	C214	C	0.583370	0.895861	0.093790
	C215	C	0.399396	0.895859	0.901640
	Zn216	Zn	0.492304	-0.008085	0.748295
	Zn217	Zn	0.492072	-0.006184	0.247807
	Zn218	Zn	0.740787	0.491970	-0.002201
	Zn219	Zn	0.242727	0.491643	-0.001172
	Zn220	Zn	-0.005490	0.743055	0.497932
	Zn221	Zn	-0.006771	0.242375	0.498462
	Zn222	Zn	-0.007447	0.493372	0.748052
	Zn223	Zn	-0.008508	0.492057	0.247594
	Zn224	Zn	0.491459	0.742428	-0.001621
	Zn225	Zn	0.492544	0.242779	-0.001597
	Zn226	Zn	0.743853	-0.007511	0.498349
	Zn227	Zn	0.242496	-0.007499	0.497531
	N228	N	0.406512	0.956236	0.677195
	N229	N	0.580470	0.027739	0.679484
	N230	N	0.579438	0.957730	0.318187
	N231	N	0.405632	0.029845	0.318330
	N232	N	0.670808	0.405590	0.961687
	N233	N	0.670417	0.578425	0.034253
	N234	N	0.312247	0.579004	0.962583
	N235	N	0.312168	0.404701	0.034613
	N236	N	0.958271	0.673762	0.410114
	N237	N	0.030307	0.672204	0.584249
	N238	N	0.958309	0.311875	0.586631
	N239	N	0.027870	0.310722	0.409630
	N240	N	0.956103	0.409206	0.675445
	N241	N	0.027887	0.582345	0.680770
	N242	N	0.956192	0.578192	0.319343
	N243	N	0.028028	0.405065	0.317511
	N244	N	0.403157	0.673791	0.963456
	N245	N	0.578232	0.672449	0.034091
	N246	N	0.579631	0.311634	0.962676
	N247	N	0.405440	0.312348	0.034534
	N248	N	0.673103	0.957103	0.411531
	N249	N	0.674572	0.027457	0.586804
	N250	N	0.312934	0.956816	0.584538
	N251	N	0.310378	0.028571	0.409035
	N252	N	0.903780	0.456713	0.178621
	N253	N	0.077378	0.528343	0.177114
	N254	N	0.079272	0.456865	0.817663
	N255	N	0.905940	0.528610	0.819295
	N256	N	0.172978	0.905533	0.462458
	N257	N	0.171658	0.078267	0.534868
	N258	N	0.813519	0.079532	0.462511
	N259	N	0.814226	0.905704	0.534234
	N260	N	0.457016	0.174019	0.909780
	N261	N	0.527712	0.172522	0.084871
	N262	N	0.456601	0.811491	0.086885
	N263	N	0.526524	0.811283	0.910650
	N264	N	0.456523	0.906248	0.178900
	N265	N	0.527741	0.079961	0.177826
	N266	N	0.456131	0.079038	0.818122
	N267	N	0.528086	0.906059	0.819874
	N268	N	0.905457	0.173436	0.463002
	N269	N	0.081822	0.174322	0.533503
	N270	N	0.081909	0.811844	0.462688
	N271	N	0.908634	0.813941	0.534689
	N272	N	0.173330	0.456968	0.910268
	N273	N	0.173705	0.526874	0.086885
	N274	N	0.810781	0.456888	0.085269
	N275	N	0.810858	0.527493	0.910670
	O276	O	0.699825	0.366877	0.421066
	H277	H	0.686727	0.363560	0.396945
	H278	H	0.722574	0.348109	0.416706
	O279	O	0.682120	0.296850	0.384950
	H280	H	0.644402	0.302691	0.375755
	H281	H	0.696054	0.305330	0.373085
	O282	O	0.572693	0.509038	0.587976
	H283	H	0.569561	0.492414	0.576509
	H284	H	0.573794	0.503320	0.594964
	O285	O	1.131987	1.001607	-0.209493
	H286	H	1.132744	1.022385	-0.218799
	H287	H	1.120980	1.000586	-0.210486
	O288	O	0.278940	0.456003	0.695142
	H289	H	0.261528	0.466490	0.721484
	H290	H	0.299618	0.430779	0.697624
	O291	O	0.357826	0.647651	0.557643
	H292	H	0.362351	0.628224	0.568350
	H293	H	0.345097	0.659161	0.558597
	O294	O	0.865300	0.948649	1.100212
	H295	H	0.872956	0.938689	1.109375
	H296	H	0.841868	0.946411	1.109322
	O297	O	0.395205	0.532640	0.640075
	H298	H	0.389043	0.521252	0.642200
	H299	H	0.409607	0.540499	0.634554
	O300	O	0.290606	0.534386	0.310068
	H301	H	0.283051	0.566288	0.316820
	H302	H	0.288420	0.549680	0.297251
	O303	O	0.501029	0.693816	0.705099
	H304	H	0.520230	0.686582	0.707786
	H305	H	0.515538	0.710965	0.731342
	O306	O	-0.195275	-0.179880	1.075944
	H307	H	-0.194429	-0.163691	1.096925
	H308	H	-0.182693	-0.191143	1.094321
	O309	O	1.082165	0.154424	-0.004307
	H310	H	1.066543	0.148592	-0.009841
	H311	H	1.064686	0.143548	-0.009983
	O312	O	0.529403	0.299744	0.524507
	H313	H	0.519839	0.290099	0.509815
	H314	H	0.499945	0.306117	0.540649
	O315	O	0.755123	0.851148	0.232865
	H316	H	0.778769	0.858587	0.230145
	H317	H	0.732888	0.839831	0.257308
	O318	O	-0.050946	-0.216636	0.200096
	H319	H	-0.031372	-0.221156	0.200538
	H320	H	-0.038453	-0.228123	0.207293
	O321	O	0.671832	0.510298	0.544568
	H322	H	0.661560	0.484491	0.539742
	H323	H	0.679467	0.509722	0.555383
	O324	O	0.982283	0.045917	0.794832
	H325	H	0.967239	0.042862	0.793584
	H326	H	0.961121	0.058967	0.792566
	O327	O	0.475837	0.290953	0.707986
	H328	H	0.491401	0.287142	0.687189
	H329	H	0.473045	0.272521	0.729119
	O330	O	0.134498	1.099083	1.193201
	H331	H	0.144698	1.106529	1.174990
	H332	H	0.155132	1.092832	1.192534
	O333	O	-0.102443	1.193478	-0.201794
	H334	H	-0.126934	1.177932	-0.206349
	H335	H	-0.112268	1.203214	-0.198852
	O336	O	0.848758	1.016924	-0.089825
	H337	H	0.847719	1.006525	-0.083280
	H338	H	0.856237	1.010563	-0.099439
	O339	O	0.207077	0.777089	0.976974
	H340	H	0.203603	0.776624	0.938930
	H341	H	0.231527	0.756240	0.957748
	O342	O	0.281877	0.422230	0.454911
	H343	H	0.284052	0.439434	0.434275
	H344	H	0.275473	0.440585	0.465794
	O345	O	-0.021177	-0.195603	0.907241
	H346	H	-0.033517	-0.186426	0.926751
	H347	H	-0.023665	-0.211057	0.907926
	O348	O	0.440270	0.396244	0.357323
	H349	H	0.426530	0.396444	0.346471
	H350	H	0.434080	0.398582	0.365359
	O351	O	1.190099	1.128065	0.065614
	H352	H	1.191542	1.132845	0.075728
	H353	H	1.203458	1.134274	0.069661
	O354	O	1.089479	0.970366	1.150787
	H355	H	1.115553	0.965716	1.138853
	H356	H	1.097407	0.977159	1.153095
	O357	O	-0.142813	0.194056	-0.025865
	H358	H	-0.128087	0.184650	-0.027865
	H359	H	-0.155395	0.193507	-0.020385
	O360	O	0.375036	0.511568	0.534211
	H361	H	0.379054	0.513531	0.533995
	H362	H	0.372653	0.510101	0.560619
	O363	O	0.840371	-0.086568	-0.096495
	H364	H	0.831452	-0.084222	-0.068691
	H365	H	0.863960	-0.091504	-0.093817
	O366	O	0.106336	0.082039	0.949252
	H367	H	0.090456	0.087426	0.929237
	H368	H	0.122442	0.084242	0.953047
	O369	O	0.925078	-0.078268	0.956571
	H370	H	0.944552	-0.079091	0.963688
	H371	H	0.919990	-0.086414	0.959324
	O372	O	0.475903	0.611293	0.423313
	H373	H	0.469054	0.615466	0.434737
	H374	H	0.466241	0.610602	0.425965
	O375	O	0.012614	-0.075940	1.199105
	H376	H	0.021823	-0.068735	1.197589
	H377	H	0.006282	-0.076799	1.209483
	O378	O	0.659756	0.624518	0.521498
	H379	H	0.668456	0.636026	0.533062
	H380	H	0.646796	0.617038	0.542174
	O381	O	-0.080491	0.981463	-0.024555
	H382	H	-0.085695	0.971382	-0.022567
	H383	H	-0.074240	0.983953	-0.007399
	O384	O	0.605146	0.555460	0.673571
	H385	H	0.607029	0.563190	0.654952
	H386	H	0.609879	0.537907	0.676864
	O387	O	0.695190	0.697851	0.632631
	H388	H	0.706365	0.712320	0.637926
	H389	H	0.698881	0.672892	0.626483
	O390	O	1.110459	0.975279	0.019107
	H391	H	1.113504	0.958840	0.018911
	H392	H	1.120670	0.958135	0.032932
	O393	O	0.792659	0.088433	0.936757
	H394	H	0.788684	0.086402	0.942125
	H395	H	0.801161	0.086786	0.938147
	O396	O	0.640079	0.415987	0.461871
	H397	H	0.632066	0.418031	0.470255
	H398	H	0.636855	0.402543	0.442213
	O399	O	0.501847	0.332531	0.340854
	H400	H	0.483259	0.332661	0.362620
	H401	H	0.494423	0.337242	0.335845
	O402	O	0.947777	1.102904	0.177508
	H403	H	0.939845	1.122327	0.184116
	H404	H	0.930824	1.101913	0.162978
	O405	O	0.307472	0.315544	0.650745
	H406	H	0.293574	0.319459	0.629255
	H407	H	0.330153	0.305512	0.655046
	O408	O	0.557479	0.358316	0.606174
	H409	H	0.587927	0.344080	0.583745
	H410	H	0.545011	0.360006	0.593993
	O411	O	1.183514	1.045300	1.056674
	H412	H	1.187953	1.048697	1.035274
	H413	H	1.180189	1.023992	1.040492
	O414	O	0.392152	0.687057	0.334881
	H415	H	0.400643	0.686996	0.341945
	H416	H	0.406185	0.704972	0.343004
	O417	O	0.146595	0.826422	0.819849
	H418	H	0.154169	0.863901	0.806033
	H419	H	0.102995	0.823042	0.807845
	O420	O	0.006809	0.948099	0.835730
	H421	H	0.006654	0.950538	0.848459
	H422	H	-0.005804	0.976837	0.841720
	O423	O	0.094202	1.078457	-0.002745
	H424	H	0.094089	1.094146	0.008004
	H425	H	0.097293	1.081054	0.001902
	O426	O	0.382718	0.665016	0.334190
	H427	H	0.373369	0.676579	0.362481
	H428	H	0.424796	0.673883	0.336796
	O429	O	0.613453	0.670827	0.375783
	H430	H	0.611917	0.650349	0.388341
	H431	H	0.606047	0.667064	0.388916
	O432	O	0.629740	0.398152	0.308832
	H433	H	0.613389	0.397838	0.304127
	H434	H	0.622987	0.402554	0.308085
	O435	O	0.301516	0.321778	0.484697
	H436	H	0.268964	0.304214	0.479256
	H437	H	0.293424	0.364774	0.465013
	O438	O	-0.201890	1.008137	1.148433
	H439	H	-0.205227	0.997133	1.148806
	H440	H	-0.198735	1.005393	1.155921
	O441	O	0.545778	0.588419	0.423064
	H442	H	0.540836	0.565220	0.417440
	H443	H	0.555488	0.595994	0.431692
