data_Molecule from HDF5

_cell_length_a		16.496871
_cell_length_b		16.459099
_cell_length_c		16.373773
_cell_angle_alpha	89.998622
_cell_angle_beta	90.111305
_cell_angle_gamma	89.885215
_symmetry_space_group_name_H-M	'P 1'
_symmetry_Int_Tables_number		1

loop_
	_symmetry_equiv_pos_as_xyz
	x,y,z

loop_
	_atom_site_label
	_atom_site_type_symbol
	_atom_site_fract_x
	_atom_site_fract_y
	_atom_site_fract_z
	H0	H	0.394544	0.827482	0.724207
	H1	H	0.606831	0.142216	0.724973
	H2	H	0.607451	0.828281	0.278604
	H3	H	0.392019	0.142691	0.277982
	H4	H	0.723895	0.377214	0.843434
	H5	H	0.724804	0.590877	0.159351
	H6	H	0.273590	0.596468	0.846428
	H7	H	0.278081	0.375118	0.158887
	H8	H	0.845468	0.708584	0.394150
	H9	H	0.157692	0.711494	0.612795
	H10	H	0.845718	0.262227	0.608890
	H11	H	0.157839	0.258229	0.391916
	H12	H	0.845116	0.379601	0.723740
	H13	H	0.157778	0.595736	0.727902
	H14	H	0.845033	0.590623	0.279858
	H15	H	0.159894	0.377083	0.279505
	H16	H	0.391089	0.709734	0.845140
	H17	H	0.607722	0.706113	0.160481
	H18	H	0.606523	0.263368	0.842471
	H19	H	0.393468	0.259944	0.158789
	H20	H	0.725736	0.829273	0.393028
	H21	H	0.724336	0.141848	0.609782
	H22	H	0.276466	0.829003	0.611750
	H23	H	0.276608	0.142486	0.394651
	H24	H	0.898354	0.326123	0.222930
	H25	H	0.107131	0.643597	0.223009
	H26	H	0.107515	0.327901	0.779418
	H27	H	0.895465	0.643045	0.779583
	H28	H	0.224125	0.878281	0.344807
	H29	H	0.225861	0.094281	0.659462
	H30	H	0.778543	0.092288	0.343248
	H31	H	0.780934	0.880868	0.660963
	H32	H	0.345854	0.210180	0.891644
	H33	H	0.659589	0.205519	0.107804
	H34	H	0.344699	0.760681	0.108747
	H35	H	0.658896	0.761511	0.896124
	H36	H	0.343627	0.877655	0.224420
	H37	H	0.658458	0.089870	0.223753
	H38	H	0.343824	0.090406	0.779834
	H39	H	0.659822	0.879330	0.781955
	H40	H	0.894596	0.207522	0.343532
	H41	H	0.108459	0.208596	0.659711
	H42	H	0.106632	0.764274	0.343679
	H43	H	0.896671	0.764148	0.661268
	H44	H	0.224836	0.328044	0.893227
	H45	H	0.224869	0.641988	0.109893
	H46	H	0.782392	0.325962	0.106779
	H47	H	0.777455	0.641853	0.893264
	H48	H	0.402306	0.100690	0.588295
	H49	H	0.590104	0.871256	0.594637
	H50	H	0.590237	0.096926	0.416152
	H51	H	0.413375	0.871810	0.409906
	H52	H	0.591995	0.398325	0.114146
	H53	H	0.588393	0.570031	0.890507
	H54	H	0.419378	0.568859	0.111677
	H55	H	0.416369	0.399306	0.890539
	H56	H	0.117108	0.578374	0.410697
	H57	H	0.891630	0.572192	0.588517
	H58	H	0.115547	0.396632	0.591470
	H59	H	0.890223	0.396331	0.411018
	H60	H	0.113845	0.395408	0.586792
	H61	H	0.889007	0.573874	0.592536
	H62	H	0.114113	0.575629	0.419166
	H63	H	0.890821	0.395617	0.414242
	H64	H	0.414750	0.575785	0.115037
	H65	H	0.587646	0.574259	0.888822
	H66	H	0.589063	0.393156	0.114905
	H67	H	0.414356	0.395753	0.888493
	H68	H	0.589948	0.098345	0.412296
	H69	H	0.587808	0.873656	0.587690
	H70	H	0.417501	0.099260	0.600092
	H71	H	0.417094	0.876156	0.416490
	H72	H	0.913063	0.598787	0.094141
	H73	H	0.093885	0.372514	0.086390
	H74	H	0.087712	0.596735	0.917584
	H75	H	0.914926	0.370457	0.906951
	H76	H	0.085315	0.899565	0.613641
	H77	H	0.084564	0.070962	0.391390
	H78	H	0.908470	0.067695	0.613575
	H79	H	0.914807	0.900163	0.390867
	H80	H	0.612893	0.070255	0.914195
	H81	H	0.385962	0.080169	0.092470
	H82	H	0.613224	0.897511	0.091133
	H83	H	0.389166	0.899895	0.909501
	H84	H	0.613636	0.893894	0.089999
	H85	H	0.391478	0.074317	0.080040
	H86	H	0.614565	0.073720	0.911691
	H87	H	0.387530	0.890444	0.912796
	H88	H	0.919909	0.072784	0.612537
	H89	H	0.089969	0.075411	0.387732
	H90	H	0.088754	0.893985	0.616300
	H91	H	0.915003	0.893332	0.388539
	H92	H	0.089319	0.597318	0.915899
	H93	H	0.092338	0.370484	0.095224
	H94	H	0.917266	0.595208	0.087979
	H95	H	0.916473	0.375046	0.916983
	H96	H	0.418444	0.092167	0.582116
	H97	H	0.595142	0.871250	0.588614
	H98	H	0.586267	0.096953	0.414430
	H99	H	0.409137	0.873362	0.417197
	H100	H	0.594556	0.393967	0.116365
	H101	H	0.591543	0.572421	0.888280
	H102	H	0.411014	0.567670	0.113755
	H103	H	0.412295	0.399746	0.889644
	H104	H	0.114063	0.569692	0.412174
	H105	H	0.890823	0.576688	0.588662
	H106	H	0.112271	0.399298	0.588765
	H107	H	0.890834	0.398819	0.413471
	H108	H	0.908728	0.596999	0.086981
	H109	H	0.086074	0.374138	0.090014
	H110	H	0.087353	0.596164	0.915163
	H111	H	0.906862	0.369839	0.913964
	H112	H	0.092328	0.900378	0.616477
	H113	H	0.092247	0.068143	0.390128
	H114	H	0.910012	0.079609	0.617693
	H115	H	0.909096	0.897082	0.387956
	H116	H	0.613649	0.074165	0.916298
	H117	H	0.390152	0.066033	0.092561
	H118	H	0.611717	0.896277	0.088139
	H119	H	0.391305	0.897255	0.919015
	C120	C	0.379841	-0.006535	0.623459
	C121	C	0.623395	0.976072	0.623636
	C122	C	0.622341	-0.006079	0.380683
	C123	C	0.379211	0.977215	0.380849
	C124	C	0.623425	0.363047	0.009955
	C125	C	0.622517	0.604911	0.993364
	C126	C	0.379986	0.605817	0.010102
	C127	C	0.380572	0.363634	0.993536
	C128	C	0.010840	0.606712	0.380833
	C129	C	0.993684	0.607372	0.624088
	C130	C	0.010530	0.364153	0.622634
	C131	C	0.994120	0.363002	0.379661
	C132	C	0.881389	0.492587	0.122637
	C133	C	0.124375	0.476249	0.124261
	C134	C	0.122161	0.493444	0.881858
	C135	C	0.880040	0.476296	0.879840
	C136	C	0.122401	0.864306	0.511219
	C137	C	0.122405	0.106221	0.493782
	C138	C	0.879904	0.106484	0.510063
	C139	C	0.880378	0.864275	0.493753
	C140	C	0.510141	0.106350	0.880343
	C141	C	0.492935	0.106218	0.122390
	C142	C	0.509408	0.862785	0.123308
	C143	C	0.493075	0.862441	0.880506
	C144	C	0.376578	0.875096	0.684452
	C145	C	0.625789	0.094776	0.684761
	C146	C	0.625436	0.875531	0.318994
	C147	C	0.374961	0.095534	0.318857
	C148	C	0.683862	0.359562	0.890846
	C149	C	0.684221	0.608530	0.112194
	C150	C	0.315747	0.612110	0.892981
	C151	C	0.318504	0.358382	0.111468
	C152	C	0.892649	0.667670	0.376908
	C153	C	0.110875	0.670038	0.629454
	C154	C	0.892686	0.302937	0.626344
	C155	C	0.111182	0.299930	0.375348
	C156	C	0.892371	0.361725	0.683306
	C157	C	0.110849	0.612346	0.687109
	C158	C	0.892455	0.608955	0.319860
	C159	C	0.112455	0.359370	0.319309
	C160	C	0.374535	0.668694	0.892407
	C161	C	0.625793	0.665773	0.112742
	C162	C	0.625525	0.302818	0.890423
	C163	C	0.376132	0.300832	0.111397
	C164	C	0.684445	0.876110	0.375889
	C165	C	0.684215	0.094598	0.627525
	C166	C	0.317587	0.875958	0.628304
	C167	C	0.317429	0.095417	0.377120
	C168	C	0.880140	0.373645	0.182730
	C169	C	0.126235	0.595427	0.184114
	C170	C	0.125779	0.375055	0.819768
	C171	C	0.877355	0.595493	0.819644
	C172	C	0.183437	0.860929	0.392135
	C173	C	0.184627	0.111386	0.612458
	C174	C	0.818993	0.109772	0.390811
	C175	C	0.820574	0.862101	0.613205
	C176	C	0.392610	0.168558	0.875432
	C177	C	0.611678	0.166131	0.125581
	C178	C	0.391600	0.801316	0.126887
	C179	C	0.611347	0.801509	0.877565
	C180	C	0.391095	0.859836	0.184192
	C181	C	0.611395	0.108421	0.183385
	C182	C	0.391705	0.109075	0.819274
	C183	C	0.611878	0.860108	0.820486
	C184	C	0.876806	0.167225	0.390947
	C185	C	0.125915	0.167950	0.612371
	C186	C	0.124937	0.804026	0.391702
	C187	C	0.878177	0.804140	0.613405
	C188	C	0.184111	0.375080	0.876765
	C189	C	0.184817	0.594683	0.127596
	C190	C	0.822122	0.373610	0.124910
	C191	C	0.818592	0.594891	0.876327
	C192	C	0.405407	0.075867	0.597480
	C193	C	0.598228	0.893642	0.597699
	C194	C	0.596088	0.076092	0.406914
	C195	C	0.405481	0.895182	0.407173
	C196	C	0.598789	0.388076	0.093266
	C197	C	0.596503	0.579403	0.910818
	C198	C	0.407408	0.578503	0.092035
	C199	C	0.406855	0.390524	0.911154
	C200	C	0.093523	0.581781	0.406642
	C201	C	0.911813	0.581451	0.597470
	C202	C	0.092644	0.389724	0.596427
	C203	C	0.911966	0.389329	0.405606
	C204	C	0.905839	0.575440	0.097049
	C205	C	0.098405	0.393936	0.098069
	C206	C	0.095847	0.575310	0.908671
	C207	C	0.905394	0.393556	0.905248
	C208	C	0.096338	0.890470	0.593951
	C209	C	0.096347	0.079323	0.411387
	C210	C	0.905457	0.080850	0.592927
	C211	C	0.905668	0.889616	0.410845
	C212	C	0.592174	0.080221	0.906557
	C213	C	0.410757	0.080712	0.096042
	C214	C	0.591550	0.888540	0.097217
	C215	C	0.410709	0.888259	0.906420
	Zn216	Zn	0.501675	-0.015349	0.751838
	Zn217	Zn	0.500388	-0.014338	0.251676
	Zn218	Zn	0.751916	0.484089	0.001623
	Zn219	Zn	0.251602	0.484740	0.001737
	Zn220	Zn	0.001957	0.735710	0.502612
	Zn221	Zn	0.001657	0.234622	0.501319
	Zn222	Zn	0.002499	0.485658	0.752285
	Zn223	Zn	0.002742	0.485195	0.251704
	Zn224	Zn	0.501477	0.734074	0.001986
	Zn225	Zn	0.502174	0.235058	0.001443
	Zn226	Zn	0.751652	-0.014297	0.501591
	Zn227	Zn	0.250715	-0.014687	0.503187
	N228	N	0.414635	0.949197	0.681638
	N229	N	0.588619	0.020078	0.682354
	N230	N	0.587647	0.949945	0.321639
	N231	N	0.412784	0.020995	0.321030
	N232	N	0.682956	0.396144	0.966273
	N233	N	0.682348	0.571522	0.037079
	N234	N	0.319200	0.573518	0.967321
	N235	N	0.321151	0.397045	0.037106
	N236	N	0.967325	0.666401	0.414203
	N237	N	0.037034	0.667120	0.590791
	N238	N	0.967253	0.304305	0.589262
	N239	N	0.036524	0.302167	0.412297
	N240	N	0.966724	0.399055	0.681195
	N241	N	0.037109	0.573832	0.683630
	N242	N	0.966961	0.571827	0.322145
	N243	N	0.038586	0.398086	0.321990
	N244	N	0.414065	0.664707	0.966179
	N245	N	0.588046	0.663857	0.037956
	N246	N	0.588713	0.304772	0.965592
	N247	N	0.414205	0.304039	0.036923
	N248	N	0.682517	0.950656	0.413481
	N249	N	0.682666	0.019952	0.590142
	N250	N	0.319346	0.950661	0.591155
	N251	N	0.319805	0.020846	0.414707
	N252	N	0.915978	0.448966	0.181781
	N253	N	0.089581	0.520585	0.182325
	N254	N	0.088284	0.449500	0.822555
	N255	N	0.914844	0.520901	0.821639
	N256	N	0.182081	0.897668	0.467440
	N257	N	0.182702	0.073736	0.537520
	N258	N	0.820760	0.072633	0.465902
	N259	N	0.821598	0.898461	0.537736
	N260	N	0.467237	0.166956	0.912669
	N261	N	0.536797	0.165125	0.088550
	N262	N	0.466158	0.803024	0.089937
	N263	N	0.536368	0.802786	0.913818
	N264	N	0.465464	0.897430	0.182154
	N265	N	0.536516	0.072113	0.181602
	N266	N	0.465925	0.070946	0.822225
	N267	N	0.537075	0.897182	0.822026
	N268	N	0.913848	0.165449	0.466046
	N269	N	0.088292	0.164837	0.537556
	N270	N	0.087908	0.805949	0.466905
	N271	N	0.914508	0.805039	0.537972
	N272	N	0.182146	0.449860	0.914302
	N273	N	0.183966	0.519453	0.091234
	N274	N	0.822912	0.448624	0.088175
	N275	N	0.819875	0.519600	0.912680
	O276	O	0.706952	0.546674	0.292992
	H277	H	0.723459	0.529773	0.270317
	H278	H	0.698389	0.541713	0.327844
	O279	O	1.031794	0.170232	0.919040
	H280	H	1.023945	0.169533	0.908217
	H281	H	1.032394	0.174920	0.939480
	O282	O	0.521012	0.266764	0.286040
	H283	H	0.548431	0.254088	0.268153
	H284	H	0.531666	0.275181	0.270055
	O285	O	0.486085	0.389586	0.667667
	H286	H	0.481243	0.398421	0.655878
	H287	H	0.504491	0.380546	0.668430
	O288	O	1.020800	0.816178	-0.176670
	H289	H	1.014725	0.805114	-0.168144
	H290	H	1.009823	0.810425	-0.171786
	O291	O	0.724747	0.471245	0.529825
	H292	H	0.735175	0.466460	0.541774
	H293	H	0.705122	0.467283	0.540596
	O294	O	0.084704	-0.066753	1.128275
	H295	H	0.096613	-0.066847	1.132380
	H296	H	0.097316	-0.054541	1.130612
	O297	O	0.715547	0.503418	1.714166
	H298	H	0.728119	0.533376	1.730817
	H299	H	0.709873	0.501828	1.726555
	O300	O	0.311548	0.674793	0.350177
	H301	H	0.341382	0.687207	0.356519
	H302	H	0.304319	0.629796	0.350877
	O303	O	0.295031	0.278671	0.555451
	H304	H	0.295310	0.299193	0.531314
	H305	H	0.282515	0.252758	0.546580
	O306	O	0.465063	0.512069	0.502761
	H307	H	0.456459	0.517498	0.517589
	H308	H	0.452141	0.517939	0.506742
	O309	O	0.689071	0.665499	0.682816
	H310	H	0.651626	0.679159	0.680852
	H311	H	0.684429	0.653314	0.671731
	O312	O	0.199879	0.998131	1.217687
	H313	H	0.201505	1.022761	1.223651
	H314	H	0.215392	1.017978	1.226555
	O315	O	0.280188	0.464684	0.722269
	H316	H	0.294705	0.415986	0.707132
	H317	H	0.242129	0.458525	0.760323
	O318	O	0.795148	-0.227998	0.023193
	H319	H	0.786863	-0.231394	0.047203
	H320	H	0.783958	-0.232511	0.028035
	O321	O	0.217109	0.048290	-0.026263
	H322	H	0.222078	0.022280	-0.025133
	H323	H	0.220832	0.035158	-0.026816
	O324	O	0.813760	0.793636	0.190773
	H325	H	0.796463	0.812243	0.210780
	H326	H	0.820524	0.812368	0.180895
	O327	O	0.681397	0.296627	0.316918
	H328	H	0.676940	0.291388	0.353843
	H329	H	0.693988	0.330729	0.323133
	O330	O	-0.072649	0.803066	-0.054023
	H331	H	-0.087333	0.811875	-0.044036
	H332	H	-0.093556	0.808934	-0.040237
	O333	O	0.324768	0.527721	0.291275
	H334	H	0.300784	0.515411	0.271702
	H335	H	0.331038	0.530742	0.316335
	O336	O	0.140460	0.148412	-0.000817
	H337	H	0.144838	0.148206	-0.004138
	H338	H	0.151008	0.160461	0.003362
	O339	O	-0.104291	1.080328	0.857027
	H340	H	-0.085432	1.075745	0.856556
	H341	H	-0.097726	1.078484	0.838797
	O342	O	0.311906	1.405856	0.401332
	H343	H	0.320584	1.416095	0.395920
	H344	H	0.316820	1.411554	0.396125
	O345	O	1.084919	1.185914	-0.101383
	H346	H	1.103117	1.177574	-0.092426
	H347	H	1.075609	1.186097	-0.119337
	O348	O	0.401025	0.541928	0.655290
	H349	H	0.392481	0.552809	0.650160
	H350	H	0.369762	0.521457	0.645057
	O351	O	0.284188	1.682421	1.498431
	H352	H	0.303613	1.674352	1.479167
	H353	H	0.256610	1.699523	1.490333
	O354	O	0.205448	0.943107	-0.204531
	H355	H	0.205470	0.923585	-0.188694
	H356	H	0.221886	0.942508	-0.228158
	O357	O	0.083325	-0.225758	1.002377
	H358	H	0.077874	-0.231947	0.998514
	H359	H	0.065824	-0.218553	1.016314
	O360	O	0.350100	0.298082	0.686758
	H361	H	0.369987	0.285282	0.680599
	H362	H	0.357152	0.292003	0.665392
	O363	O	-0.136149	0.039201	0.802861
	H364	H	-0.130846	0.040601	0.797456
	H365	H	-0.127705	0.039146	0.797472
	O366	O	0.473416	0.699583	0.293733
	H367	H	0.472866	0.707853	0.270179
	H368	H	0.472873	0.692919	0.288629
	O369	O	0.717440	0.704181	-0.477481
	H370	H	0.734695	0.714441	-0.461461
	H371	H	0.720505	0.709517	-0.485489
	O372	O	0.972402	0.007321	0.975067
	H373	H	0.982123	0.011034	0.975601
	H374	H	0.986676	0.003543	0.970560
	O375	O	0.175098	1.143227	1.172723
	H376	H	0.177310	1.148067	1.130511
	H377	H	0.128766	1.154120	1.176241
	O378	O	0.981119	0.771122	1.208843
	H379	H	0.974831	0.753026	1.239280
	H380	H	0.959998	0.783371	1.206195
	O381	O	0.710515	0.279433	0.482942
	H382	H	0.725738	0.262404	0.496883
	H383	H	0.698849	0.292353	0.502931
	O384	O	-0.186313	1.052879	1.054638
	H385	H	-0.188269	1.066863	1.045881
	H386	H	-0.176873	1.038784	1.038451
	O387	O	-0.096075	-0.077175	0.976968
	H388	H	-0.091623	-0.067957	0.961871
	H389	H	-0.083219	-0.075639	0.963874
	O390	O	0.024578	-0.002443	-0.095997
	H391	H	0.042993	0.006374	-0.092749
	H392	H	0.022853	-0.008707	-0.100596
	O393	O	0.797094	1.186878	0.927867
	H394	H	0.801916	1.169506	0.900735
	H395	H	0.787565	1.210873	0.917358
	O396	O	0.616238	0.495905	0.294084
	H397	H	0.635573	0.493534	0.308681
	H398	H	0.610404	0.498158	0.282229
	O399	O	0.693699	0.487714	0.497266
	H400	H	0.693497	0.475550	0.515491
	H401	H	0.686962	0.512206	0.515800
	O402	O	0.946483	1.119729	1.131973
	H403	H	0.930951	1.118241	1.137231
	H404	H	0.948380	1.106589	1.130003
	O405	O	0.460988	0.603125	-0.544481
	H406	H	0.458731	0.597729	-0.555631
	H407	H	0.475499	0.599318	-0.548926
	O408	O	0.888321	0.003766	-0.187660
	H409	H	0.893687	-0.012117	-0.195487
	H410	H	0.907527	0.018091	-0.187298
	O411	O	1.027690	1.183392	0.153512
	H412	H	1.018835	1.188614	0.170972
	H413	H	1.007222	1.172802	0.153671
	O414	O	0.449946	0.273050	0.439293
	H415	H	0.464262	0.275057	0.420193
	H416	H	0.441228	0.265638	0.421736
	O417	O	0.486397	1.411242	-0.452469
	H418	H	0.471281	1.419714	-0.448929
	H419	H	0.498279	1.417455	-0.456934
	O420	O	0.153967	-0.089551	0.125070
	H421	H	0.155286	-0.093256	0.122663
	H422	H	0.164302	-0.098386	0.150637
	O423	O	0.540147	0.264615	0.598164
	H424	H	0.528745	0.252778	0.621214
	H425	H	0.539915	0.271443	0.576152
	O426	O	0.199422	0.781691	0.791740
	H427	H	0.161016	0.769123	0.786965
	H428	H	0.214364	0.771339	0.817510
	O429	O	0.561140	0.603654	0.461758
	H430	H	0.549594	0.596299	0.484502
	H431	H	0.563793	0.599413	0.435917
	O432	O	0.530045	0.701461	0.721489
	H433	H	0.499938	0.690358	0.714726
	H434	H	0.523001	0.728661	0.754014
	O435	O	0.580553	0.380499	0.674325
	H436	H	0.574739	0.378852	0.671158
	H437	H	0.568122	0.404298	0.678394
	O438	O	-0.204725	-0.041351	0.203229
	H439	H	-0.192355	-0.019691	0.189056
	H440	H	-0.227443	-0.032845	0.210252
	O441	O	1.208496	-0.168759	0.009860
	H442	H	1.204746	-0.194916	0.017741
	H443	H	1.202207	-0.168958	0.039857
	O444	O	0.912298	0.072488	1.079520
	H445	H	0.907361	0.067543	1.078056
	H446	H	0.888435	0.062688	1.072622
	O447	O	0.339682	0.505192	0.539155
	H448	H	0.348238	0.540762	0.533251
	H449	H	0.329749	0.499919	0.562035
	O450	O	0.423108	0.683592	0.572552
	H451	H	0.438306	0.698027	0.575281
	H452	H	0.409787	0.683521	0.549802
	O453	O	0.493335	0.478582	0.286686
	H454	H	0.492784	0.489924	0.281033
	H455	H	0.480017	0.480741	0.306719
