data_Molecule from HDF5

_cell_length_a		16.355404
_cell_length_b		16.331008
_cell_length_c		16.193992
_cell_angle_alpha	89.710096
_cell_angle_beta	90.047427
_cell_angle_gamma	90.187661
_symmetry_space_group_name_H-M	'P 1'
_symmetry_Int_Tables_number		1

loop_
	_symmetry_equiv_pos_as_xyz
	x,y,z

loop_
	_atom_site_label
	_atom_site_type_symbol
	_atom_site_fract_x
	_atom_site_fract_y
	_atom_site_fract_z
	H0	H	0.398988	0.829740	0.714767
	H1	H	0.597858	0.155405	0.713289
	H2	H	0.599556	0.829549	0.284075
	H3	H	0.398873	0.152478	0.279660
	H4	H	0.714480	0.391804	0.833466
	H5	H	0.717119	0.592643	0.159962
	H6	H	0.283149	0.592810	0.834907
	H7	H	0.279687	0.385107	0.159334
	H8	H	0.836880	0.709796	0.396442
	H9	H	0.160050	0.709995	0.600338
	H10	H	0.837286	0.274663	0.601199
	H11	H	0.159127	0.274436	0.396592
	H12	H	0.836440	0.392897	0.714389
	H13	H	0.161968	0.591992	0.712409
	H14	H	0.836967	0.594701	0.280584
	H15	H	0.160407	0.392820	0.282041
	H16	H	0.398541	0.708672	0.835323
	H17	H	0.603032	0.707811	0.160722
	H18	H	0.600471	0.275128	0.834020
	H19	H	0.398336	0.272164	0.160069
	H20	H	0.716692	0.830537	0.398061
	H21	H	0.717361	0.154672	0.600717
	H22	H	0.278899	0.831836	0.604467
	H23	H	0.280112	0.152454	0.393986
	H24	H	0.896984	0.330627	0.216740
	H25	H	0.101723	0.654296	0.215099
	H26	H	0.098814	0.329685	0.782619
	H27	H	0.901682	0.655315	0.782769
	H28	H	0.216778	0.890073	0.336824
	H29	H	0.216397	0.094434	0.661391
	H30	H	0.781703	0.094486	0.336298
	H31	H	0.783380	0.890757	0.662848
	H32	H	0.337546	0.209917	0.893090
	H33	H	0.659943	0.209568	0.099812
	H34	H	0.338928	0.770721	0.102886
	H35	H	0.660765	0.775607	0.896829
	H36	H	0.337643	0.887826	0.216901
	H37	H	0.660488	0.093268	0.216087
	H38	H	0.336553	0.092580	0.781315
	H39	H	0.660322	0.892525	0.782147
	H40	H	0.896791	0.210481	0.335521
	H41	H	0.099843	0.208146	0.661845
	H42	H	0.100197	0.775726	0.336395
	H43	H	0.898174	0.773991	0.661825
	H44	H	0.215681	0.330154	0.896367
	H45	H	0.221762	0.651880	0.103439
	H46	H	0.780411	0.330042	0.101230
	H47	H	0.782107	0.652895	0.893983
	H48	H	0.405689	0.106436	0.584657
	H49	H	0.594197	0.874486	0.597464
	H50	H	0.595565	0.109523	0.402204
	H51	H	0.397193	0.874631	0.413266
	H52	H	0.594739	0.400185	0.114991
	H53	H	0.589110	0.592155	0.879223
	H54	H	0.408125	0.574731	0.113240
	H55	H	0.416098	0.400914	0.884366
	H56	H	0.110683	0.579707	0.411339
	H57	H	0.884616	0.586312	0.582656
	H58	H	0.111552	0.400092	0.584744
	H59	H	0.886471	0.411061	0.408656
	H60	H	0.114335	0.404303	0.593626
	H61	H	0.884489	0.576134	0.592534
	H62	H	0.115117	0.584359	0.400894
	H63	H	0.880927	0.397857	0.402085
	H64	H	0.414653	0.579877	0.112543
	H65	H	0.598857	0.581549	0.879341
	H66	H	0.587510	0.404343	0.110655
	H67	H	0.402881	0.393442	0.877473
	H68	H	0.583659	0.105560	0.405775
	H69	H	0.585081	0.879358	0.591327
	H70	H	0.403425	0.110468	0.593259
	H71	H	0.409695	0.873800	0.400724
	H72	H	0.911830	0.607225	0.094722
	H73	H	0.082571	0.379278	0.089801
	H74	H	0.104293	0.611023	0.906512
	H75	H	0.909346	0.375102	0.899962
	H76	H	0.080845	0.903306	0.611891
	H77	H	0.094803	0.080528	0.382200
	H78	H	0.906339	0.082004	0.615680
	H79	H	0.910606	0.898562	0.382933
	H80	H	0.609181	0.078665	0.918086
	H81	H	0.384108	0.084135	0.086392
	H82	H	0.617662	0.892414	0.095440
	H83	H	0.386827	0.905263	0.913745
	H84	H	0.611802	0.898387	0.081340
	H85	H	0.385681	0.078428	0.086280
	H86	H	0.615020	0.076189	0.895217
	H87	H	0.382069	0.900205	0.899412
	H88	H	0.908651	0.081781	0.614071
	H89	H	0.083867	0.080911	0.385943
	H90	H	0.090051	0.893365	0.618235
	H91	H	0.903428	0.899927	0.380811
	H92	H	0.086162	0.608986	0.895300
	H93	H	0.091680	0.378766	0.082954
	H94	H	0.911736	0.603777	0.079538
	H95	H	0.910308	0.378748	0.912333
	H96	H	0.412185	0.106261	0.591248
	H97	H	0.595835	0.877468	0.585985
	H98	H	0.593533	0.105847	0.413965
	H99	H	0.413682	0.880547	0.416861
	H100	H	0.587030	0.396217	0.113199
	H101	H	0.585671	0.579679	0.883875
	H102	H	0.407177	0.583150	0.115473
	H103	H	0.402351	0.408729	0.882089
	H104	H	0.114799	0.591468	0.410635
	H105	H	0.880351	0.589037	0.596200
	H106	H	0.116628	0.394721	0.592111
	H107	H	0.884675	0.398021	0.416979
	H108	H	0.898693	0.609579	0.086384
	H109	H	0.092352	0.375503	0.094028
	H110	H	0.086581	0.603161	0.915787
	H111	H	0.899029	0.374452	0.907886
	H112	H	0.095471	0.907168	0.614616
	H113	H	0.088246	0.090107	0.380172
	H114	H	0.908090	0.084387	0.615325
	H115	H	0.907809	0.905315	0.384596
	H116	H	0.617918	0.097309	0.905956
	H117	H	0.384181	0.080645	0.090845
	H118	H	0.612926	0.908110	0.093883
	H119	H	0.381703	0.890421	0.911897
	C120	C	0.377098	0.000675	0.620490
	C121	C	0.621217	0.984277	0.621184
	C122	C	0.621021	0.000448	0.377474
	C123	C	0.377166	0.982839	0.377870
	C124	C	0.619805	0.370705	0.005409
	C125	C	0.621246	0.613595	0.988874
	C126	C	0.379028	0.611440	0.006398
	C127	C	0.377165	0.369184	0.988771
	C128	C	0.006956	0.615511	0.376566
	C129	C	0.990322	0.613537	0.619654
	C130	C	0.007428	0.369969	0.620806
	C131	C	0.990133	0.371762	0.377969
	C132	C	0.876638	0.500371	0.118999
	C133	C	0.120455	0.484441	0.119451
	C134	C	0.121069	0.500503	0.876425
	C135	C	0.877836	0.483529	0.876326
	C136	C	0.119517	0.870900	0.507795
	C137	C	0.119634	0.113923	0.490164
	C138	C	0.877180	0.113770	0.507290
	C139	C	0.877586	0.871149	0.490786
	C140	C	0.507354	0.113896	0.875940
	C141	C	0.490837	0.111917	0.118771
	C142	C	0.508029	0.868350	0.121313
	C143	C	0.490535	0.870340	0.878180
	C144	C	0.378414	0.878761	0.677511
	C145	C	0.618770	0.106556	0.676022
	C146	C	0.619847	0.878286	0.321651
	C147	C	0.378233	0.104018	0.318547
	C148	C	0.676511	0.371862	0.882409
	C149	C	0.678616	0.612258	0.111250
	C150	C	0.321599	0.612180	0.883958
	C151	C	0.319171	0.367036	0.110822
	C152	C	0.885530	0.672014	0.376761
	C153	C	0.111966	0.670762	0.619277
	C154	C	0.885742	0.313122	0.620775
	C155	C	0.111133	0.313871	0.377386
	C156	C	0.885222	0.372153	0.676967
	C157	C	0.112800	0.612353	0.675425
	C158	C	0.885476	0.614390	0.319106
	C159	C	0.111797	0.372618	0.320582
	C160	C	0.379020	0.669857	0.884243
	C161	C	0.621593	0.669524	0.111596
	C162	C	0.619345	0.314003	0.882645
	C163	C	0.378063	0.310742	0.111186
	C164	C	0.677857	0.878816	0.378553
	C165	C	0.678068	0.106313	0.619673
	C166	C	0.318681	0.879732	0.622355
	C167	C	0.319327	0.104127	0.375594
	C168	C	0.876934	0.379034	0.177876
	C169	C	0.121302	0.605602	0.176856
	C170	C	0.119025	0.378449	0.820502
	C171	C	0.880578	0.606176	0.820132
	C172	C	0.177526	0.870844	0.385381
	C173	C	0.177346	0.113410	0.612695
	C174	C	0.820139	0.114175	0.384783
	C175	C	0.820934	0.870969	0.613580
	C176	C	0.385973	0.171033	0.875051
	C177	C	0.611991	0.170080	0.119035
	C178	C	0.386848	0.810114	0.121665
	C179	C	0.612406	0.814339	0.878180
	C180	C	0.386372	0.868329	0.178660
	C181	C	0.612125	0.112143	0.176762
	C182	C	0.385380	0.112772	0.818948
	C183	C	0.612279	0.872518	0.821087
	C184	C	0.877299	0.171939	0.384775
	C185	C	0.119158	0.170048	0.612856
	C186	C	0.119437	0.814077	0.385235
	C187	C	0.878175	0.813036	0.613207
	C188	C	0.177239	0.378583	0.877085
	C189	C	0.180878	0.604427	0.120916
	C190	C	0.818788	0.378848	0.120365
	C191	C	0.821166	0.605114	0.875714
	C192	C	0.400333	0.085652	0.596547
	C193	C	0.598433	0.899330	0.598349
	C194	C	0.597864	0.084997	0.400536
	C195	C	0.400148	0.898355	0.402922
	C196	C	0.596659	0.393666	0.090770
	C197	C	0.597816	0.591203	0.902934
	C198	C	0.402978	0.586494	0.091647
	C199	C	0.400497	0.393622	0.903488
	C200	C	0.091699	0.592188	0.400480
	C201	C	0.905247	0.590655	0.596867
	C202	C	0.092095	0.393035	0.597033
	C203	C	0.905912	0.395496	0.402119
	C204	C	0.900381	0.584926	0.094093
	C205	C	0.095959	0.399897	0.095681
	C206	C	0.099032	0.585593	0.899269
	C207	C	0.899824	0.398369	0.899910
	C208	C	0.095586	0.894447	0.592888
	C209	C	0.095965	0.090323	0.404889
	C210	C	0.900914	0.089768	0.592985
	C211	C	0.900583	0.894670	0.405005
	C212	C	0.592133	0.090795	0.899547
	C213	C	0.406380	0.088077	0.094667
	C214	C	0.592298	0.892567	0.097300
	C215	C	0.405656	0.892194	0.901560
	Zn216	Zn	0.498338	-0.008033	0.749092
	Zn217	Zn	0.499499	-0.009583	0.248824
	Zn218	Zn	0.748221	0.491599	-0.003087
	Zn219	Zn	0.249378	0.491320	-0.002059
	Zn220	Zn	-0.001397	0.742532	0.499267
	Zn221	Zn	-0.001383	0.241783	0.498990
	Zn222	Zn	-0.000398	0.492438	0.748173
	Zn223	Zn	-0.001647	0.493393	0.248005
	Zn224	Zn	0.499704	0.740213	-0.001248
	Zn225	Zn	0.498968	0.241538	-0.002980
	Zn226	Zn	0.749305	-0.007842	0.498895
	Zn227	Zn	0.247798	-0.007746	0.499147
	N228	N	0.413953	0.955099	0.676588
	N229	N	0.584162	0.029790	0.677145
	N230	N	0.585110	0.954849	0.320851
	N231	N	0.413258	0.027714	0.319803
	N232	N	0.677124	0.406306	0.959854
	N233	N	0.678741	0.578202	0.033797
	N234	N	0.321427	0.576487	0.961146
	N235	N	0.318598	0.402952	0.033796
	N236	N	0.962161	0.672578	0.411760
	N237	N	0.034838	0.671473	0.585212
	N238	N	0.962695	0.311651	0.586631
	N239	N	0.034513	0.313136	0.412148
	N240	N	0.961967	0.406681	0.677237
	N241	N	0.036286	0.577271	0.675745
	N242	N	0.962163	0.579986	0.318667
	N243	N	0.035538	0.408059	0.320756
	N244	N	0.413962	0.669474	0.961506
	N245	N	0.586843	0.670418	0.034332
	N246	N	0.584764	0.312984	0.960109
	N247	N	0.413309	0.312055	0.034189
	N248	N	0.678942	0.955770	0.412340
	N249	N	0.679643	0.029063	0.586194
	N250	N	0.317661	0.956568	0.587481
	N251	N	0.318524	0.027728	0.411794
	N252	N	0.912502	0.455475	0.177145
	N253	N	0.084349	0.529899	0.176056
	N254	N	0.085036	0.455217	0.819773
	N255	N	0.915054	0.529525	0.820214
	N256	N	0.177686	0.905589	0.462495
	N257	N	0.177909	0.079291	0.535122
	N258	N	0.820057	0.078796	0.461936
	N259	N	0.820300	0.906254	0.536200
	N260	N	0.462767	0.172004	0.909655
	N261	N	0.535623	0.169992	0.083584
	N262	N	0.463473	0.809751	0.086888
	N263	N	0.535743	0.812879	0.913019
	N264	N	0.462874	0.903583	0.178747
	N265	N	0.535867	0.076443	0.176382
	N266	N	0.461861	0.077899	0.819388
	N267	N	0.535523	0.906761	0.821003
	N268	N	0.912146	0.171685	0.462229
	N269	N	0.084369	0.170727	0.535664
	N270	N	0.084221	0.813960	0.462403
	N271	N	0.912506	0.812958	0.535910
	N272	N	0.178649	0.455538	0.911328
	N273	N	0.180488	0.527878	0.086059
	N274	N	0.818605	0.455465	0.084642
	N275	N	0.819143	0.527830	0.909722
	O276	O	-0.057047	-0.041483	0.087033
	H277	H	-0.052454	-0.037212	0.087047
	H278	H	-0.058582	-0.031505	0.093077
	O279	O	0.481097	0.642891	0.563185
	H280	H	0.488868	0.652446	0.569215
	H281	H	0.482416	0.637652	0.578293
	O282	O	0.816615	-0.062055	0.040103
	H283	H	0.828666	-0.058485	0.053658
	H284	H	0.803810	-0.080825	0.026118
	O285	O	0.162710	1.112495	0.096280
	H286	H	0.161921	1.096131	0.098883
	H287	H	0.159676	1.110752	0.088947
	O288	O	0.966339	0.827139	-0.092508
	H289	H	0.958176	0.833528	-0.102269
	H290	H	0.962961	0.822710	-0.095179
	O291	O	0.356375	0.385870	0.531964
	H292	H	0.352220	0.379850	0.548288
	H293	H	0.347052	0.386395	0.549080
	O294	O	1.029104	1.075593	1.034153
	H295	H	1.036246	1.082922	1.033167
	H296	H	1.018376	1.080373	1.033376
	O297	O	-0.053124	0.134347	0.049660
	H298	H	-0.058635	0.136893	0.045562
	H299	H	-0.051697	0.124638	0.047278
	O300	O	0.505957	0.561402	0.591778
	H301	H	0.517441	0.557442	0.593307
	H302	H	0.506014	0.566700	0.589741
	O303	O	0.125342	0.901367	0.961131
	H304	H	0.132405	0.893424	0.967659
	H305	H	0.115637	0.891148	0.965818
	O306	O	0.641373	0.497506	0.627892
	H307	H	0.638918	0.500457	0.626577
	H308	H	0.641649	0.491392	0.623935
	O309	O	1.032458	-0.169742	-0.085277
	H310	H	1.018352	-0.179348	-0.083797
	H311	H	1.024919	-0.163078	-0.062906
	O312	O	-0.041324	-0.116436	1.033755
	H313	H	-0.038825	-0.121889	1.028378
	H314	H	-0.040475	-0.116648	1.057810
	O315	O	0.462823	0.598317	0.336843
	H316	H	0.448837	0.598897	0.324240
	H317	H	0.467705	0.592255	0.340516
	O318	O	0.359746	0.430231	0.551353
	H319	H	0.364264	0.439636	0.553549
	H320	H	0.353126	0.442646	0.549856
	O321	O	0.388619	0.394266	0.500240
	H322	H	0.380708	0.392088	0.496864
	H323	H	0.395947	0.396310	0.498167
	O324	O	0.405195	0.385679	0.492650
	H325	H	0.405799	0.393400	0.503775
	H326	H	0.407885	0.387213	0.497605
	O327	O	0.111124	0.886437	1.121263
	H328	H	0.120769	0.891040	1.122890
	H329	H	0.112789	0.902031	1.133698
	O330	O	0.557200	0.578891	0.462625
	H331	H	0.554786	0.577886	0.460324
	H332	H	0.561383	0.590705	0.453798
	O333	O	-0.006888	0.889415	1.167518
	H334	H	0.011935	0.881991	1.158518
	H335	H	-0.006125	0.875007	1.172633
	O336	O	1.122912	1.016395	0.962925
	H337	H	1.143052	1.007571	0.958138
	H338	H	1.113238	1.015920	0.944257
	O339	O	0.590396	0.498989	0.494565
	H340	H	0.587854	0.484563	0.495355
	H341	H	0.598483	0.496525	0.491420
	O342	O	1.120717	0.091384	0.010718
	H343	H	1.131258	0.082472	0.026668
	H344	H	1.130600	0.103013	0.019823
	O345	O	0.558115	0.421978	0.414256
	H346	H	0.558664	0.416078	0.411414
	H347	H	0.553727	0.419201	0.415731
	O348	O	0.893095	1.036681	0.921920
	H349	H	0.892340	1.040438	0.914563
	H350	H	0.877062	1.031658	0.918263
	O351	O	0.825562	1.020798	0.003248
	H352	H	0.815459	1.014028	0.010659
	H353	H	0.820719	1.027649	0.004782
	O354	O	0.580031	0.467885	0.451417
	H355	H	0.586649	0.462536	0.446321
	H356	H	0.589235	0.472371	0.460110
	O357	O	0.472210	0.368339	0.434458
	H358	H	0.469727	0.357599	0.431077
	H359	H	0.470556	0.374870	0.429674
	O360	O	-0.132790	0.020588	-0.017748
	H361	H	-0.134198	0.024126	-0.024339
	H362	H	-0.127365	0.024071	-0.008907
	O363	O	0.418163	0.581831	0.468998
	H364	H	0.428225	0.587520	0.469323
	H365	H	0.402708	0.596512	0.466558
	O366	O	0.358247	0.668390	0.458025
	H367	H	0.353760	0.673042	0.458176
	H368	H	0.368510	0.667582	0.447728
	O369	O	0.481137	0.515388	0.461914
	H370	H	0.481011	0.493479	0.455515
	H371	H	0.478406	0.515359	0.486252
	O372	O	-0.068198	0.975708	1.110326
	H373	H	-0.066751	0.963562	1.121986
	H374	H	-0.051987	0.979024	1.112428
	O375	O	0.659244	0.448727	0.505839
	H376	H	0.670063	0.443309	0.494397
	H377	H	0.656141	0.459665	0.492874
	O378	O	0.467656	0.415438	0.441401
	H379	H	0.463645	0.400439	0.446470
	H380	H	0.482796	0.424151	0.445453
	O381	O	0.556058	0.453358	0.627747
	H382	H	0.558575	0.447594	0.612969
	H383	H	0.553819	0.444134	0.617534
	O384	O	0.003254	1.026637	-0.126639
	H385	H	0.016024	1.026231	-0.137804
	H386	H	0.009186	1.027786	-0.117247
	O387	O	0.930489	0.130715	0.989957
	H388	H	0.912426	0.135370	0.999307
	H389	H	0.936403	0.139341	0.987222
	O390	O	0.112899	0.956509	0.097728
	H391	H	0.103913	0.957199	0.106333
	H392	H	0.115185	0.981237	0.091499
	O393	O	1.019638	1.068213	-0.109403
	H394	H	1.027520	1.061743	-0.123017
	H395	H	1.027408	1.057197	-0.105213
	O396	O	0.536216	0.606432	0.390793
	H397	H	0.530181	0.601777	0.387576
	H398	H	0.533654	0.603631	0.384217
	O399	O	-0.006225	0.944661	0.889005
	H400	H	0.003037	0.942333	0.879035
	H401	H	-0.013714	0.949227	0.894369
	O402	O	1.059816	1.138058	0.883110
	H403	H	1.059817	1.124442	0.873155
	H404	H	1.047330	1.155981	0.875574
	O405	O	0.608213	0.514339	0.496468
	H406	H	0.601573	0.522337	0.501278
	H407	H	0.608734	0.513566	0.496121
