data_Molecule from HDF5

_cell_length_a		16.189448
_cell_length_b		16.190524
_cell_length_c		16.319391
_cell_angle_alpha	89.767686
_cell_angle_beta	90.045867
_cell_angle_gamma	89.978320
_symmetry_space_group_name_H-M	'P 1'
_symmetry_Int_Tables_number		1

loop_
	_symmetry_equiv_pos_as_xyz
	x,y,z

loop_
	_atom_site_label
	_atom_site_type_symbol
	_atom_site_fract_x
	_atom_site_fract_y
	_atom_site_fract_z
	H0	H	0.398518	0.831604	0.716672
	H1	H	0.600474	0.158075	0.714560
	H2	H	0.600069	0.830241	0.287182
	H3	H	0.397458	0.158276	0.281876
	H4	H	0.716250	0.395618	0.837123
	H5	H	0.715354	0.592826	0.164096
	H6	H	0.284388	0.595454	0.837468
	H7	H	0.284406	0.393982	0.163442
	H8	H	0.834597	0.709688	0.401439
	H9	H	0.163406	0.711410	0.598934
	H10	H	0.835044	0.282583	0.599061
	H11	H	0.164781	0.282723	0.403808
	H12	H	0.836779	0.394614	0.717418
	H13	H	0.163269	0.597769	0.715731
	H14	H	0.836474	0.598364	0.283389
	H15	H	0.164626	0.397923	0.287454
	H16	H	0.401471	0.710534	0.837527
	H17	H	0.599906	0.709308	0.164361
	H18	H	0.600225	0.279496	0.836428
	H19	H	0.401017	0.277028	0.163263
	H20	H	0.713820	0.830478	0.403732
	H21	H	0.712118	0.159363	0.598318
	H22	H	0.283825	0.831492	0.600064
	H23	H	0.286205	0.160837	0.400783
	H24	H	0.899273	0.333368	0.218379
	H25	H	0.101208	0.660025	0.215406
	H26	H	0.102769	0.333243	0.783959
	H27	H	0.898928	0.659336	0.783765
	H28	H	0.215464	0.896638	0.336945
	H29	H	0.216250	0.095819	0.662633
	H30	H	0.783822	0.095484	0.337371
	H31	H	0.786367	0.897544	0.663831
	H32	H	0.336538	0.210137	0.899023
	H33	H	0.665620	0.206511	0.096356
	H34	H	0.335668	0.780373	0.099577
	H35	H	0.664828	0.781206	0.903652
	H36	H	0.335299	0.893559	0.216113
	H37	H	0.663957	0.094239	0.215461
	H38	H	0.337755	0.096768	0.782613
	H39	H	0.664087	0.892763	0.784029
	H40	H	0.899845	0.213543	0.338043
	H41	H	0.098624	0.209429	0.664676
	H42	H	0.098492	0.781149	0.336691
	H43	H	0.898034	0.779355	0.662876
	H44	H	0.212906	0.331126	0.901992
	H45	H	0.214568	0.659818	0.098689
	H46	H	0.787212	0.330464	0.099926
	H47	H	0.784732	0.659112	0.901081
	H48	H	0.399250	0.115381	0.596262
	H49	H	0.594089	0.876085	0.593962
	H50	H	0.588302	0.111542	0.405954
	H51	H	0.399455	0.877091	0.410496
	H52	H	0.604071	0.396638	0.120477
	H53	H	0.593058	0.592865	0.883302
	H54	H	0.396605	0.589016	0.120150
	H55	H	0.406816	0.390974	0.880382
	H56	H	0.119985	0.594547	0.404530
	H57	H	0.883717	0.576052	0.601674
	H58	H	0.119804	0.404567	0.603288
	H59	H	0.882425	0.404642	0.407767
	H60	H	0.118572	0.395074	0.591036
	H61	H	0.876896	0.599811	0.598153
	H62	H	0.115856	0.589202	0.414024
	H63	H	0.884404	0.405697	0.410575
	H64	H	0.410212	0.578130	0.113271
	H65	H	0.597027	0.584559	0.884910
	H66	H	0.592014	0.411759	0.112506
	H67	H	0.395999	0.408356	0.882990
	H68	H	0.592290	0.112135	0.408942
	H69	H	0.592239	0.876675	0.595346
	H70	H	0.417057	0.112158	0.599200
	H71	H	0.409725	0.877673	0.401778
	H72	H	0.911222	0.611261	0.089930
	H73	H	0.094004	0.378439	0.092429
	H74	H	0.089380	0.613989	0.904184
	H75	H	0.907805	0.378594	0.909782
	H76	H	0.089863	0.914539	0.611706
	H77	H	0.091031	0.091462	0.384238
	H78	H	0.913458	0.087657	0.614430
	H79	H	0.907751	0.901487	0.383556
	H80	H	0.616144	0.086632	0.912949
	H81	H	0.381861	0.090274	0.090966
	H82	H	0.614818	0.892497	0.076258
	H83	H	0.386490	0.905131	0.914703
	H84	H	0.612490	0.922023	0.098426
	H85	H	0.385194	0.081733	0.088571
	H86	H	0.616442	0.080949	0.904590
	H87	H	0.383343	0.908750	0.904310
	H88	H	0.903977	0.097295	0.619661
	H89	H	0.093650	0.090854	0.383609
	H90	H	0.082965	0.897126	0.614910
	H91	H	0.903553	0.903437	0.382542
	H92	H	0.089549	0.611101	0.910193
	H93	H	0.093898	0.377026	0.097897
	H94	H	0.903402	0.613898	0.090361
	H95	H	0.909262	0.377800	0.906401
	H96	H	0.409274	0.109191	0.581717
	H97	H	0.590937	0.877262	0.592686
	H98	H	0.592476	0.112437	0.404961
	H99	H	0.411513	0.880903	0.414420
	H100	H	0.583834	0.392578	0.115798
	H101	H	0.588112	0.586285	0.886478
	H102	H	0.413234	0.594999	0.117604
	H103	H	0.415892	0.407733	0.888380
	H104	H	0.115029	0.583228	0.403837
	H105	H	0.886555	0.586063	0.579850
	H106	H	0.114181	0.409603	0.589000
	H107	H	0.882826	0.407788	0.408297
	H108	H	0.908888	0.614772	0.097233
	H109	H	0.089457	0.378858	0.095487
	H110	H	0.095260	0.613749	0.907185
	H111	H	0.911073	0.379626	0.909129
	H112	H	0.101158	0.900664	0.619164
	H113	H	0.093000	0.089559	0.384489
	H114	H	0.899867	0.083542	0.617610
	H115	H	0.907315	0.906258	0.384953
	H116	H	0.620276	0.090558	0.903924
	H117	H	0.382229	0.083676	0.097845
	H118	H	0.625701	0.889723	0.110917
	H119	H	0.381947	0.897384	0.907006
	C120	C	0.378758	0.003846	0.621702
	C121	C	0.621111	0.985591	0.621909
	C122	C	0.621069	0.003239	0.378835
	C123	C	0.378081	0.987240	0.378890
	C124	C	0.622072	0.372393	0.008178
	C125	C	0.621966	0.616262	0.992737
	C126	C	0.377741	0.616815	0.009320
	C127	C	0.377670	0.372604	0.991774
	C128	C	0.008673	0.618563	0.378085
	C129	C	0.990859	0.617172	0.621801
	C130	C	0.008939	0.374170	0.623084
	C131	C	0.991648	0.375924	0.379986
	C132	C	0.878807	0.504657	0.121900
	C133	C	0.121545	0.486953	0.122846
	C134	C	0.121197	0.504595	0.878794
	C135	C	0.879233	0.486863	0.879164
	C136	C	0.121011	0.874874	0.508002
	C137	C	0.121556	0.118669	0.491772
	C138	C	0.876775	0.118999	0.509592
	C139	C	0.877266	0.874397	0.491669
	C140	C	0.509569	0.116099	0.877850
	C141	C	0.491394	0.115138	0.121218
	C142	C	0.508496	0.872272	0.123486
	C143	C	0.492036	0.873865	0.879697
	C144	C	0.378961	0.880559	0.678262
	C145	C	0.619912	0.109006	0.677043
	C146	C	0.619579	0.879559	0.324678
	C147	C	0.378928	0.109998	0.321656
	C148	C	0.678386	0.374896	0.885756
	C149	C	0.677674	0.613534	0.115337
	C150	C	0.322168	0.615810	0.886446
	C151	C	0.322502	0.373892	0.114611
	C152	C	0.884416	0.673163	0.380449
	C153	C	0.114427	0.673278	0.619196
	C154	C	0.884788	0.319368	0.620298
	C155	C	0.115368	0.320441	0.382863
	C156	C	0.885496	0.375275	0.678848
	C157	C	0.114207	0.617058	0.677706
	C158	C	0.885337	0.617684	0.321778
	C159	C	0.115198	0.377332	0.324648
	C160	C	0.380226	0.673143	0.886569
	C161	C	0.619807	0.671128	0.115674
	C162	C	0.620935	0.316949	0.885427
	C163	C	0.380708	0.315806	0.114493
	C164	C	0.676033	0.879553	0.383146
	C165	C	0.675399	0.109713	0.619050
	C166	C	0.321962	0.880637	0.620152
	C167	C	0.323382	0.111139	0.380770
	C168	C	0.879884	0.381580	0.179217
	C169	C	0.120465	0.610959	0.177434
	C170	C	0.121090	0.381510	0.822784
	C171	C	0.879701	0.610353	0.822671
	C172	C	0.177038	0.876801	0.385558
	C173	C	0.177655	0.116056	0.614322
	C174	C	0.821497	0.116641	0.386426
	C175	C	0.822960	0.876638	0.614660
	C176	C	0.385967	0.172225	0.879086
	C177	C	0.615915	0.170042	0.118008
	C178	C	0.384891	0.817513	0.120547
	C179	C	0.615656	0.818534	0.882457
	C180	C	0.384776	0.873984	0.178357
	C181	C	0.615168	0.114035	0.177081
	C182	C	0.386307	0.115684	0.821404
	C183	C	0.615183	0.874372	0.823230
	C184	C	0.879660	0.174623	0.386560
	C185	C	0.119151	0.172611	0.615252
	C186	C	0.118882	0.819362	0.385378
	C187	C	0.879032	0.817920	0.614106
	C188	C	0.175973	0.380699	0.881479
	C189	C	0.177093	0.610741	0.119612
	C190	C	0.824090	0.380271	0.120591
	C191	C	0.822468	0.610132	0.880692
	C192	C	0.401734	0.090013	0.599118
	C193	C	0.599046	0.899124	0.600216
	C194	C	0.597915	0.089707	0.400220
	C195	C	0.400374	0.900779	0.402026
	C196	C	0.599893	0.394011	0.093971
	C197	C	0.599232	0.594374	0.907080
	C198	C	0.400118	0.594021	0.094785
	C199	C	0.399490	0.395657	0.906136
	C200	C	0.094653	0.595770	0.400734
	C201	C	0.904638	0.594082	0.599717
	C202	C	0.095119	0.396451	0.600961
	C203	C	0.905409	0.399218	0.402263
	C204	C	0.901210	0.590830	0.099064
	C205	C	0.098862	0.400480	0.101462
	C206	C	0.098150	0.590712	0.900676
	C207	C	0.902518	0.400807	0.901847
	C208	C	0.097912	0.897425	0.593256
	C209	C	0.099184	0.097081	0.406279
	C210	C	0.899294	0.096328	0.595157
	C211	C	0.899473	0.897208	0.405689
	C212	C	0.595396	0.092779	0.900459
	C213	C	0.405555	0.092237	0.098909
	C214	C	0.595238	0.894746	0.101570
	C215	C	0.406158	0.896812	0.902297
	Zn216	Zn	0.500739	-0.005368	0.750161
	Zn217	Zn	0.499403	-0.005631	0.250345
	Zn218	Zn	0.750724	0.494564	0.000939
	Zn219	Zn	0.248642	0.495234	0.000377
	Zn220	Zn	-0.001139	0.745708	0.500176
	Zn221	Zn	0.000066	0.247056	0.501375
	Zn222	Zn	0.000711	0.495827	0.750265
	Zn223	Zn	0.000231	0.496996	0.250516
	Zn224	Zn	0.500060	0.745392	0.001190
	Zn225	Zn	0.500857	0.243538	-0.000898
	Zn226	Zn	0.748562	-0.004530	0.501066
	Zn227	Zn	0.250041	-0.003783	0.500078
	N228	N	0.413406	0.958176	0.679515
	N229	N	0.586808	0.030840	0.679042
	N230	N	0.585870	0.957587	0.322067
	N231	N	0.412162	0.031907	0.320200
	N232	N	0.679223	0.408529	0.963081
	N233	N	0.679209	0.580290	0.037879
	N234	N	0.320245	0.581767	0.963722
	N235	N	0.320382	0.408251	0.037265
	N236	N	0.961927	0.673891	0.414911
	N237	N	0.036610	0.673665	0.585300
	N238	N	0.962480	0.318527	0.586446
	N239	N	0.037479	0.319437	0.416436
	N240	N	0.963707	0.408519	0.680989
	N241	N	0.036286	0.582735	0.679244
	N242	N	0.963690	0.584616	0.319926
	N243	N	0.037244	0.411372	0.322959
	N244	N	0.414120	0.673863	0.963991
	N245	N	0.586223	0.673219	0.038280
	N246	N	0.586686	0.315305	0.962540
	N247	N	0.414175	0.314679	0.036960
	N248	N	0.677283	0.957742	0.415878
	N249	N	0.676514	0.031982	0.585526
	N250	N	0.321649	0.958300	0.585733
	N251	N	0.322908	0.033599	0.415595
	N252	N	0.913059	0.459665	0.180338
	N253	N	0.086875	0.532925	0.179582
	N254	N	0.087520	0.459459	0.821055
	N255	N	0.914059	0.532628	0.821310
	N256	N	0.178455	0.910506	0.462852
	N257	N	0.179202	0.083061	0.536916
	N258	N	0.819421	0.082769	0.463958
	N259	N	0.821917	0.911183	0.537507
	N260	N	0.463397	0.172592	0.913353
	N261	N	0.537989	0.170941	0.084114
	N262	N	0.462968	0.816450	0.087173
	N263	N	0.538266	0.818306	0.917011
	N264	N	0.462962	0.907237	0.180418
	N265	N	0.536970	0.080768	0.179445
	N266	N	0.464135	0.081386	0.820381
	N267	N	0.537275	0.908099	0.821297
	N268	N	0.913048	0.176259	0.464071
	N269	N	0.084746	0.174314	0.538053
	N270	N	0.084747	0.817948	0.462578
	N271	N	0.911938	0.816354	0.536373
	N272	N	0.176347	0.458252	0.915704
	N273	N	0.178088	0.532726	0.086375
	N274	N	0.823285	0.457788	0.085642
	N275	N	0.822135	0.532356	0.915039
	O276	O	0.554686	0.437984	0.435074
	H277	H	0.559503	0.441283	0.432674
	H278	H	0.567773	0.431336	0.429003
	O279	O	0.503630	0.485171	0.547237
	H280	H	0.513100	0.491292	0.546768
	H281	H	0.497576	0.479256	0.556672
	O282	O	1.068764	1.009767	0.066888
	H283	H	1.065976	0.997705	0.077403
	H284	H	1.071517	1.016139	0.071774
	O285	O	0.900313	-0.016869	1.054701
	H286	H	0.902858	-0.022031	1.060678
	H287	H	0.895558	-0.021258	1.046642
	O288	O	0.402786	0.512295	0.474908
	H289	H	0.390216	0.508929	0.479637
	H290	H	0.395906	0.506382	0.468319
	O291	O	0.438512	0.448437	0.467245
	H292	H	0.429942	0.442490	0.466482
	H293	H	0.434745	0.451024	0.470207
	O294	O	0.524280	0.540224	0.488991
	H295	H	0.528407	0.539072	0.491326
	H296	H	0.507564	0.553677	0.493498
	O297	O	0.035803	-0.004073	0.967804
	H298	H	0.034031	-0.014995	0.970263
	H299	H	0.038499	-0.011581	0.965131
	O300	O	0.519509	0.463096	0.483487
	H301	H	0.516489	0.470462	0.488411
	H302	H	0.522896	0.459628	0.477588
	O303	O	1.047042	0.869813	-0.018240
	H304	H	1.047630	0.887697	-0.014551
	H305	H	1.046105	0.865723	-0.023658
	O306	O	-0.037194	1.077091	0.971027
	H307	H	-0.022506	1.085035	0.971605
	H308	H	-0.049912	1.073778	0.963030
	O309	O	0.436313	0.488840	0.595608
	H310	H	0.435713	0.490822	0.591774
	H311	H	0.440157	0.489119	0.593088
	O312	O	0.051646	-0.031225	-0.087258
	H313	H	0.041171	-0.033190	-0.096187
	H314	H	0.052560	-0.029683	-0.099419
	O315	O	0.511267	-0.488212	0.412199
	H316	H	0.507223	-0.489308	0.403413
	H317	H	0.516242	-0.493514	0.419209
	O318	O	1.033302	1.036468	1.016246
	H319	H	1.039228	1.029600	1.004120
	H320	H	1.033384	1.035954	1.012162
	O321	O	0.044439	-0.046197	1.132849
	H322	H	0.056465	-0.043271	1.139245
	H323	H	0.037204	-0.052445	1.131412
	O324	O	0.564466	0.429478	0.550965
	H325	H	0.573184	0.435780	0.557717
	H326	H	0.574793	0.429838	0.558125
	O327	O	-0.000111	-0.076843	-0.060866
	H328	H	0.005792	-0.086001	-0.058661
	H329	H	-0.004888	-0.076860	-0.052446
	O330	O	0.491042	0.475665	0.500488
	H331	H	0.489072	0.465904	0.502228
	H332	H	0.506047	0.468931	0.500653
	O333	O	-0.043452	0.939324	1.062806
	H334	H	-0.039909	0.937976	1.072235
	H335	H	-0.053088	0.932699	1.066712
	O336	O	-0.020369	-0.003101	0.007669
	H337	H	-0.020784	-0.010320	0.015677
	H338	H	-0.018663	-0.002345	0.010525
	O339	O	0.518528	0.586887	0.475791
	H340	H	0.514387	0.592360	0.481418
	H341	H	0.510647	0.583076	0.471273
	O342	O	1.143263	0.976654	1.053954
	H343	H	1.136940	0.991434	1.059547
	H344	H	1.164304	0.981791	1.045410
	O345	O	0.916823	2.016575	-0.038853
	H346	H	0.920190	2.010792	-0.030593
	H347	H	0.910938	2.012494	-0.029323
	O348	O	0.509326	0.500618	0.515485
	H349	H	0.507238	0.503253	0.514721
	H350	H	0.508789	0.509373	0.517082
	O351	O	0.495633	0.465209	0.624461
	H352	H	0.487095	0.463087	0.627529
	H353	H	0.492546	0.458838	0.617126
	O354	O	0.375036	0.464045	0.449143
	H355	H	0.383817	0.458697	0.448514
	H356	H	0.377237	0.468356	0.442184
	O357	O	0.987796	0.010191	0.884169
	H358	H	0.985683	0.013122	0.872011
	H359	H	0.986578	0.022844	0.885604
	O360	O	0.504022	0.521883	0.358755
	H361	H	0.512036	0.530244	0.351813
	H362	H	0.505307	0.520127	0.353963
	O363	O	0.494377	0.483585	0.492003
	H364	H	0.488224	0.479073	0.483431
	H365	H	0.486092	0.493239	0.495840
	O366	O	1.130390	1.065125	1.070603
	H367	H	1.131935	1.077031	1.061289
	H368	H	1.121009	1.063080	1.065724
	O369	O	0.896342	-0.000256	0.987736
	H370	H	0.892035	0.000179	0.986083
	H371	H	0.897869	0.016028	0.979785
	O372	O	0.036371	0.100582	-0.111842
	H373	H	0.045963	0.093180	-0.103450
	H374	H	0.044313	0.105847	-0.118025
	O375	O	0.936679	0.005286	-0.027456
	H376	H	0.939262	0.012224	-0.026814
	H377	H	0.935923	-0.008224	-0.035430
	O378	O	0.589761	0.551806	0.529866
	H379	H	0.597818	0.543660	0.515476
	H380	H	0.592850	0.547488	0.530701
	O381	O	1.056233	1.019298	0.010987
	H382	H	1.057166	1.016470	0.015892
	H383	H	1.050420	1.022704	0.005275
