data_Molecule from HDF5

_cell_length_a		16.476244
_cell_length_b		16.526013
_cell_length_c		16.475086
_cell_angle_alpha	89.910000
_cell_angle_beta	90.211786
_cell_angle_gamma	90.019777
_symmetry_space_group_name_H-M	'P 1'
_symmetry_Int_Tables_number		1

loop_
	_symmetry_equiv_pos_as_xyz
	x,y,z

loop_
	_atom_site_label
	_atom_site_type_symbol
	_atom_site_fract_x
	_atom_site_fract_y
	_atom_site_fract_z
	H0	H	0.399869	0.837035	0.742225
	H1	H	0.615141	0.149159	0.742081
	H2	H	0.610368	0.834582	0.300413
	H3	H	0.400884	0.148924	0.295629
	H4	H	0.731972	0.384889	0.861902
	H5	H	0.728818	0.596327	0.175728
	H6	H	0.285588	0.598174	0.860219
	H7	H	0.286143	0.385192	0.175034
	H8	H	0.852490	0.714050	0.414268
	H9	H	0.164426	0.718873	0.631021
	H10	H	0.849688	0.270856	0.624456
	H11	H	0.164160	0.268380	0.412890
	H12	H	0.851315	0.384877	0.742827
	H13	H	0.165518	0.600172	0.744502
	H14	H	0.852501	0.597303	0.297028
	H15	H	0.166147	0.386977	0.299391
	H16	H	0.400649	0.714862	0.860277
	H17	H	0.613456	0.713479	0.175411
	H18	H	0.617094	0.268868	0.862366
	H19	H	0.401527	0.268480	0.174040
	H20	H	0.727205	0.834778	0.417019
	H21	H	0.731920	0.148737	0.626469
	H22	H	0.283367	0.837515	0.627249
	H23	H	0.284269	0.149061	0.411209
	H24	H	0.903697	0.334735	0.241206
	H25	H	0.114065	0.650207	0.239446
	H26	H	0.115492	0.335488	0.796524
	H27	H	0.906024	0.649685	0.799128
	H28	H	0.230467	0.885641	0.362341
	H29	H	0.229607	0.098159	0.675848
	H30	H	0.787590	0.095635	0.360380
	H31	H	0.790640	0.890959	0.678661
	H32	H	0.352679	0.217315	0.911159
	H33	H	0.667608	0.213316	0.125426
	H34	H	0.348633	0.773239	0.120617
	H35	H	0.666244	0.775340	0.917214
	H36	H	0.347821	0.890496	0.236346
	H37	H	0.667182	0.096016	0.240617
	H38	H	0.351562	0.101528	0.794574
	H39	H	0.666905	0.893779	0.802507
	H40	H	0.900505	0.214040	0.360756
	H41	H	0.111223	0.213118	0.676826
	H42	H	0.115577	0.769323	0.363302
	H43	H	0.905418	0.771768	0.677154
	H44	H	0.230768	0.335217	0.914224
	H45	H	0.229016	0.650652	0.121673
	H46	H	0.786008	0.335029	0.127035
	H47	H	0.789443	0.649791	0.915400
	H48	H	0.416282	0.107598	0.609058
	H49	H	0.598876	0.881643	0.603914
	H50	H	0.601162	0.106475	0.429041
	H51	H	0.418790	0.879545	0.428215
	H52	H	0.594655	0.406258	0.128938
	H53	H	0.600490	0.586221	0.902762
	H54	H	0.414261	0.581123	0.131993
	H55	H	0.426677	0.408854	0.909645
	H56	H	0.121240	0.582470	0.435425
	H57	H	0.895873	0.585471	0.605901
	H58	H	0.120793	0.403829	0.609993
	H59	H	0.896998	0.407977	0.429812
	H60	H	0.119553	0.400994	0.604621
	H61	H	0.899442	0.578229	0.603182
	H62	H	0.120354	0.577148	0.430602
	H63	H	0.893375	0.403023	0.424711
	H64	H	0.422157	0.580108	0.129131
	H65	H	0.599539	0.579355	0.904993
	H66	H	0.596582	0.400062	0.131393
	H67	H	0.421919	0.400480	0.905210
	H68	H	0.594859	0.106085	0.426164
	H69	H	0.601175	0.878117	0.612910
	H70	H	0.425176	0.103320	0.607320
	H71	H	0.419870	0.881577	0.430930
	H72	H	0.918442	0.602321	0.099515
	H73	H	0.096383	0.382220	0.104742
	H74	H	0.091966	0.603246	0.929080
	H75	H	0.914519	0.377256	0.931210
	H76	H	0.096957	0.908657	0.630809
	H77	H	0.089530	0.080121	0.408337
	H78	H	0.919042	0.080123	0.631314
	H79	H	0.925319	0.910619	0.410668
	H80	H	0.621320	0.080080	0.926779
	H81	H	0.397394	0.083530	0.102876
	H82	H	0.622186	0.896303	0.108341
	H83	H	0.393567	0.907709	0.925250
	H84	H	0.619125	0.904533	0.107085
	H85	H	0.398510	0.076912	0.105397
	H86	H	0.620497	0.083568	0.932730
	H87	H	0.391981	0.898876	0.927678
	H88	H	0.920589	0.084035	0.631816
	H89	H	0.095436	0.085300	0.404300
	H90	H	0.092051	0.904997	0.630162
	H91	H	0.921421	0.891804	0.403433
	H92	H	0.098701	0.602711	0.935141
	H93	H	0.102498	0.378972	0.108224
	H94	H	0.912132	0.608048	0.112506
	H95	H	0.925322	0.379534	0.926507
	H96	H	0.418195	0.103809	0.600126
	H97	H	0.592366	0.881653	0.611521
	H98	H	0.595479	0.104560	0.433587
	H99	H	0.417056	0.880586	0.430711
	H100	H	0.600957	0.406004	0.131589
	H101	H	0.594021	0.584041	0.905342
	H102	H	0.419689	0.587723	0.132539
	H103	H	0.416041	0.409477	0.905464
	H104	H	0.123617	0.583360	0.429100
	H105	H	0.896993	0.578762	0.611675
	H106	H	0.117503	0.406815	0.605949
	H107	H	0.894558	0.400402	0.432403
	H108	H	0.927297	0.602888	0.112622
	H109	H	0.095410	0.379177	0.112165
	H110	H	0.100115	0.606420	0.927642
	H111	H	0.923123	0.382758	0.937029
	H112	H	0.097409	0.903029	0.632911
	H113	H	0.097877	0.077272	0.406326
	H114	H	0.916586	0.083015	0.633462
	H115	H	0.906225	0.906093	0.403451
	H116	H	0.618116	0.076573	0.932103
	H117	H	0.394682	0.081704	0.109813
	H118	H	0.622275	0.902452	0.115130
	H119	H	0.396231	0.904603	0.933685
	C120	C	0.387006	0.001558	0.638979
	C121	C	0.629939	0.984125	0.641565
	C122	C	0.628517	0.001184	0.398529
	C123	C	0.385657	0.984002	0.396969
	C124	C	0.630621	0.371003	0.027051
	C125	C	0.629401	0.614337	1.008985
	C126	C	0.386370	0.614491	0.026519
	C127	C	0.388363	0.372007	1.010007
	C128	C	0.017943	0.613647	0.398416
	C129	C	1.000814	0.614055	0.640761
	C130	C	0.015524	0.371181	0.639938
	C131	C	0.999170	0.371165	0.397271
	C132	C	0.887010	0.500550	0.141003
	C133	C	0.130600	0.484013	0.140322
	C134	C	0.130347	0.500714	0.897439
	C135	C	0.888331	0.483501	0.898747
	C136	C	0.129075	0.872137	0.527795
	C137	C	0.127313	0.113578	0.510317
	C138	C	0.885942	0.114120	0.527600
	C139	C	0.886569	0.871090	0.510924
	C140	C	0.516867	0.114244	0.897121
	C141	C	0.500980	0.113511	0.139475
	C142	C	0.515809	0.870526	0.140582
	C143	C	0.498803	0.872570	0.897561
	C144	C	0.383177	0.883938	0.701076
	C145	C	0.633043	0.102356	0.701534
	C146	C	0.629351	0.881968	0.339933
	C147	C	0.382681	0.102044	0.335863
	C148	C	0.691602	0.367522	0.909082
	C149	C	0.689434	0.615645	0.127980
	C150	C	0.325992	0.616438	0.907520
	C151	C	0.326773	0.367774	0.127745
	C152	C	0.899658	0.673869	0.395500
	C153	C	0.117960	0.676894	0.646892
	C154	C	0.897134	0.310877	0.642919
	C155	C	0.117113	0.309614	0.395199
	C156	C	0.897995	0.367706	0.701817
	C157	C	0.118350	0.617904	0.703607
	C158	C	0.899604	0.616011	0.337345
	C159	C	0.118446	0.368522	0.338561
	C160	C	0.383223	0.674667	0.907626
	C161	C	0.631566	0.673596	0.127870
	C162	C	0.634496	0.309553	0.909302
	C163	C	0.384088	0.309495	0.127175
	C164	C	0.687433	0.882096	0.397933
	C165	C	0.691090	0.101984	0.644056
	C166	C	0.324908	0.884151	0.643666
	C167	C	0.324700	0.101811	0.393520
	C168	C	0.885004	0.382246	0.201489
	C169	C	0.132490	0.602963	0.199620
	C170	C	0.133581	0.382539	0.836715
	C171	C	0.886989	0.602454	0.839212
	C172	C	0.190275	0.867981	0.409752
	C173	C	0.188558	0.116235	0.628953
	C174	C	0.826305	0.115307	0.408282
	C175	C	0.829079	0.870998	0.630737
	C176	C	0.399287	0.176402	0.893555
	C177	C	0.619975	0.173295	0.142895
	C178	C	0.396357	0.812454	0.140266
	C179	C	0.618491	0.814494	0.897571
	C180	C	0.396137	0.870616	0.198058
	C181	C	0.619886	0.114906	0.200270
	C182	C	0.398768	0.119142	0.835366
	C183	C	0.618861	0.872920	0.840244
	C184	C	0.882608	0.174072	0.408527
	C185	C	0.129695	0.173206	0.629312
	C186	C	0.133099	0.810181	0.410147
	C187	C	0.885846	0.811792	0.629985
	C188	C	0.190950	0.382419	0.895258
	C189	C	0.189831	0.603168	0.141300
	C190	C	0.826466	0.382445	0.144258
	C191	C	0.829221	0.602464	0.897018
	C192	C	0.412643	0.083473	0.612898
	C193	C	0.604500	0.901776	0.616685
	C194	C	0.604268	0.084018	0.422723
	C195	C	0.411263	0.901932	0.422546
	C196	C	0.604726	0.396792	0.109251
	C197	C	0.604989	0.590178	0.925999
	C198	C	0.411468	0.589978	0.109499
	C199	C	0.414126	0.398589	0.928180
	C200	C	0.100338	0.588097	0.424256
	C201	C	0.918900	0.588120	0.614412
	C202	C	0.097751	0.396896	0.614244
	C203	C	0.916459	0.396643	0.421935
	C204	C	0.912198	0.583039	0.115630
	C205	C	0.105537	0.401698	0.115433
	C206	C	0.104516	0.582697	0.923171
	C207	C	0.913639	0.401386	0.924277
	C208	C	0.103170	0.898216	0.609751
	C209	C	0.101726	0.088156	0.427983
	C210	C	0.911270	0.089477	0.610532
	C211	C	0.910756	0.895660	0.427525
	C212	C	0.598755	0.087664	0.923024
	C213	C	0.418558	0.088344	0.113468
	C214	C	0.599469	0.894321	0.117134
	C215	C	0.415518	0.896802	0.921752
	Zn216	Zn	0.507426	-0.006452	0.768591
	Zn217	Zn	0.507907	-0.006975	0.268706
	Zn218	Zn	0.758411	0.492112	0.018758
	Zn219	Zn	0.258918	0.492646	0.018766
	Zn220	Zn	0.009206	0.743302	0.519762
	Zn221	Zn	0.006128	0.242478	0.518621
	Zn222	Zn	0.008712	0.491857	0.769232
	Zn223	Zn	0.009397	0.492670	0.268842
	Zn224	Zn	0.506870	0.742789	0.017746
	Zn225	Zn	0.509806	0.242747	0.018457
	Zn226	Zn	0.757984	-0.007008	0.519545
	Zn227	Zn	0.257096	-0.006795	0.518526
	N228	N	0.421192	0.957984	0.698301
	N229	N	0.595433	0.028244	0.699768
	N230	N	0.593571	0.957026	0.339937
	N231	N	0.419854	0.027757	0.337788
	N232	N	0.689103	0.405179	0.983275
	N233	N	0.688307	0.579378	0.053108
	N234	N	0.327871	0.579517	0.982286
	N235	N	0.329382	0.406138	0.053882
	N236	N	0.974353	0.672577	0.432715
	N237	N	0.043999	0.674501	0.608211
	N238	N	0.971155	0.312976	0.605140
	N239	N	0.041784	0.311063	0.430841
	N240	N	0.972602	0.404764	0.699857
	N241	N	0.044594	0.579357	0.699953
	N242	N	0.974376	0.579459	0.339020
	N243	N	0.044111	0.406106	0.339656
	N244	N	0.420149	0.673526	0.982552
	N245	N	0.595053	0.673158	0.052929
	N246	N	0.597257	0.311565	0.983800
	N247	N	0.421802	0.312016	0.053031
	N248	N	0.687020	0.957154	0.433531
	N249	N	0.689331	0.027497	0.607383
	N250	N	0.327212	0.958121	0.605616
	N251	N	0.326385	0.027436	0.430737
	N252	N	0.922062	0.456807	0.199599
	N253	N	0.096656	0.527849	0.199333
	N254	N	0.097051	0.457234	0.837709
	N255	N	0.922861	0.527482	0.840045
	N256	N	0.188065	0.905767	0.483962
	N257	N	0.187326	0.079982	0.553867
	N258	N	0.828155	0.078824	0.483350
	N259	N	0.829339	0.906843	0.555467
	N260	N	0.473601	0.173529	0.931250
	N261	N	0.544843	0.172825	0.106028
	N262	N	0.472129	0.812008	0.105630
	N263	N	0.542632	0.813806	0.932051
	N264	N	0.471769	0.905756	0.198536
	N265	N	0.544848	0.078573	0.198403
	N266	N	0.472900	0.081185	0.837541
	N267	N	0.543154	0.907909	0.839973
	N268	N	0.918656	0.173794	0.483891
	N269	N	0.092524	0.171794	0.554624
	N270	N	0.095963	0.812446	0.484623
	N271	N	0.920380	0.811352	0.554180
	N272	N	0.188982	0.456842	0.932254
	N273	N	0.189196	0.528260	0.105508
	N274	N	0.827586	0.457124	0.107292
	N275	N	0.829566	0.527387	0.933121
	O276	O	0.383563	0.445243	0.483431
	H277	H	0.382825	0.440835	0.483924
	H278	H	0.396710	0.438611	0.481127
	O279	O	0.382395	0.684577	0.500634
	H280	H	0.382077	0.661189	0.489002
	H281	H	0.382165	0.676844	0.519111
	O282	O	1.028008	1.093184	-0.032172
	H283	H	1.032121	1.100077	-0.039071
	H284	H	1.045023	1.088713	-0.031104
	O285	O	0.363248	0.572375	0.446144
	H286	H	0.370941	0.552840	0.454879
	H287	H	0.355909	0.568891	0.462271
	O288	O	0.112111	-0.096108	0.125012
	H289	H	0.120398	-0.104794	0.136899
	H290	H	0.098603	-0.100045	0.132597
	O291	O	0.289723	0.708233	0.498332
	H292	H	0.282573	0.733312	0.507423
	H293	H	0.286843	0.715080	0.490554
	O294	O	0.200276	0.857772	-0.175097
	H295	H	0.203552	0.853520	-0.164599
	H296	H	0.175781	0.854648	-0.164555
	O297	O	0.715681	0.292031	0.455362
	H298	H	0.738245	0.285833	0.463592
	H299	H	0.713938	0.303778	0.454037
	O300	O	0.514363	0.509933	0.690280
	H301	H	0.515281	0.500652	0.680049
	H302	H	0.530817	0.504581	0.687508
	O303	O	0.808293	0.793458	0.219289
	H304	H	0.777981	0.767483	0.238862
	H305	H	0.797531	0.835309	0.222823
	O306	O	0.247209	0.697998	1.281718
	H307	H	0.256558	0.663474	1.280210
	H308	H	0.253361	0.712033	1.274129
	O309	O	0.291308	0.278783	0.542189
	H310	H	0.281468	0.273470	0.566078
	H311	H	0.286508	0.264302	0.552820
	O312	O	0.335382	0.498171	0.297556
	H313	H	0.347838	0.482242	0.308801
	H314	H	0.319855	0.480245	0.281951
	O315	O	0.000493	0.114381	1.176497
	H316	H	0.017489	0.113490	1.171829
	H317	H	0.012096	0.123621	1.188896
	O318	O	0.013084	1.066575	-0.180790
	H319	H	0.005616	1.064098	-0.176777
	H320	H	0.019134	1.058052	-0.173651
	O321	O	0.280934	0.549147	0.586316
	H322	H	0.278276	0.555742	0.572721
	H323	H	0.283005	0.550101	0.563123
	O324	O	0.800085	-0.115671	0.973302
	H325	H	0.786589	-0.119686	0.977655
	H326	H	0.808228	-0.122581	0.976906
	O327	O	1.109228	-0.007532	0.905800
	H328	H	1.121582	-0.018606	0.902931
	H329	H	1.111354	-0.027666	0.903492
	O330	O	0.712306	0.440997	-0.490528
	H331	H	0.716110	0.443397	-0.488242
	H332	H	0.693329	0.445077	-0.490732
	O333	O	1.210187	0.983200	0.875233
	H334	H	1.206021	0.967005	0.876182
	H335	H	1.221187	0.967444	0.867565
	O336	O	0.822248	-0.177380	0.835689
	H337	H	0.846732	-0.179151	0.859682
	H338	H	0.824115	-0.160189	0.842811
	O339	O	0.198248	0.190070	0.212823
	H340	H	0.220673	0.199202	0.233696
	H341	H	0.202576	0.198078	0.164074
	O342	O	0.327666	0.322152	0.327566
	H343	H	0.339552	0.336846	0.340419
	H344	H	0.354462	0.323335	0.343999
	O345	O	0.216424	0.023407	0.230825
	H346	H	0.226791	0.026145	0.245001
	H347	H	0.217905	0.046040	0.243537
	O348	O	0.949491	0.106536	1.155454
	H349	H	0.968271	0.125888	1.161480
	H350	H	0.966456	0.097827	1.143544
	O351	O	0.955842	1.123828	0.029995
	H352	H	0.958113	1.114415	0.053121
	H353	H	0.967953	1.118498	0.036481
	O354	O	0.697181	0.678960	0.335304
	H355	H	0.673005	0.662987	0.349690
	H356	H	0.687875	0.656591	0.356900
	O357	O	1.208224	1.021032	0.982675
	H358	H	1.208617	1.020047	1.002171
	H359	H	1.211247	1.021255	0.989025
	O360	O	0.638768	0.313631	0.553111
	H361	H	0.634170	0.322658	0.556962
	H362	H	0.631432	0.302818	0.538407
	O363	O	0.579533	0.521887	0.583771
	H364	H	0.588873	0.511032	0.601031
	H365	H	0.582913	0.511436	0.563811
	O366	O	1.500387	0.412171	0.628857
	H367	H	1.513123	0.425483	0.641355
	H368	H	1.484625	0.410778	0.635402
	O369	O	0.293627	0.465617	0.736460
	H370	H	0.286355	0.475278	0.702451
	H371	H	0.258341	0.464594	0.764991
	O372	O	0.658883	0.470401	0.400921
	H373	H	0.663513	0.484734	0.412088
	H374	H	0.672568	0.482169	0.395606
	O375	O	0.032354	1.037698	1.217592
	H376	H	0.050186	1.020681	1.221868
	H377	H	0.049684	1.059113	1.227914
	O378	O	1.050927	-0.157772	-0.171388
	H379	H	1.048859	-0.152751	-0.159659
	H380	H	1.052080	-0.153070	-0.158013
	O381	O	1.191286	-0.141106	-0.012863
	H382	H	1.193345	-0.151329	0.001629
	H383	H	1.197926	-0.137708	0.001948
	O384	O	-0.118663	-0.223447	1.023392
	H385	H	-0.129266	-0.229492	1.048855
	H386	H	-0.120055	-0.223759	1.033118
	O387	O	-0.534515	1.596278	0.655366
	H388	H	-0.548514	1.590140	0.656010
	H389	H	-0.514136	1.585640	0.660160
	O390	O	0.199437	0.199602	1.064686
	H391	H	0.201360	0.187232	1.044225
	H392	H	0.202391	0.204667	1.052304
	O393	O	0.877197	1.193461	-0.180966
	H394	H	0.869640	1.192800	-0.191160
	H395	H	0.880075	1.180498	-0.182262
	O396	O	0.478976	0.711553	0.302216
	H397	H	0.467478	0.716857	0.316125
	H398	H	0.467504	0.731587	0.281433
	O399	O	-0.199837	-0.040465	0.222811
	H400	H	-0.199758	-0.027028	0.235746
	H401	H	-0.196306	-0.024048	0.217039
	O402	O	-0.134061	0.067749	0.945860
	H403	H	-0.141385	0.062424	0.956249
	H404	H	-0.135856	0.073706	0.954336
	O405	O	0.083001	-0.183572	0.022872
	H406	H	0.077060	-0.188341	0.034748
	H407	H	0.072891	-0.181659	0.045134
	O408	O	0.699849	0.627697	0.592298
	H409	H	0.720128	0.643197	0.607332
	H410	H	0.693799	0.615153	0.598482
	O411	O	0.644421	0.596508	0.463490
	H412	H	0.656523	0.585152	0.489792
	H413	H	0.638918	0.598614	0.489676
	O414	O	0.535154	0.279183	0.304274
	H415	H	0.538906	0.277652	0.297611
	H416	H	0.569660	0.267633	0.296091
	O417	O	0.472226	0.267549	0.494330
	H418	H	0.476719	0.262849	0.484725
	H419	H	0.448328	0.267199	0.506080
	O420	O	0.715575	0.696458	0.729668
	H421	H	0.708233	0.707762	0.741496
	H422	H	0.711467	0.714514	0.724053
	O423	O	-0.264367	1.272674	0.286983
	H424	H	-0.256086	1.295947	0.277988
	H425	H	-0.248008	1.267857	0.308246
	O426	O	0.622805	1.561553	0.640176
	H427	H	0.629336	1.566982	0.651856
	H428	H	0.619350	1.577598	0.634387
	O429	O	0.020117	0.799667	0.094338
	H430	H	0.015727	0.801924	0.106683
	H431	H	0.018277	0.797037	0.105580
	O432	O	0.473574	0.392993	0.340275
	H433	H	0.491300	0.388957	0.338730
	H434	H	0.471818	0.389972	0.340637
	O435	O	-0.020991	0.121506	-0.093898
	H436	H	-0.024408	0.122893	-0.099679
	H437	H	-0.025787	0.126976	-0.090492
	O438	O	0.958519	0.052033	-0.099739
	H439	H	0.961868	0.044580	-0.098408
	H440	H	0.953233	0.043060	-0.096748
	O441	O	0.556246	0.567067	0.318301
	H442	H	0.543822	0.575207	0.319619
	H443	H	0.536766	0.568175	0.309429
	O444	O	-0.189112	1.193097	0.986171
	H445	H	-0.209216	1.210750	0.982509
	H446	H	-0.178177	1.192556	0.987201
	O447	O	0.493736	0.278400	-0.300782
	H448	H	0.510377	0.292556	-0.302895
	H449	H	0.502666	0.256196	-0.278458
	O450	O	0.312089	0.297285	0.707947
	H451	H	0.305151	0.325482	0.708170
	H452	H	0.342643	0.286480	0.726470
	O453	O	0.541060	0.711843	0.737269
	H454	H	0.530470	0.706705	0.733109
	H455	H	0.531501	0.728775	0.761406
	O456	O	1.007736	0.807229	0.192726
	H457	H	0.980185	0.799607	0.206942
	H458	H	0.992395	0.800286	0.197733
	O459	O	0.661750	0.498273	0.636589
	H460	H	0.667013	0.510496	0.635354
	H461	H	0.663742	0.511091	0.659737
	O462	O	0.635503	0.630728	0.574494
	H463	H	0.638899	0.638263	0.586443
	H464	H	0.632642	0.633960	0.590575
	O465	O	0.817117	0.030149	0.032343
	H466	H	0.830394	0.030737	0.049196
	H467	H	0.811731	0.051522	0.026189
