data_Molecule from HDF5

_cell_length_a		16.496258
_cell_length_b		16.563427
_cell_length_c		16.561537
_cell_angle_alpha	89.934733
_cell_angle_beta	89.991776
_cell_angle_gamma	89.940541
_symmetry_space_group_name_H-M	'P 1'
_symmetry_Int_Tables_number		1

loop_
	_symmetry_equiv_pos_as_xyz
	x,y,z

loop_
	_atom_site_label
	_atom_site_type_symbol
	_atom_site_fract_x
	_atom_site_fract_y
	_atom_site_fract_z
	H0	H	0.366676	0.845348	0.731918
	H1	H	0.580425	0.155718	0.730183
	H2	H	0.579584	0.843467	0.285859
	H3	H	0.367452	0.156495	0.284244
	H4	H	0.697414	0.394618	0.853391
	H5	H	0.696182	0.607894	0.163320
	H6	H	0.253804	0.603614	0.850218
	H7	H	0.252141	0.395043	0.164563
	H8	H	0.819063	0.722955	0.402580
	H9	H	0.130969	0.724213	0.616378
	H10	H	0.815639	0.282936	0.609826
	H11	H	0.133164	0.280328	0.403959
	H12	H	0.817029	0.397840	0.727736
	H13	H	0.131681	0.606208	0.730969
	H14	H	0.819262	0.607528	0.285293
	H15	H	0.132134	0.394591	0.285928
	H16	H	0.366647	0.722873	0.851896
	H17	H	0.580350	0.724118	0.162652
	H18	H	0.580534	0.278255	0.853676
	H19	H	0.365773	0.276309	0.163718
	H20	H	0.695727	0.843267	0.402831
	H21	H	0.692200	0.158161	0.609617
	H22	H	0.252077	0.844307	0.613764
	H23	H	0.252406	0.157412	0.401035
	H24	H	0.866199	0.345800	0.231192
	H25	H	0.083860	0.655521	0.232878
	H26	H	0.079620	0.343084	0.787321
	H27	H	0.865684	0.654878	0.781912
	H28	H	0.197892	0.893756	0.352135
	H29	H	0.198185	0.108097	0.663681
	H30	H	0.755376	0.102788	0.349914
	H31	H	0.752885	0.895161	0.665279
	H32	H	0.318674	0.224371	0.899730
	H33	H	0.629719	0.223874	0.115766
	H34	H	0.317276	0.776029	0.115912
	H35	H	0.628537	0.774470	0.898680
	H36	H	0.317915	0.891531	0.231977
	H37	H	0.631353	0.104526	0.229106
	H38	H	0.319794	0.109420	0.782577
	H39	H	0.629329	0.890361	0.783018
	H40	H	0.870624	0.220152	0.349978
	H41	H	0.079317	0.221770	0.664541
	H42	H	0.084098	0.774465	0.353852
	H43	H	0.868264	0.777925	0.664972
	H44	H	0.194984	0.343372	0.903450
	H45	H	0.196297	0.656987	0.113514
	H46	H	0.750488	0.347045	0.114809
	H47	H	0.748208	0.655264	0.897002
	H48	H	0.390848	0.111538	0.598095
	H49	H	0.559306	0.889604	0.595150
	H50	H	0.562805	0.113562	0.410748
	H51	H	0.386959	0.888725	0.416826
	H52	H	0.558630	0.413160	0.119323
	H53	H	0.558507	0.592953	0.894999
	H54	H	0.386665	0.592716	0.120426
	H55	H	0.386707	0.408954	0.895721
	H56	H	0.085080	0.583835	0.423297
	H57	H	0.861952	0.589550	0.599176
	H58	H	0.088356	0.413414	0.603685
	H59	H	0.859142	0.408919	0.410890
	H60	H	0.090105	0.405296	0.597576
	H61	H	0.863776	0.590023	0.591397
	H62	H	0.087523	0.586610	0.419145
	H63	H	0.861226	0.405809	0.422769
	H64	H	0.381526	0.587094	0.120523
	H65	H	0.564547	0.585896	0.895254
	H66	H	0.562443	0.409574	0.121685
	H67	H	0.382502	0.410472	0.895246
	H68	H	0.558235	0.109415	0.420238
	H69	H	0.566978	0.887284	0.594330
	H70	H	0.388500	0.109974	0.591227
	H71	H	0.388515	0.889790	0.422110
	H72	H	0.885108	0.613073	0.094299
	H73	H	0.060815	0.392697	0.089636
	H74	H	0.068570	0.613113	0.922527
	H75	H	0.893576	0.391135	0.915032
	H76	H	0.064002	0.915733	0.619567
	H77	H	0.059755	0.091003	0.396367
	H78	H	0.877848	0.091489	0.622910
	H79	H	0.884869	0.916356	0.396931
	H80	H	0.584362	0.085687	0.923776
	H81	H	0.360260	0.089738	0.098493
	H82	H	0.585662	0.914229	0.099440
	H83	H	0.364669	0.916957	0.923836
	H84	H	0.586709	0.906914	0.095923
	H85	H	0.362384	0.090386	0.092771
	H86	H	0.587242	0.086784	0.917290
	H87	H	0.361426	0.914734	0.915627
	H88	H	0.885468	0.088913	0.619075
	H89	H	0.065785	0.091979	0.394075
	H90	H	0.058787	0.912834	0.617808
	H91	H	0.891035	0.911784	0.398922
	H92	H	0.062742	0.613687	0.911342
	H93	H	0.068785	0.386305	0.098380
	H94	H	0.886879	0.613837	0.098447
	H95	H	0.885890	0.392169	0.928581
	H96	H	0.383820	0.113937	0.595603
	H97	H	0.562704	0.886119	0.601704
	H98	H	0.569182	0.113687	0.420092
	H99	H	0.383087	0.888769	0.421075
	H100	H	0.564284	0.415002	0.119774
	H101	H	0.556143	0.584342	0.899593
	H102	H	0.388623	0.585993	0.117580
	H103	H	0.386041	0.413078	0.896961
	H104	H	0.087045	0.589162	0.423906
	H105	H	0.865392	0.583564	0.595484
	H106	H	0.086016	0.413708	0.593215
	H107	H	0.864430	0.417036	0.418820
	H108	H	0.889295	0.612028	0.095557
	H109	H	0.056575	0.389295	0.102022
	H110	H	0.057013	0.609386	0.921391
	H111	H	0.879003	0.385802	0.916054
	H112	H	0.063166	0.909853	0.620353
	H113	H	0.064207	0.086545	0.397150
	H114	H	0.884578	0.096996	0.621994
	H115	H	0.885004	0.908748	0.396064
	H116	H	0.586877	0.092536	0.922294
	H117	H	0.362873	0.084526	0.095592
	H118	H	0.583561	0.913139	0.091466
	H119	H	0.361401	0.908576	0.921956
	C120	C	0.353479	0.009041	0.628917
	C121	C	0.595420	0.991234	0.629089
	C122	C	0.595406	0.008049	0.385765
	C123	C	0.353164	0.992442	0.386492
	C124	C	0.594913	0.379960	0.017268
	C125	C	0.593835	0.621694	0.998910
	C126	C	0.352313	0.621848	0.016383
	C127	C	0.352549	0.378401	0.999618
	C128	C	-0.016325	0.620610	0.388094
	C129	C	0.966627	0.621328	0.629467
	C130	C	-0.016771	0.379618	0.628801
	C131	C	0.966161	0.378482	0.385836
	C132	C	0.853216	0.510118	0.129228
	C133	C	0.096142	0.492032	0.129936
	C134	C	0.095146	0.508323	0.886906
	C135	C	0.852447	0.492388	0.885962
	C136	C	0.095884	0.879347	0.516388
	C137	C	0.095863	0.121880	0.499479
	C138	C	0.852011	0.122945	0.516470
	C139	C	0.853447	0.879198	0.500282
	C140	C	0.483078	0.121841	0.886973
	C141	C	0.465419	0.121100	0.128959
	C142	C	0.481938	0.878197	0.129009
	C143	C	0.465561	0.879562	0.886746
	C144	C	0.349217	0.891903	0.690859
	C145	C	0.598038	0.109142	0.689303
	C146	C	0.597852	0.890356	0.326128
	C147	C	0.349892	0.109640	0.325009
	C148	C	0.656578	0.376453	0.900021
	C149	C	0.655677	0.625725	0.116324
	C150	C	0.292813	0.623066	0.897937
	C151	C	0.291720	0.376117	0.117314
	C152	C	0.866006	0.682427	0.384542
	C153	C	0.084283	0.683079	0.633328
	C154	C	0.863526	0.321978	0.628986
	C155	C	0.085319	0.319426	0.384847
	C156	C	0.863968	0.378788	0.687707
	C157	C	0.084794	0.624327	0.690264
	C158	C	0.866206	0.625108	0.326243
	C159	C	0.085039	0.376530	0.326366
	C160	C	0.349039	0.682337	0.898632
	C161	C	0.597885	0.683346	0.116054
	C162	C	0.598351	0.318922	0.899946
	C163	C	0.348494	0.317215	0.116954
	C164	C	0.655540	0.890214	0.384074
	C165	C	0.653941	0.110154	0.629639
	C166	C	0.292325	0.891480	0.631980
	C167	C	0.292506	0.110181	0.383233
	C168	C	0.849099	0.392883	0.190367
	C169	C	0.100452	0.609120	0.191430
	C170	C	0.097536	0.390337	0.827326
	C171	C	0.848160	0.608734	0.823261
	C172	C	0.157755	0.875643	0.399324
	C173	C	0.157178	0.125291	0.617050
	C174	C	0.794148	0.122672	0.397361
	C175	C	0.793127	0.877062	0.618170
	C176	C	0.365985	0.184062	0.882042
	C177	C	0.583008	0.182941	0.133412
	C178	C	0.364484	0.816664	0.133395
	C179	C	0.582074	0.816255	0.881788
	C180	C	0.364628	0.874144	0.191211
	C181	C	0.583905	0.123286	0.189169
	C182	C	0.366431	0.126409	0.824100
	C183	C	0.582359	0.873686	0.823868
	C184	C	0.851633	0.180946	0.397577
	C185	C	0.098243	0.181895	0.617466
	C186	C	0.100990	0.816517	0.400074
	C187	C	0.850733	0.818771	0.617989
	C188	C	0.155144	0.390384	0.885183
	C189	C	0.156541	0.609771	0.132051
	C190	C	0.791219	0.393457	0.132666
	C191	C	0.789810	0.608931	0.880577
	C192	C	0.380011	0.090490	0.602608
	C193	C	0.570232	0.909085	0.604300
	C194	C	0.570545	0.090740	0.410246
	C195	C	0.378912	0.910411	0.412459
	C196	C	0.569090	0.405221	0.099051
	C197	C	0.567293	0.595194	0.917803
	C198	C	0.378274	0.596123	0.098330
	C199	C	0.377923	0.403720	0.917500
	C200	C	0.065389	0.594104	0.414503
	C201	C	0.884964	0.595119	0.603151
	C202	C	0.066348	0.403832	0.605015
	C203	C	0.883363	0.403435	0.410328
	C204	C	0.879500	0.591676	0.103582
	C205	C	0.069658	0.410732	0.104167
	C206	C	0.069995	0.590639	0.911365
	C207	C	0.878691	0.410815	0.912466
	C208	C	0.069518	0.905297	0.597993
	C209	C	0.070612	0.096956	0.417409
	C210	C	0.875776	0.099210	0.599638
	C211	C	0.879417	0.904797	0.418556
	C212	C	0.564885	0.095782	0.913580
	C213	C	0.383365	0.095610	0.103035
	C214	C	0.563770	0.903972	0.103007
	C215	C	0.383923	0.906076	0.912944
	Zn216	Zn	0.474635	0.000131	0.758015
	Zn217	Zn	0.473873	-0.000166	0.257176
	Zn218	Zn	0.723892	0.501768	0.007529
	Zn219	Zn	0.224199	0.500361	0.007814
	Zn220	Zn	-0.025094	0.750116	0.508729
	Zn221	Zn	-0.025472	0.250744	0.508285
	Zn222	Zn	-0.025380	0.500288	0.757795
	Zn223	Zn	-0.024938	0.501069	0.258076
	Zn224	Zn	0.473159	0.750502	0.007157
	Zn225	Zn	0.474577	0.250529	0.008278
	Zn226	Zn	0.724035	0.000020	0.507247
	Zn227	Zn	0.224599	0.001071	0.507875
	N228	N	0.386138	0.966220	0.689399
	N229	N	0.562768	0.034064	0.689333
	N230	N	0.561284	0.964749	0.327026
	N231	N	0.386851	0.035256	0.326865
	N232	N	0.654447	0.413898	0.973915
	N233	N	0.653537	0.588263	0.042356
	N234	N	0.294646	0.586204	0.972224
	N235	N	0.293886	0.413264	0.043204
	N236	N	0.940184	0.679966	0.422189
	N237	N	0.009842	0.681316	0.596264
	N238	N	0.938748	0.322166	0.593446
	N239	N	0.010181	0.320198	0.420816
	N240	N	0.939502	0.413782	0.687911
	N241	N	0.010563	0.586863	0.688135
	N242	N	0.940404	0.587547	0.328291
	N243	N	0.009902	0.412333	0.326461
	N244	N	0.385027	0.681880	0.973352
	N245	N	0.560123	0.681005	0.042179
	N246	N	0.560613	0.321097	0.973775
	N247	N	0.385335	0.318319	0.042653
	N248	N	0.654176	0.964616	0.420407
	N249	N	0.652656	0.035765	0.592982
	N250	N	0.294560	0.965448	0.594420
	N251	N	0.294416	0.036200	0.420768
	N252	N	0.887182	0.466473	0.188533
	N253	N	0.063601	0.534802	0.190255
	N254	N	0.061071	0.464853	0.827918
	N255	N	0.886452	0.535204	0.826553
	N256	N	0.154620	0.913998	0.472670
	N257	N	0.155752	0.088685	0.542641
	N258	N	0.794108	0.087328	0.472527
	N259	N	0.794829	0.914131	0.543923
	N260	N	0.439681	0.181447	0.920486
	N261	N	0.508193	0.181954	0.096781
	N262	N	0.438507	0.818924	0.095502
	N263	N	0.508402	0.819665	0.920205
	N264	N	0.438787	0.911718	0.188714
	N265	N	0.509848	0.085641	0.186630
	N266	N	0.440335	0.088367	0.826917
	N267	N	0.508867	0.912455	0.826891
	N268	N	0.886603	0.181351	0.472710
	N269	N	0.060894	0.180118	0.543384
	N270	N	0.063296	0.818590	0.474041
	N271	N	0.887481	0.819852	0.543569
	N272	N	0.153760	0.464838	0.921478
	N273	N	0.154062	0.535963	0.094508
	N274	N	0.793602	0.467444	0.095443
	N275	N	0.792531	0.535564	0.919124
	O276	O	0.770439	1.208694	-0.055205
	H277	H	0.781613	1.207203	-0.068430
	H278	H	0.769067	1.216355	-0.055250
	O279	O	-0.049885	-0.213415	1.221826
	H280	H	-0.060165	-0.223092	1.239082
	H281	H	-0.048929	-0.207943	1.210497
	O282	O	1.188264	1.074224	0.958307
	H283	H	1.188373	1.065571	0.968770
	H284	H	1.188282	1.055821	0.944400
	O285	O	0.373840	0.578080	0.478156
	H286	H	0.363396	0.592572	0.473396
	H287	H	0.376408	0.578252	0.468415
	O288	O	1.688786	-0.285549	1.541387
	H289	H	1.688417	-0.297104	1.569634
	H290	H	1.708950	-0.263720	1.540480
	O291	O	0.487164	0.466865	0.381190
	H292	H	0.468553	0.467088	0.388822
	H293	H	0.483261	0.473574	0.380803
	O294	O	0.437279	-0.695278	-0.382790
	H295	H	0.462464	-0.697634	-0.387607
	H296	H	0.437824	-0.698259	-0.399835
	O297	O	1.613680	0.670869	-0.643117
	H298	H	1.618755	0.667165	-0.621366
	H299	H	1.632093	0.689268	-0.659073
	O300	O	-0.030258	0.197483	-0.107362
	H301	H	-0.040016	0.196396	-0.118541
	H302	H	-0.018131	0.207855	-0.104720
	O303	O	0.195992	-0.022277	-0.213036
	H304	H	0.202757	-0.026961	-0.220809
	H305	H	0.208100	-0.051330	-0.224526
	O306	O	0.775005	0.015014	-0.210978
	H307	H	0.767768	0.012906	-0.196750
	H308	H	0.748227	0.019763	-0.228100
	O309	O	0.674194	0.688944	0.700687
	H310	H	0.667259	0.645788	0.705214
	H311	H	0.643255	0.689859	0.696018
	O312	O	0.435933	0.356047	0.596876
	H313	H	0.437840	0.348885	0.578579
	H314	H	0.430690	0.375905	0.584000
	O315	O	0.768199	1.143138	-0.185193
	H316	H	0.782215	1.129712	-0.163302
	H317	H	0.779483	1.157617	-0.188857
	O318	O	0.933068	1.051570	0.205122
	H319	H	0.941592	1.042180	0.189066
	H320	H	0.929195	1.069777	0.200624
	O321	O	0.085242	0.883081	1.219700
	H322	H	0.068857	0.888079	1.209839
	H323	H	0.080457	0.895328	1.215769
	O324	O	1.193130	0.216084	1.032762
	H325	H	1.207833	0.201578	1.024999
	H326	H	1.214414	0.228321	1.045907
	O327	O	1.402878	0.557243	0.300380
	H328	H	1.415283	0.569741	0.304858
	H329	H	1.396995	0.576274	0.292481
	O330	O	0.419564	0.450657	0.301248
	H331	H	0.425698	0.453971	0.296289
	H332	H	0.419544	0.474246	0.302658
	O333	O	0.408720	0.283527	0.451050
	H334	H	0.426194	0.287254	0.433744
	H335	H	0.417017	0.282907	0.442054
	O336	O	0.768063	0.790168	0.215062
	H337	H	0.797244	0.786784	0.195279
	H338	H	0.767706	0.832303	0.211417
	O339	O	0.623340	0.321100	0.698207
	H340	H	0.613799	0.337991	0.691603
	H341	H	0.620386	0.306909	0.698870
	O342	O	0.156801	0.866331	0.101457
	H343	H	0.149461	0.864992	0.107473
	H344	H	0.142444	0.875630	0.100187
	O345	O	-0.455342	0.693848	0.465822
	H346	H	-0.438241	0.700724	0.454015
	H347	H	-0.454212	0.698010	0.474000
	O348	O	0.270178	0.619556	0.624638
	H349	H	0.284221	0.623085	0.624109
	H350	H	0.273786	0.607535	0.622615
	O351	O	0.165123	0.331938	0.802359
	H352	H	0.142974	0.328701	0.816500
	H353	H	0.177907	0.309043	0.782343
	O354	O	0.417575	0.715539	1.556322
	H355	H	0.422799	0.717930	1.539528
	H356	H	0.404288	0.713828	1.552907
	O357	O	0.476428	0.678686	0.297782
	H358	H	0.490833	0.684370	0.288382
	H359	H	0.488919	0.672757	0.305086
	O360	O	0.667937	0.311729	0.307342
	H361	H	0.628026	0.315080	0.302409
	H362	H	0.668277	0.345058	0.301523
	O363	O	1.095868	1.134123	0.828617
	H364	H	1.112731	1.126908	0.824337
	H365	H	1.096992	1.117975	0.833010
	O366	O	1.032900	-0.182756	0.954653
	H367	H	1.036022	-0.182587	0.952079
	H368	H	1.050069	-0.193004	0.937096
	O369	O	0.008258	-0.165633	0.794116
	H370	H	0.000853	-0.166420	0.781238
	H371	H	0.003799	-0.175956	0.792747
	O372	O	0.012503	0.221144	0.227585
	H373	H	-0.003701	0.226422	0.244478
	H374	H	-0.004714	0.234939	0.225033
	O375	O	1.024238	0.015023	0.137223
	H376	H	1.026626	0.012740	0.133285
	H377	H	1.033564	0.008368	0.125570
	O378	O	-0.230029	-0.022397	1.214940
	H379	H	-0.231105	-0.010535	1.204396
	H380	H	-0.227406	-0.010298	1.228232
	O381	O	0.191385	0.784800	-0.020170
	H382	H	0.209588	0.778281	-0.016129
	H383	H	0.194552	0.779700	-0.027602
	O384	O	0.409529	0.604729	0.473594
	H385	H	0.422056	0.606828	0.483333
	H386	H	0.399001	0.615183	0.484771
	O387	O	0.687783	0.278776	1.474499
	H388	H	0.695175	0.272224	1.442017
	H389	H	0.708562	0.262625	1.460136
	O390	O	0.485803	0.494169	0.707123
	H391	H	0.483286	0.486169	0.680267
	H392	H	0.464184	0.467477	0.715768
	O393	O	0.497988	-0.287221	-0.281371
	H394	H	0.481201	-0.287663	-0.288536
	H395	H	0.502635	-0.275784	-0.269706
	O396	O	0.266248	0.293477	0.539238
	H397	H	0.247099	0.272195	0.528659
	H398	H	0.289518	0.293863	0.512012
	O399	O	0.757066	1.068584	0.031150
	H400	H	0.767440	1.072663	0.027943
	H401	H	0.751867	1.073907	0.026419
	O402	O	1.680306	-0.562764	1.567401
	H403	H	1.664985	-0.564797	1.578148
	H404	H	1.691065	-0.591050	1.556263
	O405	O	-0.154526	-0.128120	-0.139347
	H406	H	-0.171672	-0.138142	-0.149168
	H407	H	-0.139700	-0.120690	-0.137394
	O408	O	1.190726	1.022312	1.222018
	H409	H	1.199593	1.021092	1.235730
	H410	H	1.191839	1.045631	1.227912
	O411	O	1.269818	1.512150	0.651779
	H412	H	1.261528	1.491479	0.655502
	H413	H	1.273111	1.510203	0.655923
	O414	O	0.103385	-0.016969	0.017039
	H415	H	0.102618	-0.039074	0.013646
	H416	H	0.099874	-0.012257	0.030126
	O417	O	1.173079	0.190726	0.199479
	H418	H	1.120436	0.202017	0.210987
	H419	H	1.180050	0.175592	0.170985
	O420	O	0.807905	0.174769	1.196584
	H421	H	0.803071	0.188492	1.186882
	H422	H	0.798007	0.165869	1.193487
	O423	O	0.671191	1.467823	-0.701287
	H424	H	0.690506	1.485389	-0.706061
	H425	H	0.669384	1.480667	-0.698154
	O426	O	-0.078541	1.016539	-0.210086
	H427	H	-0.087449	1.018069	-0.214580
	H428	H	-0.084425	1.025784	-0.222291
	O429	O	0.947345	0.959701	0.936517
	H430	H	0.948519	0.957215	0.927287
	H431	H	0.943287	0.969013	0.933863
	O432	O	0.896594	0.202983	1.067469
	H433	H	0.898690	0.202501	1.075193
	H434	H	0.901224	0.206119	1.066504
	O435	O	0.653592	0.508579	0.708022
	H436	H	0.646226	0.503611	0.699998
	H437	H	0.640588	0.492477	0.724047
	O438	O	0.260632	0.447778	0.454522
	H439	H	0.256191	0.451147	0.460479
	H440	H	0.259546	0.441456	0.428399
	O441	O	1.169962	0.804342	-0.185448
	H442	H	1.172057	0.812435	-0.154957
	H443	H	1.156807	0.784126	-0.204831
	O444	O	0.432808	0.526101	0.675381
	H445	H	0.425028	0.525026	0.675558
	H446	H	0.434689	0.513274	0.668538
	O447	O	0.693645	0.554550	0.457601
	H448	H	0.695442	0.547936	0.458733
	H449	H	0.694946	0.557862	0.481056
	O450	O	0.755807	-0.215871	0.031430
	H451	H	0.741301	-0.222829	0.042435
	H452	H	0.754845	-0.222038	0.022224
	O453	O	0.507983	0.286881	0.294502
	H454	H	0.494332	0.301034	0.277866
	H455	H	0.494049	0.285976	0.270095
	O456	O	-0.067644	0.772303	0.963094
	H457	H	-0.076699	0.774104	0.964033
	H458	H	-0.064414	0.773121	0.966369
	O459	O	0.835600	0.169362	0.863812
	H460	H	0.852779	0.155149	0.866461
	H461	H	0.828718	0.170587	0.848106
	O462	O	0.258865	0.519937	0.290995
	H463	H	0.254240	0.544972	0.291230
	H464	H	0.240363	0.548366	0.276467
	O465	O	0.267396	0.705020	0.394513
	H466	H	0.286101	0.712166	0.393926
	H467	H	0.251456	0.718770	0.396153
	O468	O	-0.177570	0.958909	-0.027240
	H469	H	-0.176415	0.957250	-0.030228
	H470	H	-0.175916	0.965924	-0.043128
	O471	O	0.898356	0.882293	1.100802
	H472	H	0.895277	0.889787	1.080158
	H473	H	0.905821	0.894322	1.105532
	O474	O	1.024516	1.170399	-0.090090
	H475	H	1.027527	1.173510	-0.102375
	H476	H	1.021971	1.169671	-0.082074
	O477	O	0.448648	0.322392	0.682111
	H478	H	0.435590	0.319715	0.682058
	H479	H	0.441777	0.305009	0.683872
