data_Molecule from HDF5

_cell_length_a		16.592761
_cell_length_b		16.462901
_cell_length_c		16.561063
_cell_angle_alpha	89.974159
_cell_angle_beta	89.970725
_cell_angle_gamma	89.984176
_symmetry_space_group_name_H-M	'P 1'
_symmetry_Int_Tables_number		1

loop_
	_symmetry_equiv_pos_as_xyz
	x,y,z

loop_
	_atom_site_label
	_atom_site_type_symbol
	_atom_site_fract_x
	_atom_site_fract_y
	_atom_site_fract_z
	H0	H	0.376418	0.846123	0.727232
	H1	H	0.580447	0.163320	0.723323
	H2	H	0.584905	0.847057	0.286375
	H3	H	0.371965	0.160287	0.281833
	H4	H	0.701639	0.401508	0.849066
	H5	H	0.704621	0.611076	0.162688
	H6	H	0.259987	0.611404	0.849197
	H7	H	0.259906	0.399954	0.163382
	H8	H	0.825796	0.725879	0.402031
	H9	H	0.139434	0.727626	0.610649
	H10	H	0.823962	0.287871	0.605302
	H11	H	0.139956	0.283739	0.401879
	H12	H	0.825532	0.403444	0.724152
	H13	H	0.139844	0.610218	0.726391
	H14	H	0.826145	0.609943	0.284823
	H15	H	0.139936	0.400442	0.284805
	H16	H	0.378752	0.724549	0.848330
	H17	H	0.585726	0.725773	0.163612
	H18	H	0.583372	0.285736	0.848941
	H19	H	0.379103	0.286391	0.165295
	H20	H	0.700605	0.846854	0.402607
	H21	H	0.699715	0.162915	0.609923
	H22	H	0.258006	0.847440	0.613349
	H23	H	0.257682	0.161868	0.398536
	H24	H	0.880164	0.347853	0.226120
	H25	H	0.089560	0.662529	0.228452
	H26	H	0.085515	0.346461	0.786860
	H27	H	0.876536	0.661508	0.783186
	H28	H	0.205701	0.898854	0.350462
	H29	H	0.203127	0.111778	0.662337
	H30	H	0.759104	0.110831	0.349187
	H31	H	0.760534	0.899986	0.663436
	H32	H	0.324385	0.226095	0.902820
	H33	H	0.637109	0.226915	0.112664
	H34	H	0.325475	0.781644	0.112607
	H35	H	0.638867	0.786336	0.904465
	H36	H	0.324937	0.898062	0.229200
	H37	H	0.635921	0.111230	0.229589
	H38	H	0.324021	0.108875	0.786580
	H39	H	0.637853	0.901285	0.786079
	H40	H	0.878627	0.224026	0.347706
	H41	H	0.082801	0.224006	0.663051
	H42	H	0.087210	0.784146	0.348847
	H43	H	0.878157	0.784243	0.663394
	H44	H	0.203367	0.348132	0.901376
	H45	H	0.205710	0.661980	0.112352
	H46	H	0.764269	0.346737	0.108799
	H47	H	0.760524	0.661865	0.899938
	H48	H	0.388730	0.117739	0.595899
	H49	H	0.573796	0.889830	0.593748
	H50	H	0.572949	0.118755	0.417454
	H51	H	0.390472	0.893134	0.421141
	H52	H	0.581109	0.417616	0.121035
	H53	H	0.570917	0.601632	0.892317
	H54	H	0.399686	0.597286	0.116907
	H55	H	0.389242	0.418157	0.894567
	H56	H	0.093444	0.588732	0.414313
	H57	H	0.872008	0.593159	0.593745
	H58	H	0.094897	0.414734	0.594297
	H59	H	0.871198	0.414785	0.414673
	H60	H	0.096071	0.414430	0.598256
	H61	H	0.870298	0.593313	0.597502
	H62	H	0.096949	0.597281	0.413396
	H63	H	0.869847	0.415196	0.415151
	H64	H	0.385919	0.594802	0.120319
	H65	H	0.579161	0.591545	0.893348
	H66	H	0.568838	0.421232	0.116137
	H67	H	0.395187	0.417888	0.895832
	H68	H	0.568469	0.117758	0.415026
	H69	H	0.572811	0.889114	0.599458
	H70	H	0.392581	0.117603	0.599107
	H71	H	0.396677	0.893733	0.416828
	H72	H	0.896077	0.615771	0.090015
	H73	H	0.078585	0.390989	0.093351
	H74	H	0.067997	0.617690	0.915739
	H75	H	0.892295	0.391240	0.912783
	H76	H	0.071067	0.916240	0.618295
	H77	H	0.065688	0.093178	0.394580
	H78	H	0.885730	0.101989	0.622727
	H79	H	0.890176	0.918242	0.394547
	H80	H	0.592466	0.095952	0.921530
	H81	H	0.370203	0.089377	0.095603
	H82	H	0.592524	0.914631	0.094679
	H83	H	0.368706	0.914553	0.916810
	H84	H	0.591693	0.918786	0.095845
	H85	H	0.367538	0.095741	0.096321
	H86	H	0.593033	0.088400	0.912773
	H87	H	0.368092	0.914618	0.914840
	H88	H	0.885170	0.087707	0.617294
	H89	H	0.074972	0.097352	0.391112
	H90	H	0.071650	0.919065	0.616631
	H91	H	0.892131	0.916005	0.394986
	H92	H	0.070683	0.616918	0.920174
	H93	H	0.067167	0.392663	0.100884
	H94	H	0.885849	0.620532	0.094770
	H95	H	0.894305	0.392420	0.916382
	H96	H	0.393468	0.116389	0.594303
	H97	H	0.568858	0.891811	0.596490
	H98	H	0.568937	0.116918	0.420206
	H99	H	0.396991	0.895888	0.424474
	H100	H	0.570626	0.408633	0.120880
	H101	H	0.566933	0.589980	0.897182
	H102	H	0.393362	0.584822	0.113821
	H103	H	0.392241	0.412939	0.893971
	H104	H	0.093232	0.594764	0.421129
	H105	H	0.870598	0.596691	0.594945
	H106	H	0.096764	0.411315	0.596065
	H107	H	0.870956	0.414465	0.414372
	H108	H	0.896127	0.619692	0.101493
	H109	H	0.067845	0.396928	0.087829
	H110	H	0.073197	0.619195	0.916076
	H111	H	0.890122	0.391024	0.916743
	H112	H	0.067790	0.917191	0.617324
	H113	H	0.074357	0.087346	0.394026
	H114	H	0.897944	0.095592	0.616046
	H115	H	0.889548	0.915538	0.392925
	H116	H	0.595794	0.099603	0.911153
	H117	H	0.370947	0.093936	0.091005
	H118	H	0.593122	0.915434	0.098777
	H119	H	0.367699	0.912830	0.916135
	C120	C	0.359349	0.012796	0.628454
	C121	C	0.601811	0.995698	0.627412
	C122	C	0.601973	0.013604	0.385074
	C123	C	0.360800	0.997126	0.386593
	C124	C	0.603823	0.383684	0.014941
	C125	C	0.603862	0.626481	0.997973
	C126	C	0.360519	0.625874	0.014078
	C127	C	0.360390	0.384091	0.998582
	C128	C	-0.009042	0.626100	0.384351
	C129	C	0.974604	0.626773	0.627334
	C130	C	-0.008680	0.383161	0.626635
	C131	C	0.974762	0.383510	0.383765
	C132	C	0.861738	0.513863	0.126931
	C133	C	0.104177	0.496920	0.127090
	C134	C	0.102688	0.513538	0.885567
	C135	C	0.860351	0.496046	0.883606
	C136	C	0.102830	0.884615	0.514210
	C137	C	0.102987	0.125435	0.497086
	C138	C	0.858978	0.126294	0.514230
	C139	C	0.859595	0.883956	0.497882
	C140	C	0.489625	0.126516	0.884393
	C141	C	0.472565	0.125859	0.127597
	C142	C	0.489571	0.882998	0.128662
	C143	C	0.472466	0.883387	0.885095
	C144	C	0.357420	0.893827	0.687878
	C145	C	0.600542	0.115820	0.684585
	C146	C	0.603360	0.894600	0.325992
	C147	C	0.355400	0.113933	0.323346
	C148	C	0.662039	0.382489	0.896237
	C149	C	0.664075	0.629203	0.115851
	C150	C	0.300523	0.628793	0.896198
	C151	C	0.300602	0.382064	0.116745
	C152	C	0.872823	0.685814	0.383069
	C153	C	0.092530	0.687234	0.629050
	C154	C	0.871737	0.326380	0.625698
	C155	C	0.093024	0.324224	0.383037
	C156	C	0.872444	0.383556	0.684619
	C157	C	0.092681	0.629130	0.686926
	C158	C	0.873024	0.628268	0.324696
	C159	C	0.093019	0.382326	0.324899
	C160	C	0.359249	0.685781	0.895869
	C161	C	0.604935	0.685903	0.116369
	C162	C	0.603156	0.325353	0.896221
	C163	C	0.359509	0.325269	0.117451
	C164	C	0.660841	0.894439	0.383900
	C165	C	0.659631	0.115462	0.628170
	C166	C	0.298765	0.894384	0.631023
	C167	C	0.298486	0.114568	0.381663
	C168	C	0.861177	0.394841	0.186120
	C169	C	0.106985	0.615501	0.187565
	C170	C	0.104585	0.394351	0.826150
	C171	C	0.858490	0.614453	0.823610
	C172	C	0.164318	0.881208	0.396667
	C173	C	0.162690	0.129031	0.615336
	C174	C	0.799556	0.128517	0.396063
	C175	C	0.800438	0.881595	0.616298
	C176	C	0.371456	0.186137	0.883648
	C177	C	0.590096	0.186294	0.130316
	C178	C	0.372248	0.821859	0.131152
	C179	C	0.591344	0.825163	0.884606
	C180	C	0.372100	0.879634	0.189219
	C181	C	0.589558	0.128998	0.188797
	C182	C	0.371201	0.127754	0.826077
	C183	C	0.590855	0.881983	0.825756
	C184	C	0.858920	0.184901	0.395217
	C185	C	0.103104	0.185045	0.615705
	C186	C	0.105506	0.824309	0.396062
	C187	C	0.859170	0.824303	0.616276
	C188	C	0.162874	0.394991	0.883385
	C189	C	0.164958	0.615260	0.130213
	C190	C	0.803670	0.394313	0.127915
	C191	C	0.800683	0.614549	0.881405
	C192	C	0.384368	0.095634	0.603602
	C193	C	0.578499	0.911969	0.603608
	C194	C	0.577119	0.096462	0.410290
	C195	C	0.387180	0.915354	0.413274
	C196	C	0.580254	0.408673	0.097840
	C197	C	0.579233	0.601651	0.915719
	C198	C	0.385844	0.599902	0.095769
	C199	C	0.385104	0.409096	0.916195
	C200	C	0.073299	0.600937	0.409267
	C201	C	0.892585	0.601756	0.602589
	C202	C	0.074222	0.406647	0.602887
	C203	C	0.891996	0.407739	0.407770
	C204	C	0.885647	0.597080	0.102389
	C205	C	0.078546	0.414899	0.101320
	C206	C	0.077759	0.596422	0.910140
	C207	C	0.885237	0.413207	0.908507
	C208	C	0.077378	0.910103	0.595923
	C209	C	0.078633	0.099864	0.414794
	C210	C	0.882819	0.102074	0.597120
	C211	C	0.883848	0.909265	0.415684
	C212	C	0.572164	0.101699	0.908388
	C213	C	0.390914	0.100165	0.101921
	C214	C	0.571238	0.908994	0.103512
	C215	C	0.389817	0.907220	0.908933
	Zn216	Zn	0.480800	0.003986	0.756176
	Zn217	Zn	0.480390	0.004952	0.256890
	Zn218	Zn	0.732889	0.504971	0.006160
	Zn219	Zn	0.231839	0.505401	0.005947
	Zn220	Zn	-0.017861	0.755487	0.505731
	Zn221	Zn	-0.018276	0.254011	0.504633
	Zn222	Zn	-0.016755	0.505034	0.755875
	Zn223	Zn	-0.016951	0.505631	0.255139
	Zn224	Zn	0.481579	0.755058	0.006548
	Zn225	Zn	0.481259	0.255094	0.006629
	Zn226	Zn	0.730107	0.005149	0.506589
	Zn227	Zn	0.232014	0.004707	0.506899
	N228	N	0.394156	0.968470	0.686482
	N229	N	0.565427	0.040254	0.684313
	N230	N	0.567609	0.969707	0.326475
	N231	N	0.393703	0.039960	0.326507
	N232	N	0.662808	0.417748	0.971337
	N233	N	0.663904	0.593019	0.041080
	N234	N	0.301127	0.592560	0.970749
	N235	N	0.300775	0.417715	0.041669
	N236	N	0.947336	0.684872	0.419209
	N237	N	0.017974	0.686127	0.593029
	N238	N	0.946714	0.325555	0.590684
	N239	N	0.018421	0.324887	0.418798
	N240	N	0.947875	0.417983	0.685480
	N241	N	0.018293	0.592360	0.686120
	N242	N	0.947722	0.592210	0.325376
	N243	N	0.018410	0.418318	0.325182
	N244	N	0.395937	0.684187	0.970247
	N245	N	0.568231	0.684307	0.042138
	N246	N	0.568200	0.325738	0.971285
	N247	N	0.395908	0.326377	0.042915
	N248	N	0.660209	0.969703	0.419933
	N249	N	0.660598	0.039692	0.593570
	N250	N	0.299669	0.969589	0.595017
	N251	N	0.301863	0.040907	0.420509
	N252	N	0.896554	0.470255	0.185515
	N253	N	0.069765	0.541005	0.185691
	N254	N	0.068067	0.469155	0.827405
	N255	N	0.894988	0.539656	0.824878
	N256	N	0.162865	0.917867	0.471128
	N257	N	0.163001	0.092976	0.540466
	N258	N	0.799552	0.092919	0.471026
	N259	N	0.800355	0.917748	0.541552
	N260	N	0.446167	0.185494	0.919322
	N261	N	0.516240	0.184498	0.093038
	N262	N	0.446335	0.823585	0.094377
	N263	N	0.516850	0.825789	0.920697
	N264	N	0.446087	0.916747	0.187910
	N265	N	0.515441	0.092049	0.187186
	N266	N	0.445759	0.091532	0.826307
	N267	N	0.515925	0.917351	0.825922
	N268	N	0.895154	0.183874	0.469772
	N269	N	0.066811	0.183042	0.541136
	N270	N	0.068231	0.826062	0.470058
	N271	N	0.895199	0.825568	0.541658
	N272	N	0.161851	0.470106	0.919489
	N273	N	0.163263	0.540741	0.093256
	N274	N	0.804009	0.469417	0.091762
	N275	N	0.801794	0.539773	0.918117
	O276	O	0.756381	1.220788	-0.024759
	H277	H	0.757039	1.226854	-0.049967
	H278	H	0.740565	1.243046	-0.045763
	O279	O	0.006668	-0.211767	1.090437
	H280	H	0.000688	-0.223039	1.107507
	H281	H	0.007637	-0.208999	1.093854
	O282	O	1.158289	1.204666	1.015000
	H283	H	1.169680	1.207737	1.007989
	H284	H	1.145029	1.210861	1.011441
	O285	O	0.262071	0.723968	0.478393
	H286	H	0.237469	0.746144	0.466124
	H287	H	0.261904	0.717100	0.446800
	O288	O	1.682633	-0.432195	1.577400
	H289	H	1.689925	-0.426228	1.598961
	H290	H	1.691418	-0.424723	1.580990
	O291	O	0.427764	0.602941	0.540574
	H292	H	0.419578	0.615368	0.542205
	H293	H	0.420663	0.607911	0.531653
	O294	O	0.409746	-0.493294	-0.553079
	H295	H	0.401697	-0.502504	-0.545317
	H296	H	0.412387	-0.501119	-0.558406
	O297	O	1.686874	0.586900	-0.572278
	H298	H	1.687897	0.604618	-0.578630
	H299	H	1.682739	0.590635	-0.565975
	O300	O	-0.061167	0.217720	-0.211094
	H301	H	-0.048009	0.233795	-0.238962
	H302	H	-0.060062	0.208866	-0.196613
	O303	O	0.194533	-0.077444	-0.191404
	H304	H	0.220567	-0.081082	-0.209388
	H305	H	0.196315	-0.088480	-0.174595
	O306	O	0.764276	0.034022	-0.210139
	H307	H	0.765528	0.050589	-0.211786
	H308	H	0.746532	0.049113	-0.221238
	O309	O	0.449981	0.633069	0.696516
	H310	H	0.441053	0.612580	0.702390
	H311	H	0.447740	0.638817	0.690094
	O312	O	0.279016	0.303497	0.707798
	H313	H	0.271028	0.300107	0.657426
	H314	H	0.311164	0.293230	0.720661
	O315	O	0.861572	1.035346	-0.010891
	H316	H	0.852761	1.047912	-0.003890
	H317	H	0.852694	1.015427	-0.021114
	O318	O	0.863710	0.894443	-0.031314
	H319	H	0.865389	0.897436	-0.021154
	H320	H	0.875642	0.911289	-0.020639
	O321	O	0.148403	0.901950	1.096292
	H322	H	0.139215	0.915006	1.095446
	H323	H	0.138852	0.914711	1.090875
	O324	O	0.977912	0.170986	1.098901
	H325	H	0.993984	0.187718	1.087050
	H326	H	0.984428	0.170460	1.114617
	O327	O	1.403454	0.336718	0.389625
	H328	H	1.416801	0.349611	0.404465
	H329	H	1.414278	0.340803	0.370051
	O330	O	0.497790	0.373794	0.299465
	H331	H	0.515962	0.373132	0.296935
	H332	H	0.511840	0.370112	0.292848
	O333	O	0.505637	0.285635	0.532555
	H334	H	0.514424	0.282952	0.530241
	H335	H	0.515786	0.298308	0.521423
	O336	O	0.484372	0.741699	0.275653
	H337	H	0.493895	0.727815	0.257746
	H338	H	0.475893	0.760601	0.264665
	O339	O	0.673335	0.317834	0.693042
	H340	H	0.644980	0.329321	0.677480
	H341	H	0.670927	0.343499	0.668970
	O342	O	0.174800	0.999646	-0.037201
	H343	H	0.176507	1.000191	-0.041311
	H344	H	0.176624	1.000308	-0.037887
	O345	O	-0.305445	0.450930	0.317371
	H346	H	-0.302615	0.467100	0.311893
	H347	H	-0.294288	0.476983	0.310533
	O348	O	0.272817	0.509822	0.524979
	H349	H	0.264006	0.520396	0.543901
	H350	H	0.276266	0.503039	0.528860
	O351	O	-0.193451	0.196182	1.163662
	H352	H	-0.185237	0.181961	1.138477
	H353	H	-0.177884	0.184937	1.155292
	O354	O	0.600926	0.696418	1.379621
	H355	H	0.576183	0.689594	1.395067
	H356	H	0.609035	0.686856	1.391791
	O357	O	0.449413	0.715475	0.295373
	H358	H	0.446861	0.719971	0.296018
	H359	H	0.459740	0.720566	0.283495
	O360	O	0.689144	0.293561	0.446942
	H361	H	0.699374	0.290074	0.425386
	H362	H	0.691332	0.283547	0.428523
	O363	O	1.165450	1.184559	0.827187
	H364	H	1.151630	1.175173	0.837133
	H365	H	1.176666	1.189599	0.823292
	O366	O	1.010132	-0.208658	0.842938
	H367	H	1.033513	-0.216641	0.828831
	H368	H	1.013437	-0.204968	0.837383
	O369	O	-0.068379	-0.015275	0.835435
	H370	H	-0.083130	-0.001554	0.832840
	H371	H	-0.060186	-0.007617	0.827372
	O372	O	0.146613	0.206701	0.206392
	H373	H	0.142862	0.214967	0.197910
	H374	H	0.164455	0.202807	0.206454
	O375	O	0.971838	-0.168312	0.212736
	H376	H	0.959364	-0.181282	0.227211
	H377	H	0.939632	-0.171128	0.213617
	O378	O	-0.037755	-0.063675	1.210072
	H379	H	-0.046003	-0.040995	1.219729
	H380	H	-0.043299	-0.057807	1.187503
	O381	O	0.196753	0.800325	-0.028812
	H382	H	0.218547	0.779926	-0.032046
	H383	H	0.189050	0.821072	-0.024089
	O384	O	0.604342	0.715502	0.563595
	H385	H	0.618008	0.736014	0.578929
	H386	H	0.591181	0.712580	0.583493
	O387	O	0.379788	0.395158	1.388635
	H388	H	0.389646	0.388970	1.384930
	H389	H	0.382202	0.400828	1.393393
	O390	O	0.232266	0.751823	0.774308
	H391	H	0.231262	0.739738	0.774015
	H392	H	0.237882	0.745512	0.785627
	O393	O	0.460080	-0.431873	-0.400500
	H394	H	0.447711	-0.435613	-0.396676
	H395	H	0.472615	-0.420669	-0.399305
	O396	O	0.363766	0.293931	0.602948
	H397	H	0.369700	0.289086	0.589641
	H398	H	0.356847	0.279244	0.598141
	O399	O	1.023815	1.002434	-0.023815
	H400	H	1.016420	0.990859	-0.012113
	H401	H	1.015455	0.987681	-0.027821
	O402	O	1.575822	-0.474396	1.324562
	H403	H	1.565185	-0.468311	1.323932
	H404	H	1.566536	-0.466178	1.325096
	O405	O	0.058357	0.121194	0.164275
	H406	H	0.085249	0.124000	0.166801
	H407	H	0.062326	0.135016	0.175263
	O408	O	1.175069	1.030566	1.152368
	H409	H	1.173016	1.023503	1.159166
	H410	H	1.164826	1.034070	1.158638
	O411	O	1.267582	1.477781	0.721138
	H412	H	1.256526	1.448411	0.726700
	H413	H	1.258262	1.459068	0.729745
	O414	O	0.054147	0.124926	0.037514
	H415	H	0.044061	0.125890	0.036009
	H416	H	0.047613	0.120462	0.045280
	O417	O	1.023411	0.016739	0.072968
	H418	H	1.008692	0.018884	0.069949
	H419	H	1.020713	0.009284	0.082532
	O420	O	0.821070	-0.074890	1.205818
	H421	H	0.801341	-0.075025	1.218609
	H422	H	0.815297	-0.069889	1.179349
	O423	O	0.544210	1.429782	-0.409992
	H424	H	0.528930	1.438782	-0.405841
	H425	H	0.550461	1.444785	-0.408775
	O426	O	0.030994	1.192947	-0.087521
	H427	H	0.033453	1.184732	-0.079748
	H428	H	0.025687	1.208553	-0.092115
	O429	O	0.701467	0.663539	0.697837
	H430	H	0.686727	0.669730	0.705914
	H431	H	0.722967	0.671792	0.714231
	O432	O	0.761426	0.007065	1.160436
	H433	H	0.763496	0.008308	1.156647
	H434	H	0.753971	0.007316	1.157856
	O435	O	0.621313	0.508470	0.712537
	H436	H	0.634919	0.520008	0.699219
	H437	H	0.620865	0.506893	0.731743
	O438	O	0.426427	0.607833	0.509936
	H439	H	0.428772	0.628487	0.513944
	H440	H	0.423782	0.594074	0.514223
	O441	O	1.036097	1.001320	-0.201474
	H442	H	1.054787	0.990577	-0.209027
	H443	H	1.041374	1.002736	-0.202673
	O444	O	0.518599	0.601160	0.729837
	H445	H	0.510487	0.597976	0.729557
	H446	H	0.516786	0.611519	0.732452
	O447	O	0.582751	0.478162	0.450401
	H448	H	0.589794	0.489831	0.447854
	H449	H	0.571128	0.484718	0.446732
	O450	O	0.773221	-0.204076	0.039488
	H451	H	0.782514	-0.218564	0.027889
	H452	H	0.772227	-0.205416	0.022658
	O453	O	0.618982	0.300010	0.303977
	H454	H	0.629464	0.287781	0.276832
	H455	H	0.636021	0.333081	0.292680
	O456	O	-0.060940	0.786910	0.901005
	H457	H	-0.042476	0.790668	0.883714
	H458	H	-0.038361	0.784945	0.908212
	O459	O	0.769162	0.209093	0.797314
	H460	H	0.747518	0.225181	0.769779
	H461	H	0.799886	0.221128	0.788278
	O462	O	0.269551	0.393957	0.433428
	H463	H	0.279846	0.397272	0.428401
	H464	H	0.259350	0.383935	0.421251
	O465	O	0.280522	0.604957	0.303800
	H466	H	0.264746	0.613520	0.287155
	H467	H	0.307597	0.593100	0.300340
	O468	O	-0.222443	0.999088	0.007310
	H469	H	-0.224915	1.010549	-0.004795
	H470	H	-0.215959	1.002787	0.002480
	O471	O	0.772441	0.775607	0.796260
	H472	H	0.791430	0.796820	0.814654
	H473	H	0.778147	0.780706	0.806860
	O474	O	0.998596	0.997939	0.197814
	H475	H	0.976198	0.974753	0.194831
	H476	H	0.984426	1.013633	0.210920
	O477	O	0.463475	0.468398	0.612503
	H478	H	0.463703	0.466692	0.601518
	H479	H	0.469001	0.474393	0.617723
