data_Molecule from HDF5

_cell_length_a		16.165960
_cell_length_b		16.283267
_cell_length_c		16.271929
_cell_angle_alpha	90.376299
_cell_angle_beta	90.134392
_cell_angle_gamma	89.435997
_symmetry_space_group_name_H-M	'P 1'
_symmetry_Int_Tables_number		1

loop_
	_symmetry_equiv_pos_as_xyz
	x,y,z

loop_
	_atom_site_label
	_atom_site_type_symbol
	_atom_site_fract_x
	_atom_site_fract_y
	_atom_site_fract_z
	H0	H	0.404895	0.832900	0.718065
	H1	H	0.604282	0.158203	0.722762
	H2	H	0.605228	0.833899	0.286681
	H3	H	0.400767	0.160229	0.289505
	H4	H	0.715367	0.395615	0.841165
	H5	H	0.713764	0.594536	0.168252
	H6	H	0.283999	0.595383	0.840312
	H7	H	0.288076	0.401027	0.167760
	H8	H	0.836965	0.712485	0.405333
	H9	H	0.164787	0.710947	0.606035
	H10	H	0.836402	0.284027	0.601816
	H11	H	0.164122	0.277480	0.402247
	H12	H	0.835706	0.399354	0.715597
	H13	H	0.164816	0.594131	0.720776
	H14	H	0.836298	0.596645	0.289839
	H15	H	0.165353	0.394015	0.289006
	H16	H	0.397762	0.712954	0.840254
	H17	H	0.597876	0.711259	0.167866
	H18	H	0.604186	0.277734	0.842498
	H19	H	0.402620	0.285176	0.167802
	H20	H	0.717513	0.832771	0.405469
	H21	H	0.713611	0.160711	0.602928
	H22	H	0.289365	0.832114	0.600702
	H23	H	0.284179	0.158972	0.404582
	H24	H	0.902747	0.332357	0.218272
	H25	H	0.100715	0.658523	0.222239
	H26	H	0.100923	0.332683	0.787801
	H27	H	0.897334	0.659358	0.789581
	H28	H	0.218340	0.893502	0.340605
	H29	H	0.216255	0.095885	0.667593
	H30	H	0.784839	0.094262	0.340203
	H31	H	0.789679	0.900544	0.667754
	H32	H	0.337239	0.212798	0.905443
	H33	H	0.664830	0.212703	0.106908
	H34	H	0.335353	0.786835	0.100343
	H35	H	0.664765	0.776519	0.902684
	H36	H	0.338180	0.898042	0.218669
	H37	H	0.666308	0.094619	0.218867
	H38	H	0.338808	0.099720	0.786778
	H39	H	0.668029	0.896631	0.791770
	H40	H	0.899057	0.211704	0.339998
	H41	H	0.101929	0.213450	0.666567
	H42	H	0.103241	0.776576	0.341508
	H43	H	0.901845	0.784093	0.666969
	H44	H	0.218049	0.332909	0.902783
	H45	H	0.211426	0.660669	0.101834
	H46	H	0.788435	0.331244	0.100876
	H47	H	0.783436	0.658587	0.907093
	H48	H	0.410878	0.112899	0.598544
	H49	H	0.594638	0.881213	0.594555
	H50	H	0.583922	0.112838	0.403920
	H51	H	0.414760	0.879405	0.404492
	H52	H	0.594801	0.412584	0.120038
	H53	H	0.583163	0.593728	0.887943
	H54	H	0.404944	0.588419	0.119183
	H55	H	0.406279	0.407099	0.887829
	H56	H	0.116815	0.585337	0.415640
	H57	H	0.883382	0.595320	0.594162
	H58	H	0.118513	0.402527	0.594385
	H59	H	0.884286	0.407843	0.407982
	H60	H	0.116471	0.405911	0.593556
	H61	H	0.884418	0.588171	0.594998
	H62	H	0.118128	0.584327	0.411166
	H63	H	0.881928	0.400958	0.408096
	H64	H	0.410887	0.595547	0.119421
	H65	H	0.600647	0.589559	0.884033
	H66	H	0.585856	0.399499	0.119976
	H67	H	0.413881	0.405888	0.889424
	H68	H	0.592059	0.109175	0.421855
	H69	H	0.600894	0.878432	0.596770
	H70	H	0.411614	0.111032	0.594611
	H71	H	0.413798	0.882434	0.413881
	H72	H	0.906550	0.611862	0.097010
	H73	H	0.100050	0.376924	0.099431
	H74	H	0.091839	0.611997	0.914374
	H75	H	0.911617	0.379900	0.908286
	H76	H	0.100027	0.905033	0.622137
	H77	H	0.089523	0.081673	0.390530
	H78	H	0.908459	0.090480	0.619894
	H79	H	0.907980	0.901650	0.385428
	H80	H	0.612730	0.074216	0.918755
	H81	H	0.383405	0.097339	0.095867
	H82	H	0.617375	0.905415	0.094768
	H83	H	0.382294	0.898825	0.908898
	H84	H	0.620573	0.901732	0.097331
	H85	H	0.386481	0.088462	0.091975
	H86	H	0.624359	0.088404	0.900163
	H87	H	0.388061	0.909181	0.917631
	H88	H	0.908966	0.092547	0.620103
	H89	H	0.087638	0.091465	0.386925
	H90	H	0.092318	0.908520	0.618133
	H91	H	0.908461	0.905436	0.386974
	H92	H	0.092441	0.613103	0.908619
	H93	H	0.085874	0.381104	0.098393
	H94	H	0.906148	0.612721	0.098294
	H95	H	0.906629	0.378301	0.909870
	H96	H	0.407853	0.112683	0.595833
	H97	H	0.595424	0.878379	0.601216
	H98	H	0.603237	0.117743	0.408327
	H99	H	0.406809	0.878722	0.409547
	H100	H	0.601356	0.399409	0.125037
	H101	H	0.589225	0.577593	0.891924
	H102	H	0.402206	0.596774	0.123614
	H103	H	0.409427	0.400394	0.885655
	H104	H	0.118523	0.588894	0.412825
	H105	H	0.881984	0.592554	0.600833
	H106	H	0.118527	0.405145	0.597534
	H107	H	0.883800	0.404712	0.414013
	H108	H	0.908611	0.611576	0.098334
	H109	H	0.095404	0.382785	0.087415
	H110	H	0.087811	0.612064	0.911219
	H111	H	0.907562	0.377998	0.905031
	H112	H	0.092792	0.899317	0.620366
	H113	H	0.097844	0.087249	0.386047
	H114	H	0.907483	0.091841	0.620541
	H115	H	0.911348	0.903120	0.387992
	H116	H	0.618693	0.099141	0.923023
	H117	H	0.383190	0.089028	0.102439
	H118	H	0.618170	0.901014	0.093325
	H119	H	0.384497	0.911933	0.903747
	C120	C	0.381164	0.004305	0.624907
	C121	C	0.624717	0.987445	0.626296
	C122	C	0.623709	0.005418	0.381726
	C123	C	0.381006	0.988015	0.381341
	C124	C	0.623370	0.373362	0.013642
	C125	C	0.620447	0.616828	0.995767
	C126	C	0.376741	0.621270	0.012353
	C127	C	0.380800	0.376503	0.995702
	C128	C	0.009545	0.617062	0.383570
	C129	C	0.991664	0.619505	0.626685
	C130	C	0.009319	0.375706	0.623834
	C131	C	0.992132	0.374093	0.381298
	C132	C	0.879246	0.504111	0.125701
	C133	C	0.122232	0.488082	0.125398
	C134	C	0.121894	0.504657	0.881289
	C135	C	0.878152	0.486977	0.881029
	C136	C	0.124166	0.873758	0.512322
	C137	C	0.121913	0.117039	0.495548
	C138	C	0.878351	0.119685	0.512140
	C139	C	0.880882	0.876255	0.495064
	C140	C	0.510812	0.118193	0.883137
	C141	C	0.492994	0.119225	0.126235
	C142	C	0.509986	0.875660	0.123926
	C143	C	0.493414	0.875251	0.881681
	C144	C	0.384007	0.881688	0.680341
	C145	C	0.623164	0.110146	0.683280
	C146	C	0.624133	0.882690	0.325132
	C147	C	0.380952	0.111131	0.326900
	C148	C	0.678404	0.374950	0.890442
	C149	C	0.676029	0.614945	0.119089
	C150	C	0.321421	0.617190	0.889140
	C151	C	0.325581	0.380073	0.118827
	C152	C	0.885894	0.673973	0.385293
	C153	C	0.115837	0.673122	0.625504
	C154	C	0.885481	0.321507	0.621610
	C155	C	0.115400	0.316457	0.382434
	C156	C	0.885048	0.378915	0.678273
	C157	C	0.115702	0.615190	0.682798
	C158	C	0.885715	0.616537	0.327719
	C159	C	0.115811	0.374473	0.326199
	C160	C	0.378318	0.675324	0.889234
	C161	C	0.618432	0.673084	0.118891
	C162	C	0.623196	0.316005	0.891271
	C163	C	0.382607	0.322373	0.118824
	C164	C	0.679981	0.882111	0.384330
	C165	C	0.677972	0.110986	0.624205
	C166	C	0.326883	0.881096	0.621614
	C167	C	0.323137	0.110539	0.384186
	C168	C	0.882470	0.380912	0.180454
	C169	C	0.120205	0.610219	0.182830
	C170	C	0.121119	0.381770	0.825473
	C171	C	0.878204	0.610231	0.827256
	C172	C	0.179839	0.874131	0.389359
	C173	C	0.178554	0.116141	0.618228
	C174	C	0.822253	0.116021	0.389313
	C175	C	0.826324	0.879617	0.618511
	C176	C	0.386853	0.175241	0.884541
	C177	C	0.616120	0.174532	0.125719
	C178	C	0.385298	0.823111	0.121082
	C179	C	0.616373	0.816423	0.883358
	C180	C	0.386829	0.878375	0.180138
	C181	C	0.616932	0.115934	0.181688
	C182	C	0.387630	0.118719	0.825747
	C183	C	0.617905	0.875992	0.828079
	C184	C	0.879342	0.174058	0.389023
	C185	C	0.121505	0.174756	0.617793
	C186	C	0.122820	0.815932	0.389981
	C187	C	0.882288	0.821688	0.618074
	C188	C	0.179391	0.381946	0.882569
	C189	C	0.175478	0.611218	0.123152
	C190	C	0.825655	0.380389	0.121941
	C191	C	0.821248	0.609910	0.885509
	C192	C	0.403386	0.089953	0.602978
	C193	C	0.603179	0.901643	0.604013
	C194	C	0.600004	0.091188	0.404538
	C195	C	0.404935	0.902427	0.402885
	C196	C	0.600723	0.396861	0.099420
	C197	C	0.597650	0.593898	0.910209
	C198	C	0.399326	0.599913	0.098248
	C199	C	0.403260	0.398129	0.909843
	C200	C	0.095553	0.593217	0.406516
	C201	C	0.905661	0.598212	0.603608
	C202	C	0.095300	0.397993	0.601638
	C203	C	0.905781	0.397699	0.403520
	C204	C	0.900572	0.589714	0.104146
	C205	C	0.100339	0.402347	0.101935
	C206	C	0.097812	0.590253	0.904817
	C207	C	0.901621	0.401133	0.901649
	C208	C	0.101633	0.897449	0.598050
	C209	C	0.098377	0.093523	0.409904
	C210	C	0.901600	0.098174	0.597964
	C211	C	0.902948	0.897264	0.409146
	C212	C	0.596518	0.094318	0.906846
	C213	C	0.406557	0.097848	0.103429
	C214	C	0.596358	0.896397	0.101749
	C215	C	0.407360	0.899530	0.903681
	Zn216	Zn	0.503228	-0.003361	0.754178
	Zn217	Zn	0.502372	-0.003283	0.252743
	Zn218	Zn	0.750189	0.494931	0.004212
	Zn219	Zn	0.250871	0.496587	0.003602
	Zn220	Zn	0.001160	0.746810	0.504185
	Zn221	Zn	0.000739	0.247375	0.503310
	Zn222	Zn	-0.000247	0.496075	0.752559
	Zn223	Zn	0.000922	0.495718	0.254454
	Zn224	Zn	0.500181	0.747502	0.003482
	Zn225	Zn	0.501303	0.247135	0.004839
	Zn226	Zn	0.751348	-0.003344	0.504362
	Zn227	Zn	0.252350	-0.004511	0.503183
	N228	N	0.416906	0.959387	0.682576
	N229	N	0.590650	0.032438	0.684879
	N230	N	0.589898	0.960432	0.323362
	N231	N	0.416120	0.033881	0.324939
	N232	N	0.678822	0.409817	0.967632
	N233	N	0.677505	0.580602	0.041567
	N234	N	0.320273	0.584035	0.966513
	N235	N	0.324253	0.412963	0.041120
	N236	N	0.963970	0.674361	0.419332
	N237	N	0.037898	0.676132	0.591650
	N238	N	0.963756	0.319518	0.588220
	N239	N	0.037545	0.316006	0.416003
	N240	N	0.962993	0.411850	0.679898
	N241	N	0.037330	0.582746	0.683817
	N242	N	0.963481	0.581622	0.326673
	N243	N	0.038014	0.409523	0.325306
	N244	N	0.411529	0.678148	0.967136
	N245	N	0.584640	0.674358	0.041373
	N246	N	0.589734	0.315059	0.968916
	N247	N	0.416087	0.320146	0.041241
	N248	N	0.679854	0.959441	0.418905
	N249	N	0.679313	0.033744	0.589468
	N250	N	0.324985	0.958392	0.588060
	N251	N	0.322825	0.032828	0.416995
	N252	N	0.914826	0.458708	0.183168
	N253	N	0.087901	0.532415	0.184224
	N254	N	0.086242	0.459179	0.824476
	N255	N	0.912787	0.532925	0.824227
	N256	N	0.180769	0.909473	0.466476
	N257	N	0.178985	0.080891	0.541099
	N258	N	0.821665	0.083033	0.466808
	N259	N	0.825043	0.912775	0.541049
	N260	N	0.464409	0.175013	0.919596
	N261	N	0.537992	0.176640	0.091874
	N262	N	0.462933	0.821394	0.086903
	N263	N	0.537936	0.815727	0.915742
	N264	N	0.465152	0.910569	0.182063
	N265	N	0.539380	0.082201	0.182126
	N266	N	0.465462	0.083925	0.824824
	N267	N	0.540433	0.911922	0.826904
	N268	N	0.913529	0.176555	0.466596
	N269	N	0.087071	0.175314	0.540430
	N270	N	0.089086	0.815498	0.467529
	N271	N	0.915527	0.819302	0.540325
	N272	N	0.180150	0.459458	0.916576
	N273	N	0.176699	0.534173	0.087861
	N274	N	0.823498	0.457867	0.088507
	N275	N	0.821071	0.532193	0.918306
	O276	O	0.505275	0.484702	0.474541
	H277	H	0.503832	0.482380	0.471975
	H278	H	0.504421	0.490440	0.471647
	O279	O	0.512640	0.479962	0.626852
	H280	H	0.514454	0.485364	0.633043
	H281	H	0.513978	0.477492	0.621548
	O282	O	0.927208	1.029195	-0.013716
	H283	H	0.931412	1.021545	-0.014969
	H284	H	0.917158	1.026658	-0.026330
	O285	O	1.115422	-0.119849	1.048086
	H286	H	1.124011	-0.094536	1.054439
	H287	H	1.109605	-0.126210	1.056198
	O288	O	0.425133	0.489851	0.552993
	H289	H	0.427882	0.495134	0.558414
	H290	H	0.427055	0.490340	0.552392
	O291	O	0.445982	0.521843	0.541882
	H292	H	0.448426	0.520755	0.544078
	H293	H	0.437477	0.530418	0.533594
	O294	O	0.510057	0.381229	0.540276
	H295	H	0.499838	0.375251	0.543729
	H296	H	0.510306	0.373352	0.534770
	O297	O	0.026863	0.034223	1.086759
	H298	H	0.020338	0.035447	1.087977
	H299	H	0.026160	0.041189	1.078570
	O300	O	0.595836	0.373509	0.469155
	H301	H	0.598379	0.373947	0.461188
	H302	H	0.601348	0.372460	0.461778
	O303	O	0.999221	1.037028	0.062243
	H304	H	1.012442	1.041624	0.067383
	H305	H	0.990058	1.053228	0.061925
	O306	O	0.014816	0.938709	0.902126
	H307	H	0.035527	0.936699	0.904190
	H308	H	0.015409	0.944532	0.895198
	O309	O	0.643428	0.521710	0.569587
	H310	H	0.648748	0.517906	0.581259
	H311	H	0.648507	0.520142	0.579320
	O312	O	0.061772	0.057098	0.007479
	H313	H	0.056488	0.058694	0.009928
	H314	H	0.057174	0.057200	-0.010712
	O315	O	1.014527	-0.080906	0.032454
	H316	H	1.002709	-0.084123	0.034142
	H317	H	1.018594	-0.078570	0.028781
	O318	O	1.091599	1.001613	0.904612
	H319	H	1.107918	0.995355	0.913724
	H320	H	1.095285	0.993287	0.906905
	O321	O	-0.013268	-0.014914	1.093890
	H322	H	-0.013418	-0.018648	1.094467
	H323	H	-0.020047	-0.006664	1.098812
	O324	O	0.423995	0.607713	0.428842
	H325	H	0.401696	0.617004	0.422869
	H326	H	0.419963	0.608253	0.414906
	O327	O	0.028969	-0.013892	0.017900
	H328	H	0.026944	-0.016159	0.012780
	H329	H	0.031198	-0.015165	0.017203
	O330	O	0.439010	0.491053	0.522111
	H331	H	0.444030	0.481433	0.518682
	H332	H	0.422828	0.483866	0.524901
	O333	O	0.085008	0.977894	0.878157
	H334	H	0.082738	0.993673	0.891194
	H335	H	0.103272	0.970538	0.868872
	O336	O	-0.065875	-0.057358	0.093941
	H337	H	-0.070882	-0.062367	0.076509
	H338	H	-0.072727	-0.062362	0.089134
	O339	O	0.447846	0.525118	0.454147
	H340	H	0.440815	0.514304	0.461608
	H341	H	0.447364	0.519929	0.453590
	O342	O	0.924109	0.946066	0.957425
	H343	H	0.933041	0.936147	0.960738
	H344	H	0.929327	0.937050	0.962005
	O345	O	0.356543	1.377027	-0.442070
	H346	H	0.357503	1.389536	-0.435545
	H347	H	0.343399	1.373468	-0.454723
	O348	O	0.554015	0.560868	0.555958
	H349	H	0.548545	0.567392	0.556819
	H350	H	0.562668	0.551281	0.550481
	O351	O	0.372964	0.517350	0.582857
	H352	H	0.378704	0.521192	0.584467
	H353	H	0.383027	0.523794	0.581314
	O354	O	0.424995	0.534755	0.477015
	H355	H	0.433388	0.527226	0.480773
	H356	H	0.422069	0.538194	0.468058
	O357	O	1.105998	-0.038017	1.024767
	H358	H	1.120103	-0.038887	1.025621
	H359	H	1.112364	-0.019902	1.034517
	O360	O	0.484771	0.449694	0.386874
	H361	H	0.489107	0.445165	0.389983
	H362	H	0.494194	0.454956	0.384696
	O363	O	0.573996	0.555904	0.494231
	H364	H	0.575394	0.563959	0.486454
	H365	H	0.579132	0.552941	0.495050
	O366	O	0.991568	1.136946	1.042382
	H367	H	0.998258	1.135998	1.029292
	H368	H	0.976601	1.141863	1.023832
	O369	O	0.845661	0.048871	0.974787
	H370	H	0.837740	0.033718	0.981367
	H371	H	0.846091	0.055470	0.968766
	O372	O	-0.040521	0.002412	0.109572
	H373	H	-0.054010	0.004673	0.111957
	H374	H	-0.046435	-0.000029	0.109146
	O375	O	1.045416	0.025653	-0.109058
	H376	H	1.049676	0.005941	-0.097923
	H377	H	1.047443	0.025729	-0.103322
	O378	O	0.558328	0.481538	0.504074
	H379	H	0.556241	0.481013	0.506217
	H380	H	0.562556	0.472994	0.507952
	O381	O	0.987001	0.886905	-0.010765
	H382	H	1.000245	0.883284	-0.004842
	H383	H	0.990347	0.877763	-0.002502
