data_Molecule from HDF5

_cell_length_a		16.222028
_cell_length_b		16.325700
_cell_length_c		16.305396
_cell_angle_alpha	89.998291
_cell_angle_beta	89.957308
_cell_angle_gamma	89.966120
_symmetry_space_group_name_H-M	'P 1'
_symmetry_Int_Tables_number		1

loop_
	_symmetry_equiv_pos_as_xyz
	x,y,z

loop_
	_atom_site_label
	_atom_site_type_symbol
	_atom_site_fract_x
	_atom_site_fract_y
	_atom_site_fract_z
	H0	H	0.400517	0.836711	0.715645
	H1	H	0.599618	0.162646	0.716288
	H2	H	0.598262	0.836229	0.285813
	H3	H	0.401560	0.163383	0.285313
	H4	H	0.713301	0.401904	0.836117
	H5	H	0.712577	0.596095	0.164326
	H6	H	0.286286	0.597348	0.835534
	H7	H	0.286204	0.403120	0.163810
	H8	H	0.836215	0.713722	0.401749
	H9	H	0.164368	0.713572	0.597672
	H10	H	0.835339	0.287620	0.596638
	H11	H	0.164604	0.286048	0.402091
	H12	H	0.835313	0.402969	0.713426
	H13	H	0.164346	0.597455	0.713886
	H14	H	0.835819	0.597662	0.286582
	H15	H	0.164220	0.402119	0.286156
	H16	H	0.401559	0.715016	0.836708
	H17	H	0.597811	0.714548	0.163602
	H18	H	0.597775	0.285341	0.836866
	H19	H	0.401262	0.285522	0.163480
	H20	H	0.714898	0.836262	0.402687
	H21	H	0.713274	0.164002	0.597306
	H22	H	0.285343	0.835720	0.598025
	H23	H	0.286926	0.164115	0.403443
	H24	H	0.901279	0.336853	0.214736
	H25	H	0.098489	0.662758	0.214927
	H26	H	0.098703	0.336932	0.785336
	H27	H	0.900780	0.663395	0.785061
	H28	H	0.213677	0.904183	0.335397
	H29	H	0.212387	0.095943	0.664766
	H30	H	0.786830	0.097746	0.335947
	H31	H	0.786416	0.902385	0.663152
	H32	H	0.335008	0.213030	0.902669
	H33	H	0.663532	0.213934	0.097694
	H34	H	0.334656	0.786640	0.098170
	H35	H	0.664324	0.786215	0.902572
	H36	H	0.335398	0.902475	0.214149
	H37	H	0.664889	0.096774	0.212489
	H38	H	0.335707	0.098391	0.785115
	H39	H	0.664275	0.901458	0.785669
	H40	H	0.901128	0.215287	0.336546
	H41	H	0.098916	0.215270	0.663115
	H42	H	0.099742	0.785073	0.336039
	H43	H	0.901327	0.785024	0.662463
	H44	H	0.213233	0.336472	0.903112
	H45	H	0.213946	0.663269	0.097224
	H46	H	0.785574	0.336539	0.097765
	H47	H	0.787050	0.664266	0.904065
	H48	H	0.412112	0.116509	0.600854
	H49	H	0.597414	0.882619	0.593619
	H50	H	0.595253	0.118005	0.402236
	H51	H	0.404101	0.882357	0.403731
	H52	H	0.610582	0.405735	0.121723
	H53	H	0.594696	0.596742	0.882124
	H54	H	0.418143	0.597089	0.113133
	H55	H	0.416052	0.407329	0.886543
	H56	H	0.114258	0.592350	0.416377
	H57	H	0.883687	0.598215	0.587083
	H58	H	0.113329	0.410311	0.583652
	H59	H	0.885161	0.413845	0.405069
	H60	H	0.117992	0.414017	0.602580
	H61	H	0.885034	0.586578	0.592780
	H62	H	0.116282	0.584474	0.401642
	H63	H	0.880074	0.402244	0.401973
	H64	H	0.398370	0.603525	0.121595
	H65	H	0.594809	0.592141	0.883252
	H66	H	0.584961	0.422458	0.109845
	H67	H	0.404082	0.396345	0.880291
	H68	H	0.590460	0.114633	0.406302
	H69	H	0.591878	0.883541	0.596239
	H70	H	0.410524	0.112174	0.585892
	H71	H	0.410475	0.884089	0.404412
	H72	H	0.901989	0.617089	0.091610
	H73	H	0.093360	0.384572	0.089712
	H74	H	0.090984	0.617819	0.899794
	H75	H	0.906251	0.382659	0.903493
	H76	H	0.078841	0.912556	0.609849
	H77	H	0.088278	0.088869	0.387468
	H78	H	0.913811	0.090148	0.613009
	H79	H	0.912035	0.909018	0.384593
	H80	H	0.617179	0.089440	0.901131
	H81	H	0.385256	0.088871	0.089134
	H82	H	0.616378	0.905932	0.091795
	H83	H	0.383544	0.908315	0.907853
	H84	H	0.616530	0.907244	0.093602
	H85	H	0.381440	0.090578	0.100382
	H86	H	0.617811	0.099703	0.908545
	H87	H	0.382926	0.907597	0.905704
	H88	H	0.907596	0.103328	0.618993
	H89	H	0.091361	0.100250	0.381970
	H90	H	0.093389	0.891232	0.620662
	H91	H	0.907744	0.901904	0.381397
	H92	H	0.089006	0.614483	0.910582
	H93	H	0.096489	0.381906	0.095485
	H94	H	0.906979	0.617796	0.098900
	H95	H	0.908876	0.385525	0.906754
	H96	H	0.398353	0.118374	0.593686
	H97	H	0.592504	0.884627	0.590147
	H98	H	0.596425	0.115950	0.408468
	H99	H	0.406513	0.884970	0.409380
	H100	H	0.581693	0.390777	0.117770
	H101	H	0.590949	0.595140	0.884063
	H102	H	0.401538	0.582389	0.114547
	H103	H	0.399580	0.412427	0.883494
	H104	H	0.121099	0.600530	0.403146
	H105	H	0.880409	0.595919	0.599700
	H106	H	0.120812	0.396304	0.595120
	H107	H	0.884148	0.404100	0.414070
	H108	H	0.910344	0.614056	0.091731
	H109	H	0.089606	0.383930	0.095521
	H110	H	0.099849	0.618493	0.907480
	H111	H	0.904484	0.383329	0.907786
	H112	H	0.105811	0.915476	0.616579
	H113	H	0.100166	0.091082	0.382265
	H114	H	0.898598	0.091034	0.617492
	H115	H	0.903630	0.909031	0.383048
	H116	H	0.613874	0.088636	0.913280
	H117	H	0.380840	0.099664	0.092378
	H118	H	0.617002	0.905131	0.094332
	H119	H	0.382684	0.905844	0.906821
	C120	C	0.378335	0.007661	0.621706
	C121	C	0.621932	0.991761	0.621542
	C122	C	0.622386	0.008238	0.377923
	C123	C	0.378829	0.992211	0.378145
	C124	C	0.620837	0.378211	0.007984
	C125	C	0.621301	0.621885	0.991769
	C126	C	0.377871	0.622234	0.008154
	C127	C	0.377951	0.377675	0.991808
	C128	C	0.008700	0.621000	0.378625
	C129	C	0.991674	0.621643	0.621471
	C130	C	0.008584	0.378949	0.621682
	C131	C	0.991671	0.378564	0.378662
	C132	C	0.878064	0.508479	0.122257
	C133	C	0.121510	0.491046	0.121975
	C134	C	0.121481	0.508699	0.878144
	C135	C	0.878205	0.492231	0.878292
	C136	C	0.121686	0.878281	0.507595
	C137	C	0.121840	0.121647	0.492104
	C138	C	0.878708	0.122219	0.508155
	C139	C	0.879315	0.878493	0.491167
	C140	C	0.508129	0.121043	0.878887
	C141	C	0.491154	0.121074	0.121777
	C142	C	0.507755	0.878311	0.121615
	C143	C	0.491614	0.878864	0.878552
	C144	C	0.380944	0.884968	0.676716
	C145	C	0.619756	0.114221	0.677567
	C146	C	0.619335	0.884959	0.323590
	C147	C	0.381147	0.114939	0.323402
	C148	C	0.675543	0.381375	0.885307
	C149	C	0.675214	0.617750	0.115253
	C150	C	0.323684	0.618605	0.884680
	C151	C	0.323738	0.381874	0.114867
	C152	C	0.885162	0.676198	0.381181
	C153	C	0.115431	0.675716	0.618266
	C154	C	0.884558	0.324804	0.618086
	C155	C	0.115507	0.323684	0.381490
	C156	C	0.884269	0.382439	0.675606
	C157	C	0.115344	0.618169	0.676045
	C158	C	0.884807	0.618272	0.324291
	C159	C	0.115606	0.381450	0.324153
	C160	C	0.380939	0.677055	0.885250
	C161	C	0.617851	0.676083	0.115167
	C162	C	0.618389	0.323244	0.885476
	C163	C	0.380727	0.323176	0.114767
	C164	C	0.677211	0.884979	0.381561
	C165	C	0.676177	0.115020	0.618519
	C166	C	0.323444	0.884576	0.618697
	C167	C	0.324197	0.115344	0.382020
	C168	C	0.880784	0.385439	0.176875
	C169	C	0.118726	0.614275	0.176897
	C170	C	0.118948	0.385656	0.823412
	C171	C	0.881254	0.615026	0.823896
	C172	C	0.176609	0.882003	0.384431
	C173	C	0.175580	0.117564	0.615564
	C174	C	0.824527	0.118461	0.384808
	C175	C	0.824437	0.882046	0.614488
	C176	C	0.384249	0.175886	0.881326
	C177	C	0.614870	0.175957	0.118869
	C178	C	0.383924	0.824150	0.118788
	C179	C	0.615321	0.823892	0.881636
	C180	C	0.384233	0.881499	0.176529
	C181	C	0.615370	0.118003	0.175826
	C182	C	0.384490	0.118222	0.823719
	C183	C	0.615252	0.880787	0.823312
	C184	C	0.881383	0.176872	0.385052
	C185	C	0.119226	0.176578	0.614795
	C186	C	0.119924	0.823033	0.384840
	C187	C	0.881349	0.823617	0.613983
	C188	C	0.175543	0.385101	0.882130
	C189	C	0.176001	0.614577	0.118363
	C190	C	0.823642	0.385238	0.118491
	C191	C	0.824159	0.615250	0.882462
	C192	C	0.400459	0.093572	0.599721
	C193	C	0.600325	0.905966	0.599700
	C194	C	0.600454	0.094050	0.399170
	C195	C	0.400632	0.906068	0.399579
	C196	C	0.598739	0.399772	0.094439
	C197	C	0.599863	0.600861	0.905432
	C198	C	0.399489	0.600629	0.094221
	C199	C	0.400071	0.399140	0.905566
	C200	C	0.095048	0.598961	0.400651
	C201	C	0.905234	0.599925	0.599672
	C202	C	0.094996	0.400435	0.600164
	C203	C	0.905489	0.400231	0.400585
	C204	C	0.899996	0.594167	0.100588
	C205	C	0.099769	0.405648	0.100095
	C206	C	0.099771	0.594764	0.899627
	C207	C	0.900066	0.405981	0.899776
	C208	C	0.099335	0.899925	0.593518
	C209	C	0.099812	0.099905	0.406159
	C210	C	0.900391	0.101087	0.594359
	C211	C	0.901309	0.900266	0.405288
	C212	C	0.594063	0.099191	0.901150
	C213	C	0.404872	0.099446	0.100416
	C214	C	0.594201	0.899893	0.099822
	C215	C	0.405275	0.900755	0.900439
	Zn216	Zn	0.500166	0.000039	0.750083
	Zn217	Zn	0.500214	-0.000014	0.249566
	Zn218	Zn	0.749770	0.499974	-0.000065
	Zn219	Zn	0.249563	0.499812	-0.000555
	Zn220	Zn	0.000419	0.749563	0.499351
	Zn221	Zn	0.000424	0.250588	0.500166
	Zn222	Zn	0.000103	0.500071	0.749766
	Zn223	Zn	-0.000173	0.499892	0.250708
	Zn224	Zn	0.499955	0.750697	0.000182
	Zn225	Zn	0.499389	0.249161	0.000231
	Zn226	Zn	0.750656	0.000478	0.499863
	Zn227	Zn	0.250224	-0.000079	0.500064
	N228	N	0.414181	0.962518	0.678757
	N229	N	0.586801	0.036791	0.679434
	N230	N	0.585848	0.962317	0.321379
	N231	N	0.414531	0.037476	0.321250
	N232	N	0.677056	0.414855	0.962595
	N233	N	0.677257	0.584688	0.037632
	N234	N	0.321810	0.585016	0.962061
	N235	N	0.322068	0.415046	0.037365
	N236	N	0.963133	0.677855	0.414281
	N237	N	0.037606	0.677842	0.584982
	N238	N	0.962690	0.322519	0.585228
	N239	N	0.037619	0.321968	0.414806
	N240	N	0.962324	0.415051	0.678125
	N241	N	0.037478	0.585157	0.677974
	N242	N	0.962494	0.584761	0.322632
	N243	N	0.037846	0.414743	0.322308
	N244	N	0.413830	0.679306	0.962943
	N245	N	0.585429	0.679046	0.037206
	N246	N	0.584892	0.321346	0.962975
	N247	N	0.413528	0.320453	0.036934
	N248	N	0.679110	0.962399	0.414658
	N249	N	0.677794	0.037932	0.584259
	N250	N	0.321661	0.961990	0.585259
	N251	N	0.322475	0.037957	0.415278
	N252	N	0.913826	0.462992	0.179375
	N253	N	0.085507	0.536812	0.178923
	N254	N	0.085865	0.463286	0.821171
	N255	N	0.914121	0.537365	0.821130
	N256	N	0.177699	0.915734	0.461680
	N257	N	0.176883	0.083697	0.538315
	N258	N	0.822702	0.085257	0.462359
	N259	N	0.823038	0.915555	0.537041
	N260	N	0.461886	0.177603	0.915126
	N261	N	0.536961	0.178016	0.085921
	N262	N	0.461700	0.822231	0.085209
	N263	N	0.537661	0.822875	0.915488
	N264	N	0.462195	0.914513	0.178280
	N265	N	0.537518	0.084543	0.177592
	N266	N	0.462351	0.084938	0.822002
	N267	N	0.537554	0.914471	0.821536
	N268	N	0.914414	0.179297	0.462716
	N269	N	0.086601	0.179271	0.537052
	N270	N	0.086561	0.820871	0.462487
	N271	N	0.914490	0.821206	0.536469
	N272	N	0.177532	0.462697	0.915055
	N273	N	0.177909	0.537260	0.084829
	N274	N	0.821892	0.462492	0.085148
	N275	N	0.822563	0.537841	0.915625
