data_Molecule from HDF5

_cell_length_a		16.252219
_cell_length_b		16.186201
_cell_length_c		16.272371
_cell_angle_alpha	89.676836
_cell_angle_beta	90.082213
_cell_angle_gamma	89.860615
_symmetry_space_group_name_H-M	'P 1'
_symmetry_Int_Tables_number		1

loop_
	_symmetry_equiv_pos_as_xyz
	x,y,z

loop_
	_atom_site_label
	_atom_site_type_symbol
	_atom_site_fract_x
	_atom_site_fract_y
	_atom_site_fract_z
	H0	H	0.399445	0.842628	0.706413
	H1	H	0.597000	0.171406	0.702001
	H2	H	0.597432	0.841333	0.276180
	H3	H	0.399113	0.170211	0.274140
	H4	H	0.712292	0.406532	0.826949
	H5	H	0.712448	0.605421	0.153313
	H6	H	0.278992	0.607450	0.826929
	H7	H	0.282660	0.405479	0.154096
	H8	H	0.833320	0.722040	0.390883
	H9	H	0.160903	0.718400	0.588655
	H10	H	0.832888	0.290351	0.588648
	H11	H	0.161512	0.292668	0.394226
	H12	H	0.832574	0.403809	0.705724
	H13	H	0.159749	0.603420	0.705406
	H14	H	0.832593	0.605938	0.274466
	H15	H	0.160544	0.405253	0.275886
	H16	H	0.396418	0.722608	0.826117
	H17	H	0.594675	0.719126	0.154333
	H18	H	0.595822	0.292547	0.825930
	H19	H	0.398103	0.289950	0.153338
	H20	H	0.712475	0.841323	0.391612
	H21	H	0.712125	0.170400	0.587055
	H22	H	0.283855	0.841101	0.589240
	H23	H	0.281673	0.169719	0.387356
	H24	H	0.898916	0.341059	0.205471
	H25	H	0.095484	0.669729	0.204069
	H26	H	0.095575	0.340211	0.777672
	H27	H	0.893808	0.668232	0.772185
	H28	H	0.212734	0.906821	0.325956
	H29	H	0.213229	0.105224	0.652854
	H30	H	0.782977	0.105046	0.326404
	H31	H	0.782736	0.904420	0.653018
	H32	H	0.332950	0.221052	0.890611
	H33	H	0.661973	0.218545	0.086455
	H34	H	0.332376	0.792868	0.088848
	H35	H	0.660362	0.791106	0.892388
	H36	H	0.334015	0.905853	0.207063
	H37	H	0.661058	0.105950	0.205376
	H38	H	0.334810	0.109092	0.771065
	H39	H	0.662081	0.907723	0.776906
	H40	H	0.899153	0.220792	0.325989
	H41	H	0.094872	0.217523	0.654543
	H42	H	0.096900	0.790685	0.326059
	H43	H	0.899071	0.790129	0.653202
	H44	H	0.212117	0.340980	0.892196
	H45	H	0.210339	0.670280	0.089221
	H46	H	0.782892	0.340766	0.089883
	H47	H	0.780860	0.669940	0.889807
	H48	H	0.402119	0.122226	0.575394
	H49	H	0.598888	0.884168	0.592391
	H50	H	0.582992	0.118717	0.403451
	H51	H	0.404780	0.888460	0.396549
	H52	H	0.588581	0.405273	0.108647
	H53	H	0.585414	0.601023	0.873818
	H54	H	0.399225	0.598686	0.107006
	H55	H	0.401401	0.419367	0.875014
	H56	H	0.116206	0.603402	0.390859
	H57	H	0.883437	0.585575	0.580106
	H58	H	0.110716	0.413637	0.577680
	H59	H	0.876167	0.407652	0.392070
	H60	H	0.112915	0.418167	0.590223
	H61	H	0.875685	0.601216	0.592730
	H62	H	0.111634	0.599215	0.405561
	H63	H	0.881921	0.411314	0.405116
	H64	H	0.405123	0.595814	0.105604
	H65	H	0.591673	0.599662	0.873036
	H66	H	0.596809	0.414607	0.107889
	H67	H	0.408720	0.414852	0.875263
	H68	H	0.601313	0.125655	0.399549
	H69	H	0.578529	0.891642	0.586360
	H70	H	0.402594	0.125247	0.584099
	H71	H	0.406853	0.889506	0.398433
	H72	H	0.898175	0.624764	0.082877
	H73	H	0.088943	0.385924	0.091245
	H74	H	0.089240	0.621278	0.902039
	H75	H	0.895443	0.385961	0.898994
	H76	H	0.092702	0.908180	0.608320
	H77	H	0.090471	0.094507	0.373887
	H78	H	0.897172	0.096961	0.608946
	H79	H	0.904971	0.908413	0.371085
	H80	H	0.610490	0.091867	0.901243
	H81	H	0.378535	0.099654	0.089403
	H82	H	0.615327	0.905970	0.085376
	H83	H	0.381022	0.917650	0.893780
	H84	H	0.611732	0.913927	0.077599
	H85	H	0.381024	0.104647	0.076314
	H86	H	0.617037	0.098699	0.886111
	H87	H	0.379598	0.912779	0.897476
	H88	H	0.907766	0.092922	0.604877
	H89	H	0.085212	0.101837	0.373472
	H90	H	0.094028	0.916005	0.604655
	H91	H	0.900278	0.918519	0.373282
	H92	H	0.089746	0.624153	0.893450
	H93	H	0.083566	0.391562	0.078949
	H94	H	0.906971	0.623541	0.086463
	H95	H	0.907355	0.386434	0.890520
	H96	H	0.410054	0.121317	0.580765
	H97	H	0.594826	0.890988	0.571871
	H98	H	0.587752	0.125439	0.386149
	H99	H	0.404161	0.888606	0.399415
	H100	H	0.585180	0.416200	0.103457
	H101	H	0.588193	0.594654	0.875310
	H102	H	0.404449	0.603186	0.107464
	H103	H	0.402004	0.411253	0.872244
	H104	H	0.112193	0.588066	0.393313
	H105	H	0.880707	0.605615	0.571679
	H106	H	0.116561	0.404861	0.587452
	H107	H	0.881474	0.422106	0.393719
	H108	H	0.905224	0.620099	0.076473
	H109	H	0.096443	0.387593	0.079962
	H110	H	0.082541	0.620076	0.897254
	H111	H	0.908006	0.391863	0.905022
	H112	H	0.085900	0.912842	0.604712
	H113	H	0.093994	0.102559	0.370804
	H114	H	0.907073	0.104227	0.607265
	H115	H	0.911105	0.916964	0.376080
	H116	H	0.615322	0.108465	0.900451
	H117	H	0.383965	0.090941	0.080217
	H118	H	0.613683	0.917384	0.088746
	H119	H	0.382379	0.918210	0.899612
	C120	C	0.376357	0.014549	0.610660
	C121	C	0.619443	0.997593	0.611227
	C122	C	0.619471	0.014553	0.368116
	C123	C	0.375738	0.997307	0.367842
	C124	C	0.618655	0.384145	-0.001790
	C125	C	0.617604	0.627240	0.981903
	C126	C	0.373646	0.628814	-0.001547
	C127	C	0.375315	0.385159	0.982129
	C128	C	0.005081	0.627026	0.367681
	C129	C	0.987974	0.626335	0.611199
	C130	C	0.004978	0.382836	0.613106
	C131	C	0.988328	0.384437	0.368904
	C132	C	0.875267	0.513902	0.111460
	C133	C	0.118347	0.497177	0.111909
	C134	C	0.117268	0.513195	0.869353
	C135	C	0.873983	0.496284	0.868276
	C136	C	0.120007	0.883511	0.497882
	C137	C	0.118982	0.127825	0.481319
	C138	C	0.875453	0.127706	0.498818
	C139	C	0.876806	0.884769	0.481273
	C140	C	0.505991	0.128941	0.866858
	C141	C	0.489231	0.127153	0.110832
	C142	C	0.505333	0.883918	0.112607
	C143	C	0.489040	0.886127	0.868541
	C144	C	0.379155	0.891289	0.667548
	C145	C	0.617249	0.121864	0.664926
	C146	C	0.617549	0.890576	0.313656
	C147	C	0.378143	0.120925	0.311774
	C148	C	0.674335	0.386409	0.875409
	C149	C	0.673809	0.625146	0.104797
	C150	C	0.317711	0.627155	0.875494
	C151	C	0.320306	0.385743	0.105066
	C152	C	0.881942	0.683456	0.370476
	C153	C	0.111534	0.681279	0.609326
	C154	C	0.881858	0.327745	0.609787
	C155	C	0.112164	0.329503	0.372603
	C156	C	0.881808	0.384089	0.668185
	C157	C	0.110986	0.624224	0.667491
	C158	C	0.881647	0.626036	0.312517
	C159	C	0.111637	0.385758	0.313823
	C160	C	0.375908	0.684624	0.875156
	C161	C	0.615282	0.681896	0.105208
	C162	C	0.616109	0.329882	0.874935
	C163	C	0.377745	0.328249	0.104669
	C164	C	0.674854	0.890616	0.371003
	C165	C	0.674397	0.121446	0.607641
	C166	C	0.321722	0.890519	0.609436
	C167	C	0.320106	0.120789	0.368336
	C168	C	0.877934	0.390025	0.167229
	C169	C	0.115655	0.620690	0.166426
	C170	C	0.115725	0.389483	0.815015
	C171	C	0.874649	0.619736	0.811407
	C172	C	0.174812	0.886400	0.374766
	C173	C	0.174685	0.125113	0.604299
	C174	C	0.820878	0.125555	0.375174
	C175	C	0.821048	0.885206	0.604257
	C176	C	0.382408	0.184149	0.869157
	C177	C	0.612602	0.181999	0.108096
	C178	C	0.381692	0.829666	0.109885
	C179	C	0.612045	0.829880	0.871778
	C180	C	0.382513	0.886185	0.168462
	C181	C	0.612299	0.125639	0.166707
	C182	C	0.383510	0.128469	0.809587
	C183	C	0.612698	0.887753	0.814435
	C184	C	0.878281	0.183112	0.375130
	C185	C	0.116258	0.181520	0.604819
	C186	C	0.117646	0.828329	0.375009
	C187	C	0.878953	0.828433	0.604522
	C188	C	0.173780	0.390005	0.871935
	C189	C	0.172784	0.621000	0.109235
	C190	C	0.820684	0.389902	0.109855
	C191	C	0.818118	0.620324	0.869627
	C192	C	0.398373	0.100672	0.586973
	C193	C	0.597289	0.911247	0.589946
	C194	C	0.597445	0.100847	0.389885
	C195	C	0.398667	0.911160	0.391200
	C196	C	0.596674	0.405804	0.084474
	C197	C	0.594994	0.605126	0.896130
	C198	C	0.396238	0.606053	0.084225
	C199	C	0.397361	0.408542	0.896362
	C200	C	0.091142	0.603748	0.389963
	C201	C	0.902143	0.603953	0.588379
	C202	C	0.091130	0.405424	0.591356
	C203	C	0.902303	0.407066	0.390694
	C204	C	0.897090	0.600414	0.088701
	C205	C	0.096053	0.410700	0.089904
	C206	C	0.094021	0.599368	0.891204
	C207	C	0.896724	0.410317	0.891439
	C208	C	0.097499	0.905908	0.583657
	C209	C	0.096604	0.105994	0.395054
	C210	C	0.897631	0.104944	0.584689
	C211	C	0.899008	0.907822	0.395798
	C212	C	0.592071	0.106258	0.889375
	C213	C	0.403368	0.104692	0.088666
	C214	C	0.591268	0.905857	0.090467
	C215	C	0.403210	0.909358	0.890510
	Zn216	Zn	0.498537	0.007043	0.738871
	Zn217	Zn	0.497814	0.005789	0.240549
	Zn218	Zn	0.746964	0.505402	-0.009484
	Zn219	Zn	0.246143	0.506127	-0.009249
	Zn220	Zn	-0.002439	0.755447	0.489754
	Zn221	Zn	-0.002856	0.255671	0.490669
	Zn222	Zn	-0.004424	0.504820	0.740676
	Zn223	Zn	-0.003516	0.505498	0.239515
	Zn224	Zn	0.496471	0.756487	-0.009852
	Zn225	Zn	0.496968	0.256596	-0.010250
	Zn226	Zn	0.747330	0.005654	0.489937
	Zn227	Zn	0.247825	0.006210	0.489220
	N228	N	0.412229	0.969442	0.668425
	N229	N	0.583740	0.043954	0.667024
	N230	N	0.583900	0.968618	0.311778
	N231	N	0.412231	0.043125	0.311520
	N232	N	0.675939	0.419464	0.953154
	N233	N	0.675658	0.592014	0.027090
	N234	N	0.316152	0.593381	0.953225
	N235	N	0.318882	0.420627	0.027893
	N236	N	0.959895	0.684383	0.403917
	N237	N	0.034107	0.682807	0.575184
	N238	N	0.959483	0.326875	0.576446
	N239	N	0.034532	0.328562	0.406102
	N240	N	0.959595	0.417753	0.670370
	N241	N	0.033095	0.590851	0.668975
	N242	N	0.959283	0.591812	0.310690
	N243	N	0.033653	0.419225	0.311331
	N244	N	0.409975	0.685648	0.952576
	N245	N	0.581038	0.683195	0.027858
	N246	N	0.582195	0.328526	0.952301
	N247	N	0.411429	0.327820	0.027165
	N248	N	0.676375	0.968564	0.403957
	N249	N	0.675896	0.043135	0.574842
	N250	N	0.319823	0.968400	0.574964
	N251	N	0.318692	0.042963	0.402668
	N252	N	0.911068	0.467977	0.168245
	N253	N	0.082349	0.542733	0.168038
	N254	N	0.081375	0.467307	0.813092
	N255	N	0.908827	0.541797	0.810457
	N256	N	0.176481	0.919744	0.452183
	N257	N	0.176482	0.092367	0.526333
	N258	N	0.818836	0.091823	0.452980
	N259	N	0.819565	0.919658	0.526666
	N260	N	0.459504	0.184642	0.904083
	N261	N	0.535182	0.182999	0.073823
	N262	N	0.459103	0.828160	0.075755
	N263	N	0.534158	0.828681	0.904732
	N264	N	0.460422	0.919158	0.170291
	N265	N	0.534609	0.092145	0.168541
	N266	N	0.461418	0.094998	0.808202
	N267	N	0.535149	0.922158	0.812344
	N268	N	0.911687	0.184425	0.452928
	N269	N	0.082413	0.183242	0.527270
	N270	N	0.084196	0.826370	0.452761
	N271	N	0.912806	0.827889	0.527209
	N272	N	0.174821	0.467998	0.905024
	N273	N	0.174654	0.542979	0.076109
	N274	N	0.818972	0.468053	0.075649
	N275	N	0.817575	0.542577	0.904188
	O276	O	0.995775	0.920392	-0.015471
	H277	H	0.995906	0.925980	-0.008371
	H278	H	0.994410	0.915262	-0.032276
	O279	O	1.059928	-0.910522	0.967678
	H280	H	1.057083	-0.915886	0.975720
	H281	H	1.055996	-0.915753	0.971551
	O282	O	0.538573	0.430148	0.467987
	H283	H	0.535656	0.431253	0.466686
	H284	H	0.537307	0.433124	0.463891
	O285	O	0.531956	0.500971	0.533666
	H286	H	0.529380	0.507315	0.531760
	H287	H	0.522703	0.491468	0.526957
	O288	O	0.008875	0.028971	-0.055336
	H289	H	0.013211	0.025453	-0.046028
	H290	H	0.006153	0.027424	-0.057837
	O291	O	-0.488892	0.549279	0.463416
	H292	H	-0.503259	0.536234	0.468228
	H293	H	-0.497455	0.550979	0.457022
	O294	O	0.079971	0.953549	-0.075294
	H295	H	0.074657	0.965255	-0.077662
	H296	H	0.090059	0.940990	-0.084544
	O297	O	0.466326	0.538681	0.458140
	H298	H	0.468358	0.544078	0.449390
	H299	H	0.475221	0.543624	0.466245
	O300	O	0.475282	0.495327	0.403977
	H301	H	0.476859	0.491391	0.399874
	H302	H	0.470762	0.491027	0.396386
	O303	O	1.001137	-0.086911	0.979676
	H304	H	0.997382	-0.094207	0.980269
	H305	H	1.003844	-0.096847	0.978104
	O306	O	0.007368	0.991585	0.951295
	H307	H	0.017018	0.989402	0.950698
	H308	H	0.003628	0.996457	0.948668
	O309	O	0.007482	0.951276	0.991420
	H310	H	0.013494	0.956134	0.993570
	H311	H	0.007081	0.943117	0.995602
	O312	O	0.538915	-0.547483	1.495063
	H313	H	0.543384	-0.552620	1.508811
	H314	H	0.538731	-0.557694	1.500531
	O315	O	0.419747	0.502915	0.554284
	H316	H	0.413900	0.487639	0.565205
	H317	H	0.430832	0.516993	0.553256
	O318	O	-0.002612	0.042468	0.959392
	H319	H	-0.005217	0.044754	0.953977
	H320	H	-0.002143	0.040011	0.952277
	O321	O	-0.021241	0.964157	-0.011381
	H322	H	-0.024398	0.970554	-0.010847
	H323	H	-0.023368	0.959121	-0.005634
	O324	O	0.994069	-0.038846	0.987982
	H325	H	0.981538	-0.037793	0.983820
	H326	H	1.005839	-0.034648	0.984404
	O327	O	1.085282	0.936230	0.932766
	H328	H	1.079697	0.937881	0.932828
	H329	H	1.103551	0.936765	0.926900
	O330	O	0.416893	0.443043	0.515809
	H331	H	0.406506	0.439183	0.520477
	H332	H	0.414177	0.448461	0.517353
	O333	O	0.473269	0.592292	0.489262
	H334	H	0.475647	0.593637	0.494410
	H335	H	0.466502	0.596985	0.485675
	O336	O	0.511676	0.590168	0.553280
	H337	H	0.518574	0.593781	0.551572
	H338	H	0.517169	0.591411	0.555886
	O339	O	0.456848	0.466884	0.551699
	H340	H	0.474171	0.459389	0.552022
	H341	H	0.459909	0.471427	0.554232
	O342	O	0.447066	0.543918	0.515276
	H343	H	0.446496	0.550822	0.512681
	H344	H	0.450056	0.539827	0.512810
	O345	O	0.468369	0.419146	0.503537
	H346	H	0.461577	0.406376	0.509670
	H347	H	0.462479	0.433601	0.493173
