data_Molecule from HDF5

_cell_length_a		16.389888
_cell_length_b		16.491578
_cell_length_c		16.585278
_cell_angle_alpha	89.818396
_cell_angle_beta	89.970210
_cell_angle_gamma	89.944732
_symmetry_space_group_name_H-M	'P 1'
_symmetry_Int_Tables_number		1

loop_
	_symmetry_equiv_pos_as_xyz
	x,y,z

loop_
	_atom_site_label
	_atom_site_type_symbol
	_atom_site_fract_x
	_atom_site_fract_y
	_atom_site_fract_z
	H0	H	0.394374	0.842539	0.730544
	H1	H	0.606787	0.156870	0.724741
	H2	H	0.609675	0.842096	0.283128
	H3	H	0.393854	0.154481	0.279900
	H4	H	0.725038	0.396294	0.849968
	H5	H	0.720048	0.599645	0.164324
	H6	H	0.277842	0.607853	0.849765
	H7	H	0.281013	0.393108	0.162463
	H8	H	0.844864	0.719556	0.402164
	H9	H	0.161420	0.724151	0.615698
	H10	H	0.845608	0.282576	0.606315
	H11	H	0.164123	0.279177	0.401999
	H12	H	0.845493	0.399265	0.722856
	H13	H	0.161930	0.605914	0.728171
	H14	H	0.846357	0.606416	0.285024
	H15	H	0.163044	0.392740	0.283346
	H16	H	0.395722	0.723080	0.847818
	H17	H	0.606824	0.719869	0.161408
	H18	H	0.608718	0.277981	0.850133
	H19	H	0.395105	0.274919	0.161249
	H20	H	0.725469	0.842329	0.400327
	H21	H	0.720149	0.158714	0.605187
	H22	H	0.280960	0.840709	0.611662
	H23	H	0.282192	0.156819	0.400528
	H24	H	0.902309	0.341533	0.226293
	H25	H	0.109994	0.656012	0.228989
	H26	H	0.110788	0.343288	0.784003
	H27	H	0.897301	0.657983	0.783716
	H28	H	0.226127	0.890693	0.349691
	H29	H	0.225506	0.102061	0.662082
	H30	H	0.790242	0.097256	0.345638
	H31	H	0.781905	0.895458	0.663414
	H32	H	0.345580	0.221793	0.898656
	H33	H	0.662562	0.216050	0.106809
	H34	H	0.344168	0.779081	0.107316
	H35	H	0.663954	0.780908	0.902416
	H36	H	0.345462	0.891605	0.226213
	H37	H	0.661904	0.100737	0.223911
	H38	H	0.346199	0.106037	0.781998
	H39	H	0.662651	0.892851	0.783433
	H40	H	0.903637	0.217603	0.347183
	H41	H	0.111328	0.220580	0.662045
	H42	H	0.109022	0.775954	0.350469
	H43	H	0.895729	0.776867	0.663643
	H44	H	0.225769	0.342827	0.902019
	H45	H	0.225469	0.657565	0.111424
	H46	H	0.788456	0.340190	0.106536
	H47	H	0.786379	0.659996	0.905731
	H48	H	0.419960	0.108899	0.593994
	H49	H	0.593031	0.886142	0.592805
	H50	H	0.594618	0.111758	0.414842
	H51	H	0.415473	0.887153	0.417886
	H52	H	0.590245	0.407317	0.118927
	H53	H	0.593419	0.593394	0.891856
	H54	H	0.417841	0.590049	0.115269
	H55	H	0.410502	0.412978	0.893061
	H56	H	0.118516	0.591559	0.420959
	H57	H	0.891350	0.584226	0.599927
	H58	H	0.119820	0.409925	0.598488
	H59	H	0.891877	0.413523	0.413181
	H60	H	0.119770	0.408085	0.595880
	H61	H	0.888368	0.593332	0.596214
	H62	H	0.113141	0.583617	0.424444
	H63	H	0.889291	0.405088	0.414222
	H64	H	0.415068	0.588329	0.116673
	H65	H	0.598025	0.589877	0.891308
	H66	H	0.596625	0.402784	0.121428
	H67	H	0.420181	0.416027	0.897133
	H68	H	0.594247	0.113331	0.411325
	H69	H	0.594209	0.884971	0.597212
	H70	H	0.415058	0.108346	0.588844
	H71	H	0.414532	0.886343	0.415678
	H72	H	0.913864	0.614788	0.098894
	H73	H	0.096102	0.386216	0.094182
	H74	H	0.085616	0.608577	0.921580
	H75	H	0.915894	0.388927	0.916995
	H76	H	0.092591	0.913825	0.616327
	H77	H	0.092530	0.086151	0.394517
	H78	H	0.908538	0.092709	0.620978
	H79	H	0.899801	0.906157	0.389052
	H80	H	0.619287	0.090390	0.910955
	H81	H	0.390984	0.084455	0.090514
	H82	H	0.616343	0.911671	0.097060
	H83	H	0.390347	0.911626	0.913871
	H84	H	0.618158	0.905694	0.095715
	H85	H	0.388965	0.084713	0.096152
	H86	H	0.616207	0.089694	0.919704
	H87	H	0.390287	0.909570	0.918005
	H88	H	0.912525	0.089235	0.618861
	H89	H	0.089181	0.091075	0.393441
	H90	H	0.088106	0.912839	0.615031
	H91	H	0.919256	0.922350	0.399550
	H92	H	0.095105	0.612066	0.920492
	H93	H	0.090675	0.386393	0.099657
	H94	H	0.913904	0.613980	0.097424
	H95	H	0.910345	0.385107	0.914991
	H96	H	0.413073	0.111614	0.594857
	H97	H	0.590287	0.886524	0.596242
	H98	H	0.591354	0.112312	0.412685
	H99	H	0.417108	0.886362	0.415337
	H100	H	0.597343	0.410119	0.119476
	H101	H	0.593175	0.588104	0.894431
	H102	H	0.417026	0.586755	0.114602
	H103	H	0.418237	0.406064	0.893740
	H104	H	0.116442	0.583547	0.415023
	H105	H	0.893728	0.586418	0.590760
	H106	H	0.119619	0.411277	0.595661
	H107	H	0.893765	0.409322	0.420951
	H108	H	0.912587	0.614766	0.097742
	H109	H	0.088752	0.389047	0.092884
	H110	H	0.088023	0.613175	0.912969
	H111	H	0.916096	0.386387	0.911196
	H112	H	0.090090	0.910144	0.618363
	H113	H	0.095196	0.090490	0.392433
	H114	H	0.914201	0.094593	0.619200
	H115	H	0.925043	0.896182	0.394085
	H116	H	0.615085	0.082601	0.914292
	H117	H	0.388424	0.089367	0.092055
	H118	H	0.616887	0.910012	0.091005
	H119	H	0.392296	0.913634	0.917149
	C120	C	0.382284	0.006422	0.626306
	C121	C	0.624201	0.990792	0.626023
	C122	C	0.624991	0.007875	0.382711
	C123	C	0.381538	0.990023	0.383271
	C124	C	0.626055	0.376586	0.015532
	C125	C	0.625076	0.620558	0.996944
	C126	C	0.382227	0.621351	0.012578
	C127	C	0.382352	0.378198	0.997747
	C128	C	0.012009	0.619395	0.387013
	C129	C	0.995438	0.621008	0.628051
	C130	C	0.014054	0.378802	0.627164
	C131	C	0.996880	0.378229	0.384724
	C132	C	0.883003	0.509101	0.128373
	C133	C	0.125176	0.491162	0.127858
	C134	C	0.123895	0.507966	0.885689
	C135	C	0.882394	0.491975	0.884112
	C136	C	0.123767	0.878062	0.514060
	C137	C	0.125636	0.120760	0.496973
	C138	C	0.882390	0.121528	0.514580
	C139	C	0.881446	0.876827	0.497967
	C140	C	0.511968	0.120442	0.883440
	C141	C	0.494260	0.118304	0.124962
	C142	C	0.512277	0.876974	0.126323
	C143	C	0.495744	0.878792	0.884104
	C144	C	0.377501	0.889246	0.689128
	C145	C	0.625394	0.109838	0.684576
	C146	C	0.627609	0.889336	0.323398
	C147	C	0.377207	0.107951	0.321633
	C148	C	0.685347	0.376447	0.897075
	C149	C	0.682176	0.620215	0.116487
	C150	C	0.319393	0.625108	0.895902
	C151	C	0.321250	0.375125	0.115353
	C152	C	0.892918	0.679822	0.384243
	C153	C	0.113951	0.683081	0.632175
	C154	C	0.893627	0.321373	0.626451
	C155	C	0.116448	0.318687	0.382970
	C156	C	0.893430	0.379239	0.684156
	C157	C	0.114477	0.624343	0.688431
	C158	C	0.893590	0.623418	0.325608
	C159	C	0.115935	0.375642	0.324244
	C160	C	0.377934	0.682712	0.895170
	C161	C	0.625654	0.679504	0.115131
	C162	C	0.627786	0.317844	0.897086
	C163	C	0.378205	0.316117	0.114637
	C164	C	0.685165	0.889385	0.381728
	C165	C	0.681944	0.110681	0.625539
	C166	C	0.320959	0.888330	0.629845
	C167	C	0.321185	0.108854	0.381381
	C168	C	0.882668	0.389140	0.186639
	C169	C	0.128477	0.609447	0.188517
	C170	C	0.128067	0.390024	0.824902
	C171	C	0.879756	0.610754	0.824440
	C172	C	0.185318	0.873726	0.396801
	C173	C	0.185852	0.121465	0.615197
	C174	C	0.827697	0.118437	0.393683
	C175	C	0.821326	0.876269	0.616070
	C176	C	0.393104	0.181162	0.880814
	C177	C	0.614477	0.177023	0.126226
	C178	C	0.392386	0.817753	0.127020
	C179	C	0.615774	0.819684	0.883019
	C180	C	0.392822	0.874019	0.185867
	C181	C	0.614131	0.119630	0.184145
	C182	C	0.393374	0.123773	0.822689
	C183	C	0.615071	0.875720	0.824015
	C184	C	0.884210	0.177978	0.394482
	C185	C	0.129181	0.180496	0.615035
	C186	C	0.127004	0.816488	0.397045
	C187	C	0.878168	0.817106	0.616317
	C188	C	0.185076	0.389703	0.883662
	C189	C	0.185846	0.609814	0.130079
	C190	C	0.826444	0.388312	0.126991
	C191	C	0.824435	0.611903	0.884917
	C192	C	0.408565	0.088322	0.600052
	C193	C	0.599756	0.907456	0.602014
	C194	C	0.600311	0.090796	0.406226
	C195	C	0.407945	0.908017	0.409036
	C196	C	0.601590	0.400062	0.098321
	C197	C	0.601634	0.597046	0.914047
	C198	C	0.408912	0.595546	0.094338
	C199	C	0.408673	0.404249	0.915897
	C200	C	0.094581	0.593555	0.412808
	C201	C	0.912657	0.595312	0.602714
	C202	C	0.097945	0.402769	0.603456
	C203	C	0.913425	0.402529	0.409147
	C204	C	0.906602	0.592573	0.104911
	C205	C	0.099261	0.408787	0.102840
	C206	C	0.097317	0.589945	0.911258
	C207	C	0.906939	0.408462	0.907643
	C208	C	0.097773	0.904566	0.595388
	C209	C	0.099716	0.096296	0.414858
	C210	C	0.905185	0.098714	0.597780
	C211	C	0.907236	0.901177	0.415711
	C212	C	0.595209	0.094969	0.908262
	C213	C	0.411091	0.093505	0.100017
	C214	C	0.595320	0.901930	0.101767
	C215	C	0.412691	0.904188	0.909170
	Zn216	Zn	0.503827	-0.001239	0.755145
	Zn217	Zn	0.502662	-0.001867	0.254224
	Zn218	Zn	0.754550	0.499927	0.006397
	Zn219	Zn	0.253262	0.500045	0.005716
	Zn220	Zn	0.003486	0.748343	0.507380
	Zn221	Zn	0.005100	0.249720	0.505692
	Zn222	Zn	0.004357	0.500426	0.755673
	Zn223	Zn	0.004677	0.500200	0.257131
	Zn224	Zn	0.503943	0.750124	0.003910
	Zn225	Zn	0.503188	0.248229	0.005467
	Zn226	Zn	0.753361	-0.000238	0.505153
	Zn227	Zn	0.253220	-0.001603	0.505143
	N228	N	0.414990	0.963818	0.687152
	N229	N	0.590476	0.034182	0.684991
	N230	N	0.590655	0.964047	0.323900
	N231	N	0.413769	0.032990	0.322435
	N232	N	0.684633	0.412089	0.971812
	N233	N	0.681767	0.584277	0.041984
	N234	N	0.322010	0.587840	0.970031
	N235	N	0.323702	0.413090	0.041478
	N236	N	0.967528	0.677487	0.422009
	N237	N	0.038741	0.681278	0.595351
	N238	N	0.969887	0.320589	0.592153
	N239	N	0.041568	0.320296	0.420054
	N240	N	0.969654	0.413639	0.685205
	N241	N	0.039880	0.586787	0.686127
	N242	N	0.968649	0.586408	0.327237
	N243	N	0.040517	0.412003	0.325254
	N244	N	0.416146	0.680664	0.968804
	N245	N	0.590931	0.679932	0.039789
	N246	N	0.591900	0.317522	0.971925
	N247	N	0.415515	0.318042	0.040471
	N248	N	0.683658	0.964050	0.417847
	N249	N	0.681643	0.035375	0.590125
	N250	N	0.323730	0.962212	0.591527
	N251	N	0.323651	0.034461	0.418954
	N252	N	0.916829	0.465196	0.187769
	N253	N	0.091800	0.534559	0.187377
	N254	N	0.090763	0.464706	0.825968
	N255	N	0.914943	0.534999	0.823716
	N256	N	0.183317	0.911308	0.470462
	N257	N	0.183950	0.085388	0.540656
	N258	N	0.826202	0.084465	0.469224
	N259	N	0.823106	0.912366	0.541390
	N260	N	0.468005	0.179201	0.917780
	N261	N	0.538869	0.176509	0.090393
	N262	N	0.467731	0.819416	0.090623
	N263	N	0.540438	0.821360	0.919534
	N264	N	0.468379	0.909944	0.185777
	N265	N	0.538327	0.084118	0.183730
	N266	N	0.468383	0.086564	0.824208
	N267	N	0.539393	0.911557	0.824440
	N268	N	0.917249	0.180480	0.470731
	N269	N	0.092617	0.180273	0.540448
	N270	N	0.089453	0.818817	0.471079
	N271	N	0.914864	0.817212	0.541858
	N272	N	0.182372	0.463936	0.920688
	N273	N	0.183982	0.535326	0.093220
	N274	N	0.826137	0.463888	0.091768
	N275	N	0.825642	0.536766	0.921044
	O276	O	0.505834	0.732276	0.499526
	H277	H	0.497332	0.730619	0.506253
	H278	H	0.482469	0.734494	0.489117
	O279	O	0.289507	0.544453	0.294468
	H280	H	0.278714	0.545549	0.278732
	H281	H	0.300325	0.525122	0.289866
	O282	O	1.032654	1.223564	-0.143458
	H283	H	1.020076	1.240880	-0.173594
	H284	H	1.015025	1.232398	-0.147133
	O285	O	0.475514	0.396959	0.384812
	H286	H	0.482119	0.390125	0.378180
	H287	H	0.492854	0.377238	0.395830
	O288	O	0.086380	-0.081305	0.087076
	H289	H	0.062750	-0.084045	0.081703
	H290	H	0.077172	-0.077021	0.086132
	O291	O	0.482688	0.294990	0.714223
	H292	H	0.476980	0.276403	0.714498
	H293	H	0.466878	0.299584	0.723388
	O294	O	0.192028	0.943338	-0.190652
	H295	H	0.193617	0.964136	-0.208166
	H296	H	0.213634	0.952942	-0.182295
	O297	O	0.300596	0.364739	0.595753
	H298	H	0.286463	0.357544	0.583769
	H299	H	0.298186	0.366092	0.591940
	O300	O	0.547199	0.485570	0.379020
	H301	H	0.552256	0.500233	0.383577
	H302	H	0.552207	0.491155	0.366666
	O303	O	0.549346	0.458485	0.726285
	H304	H	0.532315	0.464134	0.725073
	H305	H	0.547333	0.461164	0.726337
	O306	O	-0.082153	1.016020	1.090736
	H307	H	-0.067413	1.008635	1.091706
	H308	H	-0.081469	1.000429	1.087044
	O309	O	0.382225	0.556617	0.364619
	H310	H	0.400239	0.537685	0.363491
	H311	H	0.367813	0.564008	0.360829
	O312	O	0.527106	0.709768	0.719450
	H313	H	0.520683	0.728254	0.748033
	H314	H	0.525941	0.694586	0.709808
	O315	O	0.129739	0.207932	1.212100
	H316	H	0.140160	0.195334	1.211818
	H317	H	0.135547	0.198924	1.199755
	O318	O	-0.007887	0.906575	0.143397
	H319	H	0.012364	0.895845	0.140317
	H320	H	-0.013107	0.902274	0.140220
	O321	O	0.687788	0.417209	0.590769
	H322	H	0.667732	0.411737	0.578490
	H323	H	0.684499	0.437038	0.578359
	O324	O	0.898073	0.191072	1.199542
	H325	H	0.916475	0.191147	1.189884
	H326	H	0.916975	0.167927	1.196398
	O327	O	0.965699	-0.080667	0.883498
	H328	H	0.944701	-0.079855	0.882010
	H329	H	0.965075	-0.067025	0.886071
	O330	O	0.722990	0.282238	-0.271099
	H331	H	0.706054	0.284882	-0.267355
	H332	H	0.704956	0.305190	-0.299770
	O333	O	1.094793	0.843443	0.842330
	H334	H	1.068845	0.827527	0.826087
	H335	H	1.107539	0.871453	0.841379
	O336	O	0.832249	-0.008153	1.133473
	H337	H	0.843265	-0.019747	1.134468
	H338	H	0.820161	-0.013342	1.141842
	O339	O	0.712142	0.291370	0.346658
	H340	H	0.689465	0.277754	0.340307
	H341	H	0.725622	0.280859	0.311327
	O342	O	0.719265	0.717563	0.535345
	H343	H	0.750110	0.744802	0.539783
	H344	H	0.705054	0.716358	0.543094
	O345	O	0.197471	0.124803	0.077523
	H346	H	0.198862	0.121793	0.070829
	H347	H	0.182027	0.132619	0.075755
	O348	O	1.005297	-0.168859	1.213549
	H349	H	0.990985	-0.185295	1.216655
	H350	H	0.986569	-0.168553	1.204874
	O351	O	0.797627	1.208033	-0.033036
	H352	H	0.815438	1.191721	-0.005231
	H353	H	0.772237	1.236800	-0.027705
	O354	O	0.485362	0.575645	0.473260
	H355	H	0.506069	0.582839	0.495784
	H356	H	0.464644	0.574152	0.487167
	O357	O	0.788109	1.018259	0.847253
	H358	H	0.774181	1.042298	0.841816
	H359	H	0.779030	1.034651	0.840397
	O360	O	0.305949	0.545420	0.697188
	H361	H	0.298184	0.531831	0.714935
	H362	H	0.308402	0.535412	0.674475
	O363	O	0.318323	0.704981	0.400286
	H364	H	0.298364	0.703152	0.400193
	H365	H	0.313524	0.705670	0.387951
	O366	O	1.165841	0.186017	0.841117
	H367	H	1.146695	0.172319	0.834311
	H368	H	1.159543	0.184929	0.845944
	O369	O	0.424348	0.582736	0.716277
	H370	H	0.409881	0.570512	0.715468
	H371	H	0.422875	0.585797	0.707822
	O372	O	0.483840	0.695556	0.294327
	H373	H	0.465635	0.692311	0.304391
	H374	H	0.477172	0.719058	0.276974
	O375	O	-0.149026	1.122497	0.960191
	H376	H	-0.166578	1.122996	0.964821
	H377	H	-0.130260	1.130797	0.961804
	O378	O	0.991499	0.217031	0.007345
	H379	H	0.996357	0.217215	-0.000631
	H380	H	0.996574	0.216363	0.014999
	O381	O	1.210974	0.020561	0.223336
	H382	H	1.210528	0.003132	0.223978
	H383	H	1.228407	0.015818	0.237921
	O384	O	-0.074440	0.055016	1.072399
	H385	H	-0.073871	0.040158	1.075592
	H386	H	-0.074436	0.046186	1.079135
	O387	O	-0.136942	1.207204	0.793519
	H388	H	-0.155857	1.232630	0.765080
	H389	H	-0.155128	1.214549	0.825618
	O390	O	0.113509	-0.193402	0.959682
	H391	H	0.115728	-0.180470	0.953632
	H392	H	0.143407	-0.207069	0.953596
	O393	O	0.879726	0.797958	-0.014632
	H394	H	0.897290	0.802725	-0.025883
	H395	H	0.878022	0.789050	-0.037406
	O396	O	0.481996	0.360638	0.540036
	H397	H	0.488266	0.359173	0.548620
	H398	H	0.489527	0.368804	0.536510
	O399	O	0.483148	0.547998	0.481981
	H400	H	0.495635	0.545743	0.480871
	H401	H	0.484312	0.538941	0.465833
	O402	O	-0.000445	-0.204456	0.820122
	H403	H	-0.014043	-0.231645	0.795610
	H404	H	0.003545	-0.181420	0.814162
	O405	O	0.035657	0.048890	0.078437
	H406	H	0.023604	0.048423	0.084684
	H407	H	0.044004	0.031723	0.092415
	O408	O	0.662210	0.510473	0.449936
	H409	H	0.666459	0.509381	0.451814
	H410	H	0.675990	0.514493	0.434219
	O411	O	0.620062	0.508730	0.393679
	H412	H	0.624909	0.513904	0.390796
	H413	H	0.615866	0.519855	0.384572
	O414	O	0.537552	0.284854	0.292084
	H415	H	0.519484	0.281438	0.290939
	H416	H	0.526907	0.272685	0.285438
	O417	O	0.719146	0.416204	0.291083
	H418	H	0.717642	0.398173	0.281971
	H419	H	0.734947	0.407785	0.272349
	O420	O	0.674298	0.665718	0.329232
	H421	H	0.659052	0.650515	0.345550
	H422	H	0.653417	0.659175	0.336925
	O423	O	-0.013447	1.033018	0.145420
	H424	H	-0.008948	1.031055	0.132025
	H425	H	-0.032248	1.021669	0.152600
	O426	O	0.713123	1.531163	0.721130
	H427	H	0.717165	1.521251	0.729328
	H428	H	0.718235	1.524465	0.717036
	O429	O	0.221626	0.934330	-0.048499
	H430	H	0.220540	0.944477	-0.057824
	H431	H	0.225912	0.933169	-0.056677
	O432	O	0.310862	0.306160	0.699121
	H433	H	0.311599	0.319280	0.676106
	H434	H	0.303237	0.287687	0.688687
	O435	O	-0.032174	-0.147825	-0.026614
	H436	H	-0.022323	-0.170749	-0.046181
	H437	H	-0.029948	-0.114480	-0.042857
	O438	O	1.036312	0.027697	-0.018609
	H439	H	1.042625	0.021787	-0.040275
	H440	H	1.025367	0.024688	-0.019895
	O441	O	0.459322	0.581723	0.492087
	H442	H	0.470025	0.571080	0.496839
	H443	H	0.472133	0.583691	0.490581
	O444	O	0.163616	0.892878	1.118663
	H445	H	0.172265	0.887443	1.100384
	H446	H	0.148813	0.872101	1.118519
	O447	O	0.710290	0.308447	0.497665
	H448	H	0.719722	0.297607	0.467114
	H449	H	0.721977	0.309221	0.477012
	O450	O	0.386814	0.281155	0.468026
	H451	H	0.370410	0.268532	0.474462
	H452	H	0.403860	0.288336	0.479294
	O453	O	0.302735	0.628927	0.523089
	H454	H	0.283500	0.655118	0.513736
	H455	H	0.319710	0.624460	0.528775
	O456	O	1.037182	0.061883	-0.199246
	H457	H	1.035530	0.064866	-0.197856
	H458	H	1.019016	0.070673	-0.193696
	O459	O	0.305393	0.418794	0.431850
	H460	H	0.312560	0.420450	0.409256
	H461	H	0.311621	0.435695	0.431007
	O462	O	0.690581	0.692347	0.698718
	H463	H	0.662845	0.699121	0.680952
	H464	H	0.693923	0.650346	0.702751
	O465	O	0.805762	-0.203677	0.158784
	H466	H	0.799987	-0.198882	0.120027
	H467	H	0.781858	-0.226266	0.172735
