data_Molecule from HDF5

_cell_length_a		16.292896
_cell_length_b		16.198676
_cell_length_c		16.320278
_cell_angle_alpha	89.997440
_cell_angle_beta	89.944308
_cell_angle_gamma	90.074259
_symmetry_space_group_name_H-M	'P 1'
_symmetry_Int_Tables_number		1

loop_
	_symmetry_equiv_pos_as_xyz
	x,y,z

loop_
	_atom_site_label
	_atom_site_type_symbol
	_atom_site_fract_x
	_atom_site_fract_y
	_atom_site_fract_z
	H0	H	0.414343	0.835478	0.710467
	H1	H	0.611474	0.164633	0.709288
	H2	H	0.611751	0.836242	0.280927
	H3	H	0.414843	0.164443	0.281788
	H4	H	0.727159	0.402404	0.832655
	H5	H	0.727030	0.599337	0.160102
	H6	H	0.297323	0.600082	0.832403
	H7	H	0.296620	0.400677	0.159259
	H8	H	0.848624	0.713178	0.398623
	H9	H	0.176553	0.713344	0.594096
	H10	H	0.847937	0.286837	0.593334
	H11	H	0.176210	0.285965	0.398117
	H12	H	0.849069	0.400949	0.710801
	H13	H	0.175018	0.599814	0.711176
	H14	H	0.849109	0.597855	0.282430
	H15	H	0.175905	0.399882	0.280783
	H16	H	0.416552	0.713104	0.831498
	H17	H	0.608975	0.713663	0.160222
	H18	H	0.608608	0.287939	0.831747
	H19	H	0.414275	0.285829	0.160397
	H20	H	0.725914	0.835384	0.397167
	H21	H	0.726558	0.164270	0.593225
	H22	H	0.297397	0.835550	0.595737
	H23	H	0.297986	0.164384	0.396318
	H24	H	0.912925	0.335695	0.210457
	H25	H	0.111222	0.664370	0.210370
	H26	H	0.110326	0.335687	0.781974
	H27	H	0.914451	0.665118	0.782764
	H28	H	0.229299	0.900468	0.333531
	H29	H	0.226453	0.098313	0.659985
	H30	H	0.797017	0.099129	0.332387
	H31	H	0.797638	0.901874	0.659191
	H32	H	0.347388	0.212062	0.900158
	H33	H	0.676544	0.214169	0.092980
	H34	H	0.348423	0.785897	0.093762
	H35	H	0.677172	0.788267	0.899883
	H36	H	0.349065	0.900826	0.211595
	H37	H	0.676003	0.099364	0.210616
	H38	H	0.349686	0.100446	0.779755
	H39	H	0.675492	0.901549	0.781254
	H40	H	0.914991	0.213893	0.331618
	H41	H	0.107812	0.212870	0.660280
	H42	H	0.110398	0.786898	0.332139
	H43	H	0.915632	0.787537	0.659922
	H44	H	0.225275	0.335367	0.898638
	H45	H	0.226276	0.664537	0.093771
	H46	H	0.798323	0.335753	0.093895
	H47	H	0.801506	0.665458	0.900750
	H48	H	0.415280	0.118747	0.591405
	H49	H	0.602538	0.883957	0.587150
	H50	H	0.600759	0.112790	0.413877
	H51	H	0.427737	0.884175	0.398672
	H52	H	0.609754	0.404932	0.114181
	H53	H	0.610853	0.600443	0.877149
	H54	H	0.415740	0.588022	0.111440
	H55	H	0.415715	0.414030	0.881080
	H56	H	0.129748	0.589747	0.396559
	H57	H	0.896297	0.598310	0.579947
	H58	H	0.126892	0.408961	0.585764
	H59	H	0.891449	0.398599	0.396497
	H60	H	0.129572	0.409965	0.592394
	H61	H	0.898036	0.582588	0.591018
	H62	H	0.130720	0.600362	0.403226
	H63	H	0.899117	0.406091	0.414490
	H64	H	0.423586	0.592150	0.109953
	H65	H	0.611597	0.588059	0.880577
	H66	H	0.606229	0.412747	0.111028
	H67	H	0.426267	0.404572	0.882064
	H68	H	0.616998	0.121417	0.402631
	H69	H	0.610311	0.882051	0.588634
	H70	H	0.425478	0.116634	0.591810
	H71	H	0.420560	0.885506	0.412684
	H72	H	0.928108	0.611551	0.078552
	H73	H	0.104729	0.384442	0.085580
	H74	H	0.114137	0.620942	0.899742
	H75	H	0.920065	0.378657	0.887221
	H76	H	0.104577	0.903034	0.613545
	H77	H	0.100907	0.097703	0.380037
	H78	H	0.921814	0.084443	0.608078
	H79	H	0.915718	0.902165	0.376964
	H80	H	0.632671	0.098753	0.895881
	H81	H	0.397334	0.086712	0.089945
	H82	H	0.629859	0.904588	0.088766
	H83	H	0.396741	0.915642	0.899218
	H84	H	0.627689	0.909044	0.088146
	H85	H	0.395130	0.094322	0.094710
	H86	H	0.627791	0.096751	0.909387
	H87	H	0.392050	0.899197	0.895773
	H88	H	0.924793	0.101321	0.612303
	H89	H	0.112942	0.094142	0.377814
	H90	H	0.110123	0.908505	0.612318
	H91	H	0.915774	0.911843	0.379860
	H92	H	0.099287	0.617767	0.896181
	H93	H	0.108387	0.380990	0.090838
	H94	H	0.905651	0.621575	0.088467
	H95	H	0.931813	0.388149	0.909925
	H96	H	0.420190	0.115029	0.583203
	H97	H	0.604830	0.880443	0.593982
	H98	H	0.597946	0.117755	0.393180
	H99	H	0.412866	0.879494	0.400372
	H100	H	0.600888	0.404878	0.111262
	H101	H	0.600518	0.594441	0.881580
	H102	H	0.417469	0.596681	0.113174
	H103	H	0.413780	0.400589	0.876653
	H104	H	0.126676	0.590093	0.408467
	H105	H	0.891489	0.599497	0.598093
	H106	H	0.130165	0.403511	0.589100
	H107	H	0.898134	0.418745	0.398234
	H108	H	0.926765	0.619036	0.103755
	H109	H	0.102310	0.382123	0.092613
	H110	H	0.104975	0.615201	0.910518
	H111	H	0.905032	0.380941	0.909887
	H112	H	0.102185	0.909668	0.610515
	H113	H	0.104758	0.085962	0.382396
	H114	H	0.908741	0.094868	0.615463
	H115	H	0.924205	0.906502	0.381442
	H116	H	0.627139	0.086160	0.900420
	H117	H	0.396459	0.095507	0.085800
	H118	H	0.629468	0.907632	0.092028
	H119	H	0.397995	0.903425	0.910945
	C120	C	0.391371	0.008104	0.617733
	C121	C	0.634048	0.991412	0.617201
	C122	C	0.633618	0.008371	0.374878
	C123	C	0.391701	0.991706	0.374772
	C124	C	0.633748	0.379343	0.003972
	C125	C	0.634829	0.622207	0.988294
	C126	C	0.391123	0.621246	0.003784
	C127	C	0.390017	0.378018	0.988016
	C128	C	0.020963	0.621535	0.374173
	C129	C	1.003819	0.621819	0.617569
	C130	C	0.020477	0.379021	0.617192
	C131	C	1.004350	0.378493	0.374227
	C132	C	0.891396	0.508648	0.117998
	C133	C	0.133607	0.491501	0.117650
	C134	C	0.133562	0.508910	0.874384
	C135	C	0.891219	0.491727	0.874745
	C136	C	0.134232	0.878565	0.504572
	C137	C	0.134321	0.121590	0.487914
	C138	C	0.890230	0.121971	0.503775
	C139	C	0.890532	0.878387	0.487266
	C140	C	0.520715	0.122102	0.873847
	C141	C	0.504495	0.121628	0.117998
	C142	C	0.520943	0.878160	0.118031
	C143	C	0.504009	0.878586	0.874440
	C144	C	0.393604	0.884502	0.672707
	C145	C	0.631776	0.115282	0.671952
	C146	C	0.631599	0.884950	0.319213
	C147	C	0.394052	0.115338	0.319396
	C148	C	0.688822	0.382157	0.881322
	C149	C	0.689278	0.619716	0.111135
	C150	C	0.335723	0.619803	0.881061
	C151	C	0.334856	0.380425	0.110784
	C152	C	0.897659	0.675945	0.377479
	C153	C	0.127071	0.676814	0.615002
	C154	C	0.897060	0.324412	0.614130
	C155	C	0.127427	0.323328	0.377198
	C156	C	0.897380	0.381564	0.672104
	C157	C	0.126640	0.619949	0.673088
	C158	C	0.898118	0.618799	0.319553
	C159	C	0.127078	0.379859	0.318792
	C160	C	0.394950	0.676033	0.880545
	C161	C	0.630706	0.676524	0.111236
	C162	C	0.630194	0.325240	0.880829
	C163	C	0.393187	0.323098	0.111252
	C164	C	0.688321	0.884566	0.377171
	C165	C	0.688830	0.115283	0.614180
	C166	C	0.335906	0.884522	0.615353
	C167	C	0.336509	0.115407	0.376712
	C168	C	0.893024	0.384681	0.172577
	C169	C	0.131500	0.615239	0.172555
	C170	C	0.130870	0.384857	0.819696
	C171	C	0.894292	0.615911	0.820422
	C172	C	0.189869	0.880850	0.381570
	C173	C	0.189261	0.119474	0.610840
	C174	C	0.835328	0.119373	0.380925
	C175	C	0.835668	0.881199	0.610563
	C176	C	0.396838	0.175522	0.878162
	C177	C	0.627575	0.176593	0.114160
	C178	C	0.397394	0.823597	0.115125
	C179	C	0.628016	0.825243	0.878454
	C180	C	0.397870	0.880503	0.173494
	C181	C	0.627303	0.119951	0.172898
	C182	C	0.398005	0.120126	0.818369
	C183	C	0.627357	0.881961	0.820018
	C184	C	0.893888	0.176453	0.380537
	C185	C	0.130048	0.175984	0.611262
	C186	C	0.131023	0.824343	0.381091
	C187	C	0.894038	0.824190	0.610826
	C188	C	0.187722	0.384632	0.877766
	C189	C	0.188777	0.615357	0.114773
	C190	C	0.836127	0.384635	0.114651
	C191	C	0.838091	0.616243	0.878881
	C192	C	0.413736	0.094511	0.595380
	C193	C	0.612234	0.904618	0.596169
	C194	C	0.611829	0.094980	0.396996
	C195	C	0.413872	0.905459	0.397314
	C196	C	0.612012	0.401141	0.089986
	C197	C	0.613703	0.600644	0.901917
	C198	C	0.412484	0.598802	0.089465
	C199	C	0.412207	0.399910	0.902338
	C200	C	0.106930	0.599509	0.396140
	C201	C	0.917427	0.599836	0.595975
	C202	C	0.106666	0.401008	0.595461
	C203	C	0.918371	0.401055	0.396591
	C204	C	0.913521	0.594982	0.096523
	C205	C	0.111620	0.404846	0.095998
	C206	C	0.112297	0.595497	0.895718
	C207	C	0.912804	0.405167	0.895901
	C208	C	0.112271	0.900693	0.590018
	C209	C	0.112611	0.099149	0.402176
	C210	C	0.912023	0.099988	0.589830
	C211	C	0.911936	0.900502	0.401566
	C212	C	0.606790	0.100348	0.895593
	C213	C	0.418438	0.098892	0.096434
	C214	C	0.606855	0.900453	0.096068
	C215	C	0.417878	0.899890	0.895751
	Zn216	Zn	0.512600	0.000117	0.745979
	Zn217	Zn	0.512786	0.000228	0.246533
	Zn218	Zn	0.763592	0.500503	-0.003673
	Zn219	Zn	0.261455	0.500174	-0.004188
	Zn220	Zn	0.012735	0.749882	0.495814
	Zn221	Zn	0.012146	0.250531	0.495728
	Zn222	Zn	0.012081	0.500393	0.746023
	Zn223	Zn	0.012801	0.499580	0.245892
	Zn224	Zn	0.512446	0.750070	-0.004150
	Zn225	Zn	0.512246	0.249706	-0.004160
	Zn226	Zn	0.761566	-0.000209	0.495986
	Zn227	Zn	0.263498	0.000221	0.496195
	N228	N	0.427422	0.962357	0.674111
	N229	N	0.598190	0.037226	0.673864
	N230	N	0.598304	0.962987	0.317593
	N231	N	0.427763	0.037401	0.318217
	N232	N	0.691233	0.414914	0.959140
	N233	N	0.691759	0.586434	0.033646
	N234	N	0.333458	0.586143	0.958509
	N235	N	0.332679	0.413599	0.033237
	N236	N	0.975162	0.677815	0.410906
	N237	N	0.049658	0.677985	0.581299
	N238	N	0.974511	0.323023	0.580348
	N239	N	0.050023	0.322468	0.411086
	N240	N	0.975221	0.414478	0.674392
	N241	N	0.049069	0.586307	0.674708
	N242	N	0.975795	0.585754	0.317507
	N243	N	0.049615	0.413595	0.317113
	N244	N	0.428932	0.676890	0.957701
	N245	N	0.597674	0.678122	0.033677
	N246	N	0.596593	0.323261	0.958118
	N247	N	0.427012	0.321583	0.033890
	N248	N	0.689588	0.962347	0.411070
	N249	N	0.690477	0.037271	0.581063
	N250	N	0.334496	0.962642	0.581878
	N251	N	0.334787	0.037512	0.410279
	N252	N	0.926640	0.462637	0.174795
	N253	N	0.098084	0.537218	0.174262
	N254	N	0.097878	0.463018	0.817338
	N255	N	0.926728	0.537481	0.817709
	N256	N	0.192103	0.913912	0.459154
	N257	N	0.191739	0.086356	0.533171
	N258	N	0.832895	0.086450	0.458581
	N259	N	0.833466	0.914284	0.532891
	N260	N	0.474110	0.177086	0.911746
	N261	N	0.550060	0.177673	0.080690
	N262	N	0.474770	0.821975	0.081316
	N263	N	0.550351	0.823193	0.911758
	N264	N	0.475660	0.913878	0.175371
	N265	N	0.549769	0.086468	0.175060
	N266	N	0.476095	0.087689	0.815635
	N267	N	0.549482	0.914299	0.817306
	N268	N	0.927493	0.177955	0.457950
	N269	N	0.096733	0.177662	0.533741
	N270	N	0.097272	0.822694	0.458422
	N271	N	0.927678	0.822435	0.533545
	N272	N	0.189438	0.462590	0.911162
	N273	N	0.190385	0.537344	0.081546
	N274	N	0.835036	0.462667	0.081243
	N275	N	0.836040	0.538162	0.911911
	O276	O	-0.502450	0.493779	1.437040
	H277	H	-0.498833	0.489961	1.438041
	H278	H	-0.505624	0.490765	1.439699
	O279	O	0.492883	0.483890	0.493520
	H280	H	0.490211	0.495462	0.495314
	H281	H	0.496650	0.483914	0.495841
	O282	O	0.493370	0.442895	0.466711
	H283	H	0.493995	0.432970	0.466196
	H284	H	0.499535	0.442819	0.468448
	O285	O	0.462948	0.492402	0.527154
	H286	H	0.463599	0.499817	0.514134
	H287	H	0.457508	0.493434	0.530658
	O288	O	0.468872	0.457186	0.487162
	H289	H	0.459669	0.459073	0.477978
	H290	H	0.474539	0.457223	0.486268
	O291	O	-0.537024	1.453445	0.533345
	H292	H	-0.539280	1.452408	0.535640
	H293	H	-0.537095	1.455266	0.535613
	O294	O	0.428765	0.468600	0.469017
	H295	H	0.420910	0.472906	0.464070
	H296	H	0.427433	0.458475	0.474871
	O297	O	0.465836	-0.500916	0.483242
	H298	H	0.463446	-0.505622	0.485879
	H299	H	0.461283	-0.504427	0.480889
