data_Molecule from HDF5

_cell_length_a		16.502905
_cell_length_b		16.726939
_cell_length_c		16.534829
_cell_angle_alpha	90.036214
_cell_angle_beta	90.076688
_cell_angle_gamma	90.019114
_symmetry_space_group_name_H-M	'P 1'
_symmetry_Int_Tables_number		1

loop_
	_symmetry_equiv_pos_as_xyz
	x,y,z

loop_
	_atom_site_label
	_atom_site_type_symbol
	_atom_site_fract_x
	_atom_site_fract_y
	_atom_site_fract_z
	H0	H	0.383316	0.831710	0.710197
	H1	H	0.599888	0.138193	0.706755
	H2	H	0.600182	0.827853	0.261718
	H3	H	0.388976	0.137820	0.260989
	H4	H	0.714568	0.379822	0.828457
	H5	H	0.715875	0.590822	0.140569
	H6	H	0.272588	0.587363	0.828736
	H7	H	0.273931	0.379839	0.142601
	H8	H	0.837099	0.707347	0.376617
	H9	H	0.149136	0.707208	0.591138
	H10	H	0.836547	0.265791	0.586464
	H11	H	0.150355	0.263827	0.377719
	H12	H	0.834996	0.383953	0.700504
	H13	H	0.150782	0.589413	0.704125
	H14	H	0.836014	0.589767	0.262475
	H15	H	0.151077	0.381951	0.265285
	H16	H	0.386030	0.706018	0.829189
	H17	H	0.604213	0.710643	0.138077
	H18	H	0.601423	0.260784	0.829961
	H19	H	0.386308	0.260985	0.140322
	H20	H	0.716285	0.828001	0.378925
	H21	H	0.714730	0.138491	0.588792
	H22	H	0.267344	0.831566	0.591989
	H23	H	0.271294	0.137981	0.377270
	H24	H	0.887477	0.329517	0.206081
	H25	H	0.103103	0.638236	0.210855
	H26	H	0.096696	0.329330	0.764683
	H27	H	0.883356	0.637732	0.758101
	H28	H	0.216685	0.876862	0.328678
	H29	H	0.214517	0.088440	0.639693
	H30	H	0.774252	0.086217	0.326802
	H31	H	0.771504	0.878599	0.640902
	H32	H	0.339696	0.208303	0.875620
	H33	H	0.649462	0.206253	0.090821
	H34	H	0.339658	0.758919	0.092271
	H35	H	0.647138	0.756545	0.870312
	H36	H	0.339462	0.873532	0.209119
	H37	H	0.651552	0.088127	0.204363
	H38	H	0.339277	0.091781	0.759998
	H39	H	0.649163	0.877003	0.760194
	H40	H	0.887651	0.204758	0.327274
	H41	H	0.100540	0.206613	0.638703
	H42	H	0.103508	0.758164	0.329840
	H43	H	0.883865	0.759507	0.639502
	H44	H	0.213138	0.329155	0.882087
	H45	H	0.220020	0.638423	0.094831
	H46	H	0.770872	0.329992	0.089344
	H47	H	0.767771	0.638003	0.875425
	H48	H	0.401980	0.095710	0.573523
	H49	H	0.577573	0.874929	0.571175
	H50	H	0.582820	0.094022	0.392030
	H51	H	0.406560	0.874924	0.400690
	H52	H	0.577344	0.392871	0.096199
	H53	H	0.577866	0.577091	0.871303
	H54	H	0.406881	0.570251	0.096357
	H55	H	0.397580	0.395612	0.870946
	H56	H	0.103261	0.567422	0.396942
	H57	H	0.880283	0.568757	0.578540
	H58	H	0.109188	0.393395	0.577290
	H59	H	0.881968	0.398048	0.395350
	H60	H	0.107562	0.391295	0.572555
	H61	H	0.879376	0.580493	0.569662
	H62	H	0.105337	0.574447	0.397446
	H63	H	0.878888	0.392596	0.391490
	H64	H	0.411564	0.572291	0.095169
	H65	H	0.584601	0.569237	0.872138
	H66	H	0.584657	0.393400	0.098378
	H67	H	0.408625	0.399993	0.875714
	H68	H	0.582934	0.093784	0.394989
	H69	H	0.583821	0.872961	0.569096
	H70	H	0.409940	0.093068	0.574502
	H71	H	0.402154	0.871613	0.395626
	H72	H	0.910863	0.591300	0.066816
	H73	H	0.084544	0.372984	0.078674
	H74	H	0.079802	0.596199	0.890974
	H75	H	0.897716	0.371145	0.892263
	H76	H	0.078466	0.889266	0.596713
	H77	H	0.083324	0.070989	0.371222
	H78	H	0.900196	0.075700	0.598764
	H79	H	0.907456	0.895154	0.374651
	H80	H	0.607054	0.071314	0.893894
	H81	H	0.383617	0.068955	0.071454
	H82	H	0.603458	0.894291	0.064478
	H83	H	0.384204	0.899418	0.897505
	H84	H	0.603684	0.902653	0.071480
	H85	H	0.380512	0.073569	0.075805
	H86	H	0.605973	0.076563	0.898058
	H87	H	0.381024	0.894622	0.896372
	H88	H	0.906263	0.073417	0.594508
	H89	H	0.077603	0.073730	0.372091
	H90	H	0.085076	0.901969	0.595120
	H91	H	0.905966	0.893624	0.372437
	H92	H	0.080114	0.593820	0.898748
	H93	H	0.078331	0.376661	0.073359
	H94	H	0.901038	0.595893	0.069363
	H95	H	0.909795	0.374316	0.889317
	H96	H	0.406157	0.092258	0.566868
	H97	H	0.581497	0.872040	0.575640
	H98	H	0.584899	0.094538	0.393372
	H99	H	0.409106	0.873641	0.393519
	H100	H	0.581130	0.399045	0.094989
	H101	H	0.575561	0.568122	0.876818
	H102	H	0.407651	0.575324	0.097405
	H103	H	0.407236	0.388251	0.871085
	H104	H	0.102979	0.571209	0.403041
	H105	H	0.885137	0.568167	0.564426
	H106	H	0.105951	0.396808	0.573662
	H107	H	0.881121	0.391430	0.398280
	H108	H	0.909105	0.594708	0.077760
	H109	H	0.086577	0.374360	0.070337
	H110	H	0.086984	0.597740	0.895204
	H111	H	0.904746	0.377711	0.900401
	H112	H	0.071927	0.899941	0.589731
	H113	H	0.083014	0.077146	0.369205
	H114	H	0.905942	0.080080	0.598384
	H115	H	0.905441	0.896216	0.373178
	H116	H	0.603463	0.070291	0.899298
	H117	H	0.381473	0.075241	0.069277
	H118	H	0.607729	0.893215	0.074208
	H119	H	0.383764	0.894869	0.901492
	C120	C	0.371325	-0.007239	0.606018
	C121	C	0.614050	0.975534	0.604747
	C122	C	0.616255	-0.008407	0.361662
	C123	C	0.372942	0.975206	0.362878
	C124	C	0.614025	0.363079	-0.006702
	C125	C	0.614553	0.606039	0.975582
	C126	C	0.373970	0.604984	-0.006502
	C127	C	0.372161	0.362185	0.976048
	C128	C	0.001160	0.604666	0.364401
	C129	C	0.984655	0.605621	0.604673
	C130	C	0.002919	0.363266	0.605187
	C131	C	0.984587	0.362957	0.362772
	C132	C	0.873039	0.492559	0.104759
	C133	C	0.116717	0.476539	0.107852
	C134	C	0.114402	0.493370	0.863703
	C135	C	0.870562	0.476182	0.861114
	C136	C	0.113594	0.863045	0.492040
	C137	C	0.114423	0.105950	0.474415
	C138	C	0.872291	0.106277	0.492933
	C139	C	0.872600	0.862561	0.476446
	C140	C	0.502453	0.105524	0.863247
	C141	C	0.485327	0.104658	0.104893
	C142	C	0.502550	0.862367	0.104674
	C143	C	0.485248	0.862480	0.863105
	C144	C	0.366050	0.877764	0.668777
	C145	C	0.617347	0.091816	0.665631
	C146	C	0.618501	0.874683	0.301838
	C147	C	0.370142	0.091416	0.301519
	C148	C	0.674420	0.361377	0.875492
	C149	C	0.676364	0.609560	0.093068
	C150	C	0.312295	0.606652	0.875848
	C151	C	0.312860	0.360554	0.094632
	C152	C	0.883716	0.666144	0.359848
	C153	C	0.101971	0.667012	0.608773
	C154	C	0.883846	0.305085	0.605727
	C155	C	0.103031	0.303952	0.360268
	C156	C	0.883253	0.363833	0.662296
	C157	C	0.102906	0.608342	0.665140
	C158	C	0.883207	0.607729	0.303085
	C159	C	0.103386	0.362799	0.304138
	C160	C	0.368941	0.665348	0.875965
	C161	C	0.620684	0.669174	0.091822
	C162	C	0.618322	0.302157	0.876088
	C163	C	0.368835	0.301427	0.093521
	C164	C	0.676240	0.874676	0.360297
	C165	C	0.674992	0.091953	0.607464
	C166	C	0.308364	0.877556	0.610159
	C167	C	0.311770	0.091688	0.359225
	C168	C	0.869729	0.376274	0.165702
	C169	C	0.120398	0.592189	0.169600
	C170	C	0.115683	0.376153	0.804367
	C171	C	0.866234	0.591747	0.799222
	C172	C	0.175972	0.858922	0.375369
	C173	C	0.174757	0.107449	0.592419
	C174	C	0.813488	0.105813	0.374212
	C175	C	0.811361	0.860250	0.593988
	C176	C	0.385963	0.167199	0.858421
	C177	C	0.602799	0.165502	0.108383
	C178	C	0.386207	0.799758	0.109782
	C179	C	0.600987	0.798649	0.855239
	C180	C	0.386064	0.857110	0.167583
	C181	C	0.603699	0.106502	0.164669
	C182	C	0.385845	0.109156	0.801104
	C183	C	0.602039	0.858397	0.800214
	C184	C	0.869791	0.164904	0.374485
	C185	C	0.118013	0.166092	0.592173
	C186	C	0.119737	0.799846	0.376164
	C187	C	0.867407	0.800915	0.593050
	C188	C	0.173367	0.376241	0.862873
	C189	C	0.179003	0.592188	0.112093
	C190	C	0.811883	0.376099	0.107569
	C191	C	0.808799	0.591866	0.857860
	C192	C	0.398490	0.072810	0.579329
	C193	C	0.588302	0.894532	0.579202
	C194	C	0.590851	0.072948	0.386420
	C195	C	0.398528	0.894448	0.389073
	C196	C	0.588120	0.387946	0.075227
	C197	C	0.587193	0.579352	0.894527
	C198	C	0.400908	0.579704	0.075085
	C199	C	0.397350	0.387528	0.894069
	C200	C	0.082577	0.578563	0.391295
	C201	C	0.902829	0.579762	0.578574
	C202	C	0.085840	0.386833	0.581293
	C203	C	0.902013	0.387039	0.387891
	C204	C	0.899491	0.573143	0.078643
	C205	C	0.090575	0.395613	0.081496
	C206	C	0.089456	0.574781	0.888020
	C207	C	0.896489	0.395460	0.886742
	C208	C	0.086326	0.889688	0.572682
	C209	C	0.088547	0.081179	0.392235
	C210	C	0.897054	0.082971	0.575638
	C211	C	0.898684	0.887873	0.394782
	C212	C	0.584184	0.080005	0.889644
	C213	C	0.403188	0.079654	0.079451
	C214	C	0.583653	0.889178	0.077559
	C215	C	0.404274	0.888934	0.890507
	Zn216	Zn	0.494058	-0.016316	0.735074
	Zn217	Zn	0.494068	-0.017015	0.232870
	Zn218	Zn	0.742459	0.484740	-0.015370
	Zn219	Zn	0.244800	0.484641	-0.014305
	Zn220	Zn	-0.007057	0.733965	0.484005
	Zn221	Zn	-0.006277	0.234560	0.483439
	Zn222	Zn	-0.006474	0.485282	0.733038
	Zn223	Zn	-0.007015	0.485098	0.235141
	Zn224	Zn	0.494125	0.734032	-0.016622
	Zn225	Zn	0.493648	0.233957	-0.015539
	Zn226	Zn	0.744506	-0.016457	0.484401
	Zn227	Zn	0.242327	-0.015725	0.483188
	N228	N	0.404392	0.950427	0.666508
	N229	N	0.580470	0.018305	0.664331
	N230	N	0.581800	0.948416	0.302571
	N231	N	0.407451	0.017971	0.303582
	N232	N	0.672000	0.398597	0.949382
	N233	N	0.672706	0.570969	0.019660
	N234	N	0.315271	0.569842	0.950064
	N235	N	0.314291	0.397427	0.020484
	N236	N	0.958129	0.664628	0.397035
	N237	N	0.027302	0.665633	0.572137
	N238	N	0.959486	0.304026	0.571291
	N239	N	0.028002	0.303892	0.396019
	N240	N	0.958316	0.399238	0.662307
	N241	N	0.028786	0.570980	0.662881
	N242	N	0.957271	0.570263	0.305651
	N243	N	0.028575	0.398685	0.305298
	N244	N	0.406356	0.664522	0.950160
	N245	N	0.583159	0.667065	0.017685
	N246	N	0.581351	0.303117	0.950394
	N247	N	0.404821	0.301950	0.018531
	N248	N	0.675207	0.948520	0.396537
	N249	N	0.673166	0.018588	0.570294
	N250	N	0.311409	0.950285	0.571843
	N251	N	0.313220	0.018381	0.396550
	N252	N	0.906968	0.449726	0.164095
	N253	N	0.082394	0.519185	0.167109
	N254	N	0.079607	0.450195	0.804412
	N255	N	0.903975	0.518712	0.801024
	N256	N	0.172385	0.897642	0.448426
	N257	N	0.172714	0.070724	0.518153
	N258	N	0.814461	0.070239	0.448970
	N259	N	0.814389	0.897996	0.520214
	N260	N	0.459577	0.164947	0.896541
	N261	N	0.528089	0.164437	0.071754
	N262	N	0.459652	0.803023	0.071063
	N263	N	0.527265	0.800956	0.893694
	N264	N	0.459502	0.895540	0.164441
	N265	N	0.529594	0.069245	0.162644
	N266	N	0.459514	0.071401	0.804057
	N267	N	0.529158	0.897724	0.804942
	N268	N	0.905530	0.165514	0.449510
	N269	N	0.081474	0.165450	0.517633
	N270	N	0.081512	0.802312	0.449763
	N271	N	0.904726	0.802412	0.519037
	N272	N	0.173060	0.450238	0.898716
	N273	N	0.176540	0.519126	0.074125
	N274	N	0.813715	0.449475	0.070273
	N275	N	0.811416	0.519001	0.895736
	O276	O	0.651869	0.489151	-0.733011
	H277	H	0.657611	0.483290	-0.728083
	H278	H	0.648470	0.481141	-0.746050
	O279	O	0.506969	0.279478	0.268534
	H280	H	0.504234	0.265559	0.271854
	H281	H	0.503500	0.281510	0.269768
	O282	O	0.125137	0.856155	1.104964
	H283	H	0.135795	0.841349	1.111999
	H284	H	0.142182	0.873180	1.102091
	O285	O	1.128540	0.031947	1.062010
	H286	H	1.123164	0.019458	1.071612
	H287	H	1.133864	0.032891	1.075236
	O288	O	-0.034676	1.129439	0.946677
	H289	H	-0.047432	1.142008	0.950467
	H290	H	-0.037342	1.124442	0.965296
	O291	O	0.701973	0.523907	0.695034
	H292	H	0.681782	0.501196	0.699902
	H293	H	0.727653	0.507748	0.706708
	O294	O	0.920339	-0.068925	0.770862
	H295	H	0.929331	-0.063910	0.773450
	H296	H	0.913566	-0.096521	0.771886
	O297	O	0.703291	0.706330	0.511001
	H298	H	0.711808	0.709420	0.539148
	H299	H	0.716664	0.714827	0.525792
	O300	O	0.145366	-0.020135	0.885206
	H301	H	0.138771	-0.030464	0.909423
	H302	H	0.135733	-0.014187	0.901167
	O303	O	0.284577	0.275477	0.689842
	H304	H	0.252508	0.244114	0.723900
	H305	H	0.288582	0.302141	0.682538
	O306	O	0.962038	0.768047	0.198751
	H307	H	0.989011	0.774848	0.192535
	H308	H	0.971598	0.756016	0.216004
	O309	O	0.500599	0.600616	0.427205
	H310	H	0.502846	0.617520	0.429130
	H311	H	0.501319	0.603402	0.433068
	O312	O	1.019184	0.761768	0.764291
	H313	H	1.015811	0.745186	0.755488
	H314	H	1.021852	0.764071	0.763237
	O315	O	0.889359	0.014101	0.083263
	H316	H	0.879263	-0.001374	0.091936
	H317	H	0.882034	0.022182	0.073835
	O318	O	0.593658	0.516307	0.469390
	H319	H	0.599411	0.519681	0.460607
	H320	H	0.608250	0.514920	0.455970
	O321	O	-0.204011	0.786167	1.180352
	H322	H	-0.170857	0.785291	1.172468
	H323	H	-0.193480	0.772917	1.161425
	O324	O	1.409796	1.496076	0.550028
	H325	H	1.403687	1.505290	0.537178
	H326	H	1.421723	1.498209	0.547011
	O327	O	0.121674	0.207396	0.972838
	H328	H	0.129940	0.217138	0.969871
	H329	H	0.124669	0.211897	0.991126
	O330	O	0.422864	0.688600	0.492373
	H331	H	0.423505	0.691641	0.493188
	H332	H	0.412108	0.695482	0.506858
	O333	O	0.472010	0.702323	0.472268
	H334	H	0.484445	0.694256	0.485704
	H335	H	0.476287	0.700349	0.493915
	O336	O	1.193454	0.029478	0.201000
	H337	H	1.198177	0.048183	0.203942
	H338	H	1.201533	0.045138	0.210183
	O339	O	1.880742	0.218904	0.088303
	H340	H	1.894987	0.205612	0.085543
	H341	H	1.859254	0.219777	0.105877
	O342	O	0.666388	0.286861	0.459578
	H343	H	0.652567	0.302378	0.468410
	H344	H	0.689849	0.267120	0.464334
	O345	O	0.602331	1.371040	1.543190
	H346	H	0.587173	1.391395	1.548687
	H347	H	0.608782	1.363464	1.547211
	O348	O	0.679771	0.299795	0.672376
	H349	H	0.674160	0.306056	0.659017
	H350	H	0.688868	0.277319	0.691028
	O351	O	0.200100	0.774611	0.783286
	H352	H	0.207189	0.784463	0.811720
	H353	H	0.162829	0.791581	0.776314
	O354	O	0.039119	-0.070603	0.916288
	H355	H	0.023451	-0.064237	0.920254
	H356	H	0.051037	-0.060765	0.931062
	O357	O	0.661533	0.471246	0.368586
	H358	H	0.659604	0.457679	0.353176
	H359	H	0.678280	0.493928	0.363116
	O360	O	0.499313	0.461397	0.550317
	H361	H	0.503255	0.451398	0.547769
	H362	H	0.501400	0.474025	0.545630
	O363	O	-0.317818	-0.317781	-0.328128
	H364	H	-0.348279	-0.332600	-0.323071
	H365	H	-0.326971	-0.345661	-0.324725
	O366	O	0.315189	0.704746	0.393588
	H367	H	0.312444	0.708271	0.402449
	H368	H	0.327831	0.710824	0.381845
	O369	O	1.068691	-0.071470	0.213933
	H370	H	1.094474	-0.080275	0.215573
	H371	H	1.080587	-0.058035	0.210931
	O372	O	1.210688	0.761185	-0.041695
	H373	H	1.186576	0.760010	-0.044318
	H374	H	1.241024	0.739938	-0.040777
	O375	O	0.851974	-0.163188	-0.156800
	H376	H	0.832664	-0.167441	-0.164073
	H377	H	0.860319	-0.174941	-0.141630
	O378	O	0.277641	0.264132	0.512242
	H379	H	0.267589	0.266049	0.530618
	H380	H	0.266199	0.250354	0.524849
	O381	O	-0.699979	0.422504	0.517077
	H382	H	-0.700819	0.407606	0.534533
	H383	H	-0.694051	0.409720	0.513945
	O384	O	0.813366	0.118120	1.131666
	H385	H	0.795850	0.109458	1.135378
	H386	H	0.818071	0.113596	1.136892
	O387	O	0.774911	1.017917	-0.226723
	H388	H	0.772868	1.011570	-0.252561
	H389	H	0.779334	1.037107	-0.236861
	O390	O	0.502720	0.267875	0.472328
	H391	H	0.508366	0.270359	0.495015
	H392	H	0.490018	0.262639	0.473516
	O393	O	0.782648	0.199046	0.773931
	H394	H	0.775079	0.186355	0.794148
	H395	H	0.821500	0.202057	0.783342
	O396	O	-0.048380	1.203595	0.762614
	H397	H	-0.046886	1.208087	0.754633
	H398	H	-0.034839	1.204967	0.748173
	O399	O	-0.174855	0.203916	0.978502
	H400	H	-0.171964	0.210209	0.986683
	H401	H	-0.177213	0.210125	0.987464
	O402	O	1.042952	1.061494	-0.239161
	H403	H	1.033777	1.054177	-0.247642
	H404	H	1.040990	1.045662	-0.219256
	O405	O	1.219642	0.130247	0.971822
	H406	H	1.218864	0.124783	0.980647
	H407	H	1.234815	0.149131	0.972862
	O408	O	-0.000434	0.056727	-0.044404
	H409	H	-0.002006	0.059701	-0.037745
	H410	H	0.000841	0.057295	-0.046378
	O411	O	0.943374	0.745828	0.923967
	H412	H	0.946628	0.749260	0.929181
	H413	H	0.928748	0.745652	0.919251
	O414	O	0.673675	0.279319	0.276006
	H415	H	0.664441	0.269658	0.303966
	H416	H	0.657351	0.299866	0.271477
	O417	O	0.630868	-0.474697	1.430139
	H418	H	0.634249	-0.490896	1.443924
	H419	H	0.639467	-0.453357	1.442328
	O420	O	-0.224884	0.948139	1.200621
	H421	H	-0.229418	0.916228	1.198383
	H422	H	-0.241883	0.935076	1.216140
	O423	O	0.200932	0.192890	1.190142
	H424	H	0.228522	0.219439	1.219253
	H425	H	0.167751	0.197937	1.183857
	O426	O	0.208127	0.961904	0.773258
	H427	H	0.212476	0.966561	0.782544
	H428	H	0.221577	0.951338	0.757365
	O429	O	0.561340	0.607316	1.321038
	H430	H	0.578862	0.614961	1.324823
	H431	H	0.567583	0.609693	1.326366
	O432	O	-0.181502	0.908354	-0.023943
	H433	H	-0.190452	0.920673	-0.034497
	H434	H	-0.178695	0.911887	-0.019826
	O435	O	-0.229260	1.032980	-0.034545
	H436	H	-0.216765	1.030891	-0.034516
	H437	H	-0.224521	1.035011	-0.036389
	O438	O	0.465288	0.266285	-0.296349
	H439	H	0.446687	0.246179	-0.279638
	H440	H	0.447813	0.256364	-0.299477
	O441	O	0.043875	-0.248908	0.047656
	H442	H	0.034354	-0.253496	0.041036
	H443	H	0.054608	-0.232943	0.048685
	O444	O	0.513159	0.694865	0.690527
	H445	H	0.503717	0.694946	0.696769
	H446	H	0.504123	0.690388	0.704165
	O447	O	-0.456910	1.423259	1.708675
	H448	H	-0.462060	1.400005	1.705205
	H449	H	-0.461043	1.411656	1.709386
	O450	O	0.466833	0.693621	1.271574
	H451	H	0.477960	0.703662	1.289884
	H452	H	0.470379	0.704871	1.260110
	O453	O	0.423472	0.375561	0.342809
	H454	H	0.429848	0.379453	0.355754
	H455	H	0.417385	0.364609	0.347822
	O456	O	0.212494	-0.111781	1.074547
	H457	H	0.210806	-0.102101	1.063743
	H458	H	0.225869	-0.117704	1.078965
	O459	O	1.185421	1.177140	-0.207058
	H460	H	1.177485	1.152832	-0.186719
	H461	H	1.156405	1.163112	-0.191900
	O462	O	0.329314	0.472411	0.705548
	H463	H	0.311051	0.474049	0.710773
	H464	H	0.328332	0.477156	0.700365
	O465	O	0.963846	0.031284	0.206292
	H466	H	0.978837	0.025293	0.206327
	H467	H	0.939885	0.015136	0.208440
	O468	O	0.293350	0.616478	0.283859
	H469	H	0.287963	0.593018	0.284106
	H470	H	0.310912	0.631432	0.283220
	O471	O	-0.224002	0.764932	0.004977
	H472	H	-0.243865	0.774490	-0.001515
	H473	H	-0.234740	0.757780	0.009200
	O474	O	0.288485	0.598200	0.580035
	H475	H	0.271328	0.621188	0.589015
	H476	H	0.307359	0.585787	0.560740
	O477	O	0.564337	0.410800	1.389196
	H478	H	0.557826	0.404064	1.396803
	H479	H	0.578990	0.424365	1.375120
	O480	O	0.283123	0.486254	0.341199
	H481	H	0.284600	0.491784	0.323158
	H482	H	0.285390	0.480929	0.343667
	O483	O	0.428573	0.564251	0.641687
	H484	H	0.419155	0.555211	0.647388
	H485	H	0.434548	0.551646	0.645074
	O486	O	0.310999	0.295814	1.308032
	H487	H	0.326086	0.317067	1.323356
	H488	H	0.330312	0.303720	1.332283
	O489	O	1.003925	1.202534	0.198685
	H490	H	1.005965	1.212691	0.213345
	H491	H	0.997164	1.187542	0.203094
