data_Molecule from HDF5

_cell_length_a		16.390853
_cell_length_b		16.205625
_cell_length_c		16.097896
_cell_angle_alpha	90.309506
_cell_angle_beta	89.712407
_cell_angle_gamma	90.290815
_symmetry_space_group_name_H-M	'P 1'
_symmetry_Int_Tables_number		1

loop_
	_symmetry_equiv_pos_as_xyz
	x,y,z

loop_
	_atom_site_label
	_atom_site_type_symbol
	_atom_site_fract_x
	_atom_site_fract_y
	_atom_site_fract_z
	H0	H	0.406871	0.837099	0.704570
	H1	H	0.602759	0.167009	0.706462
	H2	H	0.602109	0.837631	0.278697
	H3	H	0.411803	0.167942	0.282647
	H4	H	0.721599	0.401276	0.827391
	H5	H	0.721209	0.602690	0.156648
	H6	H	0.291892	0.601785	0.828638
	H7	H	0.289616	0.401554	0.157126
	H8	H	0.842132	0.714929	0.395163
	H9	H	0.167546	0.722415	0.591461
	H10	H	0.843715	0.287356	0.591541
	H11	H	0.168785	0.288383	0.391848
	H12	H	0.842572	0.405996	0.705258
	H13	H	0.168623	0.605166	0.707783
	H14	H	0.842339	0.597624	0.280485
	H15	H	0.169198	0.405226	0.277118
	H16	H	0.411944	0.712606	0.826701
	H17	H	0.604087	0.716065	0.157976
	H18	H	0.603951	0.288672	0.826851
	H19	H	0.408297	0.290410	0.159425
	H20	H	0.721353	0.837989	0.390628
	H21	H	0.722715	0.165622	0.594664
	H22	H	0.286556	0.840092	0.593428
	H23	H	0.292270	0.167064	0.393359
	H24	H	0.909309	0.336660	0.203172
	H25	H	0.102567	0.667294	0.205489
	H26	H	0.102469	0.338272	0.777493
	H27	H	0.911361	0.668235	0.782488
	H28	H	0.221109	0.902495	0.328033
	H29	H	0.220675	0.106313	0.657021
	H30	H	0.793379	0.099830	0.327185
	H31	H	0.789390	0.902307	0.657383
	H32	H	0.343879	0.216773	0.894456
	H33	H	0.669671	0.218650	0.091201
	H34	H	0.344270	0.784492	0.093679
	H35	H	0.669289	0.787840	0.892290
	H36	H	0.342645	0.906026	0.206059
	H37	H	0.669687	0.100916	0.206354
	H38	H	0.342608	0.098750	0.781053
	H39	H	0.668556	0.903881	0.776197
	H40	H	0.910657	0.213801	0.326164
	H41	H	0.103216	0.218387	0.657823
	H42	H	0.101634	0.791741	0.326114
	H43	H	0.906168	0.790490	0.657963
	H44	H	0.220378	0.338180	0.890252
	H45	H	0.222157	0.665344	0.094537
	H46	H	0.789803	0.338091	0.091281
	H47	H	0.790700	0.665913	0.892452
	H48	H	0.408956	0.121805	0.589970
	H49	H	0.599488	0.885870	0.579915
	H50	H	0.600461	0.120109	0.397574
	H51	H	0.410413	0.883764	0.397150
	H52	H	0.593394	0.412656	0.108233
	H53	H	0.602353	0.595894	0.872920
	H54	H	0.415776	0.585495	0.107924
	H55	H	0.412990	0.409799	0.875087
	H56	H	0.118782	0.592314	0.403369
	H57	H	0.888113	0.605730	0.584121
	H58	H	0.122644	0.409973	0.584229
	H59	H	0.895298	0.419774	0.408066
	H60	H	0.121704	0.411579	0.583921
	H61	H	0.894113	0.590121	0.581912
	H62	H	0.123971	0.596622	0.390934
	H63	H	0.886509	0.409978	0.383822
	H64	H	0.419675	0.599784	0.110650
	H65	H	0.601758	0.591600	0.874524
	H66	H	0.600545	0.404059	0.113768
	H67	H	0.414820	0.407452	0.874974
	H68	H	0.599337	0.118108	0.404138
	H69	H	0.600711	0.883032	0.585973
	H70	H	0.417033	0.119247	0.587667
	H71	H	0.414945	0.886701	0.401611
	H72	H	0.902740	0.621523	0.082153
	H73	H	0.103021	0.381921	0.087226
	H74	H	0.098631	0.615952	0.910101
	H75	H	0.911995	0.385820	0.900055
	H76	H	0.095002	0.914673	0.609959
	H77	H	0.110411	0.088939	0.372417
	H78	H	0.918634	0.090767	0.606777
	H79	H	0.916590	0.917304	0.377682
	H80	H	0.621626	0.096356	0.903289
	H81	H	0.387704	0.104980	0.088603
	H82	H	0.624303	0.905357	0.088974
	H83	H	0.390232	0.905959	0.900508
	H84	H	0.621215	0.907739	0.080088
	H85	H	0.393968	0.093314	0.079818
	H86	H	0.621823	0.092826	0.898589
	H87	H	0.390216	0.906356	0.900407
	H88	H	0.913457	0.104461	0.612567
	H89	H	0.091263	0.090216	0.378545
	H90	H	0.096513	0.911825	0.611026
	H91	H	0.916648	0.900637	0.372563
	H92	H	0.110503	0.622616	0.901293
	H93	H	0.093686	0.384864	0.086176
	H94	H	0.914793	0.621968	0.095456
	H95	H	0.911269	0.385150	0.898701
	H96	H	0.411398	0.118628	0.582010
	H97	H	0.594480	0.886315	0.584663
	H98	H	0.605569	0.121279	0.402078
	H99	H	0.407421	0.885594	0.403382
	H100	H	0.605325	0.415506	0.110648
	H101	H	0.597923	0.594583	0.874146
	H102	H	0.405958	0.594447	0.113133
	H103	H	0.411843	0.407024	0.874093
	H104	H	0.123008	0.605692	0.402632
	H105	H	0.887357	0.594593	0.597156
	H106	H	0.121976	0.410952	0.586263
	H107	H	0.887755	0.392766	0.405748
	H108	H	0.920461	0.615467	0.079453
	H109	H	0.100112	0.385907	0.079071
	H110	H	0.095324	0.620303	0.894001
	H111	H	0.912766	0.384839	0.898868
	H112	H	0.098653	0.915704	0.609972
	H113	H	0.100207	0.106556	0.371048
	H114	H	0.904713	0.091965	0.612468
	H115	H	0.902369	0.909516	0.371435
	H116	H	0.623195	0.099037	0.897514
	H117	H	0.390136	0.091913	0.094828
	H118	H	0.621257	0.913915	0.087039
	H119	H	0.390476	0.905661	0.899727
	C120	C	0.383069	0.011259	0.614834
	C121	C	0.627162	0.993645	0.613621
	C122	C	0.628775	0.010991	0.371780
	C123	C	0.384295	0.994286	0.372331
	C124	C	0.627669	0.381484	0.001311
	C125	C	0.628178	0.623182	0.983324
	C126	C	0.385866	0.622166	0.001454
	C127	C	0.384779	0.380205	0.984385
	C128	C	0.014139	0.624544	0.371306
	C129	C	0.997110	0.626618	0.615711
	C130	C	0.014284	0.381789	0.613743
	C131	C	0.997680	0.379992	0.370123
	C132	C	0.884276	0.510646	0.113580
	C133	C	0.127460	0.493240	0.113813
	C134	C	0.128614	0.511149	0.871066
	C135	C	0.884574	0.494065	0.871125
	C136	C	0.125708	0.883685	0.501076
	C137	C	0.128133	0.125262	0.483532
	C138	C	0.885033	0.123591	0.501160
	C139	C	0.883290	0.880871	0.483403
	C140	C	0.514567	0.123760	0.871787
	C141	C	0.498276	0.125315	0.115787
	C142	C	0.514893	0.880269	0.114588
	C143	C	0.497644	0.878520	0.870245
	C144	C	0.385649	0.886966	0.668292
	C145	C	0.623752	0.117832	0.668692
	C146	C	0.623855	0.886677	0.316377
	C147	C	0.389639	0.118741	0.318954
	C148	C	0.683048	0.382225	0.876730
	C149	C	0.683083	0.622591	0.107764
	C150	C	0.330384	0.620921	0.877570
	C151	C	0.328725	0.382340	0.108285
	C152	C	0.890965	0.677642	0.374593
	C153	C	0.119248	0.683849	0.612557
	C154	C	0.892036	0.326013	0.611430
	C155	C	0.120179	0.325569	0.371406
	C156	C	0.891497	0.385184	0.667928
	C157	C	0.119871	0.625513	0.670050
	C158	C	0.891110	0.619573	0.317276
	C159	C	0.120322	0.383752	0.314408
	C160	C	0.389791	0.676208	0.876605
	C161	C	0.624904	0.678727	0.108298
	C162	C	0.624804	0.326065	0.876495
	C163	C	0.387631	0.327103	0.109350
	C164	C	0.683221	0.887039	0.371621
	C165	C	0.683753	0.116864	0.613535
	C166	C	0.325497	0.888688	0.613397
	C167	C	0.330117	0.118045	0.373877
	C168	C	0.887931	0.386171	0.166599
	C169	C	0.123919	0.617660	0.168521
	C170	C	0.124246	0.387534	0.814829
	C171	C	0.889202	0.618578	0.818216
	C172	C	0.182029	0.883763	0.376856
	C173	C	0.182738	0.125238	0.607740
	C174	C	0.830977	0.120427	0.376450
	C175	C	0.827599	0.882712	0.608097
	C176	C	0.392252	0.178477	0.874580
	C177	C	0.620811	0.180730	0.112302
	C178	C	0.392641	0.823519	0.113585
	C179	C	0.620523	0.825170	0.871845
	C180	C	0.391835	0.883650	0.169569
	C181	C	0.620955	0.122156	0.169434
	C182	C	0.391640	0.119898	0.817897
	C183	C	0.620083	0.883053	0.814303
	C184	C	0.889334	0.176940	0.376010
	C185	C	0.124449	0.181026	0.608143
	C186	C	0.122807	0.828443	0.376065
	C187	C	0.885629	0.826873	0.608365
	C188	C	0.182890	0.387425	0.870912
	C189	C	0.183397	0.616526	0.113300
	C190	C	0.828392	0.387115	0.111201
	C191	C	0.829695	0.617509	0.873196
	C192	C	0.405915	0.097611	0.593062
	C193	C	0.604951	0.907344	0.590364
	C194	C	0.607857	0.097369	0.394442
	C195	C	0.404674	0.907776	0.394179
	C196	C	0.606032	0.404083	0.088315
	C197	C	0.607006	0.600550	0.896271
	C198	C	0.407513	0.599746	0.088279
	C199	C	0.406720	0.401647	0.896959
	C200	C	0.099754	0.604363	0.392606
	C201	C	0.912063	0.603597	0.594212
	C202	C	0.100083	0.404273	0.591370
	C203	C	0.911956	0.401178	0.392571
	C204	C	0.906100	0.597277	0.091846
	C205	C	0.105483	0.406532	0.091030
	C206	C	0.107630	0.597461	0.894899
	C207	C	0.905769	0.407613	0.892828
	C208	C	0.103202	0.907050	0.587917
	C209	C	0.106807	0.102023	0.396486
	C210	C	0.905908	0.101988	0.588115
	C211	C	0.905447	0.902796	0.396519
	C212	C	0.600030	0.102207	0.893170
	C213	C	0.412646	0.103228	0.094222
	C214	C	0.600110	0.902433	0.092082
	C215	C	0.412282	0.899639	0.893444
	Zn216	Zn	0.505570	0.002021	0.742396
	Zn217	Zn	0.506287	0.002864	0.244704
	Zn218	Zn	0.755763	0.502175	-0.007944
	Zn219	Zn	0.256719	0.501039	-0.007184
	Zn220	Zn	0.004971	0.754896	0.491975
	Zn221	Zn	0.006798	0.251777	0.492070
	Zn222	Zn	0.006524	0.503542	0.743213
	Zn223	Zn	0.005893	0.502226	0.241991
	Zn224	Zn	0.507104	0.750391	-0.007394
	Zn225	Zn	0.506479	0.253732	-0.006970
	Zn226	Zn	0.756482	0.001809	0.492644
	Zn227	Zn	0.254976	0.003945	0.492738
	N228	N	0.420493	0.964446	0.669518
	N229	N	0.589180	0.040241	0.668836
	N230	N	0.590867	0.964632	0.315909
	N231	N	0.422754	0.040769	0.317975
	N232	N	0.685065	0.415803	0.955358
	N233	N	0.685475	0.588891	0.029117
	N234	N	0.327763	0.588038	0.956291
	N235	N	0.326965	0.414689	0.029420
	N236	N	0.968384	0.681186	0.407238
	N237	N	0.042061	0.684784	0.579371
	N238	N	0.969586	0.323992	0.578250
	N239	N	0.043057	0.323364	0.405512
	N240	N	0.968558	0.419256	0.669263
	N241	N	0.043228	0.590597	0.672025
	N242	N	0.968551	0.587249	0.315055
	N243	N	0.043091	0.416799	0.313439
	N244	N	0.423456	0.677124	0.954674
	N245	N	0.591541	0.679008	0.029968
	N246	N	0.591087	0.325623	0.954880
	N247	N	0.421991	0.325902	0.031108
	N248	N	0.686295	0.965276	0.405329
	N249	N	0.685702	0.038652	0.579836
	N250	N	0.323611	0.967062	0.581073
	N251	N	0.326660	0.039704	0.406480
	N252	N	0.921848	0.464057	0.168650
	N253	N	0.089836	0.539860	0.168960
	N254	N	0.091288	0.465522	0.814623
	N255	N	0.922797	0.540970	0.816992
	N256	N	0.184061	0.917381	0.455544
	N257	N	0.185332	0.091429	0.529123
	N258	N	0.828082	0.087936	0.455211
	N259	N	0.825878	0.915290	0.529462
	N260	N	0.469575	0.181015	0.907258
	N261	N	0.543395	0.182706	0.079806
	N262	N	0.470026	0.821413	0.080088
	N263	N	0.543554	0.822495	0.906049
	N264	N	0.468723	0.918315	0.170536
	N265	N	0.543748	0.088338	0.171778
	N266	N	0.468672	0.086419	0.816098
	N267	N	0.542515	0.915417	0.812975
	N268	N	0.922290	0.179071	0.454517
	N269	N	0.091408	0.181084	0.529756
	N270	N	0.088503	0.828342	0.454313
	N271	N	0.919795	0.825730	0.529969
	N272	N	0.185963	0.465372	0.905050
	N273	N	0.185712	0.538030	0.080032
	N274	N	0.826205	0.465531	0.078944
	N275	N	0.826402	0.539088	0.905233
	O276	O	1.085764	0.975131	-0.065070
	H277	H	1.092735	0.969566	-0.067596
	H278	H	1.078456	0.983159	-0.064479
	O279	O	0.501364	-0.524902	1.520395
	H280	H	0.496655	-0.528554	1.505702
	H281	H	0.507405	-0.521328	1.518623
	O282	O	0.034821	-0.023010	-0.006722
	H283	H	0.033999	-0.014732	-0.004847
	H284	H	0.034350	-0.022325	-0.002910
	O285	O	0.532679	0.568803	0.534032
	H286	H	0.533150	0.570198	0.539143
	H287	H	0.529642	0.574029	0.529543
	O288	O	0.037978	0.028877	-0.075704
	H289	H	0.044426	0.024355	-0.083730
	H290	H	0.043307	0.014908	-0.080649
	O291	O	-0.593989	0.477375	0.489203
	H292	H	-0.602279	0.480398	0.491982
	H293	H	-0.588518	0.467073	0.487474
	O294	O	0.053121	0.985576	-0.074348
	H295	H	0.057149	0.984415	-0.075729
	H296	H	0.058283	0.985692	-0.053421
	O297	O	0.533176	0.514563	0.515588
	H298	H	0.529484	0.521293	0.517183
	H299	H	0.526491	0.516385	0.527199
	O300	O	0.518207	0.496087	0.504174
	H301	H	0.525376	0.489530	0.504387
	H302	H	0.514072	0.498085	0.502092
	O303	O	0.949470	0.011132	1.003381
	H304	H	0.950515	0.000862	0.995356
	H305	H	0.955391	0.013750	0.996624
	O306	O	0.042518	1.049309	0.989993
	H307	H	0.050640	1.058082	0.985978
	H308	H	0.029867	1.049425	0.987950
	O309	O	-0.036327	0.952980	1.005634
	H310	H	-0.044262	0.953948	1.008075
	H311	H	-0.042467	0.946127	1.004454
	O312	O	0.014699	-0.073710	0.937255
	H313	H	0.007926	-0.070583	0.939546
	H314	H	0.017518	-0.082288	0.939431
	O315	O	0.487760	0.521885	0.509128
	H316	H	0.482002	0.515706	0.512938
	H317	H	0.479980	0.521017	0.507717
	O318	O	-0.052599	0.002485	0.959091
	H319	H	-0.067935	0.003211	0.957878
	H320	H	-0.045464	0.003136	0.960718
	O321	O	0.091691	0.948658	-0.070282
	H322	H	0.099182	0.942328	-0.078554
	H323	H	0.094328	0.941755	-0.069478
	O324	O	1.026146	-0.005510	1.035384
	H325	H	1.026626	-0.006278	1.030124
	H326	H	1.036210	0.000614	1.039428
	O327	O	0.994129	0.985658	1.024291
	H328	H	0.987398	0.990068	1.023910
	H329	H	0.985940	0.987544	1.027949
	O330	O	0.514963	0.452143	0.465539
	H331	H	0.515148	0.460633	0.462561
	H332	H	0.515424	0.454211	0.457031
	O333	O	0.491809	0.530912	0.537721
	H334	H	0.500533	0.520714	0.537598
	H335	H	0.497024	0.525596	0.539757
	O336	O	0.462433	0.498023	0.545408
	H337	H	0.459063	0.492617	0.548163
	H338	H	0.465868	0.500601	0.545395
	O339	O	0.433619	0.502752	0.524973
	H340	H	0.425150	0.505509	0.525484
	H341	H	0.428814	0.487084	0.526486
	O342	O	0.526449	0.431590	0.440529
	H343	H	0.527808	0.441222	0.450525
	H344	H	0.527013	0.425723	0.437826
	O345	O	0.455996	0.471213	0.458935
	H346	H	0.457078	0.471725	0.462132
	H347	H	0.451953	0.472121	0.459688
