data_Molecule from HDF5

_cell_length_a		16.332690
_cell_length_b		16.180451
_cell_length_c		16.285022
_cell_angle_alpha	90.084027
_cell_angle_beta	89.863611
_cell_angle_gamma	90.022616
_symmetry_space_group_name_H-M	'P 1'
_symmetry_Int_Tables_number		1

loop_
	_symmetry_equiv_pos_as_xyz
	x,y,z

loop_
	_atom_site_label
	_atom_site_type_symbol
	_atom_site_fract_x
	_atom_site_fract_y
	_atom_site_fract_z
	H0	H	0.405905	0.827793	0.716132
	H1	H	0.603313	0.156740	0.715930
	H2	H	0.604234	0.827981	0.287828
	H3	H	0.405960	0.155823	0.287816
	H4	H	0.720793	0.390239	0.838669
	H5	H	0.721406	0.594019	0.163913
	H6	H	0.290632	0.590289	0.837556
	H7	H	0.287525	0.392899	0.164156
	H8	H	0.840779	0.705421	0.404470
	H9	H	0.168320	0.706264	0.597725
	H10	H	0.842042	0.278154	0.598195
	H11	H	0.169105	0.277505	0.403089
	H12	H	0.843490	0.391614	0.717069
	H13	H	0.168517	0.590422	0.714237
	H14	H	0.841537	0.591233	0.286132
	H15	H	0.169148	0.392734	0.285704
	H16	H	0.406729	0.706130	0.837783
	H17	H	0.601885	0.705615	0.165516
	H18	H	0.601573	0.278741	0.837697
	H19	H	0.407065	0.279929	0.166386
	H20	H	0.718803	0.827624	0.402843
	H21	H	0.720103	0.155877	0.602015
	H22	H	0.291022	0.828257	0.600903
	H23	H	0.290912	0.156172	0.402674
	H24	H	0.906173	0.327553	0.214917
	H25	H	0.103872	0.656435	0.215393
	H26	H	0.103637	0.327757	0.787103
	H27	H	0.907772	0.656774	0.787683
	H28	H	0.222066	0.890210	0.339508
	H29	H	0.219772	0.093415	0.664806
	H30	H	0.788891	0.091904	0.339047
	H31	H	0.789699	0.893570	0.665141
	H32	H	0.340905	0.204037	0.906401
	H33	H	0.668639	0.206460	0.099936
	H34	H	0.341113	0.777605	0.100583
	H35	H	0.668110	0.777742	0.903795
	H36	H	0.342295	0.892193	0.218836
	H37	H	0.668671	0.090282	0.216677
	H38	H	0.342039	0.092057	0.787263
	H39	H	0.667254	0.892064	0.785357
	H40	H	0.908294	0.205084	0.336996
	H41	H	0.102467	0.207024	0.664553
	H42	H	0.101251	0.779862	0.337222
	H43	H	0.907447	0.779258	0.665433
	H44	H	0.218545	0.327137	0.901771
	H45	H	0.218371	0.656691	0.100112
	H46	H	0.789546	0.327456	0.100218
	H47	H	0.789180	0.655630	0.900510
	H48	H	0.414915	0.108474	0.592050
	H49	H	0.597486	0.875529	0.590645
	H50	H	0.594214	0.109555	0.407013
	H51	H	0.394390	0.869595	0.412046
	H52	H	0.602197	0.403894	0.118305
	H53	H	0.596888	0.590378	0.883361
	H54	H	0.410007	0.590471	0.119517
	H55	H	0.414986	0.397958	0.886116
	H56	H	0.120794	0.585680	0.408090
	H57	H	0.886474	0.588622	0.596847
	H58	H	0.118292	0.398815	0.583112
	H59	H	0.892639	0.403098	0.414272
	H60	H	0.120583	0.408614	0.600626
	H61	H	0.889934	0.585018	0.591203
	H62	H	0.121452	0.583732	0.407188
	H63	H	0.889135	0.402718	0.400046
	H64	H	0.405684	0.579812	0.118262
	H65	H	0.603808	0.580410	0.883565
	H66	H	0.592850	0.401810	0.116239
	H67	H	0.407640	0.393257	0.882285
	H68	H	0.597413	0.107772	0.413919
	H69	H	0.601425	0.872885	0.597191
	H70	H	0.406348	0.111022	0.593941
	H71	H	0.422475	0.872773	0.394221
	H72	H	0.907186	0.611253	0.095729
	H73	H	0.103461	0.373154	0.093722
	H74	H	0.103422	0.610594	0.909472
	H75	H	0.914579	0.373373	0.901181
	H76	H	0.098882	0.894557	0.620880
	H77	H	0.098909	0.082831	0.385437
	H78	H	0.920922	0.085642	0.616539
	H79	H	0.915378	0.904632	0.387702
	H80	H	0.624862	0.084631	0.896238
	H81	H	0.389830	0.079584	0.098148
	H82	H	0.620882	0.896675	0.092922
	H83	H	0.388741	0.901209	0.907568
	H84	H	0.619332	0.902856	0.095131
	H85	H	0.387137	0.089155	0.100708
	H86	H	0.622163	0.095059	0.914823
	H87	H	0.388156	0.897156	0.907899
	H88	H	0.906872	0.091305	0.621046
	H89	H	0.099146	0.084054	0.385202
	H90	H	0.101635	0.903578	0.618403
	H91	H	0.913736	0.893075	0.383561
	H92	H	0.097131	0.610377	0.903745
	H93	H	0.092873	0.374979	0.096953
	H94	H	0.917461	0.608024	0.096535
	H95	H	0.917464	0.378435	0.913971
	H96	H	0.412623	0.111211	0.600044
	H97	H	0.593675	0.874614	0.597586
	H98	H	0.601764	0.111032	0.408594
	H99	H	0.422013	0.882119	0.426036
	H100	H	0.598807	0.395352	0.119899
	H101	H	0.592867	0.579890	0.887961
	H102	H	0.416282	0.582014	0.115904
	H103	H	0.407312	0.402432	0.884409
	H104	H	0.120870	0.585634	0.405501
	H105	H	0.889233	0.582032	0.598029
	H106	H	0.126625	0.389428	0.599156
	H107	H	0.888018	0.390947	0.408349
	H108	H	0.911725	0.606885	0.086849
	H109	H	0.095747	0.376860	0.087004
	H110	H	0.095687	0.608284	0.911079
	H111	H	0.904966	0.373057	0.910718
	H112	H	0.092469	0.899917	0.616488
	H113	H	0.100525	0.083235	0.383747
	H114	H	0.908146	0.076494	0.615571
	H115	H	0.904913	0.900699	0.383593
	H116	H	0.616187	0.074291	0.912896
	H117	H	0.389720	0.087085	0.091010
	H118	H	0.622554	0.897996	0.098970
	H119	H	0.389057	0.899422	0.911317
	C120	C	0.383343	0.001145	0.623632
	C121	C	0.626188	0.983581	0.623797
	C122	C	0.626007	0.000532	0.381048
	C123	C	0.384050	0.983349	0.381611
	C124	C	0.626466	0.370810	0.010031
	C125	C	0.626518	0.613303	0.993152
	C126	C	0.383003	0.612764	0.009847
	C127	C	0.382015	0.370444	0.992899
	C128	C	0.012982	0.613622	0.379260
	C129	C	0.996432	0.613906	0.623229
	C130	C	0.014265	0.369933	0.622551
	C131	C	0.997612	0.369738	0.378377
	C132	C	0.882848	0.500541	0.122256
	C133	C	0.125834	0.483918	0.121879
	C134	C	0.126928	0.500650	0.879475
	C135	C	0.883446	0.483282	0.879665
	C136	C	0.126482	0.870404	0.510250
	C137	C	0.127059	0.113010	0.493122
	C138	C	0.883322	0.113097	0.509890
	C139	C	0.882786	0.870703	0.492971
	C140	C	0.513215	0.113302	0.880233
	C141	C	0.496863	0.113910	0.124457
	C142	C	0.513105	0.870094	0.124193
	C143	C	0.496187	0.870381	0.879923
	C144	C	0.385730	0.877184	0.678587
	C145	C	0.623831	0.107340	0.678717
	C146	C	0.624196	0.877019	0.325617
	C147	C	0.386242	0.107103	0.326195
	C148	C	0.682127	0.371570	0.887272
	C149	C	0.682383	0.612596	0.115498
	C150	C	0.328395	0.610890	0.886394
	C151	C	0.326227	0.372698	0.115916
	C152	C	0.889777	0.668106	0.383048
	C153	C	0.119585	0.669037	0.619310
	C154	C	0.891108	0.315099	0.619742
	C155	C	0.120356	0.314974	0.381540
	C156	C	0.891692	0.371711	0.678201
	C157	C	0.119622	0.611411	0.677014
	C158	C	0.890167	0.611175	0.324520
	C159	C	0.120077	0.372205	0.323157
	C160	C	0.386030	0.668164	0.886535
	C161	C	0.623075	0.668174	0.116371
	C162	C	0.622865	0.315901	0.886607
	C163	C	0.385451	0.316356	0.116748
	C164	C	0.681045	0.876713	0.382928
	C165	C	0.681420	0.107061	0.621594
	C166	C	0.328281	0.877327	0.621690
	C167	C	0.329006	0.107252	0.383426
	C168	C	0.885439	0.376645	0.177225
	C169	C	0.123687	0.607469	0.177229
	C170	C	0.124022	0.376874	0.824782
	C171	C	0.886503	0.607297	0.824701
	C172	C	0.182932	0.871510	0.387926
	C173	C	0.181782	0.112495	0.616178
	C174	C	0.827476	0.111908	0.387239
	C175	C	0.827574	0.872977	0.616237
	C176	C	0.389957	0.167408	0.884610
	C177	C	0.619810	0.168812	0.121151
	C178	C	0.390178	0.815205	0.121418
	C179	C	0.619153	0.815112	0.882665
	C180	C	0.390758	0.871852	0.180330
	C181	C	0.619739	0.111058	0.179192
	C182	C	0.390530	0.111753	0.825300
	C183	C	0.618764	0.871926	0.823801
	C184	C	0.886925	0.167881	0.386240
	C185	C	0.123330	0.168766	0.616135
	C186	C	0.123312	0.816243	0.386646
	C187	C	0.886012	0.816215	0.616441
	C188	C	0.181368	0.376743	0.881739
	C189	C	0.180856	0.607497	0.120213
	C190	C	0.827520	0.376615	0.120083
	C191	C	0.827643	0.606726	0.880922
	C192	C	0.405063	0.087613	0.601699
	C193	C	0.603964	0.896783	0.601718
	C194	C	0.604163	0.087033	0.403351
	C195	C	0.406261	0.897271	0.404078
	C196	C	0.604513	0.393606	0.096128
	C197	C	0.604343	0.590235	0.907200
	C198	C	0.404425	0.590518	0.095573
	C199	C	0.403601	0.391564	0.906611
	C200	C	0.098737	0.591499	0.400766
	C201	C	0.910750	0.591716	0.601776
	C202	C	0.099647	0.392240	0.600475
	C203	C	0.911867	0.392137	0.401123
	C204	C	0.905413	0.586520	0.099718
	C205	C	0.103880	0.397326	0.099244
	C206	C	0.105075	0.587398	0.901580
	C207	C	0.905674	0.397239	0.901952
	C208	C	0.104144	0.892834	0.596135
	C209	C	0.105853	0.090284	0.407139
	C210	C	0.905546	0.090959	0.595494
	C211	C	0.904839	0.892972	0.407141
	C212	C	0.598890	0.091132	0.901716
	C213	C	0.410863	0.091905	0.102929
	C214	C	0.598646	0.892538	0.102076
	C215	C	0.410713	0.892714	0.902181
	Zn216	Zn	0.504460	-0.007477	0.751275
	Zn217	Zn	0.504909	-0.008408	0.253397
	Zn218	Zn	0.754575	0.491735	0.000837
	Zn219	Zn	0.253998	0.492346	0.000966
	Zn220	Zn	0.004694	0.742188	0.501447
	Zn221	Zn	0.005812	0.241166	0.500739
	Zn222	Zn	0.005890	0.491868	0.751733
	Zn223	Zn	0.005249	0.492029	0.250010
	Zn224	Zn	0.504462	0.741496	0.001974
	Zn225	Zn	0.505004	0.242419	0.002092
	Zn226	Zn	0.753667	-0.008198	0.501829
	Zn227	Zn	0.255224	-0.007939	0.502408
	N228	N	0.419246	0.955215	0.679856
	N229	N	0.589867	0.029563	0.679821
	N230	N	0.590682	0.954996	0.324394
	N231	N	0.419631	0.029069	0.324740
	N232	N	0.684351	0.404769	0.965114
	N233	N	0.684518	0.579205	0.037706
	N234	N	0.326251	0.577186	0.963973
	N235	N	0.324002	0.405437	0.038026
	N236	N	0.967201	0.670014	0.416248
	N237	N	0.042020	0.670574	0.586481
	N238	N	0.968251	0.313853	0.585725
	N239	N	0.043197	0.313486	0.415246
	N240	N	0.969112	0.405178	0.680389
	N241	N	0.042226	0.577961	0.679616
	N242	N	0.967679	0.577920	0.322198
	N243	N	0.042539	0.405600	0.321230
	N244	N	0.419351	0.669469	0.964039
	N245	N	0.589099	0.668848	0.039124
	N246	N	0.588812	0.315229	0.964015
	N247	N	0.419644	0.314979	0.039410
	N248	N	0.682224	0.954682	0.416794
	N249	N	0.683082	0.028768	0.588436
	N250	N	0.326565	0.955204	0.588119
	N251	N	0.327513	0.029427	0.417303
	N252	N	0.919048	0.454595	0.178944
	N253	N	0.090082	0.529621	0.178161
	N254	N	0.090832	0.454904	0.823515
	N255	N	0.920700	0.529554	0.823785
	N256	N	0.185018	0.904406	0.465967
	N257	N	0.184030	0.078450	0.538755
	N258	N	0.824746	0.078985	0.465018
	N259	N	0.825263	0.905959	0.538401
	N260	N	0.467191	0.168437	0.918330
	N261	N	0.542485	0.170577	0.087831
	N262	N	0.467294	0.814034	0.087282
	N263	N	0.542071	0.814225	0.916981
	N264	N	0.468137	0.905380	0.181987
	N265	N	0.542127	0.077805	0.181496
	N266	N	0.468030	0.078648	0.822641
	N267	N	0.541397	0.905600	0.822024
	N268	N	0.920713	0.168985	0.463672
	N269	N	0.090025	0.169202	0.538617
	N270	N	0.088808	0.815347	0.463713
	N271	N	0.919564	0.814560	0.538967
	N272	N	0.183079	0.454950	0.915247
	N273	N	0.182163	0.529537	0.086287
	N274	N	0.825745	0.454666	0.086640
	N275	N	0.825643	0.528712	0.914256
	O276	O	0.978095	0.962030	0.073911
	H277	H	0.982148	0.963959	0.081369
	H278	H	0.979572	0.961617	0.083272
	O279	O	0.041177	-0.008553	-0.034170
	H280	H	0.038630	-0.010361	-0.041466
	H281	H	0.045478	-0.022801	-0.037010
	O282	O	0.012834	-0.032684	0.985102
	H283	H	0.004164	-0.040167	0.984477
	H284	H	0.019803	-0.036247	0.979698
	O285	O	-0.003206	1.017350	-0.045312
	H286	H	-0.001100	1.015257	-0.045085
	H287	H	-0.000241	1.018118	-0.053130
	O288	O	0.524322	0.489770	0.425561
	H289	H	0.525607	0.492226	0.422074
	H290	H	0.528344	0.479359	0.425313
	O291	O	0.556587	0.479791	0.481227
	H292	H	0.559534	0.485299	0.485891
	H293	H	0.568192	0.478317	0.482617
	O294	O	-0.461688	0.520852	0.517805
	H295	H	-0.466738	0.524975	0.512143
	H296	H	-0.454682	0.516166	0.516427
	O297	O	0.614988	0.493623	0.505665
	H298	H	0.619460	0.503249	0.507203
	H299	H	0.612085	0.501798	0.501208
	O300	O	-0.021871	1.040263	0.990244
	H301	H	-0.028783	1.049610	0.989372
	H302	H	-0.023284	1.045485	0.988880
	O303	O	0.577309	0.486218	0.500856
	H304	H	0.567475	0.486730	0.499111
	H305	H	0.577569	0.490863	0.500302
	O306	O	0.553935	-0.515314	1.443993
	H307	H	0.551121	-0.522473	1.445771
	H308	H	0.549290	-0.519705	1.436877
	O309	O	0.956779	1.028888	0.967252
	H310	H	0.965121	1.031150	0.977200
	H311	H	0.958919	1.037899	0.963848
	O312	O	0.026632	0.932562	-0.003786
	H313	H	0.025982	0.932464	-0.002077
	H314	H	0.021713	0.940569	-0.002682
	O315	O	0.559735	0.476434	0.460258
	H316	H	0.567993	0.476629	0.469410
	H317	H	0.559523	0.468997	0.463945
	O318	O	0.000727	0.981023	-0.057711
	H319	H	-0.000067	0.977088	-0.054138
	H320	H	-0.002228	0.978527	-0.056506
	O321	O	1.009413	1.013741	0.001198
	H322	H	1.005416	1.008359	0.001134
	H323	H	1.011438	1.017163	-0.000419
