data_Molecule from HDF5

_cell_length_a		16.584227
_cell_length_b		16.584317
_cell_length_c		16.592216
_cell_angle_alpha	90.084647
_cell_angle_beta	90.011410
_cell_angle_gamma	90.081629
_symmetry_space_group_name_H-M	'P 1'
_symmetry_Int_Tables_number		1

loop_
	_symmetry_equiv_pos_as_xyz
	x,y,z

loop_
	_atom_site_label
	_atom_site_type_symbol
	_atom_site_fract_x
	_atom_site_fract_y
	_atom_site_fract_z
	H0	H	0.390764	0.824908	0.709647
	H1	H	0.604409	0.136589	0.714655
	H2	H	0.603434	0.828199	0.266806
	H3	H	0.393700	0.139965	0.269899
	H4	H	0.717732	0.377411	0.832110
	H5	H	0.715700	0.584841	0.145776
	H6	H	0.275036	0.587750	0.833612
	H7	H	0.274265	0.376465	0.145144
	H8	H	0.839282	0.702653	0.385540
	H9	H	0.152472	0.703741	0.592714
	H10	H	0.839686	0.262869	0.593348
	H11	H	0.152443	0.263223	0.386326
	H12	H	0.838839	0.381157	0.707979
	H13	H	0.151859	0.589254	0.710681
	H14	H	0.839403	0.586291	0.268435
	H15	H	0.151983	0.378324	0.269251
	H16	H	0.391992	0.702226	0.832625
	H17	H	0.600774	0.702061	0.145688
	H18	H	0.600607	0.261503	0.832127
	H19	H	0.390672	0.260672	0.144333
	H20	H	0.718425	0.827481	0.383938
	H21	H	0.720537	0.136889	0.598134
	H22	H	0.276626	0.824814	0.591125
	H23	H	0.276280	0.139191	0.385458
	H24	H	0.896695	0.323648	0.203772
	H25	H	0.098183	0.639255	0.208473
	H26	H	0.101773	0.328209	0.766256
	H27	H	0.889747	0.639614	0.766809
	H28	H	0.215755	0.878946	0.331736
	H29	H	0.215260	0.084500	0.646877
	H30	H	0.771758	0.089619	0.336200
	H31	H	0.773580	0.876363	0.646179
	H32	H	0.340688	0.203921	0.883523
	H33	H	0.653760	0.201889	0.090259
	H34	H	0.340740	0.761948	0.093881
	H35	H	0.654656	0.762783	0.885689
	H36	H	0.341572	0.879357	0.209718
	H37	H	0.654191	0.086587	0.207603
	H38	H	0.338815	0.084592	0.769828
	H39	H	0.653019	0.877216	0.768009
	H40	H	0.888307	0.205346	0.335300
	H41	H	0.099613	0.200754	0.647122
	H42	H	0.097800	0.763146	0.331790
	H43	H	0.889902	0.760281	0.646009
	H44	H	0.217758	0.328031	0.883027
	H45	H	0.215096	0.639670	0.092482
	H46	H	0.779510	0.324410	0.088007
	H47	H	0.772932	0.638829	0.881674
	H48	H	0.401035	0.096544	0.582418
	H49	H	0.582405	0.869908	0.583353
	H50	H	0.590681	0.095733	0.401669
	H51	H	0.409955	0.871145	0.398837
	H52	H	0.588655	0.390413	0.102485
	H53	H	0.585223	0.569932	0.877020
	H54	H	0.398885	0.568498	0.103348
	H55	H	0.401024	0.393577	0.875643
	H56	H	0.110613	0.577857	0.397454
	H57	H	0.883669	0.572415	0.577267
	H58	H	0.112113	0.388068	0.583219
	H59	H	0.884887	0.394746	0.403211
	H60	H	0.107281	0.391155	0.571774
	H61	H	0.885514	0.570969	0.575981
	H62	H	0.105896	0.573031	0.405350
	H63	H	0.881889	0.395249	0.394518
	H64	H	0.413796	0.568157	0.097822
	H65	H	0.584902	0.574386	0.875447
	H66	H	0.588676	0.395718	0.100099
	H67	H	0.409141	0.399334	0.879628
	H68	H	0.581788	0.095477	0.396643
	H69	H	0.578257	0.874577	0.573912
	H70	H	0.410883	0.094251	0.584522
	H71	H	0.405149	0.871257	0.400700
	H72	H	0.905848	0.597366	0.084642
	H73	H	0.089973	0.369561	0.077740
	H74	H	0.080190	0.595792	0.896049
	H75	H	0.909450	0.372632	0.899182
	H76	H	0.082216	0.887675	0.601016
	H77	H	0.083722	0.072882	0.378034
	H78	H	0.910112	0.070459	0.600596
	H79	H	0.907602	0.900860	0.382005
	H80	H	0.604418	0.067298	0.908270
	H81	H	0.383836	0.072317	0.079873
	H82	H	0.609702	0.892660	0.079826
	H83	H	0.382013	0.885368	0.897351
	H84	H	0.609753	0.891503	0.076960
	H85	H	0.385147	0.072434	0.077189
	H86	H	0.608005	0.064404	0.892694
	H87	H	0.386816	0.891743	0.905422
	H88	H	0.908945	0.072003	0.602041
	H89	H	0.088415	0.076888	0.375196
	H90	H	0.092305	0.891518	0.603894
	H91	H	0.913355	0.890682	0.379691
	H92	H	0.081500	0.592345	0.906647
	H93	H	0.086789	0.368360	0.083499
	H94	H	0.909490	0.594305	0.077588
	H95	H	0.908429	0.373626	0.899897
	H96	H	0.406525	0.092332	0.574894
	H97	H	0.588949	0.870700	0.573931
	H98	H	0.582224	0.091695	0.406396
	H99	H	0.405771	0.868801	0.396083
	H100	H	0.584113	0.392401	0.098548
	H101	H	0.589101	0.572004	0.875569
	H102	H	0.408267	0.581585	0.104115
	H103	H	0.410764	0.388882	0.876801
	H104	H	0.107471	0.567785	0.395916
	H105	H	0.884366	0.569969	0.578024
	H106	H	0.107945	0.399845	0.580621
	H107	H	0.881348	0.387096	0.399017
	H108	H	0.901036	0.596536	0.077106
	H109	H	0.083726	0.370590	0.077952
	H110	H	0.090636	0.596639	0.901200
	H111	H	0.908344	0.372296	0.898905
	H112	H	0.085290	0.897963	0.598838
	H113	H	0.090272	0.070468	0.376282
	H114	H	0.907965	0.069906	0.601331
	H115	H	0.901244	0.891563	0.377078
	H116	H	0.610921	0.079136	0.899181
	H117	H	0.385230	0.069826	0.078947
	H118	H	0.608872	0.894485	0.077617
	H119	H	0.384917	0.896562	0.894885
	C120	C	0.374740	-0.010081	0.611017
	C121	C	0.616685	0.974001	0.610698
	C122	C	0.618217	-0.008174	0.368369
	C123	C	0.375843	0.974225	0.367775
	C124	C	0.618209	0.360965	-0.003212
	C125	C	0.618167	0.603295	0.979914
	C126	C	0.375268	0.604294	-0.001773
	C127	C	0.374726	0.361331	0.980460
	C128	C	0.004445	0.604084	0.367421
	C129	C	0.987536	0.604178	0.609855
	C130	C	0.005139	0.361827	0.610613
	C131	C	0.986636	0.360901	0.368105
	C132	C	0.875421	0.491269	0.109271
	C133	C	0.117968	0.473524	0.111154
	C134	C	0.116753	0.492032	0.868035
	C135	C	0.875354	0.475528	0.867146
	C136	C	0.117804	0.860812	0.497373
	C137	C	0.117700	0.103599	0.480940
	C138	C	0.875208	0.103592	0.498785
	C139	C	0.874648	0.861464	0.482176
	C140	C	0.504438	0.102730	0.868010
	C141	C	0.488325	0.103845	0.109757
	C142	C	0.505786	0.861473	0.110222
	C143	C	0.488399	0.859969	0.867653
	C144	C	0.372921	0.871896	0.669503
	C145	C	0.621661	0.090300	0.673378
	C146	C	0.621442	0.875015	0.307155
	C147	C	0.374757	0.092760	0.309423
	C148	C	0.677480	0.359312	0.878874
	C149	C	0.676737	0.604017	0.098291
	C150	C	0.315291	0.606006	0.880624
	C151	C	0.314031	0.358114	0.097673
	C152	C	0.886420	0.663083	0.366099
	C153	C	0.105503	0.664170	0.611811
	C154	C	0.886675	0.302822	0.611983
	C155	C	0.105144	0.302332	0.367068
	C156	C	0.886443	0.361544	0.668924
	C157	C	0.105209	0.607145	0.670112
	C158	C	0.886519	0.605389	0.307968
	C159	C	0.104949	0.359751	0.309009
	C160	C	0.373629	0.663126	0.880152
	C161	C	0.619475	0.662221	0.098391
	C162	C	0.619256	0.301580	0.878864
	C163	C	0.372182	0.300561	0.097489
	C164	C	0.678500	0.874555	0.365709
	C165	C	0.679296	0.090615	0.615471
	C166	C	0.316091	0.871874	0.610726
	C167	C	0.316543	0.092437	0.366837
	C168	C	0.876648	0.371332	0.165299
	C169	C	0.118046	0.592092	0.169588
	C170	C	0.119814	0.375035	0.806610
	C171	C	0.871991	0.592766	0.806866
	C172	C	0.176025	0.860110	0.378813
	C173	C	0.176009	0.103738	0.599537
	C174	C	0.812812	0.107276	0.382622
	C175	C	0.814021	0.858364	0.599435
	C176	C	0.386974	0.162992	0.865740
	C177	C	0.606653	0.162988	0.110137
	C178	C	0.387881	0.802202	0.112169
	C179	C	0.606974	0.801601	0.866410
	C180	C	0.388241	0.860157	0.170027
	C181	C	0.606863	0.105489	0.168152
	C182	C	0.386227	0.104017	0.808975
	C183	C	0.606288	0.858762	0.808122
	C184	C	0.870901	0.164811	0.382045
	C185	C	0.118386	0.161613	0.599668
	C186	C	0.117684	0.802509	0.378904
	C187	C	0.872001	0.800813	0.599444
	C188	C	0.177137	0.374647	0.865005
	C189	C	0.176137	0.592206	0.111956
	C190	C	0.818709	0.371772	0.107675
	C191	C	0.813918	0.592296	0.864042
	C192	C	0.399259	0.072813	0.587357
	C193	C	0.590583	0.892773	0.584366
	C194	C	0.592244	0.073299	0.394408
	C195	C	0.399947	0.891917	0.391862
	C196	C	0.593925	0.385703	0.078953
	C197	C	0.593407	0.579084	0.897643
	C198	C	0.399923	0.579687	0.080433
	C199	C	0.399840	0.386729	0.898608
	C200	C	0.086777	0.579657	0.392400
	C201	C	0.905657	0.578706	0.584419
	C202	C	0.087602	0.386115	0.585686
	C203	C	0.904317	0.385325	0.392145
	C204	C	0.898785	0.574286	0.086470
	C205	C	0.093830	0.390852	0.086704
	C206	C	0.091366	0.573619	0.893943
	C207	C	0.901363	0.394041	0.892456
	C208	C	0.093581	0.885326	0.579977
	C209	C	0.094221	0.080156	0.397968
	C210	C	0.901504	0.077983	0.580191
	C211	C	0.900216	0.887166	0.400643
	C212	C	0.586420	0.077543	0.892794
	C213	C	0.406097	0.078757	0.085421
	C214	C	0.588117	0.885804	0.085329
	C215	C	0.405847	0.884148	0.892226
	Zn216	Zn	0.496094	-0.018559	0.739544
	Zn217	Zn	0.497125	-0.016420	0.239049
	Zn218	Zn	0.747122	0.482648	-0.012084
	Zn219	Zn	0.245950	0.482889	-0.010528
	Zn220	Zn	-0.004559	0.732747	0.489160
	Zn221	Zn	-0.003653	0.232620	0.490120
	Zn222	Zn	-0.003849	0.484089	0.738566
	Zn223	Zn	-0.004286	0.481786	0.238878
	Zn224	Zn	0.497525	0.732127	-0.010786
	Zn225	Zn	0.496318	0.232417	-0.011543
	Zn226	Zn	0.746086	-0.017659	0.490889
	Zn227	Zn	0.246683	-0.017663	0.488398
	N228	N	0.408723	0.946534	0.669690
	N229	N	0.583224	0.016933	0.670518
	N230	N	0.584792	0.949156	0.308407
	N231	N	0.410975	0.018344	0.309915
	N232	N	0.677228	0.395361	0.953305
	N233	N	0.676267	0.568276	0.023650
	N234	N	0.316165	0.569895	0.955101
	N235	N	0.315308	0.395152	0.023770
	N236	N	0.960823	0.662576	0.402223
	N237	N	0.031296	0.662496	0.575103
	N238	N	0.961610	0.302755	0.576668
	N239	N	0.030387	0.302419	0.402759
	N240	N	0.961276	0.397247	0.668446
	N241	N	0.030757	0.570793	0.669029
	N242	N	0.961041	0.569495	0.308584
	N243	N	0.030164	0.395227	0.309269
	N244	N	0.410148	0.662451	0.954436
	N245	N	0.583874	0.662050	0.023669
	N246	N	0.583246	0.302465	0.953142
	N247	N	0.409119	0.302283	0.023427
	N248	N	0.676895	0.948430	0.402772
	N249	N	0.676098	0.017466	0.577090
	N250	N	0.316903	0.946463	0.575166
	N251	N	0.316970	0.017790	0.402368
	N252	N	0.910833	0.446781	0.166831
	N253	N	0.083063	0.516952	0.169480
	N254	N	0.083093	0.449098	0.808325
	N255	N	0.909578	0.519168	0.808696
	N256	N	0.176342	0.895413	0.453695
	N257	N	0.176080	0.068440	0.524571
	N258	N	0.815309	0.070038	0.456329
	N259	N	0.815581	0.895306	0.525479
	N260	N	0.461606	0.162521	0.901293
	N261	N	0.531856	0.162394	0.074835
	N262	N	0.462208	0.802558	0.075954
	N263	N	0.532396	0.801915	0.902459
	N264	N	0.462749	0.896248	0.168943
	N265	N	0.532225	0.069624	0.168151
	N266	N	0.460314	0.067406	0.810103
	N267	N	0.531334	0.894041	0.808585
	N268	N	0.909168	0.162538	0.455390
	N269	N	0.083092	0.161945	0.524776
	N270	N	0.082319	0.802778	0.453639
	N271	N	0.909045	0.802528	0.525498
	N272	N	0.175437	0.448465	0.902587
	N273	N	0.176589	0.517261	0.076784
	N274	N	0.817419	0.447335	0.074048
	N275	N	0.815917	0.518278	0.900929
	O276	O	0.441796	0.641030	-0.493848
	H277	H	0.450479	0.633569	-0.475993
	H278	H	0.433007	0.638787	-0.481078
	O279	O	0.531314	0.357093	0.427648
	H280	H	0.542993	0.359358	0.418451
	H281	H	0.527535	0.351034	0.432100
	O282	O	0.205249	0.861785	0.785314
	H283	H	0.191056	0.843358	0.778550
	H284	H	0.227212	0.842934	0.771920
	O285	O	0.860196	0.168821	1.095061
	H286	H	0.884685	0.152619	1.080195
	H287	H	0.856132	0.162688	1.077216
	O288	O	-0.220387	0.927119	0.934019
	H289	H	-0.222044	0.936644	0.951433
	H290	H	-0.225092	0.928662	0.921535
	O291	O	0.519282	0.384000	0.559474
	H292	H	0.527253	0.389037	0.543665
	H293	H	0.522111	0.378807	0.555933
	O294	O	0.870118	0.003017	1.221402
	H295	H	0.871022	-0.020167	1.220764
	H296	H	0.861546	-0.014131	1.236965
	O297	O	0.623128	0.566916	0.343324
	H298	H	0.640466	0.557487	0.343962
	H299	H	0.600226	0.571129	0.336803
	O300	O	-0.212630	-0.231196	0.997923
	H301	H	-0.214503	-0.243797	0.990852
	H302	H	-0.218297	-0.232602	1.008037
	O303	O	0.478893	0.356642	0.489721
	H304	H	0.484220	0.354949	0.481809
	H305	H	0.490208	0.354496	0.486311
	O306	O	0.962201	0.776386	0.204938
	H307	H	0.949458	0.765339	0.193267
	H308	H	0.950652	0.752999	0.210126
	O309	O	0.273312	0.520966	0.266193
	H310	H	0.278341	0.548198	0.276962
	H311	H	0.238857	0.516437	0.237996
	O312	O	1.021277	0.772856	0.792960
	H313	H	1.024948	0.789178	0.799199
	H314	H	1.019159	0.752605	0.775220
	O315	O	0.725696	0.440090	0.479954
	H316	H	0.728032	0.451062	0.476103
	H317	H	0.728586	0.425130	0.464850
	O318	O	0.291614	0.275363	0.701110
	H319	H	0.286978	0.265568	0.709143
	H320	H	0.275909	0.262168	0.681596
	O321	O	-0.015523	1.098648	0.840472
	H322	H	-0.025953	1.098598	0.828138
	H323	H	-0.021204	1.095873	0.845667
	O324	O	1.277485	1.274877	0.282967
	H325	H	1.285458	1.273917	0.286725
	H326	H	1.268510	1.260509	0.282932
	O327	O	0.027482	0.196542	1.207932
	H328	H	0.025559	0.179603	1.222012
	H329	H	0.022551	0.205373	1.229041
	O330	O	0.587131	0.387352	0.539352
	H331	H	0.584992	0.382387	0.545549
	H332	H	0.586347	0.383136	0.534314
	O333	O	0.519405	0.678240	0.704806
	H334	H	0.530379	0.681869	0.712530
	H335	H	0.526947	0.686667	0.712149
	O336	O	1.184331	-0.207004	0.176544
	H337	H	1.165859	-0.187829	0.159552
	H338	H	1.169751	-0.191480	0.152015
	O339	O	1.375776	0.458762	0.610081
	H340	H	1.376680	0.454394	0.605396
	H341	H	1.362748	0.454763	0.601397
	O342	O	0.187285	0.159355	0.165747
	H343	H	0.190369	0.148935	0.177380
	H344	H	0.165206	0.156052	0.139437
	O345	O	0.459770	1.521345	1.312223
	H346	H	0.453026	1.526182	1.303220
	H347	H	0.460200	1.537037	1.328851
	O348	O	0.501067	0.465281	0.696982
	H349	H	0.488512	0.463921	0.697545
	H350	H	0.489513	0.452704	0.683056
	O351	O	0.364327	0.685245	0.626376
	H352	H	0.363811	0.665335	0.621536
	H353	H	0.383016	0.681640	0.615139
	O354	O	-0.217085	0.194846	0.880654
	H355	H	-0.229346	0.198790	0.881546
	H356	H	-0.212569	0.199791	0.856276
	O357	O	0.536050	0.463009	0.480507
	H358	H	0.526982	0.447534	0.478751
	H359	H	0.539090	0.457441	0.477980
	O360	O	0.710545	0.444700	0.275563
	H361	H	0.714581	0.416712	0.270297
	H362	H	0.722519	0.440086	0.254243
	O363	O	-0.302225	-0.311257	-0.456724
	H364	H	-0.297867	-0.308926	-0.471882
	H365	H	-0.305281	-0.309026	-0.455433
	O366	O	0.658895	0.264863	0.492021
	H367	H	0.659693	0.263821	0.496456
	H368	H	0.669894	0.256915	0.481415
	O369	O	0.996532	0.140774	0.058212
	H370	H	0.994375	0.139755	0.060198
	H371	H	0.987984	0.124239	0.064047
	O372	O	1.213393	0.769138	-0.040263
	H373	H	1.229564	0.764007	-0.053785
	H374	H	1.229223	0.774194	-0.036844
	O375	O	0.907777	-0.207995	-0.115258
	H376	H	0.904624	-0.214297	-0.120590
	H377	H	0.921341	-0.194363	-0.114674
	O378	O	0.544342	0.712402	0.428218
	H379	H	0.543157	0.709914	0.436689
	H380	H	0.517236	0.713288	0.423288
	O381	O	-0.716705	0.461487	0.704358
	H382	H	-0.728394	0.462932	0.724301
	H383	H	-0.713668	0.429597	0.696670
	O384	O	1.106058	-0.074773	1.114595
	H385	H	1.099071	-0.066313	1.111982
	H386	H	1.100276	-0.071943	1.110954
	O387	O	0.741372	1.239556	-0.271577
	H388	H	0.713434	1.260150	-0.293725
	H389	H	0.755379	1.254266	-0.267628
	O390	O	0.683230	0.486330	0.615522
	H391	H	0.681536	0.471266	0.597819
	H392	H	0.687634	0.480076	0.629585
	O393	O	0.629273	0.350286	0.695730
	H394	H	0.608339	0.358468	0.698012
	H395	H	0.617542	0.363141	0.672399
	O396	O	-0.094100	0.946114	0.954487
	H397	H	-0.097247	0.948084	0.962516
	H398	H	-0.094828	0.954287	0.961217
	O399	O	0.200664	0.010919	1.185380
	H400	H	0.190859	0.017970	1.173863
	H401	H	0.197117	0.004384	1.198861
	O402	O	1.149063	0.968422	-0.186061
	H403	H	1.162767	0.953938	-0.188050
	H404	H	1.147564	0.963161	-0.199229
	O405	O	0.974751	-0.005985	0.812173
	H406	H	0.972575	-0.000713	0.802100
	H407	H	0.956394	-0.014271	0.809465
	O408	O	-0.044328	0.172109	-0.231217
	H409	H	-0.035575	0.183750	-0.230577
	H410	H	-0.044681	0.181919	-0.241634
	O411	O	0.989588	0.917415	1.051109
	H412	H	0.984542	0.899153	1.049649
	H413	H	1.002916	0.913496	1.044143
	O414	O	0.279602	0.270373	0.533484
	H415	H	0.300631	0.264307	0.514643
	H416	H	0.257456	0.249176	0.529976
	O417	O	0.778649	-0.029610	1.129061
	H418	H	0.776184	-0.041904	1.140942
	H419	H	0.767289	-0.040162	1.142007
	O420	O	-0.208441	1.002514	0.787381
	H421	H	-0.219120	1.011921	0.779342
	H422	H	-0.210745	1.008526	0.789281
	O423	O	0.031798	0.152042	1.026972
	H424	H	0.024005	0.156946	1.050798
	H425	H	0.027465	0.140402	1.013321
	O426	O	0.247750	0.728509	0.731386
	H427	H	0.264236	0.702966	0.709904
	H428	H	0.246686	0.716608	0.738737
	O429	O	0.977939	0.856535	1.058131
	H430	H	0.969789	0.860864	1.041355
	H431	H	0.978570	0.852544	1.041709
	O432	O	0.291462	0.691836	0.279971
	H433	H	0.260033	0.724651	0.249811
	H434	H	0.293684	0.680587	0.306131
	O435	O	0.000772	0.988819	-0.007512
	H436	H	-0.006983	0.992364	-0.025625
	H437	H	-0.009855	0.997083	-0.018126
	O438	O	0.164012	0.153744	-0.187524
	H439	H	0.149854	0.152288	-0.161760
	H440	H	0.152008	0.121560	-0.183768
	O441	O	-0.211701	-0.225955	0.199808
	H442	H	-0.211463	-0.238880	0.201966
	H443	H	-0.234622	-0.245082	0.200973
	O444	O	0.670358	0.689435	0.694045
	H445	H	0.664888	0.692483	0.693343
	H446	H	0.676538	0.666367	0.679046
	O447	O	-0.289560	1.275073	1.281113
	H448	H	-0.303856	1.255200	1.265862
	H449	H	-0.281906	1.264684	1.271142
	O450	O	0.474957	0.701390	1.276428
	H451	H	0.457769	0.702742	1.281168
	H452	H	0.459332	0.713247	1.256384
	O453	O	0.292019	0.384171	0.387782
	H454	H	0.285559	0.377448	0.385114
	H455	H	0.309767	0.384599	0.380398
	O456	O	0.210946	0.187588	1.006267
	H457	H	0.206758	0.203488	1.013328
	H458	H	0.209457	0.195087	1.016592
	O459	O	1.115050	0.958049	-0.006388
	H460	H	1.114699	0.960289	0.000898
	H461	H	1.101135	0.955146	-0.009077
	O462	O	0.275021	0.553345	0.538133
	H463	H	0.278046	0.544090	0.539851
	H464	H	0.267239	0.542244	0.523947
	O465	O	0.793800	0.173288	0.082480
	H466	H	0.801169	0.155997	0.063159
	H467	H	0.801827	0.177512	0.069842
	O468	O	0.553358	0.265853	0.280443
	H469	H	0.553238	0.247404	0.255874
	H470	H	0.550725	0.289992	0.277793
	O471	O	-0.022029	0.795750	0.006297
	H472	H	-0.025187	0.793812	-0.006939
	H473	H	-0.024521	0.793585	-0.007282
	O474	O	0.281921	0.699747	0.452565
	H475	H	0.288617	0.695436	0.451445
	H476	H	0.260453	0.713567	0.455681
	O477	O	0.469904	0.258604	1.711393
	H478	H	0.452555	0.261250	1.720774
	H479	H	0.455737	0.238041	1.726508
	O480	O	0.596386	0.527576	0.540695
	H481	H	0.588187	0.517956	0.544126
	H482	H	0.594650	0.532106	0.530792
	O483	O	0.684870	0.672989	0.300483
	H484	H	0.664322	0.649580	0.312747
	H485	H	0.665940	0.660627	0.323138
	O486	O	0.450700	0.374022	1.276522
	H487	H	0.446716	0.410915	1.271154
	H488	H	0.453320	0.375375	1.272626
	O489	O	1.225353	1.026781	-0.060129
	H490	H	1.230054	1.046569	-0.061792
	H491	H	1.224094	1.026567	-0.068819
