data_Molecule from HDF5

_cell_length_a		16.073221
_cell_length_b		16.398436
_cell_length_c		16.230040
_cell_angle_alpha	89.734423
_cell_angle_beta	89.982083
_cell_angle_gamma	90.025361
_symmetry_space_group_name_H-M	'P 1'
_symmetry_Int_Tables_number		1

loop_
	_symmetry_equiv_pos_as_xyz
	x,y,z

loop_
	_atom_site_label
	_atom_site_type_symbol
	_atom_site_fract_x
	_atom_site_fract_y
	_atom_site_fract_z
	H0	H	0.400102	0.837763	0.711608
	H1	H	0.600651	0.162451	0.708018
	H2	H	0.602460	0.837510	0.276620
	H3	H	0.399381	0.161359	0.276023
	H4	H	0.711787	0.405304	0.828312
	H5	H	0.710381	0.594851	0.158172
	H6	H	0.286932	0.597309	0.828436
	H7	H	0.287737	0.403313	0.158412
	H8	H	0.835118	0.715873	0.393283
	H9	H	0.164900	0.714110	0.593155
	H10	H	0.835884	0.283855	0.595871
	H11	H	0.165259	0.286083	0.394121
	H12	H	0.833608	0.402045	0.706370
	H13	H	0.165472	0.596049	0.705299
	H14	H	0.833645	0.598803	0.281783
	H15	H	0.165845	0.403880	0.281901
	H16	H	0.396239	0.718766	0.831259
	H17	H	0.601438	0.716341	0.156435
	H18	H	0.601761	0.285051	0.829486
	H19	H	0.396551	0.281204	0.155282
	H20	H	0.714642	0.836553	0.396708
	H21	H	0.713419	0.163154	0.588448
	H22	H	0.286198	0.836488	0.592295
	H23	H	0.285917	0.163156	0.394968
	H24	H	0.898477	0.338848	0.212520
	H25	H	0.097690	0.663840	0.207435
	H26	H	0.099648	0.338207	0.778781
	H27	H	0.899490	0.662464	0.776963
	H28	H	0.212070	0.904450	0.328382
	H29	H	0.213135	0.094694	0.659233
	H30	H	0.787343	0.097912	0.328721
	H31	H	0.788933	0.904071	0.659030
	H32	H	0.335165	0.215344	0.890662
	H33	H	0.664144	0.216192	0.094126
	H34	H	0.334400	0.784869	0.093777
	H35	H	0.663986	0.785095	0.892830
	H36	H	0.334465	0.899967	0.208128
	H37	H	0.665877	0.097551	0.206215
	H38	H	0.335015	0.098564	0.778432
	H39	H	0.666073	0.903643	0.782986
	H40	H	0.898554	0.219401	0.330745
	H41	H	0.102779	0.215896	0.657977
	H42	H	0.100337	0.784879	0.330532
	H43	H	0.897699	0.782440	0.656469
	H44	H	0.214292	0.337864	0.896690
	H45	H	0.213950	0.663935	0.090296
	H46	H	0.785658	0.336916	0.091549
	H47	H	0.786203	0.664227	0.897139
	H48	H	0.417209	0.115050	0.594633
	H49	H	0.582015	0.886462	0.590286
	H50	H	0.593323	0.113432	0.403727
	H51	H	0.408758	0.884108	0.398117
	H52	H	0.590822	0.404110	0.110768
	H53	H	0.578682	0.602665	0.877415
	H54	H	0.412494	0.597341	0.110194
	H55	H	0.397598	0.404211	0.872567
	H56	H	0.120783	0.591399	0.389306
	H57	H	0.881692	0.599091	0.577214
	H58	H	0.118194	0.407676	0.587398
	H59	H	0.885485	0.409232	0.414085
	H60	H	0.119487	0.405746	0.588112
	H61	H	0.884609	0.583493	0.585102
	H62	H	0.120200	0.605657	0.404681
	H63	H	0.883991	0.417309	0.398108
	H64	H	0.402633	0.595439	0.113077
	H65	H	0.602086	0.601578	0.870419
	H66	H	0.590846	0.407565	0.110040
	H67	H	0.409009	0.414801	0.878869
	H68	H	0.594741	0.116657	0.396501
	H69	H	0.600871	0.884322	0.579446
	H70	H	0.408697	0.111606	0.575706
	H71	H	0.409636	0.885321	0.403109
	H72	H	0.903577	0.618411	0.092492
	H73	H	0.091392	0.388581	0.078835
	H74	H	0.092682	0.616759	0.899881
	H75	H	0.915479	0.390882	0.912567
	H76	H	0.091438	0.910729	0.609175
	H77	H	0.093958	0.088925	0.378252
	H78	H	0.913034	0.093555	0.609130
	H79	H	0.912389	0.906206	0.377202
	H80	H	0.616402	0.090259	0.902246
	H81	H	0.383810	0.088559	0.081284
	H82	H	0.621994	0.893436	0.084946
	H83	H	0.378737	0.902698	0.899043
	H84	H	0.612031	0.912935	0.074322
	H85	H	0.381276	0.090212	0.088658
	H86	H	0.619660	0.094992	0.897776
	H87	H	0.382824	0.907619	0.909293
	H88	H	0.907143	0.097491	0.611448
	H89	H	0.085604	0.095841	0.379212
	H90	H	0.087234	0.900245	0.610936
	H91	H	0.906948	0.904260	0.375723
	H92	H	0.092689	0.617170	0.897539
	H93	H	0.102129	0.381263	0.093311
	H94	H	0.909529	0.614738	0.087312
	H95	H	0.890317	0.380643	0.903908
	H96	H	0.396263	0.120107	0.591101
	H97	H	0.600589	0.878678	0.600378
	H98	H	0.588130	0.113499	0.398006
	H99	H	0.404765	0.883922	0.401521
	H100	H	0.587785	0.405391	0.108921
	H101	H	0.591001	0.582041	0.879482
	H102	H	0.408648	0.588275	0.108964
	H103	H	0.413846	0.399991	0.875488
	H104	H	0.114470	0.585908	0.408727
	H105	H	0.876746	0.596424	0.594311
	H106	H	0.118583	0.406088	0.585861
	H107	H	0.878055	0.400596	0.399581
	H108	H	0.901372	0.616908	0.084056
	H109	H	0.083119	0.385601	0.095932
	H110	H	0.091247	0.616566	0.899301
	H111	H	0.912493	0.382056	0.885902
	H112	H	0.098108	0.903441	0.613182
	H113	H	0.095156	0.099675	0.375382
	H114	H	0.906128	0.090187	0.610167
	H115	H	0.907289	0.910199	0.376881
	H116	H	0.618262	0.095825	0.904416
	H117	H	0.381750	0.095901	0.082850
	H118	H	0.619314	0.914037	0.096697
	H119	H	0.382215	0.913898	0.898727
	C120	C	0.378537	0.007938	0.616076
	C121	C	0.623011	0.991015	0.616635
	C122	C	0.622226	0.007517	0.370890
	C123	C	0.378176	0.991566	0.371172
	C124	C	0.620026	0.378265	0.001270
	C125	C	0.620086	0.622680	0.984414
	C126	C	0.378310	0.622304	0.002367
	C127	C	0.377789	0.377841	0.984211
	C128	C	0.008681	0.622568	0.372216
	C129	C	0.990628	0.620840	0.614059
	C130	C	0.008912	0.378102	0.615963
	C131	C	0.991603	0.379942	0.374229
	C132	C	0.876342	0.509075	0.117005
	C133	C	0.121056	0.492520	0.116360
	C134	C	0.121029	0.509140	0.871466
	C135	C	0.877152	0.492038	0.871699
	C136	C	0.121358	0.877607	0.502517
	C137	C	0.121447	0.122173	0.485937
	C138	C	0.878788	0.122829	0.502009
	C139	C	0.879396	0.878592	0.485167
	C140	C	0.508967	0.122025	0.871579
	C141	C	0.491242	0.120554	0.113578
	C142	C	0.508396	0.877933	0.114637
	C143	C	0.490916	0.879562	0.873241
	C144	C	0.380092	0.886136	0.672605
	C145	C	0.620782	0.113894	0.670367
	C146	C	0.621363	0.885735	0.315493
	C147	C	0.379661	0.113098	0.314599
	C148	C	0.674703	0.383474	0.877521
	C149	C	0.674193	0.617402	0.108649
	C150	C	0.323688	0.618603	0.878034
	C151	C	0.323886	0.381442	0.108573
	C152	C	0.884321	0.677718	0.373729
	C153	C	0.115438	0.675788	0.612751
	C154	C	0.884718	0.322594	0.614851
	C155	C	0.116213	0.324917	0.375388
	C156	C	0.883740	0.381262	0.669877
	C157	C	0.115776	0.617329	0.668517
	C158	C	0.883566	0.619678	0.318219
	C159	C	0.116427	0.383136	0.319278
	C160	C	0.378243	0.678908	0.879392
	C161	C	0.619783	0.677484	0.107841
	C162	C	0.619934	0.323636	0.878107
	C163	C	0.378072	0.320802	0.106890
	C164	C	0.677471	0.885199	0.375016
	C165	C	0.676717	0.114242	0.610827
	C166	C	0.323380	0.885579	0.613592
	C167	C	0.323168	0.114066	0.373873
	C168	C	0.878529	0.387040	0.173329
	C169	C	0.118826	0.615136	0.170459
	C170	C	0.119488	0.386691	0.816748
	C171	C	0.879415	0.614214	0.815681
	C172	C	0.175368	0.882574	0.378064
	C173	C	0.176259	0.116981	0.609950
	C174	C	0.824073	0.119584	0.378167
	C175	C	0.825453	0.882244	0.609305
	C176	C	0.384445	0.177000	0.871995
	C177	C	0.615279	0.177102	0.112916
	C178	C	0.383807	0.822584	0.113873
	C179	C	0.614958	0.823734	0.874210
	C180	C	0.383735	0.880416	0.169984
	C181	C	0.616118	0.118393	0.168866
	C182	C	0.384325	0.118943	0.816232
	C183	C	0.615970	0.882490	0.819144
	C184	C	0.879693	0.179655	0.379197
	C185	C	0.121357	0.177084	0.609132
	C186	C	0.119957	0.823068	0.379188
	C187	C	0.879281	0.821621	0.607824
	C188	C	0.176241	0.386486	0.875700
	C189	C	0.176440	0.615136	0.112143
	C190	C	0.822105	0.386205	0.113584
	C191	C	0.823136	0.615154	0.875394
	C192	C	0.400912	0.093464	0.593648
	C193	C	0.601060	0.905308	0.596163
	C194	C	0.598941	0.092514	0.392934
	C195	C	0.400899	0.906300	0.394208
	C196	C	0.596820	0.399435	0.087556
	C197	C	0.597461	0.601602	0.898244
	C198	C	0.401203	0.600214	0.088535
	C199	C	0.400165	0.399892	0.897925
	C200	C	0.095935	0.600718	0.394317
	C201	C	0.903625	0.599384	0.591903
	C202	C	0.096179	0.399909	0.593732
	C203	C	0.904881	0.402415	0.397138
	C204	C	0.898522	0.594457	0.094646
	C205	C	0.098684	0.407255	0.095577
	C206	C	0.098829	0.594467	0.892687
	C207	C	0.899482	0.406701	0.894257
	C208	C	0.098989	0.898583	0.588848
	C209	C	0.098227	0.101202	0.399989
	C210	C	0.902041	0.100256	0.588011
	C211	C	0.902093	0.900475	0.398738
	C212	C	0.595784	0.100196	0.894588
	C213	C	0.404800	0.098168	0.090924
	C214	C	0.595146	0.900055	0.091912
	C215	C	0.403719	0.901559	0.895696
	Zn216	Zn	0.500642	-0.000022	0.745371
	Zn217	Zn	0.500032	-0.000886	0.241368
	Zn218	Zn	0.747586	0.500421	-0.006408
	Zn219	Zn	0.250295	0.500703	-0.006336
	Zn220	Zn	-0.000373	0.749162	0.493759
	Zn221	Zn	0.000581	0.251677	0.494527
	Zn222	Zn	-0.000587	0.499936	0.741992
	Zn223	Zn	-0.000554	0.501176	0.246177
	Zn224	Zn	0.499321	0.751208	-0.006633
	Zn225	Zn	0.499336	0.249257	-0.007601
	Zn226	Zn	0.751026	-0.000562	0.493562
	Zn227	Zn	0.249453	-0.000184	0.493949
	N228	N	0.413887	0.963158	0.674198
	N229	N	0.588055	0.036397	0.674157
	N230	N	0.587594	0.962854	0.312830
	N231	N	0.413167	0.035864	0.313017
	N232	N	0.674926	0.416736	0.955279
	N233	N	0.674351	0.583734	0.031182
	N234	N	0.323495	0.584264	0.955501
	N235	N	0.323647	0.416443	0.031350
	N236	N	0.963194	0.679632	0.406578
	N237	N	0.036839	0.677959	0.579606
	N238	N	0.963531	0.320465	0.582155
	N239	N	0.037442	0.322843	0.408813
	N240	N	0.962078	0.415223	0.670686
	N241	N	0.037008	0.583986	0.669513
	N242	N	0.961916	0.586037	0.317212
	N243	N	0.038042	0.416750	0.318437
	N244	N	0.411506	0.681257	0.957564
	N245	N	0.586745	0.680896	0.029654
	N246	N	0.586533	0.320417	0.956117
	N247	N	0.410761	0.318418	0.028517
	N248	N	0.678320	0.962063	0.408496
	N249	N	0.678254	0.036941	0.578351
	N250	N	0.322428	0.962487	0.579077
	N251	N	0.322199	0.037348	0.408453
	N252	N	0.911213	0.464602	0.175872
	N253	N	0.085091	0.538024	0.173311
	N254	N	0.085864	0.463847	0.814148
	N255	N	0.912265	0.536581	0.813302
	N256	N	0.176350	0.915970	0.455732
	N257	N	0.176630	0.083547	0.532326
	N258	N	0.823356	0.085028	0.455523
	N259	N	0.825384	0.916920	0.531949
	N260	N	0.462803	0.178874	0.906014
	N261	N	0.536675	0.178613	0.079344
	N262	N	0.462174	0.821181	0.080086
	N263	N	0.536104	0.821937	0.907101
	N264	N	0.462224	0.914033	0.170783
	N265	N	0.538174	0.083702	0.169216
	N266	N	0.462780	0.085450	0.815852
	N267	N	0.537987	0.917044	0.819007
	N268	N	0.912692	0.181958	0.457405
	N269	N	0.087906	0.180376	0.530967
	N270	N	0.087161	0.819858	0.457438
	N271	N	0.912195	0.819271	0.529423
	N272	N	0.177167	0.463400	0.909294
	N273	N	0.177908	0.537950	0.079172
	N274	N	0.820729	0.462963	0.079182
	N275	N	0.821703	0.538258	0.909407
	O276	O	1.032210	1.093311	-0.017847
	H277	H	1.026247	1.094417	-0.010205
	H278	H	1.036767	1.100805	-0.015219
	O279	O	0.459611	-0.459585	1.446635
	H280	H	0.464056	-0.460590	1.439755
	H281	H	0.456115	-0.456972	1.450396
	O282	O	-0.028842	0.046485	0.025364
	H283	H	-0.028129	0.046198	0.020725
	H284	H	-0.029892	0.043825	0.027232
	O285	O	0.527746	0.432885	0.457929
	H286	H	0.521770	0.439414	0.462852
	H287	H	0.517561	0.440456	0.457652
	O288	O	-0.031233	0.046943	0.056088
	H289	H	-0.030830	0.052427	0.050273
	H290	H	-0.036820	0.041409	0.049060
	O291	O	0.006880	1.027335	0.011884
	H292	H	0.008620	1.023005	0.015666
	H293	H	0.004090	1.026262	0.000171
	O294	O	-0.040636	1.015292	-0.048338
	H295	H	-0.036873	1.025267	-0.060914
	H296	H	-0.037251	1.016162	-0.044882
	O297	O	0.557148	0.386039	0.429113
	H298	H	0.562676	0.382437	0.430655
	H299	H	0.556257	0.390447	0.430677
	O300	O	0.480766	0.538226	0.460178
	H301	H	0.478398	0.550387	0.448958
	H302	H	0.474078	0.545141	0.465012
	O303	O	1.014506	0.054039	1.027081
	H304	H	1.014126	0.060131	1.037546
	H305	H	1.020458	0.059725	1.031061
	O306	O	-0.021242	0.974895	0.947762
	H307	H	-0.016968	0.978231	0.944910
	H308	H	-0.020741	0.974328	0.948595
	O309	O	-0.039586	1.039918	1.020433
	H310	H	-0.037888	1.041647	1.009026
	H311	H	-0.038989	1.030481	1.027309
	O312	O	0.015762	-0.028620	1.040788
	H313	H	0.013769	-0.027450	1.043276
	H314	H	0.002602	-0.040140	1.036251
	O315	O	0.529357	0.474664	0.405134
	H316	H	0.539353	0.475674	0.401003
	H317	H	0.535059	0.475288	0.401915
	O318	O	0.011506	0.006077	0.984995
	H319	H	0.001542	-0.000062	0.977624
	H320	H	0.011742	0.008843	0.981579
	O321	O	0.522935	0.466048	0.472154
	H322	H	0.518034	0.464607	0.469229
	H323	H	0.519282	0.462489	0.478040
	O324	O	1.044105	0.007819	0.995503
	H325	H	1.042386	0.010203	1.001430
	H326	H	1.040149	0.009518	1.001317
	O327	O	0.977301	1.059301	1.022037
	H328	H	0.978741	1.050589	1.018770
	H329	H	0.986223	1.067079	1.035248
	O330	O	0.511362	0.441592	0.434489
	H331	H	0.508566	0.441377	0.437763
	H332	H	0.524306	0.443030	0.435007
	O333	O	0.486019	0.559148	0.494155
	H334	H	0.483619	0.553984	0.498052
	H335	H	0.490639	0.554835	0.491689
	O336	O	0.508845	0.507069	0.491258
	H337	H	0.515032	0.504973	0.485159
	H338	H	0.510760	0.500817	0.488595
	O339	O	0.482478	0.441436	0.481257
	H340	H	0.481271	0.437335	0.475712
	H341	H	0.488821	0.434085	0.480400
	O342	O	0.533671	0.524661	0.415394
	H343	H	0.540573	0.521419	0.418921
	H344	H	0.537563	0.520694	0.415416
	O345	O	0.521478	0.476942	0.499020
	H346	H	0.518755	0.473006	0.492587
	H347	H	0.517853	0.474017	0.494847
