data_Molecule from HDF5

_cell_length_a		16.279290
_cell_length_b		16.228723
_cell_length_c		16.199346
_cell_angle_alpha	89.971954
_cell_angle_beta	89.776201
_cell_angle_gamma	89.847795
_symmetry_space_group_name_H-M	'P 1'
_symmetry_Int_Tables_number		1

loop_
	_symmetry_equiv_pos_as_xyz
	x,y,z

loop_
	_atom_site_label
	_atom_site_type_symbol
	_atom_site_fract_x
	_atom_site_fract_y
	_atom_site_fract_z
	H0	H	0.402731	0.833411	0.709003
	H1	H	0.599260	0.162075	0.708352
	H2	H	0.600639	0.833578	0.279473
	H3	H	0.403370	0.161659	0.281077
	H4	H	0.718351	0.398116	0.830030
	H5	H	0.715777	0.596491	0.158611
	H6	H	0.287457	0.596984	0.830025
	H7	H	0.286262	0.397221	0.158048
	H8	H	0.839433	0.714231	0.393583
	H9	H	0.165851	0.710884	0.590246
	H10	H	0.837676	0.284073	0.594324
	H11	H	0.165051	0.281137	0.393739
	H12	H	0.837410	0.400699	0.708913
	H13	H	0.166326	0.595225	0.707103
	H14	H	0.839085	0.597839	0.279859
	H15	H	0.164915	0.397669	0.277843
	H16	H	0.403507	0.711794	0.830022
	H17	H	0.600346	0.710941	0.159501
	H18	H	0.601562	0.283921	0.829627
	H19	H	0.404570	0.285744	0.159514
	H20	H	0.718000	0.834615	0.391571
	H21	H	0.715681	0.161940	0.593091
	H22	H	0.286742	0.833119	0.594666
	H23	H	0.286793	0.160685	0.396163
	H24	H	0.903082	0.334137	0.209964
	H25	H	0.099447	0.662179	0.206881
	H26	H	0.100825	0.332979	0.779589
	H27	H	0.904454	0.662664	0.781660
	H28	H	0.217740	0.898009	0.330828
	H29	H	0.216416	0.097949	0.657376
	H30	H	0.787643	0.097449	0.328841
	H31	H	0.787104	0.899297	0.657519
	H32	H	0.337991	0.214189	0.895409
	H33	H	0.665637	0.211538	0.093033
	H34	H	0.338592	0.783201	0.093813
	H35	H	0.665465	0.782779	0.894746
	H36	H	0.337398	0.898609	0.208823
	H37	H	0.665880	0.093432	0.207928
	H38	H	0.336570	0.096345	0.781434
	H39	H	0.665330	0.899229	0.779762
	H40	H	0.901285	0.214277	0.330164
	H41	H	0.098415	0.210277	0.658538
	H42	H	0.102321	0.784131	0.329996
	H43	H	0.903726	0.784822	0.658052
	H44	H	0.218232	0.333721	0.893603
	H45	H	0.216667	0.661134	0.093589
	H46	H	0.785971	0.333926	0.095475
	H47	H	0.786282	0.661132	0.894143
	H48	H	0.404611	0.113881	0.582680
	H49	H	0.589180	0.885581	0.578925
	H50	H	0.600973	0.119403	0.394385
	H51	H	0.402941	0.877938	0.400878
	H52	H	0.594701	0.409742	0.109532
	H53	H	0.595170	0.581030	0.880252
	H54	H	0.412803	0.593998	0.111504
	H55	H	0.416399	0.409135	0.880031
	H56	H	0.113748	0.586020	0.415222
	H57	H	0.882450	0.590293	0.596912
	H58	H	0.119893	0.398257	0.587896
	H59	H	0.883914	0.403477	0.400086
	H60	H	0.116737	0.404303	0.582667
	H61	H	0.883581	0.599952	0.586316
	H62	H	0.118937	0.579734	0.389329
	H63	H	0.886642	0.405369	0.407035
	H64	H	0.402364	0.592402	0.113923
	H65	H	0.587226	0.594774	0.878586
	H66	H	0.590508	0.402748	0.110868
	H67	H	0.409794	0.396728	0.874507
	H68	H	0.585284	0.112412	0.397222
	H69	H	0.603507	0.878650	0.584475
	H70	H	0.406677	0.115627	0.590651
	H71	H	0.411530	0.879324	0.396672
	H72	H	0.902534	0.614038	0.079825
	H73	H	0.095099	0.382441	0.080640
	H74	H	0.108206	0.618763	0.899794
	H75	H	0.910178	0.382192	0.903428
	H76	H	0.093008	0.902210	0.612273
	H77	H	0.084433	0.090431	0.379669
	H78	H	0.910403	0.083680	0.607269
	H79	H	0.913200	0.899841	0.375026
	H80	H	0.617104	0.087237	0.899061
	H81	H	0.384877	0.091029	0.086819
	H82	H	0.615925	0.909090	0.086194
	H83	H	0.384401	0.904801	0.899977
	H84	H	0.620327	0.902120	0.093468
	H85	H	0.384692	0.091183	0.088325
	H86	H	0.619256	0.092795	0.898874
	H87	H	0.384228	0.901758	0.902611
	H88	H	0.911762	0.096578	0.611167
	H89	H	0.099761	0.097437	0.372780
	H90	H	0.095203	0.904077	0.612506
	H91	H	0.901996	0.904833	0.373846
	H92	H	0.088308	0.616061	0.890429
	H93	H	0.097462	0.379120	0.089135
	H94	H	0.905426	0.617494	0.095014
	H95	H	0.908022	0.379543	0.902431
	H96	H	0.411967	0.112622	0.585341
	H97	H	0.590304	0.880024	0.594403
	H98	H	0.596340	0.112470	0.409750
	H99	H	0.410490	0.881626	0.406308
	H100	H	0.598817	0.403146	0.113198
	H101	H	0.602606	0.593756	0.873165
	H102	H	0.408659	0.584816	0.109865
	H103	H	0.402131	0.409264	0.875007
	H104	H	0.124233	0.605478	0.398381
	H105	H	0.887733	0.585537	0.583547
	H106	H	0.118728	0.405684	0.590509
	H107	H	0.886709	0.411094	0.401601
	H108	H	0.917144	0.611480	0.085062
	H109	H	0.089075	0.381178	0.087593
	H110	H	0.090957	0.610037	0.911299
	H111	H	0.910734	0.380726	0.900844
	H112	H	0.092669	0.905515	0.611954
	H113	H	0.099244	0.080309	0.377467
	H114	H	0.900577	0.089836	0.612786
	H115	H	0.910865	0.911390	0.378785
	H116	H	0.617140	0.090606	0.903458
	H117	H	0.385444	0.091758	0.087250
	H118	H	0.619111	0.898965	0.082971
	H119	H	0.385666	0.905237	0.903826
	C120	C	0.379516	0.005727	0.615598
	C121	C	0.623145	0.989525	0.615585
	C122	C	0.622654	0.006163	0.372150
	C123	C	0.379525	0.988003	0.372513
	C124	C	0.624379	0.376038	0.002842
	C125	C	0.623603	0.618836	0.986142
	C126	C	0.380108	0.618944	0.002938
	C127	C	0.380593	0.376195	0.985211
	C128	C	0.010976	0.619609	0.372244
	C129	C	0.993275	0.619872	0.616269
	C130	C	0.009998	0.375256	0.616204
	C131	C	0.993584	0.376561	0.372835
	C132	C	0.879601	0.506353	0.116228
	C133	C	0.122906	0.489033	0.114998
	C134	C	0.124201	0.506234	0.871850
	C135	C	0.880803	0.489114	0.873114
	C136	C	0.123003	0.876034	0.503474
	C137	C	0.122198	0.118204	0.485363
	C138	C	0.878887	0.119455	0.501831
	C139	C	0.880066	0.876290	0.484573
	C140	C	0.509555	0.119683	0.872476
	C141	C	0.493329	0.118808	0.115876
	C142	C	0.510377	0.875212	0.116675
	C143	C	0.493173	0.875542	0.873016
	C144	C	0.382265	0.882280	0.671322
	C145	C	0.620074	0.112992	0.670671
	C146	C	0.620824	0.882513	0.317142
	C147	C	0.382309	0.112317	0.318015
	C148	C	0.679965	0.378294	0.878954
	C149	C	0.678206	0.616722	0.109639
	C150	C	0.325711	0.616737	0.879101
	C151	C	0.324891	0.377886	0.109279
	C152	C	0.888162	0.675828	0.373774
	C153	C	0.116824	0.673602	0.611594
	C154	C	0.886573	0.321568	0.614276
	C155	C	0.116183	0.319568	0.373749
	C156	C	0.886590	0.379623	0.671374
	C157	C	0.117062	0.616089	0.669668
	C158	C	0.887853	0.617368	0.317735
	C159	C	0.116137	0.377447	0.316220
	C160	C	0.383277	0.674136	0.879203
	C161	C	0.620691	0.673658	0.109919
	C162	C	0.622368	0.321164	0.878951
	C163	C	0.383518	0.322068	0.109748
	C164	C	0.679196	0.883228	0.372967
	C165	C	0.678087	0.112730	0.613359
	C166	C	0.324302	0.882282	0.614609
	C167	C	0.324286	0.111851	0.375205
	C168	C	0.881970	0.383096	0.172423
	C169	C	0.120393	0.612801	0.169779
	C170	C	0.121367	0.382302	0.817108
	C171	C	0.883605	0.613080	0.818529
	C172	C	0.179378	0.878560	0.379816
	C173	C	0.177751	0.117325	0.608761
	C174	C	0.824380	0.117817	0.378351
	C175	C	0.824638	0.878576	0.608367
	C176	C	0.386699	0.175768	0.875151
	C177	C	0.616854	0.173203	0.113284
	C178	C	0.387152	0.820882	0.114076
	C179	C	0.616367	0.820377	0.874670
	C180	C	0.386640	0.878399	0.171389
	C181	C	0.616749	0.115218	0.170806
	C182	C	0.385891	0.117113	0.818458
	C183	C	0.616504	0.878663	0.817791
	C184	C	0.881081	0.175774	0.378843
	C185	C	0.119329	0.173368	0.609185
	C186	C	0.121890	0.822006	0.379206
	C187	C	0.882857	0.821831	0.608594
	C188	C	0.179697	0.382618	0.873626
	C189	C	0.178525	0.612226	0.113283
	C190	C	0.824001	0.383018	0.115359
	C191	C	0.825005	0.612522	0.874593
	C192	C	0.401281	0.091755	0.592966
	C193	C	0.600860	0.903395	0.592739
	C194	C	0.600491	0.092399	0.394050
	C195	C	0.401901	0.902013	0.394668
	C196	C	0.601395	0.398524	0.088894
	C197	C	0.601469	0.596417	0.899596
	C198	C	0.401627	0.596887	0.089500
	C199	C	0.402775	0.398552	0.899021
	C200	C	0.097023	0.596923	0.394404
	C201	C	0.906977	0.598481	0.595061
	C202	C	0.096375	0.396364	0.593787
	C203	C	0.908001	0.399699	0.396180
	C204	C	0.901837	0.592081	0.093394
	C205	C	0.100635	0.403082	0.092336
	C206	C	0.102350	0.592552	0.894007
	C207	C	0.903114	0.403028	0.895650
	C208	C	0.100475	0.897744	0.589727
	C209	C	0.100601	0.095984	0.399174
	C210	C	0.901030	0.096762	0.588320
	C211	C	0.902327	0.898558	0.398174
	C212	C	0.595665	0.097105	0.894193
	C213	C	0.407412	0.097664	0.093923
	C214	C	0.596331	0.896947	0.094342
	C215	C	0.406992	0.897612	0.895500
	Zn216	Zn	0.500818	-0.002178	0.744138
	Zn217	Zn	0.501409	-0.003260	0.244575
	Zn218	Zn	0.751995	0.497491	-0.005792
	Zn219	Zn	0.252024	0.497088	-0.005859
	Zn220	Zn	0.001983	0.748123	0.493149
	Zn221	Zn	0.001217	0.246781	0.494051
	Zn222	Zn	0.001908	0.497625	0.744743
	Zn223	Zn	0.002001	0.498424	0.243979
	Zn224	Zn	0.501983	0.747192	-0.005231
	Zn225	Zn	0.501998	0.248459	-0.005650
	Zn226	Zn	0.751196	-0.002119	0.493062
	Zn227	Zn	0.250910	-0.003322	0.494611
	N228	N	0.415675	0.960085	0.672196
	N229	N	0.586393	0.035333	0.671973
	N230	N	0.586424	0.959946	0.316293
	N231	N	0.415773	0.034388	0.316115
	N232	N	0.681326	0.411683	0.957128
	N233	N	0.680075	0.583390	0.031653
	N234	N	0.323533	0.583130	0.957031
	N235	N	0.322822	0.410836	0.030951
	N236	N	0.965779	0.676925	0.407250
	N237	N	0.038839	0.676090	0.579151
	N238	N	0.964351	0.318598	0.580833
	N239	N	0.038887	0.318881	0.408364
	N240	N	0.964419	0.412367	0.672575
	N241	N	0.039295	0.583209	0.672490
	N242	N	0.965311	0.583162	0.316607
	N243	N	0.038961	0.412127	0.315552
	N244	N	0.416507	0.675596	0.957201
	N245	N	0.587450	0.675178	0.031860
	N246	N	0.588629	0.319471	0.956849
	N247	N	0.417572	0.321119	0.031870
	N248	N	0.680079	0.961018	0.406829
	N249	N	0.680010	0.034864	0.579791
	N250	N	0.322371	0.960094	0.580718
	N251	N	0.322661	0.033948	0.408579
	N252	N	0.915999	0.460692	0.173107
	N253	N	0.086336	0.535428	0.170748
	N254	N	0.087575	0.460136	0.815923
	N255	N	0.917869	0.535546	0.817802
	N256	N	0.180002	0.911612	0.457971
	N257	N	0.179764	0.083611	0.530869
	N258	N	0.823058	0.083509	0.456076
	N259	N	0.822726	0.911634	0.530200
	N260	N	0.464647	0.177424	0.907891
	N261	N	0.539043	0.175896	0.079966
	N262	N	0.464951	0.818762	0.080826
	N263	N	0.538629	0.818359	0.908304
	N264	N	0.464340	0.911612	0.172919
	N265	N	0.539117	0.082180	0.172565
	N266	N	0.463334	0.082910	0.816659
	N267	N	0.538761	0.912204	0.816567
	N268	N	0.914125	0.177094	0.456800
	N269	N	0.085497	0.174012	0.531453
	N270	N	0.087578	0.820102	0.456905
	N271	N	0.916480	0.820191	0.530456
	N272	N	0.181523	0.460588	0.907224
	N273	N	0.180194	0.534308	0.079759
	N274	N	0.822417	0.460474	0.081134
	N275	N	0.823306	0.534636	0.908148
	O276	O	1.017383	0.967194	-0.020582
	H277	H	1.018660	0.963232	-0.009258
	H278	H	1.015811	0.969425	-0.019925
	O279	O	0.475074	-0.512677	1.481139
	H280	H	0.476471	-0.512377	1.477255
	H281	H	0.474682	-0.513638	1.477174
	O282	O	0.042381	-0.055335	0.044450
	H283	H	0.043720	-0.059076	0.042278
	H284	H	0.045664	-0.059441	0.054073
	O285	O	0.511969	0.485573	0.502823
	H286	H	0.517298	0.491173	0.508648
	H287	H	0.508662	0.479414	0.491557
	O288	O	-0.026743	-0.011939	-0.008309
	H289	H	-0.017330	-0.026851	-0.005673
	H290	H	-0.024493	-0.003813	-0.021188
	O291	O	-0.011095	1.078452	-0.029152
	H292	H	-0.029697	1.060887	-0.029509
	H293	H	-0.011527	1.078475	-0.028545
	O294	O	-0.022121	0.994001	-0.003148
	H295	H	-0.013529	1.004903	0.002228
	H296	H	-0.012766	0.998829	-0.005155
	O297	O	0.483699	0.485902	0.537366
	H298	H	0.472523	0.480001	0.535774
	H299	H	0.486828	0.484998	0.550671
	O300	O	0.536225	0.468546	0.481024
	H301	H	0.531660	0.471485	0.484490
	H302	H	0.535054	0.476650	0.484609
	O303	O	0.942520	0.042077	0.984881
	H304	H	0.946379	0.037533	0.991141
	H305	H	0.937027	0.033388	0.983532
	O306	O	0.039002	1.054178	1.010046
	H307	H	0.037310	1.048933	1.006451
	H308	H	0.031100	1.069434	1.010280
	O309	O	-0.047470	0.982558	1.058722
	H310	H	-0.051121	0.979837	1.050326
	H311	H	-0.035651	0.983214	1.060496
	O312	O	0.058481	0.052840	0.944604
	H313	H	0.056066	0.062629	0.934940
	H314	H	0.062709	0.056306	0.945406
	O315	O	0.537436	0.511914	0.531677
	H316	H	0.532900	0.508393	0.527624
	H317	H	0.532799	0.501668	0.524894
	O318	O	-0.093842	0.048710	1.002405
	H319	H	-0.103596	0.051885	1.002017
	H320	H	-0.105398	0.060537	0.993516
	O321	O	0.078921	0.945965	0.099783
	H322	H	0.083470	0.952565	0.095789
	H323	H	0.072229	0.947557	0.095273
	O324	O	0.988463	0.031468	0.960295
	H325	H	0.995846	0.028787	0.963667
	H326	H	0.986331	0.035276	0.974493
	O327	O	1.040547	1.024717	0.959035
	H328	H	1.028571	1.038008	0.956274
	H329	H	1.042307	1.029742	0.952866
	O330	O	0.507126	0.534315	0.553509
	H331	H	0.506471	0.531307	0.555699
	H332	H	0.503205	0.542111	0.565308
	O333	O	0.544799	0.484711	0.474536
	H334	H	0.554085	0.485717	0.468393
	H335	H	0.552483	0.493013	0.483427
	O336	O	0.522524	0.470368	0.440602
	H337	H	0.529384	0.475638	0.447346
	H338	H	0.518795	0.473956	0.439581
	O339	O	0.538537	0.504780	0.512664
	H340	H	0.542624	0.495046	0.511895
	H341	H	0.546255	0.503943	0.497508
	O342	O	0.555475	0.456163	0.473629
	H343	H	0.557437	0.454636	0.470560
	H344	H	0.557305	0.458793	0.475208
	O345	O	0.553612	0.484297	0.490753
	H346	H	0.559003	0.487609	0.491627
	H347	H	0.553557	0.474335	0.490442
