data_Molecule from HDF5

_cell_length_a		16.199389
_cell_length_b		16.308491
_cell_length_c		16.167194
_cell_angle_alpha	89.905950
_cell_angle_beta	89.531106
_cell_angle_gamma	89.886312
_symmetry_space_group_name_H-M	'P 1'
_symmetry_Int_Tables_number		1

loop_
	_symmetry_equiv_pos_as_xyz
	x,y,z

loop_
	_atom_site_label
	_atom_site_type_symbol
	_atom_site_fract_x
	_atom_site_fract_y
	_atom_site_fract_z
	H0	H	0.401461	0.830690	0.722137
	H1	H	0.596869	0.158885	0.719714
	H2	H	0.601643	0.831245	0.291212
	H3	H	0.403343	0.158212	0.293022
	H4	H	0.717460	0.397291	0.839986
	H5	H	0.717090	0.592866	0.169497
	H6	H	0.292700	0.593948	0.839925
	H7	H	0.286411	0.395627	0.169397
	H8	H	0.838678	0.711291	0.402963
	H9	H	0.165336	0.710158	0.602099
	H10	H	0.836652	0.281611	0.605095
	H11	H	0.164019	0.276896	0.401026
	H12	H	0.838253	0.396295	0.720835
	H13	H	0.166586	0.592787	0.715011
	H14	H	0.837319	0.592866	0.291010
	H15	H	0.166266	0.396068	0.288867
	H16	H	0.404896	0.710597	0.842596
	H17	H	0.603505	0.708702	0.169337
	H18	H	0.604276	0.278887	0.841294
	H19	H	0.401820	0.280759	0.170710
	H20	H	0.717841	0.832234	0.404966
	H21	H	0.715348	0.158233	0.604750
	H22	H	0.284421	0.831273	0.608487
	H23	H	0.288380	0.158155	0.411029
	H24	H	0.903241	0.332020	0.219523
	H25	H	0.102619	0.657632	0.217851
	H26	H	0.103255	0.330521	0.787729
	H27	H	0.906010	0.659035	0.790999
	H28	H	0.217223	0.896441	0.341760
	H29	H	0.210149	0.091723	0.671273
	H30	H	0.788517	0.092974	0.340708
	H31	H	0.786039	0.895517	0.669796
	H32	H	0.339239	0.212690	0.905605
	H33	H	0.665309	0.208850	0.106211
	H34	H	0.339563	0.775887	0.110572
	H35	H	0.666321	0.779260	0.904013
	H36	H	0.337297	0.895761	0.222023
	H37	H	0.665852	0.092128	0.218798
	H38	H	0.336005	0.093456	0.794748
	H39	H	0.664732	0.895638	0.789459
	H40	H	0.900923	0.210242	0.340167
	H41	H	0.098953	0.210585	0.667916
	H42	H	0.103414	0.781331	0.340502
	H43	H	0.898211	0.777060	0.667655
	H44	H	0.221554	0.331254	0.902226
	H45	H	0.216644	0.658081	0.100933
	H46	H	0.787827	0.332111	0.104817
	H47	H	0.786815	0.657656	0.903208
	H48	H	0.402694	0.110721	0.598499
	H49	H	0.591516	0.878642	0.599845
	H50	H	0.593456	0.112905	0.405009
	H51	H	0.412960	0.879234	0.415509
	H52	H	0.594667	0.405865	0.121853
	H53	H	0.599667	0.586542	0.886800
	H54	H	0.410571	0.590980	0.124437
	H55	H	0.411464	0.393650	0.885497
	H56	H	0.122395	0.597444	0.410099
	H57	H	0.882171	0.597995	0.592311
	H58	H	0.115155	0.404667	0.586667
	H59	H	0.883590	0.401903	0.410412
	H60	H	0.120167	0.405166	0.601839
	H61	H	0.889173	0.578543	0.589433
	H62	H	0.115258	0.583636	0.418383
	H63	H	0.883889	0.401204	0.412244
	H64	H	0.404041	0.582707	0.123441
	H65	H	0.593154	0.583986	0.889168
	H66	H	0.591119	0.397245	0.122864
	H67	H	0.407285	0.407597	0.887171
	H68	H	0.590076	0.108782	0.416631
	H69	H	0.593140	0.879334	0.595578
	H70	H	0.404173	0.112035	0.604123
	H71	H	0.405995	0.877490	0.417855
	H72	H	0.912208	0.610706	0.094415
	H73	H	0.094780	0.378164	0.096980
	H74	H	0.106753	0.613567	0.909570
	H75	H	0.904952	0.378368	0.919014
	H76	H	0.095121	0.905571	0.623358
	H77	H	0.092568	0.086620	0.388041
	H78	H	0.907054	0.078059	0.619903
	H79	H	0.911379	0.906367	0.388504
	H80	H	0.618261	0.086792	0.914836
	H81	H	0.381254	0.091693	0.103906
	H82	H	0.616422	0.905839	0.094751
	H83	H	0.389355	0.907786	0.924661
	H84	H	0.621104	0.901008	0.105577
	H85	H	0.385324	0.089245	0.093268
	H86	H	0.618086	0.084603	0.911698
	H87	H	0.382127	0.904302	0.906648
	H88	H	0.917059	0.093366	0.620435
	H89	H	0.095733	0.089650	0.386113
	H90	H	0.084299	0.900986	0.619950
	H91	H	0.912702	0.899991	0.386994
	H92	H	0.093761	0.611552	0.901319
	H93	H	0.093866	0.378527	0.094369
	H94	H	0.906053	0.612458	0.096060
	H95	H	0.908238	0.375655	0.902929
	H96	H	0.408561	0.110139	0.600428
	H97	H	0.595982	0.878395	0.597734
	H98	H	0.601183	0.112934	0.414654
	H99	H	0.408088	0.877007	0.411153
	H100	H	0.600462	0.398672	0.124962
	H101	H	0.592993	0.590143	0.888329
	H102	H	0.414424	0.581738	0.120781
	H103	H	0.421266	0.403352	0.890669
	H104	H	0.120326	0.582605	0.402044
	H105	H	0.881764	0.585609	0.608787
	H106	H	0.120840	0.392278	0.592904
	H107	H	0.884517	0.403416	0.412234
	H108	H	0.911575	0.612040	0.099832
	H109	H	0.096838	0.378522	0.094863
	H110	H	0.093896	0.607567	0.915688
	H111	H	0.920423	0.382132	0.913345
	H112	H	0.093393	0.893703	0.626267
	H113	H	0.096769	0.084912	0.386351
	H114	H	0.899847	0.093474	0.627230
	H115	H	0.906790	0.902838	0.386047
	H116	H	0.619725	0.087111	0.911000
	H117	H	0.384792	0.082369	0.101802
	H118	H	0.621052	0.893356	0.095022
	H119	H	0.382425	0.891422	0.919796
	C120	C	0.376646	0.003064	0.630237
	C121	C	0.621740	0.986592	0.626971
	C122	C	0.624214	0.003765	0.383112
	C123	C	0.380235	0.986069	0.385915
	C124	C	0.625205	0.371958	0.014155
	C125	C	0.624484	0.615812	0.996661
	C126	C	0.381865	0.615273	0.014151
	C127	C	0.382352	0.373088	0.996936
	C128	C	0.010868	0.616794	0.381538
	C129	C	0.993086	0.616158	0.624898
	C130	C	0.010226	0.372663	0.624719
	C131	C	0.992623	0.373040	0.381753
	C132	C	0.880756	0.503869	0.125977
	C133	C	0.124384	0.485953	0.124453
	C134	C	0.127061	0.502643	0.880074
	C135	C	0.882114	0.486519	0.882790
	C136	C	0.122206	0.872288	0.514461
	C137	C	0.121884	0.115942	0.495912
	C138	C	0.879751	0.116491	0.513785
	C139	C	0.879732	0.873222	0.495820
	C140	C	0.510191	0.116039	0.884676
	C141	C	0.492523	0.115698	0.127728
	C142	C	0.511178	0.871713	0.128455
	C143	C	0.492927	0.872307	0.886067
	C144	C	0.380162	0.879763	0.685059
	C145	C	0.618135	0.109866	0.682202
	C146	C	0.621924	0.880584	0.328241
	C147	C	0.383061	0.109325	0.331001
	C148	C	0.680496	0.375393	0.889695
	C149	C	0.679789	0.613737	0.120309
	C150	C	0.328973	0.613785	0.889753
	C151	C	0.324543	0.375022	0.120201
	C152	C	0.887275	0.672410	0.383853
	C153	C	0.116527	0.671624	0.622153
	C154	C	0.886206	0.318752	0.624406
	C155	C	0.115471	0.316133	0.382211
	C156	C	0.887000	0.375614	0.682412
	C157	C	0.117137	0.613280	0.678372
	C158	C	0.886772	0.613694	0.327852
	C159	C	0.116696	0.375550	0.326397
	C160	C	0.384856	0.671726	0.890993
	C161	C	0.622915	0.670918	0.120348
	C162	C	0.624215	0.316549	0.890608
	C163	C	0.382107	0.318087	0.120908
	C164	C	0.680089	0.881047	0.384875
	C165	C	0.677058	0.109526	0.625208
	C166	C	0.321949	0.880118	0.628351
	C167	C	0.325422	0.109140	0.389298
	C168	C	0.882955	0.380920	0.181765
	C169	C	0.122567	0.608951	0.179796
	C170	C	0.123785	0.379535	0.825440
	C171	C	0.884958	0.609764	0.827795
	C172	C	0.179376	0.875530	0.390970
	C173	C	0.174460	0.112977	0.620872
	C174	C	0.825326	0.113975	0.389706
	C175	C	0.823582	0.874872	0.620097
	C176	C	0.387319	0.173176	0.886535
	C177	C	0.616222	0.170919	0.125924
	C178	C	0.387987	0.815209	0.128914
	C179	C	0.616588	0.816883	0.884999
	C180	C	0.386992	0.874705	0.184417
	C181	C	0.616537	0.112744	0.181851
	C182	C	0.385663	0.113757	0.831503
	C183	C	0.616015	0.874651	0.827909
	C184	C	0.881386	0.171957	0.389616
	C185	C	0.119207	0.172145	0.619229
	C186	C	0.122760	0.818229	0.390207
	C187	C	0.879446	0.815933	0.618874
	C188	C	0.182735	0.379948	0.882266
	C189	C	0.179182	0.609126	0.121453
	C190	C	0.825546	0.380783	0.124520
	C191	C	0.826095	0.609275	0.884267
	C192	C	0.398784	0.088960	0.607869
	C193	C	0.599860	0.901119	0.604388
	C194	C	0.601446	0.089364	0.405457
	C195	C	0.402693	0.900113	0.408182
	C196	C	0.602295	0.394054	0.100909
	C197	C	0.601955	0.593484	0.910465
	C198	C	0.403279	0.592031	0.100684
	C199	C	0.406521	0.395032	0.910294
	C200	C	0.097005	0.594580	0.403809
	C201	C	0.906818	0.593997	0.603281
	C202	C	0.096477	0.394273	0.601004
	C203	C	0.906338	0.395401	0.404911
	C204	C	0.903341	0.589566	0.103345
	C205	C	0.101881	0.400575	0.102043
	C206	C	0.104718	0.588632	0.902150
	C207	C	0.904557	0.400833	0.905233
	C208	C	0.097932	0.893988	0.600766
	C209	C	0.101231	0.093541	0.409303
	C210	C	0.901527	0.094705	0.600261
	C211	C	0.903439	0.896223	0.409629
	C212	C	0.596277	0.093105	0.906126
	C213	C	0.406260	0.094136	0.106143
	C214	C	0.597224	0.893457	0.105065
	C215	C	0.407016	0.894489	0.910140
	Zn216	Zn	0.499754	-0.005855	0.757338
	Zn217	Zn	0.501836	-0.005383	0.255593
	Zn218	Zn	0.752668	0.495080	0.005039
	Zn219	Zn	0.254389	0.494527	0.004004
	Zn220	Zn	0.001587	0.744787	0.503769
	Zn221	Zn	0.000549	0.244218	0.503894
	Zn222	Zn	0.003241	0.494427	0.753042
	Zn223	Zn	0.002356	0.495243	0.253462
	Zn224	Zn	0.502554	0.743192	0.006515
	Zn225	Zn	0.502163	0.243907	0.006291
	Zn226	Zn	0.751826	-0.004722	0.505327
	Zn227	Zn	0.249507	-0.006189	0.507172
	N228	N	0.413289	0.957297	0.686449
	N229	N	0.584631	0.032358	0.683597
	N230	N	0.587818	0.957821	0.327104
	N231	N	0.416159	0.031554	0.328789
	N232	N	0.681425	0.408846	0.967824
	N233	N	0.680671	0.579950	0.042357
	N234	N	0.327208	0.579193	0.967484
	N235	N	0.324505	0.408306	0.041937
	N236	N	0.965615	0.674538	0.416355
	N237	N	0.038431	0.673501	0.589493
	N238	N	0.963856	0.316921	0.589378
	N239	N	0.037211	0.314550	0.415903
	N240	N	0.965072	0.408693	0.682609
	N241	N	0.039499	0.579432	0.680050
	N242	N	0.964576	0.579876	0.326213
	N243	N	0.039295	0.410141	0.326067
	N244	N	0.416957	0.672785	0.969426
	N245	N	0.589436	0.672472	0.042402
	N246	N	0.590720	0.314210	0.969192
	N247	N	0.417077	0.316664	0.042961
	N248	N	0.681675	0.958498	0.418370
	N249	N	0.679347	0.032040	0.591648
	N250	N	0.319648	0.957888	0.595046
	N251	N	0.323764	0.031587	0.422941
	N252	N	0.916477	0.458328	0.182737
	N253	N	0.088971	0.531495	0.181767
	N254	N	0.090079	0.457040	0.823944
	N255	N	0.919255	0.532377	0.826901
	N256	N	0.179277	0.908153	0.469360
	N257	N	0.176279	0.078484	0.543140
	N258	N	0.824042	0.080032	0.467838
	N259	N	0.823573	0.909879	0.542456
	N260	N	0.465596	0.174729	0.918796
	N261	N	0.538215	0.172963	0.092938
	N262	N	0.466245	0.812945	0.095009
	N263	N	0.539064	0.815352	0.920531
	N264	N	0.464457	0.909197	0.184230
	N265	N	0.538739	0.079130	0.183120
	N266	N	0.463173	0.078867	0.830108
	N267	N	0.538124	0.908345	0.828102
	N268	N	0.914417	0.173694	0.467692
	N269	N	0.087299	0.173903	0.540748
	N270	N	0.087716	0.816177	0.467986
	N271	N	0.913336	0.814560	0.540571
	N272	N	0.184988	0.457612	0.915428
	N273	N	0.180311	0.531799	0.087687
	N274	N	0.824137	0.458194	0.090411
	N275	N	0.823770	0.531636	0.917529
	O276	O	0.502288	0.557552	0.449336
	H277	H	0.514516	0.560967	0.446561
	H278	H	0.489999	0.564600	0.440510
	O279	O	0.538928	0.412729	0.498821
	H280	H	0.553774	0.416480	0.492299
	H281	H	0.540986	0.423136	0.503300
	O282	O	0.995609	1.017815	0.016504
	H283	H	1.006695	1.018618	0.022634
	H284	H	1.010971	1.013798	0.014143
	O285	O	1.068026	-0.087050	1.008312
	H286	H	1.072728	-0.073902	1.009183
	H287	H	1.064436	-0.079847	1.019791
	O288	O	0.555619	0.568706	0.479385
	H289	H	0.567498	0.567318	0.477905
	H290	H	0.550723	0.568064	0.470638
	O291	O	0.431485	0.449734	0.556563
	H292	H	0.441502	0.450611	0.548564
	H293	H	0.418981	0.444568	0.567144
	O294	O	0.515997	0.397328	0.521176
	H295	H	0.523222	0.392845	0.510581
	H296	H	0.525422	0.395855	0.516631
	O297	O	-0.102802	-0.128831	0.987029
	H298	H	-0.096069	-0.128336	0.986020
	H299	H	-0.095946	-0.130034	0.978934
	O300	O	0.483271	0.451845	0.613669
	H301	H	0.484959	0.452388	0.619849
	H302	H	0.492509	0.445658	0.607591
	O303	O	0.858793	1.169909	-0.067981
	H304	H	0.843482	1.177478	-0.068987
	H305	H	0.866340	1.166395	-0.055714
	O306	O	-0.000715	1.071870	1.121622
	H307	H	0.001702	1.065605	1.137331
	H308	H	0.006515	1.082124	1.111244
	O309	O	0.409211	0.497182	0.525236
	H310	H	0.408146	0.498974	0.513945
	H311	H	0.410916	0.502912	0.530692
	O312	O	0.124971	0.028592	-0.050512
	H313	H	0.116809	0.029951	-0.054528
	H314	H	0.123565	0.022260	-0.039720
	O315	O	1.085092	0.023120	0.028836
	H316	H	1.077195	0.017584	0.023752
	H317	H	1.082105	0.032198	0.019408
	O318	O	1.047735	0.908894	1.094816
	H319	H	1.050363	0.911324	1.104977
	H320	H	1.041355	0.907027	1.091757
	O321	O	-0.079867	-0.020573	1.035830
	H322	H	-0.086520	-0.006824	1.042761
	H323	H	-0.095717	-0.014824	1.027102
	O324	O	0.483188	0.484395	0.484323
	H325	H	0.486623	0.476483	0.491292
	H326	H	0.474315	0.485794	0.478483
	O327	O	-0.168880	-0.086274	-0.051041
	H328	H	-0.167008	-0.078430	-0.061935
	H329	H	-0.185694	-0.077170	-0.039680
	O330	O	0.412597	0.512542	0.481989
	H331	H	0.406721	0.505294	0.489028
	H332	H	0.410482	0.507069	0.477302
	O333	O	-0.049821	0.946826	0.825514
	H334	H	-0.054664	0.945449	0.826358
	H335	H	-0.038784	0.944684	0.820856
	O336	O	0.084170	-0.000018	0.006405
	H337	H	0.085555	-0.007277	-0.000231
	H338	H	0.095914	-0.008614	0.010076
	O339	O	0.602212	0.534296	0.439792
	H340	H	0.603795	0.534462	0.444672
	H341	H	0.592537	0.550405	0.432075
	O342	O	1.067063	0.942344	0.969026
	H343	H	1.070619	0.934816	0.962890
	H344	H	1.068018	0.947691	0.978633
	O345	O	0.451575	1.592227	-0.509448
	H346	H	0.448363	1.602440	-0.508973
	H347	H	0.447062	1.582405	-0.511961
	O348	O	0.490912	0.493606	0.498184
	H349	H	0.496004	0.496406	0.497761
	H350	H	0.488016	0.498114	0.498749
	O351	O	0.489712	0.447641	0.415278
	H352	H	0.484974	0.441715	0.412498
	H353	H	0.485764	0.444030	0.423396
	O354	O	0.529988	0.548116	0.490895
	H355	H	0.528522	0.542827	0.505542
	H356	H	0.525407	0.557064	0.503560
	O357	O	1.166205	0.048798	0.931068
	H358	H	1.163623	0.044096	0.934808
	H359	H	1.175264	0.047525	0.941442
	O360	O	0.506621	0.543581	0.591252
	H361	H	0.494013	0.537141	0.593708
	H362	H	0.505768	0.542166	0.595470
	O363	O	0.438203	0.480534	0.579662
	H364	H	0.432566	0.479626	0.583903
	H365	H	0.424472	0.484403	0.589555
	O366	O	1.049373	1.051373	0.965260
	H367	H	1.059709	1.039654	0.969393
	H368	H	1.050598	1.055590	0.947626
	O369	O	0.899860	-0.005413	1.073491
	H370	H	0.886424	0.000634	1.063944
	H371	H	0.901371	0.000728	1.074638
	O372	O	0.037773	0.087298	0.100523
	H373	H	0.034606	0.082835	0.100276
	H374	H	0.024988	0.085190	0.103445
	O375	O	0.867896	0.076534	-0.034297
	H376	H	0.861994	0.091621	-0.055223
	H377	H	0.860700	0.089773	-0.018174
	O378	O	0.505299	0.593011	0.566863
	H379	H	0.506015	0.584539	0.566512
	H380	H	0.502816	0.607185	0.569486
	O381	O	1.011791	0.849490	0.002603
	H382	H	1.006730	0.842871	-0.003433
	H383	H	0.995195	0.845856	0.002749
