data_Molecule from HDF5

_cell_length_a		16.330896
_cell_length_b		16.257216
_cell_length_c		16.379518
_cell_angle_alpha	89.766914
_cell_angle_beta	89.672809
_cell_angle_gamma	90.053286
_symmetry_space_group_name_H-M	'P 1'
_symmetry_Int_Tables_number		1

loop_
	_symmetry_equiv_pos_as_xyz
	x,y,z

loop_
	_atom_site_label
	_atom_site_type_symbol
	_atom_site_fract_x
	_atom_site_fract_y
	_atom_site_fract_z
	H0	H	0.392341	0.818744	0.725778
	H1	H	0.598843	0.142614	0.725812
	H2	H	0.597143	0.818461	0.290344
	H3	H	0.388802	0.140800	0.284799
	H4	H	0.718383	0.378177	0.846079
	H5	H	0.716425	0.585206	0.167019
	H6	H	0.282059	0.587483	0.843958
	H7	H	0.275919	0.378720	0.164555
	H8	H	0.835141	0.700190	0.403656
	H9	H	0.159365	0.698537	0.602324
	H10	H	0.837404	0.261597	0.611977
	H11	H	0.157732	0.264081	0.400366
	H12	H	0.838934	0.376037	0.728831
	H13	H	0.158506	0.586921	0.721662
	H14	H	0.836379	0.588221	0.285901
	H15	H	0.158406	0.381825	0.286103
	H16	H	0.400205	0.698940	0.843895
	H17	H	0.597087	0.698170	0.168510
	H18	H	0.601283	0.261960	0.846238
	H19	H	0.391378	0.262885	0.166028
	H20	H	0.713438	0.819302	0.406374
	H21	H	0.715981	0.142678	0.611091
	H22	H	0.277889	0.818347	0.609446
	H23	H	0.277765	0.142178	0.403823
	H24	H	0.892430	0.322128	0.228794
	H25	H	0.098770	0.646529	0.220073
	H26	H	0.104819	0.322942	0.782586
	H27	H	0.895223	0.643619	0.785511
	H28	H	0.217552	0.877338	0.346945
	H29	H	0.213770	0.083837	0.666510
	H30	H	0.776238	0.086131	0.346121
	H31	H	0.774289	0.875225	0.666292
	H32	H	0.336127	0.202242	0.903486
	H33	H	0.655996	0.200640	0.111675
	H34	H	0.333535	0.764989	0.105445
	H35	H	0.659008	0.767264	0.907229
	H36	H	0.334360	0.875703	0.225755
	H37	H	0.655619	0.083046	0.225422
	H38	H	0.334709	0.084563	0.789194
	H39	H	0.655895	0.877469	0.786568
	H40	H	0.893219	0.202221	0.345421
	H41	H	0.102562	0.204104	0.664378
	H42	H	0.094945	0.769479	0.342732
	H43	H	0.892699	0.761877	0.665977
	H44	H	0.218492	0.321964	0.900632
	H45	H	0.213165	0.646596	0.101816
	H46	H	0.776587	0.321264	0.114338
	H47	H	0.780421	0.644383	0.903666
	H48	H	0.410389	0.093044	0.592576
	H49	H	0.585593	0.866265	0.596894
	H50	H	0.592442	0.099664	0.411682
	H51	H	0.414601	0.865718	0.409999
	H52	H	0.587156	0.396969	0.118653
	H53	H	0.591711	0.578505	0.889219
	H54	H	0.401436	0.578330	0.122736
	H55	H	0.399186	0.391651	0.887186
	H56	H	0.112181	0.575565	0.412108
	H57	H	0.882332	0.571498	0.595705
	H58	H	0.109914	0.398865	0.592120
	H59	H	0.881678	0.385651	0.420326
	H60	H	0.112792	0.392551	0.598041
	H61	H	0.882763	0.570635	0.595775
	H62	H	0.113013	0.575084	0.409772
	H63	H	0.887025	0.400582	0.422216
	H64	H	0.400026	0.567322	0.120596
	H65	H	0.593933	0.569853	0.892414
	H66	H	0.581006	0.390236	0.119093
	H67	H	0.411559	0.403383	0.895471
	H68	H	0.576793	0.095348	0.410464
	H69	H	0.585501	0.867303	0.597161
	H70	H	0.397826	0.096835	0.595209
	H71	H	0.407181	0.869771	0.427296
	H72	H	0.895736	0.597997	0.085285
	H73	H	0.085656	0.367084	0.099829
	H74	H	0.090878	0.600422	0.908183
	H75	H	0.909982	0.368723	0.918619
	H76	H	0.086001	0.884213	0.622931
	H77	H	0.086124	0.070206	0.393397
	H78	H	0.905983	0.072976	0.620373
	H79	H	0.908401	0.893884	0.393012
	H80	H	0.610920	0.072596	0.914734
	H81	H	0.382884	0.076822	0.085181
	H82	H	0.608804	0.890587	0.093512
	H83	H	0.377485	0.887407	0.908238
	H84	H	0.611435	0.893920	0.103378
	H85	H	0.385208	0.058782	0.096967
	H86	H	0.609329	0.069651	0.919982
	H87	H	0.380142	0.884242	0.922011
	H88	H	0.904362	0.069041	0.618912
	H89	H	0.086353	0.072537	0.391739
	H90	H	0.090614	0.891326	0.621485
	H91	H	0.903824	0.888467	0.389826
	H92	H	0.085560	0.596987	0.912546
	H93	H	0.083090	0.370678	0.092533
	H94	H	0.906118	0.602766	0.109711
	H95	H	0.910249	0.368503	0.916551
	H96	H	0.407711	0.097372	0.604971
	H97	H	0.584509	0.866505	0.596579
	H98	H	0.585072	0.093099	0.424669
	H99	H	0.396103	0.860711	0.413414
	H100	H	0.589218	0.388869	0.122455
	H101	H	0.585214	0.573292	0.894023
	H102	H	0.409865	0.573013	0.118394
	H103	H	0.416300	0.384932	0.891710
	H104	H	0.113183	0.577904	0.411086
	H105	H	0.882623	0.571096	0.596731
	H106	H	0.111361	0.390671	0.588901
	H107	H	0.880555	0.395898	0.408204
	H108	H	0.920687	0.590132	0.090385
	H109	H	0.090566	0.367725	0.093428
	H110	H	0.092723	0.598235	0.915555
	H111	H	0.911396	0.368576	0.917867
	H112	H	0.082396	0.891382	0.619405
	H113	H	0.088810	0.070472	0.391714
	H114	H	0.908639	0.070404	0.618450
	H115	H	0.900924	0.895151	0.391090
	H116	H	0.609281	0.066121	0.914038
	H117	H	0.375799	0.076132	0.105281
	H118	H	0.614022	0.884167	0.100771
	H119	H	0.383092	0.896685	0.917404
	C120	C	0.374161	-0.011108	0.628431
	C121	C	0.617103	0.973078	0.628534
	C122	C	0.615896	-0.010941	0.385593
	C123	C	0.374028	0.971956	0.385243
	C124	C	0.618588	0.359895	0.014757
	C125	C	0.619415	0.603822	0.998405
	C126	C	0.375940	0.603510	0.013995
	C127	C	0.375825	0.361260	0.996849
	C128	C	0.005637	0.605931	0.381941
	C129	C	0.988947	0.602990	0.625456
	C130	C	0.006438	0.360767	0.627052
	C131	C	0.988923	0.362480	0.384336
	C132	C	0.875667	0.490705	0.128084
	C133	C	0.117552	0.475816	0.124962
	C134	C	0.121120	0.492102	0.881157
	C135	C	0.878273	0.474541	0.885539
	C136	C	0.117201	0.859767	0.514754
	C137	C	0.117926	0.102442	0.497741
	C138	C	0.874860	0.103109	0.514016
	C139	C	0.873458	0.860252	0.497310
	C140	C	0.504260	0.101672	0.885483
	C141	C	0.487192	0.101844	0.127748
	C142	C	0.504490	0.858412	0.128949
	C143	C	0.487178	0.859586	0.885211
	C144	C	0.373155	0.867386	0.686874
	C145	C	0.617692	0.094373	0.686474
	C146	C	0.616597	0.867247	0.328725
	C147	C	0.371786	0.092783	0.325545
	C148	C	0.678729	0.358957	0.894224
	C149	C	0.676877	0.603919	0.119246
	C150	C	0.320464	0.605332	0.892157
	C151	C	0.315543	0.359756	0.116868
	C152	C	0.883714	0.662349	0.383470
	C153	C	0.110550	0.660755	0.623231
	C154	C	0.885830	0.301080	0.630012
	C155	C	0.109818	0.303897	0.382044
	C156	C	0.886555	0.357781	0.688528
	C157	C	0.110307	0.604757	0.682357
	C158	C	0.884396	0.606458	0.325126
	C159	C	0.109944	0.362443	0.325182
	C160	C	0.379233	0.660766	0.892237
	C161	C	0.617709	0.660550	0.119770
	C162	C	0.620339	0.301220	0.894241
	C163	C	0.373077	0.301843	0.117428
	C164	C	0.674253	0.867636	0.386537
	C165	C	0.676196	0.094422	0.629464
	C166	C	0.315960	0.867254	0.629191
	C167	C	0.316128	0.093452	0.384657
	C168	C	0.873699	0.370328	0.189106
	C169	C	0.117738	0.597823	0.181320
	C170	C	0.122736	0.370627	0.822736
	C171	C	0.876811	0.595622	0.825893
	C172	C	0.176561	0.859437	0.394087
	C173	C	0.175535	0.103290	0.618211
	C174	C	0.816106	0.104940	0.393599
	C175	C	0.814474	0.857788	0.618144
	C176	C	0.383758	0.161675	0.884808
	C177	C	0.607794	0.161047	0.129715
	C178	C	0.382450	0.802022	0.126958
	C179	C	0.609969	0.804467	0.886731
	C180	C	0.382791	0.857293	0.186612
	C181	C	0.607567	0.102634	0.186449
	C182	C	0.382996	0.103553	0.827857
	C183	C	0.608369	0.859442	0.826896
	C184	C	0.873997	0.162841	0.393513
	C185	C	0.119545	0.162941	0.617053
	C186	C	0.115971	0.805596	0.392011
	C187	C	0.873090	0.801043	0.617952
	C188	C	0.179389	0.370257	0.881135
	C189	C	0.174650	0.597913	0.122366
	C190	C	0.816130	0.369743	0.131701
	C191	C	0.819463	0.595820	0.884450
	C192	C	0.398246	0.073740	0.604361
	C193	C	0.592583	0.888614	0.604072
	C194	C	0.591728	0.073899	0.408867
	C195	C	0.398758	0.887440	0.409963
	C196	C	0.593148	0.384613	0.098319
	C197	C	0.597009	0.580517	0.913904
	C198	C	0.397615	0.579787	0.098680
	C199	C	0.401691	0.386084	0.913319
	C200	C	0.090582	0.582886	0.404374
	C201	C	0.904547	0.578178	0.602664
	C202	C	0.089686	0.386424	0.600680
	C203	C	0.904909	0.386915	0.409548
	C204	C	0.900431	0.575147	0.102427
	C205	C	0.093421	0.390603	0.101923
	C206	C	0.096895	0.576515	0.904967
	C207	C	0.903392	0.390387	0.910567
	C208	C	0.093274	0.882343	0.599144
	C209	C	0.093916	0.078002	0.413926
	C210	C	0.899171	0.077982	0.597422
	C211	C	0.897415	0.885295	0.413280
	C212	C	0.587986	0.076690	0.909414
	C213	C	0.403111	0.077530	0.103048
	C214	C	0.589362	0.882623	0.105955
	C215	C	0.402468	0.882679	0.908904
	Zn216	Zn	0.495033	-0.019093	0.756931
	Zn217	Zn	0.494845	-0.019748	0.256354
	Zn218	Zn	0.748163	0.481616	0.006307
	Zn219	Zn	0.247527	0.483221	0.003811
	Zn220	Zn	-0.003997	0.732133	0.504660
	Zn221	Zn	-0.002836	0.232545	0.504838
	Zn222	Zn	-0.001497	0.482626	0.754790
	Zn223	Zn	-0.002673	0.484481	0.255388
	Zn224	Zn	0.496705	0.731461	0.006404
	Zn225	Zn	0.496548	0.231080	0.006420
	Zn226	Zn	0.744962	-0.017851	0.506556
	Zn227	Zn	0.246175	-0.019738	0.507260
	N228	N	0.408680	0.944072	0.686547
	N229	N	0.581705	0.017889	0.685887
	N230	N	0.581034	0.943832	0.327904
	N231	N	0.406890	0.016046	0.325611
	N232	N	0.677974	0.394510	0.970305
	N233	N	0.678263	0.569435	0.042840
	N234	N	0.318052	0.570350	0.968735
	N235	N	0.317011	0.395836	0.040911
	N236	N	0.960256	0.662303	0.418016
	N237	N	0.033937	0.659835	0.588499
	N238	N	0.961293	0.302621	0.592572
	N239	N	0.033719	0.303780	0.418133
	N240	N	0.962570	0.394051	0.686958
	N241	N	0.033667	0.569627	0.683902
	N242	N	0.961127	0.572080	0.324232
	N243	N	0.033580	0.398221	0.326320
	N244	N	0.413069	0.659758	0.968884
	N245	N	0.582781	0.660578	0.043660
	N246	N	0.583979	0.301580	0.970131
	N247	N	0.410019	0.302680	0.041769
	N248	N	0.674108	0.944618	0.421015
	N249	N	0.676171	0.017705	0.594364
	N250	N	0.316433	0.943883	0.593563
	N251	N	0.317250	0.017068	0.421152
	N252	N	0.909901	0.446740	0.186969
	N253	N	0.082690	0.520918	0.182652
	N254	N	0.087387	0.447215	0.822568
	N255	N	0.912803	0.519219	0.826483
	N256	N	0.177540	0.892399	0.471220
	N257	N	0.174528	0.066310	0.542948
	N258	N	0.816127	0.068871	0.469539
	N259	N	0.814565	0.893862	0.542261
	N260	N	0.459971	0.160741	0.919997
	N261	N	0.531938	0.160640	0.093860
	N262	N	0.459101	0.802404	0.091965
	N263	N	0.533629	0.804538	0.922533
	N264	N	0.459675	0.891808	0.187871
	N265	N	0.531388	0.066712	0.185556
	N266	N	0.458719	0.066763	0.828283
	N267	N	0.531177	0.892806	0.825782
	N268	N	0.909896	0.161968	0.469337
	N269	N	0.084659	0.162743	0.541030
	N270	N	0.079606	0.805605	0.467955
	N271	N	0.909268	0.802435	0.541833
	N272	N	0.178543	0.446674	0.916774
	N273	N	0.174692	0.520856	0.088099
	N274	N	0.817151	0.445721	0.094524
	N275	N	0.820369	0.519414	0.920858
	O276	O	0.391693	0.590527	0.486019
	H277	H	0.378680	0.583973	0.488889
	H278	H	0.396722	0.600759	0.496465
	O279	O	0.300949	0.419379	0.706352
	H280	H	0.289648	0.413088	0.726436
	H281	H	0.307517	0.390188	0.696512
	O282	O	0.427940	0.442213	0.470977
	H283	H	0.420358	0.437137	0.481656
	H284	H	0.424343	0.454519	0.467741
	O285	O	0.483120	0.339727	0.639028
	H286	H	0.487188	0.350442	0.642921
	H287	H	0.486228	0.337690	0.640566
	O288	O	0.925889	0.868496	0.979573
	H289	H	0.920637	0.877774	0.993464
	H290	H	0.926806	0.865135	0.998533
	O291	O	0.180232	0.857424	-0.103351
	H292	H	0.168462	0.852652	-0.098134
	H293	H	0.180072	0.867310	-0.090488
	O294	O	0.559384	0.396863	0.530068
	H295	H	0.557783	0.398799	0.505489
	H296	H	0.577989	0.401734	0.538853
	O297	O	0.673366	0.401972	0.610558
	H298	H	0.688867	0.401081	0.619776
	H299	H	0.674343	0.399527	0.600733
	O300	O	0.507177	0.501146	0.615308
	H301	H	0.504531	0.491583	0.624851
	H302	H	0.514248	0.500130	0.620138
	O303	O	0.551790	0.624166	0.559538
	H304	H	0.532628	0.622160	0.555624
	H305	H	0.536736	0.633692	0.562009
	O306	O	0.626722	0.491263	0.600081
	H307	H	0.646774	0.509122	0.601169
	H308	H	0.624803	0.492731	0.615388
	O309	O	0.314041	0.295120	0.635439
	H310	H	0.337932	0.288464	0.639966
	H311	H	0.309489	0.292478	0.608444
	O312	O	-0.016864	0.059086	-0.096743
	H313	H	-0.005686	0.060502	-0.114779
	H314	H	-0.011440	0.056383	-0.078520
	O315	O	0.580995	0.366172	0.566493
	H316	H	0.594128	0.381812	0.555819
	H317	H	0.585096	0.364211	0.563287
	O318	O	0.584424	1.507661	1.395329
	H319	H	0.569888	1.504988	1.388353
	H320	H	0.590269	1.517230	1.401453
	O321	O	0.644253	0.613272	0.536512
	H322	H	0.630537	0.615502	0.529528
	H323	H	0.646840	0.610888	0.530244
	O324	O	-0.110652	0.832068	0.054111
	H325	H	-0.104297	0.831194	0.061470
	H326	H	-0.115053	0.834179	0.046375
	O327	O	0.573690	0.383194	0.361089
	H328	H	0.582468	0.390954	0.363518
	H329	H	0.534914	0.376088	0.357303
	O330	O	0.033598	0.136167	1.011423
	H331	H	0.023038	0.150806	1.000184
	H332	H	0.019007	0.141202	1.000469
	O333	O	0.167965	-0.097413	1.070829
	H334	H	0.179113	-0.089786	1.059420
	H335	H	0.158021	-0.091589	1.069490
	O336	O	0.404532	0.312449	0.540721
	H337	H	0.421478	0.322142	0.544804
	H338	H	0.391523	0.316560	0.540480
	O339	O	0.935708	-0.036988	0.092558
	H340	H	0.943736	-0.043662	0.100395
	H341	H	0.944226	-0.039690	0.096888
	O342	O	0.068706	-0.043464	-0.090874
	H343	H	0.062491	-0.044199	-0.088801
	H344	H	0.058125	-0.040022	-0.077482
	O345	O	0.879752	0.099858	0.948313
	H346	H	0.871163	0.089748	0.938958
	H347	H	0.873148	0.104496	0.939452
	O348	O	1.048424	0.971622	-0.171107
	H349	H	1.052489	0.956818	-0.182286
	H350	H	1.056415	0.969066	-0.146422
	O351	O	0.668326	0.540468	0.588032
	H352	H	0.676667	0.547130	0.575466
	H353	H	0.671407	0.544008	0.596864
	O354	O	0.843615	0.171892	0.819456
	H355	H	0.836919	0.133347	0.814499
	H356	H	0.882731	0.182781	0.805010
	O357	O	0.449548	0.632017	0.377142
	H358	H	0.452181	0.642396	0.377763
	H359	H	0.446605	0.631715	0.376382
	O360	O	0.454250	0.358581	0.337762
	H361	H	0.440639	0.351828	0.326623
	H362	H	0.446235	0.351719	0.351044
	O363	O	-0.017376	0.978695	1.151797
	H364	H	-0.018102	0.973053	1.144801
	H365	H	-0.016267	0.985002	1.154763
	O366	O	0.906503	0.927567	-0.161395
	H367	H	0.895244	0.913679	-0.167786
	H368	H	0.917506	0.928631	-0.164040
	O369	O	-0.212544	1.190228	-0.040285
	H370	H	-0.217899	1.194157	-0.070557
	H371	H	-0.225001	1.199831	-0.055520
	O372	O	0.478312	0.659236	0.641410
	H373	H	0.473280	0.646638	0.634957
	H374	H	0.478302	0.672681	0.652035
	O375	O	0.530595	0.541944	0.379611
	H376	H	0.531771	0.533475	0.385396
	H377	H	0.547829	0.536964	0.373153
	O378	O	0.835296	0.880330	0.030402
	H379	H	0.832044	0.873724	0.039631
	H380	H	0.843616	0.872429	0.042897
	O381	O	1.062404	-0.065473	-0.036165
	H382	H	1.068685	-0.076791	-0.039695
	H383	H	1.072378	-0.055848	-0.032138
	O384	O	0.950079	1.014129	0.107399
	H385	H	0.950724	1.019814	0.101022
	H386	H	0.944738	1.012906	0.103227
	O387	O	-0.104392	-0.090882	-0.009637
	H388	H	-0.102825	-0.089088	-0.015145
	H389	H	-0.100641	-0.094974	0.004833
	O390	O	0.119802	1.008297	0.134554
	H391	H	0.105340	1.011385	0.133944
	H392	H	0.120391	1.014972	0.112008
	O393	O	1.059885	0.968260	1.087647
	H394	H	1.055389	0.974032	1.110565
	H395	H	1.060933	0.977611	1.077220
	O396	O	0.375487	0.584965	0.449799
	H397	H	0.381230	0.595153	0.440290
	H398	H	0.371034	0.583101	0.429448
	O399	O	0.073495	1.048759	1.048871
	H400	H	0.068067	1.061059	1.043967
	H401	H	0.069467	1.046373	1.049581
	O402	O	0.652582	0.386361	0.353606
	H403	H	0.668634	0.378149	0.349855
	H404	H	0.649187	0.367071	0.355663
	O405	O	0.949999	1.076890	-0.109614
	H406	H	0.952325	1.093340	-0.121580
	H407	H	0.954365	1.050558	-0.123516
	O408	O	0.985940	1.089752	0.178381
	H409	H	0.975477	1.098300	0.183222
	H410	H	0.984045	1.093200	0.177453
	O411	O	1.140378	0.021948	1.108669
	H412	H	1.148190	0.034065	1.108829
	H413	H	1.154038	0.028525	1.121956
	O414	O	0.343411	0.523517	0.460447
	H415	H	0.336455	0.513307	0.446929
	H416	H	0.344227	0.526989	0.464625
	O417	O	0.390799	0.512303	0.398977
	H418	H	0.412741	0.520245	0.397709
	H419	H	0.376650	0.495775	0.411325
