data_Molecule from HDF5

_cell_length_a		16.345384
_cell_length_b		16.377230
_cell_length_c		16.350870
_cell_angle_alpha	89.796887
_cell_angle_beta	90.185107
_cell_angle_gamma	90.093807
_symmetry_space_group_name_H-M	'P 1'
_symmetry_Int_Tables_number		1

loop_
	_symmetry_equiv_pos_as_xyz
	x,y,z

loop_
	_atom_site_label
	_atom_site_type_symbol
	_atom_site_fract_x
	_atom_site_fract_y
	_atom_site_fract_z
	H0	H	0.402167	0.840850	0.713374
	H1	H	0.608206	0.161840	0.714471
	H2	H	0.607248	0.840276	0.276362
	H3	H	0.400808	0.161134	0.274830
	H4	H	0.720597	0.399031	0.831095
	H5	H	0.723900	0.602114	0.152636
	H6	H	0.285280	0.605875	0.832440
	H7	H	0.283554	0.397163	0.152576
	H8	H	0.842318	0.719763	0.388246
	H9	H	0.161795	0.720380	0.596026
	H10	H	0.841956	0.281472	0.594256
	H11	H	0.162973	0.282904	0.388643
	H12	H	0.842555	0.395997	0.711360
	H13	H	0.162684	0.604507	0.711444
	H14	H	0.841966	0.602974	0.272183
	H15	H	0.163149	0.399044	0.274475
	H16	H	0.403669	0.720886	0.832895
	H17	H	0.607904	0.717441	0.154731
	H18	H	0.608147	0.280606	0.834043
	H19	H	0.398760	0.280536	0.153018
	H20	H	0.720942	0.841045	0.393485
	H21	H	0.724245	0.161466	0.598531
	H22	H	0.285699	0.840432	0.596460
	H23	H	0.285641	0.161472	0.391728
	H24	H	0.900308	0.340225	0.211130
	H25	H	0.109044	0.660725	0.213287
	H26	H	0.107302	0.340417	0.772686
	H27	H	0.900933	0.661239	0.772056
	H28	H	0.222237	0.897955	0.332466
	H29	H	0.224649	0.106414	0.652742
	H30	H	0.782310	0.104006	0.333019
	H31	H	0.784384	0.895486	0.654361
	H32	H	0.345273	0.224357	0.886903
	H33	H	0.663070	0.222720	0.100763
	H34	H	0.344906	0.778469	0.100348
	H35	H	0.665531	0.784071	0.893349
	H36	H	0.342897	0.896544	0.212884
	H37	H	0.664041	0.103461	0.214649
	H38	H	0.344187	0.107315	0.773059
	H39	H	0.663832	0.896690	0.774238
	H40	H	0.900044	0.218899	0.331321
	H41	H	0.109521	0.222599	0.651822
	H42	H	0.106954	0.781134	0.332280
	H43	H	0.896129	0.775915	0.651914
	H44	H	0.225872	0.342197	0.886442
	H45	H	0.223304	0.661757	0.096650
	H46	H	0.784961	0.340327	0.094101
	H47	H	0.784825	0.661538	0.886537
	H48	H	0.413439	0.114811	0.582613
	H49	H	0.587330	0.891199	0.580937
	H50	H	0.591602	0.114940	0.402708
	H51	H	0.412316	0.884508	0.398180
	H52	H	0.591489	0.417392	0.104620
	H53	H	0.596830	0.596129	0.876313
	H54	H	0.418682	0.594316	0.108319
	H55	H	0.422029	0.411076	0.881492
	H56	H	0.114599	0.587430	0.404638
	H57	H	0.888884	0.587543	0.580648
	H58	H	0.115759	0.415325	0.584262
	H59	H	0.888362	0.414634	0.400727
	H60	H	0.119284	0.407321	0.585196
	H61	H	0.887862	0.588490	0.582005
	H62	H	0.119240	0.590495	0.397056
	H63	H	0.886119	0.408986	0.398073
	H64	H	0.408528	0.592217	0.109811
	H65	H	0.594089	0.591503	0.878013
	H66	H	0.591330	0.407441	0.107083
	H67	H	0.410596	0.408304	0.876284
	H68	H	0.589402	0.113645	0.405463
	H69	H	0.602322	0.885727	0.582629
	H70	H	0.412010	0.116957	0.584566
	H71	H	0.417515	0.888053	0.406284
	H72	H	0.913413	0.617425	0.086090
	H73	H	0.098235	0.387192	0.079595
	H74	H	0.093590	0.616084	0.896839
	H75	H	0.918488	0.391386	0.908816
	H76	H	0.092334	0.910266	0.606412
	H77	H	0.089704	0.093428	0.378934
	H78	H	0.912407	0.089453	0.607216
	H79	H	0.917784	0.909372	0.380728
	H80	H	0.615519	0.082227	0.904366
	H81	H	0.390861	0.087644	0.083058
	H82	H	0.616268	0.911811	0.081190
	H83	H	0.391872	0.913849	0.907956
	H84	H	0.618091	0.915108	0.091163
	H85	H	0.388798	0.091542	0.086874
	H86	H	0.621803	0.096400	0.899326
	H87	H	0.390148	0.912648	0.903999
	H88	H	0.916845	0.090649	0.605578
	H89	H	0.096518	0.092360	0.377495
	H90	H	0.092622	0.910366	0.606758
	H91	H	0.907593	0.909586	0.377795
	H92	H	0.088931	0.611921	0.903264
	H93	H	0.092304	0.386279	0.087498
	H94	H	0.917717	0.613266	0.080405
	H95	H	0.901256	0.384242	0.903748
	H96	H	0.415056	0.115898	0.585119
	H97	H	0.592047	0.885688	0.595009
	H98	H	0.593110	0.114954	0.406796
	H99	H	0.407678	0.885299	0.407172
	H100	H	0.599548	0.413257	0.108494
	H101	H	0.591649	0.596615	0.877261
	H102	H	0.414838	0.584967	0.105432
	H103	H	0.412780	0.420065	0.881068
	H104	H	0.117998	0.596276	0.404778
	H105	H	0.888195	0.590154	0.579971
	H106	H	0.115784	0.409175	0.577319
	H107	H	0.889282	0.409082	0.405069
	H108	H	0.909882	0.615219	0.078932
	H109	H	0.088675	0.390911	0.079268
	H110	H	0.097101	0.615074	0.905347
	H111	H	0.915751	0.383313	0.891264
	H112	H	0.092654	0.910125	0.606555
	H113	H	0.092896	0.087365	0.380416
	H114	H	0.914078	0.093602	0.607709
	H115	H	0.911861	0.918121	0.381846
	H116	H	0.616512	0.095177	0.914415
	H117	H	0.389792	0.093851	0.081466
	H118	H	0.620813	0.905198	0.087813
	H119	H	0.389915	0.910139	0.907505
	C120	C	0.382120	0.009944	0.615746
	C121	C	0.625769	0.993177	0.617403
	C122	C	0.623207	0.008935	0.374091
	C123	C	0.381351	0.991944	0.372237
	C124	C	0.625289	0.380481	0.001117
	C125	C	0.625911	0.623911	0.983853
	C126	C	0.382859	0.622768	0.001960
	C127	C	0.382585	0.380405	0.984969
	C128	C	0.011417	0.622585	0.370088
	C129	C	0.994101	0.620992	0.612771
	C130	C	0.011209	0.378678	0.613804
	C131	C	0.993996	0.380220	0.370728
	C132	C	0.882433	0.509086	0.112491
	C133	C	0.124635	0.493325	0.113580
	C134	C	0.125207	0.509464	0.869981
	C135	C	0.881538	0.492571	0.869983
	C136	C	0.124085	0.879072	0.500910
	C137	C	0.125018	0.122651	0.484377
	C138	C	0.881929	0.122413	0.501234
	C139	C	0.881087	0.879385	0.485319
	C140	C	0.512536	0.123484	0.873372
	C141	C	0.495297	0.122292	0.115660
	C142	C	0.512436	0.878604	0.117523
	C143	C	0.496024	0.881058	0.874835
	C144	C	0.382406	0.889064	0.674167
	C145	C	0.627134	0.113687	0.675392
	C146	C	0.625211	0.888454	0.315752
	C147	C	0.381542	0.112978	0.313888
	C148	C	0.682459	0.379605	0.879922
	C149	C	0.684806	0.622310	0.104747
	C150	C	0.324682	0.624494	0.880669
	C151	C	0.322886	0.378415	0.104798
	C152	C	0.890403	0.680789	0.368875
	C153	C	0.114171	0.680353	0.614231
	C154	C	0.890457	0.320130	0.613907
	C155	C	0.114795	0.322094	0.370028
	C156	C	0.890642	0.377173	0.672171
	C157	C	0.114477	0.622593	0.671787
	C158	C	0.890394	0.622803	0.311215
	C159	C	0.115298	0.380232	0.313439
	C160	C	0.383368	0.681735	0.881015
	C161	C	0.626995	0.679481	0.105925
	C162	C	0.626464	0.320502	0.881384
	C163	C	0.380684	0.320804	0.105039
	C164	C	0.681987	0.888608	0.373938
	C165	C	0.684896	0.113451	0.617706
	C166	C	0.324553	0.888853	0.616136
	C167	C	0.324201	0.113201	0.372362
	C168	C	0.881492	0.388422	0.171348
	C169	C	0.126770	0.613153	0.173170
	C170	C	0.126593	0.388859	0.811418
	C171	C	0.881567	0.613112	0.811167
	C172	C	0.183149	0.878702	0.380680
	C173	C	0.184842	0.124674	0.604652
	C174	C	0.822487	0.122658	0.380504
	C175	C	0.822871	0.876727	0.605938
	C176	C	0.392757	0.183929	0.869577
	C177	C	0.615421	0.182464	0.118639
	C178	C	0.392539	0.818519	0.118788
	C179	C	0.617138	0.823039	0.873977
	C180	C	0.391370	0.877555	0.174804
	C181	C	0.615785	0.123332	0.175337
	C182	C	0.392417	0.125917	0.812567
	C183	C	0.616156	0.879511	0.814899
	C184	C	0.881033	0.179720	0.379628
	C185	C	0.127612	0.182865	0.604072
	C186	C	0.125531	0.820554	0.380570
	C187	C	0.878977	0.817537	0.604614
	C188	C	0.185601	0.389539	0.868253
	C189	C	0.184109	0.613673	0.115144
	C190	C	0.823994	0.388410	0.113175
	C191	C	0.823783	0.613407	0.868398
	C192	C	0.406341	0.094126	0.591177
	C193	C	0.601001	0.909228	0.593151
	C194	C	0.598590	0.092778	0.398021
	C195	C	0.405319	0.907780	0.396812
	C196	C	0.600972	0.405482	0.084988
	C197	C	0.601450	0.601400	0.899443
	C198	C	0.406951	0.597642	0.086012
	C199	C	0.407858	0.405886	0.901222
	C200	C	0.095514	0.598453	0.395038
	C201	C	0.910156	0.595897	0.587969
	C202	C	0.095109	0.403521	0.589320
	C203	C	0.909854	0.403977	0.394452
	C204	C	0.906674	0.593367	0.088723
	C205	C	0.100150	0.409870	0.089106
	C206	C	0.100457	0.592593	0.894505
	C207	C	0.905100	0.408280	0.894257
	C208	C	0.099595	0.903258	0.584823
	C209	C	0.100079	0.098164	0.400851
	C210	C	0.907136	0.098162	0.585025
	C211	C	0.905446	0.904980	0.401821
	C212	C	0.596077	0.098568	0.898599
	C213	C	0.411458	0.098001	0.090895
	C214	C	0.596574	0.903468	0.093618
	C215	C	0.412410	0.905378	0.899371
	Zn216	Zn	0.503599	0.002007	0.745350
	Zn217	Zn	0.503464	0.000169	0.244254
	Zn218	Zn	0.753614	0.501191	-0.008923
	Zn219	Zn	0.253736	0.501586	-0.007746
	Zn220	Zn	0.002329	0.750597	0.492054
	Zn221	Zn	0.003145	0.251073	0.491504
	Zn222	Zn	0.002685	0.500429	0.742170
	Zn223	Zn	0.003002	0.501016	0.241913
	Zn224	Zn	0.504680	0.751491	-0.005051
	Zn225	Zn	0.504199	0.251750	-0.005739
	Zn226	Zn	0.752757	0.001189	0.494120
	Zn227	Zn	0.253077	0.000641	0.493859
	N228	N	0.417352	0.965543	0.674077
	N229	N	0.591110	0.037876	0.675301
	N230	N	0.589195	0.964241	0.315863
	N231	N	0.416397	0.036571	0.313787
	N232	N	0.681585	0.416354	0.955362
	N233	N	0.684550	0.588882	0.027817
	N234	N	0.324026	0.589066	0.956988
	N235	N	0.323905	0.414712	0.028862
	N236	N	0.966692	0.680817	0.404641
	N237	N	0.038318	0.679320	0.578032
	N238	N	0.966740	0.320851	0.578436
	N239	N	0.038509	0.321951	0.404990
	N240	N	0.966637	0.412910	0.672179
	N241	N	0.038790	0.586077	0.670656
	N242	N	0.966692	0.587657	0.311746
	N243	N	0.039272	0.415804	0.313765
	N244	N	0.418420	0.681070	0.957492
	N245	N	0.591228	0.680750	0.029659
	N246	N	0.591759	0.320799	0.957930
	N247	N	0.416836	0.321960	0.029389
	N248	N	0.681014	0.964557	0.409473
	N249	N	0.684484	0.037286	0.582660
	N250	N	0.324087	0.965178	0.580803
	N251	N	0.323871	0.036873	0.407457
	N252	N	0.917137	0.464598	0.171191
	N253	N	0.090655	0.537448	0.172470
	N254	N	0.089999	0.464263	0.812266
	N255	N	0.916792	0.536946	0.812104
	N256	N	0.182300	0.914392	0.456679
	N257	N	0.183371	0.087861	0.529387
	N258	N	0.822951	0.087611	0.457118
	N259	N	0.824157	0.914841	0.531023
	N260	N	0.468353	0.182618	0.906510
	N261	N	0.539516	0.181858	0.082157
	N262	N	0.469071	0.818686	0.083949
	N263	N	0.541692	0.823811	0.910674
	N264	N	0.466888	0.914039	0.173857
	N265	N	0.540083	0.086732	0.173658
	N266	N	0.467971	0.089087	0.814652
	N267	N	0.540022	0.915071	0.815300
	N268	N	0.916965	0.179837	0.455632
	N269	N	0.090808	0.181655	0.528336
	N270	N	0.089334	0.820840	0.456395
	N271	N	0.914516	0.818923	0.528480
	N272	N	0.185095	0.465357	0.904003
	N273	N	0.182776	0.538279	0.078322
	N274	N	0.824726	0.464478	0.077261
	N275	N	0.823591	0.537297	0.904165
	O276	O	0.570338	0.378840	0.426902
	H277	H	0.572279	0.386684	0.414853
	H278	H	0.568229	0.395164	0.430478
	O279	O	0.319207	0.597500	0.633399
	H280	H	0.328994	0.583395	0.636462
	H281	H	0.325991	0.594987	0.647622
	O282	O	0.550759	0.578916	0.611953
	H283	H	0.563858	0.583888	0.619387
	H284	H	0.543660	0.577701	0.603982
	O285	O	1.174759	-0.004981	-0.171593
	H286	H	1.174408	0.004758	-0.168401
	H287	H	1.187531	-0.008118	-0.188548
	O288	O	0.105081	0.028278	1.075503
	H289	H	0.110658	0.024121	1.073741
	H290	H	0.103311	0.032346	1.051566
	O291	O	0.591487	0.595494	0.466940
	H292	H	0.590011	0.592325	0.468890
	H293	H	0.580893	0.581570	0.467759
	O294	O	0.653504	0.437884	0.422040
	H295	H	0.659029	0.424271	0.424571
	H296	H	0.652671	0.430531	0.385706
	O297	O	0.975437	1.080293	1.164825
	H298	H	0.981317	1.074310	1.167531
	H299	H	0.981250	1.071283	1.143627
	O300	O	-0.390811	0.330884	0.133440
	H301	H	-0.413748	0.316544	0.122366
	H302	H	-0.387312	0.337947	0.143933
	O303	O	0.610688	0.593329	0.548180
	H304	H	0.605054	0.595214	0.545283
	H305	H	0.613404	0.581233	0.540945
	O306	O	1.005797	-0.141932	0.006626
	H307	H	1.015239	-0.143173	-0.009559
	H308	H	1.010708	-0.141117	0.024101
	O309	O	0.462352	0.430214	0.636419
	H310	H	0.460417	0.440683	0.631168
	H311	H	0.462367	0.417817	0.639292
	O312	O	0.874581	1.011603	0.037142
	H313	H	0.873664	1.007462	0.043684
	H314	H	0.873619	1.031491	0.027538
	O315	O	0.500069	0.655851	0.466962
	H316	H	0.502761	0.656317	0.481531
	H317	H	0.505272	0.660994	0.477988
	O318	O	0.631993	0.608696	0.429986
	H319	H	0.635753	0.621804	0.418377
	H320	H	0.629336	0.598046	0.417353
	O321	O	0.989971	0.186820	1.033740
	H322	H	0.989354	0.188397	1.023813
	H323	H	0.982483	0.182542	1.035649
	O324	O	0.055326	-0.175479	0.875918
	H325	H	0.050410	-0.167747	0.862981
	H326	H	0.062916	-0.174212	0.871551
	O327	O	0.369885	0.579203	0.463905
	H328	H	0.360931	0.575729	0.471087
	H329	H	0.370313	0.593725	0.453511
	O330	O	0.455054	0.529415	0.437157
	H331	H	0.458229	0.535841	0.434378
	H332	H	0.449658	0.517897	0.442604
	O333	O	1.195738	1.218875	1.011742
	H334	H	1.193243	1.227556	1.022925
	H335	H	1.208359	1.232821	1.029954
	O336	O	0.650099	0.480139	0.411755
	H337	H	0.655958	0.474460	0.402010
	H338	H	0.632267	0.486371	0.404375
	O339	O	0.953004	-0.001465	0.824410
	H340	H	0.945796	0.009564	0.824415
	H341	H	0.948434	0.014996	0.830739
	O342	O	-0.156688	0.803859	1.142401
	H343	H	-0.150415	0.815125	1.139409
	H344	H	-0.162771	0.795563	1.128201
	O345	O	0.057832	1.157854	0.918414
	H346	H	0.066749	1.162743	0.916502
	H347	H	0.071605	1.149996	0.914071
	O348	O	0.538986	0.434156	0.671556
	H349	H	0.539402	0.446335	0.676279
	H350	H	0.551179	0.428931	0.657969
	O351	O	-0.084082	-0.111000	0.055644
	H352	H	-0.089371	-0.130329	0.054125
	H353	H	-0.082199	-0.103039	0.076907
	O354	O	1.080154	0.902221	-0.198481
	H355	H	1.077569	0.906904	-0.208826
	H356	H	1.076781	0.897552	-0.206705
	O357	O	-0.017139	1.034617	0.050073
	H358	H	-0.024188	1.018759	0.056883
	H359	H	-0.031783	1.034346	0.047798
	O360	O	0.462586	0.594241	0.319177
	H361	H	0.458714	0.611035	0.318759
	H362	H	0.447007	0.596923	0.318539
	O363	O	0.520987	0.516770	0.424375
	H364	H	0.525798	0.527961	0.423414
	H365	H	0.536509	0.514937	0.422598
	O366	O	0.314597	0.445296	0.550156
	H367	H	0.316549	0.448256	0.535844
	H368	H	0.317022	0.463359	0.557965
	O369	O	0.482407	0.396717	0.589998
	H370	H	0.484247	0.397464	0.591038
	H371	H	0.469173	0.407180	0.570366
	O372	O	0.502513	0.456029	0.417838
	H373	H	0.499964	0.443253	0.419342
	H374	H	0.502291	0.441086	0.404731
	O375	O	0.428572	0.332653	0.577459
	H376	H	0.434652	0.326684	0.586227
	H377	H	0.439000	0.320276	0.572251
	O378	O	0.460080	0.385527	0.392206
	H379	H	0.441609	0.384595	0.390799
	H380	H	0.460417	0.371716	0.397216
	O381	O	0.409374	0.333937	0.400777
	H382	H	0.399061	0.335510	0.404403
	H383	H	0.412727	0.336542	0.395217
	O384	O	-0.058147	1.203524	0.801047
	H385	H	-0.033819	1.210179	0.789316
	H386	H	-0.052787	1.197705	0.800629
	O387	O	1.065832	0.903182	0.032490
	H388	H	1.062967	0.917248	0.035194
	H389	H	1.067102	0.895940	0.018335
	O390	O	0.092713	0.042195	0.931812
	H391	H	0.075845	0.051732	0.932138
	H392	H	0.087737	0.025144	0.943017
	O393	O	1.178497	0.191081	1.178418
	H394	H	1.172288	0.174939	1.172787
	H395	H	1.160771	0.168372	1.185658
	O396	O	-0.192925	1.086573	0.839733
	H397	H	-0.203991	1.085326	0.822843
	H398	H	-0.198535	1.083430	0.858773
	O399	O	0.320424	0.599275	0.529151
	H400	H	0.325822	0.587109	0.528447
	H401	H	0.329301	0.593135	0.546491
	O402	O	0.839030	0.170987	0.913143
	H403	H	0.827422	0.178447	0.905050
	H404	H	0.865689	0.177439	0.896764
	O405	O	-0.111511	-0.182985	-0.064182
	H406	H	-0.106100	-0.183651	-0.065304
	H407	H	-0.113581	-0.195133	-0.058793
	O408	O	1.208893	0.792011	0.962401
	H409	H	1.224020	0.777983	0.943052
	H410	H	1.209034	0.786276	0.948377
	O411	O	0.818498	0.949431	0.172862
	H412	H	0.816912	0.950470	0.175623
	H413	H	0.833457	0.953750	0.167666
	O414	O	-0.078929	-0.120385	1.187189
	H415	H	-0.071286	-0.125291	1.188627
	H416	H	-0.092086	-0.126385	1.175079
	O417	O	0.632693	0.562471	0.486621
	H418	H	0.627192	0.561445	0.480024
	H419	H	0.640244	0.566425	0.488812
	O420	O	0.018200	1.074624	-0.075044
	H421	H	0.018757	1.071506	-0.057545
	H422	H	0.032853	1.070759	-0.085621
	O423	O	1.195919	0.012227	0.184845
	H424	H	1.187840	-0.001470	0.189141
	H425	H	1.202859	-0.002942	0.184178
	O426	O	0.124196	-0.169055	0.957849
	H427	H	0.131225	-0.166685	0.960809
	H428	H	0.118310	-0.164404	0.958637
	O429	O	0.469688	0.438977	0.498559
	H430	H	0.473572	0.411934	0.497540
	H431	H	0.475554	0.445660	0.493260
