data_Molecule from HDF5

_cell_length_a		16.283425
_cell_length_b		16.300671
_cell_length_c		16.274193
_cell_angle_alpha	90.139496
_cell_angle_beta	90.020522
_cell_angle_gamma	89.979335
_symmetry_space_group_name_H-M	'P 1'
_symmetry_Int_Tables_number		1

loop_
	_symmetry_equiv_pos_as_xyz
	x,y,z

loop_
	_atom_site_label
	_atom_site_type_symbol
	_atom_site_fract_x
	_atom_site_fract_y
	_atom_site_fract_z
	H0	H	0.395992	0.827693	0.708380
	H1	H	0.589120	0.156128	0.708662
	H2	H	0.589817	0.828338	0.281267
	H3	H	0.394316	0.155908	0.282014
	H4	H	0.705290	0.394009	0.831021
	H5	H	0.706201	0.590458	0.159149
	H6	H	0.278985	0.588886	0.830739
	H7	H	0.278707	0.395448	0.159876
	H8	H	0.828717	0.705492	0.397075
	H9	H	0.155658	0.706696	0.595105
	H10	H	0.827537	0.278664	0.591825
	H11	H	0.155987	0.276211	0.395590
	H12	H	0.828101	0.394423	0.708906
	H13	H	0.155915	0.588802	0.709367
	H14	H	0.828267	0.588045	0.283080
	H15	H	0.156809	0.394314	0.281753
	H16	H	0.393499	0.706913	0.831463
	H17	H	0.590151	0.706775	0.159546
	H18	H	0.589464	0.277301	0.831770
	H19	H	0.394445	0.279269	0.159835
	H20	H	0.706069	0.828189	0.397219
	H21	H	0.706276	0.155894	0.593226
	H22	H	0.279307	0.827108	0.593190
	H23	H	0.277097	0.155204	0.397316
	H24	H	0.893875	0.327556	0.209333
	H25	H	0.089909	0.655733	0.209947
	H26	H	0.088977	0.327617	0.782051
	H27	H	0.893946	0.655683	0.781349
	H28	H	0.206030	0.892934	0.331743
	H29	H	0.205218	0.088031	0.659999
	H30	H	0.779225	0.088450	0.330903
	H31	H	0.779462	0.894289	0.659690
	H32	H	0.327863	0.206038	0.897901
	H33	H	0.656226	0.206695	0.094525
	H34	H	0.327649	0.778749	0.093131
	H35	H	0.655607	0.777316	0.897034
	H36	H	0.327908	0.895449	0.209323
	H37	H	0.656619	0.089325	0.209475
	H38	H	0.327715	0.089325	0.781604
	H39	H	0.655974	0.892953	0.780277
	H40	H	0.894495	0.204620	0.330984
	H41	H	0.091158	0.207052	0.659139
	H42	H	0.090416	0.776666	0.331755
	H43	H	0.894994	0.777780	0.659220
	H44	H	0.207048	0.328074	0.896710
	H45	H	0.205982	0.655998	0.093745
	H46	H	0.776501	0.329117	0.093259
	H47	H	0.777372	0.655638	0.896112
	H48	H	0.397786	0.108745	0.592012
	H49	H	0.582155	0.874730	0.593541
	H50	H	0.583790	0.107558	0.406421
	H51	H	0.398198	0.871291	0.390222
	H52	H	0.574439	0.392578	0.111193
	H53	H	0.580937	0.577427	0.882026
	H54	H	0.396029	0.584338	0.112032
	H55	H	0.393311	0.399959	0.878158
	H56	H	0.107465	0.574972	0.400508
	H57	H	0.874324	0.591770	0.587267
	H58	H	0.110182	0.396850	0.592605
	H59	H	0.874013	0.391570	0.399881
	H60	H	0.108829	0.394300	0.587054
	H61	H	0.878324	0.581843	0.582836
	H62	H	0.113828	0.591058	0.394037
	H63	H	0.877703	0.398446	0.407083
	H64	H	0.401340	0.586444	0.110467
	H65	H	0.579379	0.592450	0.878632
	H66	H	0.596727	0.392841	0.116736
	H67	H	0.402822	0.400947	0.880914
	H68	H	0.588597	0.109614	0.403137
	H69	H	0.585464	0.877333	0.583901
	H70	H	0.400031	0.107145	0.588498
	H71	H	0.409543	0.880391	0.406595
	H72	H	0.900235	0.608194	0.091150
	H73	H	0.086286	0.373350	0.095776
	H74	H	0.082629	0.606227	0.905260
	H75	H	0.896790	0.376515	0.906133
	H76	H	0.080106	0.899904	0.610277
	H77	H	0.087039	0.074609	0.381543
	H78	H	0.894910	0.091026	0.614543
	H79	H	0.897820	0.901671	0.379397
	H80	H	0.605717	0.082337	0.907215
	H81	H	0.377885	0.083186	0.085937
	H82	H	0.607567	0.900611	0.086951
	H83	H	0.375000	0.896265	0.902663
	H84	H	0.608180	0.899555	0.090956
	H85	H	0.374235	0.084902	0.094332
	H86	H	0.608625	0.082116	0.896932
	H87	H	0.376753	0.901009	0.904203
	H88	H	0.896112	0.079063	0.611050
	H89	H	0.075849	0.087803	0.380685
	H90	H	0.086789	0.893106	0.614416
	H91	H	0.903044	0.896899	0.379782
	H92	H	0.090401	0.609072	0.903552
	H93	H	0.079053	0.378768	0.085037
	H94	H	0.900391	0.607453	0.088389
	H95	H	0.895988	0.373710	0.898000
	H96	H	0.395499	0.108598	0.587436
	H97	H	0.592259	0.872933	0.590928
	H98	H	0.583316	0.107496	0.400583
	H99	H	0.389051	0.874845	0.409128
	H100	H	0.586383	0.411882	0.108155
	H101	H	0.593040	0.585154	0.876842
	H102	H	0.397738	0.590470	0.113760
	H103	H	0.399284	0.392421	0.877301
	H104	H	0.107912	0.589896	0.411867
	H105	H	0.875141	0.582007	0.593753
	H106	H	0.107791	0.400925	0.588096
	H107	H	0.875498	0.401637	0.397417
	H108	H	0.897627	0.608441	0.089799
	H109	H	0.091983	0.375211	0.083068
	H110	H	0.084583	0.609141	0.897778
	H111	H	0.903823	0.376616	0.901144
	H112	H	0.090084	0.902923	0.612192
	H113	H	0.092365	0.090256	0.375647
	H114	H	0.905406	0.086516	0.610401
	H115	H	0.897057	0.895362	0.378081
	H116	H	0.609962	0.090937	0.902702
	H117	H	0.374440	0.091464	0.088205
	H118	H	0.609405	0.896861	0.087404
	H119	H	0.375352	0.900141	0.899442
	C120	C	0.370454	-0.000239	0.617144
	C121	C	0.614379	0.983466	0.617095
	C122	C	0.613800	0.000084	0.374349
	C123	C	0.370316	0.983622	0.373921
	C124	C	0.614105	0.370325	0.003579
	C125	C	0.613018	0.613605	0.987406
	C126	C	0.370464	0.614296	0.003504
	C127	C	0.370537	0.370513	0.987275
	C128	C	0.000946	0.612901	0.374174
	C129	C	0.984022	0.613444	0.616984
	C130	C	0.000228	0.369757	0.617196
	C131	C	0.984093	0.369297	0.373129
	C132	C	0.871002	0.499759	0.117084
	C133	C	0.113991	0.483757	0.116743
	C134	C	0.113843	0.500044	0.873717
	C135	C	0.870609	0.483953	0.873610
	C136	C	0.113829	0.869839	0.504253
	C137	C	0.113514	0.112636	0.487621
	C138	C	0.870905	0.112974	0.503289
	C139	C	0.870906	0.869898	0.487234
	C140	C	0.499714	0.113278	0.874284
	C141	C	0.484095	0.114167	0.117729
	C142	C	0.500120	0.870992	0.116834
	C143	C	0.483835	0.870509	0.873654
	C144	C	0.374361	0.876379	0.671200
	C145	C	0.610641	0.107008	0.671485
	C146	C	0.610577	0.876964	0.319263
	C147	C	0.373465	0.107027	0.319563
	C148	C	0.668185	0.372970	0.880261
	C149	C	0.668165	0.611009	0.110366
	C150	C	0.316540	0.610078	0.879640
	C151	C	0.316271	0.374352	0.110899
	C152	C	0.877503	0.667443	0.376890
	C153	C	0.107048	0.668276	0.614750
	C154	C	0.876462	0.316214	0.612793
	C155	C	0.107328	0.314423	0.375731
	C156	C	0.876788	0.373347	0.671274
	C157	C	0.107179	0.609862	0.671530
	C158	C	0.877157	0.608730	0.320422
	C159	C	0.107803	0.372848	0.318929
	C160	C	0.373794	0.668002	0.879733
	C161	C	0.610808	0.669054	0.110408
	C162	C	0.610721	0.315054	0.880658
	C163	C	0.373990	0.316866	0.111011
	C164	C	0.668098	0.876879	0.377061
	C165	C	0.668555	0.106935	0.614071
	C166	C	0.316522	0.876152	0.613975
	C167	C	0.315363	0.106645	0.376935
	C168	C	0.873338	0.376664	0.171840
	C169	C	0.110681	0.606999	0.171797
	C170	C	0.110180	0.376612	0.819299
	C171	C	0.873275	0.606886	0.819010
	C172	C	0.168350	0.872442	0.380518
	C173	C	0.168214	0.109606	0.610874
	C174	C	0.816556	0.109314	0.380023
	C175	C	0.816389	0.873034	0.610519
	C176	C	0.376627	0.167935	0.877227
	C177	C	0.607527	0.168701	0.114849
	C178	C	0.376700	0.816563	0.113653
	C179	C	0.606941	0.815261	0.876362
	C180	C	0.376565	0.874642	0.171147
	C181	C	0.607653	0.110809	0.172127
	C182	C	0.376504	0.110036	0.819454
	C183	C	0.607188	0.873055	0.818584
	C184	C	0.873841	0.167136	0.380023
	C185	C	0.111262	0.168257	0.610567
	C186	C	0.110542	0.815160	0.380372
	C187	C	0.873690	0.815126	0.610382
	C188	C	0.168631	0.376780	0.876334
	C189	C	0.168143	0.607163	0.113922
	C190	C	0.815074	0.377232	0.114039
	C191	C	0.815747	0.606869	0.876319
	C192	C	0.391519	0.085880	0.595776
	C193	C	0.593083	0.897335	0.595621
	C194	C	0.591739	0.086101	0.396850
	C195	C	0.392508	0.897827	0.395495
	C196	C	0.592391	0.392524	0.089850
	C197	C	0.590976	0.591513	0.901364
	C198	C	0.391956	0.593317	0.089752
	C199	C	0.392052	0.391581	0.901114
	C200	C	0.087521	0.591708	0.395753
	C201	C	0.897965	0.591646	0.594687
	C202	C	0.086650	0.391053	0.595698
	C203	C	0.897947	0.390951	0.394953
	C204	C	0.892738	0.585836	0.096003
	C205	C	0.092222	0.398131	0.094543
	C206	C	0.092219	0.585928	0.895740
	C207	C	0.892634	0.397918	0.895338
	C208	C	0.092101	0.892050	0.590040
	C209	C	0.091539	0.090696	0.401497
	C210	C	0.892388	0.091851	0.589741
	C211	C	0.892872	0.891489	0.401336
	C212	C	0.585863	0.091465	0.896057
	C213	C	0.397697	0.092666	0.096057
	C214	C	0.586046	0.892823	0.094985
	C215	C	0.397919	0.892634	0.895502
	Zn216	Zn	0.492104	-0.008107	0.745104
	Zn217	Zn	0.492454	-0.007623	0.245719
	Zn218	Zn	0.742141	0.492424	-0.005117
	Zn219	Zn	0.242607	0.492060	-0.004724
	Zn220	Zn	-0.007497	0.741787	0.495378
	Zn221	Zn	-0.007954	0.241615	0.495373
	Zn222	Zn	-0.008127	0.492272	0.745502
	Zn223	Zn	-0.007255	0.491605	0.246068
	Zn224	Zn	0.491786	0.742394	-0.004608
	Zn225	Zn	0.491997	0.242095	-0.003773
	Zn226	Zn	0.742566	-0.008199	0.495473
	Zn227	Zn	0.242210	-0.009054	0.495694
	N228	N	0.407136	0.954148	0.673213
	N229	N	0.577578	0.029318	0.673574
	N230	N	0.577524	0.954629	0.317559
	N231	N	0.406983	0.029497	0.317651
	N232	N	0.670323	0.406625	0.957796
	N233	N	0.669537	0.577195	0.032819
	N234	N	0.314296	0.577338	0.957556
	N235	N	0.314188	0.406994	0.032927
	N236	N	0.955392	0.669991	0.409841
	N237	N	0.029429	0.670343	0.581289
	N238	N	0.954355	0.314020	0.579867
	N239	N	0.029439	0.312118	0.408686
	N240	N	0.954724	0.405821	0.674119
	N241	N	0.029667	0.576556	0.672969
	N242	N	0.955017	0.575845	0.318467
	N243	N	0.030118	0.406000	0.317057
	N244	N	0.406484	0.670762	0.957505
	N245	N	0.577137	0.670564	0.032977
	N246	N	0.577835	0.313360	0.958449
	N247	N	0.406957	0.314225	0.033271
	N248	N	0.670413	0.954532	0.410213
	N249	N	0.670910	0.029230	0.581149
	N250	N	0.314174	0.953757	0.580799
	N251	N	0.313238	0.029020	0.409870
	N252	N	0.907275	0.454001	0.173879
	N253	N	0.077584	0.529368	0.173728
	N254	N	0.076725	0.454235	0.817647
	N255	N	0.906845	0.529484	0.817441
	N256	N	0.170475	0.905757	0.458253
	N257	N	0.169497	0.075399	0.533462
	N258	N	0.814794	0.076275	0.457740
	N259	N	0.814609	0.906489	0.532888
	N260	N	0.454181	0.170082	0.910523
	N261	N	0.529712	0.170837	0.081685
	N262	N	0.454561	0.814156	0.080695
	N263	N	0.529383	0.813658	0.909873
	N264	N	0.454237	0.907760	0.173260
	N265	N	0.529968	0.077472	0.173958
	N266	N	0.454177	0.076675	0.817636
	N267	N	0.529581	0.906658	0.816848
	N268	N	0.906899	0.169450	0.457849
	N269	N	0.078007	0.170168	0.532952
	N270	N	0.077585	0.813173	0.458184
	N271	N	0.906919	0.813161	0.532887
	N272	N	0.170970	0.454417	0.909540
	N273	N	0.170506	0.529546	0.080589
	N274	N	0.813783	0.454658	0.080686
	N275	N	0.813853	0.529336	0.909618
	O276	O	0.939253	0.043974	0.971691
	H277	H	0.936824	0.042764	0.967341
	H278	H	0.933734	0.050582	0.969174
	O279	O	0.931079	1.041850	0.957518
	H280	H	0.940724	1.037159	0.962248
	H281	H	0.934655	1.034248	0.955033
	O282	O	0.908063	1.053033	-0.039173
	H283	H	0.906141	1.055322	-0.039663
	H284	H	0.899639	1.060995	-0.034356
	O285	O	0.916342	1.049019	0.943635
	H286	H	0.906748	1.049147	0.937326
	H287	H	0.918907	1.056381	0.942391
