data_Molecule from HDF5

_cell_length_a		16.289427
_cell_length_b		16.395126
_cell_length_c		16.394622
_cell_angle_alpha	89.804617
_cell_angle_beta	90.013595
_cell_angle_gamma	90.196987
_symmetry_space_group_name_H-M	'P 1'
_symmetry_Int_Tables_number		1

loop_
	_symmetry_equiv_pos_as_xyz
	x,y,z

loop_
	_atom_site_label
	_atom_site_type_symbol
	_atom_site_fract_x
	_atom_site_fract_y
	_atom_site_fract_z
	H0	H	0.391826	0.844966	0.717826
	H1	H	0.603700	0.162542	0.713363
	H2	H	0.603566	0.842196	0.275662
	H3	H	0.396598	0.162045	0.273678
	H4	H	0.720793	0.400418	0.834237
	H5	H	0.723660	0.607019	0.153442
	H6	H	0.282433	0.606353	0.834663
	H7	H	0.281243	0.397674	0.155527
	H8	H	0.838756	0.721193	0.389016
	H9	H	0.160509	0.722269	0.597406
	H10	H	0.841409	0.278542	0.600985
	H11	H	0.160332	0.282500	0.390261
	H12	H	0.841610	0.395954	0.716184
	H13	H	0.162624	0.604647	0.710458
	H14	H	0.841255	0.608727	0.271839
	H15	H	0.160483	0.399173	0.275780
	H16	H	0.396883	0.724461	0.835897
	H17	H	0.609883	0.725166	0.153177
	H18	H	0.605949	0.283281	0.834635
	H19	H	0.397599	0.281339	0.155206
	H20	H	0.719445	0.842013	0.390636
	H21	H	0.720874	0.161340	0.597423
	H22	H	0.282025	0.841640	0.595774
	H23	H	0.282371	0.163102	0.391927
	H24	H	0.895197	0.342758	0.216338
	H25	H	0.103612	0.663403	0.212825
	H26	H	0.105293	0.342225	0.776671
	H27	H	0.898281	0.661342	0.772814
	H28	H	0.217400	0.900108	0.334177
	H29	H	0.218127	0.103714	0.655010
	H30	H	0.781173	0.103801	0.333679
	H31	H	0.778137	0.897319	0.654846
	H32	H	0.339340	0.220277	0.893696
	H33	H	0.663596	0.219024	0.096136
	H34	H	0.341076	0.780856	0.098181
	H35	H	0.662882	0.785679	0.890002
	H36	H	0.339244	0.899459	0.211379
	H37	H	0.662334	0.103829	0.212570
	H38	H	0.338391	0.104875	0.778192
	H39	H	0.660928	0.900823	0.773746
	H40	H	0.895960	0.222255	0.334568
	H41	H	0.104660	0.221492	0.653658
	H42	H	0.100684	0.784577	0.333660
	H43	H	0.891754	0.778892	0.653792
	H44	H	0.217126	0.340875	0.896480
	H45	H	0.220074	0.663589	0.096041
	H46	H	0.781261	0.342221	0.097963
	H47	H	0.784289	0.662968	0.890562
	H48	H	0.408836	0.117176	0.585713
	H49	H	0.582404	0.891912	0.581315
	H50	H	0.590485	0.117542	0.399095
	H51	H	0.410571	0.887911	0.399888
	H52	H	0.592590	0.413097	0.108277
	H53	H	0.594913	0.600710	0.877772
	H54	H	0.414560	0.592045	0.107507
	H55	H	0.406320	0.408849	0.879601
	H56	H	0.115123	0.588628	0.397317
	H57	H	0.885630	0.593349	0.581148
	H58	H	0.116236	0.416598	0.588104
	H59	H	0.886548	0.415633	0.406154
	H60	H	0.117699	0.405816	0.586882
	H61	H	0.888230	0.584640	0.581562
	H62	H	0.116634	0.601261	0.405739
	H63	H	0.884932	0.411569	0.403164
	H64	H	0.412634	0.592702	0.108330
	H65	H	0.596045	0.587369	0.881314
	H66	H	0.589749	0.411674	0.108243
	H67	H	0.410993	0.417574	0.883799
	H68	H	0.583368	0.113796	0.405133
	H69	H	0.592040	0.888043	0.582614
	H70	H	0.409886	0.117499	0.585436
	H71	H	0.409628	0.889349	0.406298
	H72	H	0.913874	0.616463	0.087991
	H73	H	0.087153	0.388981	0.087723
	H74	H	0.089609	0.615013	0.907462
	H75	H	0.922042	0.394000	0.911710
	H76	H	0.086129	0.909761	0.607709
	H77	H	0.085740	0.107565	0.376339
	H78	H	0.910426	0.085327	0.606509
	H79	H	0.908499	0.906555	0.379901
	H80	H	0.619059	0.096022	0.894736
	H81	H	0.383527	0.098269	0.086748
	H82	H	0.614879	0.916123	0.083848
	H83	H	0.386771	0.909466	0.909103
	H84	H	0.617632	0.912615	0.089432
	H85	H	0.387749	0.092022	0.077840
	H86	H	0.616030	0.099994	0.909685
	H87	H	0.388303	0.916818	0.908604
	H88	H	0.915038	0.092185	0.607461
	H89	H	0.105449	0.089005	0.375747
	H90	H	0.091354	0.907573	0.610457
	H91	H	0.905808	0.914595	0.380592
	H92	H	0.099594	0.618993	0.903113
	H93	H	0.092641	0.389820	0.083624
	H94	H	0.917929	0.613539	0.081405
	H95	H	0.900978	0.386746	0.911006
	H96	H	0.408669	0.117820	0.584352
	H97	H	0.584875	0.887851	0.590269
	H98	H	0.592674	0.115217	0.408419
	H99	H	0.404889	0.886090	0.402337
	H100	H	0.591894	0.410209	0.108486
	H101	H	0.584377	0.594149	0.882422
	H102	H	0.413268	0.590499	0.108764
	H103	H	0.416768	0.408656	0.882827
	H104	H	0.110977	0.588952	0.412095
	H105	H	0.884916	0.588775	0.588948
	H106	H	0.113223	0.411837	0.579102
	H107	H	0.885479	0.410485	0.408429
	H108	H	0.910120	0.615615	0.080798
	H109	H	0.093522	0.386838	0.089730
	H110	H	0.090093	0.618103	0.896659
	H111	H	0.913650	0.385427	0.893295
	H112	H	0.091758	0.913394	0.608611
	H113	H	0.081378	0.082701	0.386358
	H114	H	0.907306	0.092223	0.609184
	H115	H	0.913749	0.912402	0.382944
	H116	H	0.612459	0.084501	0.904532
	H117	H	0.386429	0.087036	0.088612
	H118	H	0.616471	0.909433	0.083029
	H119	H	0.385372	0.912497	0.903188
	C120	C	0.377629	0.011798	0.616494
	C121	C	0.619843	0.994166	0.615963
	C122	C	0.620546	0.009983	0.373129
	C123	C	0.377901	0.993738	0.371941
	C124	C	0.622931	0.381242	0.002579
	C125	C	0.624305	0.625503	0.985613
	C126	C	0.381525	0.623546	0.003064
	C127	C	0.379497	0.380022	0.987602
	C128	C	0.008371	0.624460	0.372891
	C129	C	0.992024	0.622068	0.615106
	C130	C	0.009699	0.379369	0.616682
	C131	C	0.991626	0.381408	0.374175
	C132	C	0.880337	0.510596	0.116130
	C133	C	0.122775	0.494416	0.117335
	C134	C	0.123150	0.510864	0.873328
	C135	C	0.880743	0.493744	0.872629
	C136	C	0.120333	0.880249	0.502814
	C137	C	0.122166	0.124017	0.485366
	C138	C	0.878981	0.122112	0.502448
	C139	C	0.876852	0.879165	0.486491
	C140	C	0.509225	0.124294	0.873081
	C141	C	0.492751	0.122705	0.115220
	C142	C	0.509858	0.880433	0.116371
	C143	C	0.492852	0.882231	0.873968
	C144	C	0.374468	0.892028	0.676803
	C145	C	0.622424	0.114531	0.674111
	C146	C	0.622177	0.889987	0.314382
	C147	C	0.377399	0.114232	0.313161
	C148	C	0.681617	0.381018	0.882239
	C149	C	0.684104	0.626188	0.105650
	C150	C	0.322045	0.625144	0.882790
	C151	C	0.320650	0.378845	0.107493
	C152	C	0.887423	0.682437	0.370822
	C153	C	0.112703	0.682311	0.615784
	C154	C	0.889437	0.318951	0.619162
	C155	C	0.112412	0.322141	0.371982
	C156	C	0.889619	0.376999	0.676849
	C157	C	0.113659	0.623982	0.672409
	C158	C	0.888268	0.626171	0.312471
	C159	C	0.112383	0.380160	0.314900
	C160	C	0.379016	0.683959	0.883273
	C161	C	0.627466	0.685014	0.105437
	C162	C	0.624253	0.322851	0.882426
	C163	C	0.378677	0.320773	0.107273
	C164	C	0.679514	0.889931	0.372246
	C165	C	0.680585	0.113797	0.616471
	C166	C	0.319880	0.890508	0.616267
	C167	C	0.320749	0.114723	0.372107
	C168	C	0.876984	0.390726	0.176378
	C169	C	0.123204	0.615310	0.174417
	C170	C	0.123641	0.389871	0.816289
	C171	C	0.879230	0.613705	0.812542
	C172	C	0.178037	0.881028	0.382235
	C173	C	0.179716	0.123299	0.606572
	C174	C	0.820362	0.123140	0.381758
	C175	C	0.817490	0.878210	0.606649
	C176	C	0.387578	0.181729	0.873873
	C177	C	0.614814	0.180504	0.115746
	C178	C	0.389144	0.820608	0.117122
	C179	C	0.614293	0.824760	0.871900
	C180	C	0.388094	0.879697	0.173246
	C181	C	0.614173	0.123053	0.173578
	C182	C	0.387149	0.124384	0.816368
	C183	C	0.613370	0.882123	0.813929
	C184	C	0.877499	0.181984	0.382243
	C185	C	0.123227	0.181979	0.605823
	C186	C	0.120036	0.823234	0.381940
	C187	C	0.874040	0.819311	0.606256
	C188	C	0.179507	0.389392	0.875826
	C189	C	0.181128	0.615296	0.116238
	C190	C	0.820230	0.390380	0.117427
	C191	C	0.822613	0.614443	0.871244
	C192	C	0.402149	0.095604	0.592430
	C193	C	0.593874	0.910881	0.591815
	C194	C	0.595917	0.093783	0.397322
	C195	C	0.401276	0.909750	0.395940
	C196	C	0.598366	0.404958	0.086645
	C197	C	0.599052	0.601328	0.902312
	C198	C	0.406313	0.598823	0.086570
	C199	C	0.404213	0.404623	0.903686
	C200	C	0.092301	0.599874	0.398080
	C201	C	0.908157	0.596290	0.590928
	C202	C	0.093725	0.404255	0.591900
	C203	C	0.907582	0.405558	0.398857
	C204	C	0.906374	0.593678	0.090767
	C205	C	0.098198	0.410379	0.094019
	C206	C	0.099751	0.595270	0.895687
	C207	C	0.905023	0.410417	0.897917
	C208	C	0.096561	0.903584	0.587132
	C209	C	0.097916	0.100175	0.401403
	C210	C	0.903657	0.097106	0.585807
	C211	C	0.902063	0.903956	0.402914
	C212	C	0.593839	0.100489	0.896294
	C213	C	0.407978	0.099313	0.091324
	C214	C	0.594372	0.905349	0.092243
	C215	C	0.408774	0.905990	0.899348
	Zn216	Zn	0.498895	0.003213	0.745232
	Zn217	Zn	0.500182	0.002165	0.244079
	Zn218	Zn	0.751804	0.502588	-0.006024
	Zn219	Zn	0.251926	0.502646	-0.004870
	Zn220	Zn	-0.001351	0.751136	0.494847
	Zn221	Zn	0.000359	0.251763	0.494304
	Zn222	Zn	0.002212	0.501981	0.744190
	Zn223	Zn	0.000464	0.502656	0.245825
	Zn224	Zn	0.502261	0.753049	-0.005780
	Zn225	Zn	0.501902	0.251595	-0.005366
	Zn226	Zn	0.748932	0.001544	0.494088
	Zn227	Zn	0.249492	0.002119	0.494296
	N228	N	0.409477	0.968423	0.677270
	N229	N	0.585671	0.038976	0.674360
	N230	N	0.586252	0.965723	0.314820
	N231	N	0.412064	0.037947	0.312820
	N232	N	0.680786	0.416647	0.958066
	N233	N	0.682454	0.589936	0.030182
	N234	N	0.323488	0.588290	0.958209
	N235	N	0.321228	0.415090	0.031878
	N236	N	0.962980	0.681322	0.407964
	N237	N	0.036008	0.681325	0.580893
	N238	N	0.965242	0.320138	0.582644
	N239	N	0.036245	0.322860	0.408102
	N240	N	0.965569	0.413680	0.675489
	N241	N	0.037863	0.586866	0.671899
	N242	N	0.964508	0.590591	0.313826
	N243	N	0.036415	0.416198	0.316074
	N244	N	0.415507	0.682940	0.958894
	N245	N	0.591038	0.684706	0.029927
	N246	N	0.588410	0.322821	0.958303
	N247	N	0.414630	0.321623	0.031545
	N248	N	0.678603	0.965649	0.407993
	N249	N	0.679147	0.038007	0.581171
	N250	N	0.321361	0.966007	0.579650
	N251	N	0.320598	0.038774	0.407725
	N252	N	0.913342	0.466445	0.175805
	N253	N	0.087911	0.539063	0.175399
	N254	N	0.089441	0.466334	0.814536
	N255	N	0.914593	0.537748	0.813155
	N256	N	0.178182	0.915805	0.458358
	N257	N	0.179169	0.087976	0.530651
	N258	N	0.821223	0.086624	0.457287
	N259	N	0.819028	0.914673	0.531037
	N260	N	0.464636	0.182003	0.908224
	N261	N	0.538371	0.180530	0.080266
	N262	N	0.466245	0.820745	0.082732
	N263	N	0.538392	0.824709	0.908499
	N264	N	0.464247	0.915808	0.173074
	N265	N	0.537356	0.087986	0.173382
	N266	N	0.463759	0.089408	0.815761
	N267	N	0.536793	0.917089	0.815136
	N268	N	0.913070	0.181667	0.458419
	N269	N	0.088385	0.182570	0.529513
	N270	N	0.084896	0.822489	0.458243
	N271	N	0.910208	0.819756	0.530518
	N272	N	0.179522	0.465662	0.910295
	N273	N	0.180897	0.539220	0.081541
	N274	N	0.822223	0.465805	0.080608
	N275	N	0.823233	0.538876	0.907819
	O276	O	0.537734	0.700246	0.423272
	H277	H	0.527040	0.708805	0.417355
	H278	H	0.549967	0.691888	0.406540
	O279	O	0.634612	0.359373	0.555546
	H280	H	0.644778	0.334663	0.554899
	H281	H	0.625938	0.386646	0.544943
	O282	O	0.517924	0.322959	0.340269
	H283	H	0.504518	0.343704	0.345468
	H284	H	0.519796	0.305784	0.335805
	O285	O	0.627547	-0.469128	-0.565699
	H286	H	0.603928	-0.481187	-0.559112
	H287	H	0.641622	-0.476185	-0.557954
	O288	O	0.446685	-0.433404	0.485820
	H289	H	0.447380	-0.438830	0.475795
	H290	H	0.436606	-0.433512	0.477826
	O291	O	0.634717	0.629015	0.671256
	H292	H	0.627185	0.624353	0.654404
	H293	H	0.639513	0.611907	0.676256
	O294	O	0.700315	0.702231	0.568167
	H295	H	0.719098	0.713895	0.563150
	H296	H	0.693004	0.694581	0.570217
	O297	O	0.975208	1.101346	1.124224
	H298	H	0.969128	1.100695	1.128014
	H299	H	0.977761	1.103361	1.125564
	O300	O	-0.660488	0.470488	0.465876
	H301	H	-0.667686	0.484617	0.469878
	H302	H	-0.661105	0.474078	0.472192
	O303	O	0.427626	0.665795	0.590248
	H304	H	0.428207	0.631420	0.592989
	H305	H	0.453626	0.675871	0.606447
	O306	O	0.972725	-0.103427	-0.161801
	H307	H	0.962228	-0.104763	-0.159298
	H308	H	0.994723	-0.107914	-0.163514
	O309	O	0.498967	0.479986	0.644019
	H310	H	0.490858	0.472403	0.649088
	H311	H	0.489879	0.479302	0.657605
	O312	O	0.550821	0.488051	-0.715328
	H313	H	0.572396	0.477054	-0.722166
	H314	H	0.533462	0.478644	-0.707540
	O315	O	0.511303	0.703481	0.651593
	H316	H	0.540198	0.691402	0.643912
	H317	H	0.521651	0.717986	0.659298
	O318	O	0.639254	0.439845	0.626252
	H319	H	0.636080	0.450024	0.641048
	H320	H	0.655689	0.440348	0.623731
	O321	O	1.148779	-0.013291	1.045248
	H322	H	1.143004	0.004802	1.048839
	H323	H	1.142570	-0.005738	1.023702
	O324	O	-0.114535	-0.058283	1.047645
	H325	H	-0.136639	-0.059605	1.059098
	H326	H	-0.109149	-0.057652	1.040686
	O327	O	0.363883	0.607673	0.314739
	H328	H	0.401368	0.616681	0.320383
	H329	H	0.345510	0.622798	0.337520
	O330	O	0.318768	0.434528	0.649208
	H331	H	0.323252	0.405444	0.631411
	H332	H	0.292361	0.423711	0.669873
	O333	O	0.900386	1.113142	0.850159
	H334	H	0.896976	1.108287	0.834068
	H335	H	0.926031	1.113802	0.848422
	O336	O	0.296117	0.527099	0.279565
	H337	H	0.277256	0.539749	0.266411
	H338	H	0.292578	0.558678	0.273130
	O339	O	1.066888	-0.057631	1.114716
	H340	H	1.063811	-0.059973	1.111779
	H341	H	1.068163	-0.051864	1.094824
	O342	O	-0.057534	0.982787	1.034432
	H343	H	-0.041091	0.991752	1.044934
	H344	H	-0.052681	0.973166	1.041601
	O345	O	-0.029513	0.843967	1.109397
	H346	H	-0.026341	0.841811	1.111784
	H347	H	-0.026670	0.840807	1.104701
	O348	O	1.113374	0.902429	0.925711
	H349	H	1.109109	0.916205	0.928836
	H350	H	1.106809	0.908073	0.914116
	O351	O	0.108776	0.133155	-0.063460
	H352	H	0.100465	0.122581	-0.067371
	H353	H	0.096935	0.125192	-0.045680
	O354	O	1.090315	1.096293	-0.113635
	H355	H	1.094257	1.102765	-0.124066
	H356	H	1.115772	1.092385	-0.112499
	O357	O	0.170000	1.025713	0.187887
	H358	H	0.190720	1.026785	0.203780
	H359	H	0.173170	1.045780	0.183058
	O360	O	0.374020	0.422283	0.549522
	H361	H	0.362049	0.428295	0.531172
	H362	H	0.395741	0.422687	0.551677
	O363	O	0.658400	0.542432	0.374330
	H364	H	0.645639	0.555262	0.384589
	H365	H	0.668502	0.521274	0.379557
	O366	O	0.934912	0.898672	0.925961
	H367	H	0.934241	0.889243	0.921762
	H368	H	0.924452	0.894758	0.934466
	O369	O	0.457342	0.339857	0.694218
	H370	H	0.453855	0.346949	0.677589
	H371	H	0.449781	0.344037	0.705436
	O372	O	0.015843	0.999257	0.011604
	H373	H	0.009382	0.991218	0.001966
	H374	H	0.006152	0.981583	0.015635
	O375	O	0.401448	0.325688	0.452655
	H376	H	0.405648	0.321492	0.457317
	H377	H	0.385962	0.328344	0.458929
	O378	O	0.696292	0.378048	0.308703
	H379	H	0.700686	0.383440	0.299826
	H380	H	0.673100	0.373683	0.291480
	O381	O	0.419176	0.376753	0.510372
	H382	H	0.422519	0.389017	0.513571
	H383	H	0.425046	0.369262	0.511415
	O384	O	0.042994	0.966885	1.016018
	H385	H	0.047721	0.957979	1.010343
	H386	H	0.043861	0.966957	1.017164
	O387	O	0.823114	1.014080	-0.144077
	H388	H	0.811018	1.022574	-0.144455
	H389	H	0.819509	1.014954	-0.145224
	O390	O	0.475168	-0.450780	1.479298
	H391	H	0.466488	-0.434638	1.478503
	H392	H	0.468044	-0.441441	1.471806
	O393	O	1.314025	0.695768	1.473528
	H394	H	1.322363	0.704147	1.475363
	H395	H	1.309163	0.704388	1.475943
	O396	O	-0.125649	1.131727	0.969341
	H397	H	-0.140316	1.141964	0.967758
	H398	H	-0.124865	1.126991	0.944194
	O399	O	0.315582	0.357945	0.678675
	H400	H	0.300069	0.352297	0.644335
	H401	H	0.330470	0.361773	0.683021
	O402	O	0.967158	-0.036692	0.980792
	H403	H	0.954987	-0.036382	0.979606
	H404	H	0.961072	-0.035382	0.987264
	O405	O	0.094076	0.118797	0.133146
	H406	H	0.090876	0.122073	0.126635
	H407	H	0.091325	0.131501	0.141344
	O408	O	1.089493	0.840303	0.854604
	H409	H	1.091115	0.842952	0.842077
	H410	H	1.109020	0.834714	0.852329
	O411	O	0.951044	1.045874	-0.058810
	H412	H	0.927136	1.038972	-0.064128
	H413	H	0.949620	1.058477	-0.070182
	O414	O	-0.149571	-0.031735	1.092787
	H415	H	-0.150970	-0.039209	1.097862
	H416	H	-0.144237	-0.036055	1.088340
	O417	O	0.495915	0.655461	0.285362
	H418	H	0.517017	0.625870	0.281468
	H419	H	0.494811	0.659065	0.259444
	O420	O	0.077059	1.153787	-0.073562
	H421	H	0.079789	1.148776	-0.072774
	H422	H	0.068744	1.148439	-0.064086
	O423	O	1.187095	-0.026923	-0.058780
	H424	H	1.184345	-0.026783	-0.056759
	H425	H	1.198116	-0.020587	-0.065174
	O426	O	-0.294825	-0.690666	0.412837
	H427	H	-0.304031	-0.686123	0.401121
	H428	H	-0.281342	-0.715064	0.400457
	O429	O	0.656530	0.445622	0.628673
	H430	H	0.650184	0.451652	0.625385
	H431	H	0.659713	0.444329	0.633961
