data_Molecule from HDF5

_cell_length_a		16.311712
_cell_length_b		16.241543
_cell_length_c		16.304489
_cell_angle_alpha	90.138788
_cell_angle_beta	90.098771
_cell_angle_gamma	90.122836
_symmetry_space_group_name_H-M	'P 1'
_symmetry_Int_Tables_number		1

loop_
	_symmetry_equiv_pos_as_xyz
	x,y,z

loop_
	_atom_site_label
	_atom_site_type_symbol
	_atom_site_fract_x
	_atom_site_fract_y
	_atom_site_fract_z
	H0	H	0.392550	0.827264	0.706510
	H1	H	0.587922	0.156403	0.709467
	H2	H	0.586869	0.828222	0.280883
	H3	H	0.391433	0.156638	0.280231
	H4	H	0.703375	0.393105	0.830693
	H5	H	0.703605	0.590263	0.157772
	H6	H	0.275070	0.590025	0.830997
	H7	H	0.274868	0.394299	0.158000
	H8	H	0.824662	0.705341	0.398598
	H9	H	0.152959	0.707629	0.592901
	H10	H	0.825448	0.279711	0.590616
	H11	H	0.153684	0.279400	0.397432
	H12	H	0.826001	0.394359	0.709105
	H13	H	0.152405	0.592192	0.710173
	H14	H	0.825480	0.589719	0.281088
	H15	H	0.153125	0.394944	0.280421
	H16	H	0.392804	0.703760	0.830000
	H17	H	0.587164	0.706348	0.157831
	H18	H	0.584955	0.278842	0.830433
	H19	H	0.392598	0.279263	0.158973
	H20	H	0.703041	0.828894	0.396439
	H21	H	0.703263	0.157255	0.592922
	H22	H	0.275623	0.828392	0.590575
	H23	H	0.276587	0.157755	0.397433
	H24	H	0.892584	0.328602	0.207548
	H25	H	0.087491	0.657351	0.208761
	H26	H	0.087361	0.329247	0.779743
	H27	H	0.890619	0.656613	0.781049
	H28	H	0.202666	0.894268	0.330663
	H29	H	0.205368	0.092019	0.658355
	H30	H	0.774229	0.091822	0.330923
	H31	H	0.775867	0.895381	0.657920
	H32	H	0.325239	0.205044	0.897086
	H33	H	0.652950	0.206470	0.092536
	H34	H	0.325545	0.778938	0.089069
	H35	H	0.653838	0.779073	0.896887
	H36	H	0.325515	0.893092	0.207773
	H37	H	0.652699	0.091442	0.209475
	H38	H	0.325597	0.088696	0.780697
	H39	H	0.653158	0.894357	0.780077
	H40	H	0.892695	0.206587	0.330632
	H41	H	0.086730	0.205915	0.659808
	H42	H	0.085431	0.779040	0.331019
	H43	H	0.892250	0.780799	0.658572
	H44	H	0.202176	0.328074	0.896360
	H45	H	0.204443	0.656542	0.093289
	H46	H	0.775459	0.328316	0.092319
	H47	H	0.775699	0.657040	0.896976
	H48	H	0.402412	0.106927	0.584636
	H49	H	0.579012	0.876845	0.587697
	H50	H	0.580225	0.112701	0.387641
	H51	H	0.390384	0.873504	0.398827
	H52	H	0.580867	0.398033	0.110395
	H53	H	0.576032	0.585061	0.879796
	H54	H	0.390109	0.591154	0.114781
	H55	H	0.395530	0.398895	0.878921
	H56	H	0.106982	0.588511	0.398505
	H57	H	0.871788	0.579172	0.599712
	H58	H	0.105965	0.400725	0.589901
	H59	H	0.870764	0.396264	0.394628
	H60	H	0.105998	0.399213	0.588058
	H61	H	0.869324	0.598478	0.589135
	H62	H	0.105451	0.589114	0.405766
	H63	H	0.874022	0.395317	0.406850
	H64	H	0.394903	0.578055	0.109656
	H65	H	0.586686	0.592322	0.874068
	H66	H	0.585392	0.398881	0.112132
	H67	H	0.395219	0.397189	0.878099
	H68	H	0.572134	0.104020	0.410288
	H69	H	0.585275	0.875901	0.583235
	H70	H	0.389213	0.110265	0.585200
	H71	H	0.399300	0.875666	0.396638
	H72	H	0.896883	0.610262	0.092066
	H73	H	0.081546	0.378382	0.082362
	H74	H	0.083726	0.610885	0.900162
	H75	H	0.895236	0.376669	0.904113
	H76	H	0.092293	0.910229	0.611014
	H77	H	0.084164	0.085899	0.378854
	H78	H	0.904590	0.086799	0.608762
	H79	H	0.898221	0.895514	0.377220
	H80	H	0.605463	0.084239	0.902296
	H81	H	0.371911	0.090919	0.087060
	H82	H	0.606337	0.907169	0.099811
	H83	H	0.370552	0.888203	0.899847
	H84	H	0.610012	0.885405	0.089126
	H85	H	0.374877	0.081950	0.083678
	H86	H	0.607188	0.086336	0.898543
	H87	H	0.376473	0.901592	0.907012
	H88	H	0.891658	0.093262	0.614228
	H89	H	0.081886	0.087162	0.379047
	H90	H	0.071398	0.903516	0.606453
	H91	H	0.890627	0.899961	0.376493
	H92	H	0.081235	0.608713	0.902946
	H93	H	0.087944	0.374072	0.089831
	H94	H	0.898341	0.608590	0.085789
	H95	H	0.894958	0.375220	0.899274
	H96	H	0.397496	0.111555	0.595705
	H97	H	0.586090	0.874126	0.590781
	H98	H	0.595989	0.112077	0.407717
	H99	H	0.396137	0.877602	0.405690
	H100	H	0.582991	0.402270	0.110179
	H101	H	0.587875	0.578978	0.877571
	H102	H	0.404117	0.589298	0.109115
	H103	H	0.394032	0.398564	0.877879
	H104	H	0.104485	0.582371	0.401725
	H105	H	0.877558	0.581452	0.578186
	H106	H	0.105529	0.401244	0.587440
	H107	H	0.875546	0.405818	0.400871
	H108	H	0.892503	0.610740	0.087244
	H109	H	0.077276	0.376378	0.092207
	H110	H	0.085291	0.609621	0.904264
	H111	H	0.899403	0.376686	0.901531
	H112	H	0.085839	0.889750	0.614807
	H113	H	0.083295	0.088180	0.377796
	H114	H	0.891864	0.078808	0.609561
	H115	H	0.897621	0.903519	0.379064
	H116	H	0.605682	0.088785	0.902230
	H117	H	0.372082	0.082889	0.093619
	H118	H	0.601333	0.903995	0.076291
	H119	H	0.372019	0.901986	0.891792
	C120	C	0.368541	0.000768	0.615821
	C121	C	0.611675	0.984150	0.616423
	C122	C	0.610502	0.000896	0.373283
	C123	C	0.367652	0.984282	0.372566
	C124	C	0.610702	0.370976	0.002623
	C125	C	0.611477	0.613971	0.985538
	C126	C	0.368217	0.613367	0.002654
	C127	C	0.367268	0.370284	0.986380
	C128	C	-0.002637	0.614658	0.373678
	C129	C	0.980737	0.615324	0.617552
	C130	C	-0.002187	0.371773	0.616400
	C131	C	0.981459	0.371132	0.373020
	C132	C	0.867774	0.501187	0.116088
	C133	C	0.111067	0.484354	0.116584
	C134	C	0.111271	0.501065	0.873758
	C135	C	0.868115	0.484540	0.873564
	C136	C	0.110785	0.872151	0.502635
	C137	C	0.111582	0.115526	0.486885
	C138	C	0.868178	0.114404	0.502664
	C139	C	0.867510	0.871756	0.485959
	C140	C	0.497529	0.113474	0.873116
	C141	C	0.481195	0.113449	0.116364
	C142	C	0.497727	0.870311	0.115897
	C143	C	0.481578	0.870161	0.872370
	C144	C	0.371962	0.876411	0.669064
	C145	C	0.608420	0.107615	0.671260
	C146	C	0.607464	0.877392	0.318338
	C147	C	0.370419	0.107976	0.317975
	C148	C	0.665338	0.373187	0.879542
	C149	C	0.665820	0.611317	0.109028
	C150	C	0.313294	0.610120	0.879548
	C151	C	0.313126	0.374029	0.109619
	C152	C	0.873732	0.668205	0.377343
	C153	C	0.103905	0.670345	0.614171
	C154	C	0.874456	0.316940	0.612488
	C155	C	0.104763	0.316902	0.376537
	C156	C	0.874601	0.373855	0.671077
	C157	C	0.104008	0.612435	0.671849
	C158	C	0.874218	0.611164	0.318668
	C159	C	0.104606	0.374384	0.318625
	C160	C	0.371718	0.666789	0.879108
	C161	C	0.607829	0.668583	0.108882
	C162	C	0.606732	0.316183	0.879349
	C163	C	0.370841	0.316313	0.109899
	C164	C	0.664990	0.877480	0.375964
	C165	C	0.666005	0.107957	0.613704
	C166	C	0.313644	0.877058	0.611971
	C167	C	0.313231	0.108303	0.375792
	C168	C	0.871066	0.377626	0.170503
	C169	C	0.108319	0.608203	0.171052
	C170	C	0.107769	0.377723	0.818168
	C171	C	0.870544	0.607782	0.818817
	C172	C	0.164928	0.874165	0.379538
	C173	C	0.167015	0.112660	0.609725
	C174	C	0.813094	0.111646	0.379603
	C175	C	0.813087	0.874530	0.609066
	C176	C	0.374102	0.167206	0.876556
	C177	C	0.604038	0.168842	0.113519
	C178	C	0.374297	0.816112	0.111091
	C179	C	0.604993	0.816562	0.876324
	C180	C	0.374420	0.873111	0.169845
	C181	C	0.604092	0.111584	0.171453
	C182	C	0.374310	0.109682	0.818345
	C183	C	0.604722	0.873493	0.818013
	C184	C	0.871447	0.168914	0.379496
	C185	C	0.108245	0.169382	0.610410
	C186	C	0.106761	0.816754	0.379811
	C187	C	0.870910	0.817552	0.609349
	C188	C	0.164792	0.377291	0.876092
	C189	C	0.166321	0.607689	0.113768
	C190	C	0.813192	0.377463	0.113148
	C191	C	0.813285	0.607945	0.876260
	C192	C	0.390214	0.087096	0.594831
	C193	C	0.589914	0.897785	0.593801
	C194	C	0.589015	0.087325	0.395302
	C195	C	0.389008	0.898048	0.394174
	C196	C	0.589178	0.393128	0.088666
	C197	C	0.589969	0.591970	0.899333
	C198	C	0.389966	0.592285	0.089035
	C199	C	0.388528	0.391708	0.900260
	C200	C	0.083359	0.593131	0.395535
	C201	C	0.894967	0.592968	0.595605
	C202	C	0.083590	0.393923	0.594943
	C203	C	0.895584	0.392730	0.394417
	C204	C	0.889509	0.587518	0.094570
	C205	C	0.088744	0.398331	0.094625
	C206	C	0.089530	0.587453	0.895927
	C207	C	0.890117	0.398272	0.895197
	C208	C	0.089457	0.894482	0.588705
	C209	C	0.089847	0.093596	0.400772
	C210	C	0.889728	0.092589	0.588672
	C211	C	0.889024	0.893316	0.399793
	C212	C	0.583841	0.092467	0.894661
	C213	C	0.395246	0.091571	0.094496
	C214	C	0.583734	0.892302	0.094829
	C215	C	0.395295	0.891157	0.893291
	Zn216	Zn	0.489812	-0.008073	0.744599
	Zn217	Zn	0.489189	-0.007745	0.244905
	Zn218	Zn	0.739735	0.492635	-0.005751
	Zn219	Zn	0.239348	0.492180	-0.005079
	Zn220	Zn	-0.011455	0.743537	0.495218
	Zn221	Zn	-0.009810	0.243213	0.495081
	Zn222	Zn	-0.010739	0.493083	0.745782
	Zn223	Zn	-0.010249	0.492921	0.244654
	Zn224	Zn	0.489686	0.741822	-0.006363
	Zn225	Zn	0.489024	0.241971	-0.005321
	Zn226	Zn	0.739093	-0.007140	0.494248
	Zn227	Zn	0.239689	-0.006543	0.494164
	N228	N	0.405288	0.954397	0.671697
	N229	N	0.575238	0.029686	0.672936
	N230	N	0.574170	0.955231	0.316969
	N231	N	0.403374	0.030012	0.315702
	N232	N	0.667860	0.406419	0.957308
	N233	N	0.668113	0.578156	0.031402
	N234	N	0.311179	0.577530	0.957362
	N235	N	0.311030	0.406902	0.031989
	N236	N	0.951106	0.670209	0.410957
	N237	N	0.026253	0.672163	0.580952
	N238	N	0.951941	0.315832	0.579061
	N239	N	0.027280	0.314769	0.409580
	N240	N	0.952189	0.407121	0.673749
	N241	N	0.026585	0.579093	0.674038
	N242	N	0.951954	0.578338	0.316553
	N243	N	0.027043	0.407482	0.316367
	N244	N	0.405163	0.668976	0.956612
	N245	N	0.574602	0.670154	0.031102
	N246	N	0.573573	0.314639	0.956817
	N247	N	0.403836	0.313885	0.032358
	N248	N	0.666721	0.955211	0.409633
	N249	N	0.667828	0.030178	0.580047
	N250	N	0.311496	0.955124	0.579518
	N251	N	0.311433	0.030502	0.409129
	N252	N	0.904379	0.455499	0.172389
	N253	N	0.074551	0.530471	0.172855
	N254	N	0.075120	0.455788	0.816628
	N255	N	0.904240	0.530173	0.817408
	N256	N	0.167376	0.908083	0.456958
	N257	N	0.169307	0.080038	0.531754
	N258	N	0.810748	0.078530	0.457249
	N259	N	0.810725	0.907364	0.531297
	N260	N	0.451691	0.169636	0.909773
	N261	N	0.526584	0.170167	0.079908
	N262	N	0.451942	0.814267	0.078228
	N263	N	0.527211	0.813944	0.909000
	N264	N	0.452265	0.905958	0.172957
	N265	N	0.526701	0.077904	0.173341
	N266	N	0.452116	0.077080	0.816203
	N267	N	0.527080	0.906153	0.815578
	N268	N	0.905002	0.170576	0.456990
	N269	N	0.074187	0.170722	0.533239
	N270	N	0.073803	0.815508	0.457463
	N271	N	0.903817	0.815577	0.531839
	N272	N	0.167019	0.454931	0.909809
	N273	N	0.167933	0.529878	0.080501
	N274	N	0.811075	0.455236	0.079958
	N275	N	0.811605	0.530247	0.909533
	O276	O	1.034425	0.019312	0.973635
	H277	H	1.026342	0.017427	0.961953
	H278	H	1.041282	0.022986	0.974176
	O279	O	1.014829	0.986766	0.995596
	H280	H	1.012385	0.996894	0.993040
	H281	H	1.026738	0.994152	0.995414
	O282	O	1.027937	1.014524	0.004560
	H283	H	1.027950	1.012740	0.008009
	H284	H	1.026874	1.003175	0.001516
	O285	O	1.035670	1.044088	0.985587
	H286	H	1.027289	1.042600	0.995250
	H287	H	1.041634	1.042897	0.986656
