data_Molecule from HDF5

_cell_length_a		16.545347
_cell_length_b		16.460743
_cell_length_c		16.604834
_cell_angle_alpha	89.989367
_cell_angle_beta	90.058222
_cell_angle_gamma	89.962569
_symmetry_space_group_name_H-M	'P 1'
_symmetry_Int_Tables_number		1

loop_
	_symmetry_equiv_pos_as_xyz
	x,y,z

loop_
	_atom_site_label
	_atom_site_type_symbol
	_atom_site_fract_x
	_atom_site_fract_y
	_atom_site_fract_z
	H0	H	0.385814	0.851842	0.713918
	H1	H	0.595882	0.164778	0.719930
	H2	H	0.594722	0.853259	0.271694
	H3	H	0.380797	0.168903	0.274599
	H4	H	0.709867	0.404245	0.840993
	H5	H	0.712439	0.618002	0.153633
	H6	H	0.267682	0.615170	0.840268
	H7	H	0.265144	0.406085	0.152790
	H8	H	0.830634	0.733278	0.387654
	H9	H	0.144018	0.729345	0.598586
	H10	H	0.830189	0.287458	0.601234
	H11	H	0.143965	0.288007	0.390360
	H12	H	0.831056	0.402538	0.718515
	H13	H	0.141390	0.617776	0.719258
	H14	H	0.830837	0.618822	0.271040
	H15	H	0.144890	0.405410	0.275155
	H16	H	0.386255	0.730497	0.839924
	H17	H	0.596143	0.734471	0.153698
	H18	H	0.591607	0.289521	0.840451
	H19	H	0.382404	0.289786	0.154157
	H20	H	0.711546	0.852943	0.386464
	H21	H	0.710872	0.164951	0.603114
	H22	H	0.271355	0.850709	0.596018
	H23	H	0.265226	0.168006	0.390383
	H24	H	0.882743	0.353402	0.217201
	H25	H	0.094845	0.667161	0.220005
	H26	H	0.092385	0.353431	0.774844
	H27	H	0.882987	0.667992	0.775620
	H28	H	0.209977	0.903501	0.338655
	H29	H	0.207442	0.113680	0.652157
	H30	H	0.763841	0.115312	0.340559
	H31	H	0.764949	0.901397	0.651161
	H32	H	0.330617	0.231206	0.891356
	H33	H	0.645305	0.230778	0.101539
	H34	H	0.330177	0.790358	0.099219
	H35	H	0.645465	0.789651	0.892910
	H36	H	0.329753	0.905922	0.215204
	H37	H	0.643498	0.115076	0.218373
	H38	H	0.331683	0.116259	0.773775
	H39	H	0.643529	0.903755	0.774264
	H40	H	0.881676	0.231003	0.339214
	H41	H	0.090989	0.230595	0.652042
	H42	H	0.092146	0.788275	0.338457
	H43	H	0.884168	0.788381	0.651578
	H44	H	0.207624	0.352872	0.892257
	H45	H	0.210252	0.667904	0.102024
	H46	H	0.767831	0.352545	0.100980
	H47	H	0.767685	0.668580	0.893001
	H48	H	0.402961	0.122396	0.587480
	H49	H	0.571619	0.897380	0.585875
	H50	H	0.573808	0.118092	0.414370
	H51	H	0.400412	0.897195	0.402798
	H52	H	0.579110	0.422086	0.108983
	H53	H	0.580212	0.601267	0.885176
	H54	H	0.403863	0.610241	0.111084
	H55	H	0.396043	0.424300	0.886172
	H56	H	0.098174	0.597421	0.406043
	H57	H	0.873410	0.604433	0.583451
	H58	H	0.101953	0.421253	0.593017
	H59	H	0.873650	0.420933	0.401298
	H60	H	0.098845	0.414241	0.578526
	H61	H	0.876828	0.595283	0.580768
	H62	H	0.098111	0.598611	0.406367
	H63	H	0.874307	0.418434	0.408645
	H64	H	0.387607	0.595945	0.111534
	H65	H	0.578473	0.595790	0.887594
	H66	H	0.576461	0.422317	0.108531
	H67	H	0.400673	0.419339	0.885387
	H68	H	0.577974	0.122022	0.408045
	H69	H	0.575042	0.898639	0.581373
	H70	H	0.396765	0.122138	0.579744
	H71	H	0.398319	0.898589	0.408098
	H72	H	0.904370	0.622106	0.087087
	H73	H	0.071682	0.401373	0.080028
	H74	H	0.068739	0.622354	0.903717
	H75	H	0.896508	0.395674	0.904582
	H76	H	0.076049	0.920660	0.605963
	H77	H	0.076725	0.098748	0.383188
	H78	H	0.891155	0.097797	0.610215
	H79	H	0.903760	0.913710	0.383121
	H80	H	0.596259	0.091857	0.911980
	H81	H	0.374356	0.101595	0.085138
	H82	H	0.597396	0.925728	0.081109
	H83	H	0.371724	0.919096	0.897115
	H84	H	0.599773	0.926069	0.089782
	H85	H	0.375767	0.098745	0.084974
	H86	H	0.601811	0.097499	0.898914
	H87	H	0.374750	0.913569	0.912758
	H88	H	0.901309	0.092215	0.604498
	H89	H	0.076427	0.098294	0.384267
	H90	H	0.078960	0.916312	0.608465
	H91	H	0.889997	0.924325	0.381801
	H92	H	0.077741	0.620915	0.914859
	H93	H	0.083116	0.397801	0.082574
	H94	H	0.901208	0.620842	0.078255
	H95	H	0.902118	0.398796	0.906799
	H96	H	0.393867	0.125709	0.588393
	H97	H	0.577075	0.895493	0.585839
	H98	H	0.570228	0.119893	0.406829
	H99	H	0.394835	0.896260	0.403964
	H100	H	0.577356	0.420041	0.109449
	H101	H	0.574374	0.600936	0.886870
	H102	H	0.406844	0.590922	0.102255
	H103	H	0.394686	0.418130	0.883358
	H104	H	0.098050	0.598268	0.406666
	H105	H	0.872578	0.596633	0.590029
	H106	H	0.094766	0.429645	0.581551
	H107	H	0.877508	0.425540	0.406542
	H108	H	0.896055	0.624283	0.084701
	H109	H	0.074241	0.396572	0.091094
	H110	H	0.082155	0.627670	0.902569
	H111	H	0.896563	0.398260	0.910404
	H112	H	0.081799	0.921446	0.607003
	H113	H	0.075694	0.098991	0.383422
	H114	H	0.901795	0.104092	0.607908
	H115	H	0.904506	0.930470	0.388779
	H116	H	0.601729	0.106694	0.911413
	H117	H	0.374280	0.100282	0.087376
	H118	H	0.600894	0.918581	0.085003
	H119	H	0.378673	0.929925	0.908366
	C120	C	0.366830	0.018905	0.616523
	C121	C	0.608474	1.000323	0.617488
	C122	C	0.607703	0.016837	0.375494
	C123	C	0.365018	1.001806	0.373254
	C124	C	0.609317	0.389418	0.005325
	C125	C	0.610550	0.632791	0.989418
	C126	C	0.367469	0.631335	0.004973
	C127	C	0.365077	0.388336	0.988470
	C128	C	-0.004794	0.631704	0.373154
	C129	C	0.977978	0.631153	0.616815
	C130	C	-0.004688	0.388564	0.616996
	C131	C	0.978997	0.388883	0.373792
	C132	C	0.867568	0.518734	0.116259
	C133	C	0.108961	0.502630	0.117355
	C134	C	0.108464	0.519260	0.874985
	C135	C	0.866222	0.501836	0.875201
	C136	C	0.110196	0.887490	0.503450
	C137	C	0.108306	0.130708	0.487117
	C138	C	0.865329	0.130774	0.504397
	C139	C	0.866592	0.888860	0.487278
	C140	C	0.496235	0.131352	0.874855
	C141	C	0.478786	0.132073	0.118189
	C142	C	0.495808	0.890406	0.117169
	C143	C	0.479217	0.888779	0.875028
	C144	C	0.366702	0.899223	0.674555
	C145	C	0.613088	0.117800	0.679213
	C146	C	0.612131	0.900077	0.312661
	C147	C	0.362760	0.120947	0.314040
	C148	C	0.669308	0.386557	0.887814
	C149	C	0.671845	0.635912	0.106781
	C150	C	0.307706	0.633623	0.887109
	C151	C	0.305167	0.386886	0.106166
	C152	C	0.877648	0.692967	0.369835
	C153	C	0.096309	0.690349	0.617815
	C154	C	0.877563	0.327523	0.619663
	C155	C	0.096788	0.328247	0.371886
	C156	C	0.877958	0.384945	0.677986
	C157	C	0.095238	0.634876	0.677858
	C158	C	0.878027	0.636213	0.311419
	C159	C	0.097316	0.386779	0.314715
	C160	C	0.366567	0.690716	0.886846
	C161	C	0.613746	0.693909	0.106913
	C162	C	0.610623	0.329366	0.887535
	C163	C	0.363627	0.329210	0.106514
	C164	C	0.670420	0.899918	0.369779
	C165	C	0.670403	0.117929	0.621160
	C166	C	0.310034	0.898605	0.615724
	C167	C	0.304949	0.120731	0.371505
	C168	C	0.864715	0.400367	0.176932
	C169	C	0.112530	0.620535	0.178831
	C170	C	0.110759	0.400660	0.815119
	C171	C	0.864280	0.620515	0.815427
	C172	C	0.169617	0.885741	0.385589
	C173	C	0.167552	0.132363	0.605181
	C174	C	0.804432	0.133443	0.387027
	C175	C	0.805868	0.884437	0.604377
	C176	C	0.378003	0.191178	0.872962
	C177	C	0.597497	0.191062	0.119968
	C178	C	0.377393	0.830030	0.118271
	C179	C	0.597921	0.829148	0.874022
	C180	C	0.377151	0.887610	0.175884
	C181	C	0.596929	0.133853	0.178278
	C182	C	0.378445	0.134165	0.814343
	C183	C	0.597062	0.886108	0.815180
	C184	C	0.862972	0.190806	0.386528
	C185	C	0.109592	0.190417	0.605081
	C186	C	0.110977	0.828355	0.385364
	C187	C	0.864846	0.827890	0.604648
	C188	C	0.168241	0.400480	0.873294
	C189	C	0.169757	0.621008	0.120381
	C190	C	0.807388	0.400128	0.119192
	C191	C	0.807130	0.620948	0.873776
	C192	C	0.390849	0.101980	0.592172
	C193	C	0.582044	0.918408	0.591615
	C194	C	0.581456	0.098686	0.402210
	C195	C	0.390318	0.919004	0.397748
	C196	C	0.584728	0.414304	0.087537
	C197	C	0.584913	0.606793	0.907952
	C198	C	0.392436	0.606143	0.086989
	C199	C	0.390075	0.413331	0.906208
	C200	C	0.076745	0.605557	0.398940
	C201	C	0.895599	0.605962	0.591973
	C202	C	0.077204	0.414265	0.591388
	C203	C	0.896515	0.414284	0.398429
	C204	C	0.893264	0.601053	0.090677
	C205	C	0.083534	0.420235	0.091899
	C206	C	0.083552	0.602059	0.899915
	C207	C	0.891167	0.419188	0.900114
	C208	C	0.085852	0.912383	0.585827
	C209	C	0.083607	0.105664	0.405055
	C210	C	0.890813	0.105408	0.586108
	C211	C	0.892247	0.915196	0.405814
	C212	C	0.578459	0.105877	0.900191
	C213	C	0.396354	0.107402	0.093159
	C214	C	0.577906	0.916131	0.092479
	C215	C	0.396767	0.913691	0.898975
	Zn216	Zn	0.487290	0.009623	0.745728
	Zn217	Zn	0.487156	0.010591	0.246308
	Zn218	Zn	0.738284	0.510454	-0.002750
	Zn219	Zn	0.237122	0.510787	-0.003410
	Zn220	Zn	-0.013070	0.759561	0.494943
	Zn221	Zn	-0.013211	0.259977	0.495265
	Zn222	Zn	-0.012934	0.510014	0.746041
	Zn223	Zn	-0.012468	0.510359	0.245328
	Zn224	Zn	0.488053	0.761022	-0.002442
	Zn225	Zn	0.487368	0.260031	-0.003424
	Zn226	Zn	0.736685	0.008504	0.496043
	Zn227	Zn	0.238270	0.010256	0.495558
	N228	N	0.401073	0.975170	0.675282
	N229	N	0.575475	0.043530	0.677081
	N230	N	0.573593	0.974033	0.316302
	N231	N	0.399225	0.045915	0.314841
	N232	N	0.668833	0.422843	0.962170
	N233	N	0.670097	0.598965	0.032650
	N234	N	0.308068	0.597400	0.961616
	N235	N	0.305680	0.422592	0.031317
	N236	N	0.951502	0.690438	0.407491
	N237	N	0.022433	0.687845	0.580274
	N238	N	0.951494	0.329666	0.582388
	N239	N	0.022006	0.329270	0.407660
	N240	N	0.952251	0.422308	0.676529
	N241	N	0.020601	0.598575	0.677204
	N242	N	0.952270	0.598911	0.313167
	N243	N	0.022847	0.423673	0.315675
	N244	N	0.402783	0.689544	0.961117
	N245	N	0.576473	0.692374	0.032860
	N246	N	0.573948	0.330846	0.961714
	N247	N	0.399997	0.329983	0.032260
	N248	N	0.667610	0.973606	0.408436
	N249	N	0.667819	0.043923	0.583359
	N250	N	0.309767	0.974101	0.580452
	N251	N	0.305982	0.045562	0.407467
	N252	N	0.901413	0.475210	0.175362
	N253	N	0.075409	0.545993	0.176925
	N254	N	0.074369	0.475647	0.815985
	N255	N	0.900145	0.545171	0.815902
	N256	N	0.169390	0.921694	0.460277
	N257	N	0.167025	0.096139	0.530721
	N258	N	0.805415	0.097121	0.461472
	N259	N	0.806855	0.921614	0.530374
	N260	N	0.452345	0.189666	0.909802
	N261	N	0.522982	0.190076	0.083387
	N262	N	0.452478	0.831175	0.082904
	N263	N	0.523624	0.830646	0.910615
	N264	N	0.451683	0.924226	0.175599
	N265	N	0.521945	0.098106	0.177421
	N266	N	0.453117	0.097648	0.815228
	N267	N	0.522303	0.922355	0.815668
	N268	N	0.900082	0.189306	0.460522
	N269	N	0.073482	0.189543	0.530621
	N270	N	0.074762	0.829223	0.459642
	N271	N	0.901607	0.830350	0.530601
	N272	N	0.167067	0.475299	0.909713
	N273	N	0.167555	0.546713	0.082775
	N274	N	0.809067	0.474749	0.082270
	N275	N	0.807783	0.546039	0.909851
	O276	O	1.188536	0.802003	-0.035556
	H277	H	1.188389	0.808992	-0.038790
	H278	H	1.198628	0.790889	-0.048265
	O279	O	-0.229430	0.141411	1.010217
	H280	H	-0.231956	0.158363	1.008506
	H281	H	-0.220815	0.129989	1.014331
	O282	O	1.016153	1.113225	0.858041
	H283	H	1.002540	1.089905	0.864484
	H284	H	1.002888	1.099010	0.860021
	O285	O	0.591848	0.601675	0.508857
	H286	H	0.604788	0.597155	0.524389
	H287	H	0.605651	0.613459	0.516792
	O288	O	1.514433	-0.407101	1.619382
	H289	H	1.527679	-0.401486	1.627666
	H290	H	1.516851	-0.394193	1.618444
	O291	O	0.541048	0.704621	0.476230
	H292	H	0.544358	0.696533	0.456917
	H293	H	0.551400	0.708068	0.462582
	O294	O	-0.035408	-0.198627	0.211884
	H295	H	-0.037338	-0.215046	0.219952
	H296	H	-0.027728	-0.210528	0.204987
	O297	O	0.919759	0.081154	0.040299
	H298	H	0.936181	0.070068	0.037094
	H299	H	0.924607	0.086683	0.033011
	O300	O	0.188908	0.051025	-0.199426
	H301	H	0.192847	0.034907	-0.208334
	H302	H	0.200098	0.036171	-0.196590
	O303	O	0.083856	-0.171769	0.095250
	H304	H	0.094193	-0.172960	0.090350
	H305	H	0.092440	-0.171515	0.092902
	O306	O	0.773289	-0.205029	0.024343
	H307	H	0.772252	-0.210980	0.056344
	H308	H	0.752822	-0.216245	0.032942
	O309	O	0.691360	0.305036	0.288839
	H310	H	0.684631	0.319975	0.308034
	H311	H	0.710237	0.295981	0.296945
	O312	O	0.258177	0.476676	0.470394
	H313	H	0.252061	0.475285	0.503960
	H314	H	0.269777	0.489232	0.477311
	O315	O	0.807211	0.835321	0.180520
	H316	H	0.818977	0.857381	0.190631
	H317	H	0.823047	0.850435	0.179919
	O318	O	0.787353	0.997801	0.198080
	H319	H	0.806194	1.010273	0.199285
	H320	H	0.775911	1.004731	0.180451
	O321	O	-0.067944	0.927105	0.815703
	H322	H	-0.077737	0.922480	0.813986
	H323	H	-0.063564	0.920309	0.815298
	O324	O	1.065053	-0.060762	1.211670
	H325	H	1.053495	-0.061325	1.202012
	H326	H	1.060399	-0.088343	1.209857
	O327	O	1.673861	0.709721	0.695976
	H328	H	1.668222	0.722074	0.715745
	H329	H	1.683007	0.690436	0.678580
	O330	O	0.565212	0.369725	0.426566
	H331	H	0.574873	0.367293	0.427998
	H332	H	0.569640	0.359087	0.413050
	O333	O	0.277262	0.300279	0.528919
	H334	H	0.269768	0.283735	0.533672
	H335	H	0.279003	0.295250	0.533960
	O336	O	0.679850	0.712937	0.484261
	H337	H	0.678819	0.713411	0.489540
	H338	H	0.692169	0.722223	0.492942
	O339	O	0.511280	0.287356	0.539238
	H340	H	0.507338	0.286792	0.537898
	H341	H	0.500329	0.289027	0.532554
	O342	O	-0.037104	1.192043	0.013902
	H343	H	-0.032879	1.197506	0.030510
	H344	H	-0.017631	1.193859	0.008432
	O345	O	0.013415	0.225571	0.206695
	H346	H	0.013135	0.214198	0.212835
	H347	H	0.027999	0.242719	0.229601
	O348	O	0.702554	0.558574	0.715292
	H349	H	0.704534	0.568667	0.717537
	H350	H	0.715103	0.551852	0.732274
	O351	O	0.205239	0.039430	1.216204
	H352	H	0.184151	0.007660	1.219340
	H353	H	0.234954	0.044465	1.250061
	O354	O	1.122622	0.140379	0.970585
	H355	H	1.138075	0.151746	0.972895
	H356	H	1.123397	0.143967	0.967112
	O357	O	0.614840	0.555174	0.451006
	H358	H	0.608216	0.543288	0.465377
	H359	H	0.614666	0.550224	0.438124
	O360	O	0.442242	0.712513	0.280997
	H361	H	0.444022	0.727622	0.254504
	H362	H	0.475316	0.687581	0.277776
	O363	O	0.447534	0.690673	0.519859
	H364	H	0.468603	0.693128	0.502578
	H365	H	0.443947	0.698851	0.529572
	O366	O	0.900259	0.224804	0.951714
	H367	H	0.902529	0.219342	0.961395
	H368	H	0.891559	0.233132	0.951681
	O369	O	0.008780	-0.011218	0.850320
	H370	H	-0.000722	-0.025089	0.844191
	H371	H	0.009708	-0.018140	0.844762
	O372	O	0.319453	0.691119	0.655478
	H373	H	0.332799	0.668635	0.641989
	H374	H	0.337664	0.685014	0.635052
	O375	O	1.250044	0.377066	0.256917
	H376	H	1.255312	0.356250	0.270907
	H377	H	1.240921	0.373843	0.258484
	O378	O	-0.165020	-0.086328	0.951402
	H379	H	-0.165759	-0.096855	0.951961
	H380	H	-0.160874	-0.084596	0.944238
	O381	O	0.206150	1.230164	0.029837
	H382	H	0.213870	1.245045	0.049645
	H383	H	0.211041	1.244493	0.041212
	O384	O	0.641612	0.360532	0.689934
	H385	H	0.628780	0.366487	0.680808
	H386	H	0.660778	0.342518	0.718138
	O387	O	0.266695	0.719267	1.449685
	H388	H	0.261538	0.726879	1.419677
	H389	H	0.257312	0.737419	1.434705
	O390	O	-0.222707	1.212457	0.807190
	H391	H	-0.225785	1.195872	0.829749
	H392	H	-0.194512	1.214534	0.829264
	O393	O	1.194057	-0.008800	0.008172
	H394	H	1.200132	-0.000796	0.011031
	H395	H	1.206246	0.002022	0.025292
	O396	O	0.680488	0.477722	0.453455
	H397	H	0.680550	0.494333	0.476392
	H398	H	0.675651	0.474393	0.463033
	O399	O	0.522165	0.289515	0.274149
	H400	H	0.545240	0.295067	0.265211
	H401	H	0.535360	0.269601	0.253804
	O402	O	1.004405	0.016123	1.026910
	H403	H	1.024687	0.029662	1.024134
	H404	H	1.005571	0.003760	1.008919
	O405	O	0.638719	0.289872	0.512256
	H406	H	0.645746	0.272946	0.521460
	H407	H	0.639717	0.281879	0.528988
	O408	O	0.854286	0.808600	0.862463
	H409	H	0.843909	0.817201	0.877372
	H410	H	0.881186	0.815217	0.890090
	O411	O	0.989907	1.057660	0.031429
	H412	H	1.010026	1.065284	0.037353
	H413	H	0.996604	1.066584	0.024593
	O414	O	0.006999	-0.176817	-0.222121
	H415	H	0.009714	-0.196841	-0.238451
	H416	H	0.016510	-0.182376	-0.203723
	O417	O	0.282509	0.339321	0.699836
	H418	H	0.300649	0.348556	0.695957
	H419	H	0.265683	0.318468	0.708422
	O420	O	1.195327	-0.218587	0.769235
	H421	H	1.200153	-0.217922	0.782091
	H422	H	1.221907	-0.241546	0.742487
	O423	O	0.774350	1.049254	-0.215423
	H424	H	0.761839	1.045031	-0.221746
	H425	H	0.768610	1.060204	-0.210806
	O426	O	0.295561	0.719701	0.283356
	H427	H	0.335835	0.727410	0.276285
	H428	H	0.298264	0.681553	0.289108
	O429	O	0.386205	0.339806	0.344743
	H430	H	0.392011	0.354643	0.356328
	H431	H	0.402276	0.350008	0.331065
	O432	O	0.856544	0.146981	1.200891
	H433	H	0.863672	0.132487	1.191482
	H434	H	0.862705	0.126910	1.189513
	O435	O	0.450878	0.480184	0.320148
	H436	H	0.448791	0.471719	0.338169
	H437	H	0.449058	0.481943	0.317923
	O438	O	0.615219	0.484225	0.620483
	H439	H	0.619681	0.469655	0.622925
	H440	H	0.600270	0.475674	0.628251
	O441	O	0.577469	0.571535	0.288710
	H442	H	0.597255	0.570119	0.305450
	H443	H	0.563179	0.547849	0.285039
	O444	O	0.649322	0.444949	0.308261
	H445	H	0.642563	0.434563	0.308161
	H446	H	0.674881	0.447389	0.306918
	O447	O	0.307419	0.510372	0.485636
	H448	H	0.310675	0.528544	0.496020
	H449	H	0.306424	0.508816	0.497645
	O450	O	1.099870	-0.149241	-0.098431
	H451	H	1.111265	-0.151302	-0.118686
	H452	H	1.093190	-0.146717	-0.093376
	O453	O	0.429162	0.299863	0.707983
	H454	H	0.424262	0.317613	0.697852
	H455	H	0.437261	0.285567	0.730702
	O456	O	0.182076	1.093252	1.038213
	H457	H	0.193171	1.061454	1.041662
	H458	H	0.194990	1.116500	1.040305
	O459	O	0.478565	0.459241	0.654969
	H460	H	0.472175	0.467830	0.650366
	H461	H	0.474298	0.446445	0.645814
	O462	O	0.429444	0.471209	0.544308
	H463	H	0.431391	0.471911	0.550877
	H464	H	0.416350	0.483594	0.547055
	O465	O	0.276824	0.514458	0.684062
	H466	H	0.284322	0.490850	0.689087
	H467	H	0.265683	0.508774	0.699062
	O468	O	-0.055423	1.017816	0.017883
	H469	H	-0.053957	1.016309	0.020931
	H470	H	-0.045617	1.013591	0.003413
	O471	O	0.514680	0.706328	0.710510
	H472	H	0.529281	0.702636	0.715595
	H473	H	0.510482	0.718616	0.713862
	O474	O	0.964150	1.213914	-0.213448
	H475	H	0.961102	1.208514	-0.229955
	H476	H	0.957120	1.215781	-0.213997
	O477	O	0.402742	0.542561	0.366646
	H478	H	0.403415	0.533134	0.375301
	H479	H	0.385204	0.544194	0.362277
