data_Molecule from HDF5

_cell_length_a		16.294006
_cell_length_b		16.311870
_cell_length_c		16.088041
_cell_angle_alpha	90.194878
_cell_angle_beta	89.819747
_cell_angle_gamma	89.565748
_symmetry_space_group_name_H-M	'P 1'
_symmetry_Int_Tables_number		1

loop_
	_symmetry_equiv_pos_as_xyz
	x,y,z

loop_
	_atom_site_label
	_atom_site_type_symbol
	_atom_site_fract_x
	_atom_site_fract_y
	_atom_site_fract_z
	H0	H	0.407089	0.838941	0.710385
	H1	H	0.596355	0.168305	0.710264
	H2	H	0.601842	0.840049	0.283896
	H3	H	0.403970	0.168082	0.285610
	H4	H	0.717762	0.404769	0.831072
	H5	H	0.714732	0.602325	0.161603
	H6	H	0.289691	0.603150	0.830737
	H7	H	0.287427	0.405707	0.160491
	H8	H	0.841050	0.722353	0.394634
	H9	H	0.165827	0.720008	0.597461
	H10	H	0.840338	0.289106	0.598350
	H11	H	0.165281	0.283990	0.392086
	H12	H	0.839190	0.409279	0.710039
	H13	H	0.167449	0.600400	0.709661
	H14	H	0.838692	0.601519	0.284988
	H15	H	0.166800	0.404208	0.280776
	H16	H	0.405358	0.718707	0.831754
	H17	H	0.602585	0.718035	0.161109
	H18	H	0.603942	0.288093	0.831948
	H19	H	0.402374	0.291200	0.162650
	H20	H	0.721186	0.841660	0.396674
	H21	H	0.717611	0.166866	0.600167
	H22	H	0.288718	0.839811	0.598525
	H23	H	0.285208	0.166127	0.398759
	H24	H	0.906393	0.340425	0.209578
	H25	H	0.098369	0.668126	0.211406
	H26	H	0.101230	0.340644	0.783829
	H27	H	0.905485	0.668430	0.783761
	H28	H	0.221309	0.899547	0.333599
	H29	H	0.214378	0.101119	0.663209
	H30	H	0.787888	0.103542	0.332032
	H31	H	0.789792	0.906837	0.662521
	H32	H	0.341092	0.222350	0.897390
	H33	H	0.666577	0.219642	0.099138
	H34	H	0.341090	0.788227	0.099550
	H35	H	0.666431	0.786798	0.894795
	H36	H	0.339444	0.908264	0.210843
	H37	H	0.667339	0.100061	0.210596
	H38	H	0.338836	0.100800	0.786707
	H39	H	0.667510	0.905467	0.783381
	H40	H	0.903952	0.217341	0.331231
	H41	H	0.101214	0.218114	0.661614
	H42	H	0.104763	0.787192	0.331662
	H43	H	0.904110	0.790883	0.661321
	H44	H	0.222280	0.342004	0.893218
	H45	H	0.218598	0.666789	0.099038
	H46	H	0.786911	0.341681	0.097186
	H47	H	0.786539	0.667563	0.897069
	H48	H	0.406894	0.118091	0.586560
	H49	H	0.603377	0.887132	0.587888
	H50	H	0.597616	0.120794	0.406131
	H51	H	0.408845	0.887099	0.405112
	H52	H	0.600263	0.408535	0.117105
	H53	H	0.592645	0.593520	0.879746
	H54	H	0.415361	0.588573	0.110220
	H55	H	0.403626	0.410209	0.875638
	H56	H	0.116687	0.590143	0.406397
	H57	H	0.885058	0.611032	0.582958
	H58	H	0.119969	0.408545	0.586565
	H59	H	0.885633	0.408409	0.402245
	H60	H	0.119876	0.410272	0.588365
	H61	H	0.891004	0.588108	0.582148
	H62	H	0.121825	0.595921	0.398652
	H63	H	0.886860	0.409799	0.406880
	H64	H	0.416032	0.606017	0.115684
	H65	H	0.594189	0.599995	0.876997
	H66	H	0.596148	0.417003	0.113949
	H67	H	0.416371	0.420899	0.882692
	H68	H	0.593953	0.120475	0.404337
	H69	H	0.598296	0.886144	0.594107
	H70	H	0.402735	0.121606	0.594370
	H71	H	0.412513	0.886624	0.402135
	H72	H	0.907550	0.620670	0.089521
	H73	H	0.098782	0.388326	0.088083
	H74	H	0.097839	0.622175	0.902734
	H75	H	0.905508	0.388674	0.910667
	H76	H	0.096739	0.905071	0.617028
	H77	H	0.088434	0.093868	0.381051
	H78	H	0.915825	0.091377	0.611200
	H79	H	0.914979	0.920888	0.382589
	H80	H	0.625399	0.113675	0.904323
	H81	H	0.388598	0.099187	0.085902
	H82	H	0.618602	0.911027	0.086317
	H83	H	0.383081	0.904819	0.899400
	H84	H	0.620832	0.911419	0.091986
	H85	H	0.387327	0.094315	0.091273
	H86	H	0.613828	0.089352	0.919564
	H87	H	0.388505	0.907952	0.913941
	H88	H	0.913723	0.105755	0.616361
	H89	H	0.098805	0.100222	0.376118
	H90	H	0.098980	0.915712	0.615042
	H91	H	0.918209	0.905577	0.378347
	H92	H	0.095101	0.621089	0.904632
	H93	H	0.093793	0.388245	0.088524
	H94	H	0.907731	0.620863	0.089627
	H95	H	0.907095	0.384866	0.897116
	H96	H	0.410977	0.119492	0.594727
	H97	H	0.595188	0.888852	0.587537
	H98	H	0.593859	0.119249	0.407493
	H99	H	0.413043	0.888989	0.407238
	H100	H	0.591381	0.409291	0.113070
	H101	H	0.599378	0.594878	0.876669
	H102	H	0.400582	0.596214	0.117363
	H103	H	0.420115	0.403241	0.878571
	H104	H	0.120048	0.600273	0.408767
	H105	H	0.883602	0.597652	0.602520
	H106	H	0.120838	0.408114	0.588990
	H107	H	0.886979	0.412456	0.403910
	H108	H	0.907671	0.620511	0.089696
	H109	H	0.096620	0.389372	0.083974
	H110	H	0.098292	0.621165	0.904774
	H111	H	0.918954	0.390392	0.904359
	H112	H	0.088983	0.911192	0.612979
	H113	H	0.099498	0.087096	0.380070
	H114	H	0.901730	0.096122	0.617402
	H115	H	0.903860	0.911802	0.376040
	H116	H	0.622016	0.087172	0.889439
	H117	H	0.385563	0.101956	0.092559
	H118	H	0.621032	0.906891	0.088418
	H119	H	0.389094	0.919065	0.903271
	C120	C	0.380086	0.011527	0.620274
	C121	C	0.625238	0.995684	0.619393
	C122	C	0.625036	0.012455	0.376088
	C123	C	0.381402	0.995214	0.376347
	C124	C	0.625491	0.382427	0.005534
	C125	C	0.623450	0.624748	0.987288
	C126	C	0.382007	0.625683	0.005333
	C127	C	0.382777	0.383106	0.988045
	C128	C	0.011692	0.625313	0.375341
	C129	C	0.994868	0.626437	0.618260
	C130	C	0.011989	0.382070	0.617539
	C131	C	0.994497	0.381024	0.373886
	C132	C	0.880104	0.512779	0.118491
	C133	C	0.124650	0.496221	0.117352
	C134	C	0.126488	0.513461	0.874332
	C135	C	0.881273	0.495797	0.875280
	C136	C	0.124921	0.881088	0.506085
	C137	C	0.124029	0.123592	0.488228
	C138	C	0.881043	0.126204	0.505768
	C139	C	0.883056	0.884071	0.488134
	C140	C	0.512262	0.125487	0.876582
	C141	C	0.494920	0.126608	0.119146
	C142	C	0.512233	0.882016	0.118664
	C143	C	0.495137	0.881907	0.876192
	C144	C	0.385347	0.888098	0.673930
	C145	C	0.619283	0.118792	0.674217
	C146	C	0.622891	0.889391	0.320667
	C147	C	0.382944	0.118654	0.322048
	C148	C	0.680375	0.384427	0.880726
	C149	C	0.677910	0.622601	0.111970
	C150	C	0.327357	0.623547	0.880461
	C151	C	0.325820	0.385423	0.111722
	C152	C	0.889168	0.682774	0.375781
	C153	C	0.117266	0.681778	0.617089
	C154	C	0.889092	0.327491	0.617093
	C155	C	0.116879	0.323785	0.373795
	C156	C	0.888589	0.387135	0.672770
	C157	C	0.118101	0.622237	0.672845
	C158	C	0.888201	0.623221	0.320973
	C159	C	0.117550	0.383243	0.317981
	C160	C	0.384658	0.681055	0.880980
	C161	C	0.622086	0.680399	0.111699
	C162	C	0.623685	0.326617	0.881208
	C163	C	0.383344	0.328670	0.112668
	C164	C	0.682294	0.890244	0.376898
	C165	C	0.679548	0.118290	0.619191
	C166	C	0.326175	0.888602	0.618258
	C167	C	0.323947	0.117635	0.378476
	C168	C	0.884416	0.389669	0.173241
	C169	C	0.120207	0.619156	0.173503
	C170	C	0.123512	0.390120	0.819601
	C171	C	0.884247	0.619176	0.820680
	C172	C	0.182561	0.880868	0.382477
	C173	C	0.177826	0.121638	0.613164
	C174	C	0.825760	0.123835	0.381337
	C175	C	0.827446	0.886567	0.612651
	C176	C	0.389291	0.182615	0.878189
	C177	C	0.617754	0.181419	0.118158
	C178	C	0.389577	0.826941	0.118431
	C179	C	0.617927	0.825420	0.876246
	C180	C	0.388713	0.886704	0.173885
	C181	C	0.618329	0.122084	0.173661
	C182	C	0.388008	0.122284	0.823289
	C183	C	0.618648	0.884554	0.820817
	C184	C	0.883197	0.180403	0.380924
	C185	C	0.121507	0.179804	0.612312
	C186	C	0.124633	0.824912	0.381421
	C187	C	0.884106	0.828631	0.612282
	C188	C	0.183529	0.390889	0.874255
	C189	C	0.180119	0.618322	0.117683
	C190	C	0.825359	0.390307	0.116997
	C191	C	0.825139	0.618729	0.876904
	C192	C	0.400640	0.097562	0.598400
	C193	C	0.604944	0.909432	0.596614
	C194	C	0.601791	0.098082	0.399072
	C195	C	0.404770	0.909706	0.398337
	C196	C	0.602579	0.405077	0.092390
	C197	C	0.601735	0.602718	0.900502
	C198	C	0.403989	0.603471	0.091825
	C199	C	0.406433	0.405006	0.901334
	C200	C	0.097426	0.602213	0.397958
	C201	C	0.908845	0.605234	0.595817
	C202	C	0.098031	0.403001	0.594724
	C203	C	0.908629	0.403674	0.397448
	C204	C	0.901390	0.598425	0.096064
	C205	C	0.102782	0.410864	0.093715
	C206	C	0.103790	0.599346	0.897337
	C207	C	0.903838	0.410112	0.897451
	C208	C	0.101606	0.903767	0.592580
	C209	C	0.101942	0.100488	0.401543
	C210	C	0.903592	0.104100	0.592547
	C211	C	0.905814	0.906223	0.401285
	C212	C	0.598128	0.103311	0.898116
	C213	C	0.409279	0.104996	0.096605
	C214	C	0.598112	0.903477	0.095674
	C215	C	0.409187	0.903956	0.898862
	Zn216	Zn	0.503023	0.003134	0.748285
	Zn217	Zn	0.503240	0.004269	0.247036
	Zn218	Zn	0.751557	0.504414	-0.003668
	Zn219	Zn	0.254514	0.504321	-0.003928
	Zn220	Zn	0.003345	0.754928	0.495870
	Zn221	Zn	0.003161	0.252597	0.496029
	Zn222	Zn	0.003635	0.504217	0.747014
	Zn223	Zn	0.002655	0.504250	0.246787
	Zn224	Zn	0.503678	0.753523	-0.002859
	Zn225	Zn	0.503982	0.254820	-0.002314
	Zn226	Zn	0.754288	0.005129	0.497493
	Zn227	Zn	0.251790	0.002225	0.498046
	N228	N	0.418162	0.965569	0.675614
	N229	N	0.586029	0.041428	0.674255
	N230	N	0.587790	0.966533	0.320094
	N231	N	0.417936	0.041609	0.320423
	N232	N	0.681664	0.418267	0.959187
	N233	N	0.678970	0.588644	0.033534
	N234	N	0.325664	0.589907	0.958699
	N235	N	0.325623	0.418663	0.033269
	N236	N	0.966954	0.684358	0.408792
	N237	N	0.039700	0.684374	0.583816
	N238	N	0.966857	0.324258	0.583354
	N239	N	0.039403	0.322166	0.407752
	N240	N	0.965982	0.420360	0.673165
	N241	N	0.040899	0.588472	0.673678
	N242	N	0.965256	0.587962	0.320582
	N243	N	0.040322	0.418175	0.318013
	N244	N	0.418041	0.682697	0.959542
	N245	N	0.588933	0.681936	0.033263
	N246	N	0.590040	0.325351	0.959778
	N247	N	0.417884	0.326892	0.034637
	N248	N	0.683469	0.967661	0.410735
	N249	N	0.683193	0.040685	0.585669
	N250	N	0.322915	0.966302	0.585501
	N251	N	0.322652	0.039864	0.411261
	N252	N	0.917780	0.466926	0.174282
	N253	N	0.086374	0.542202	0.173621
	N254	N	0.088556	0.467309	0.819453
	N255	N	0.918413	0.541672	0.819467
	N256	N	0.182797	0.915194	0.460751
	N257	N	0.179422	0.087313	0.534872
	N258	N	0.824151	0.091210	0.460117
	N259	N	0.826540	0.920281	0.534298
	N260	N	0.467277	0.184607	0.910710
	N261	N	0.539962	0.184444	0.085167
	N262	N	0.467250	0.824038	0.084888
	N263	N	0.540146	0.823612	0.909911
	N264	N	0.466048	0.920274	0.174214
	N265	N	0.540942	0.088717	0.174579
	N266	N	0.465151	0.087255	0.822103
	N267	N	0.541483	0.919034	0.820617
	N268	N	0.916942	0.182233	0.459199
	N269	N	0.088866	0.181212	0.533599
	N270	N	0.089325	0.824982	0.459321
	N271	N	0.917995	0.826938	0.533846
	N272	N	0.185262	0.468594	0.907618
	N273	N	0.182527	0.540971	0.083344
	N274	N	0.822627	0.467778	0.083741
	N275	N	0.823155	0.541096	0.910177
	O276	O	0.001243	0.047476	0.032900
	H277	H	-0.009242	0.054435	0.027751
	H278	H	-0.005419	0.045871	0.029731
	O279	O	0.498648	0.474447	0.545955
	H280	H	0.507186	0.484357	0.546764
	H281	H	0.497171	0.465936	0.550733
	O282	O	0.448924	0.510325	0.500049
	H283	H	0.452521	0.518972	0.497223
	H284	H	0.444664	0.510214	0.499400
	O285	O	1.031868	0.029743	1.024076
	H286	H	1.021825	0.031972	1.026150
	H287	H	1.035925	0.025126	1.032168
	O288	O	1.103735	0.044347	-0.009677
	H289	H	1.107429	0.041730	0.004758
	H290	H	1.121068	0.043419	-0.002811
	O291	O	0.412109	0.517235	0.447149
	H292	H	0.421190	0.514408	0.435165
	H293	H	0.402739	0.523214	0.445190
	O294	O	0.993151	0.018389	1.025532
	H295	H	0.997693	0.032900	1.018791
	H296	H	0.983629	0.013497	1.028085
	O297	O	0.092038	-0.003061	0.025567
	H298	H	0.095989	0.001313	0.024954
	H299	H	0.101422	-0.007538	0.027007
	O300	O	0.514413	0.485597	0.601490
	H301	H	0.510613	0.481619	0.606276
	H302	H	0.524797	0.481072	0.601498
	O303	O	0.514217	0.405992	0.419852
	H304	H	0.501302	0.406519	0.432611
	H305	H	0.516000	0.407345	0.424443
	O306	O	1.043817	0.073116	0.071095
	H307	H	1.036187	0.063634	0.067140
	H308	H	1.039541	0.081759	0.075906
	O309	O	0.032854	-0.065321	1.036175
	H310	H	0.029988	-0.057189	1.031058
	H311	H	0.024879	-0.062230	1.038352
	O312	O	0.993560	0.999722	1.026312
	H313	H	1.000722	0.985024	1.035135
	H314	H	0.995899	0.996769	1.010425
	O315	O	0.490410	0.494173	0.494894
	H316	H	0.481488	0.477737	0.490327
	H317	H	0.484541	0.494520	0.491068
	O318	O	0.471921	0.630268	0.455583
	H319	H	0.479822	0.639614	0.454625
	H320	H	0.483066	0.618939	0.458617
	O321	O	0.038758	0.939475	0.925800
	H322	H	0.034371	0.938303	0.919867
	H323	H	0.036689	0.935010	0.926336
	O324	O	0.418487	0.529000	0.532256
	H325	H	0.424622	0.534608	0.538042
	H326	H	0.409531	0.540984	0.512058
	O327	O	0.583838	0.457098	0.446994
	H328	H	0.594561	0.443381	0.435693
	H329	H	0.581912	0.460880	0.442831
	O330	O	0.409567	0.497481	0.484237
	H331	H	0.403547	0.500370	0.487060
	H332	H	0.417255	0.501678	0.496654
	O333	O	0.526820	0.515397	0.502098
	H334	H	0.519945	0.519101	0.499418
	H335	H	0.529075	0.519324	0.507681
	O336	O	0.542302	0.448590	0.515278
	H337	H	0.543471	0.449667	0.514470
	H338	H	0.543435	0.439689	0.502784
	O339	O	0.994817	1.023874	-0.008490
	H340	H	0.999308	1.027685	-0.013981
	H341	H	1.000711	1.028311	-0.006745
	O342	O	0.541153	0.507664	0.470927
	H343	H	0.538827	0.504242	0.459576
	H344	H	0.538606	0.499997	0.484147
	O345	O	0.611124	0.488521	0.466545
	H346	H	0.608503	0.495089	0.450166
	H347	H	0.600526	0.493505	0.478048
	O348	O	0.039533	-0.000081	-0.022583
	H349	H	0.038430	0.004063	-0.032435
	H350	H	0.033227	-0.008398	-0.029149
	O351	O	0.021919	1.080287	1.022450
	H352	H	0.031141	1.088948	1.020729
	H353	H	0.035286	1.076914	1.020735
	O354	O	0.537987	0.496378	0.402533
	H355	H	0.525184	0.482084	0.396329
	H356	H	0.557230	0.500661	0.404077
	O357	O	-0.044406	1.074295	0.979840
	H358	H	-0.041900	1.080675	0.980697
	H359	H	-0.036823	1.074797	0.984532
