data_Molecule from HDF5

_cell_length_a		16.104169
_cell_length_b		16.274343
_cell_length_c		16.345373
_cell_angle_alpha	89.970511
_cell_angle_beta	89.796733
_cell_angle_gamma	89.936679
_symmetry_space_group_name_H-M	'P 1'
_symmetry_Int_Tables_number		1

loop_
	_symmetry_equiv_pos_as_xyz
	x,y,z

loop_
	_atom_site_label
	_atom_site_type_symbol
	_atom_site_fract_x
	_atom_site_fract_y
	_atom_site_fract_z
	H0	H	0.405118	0.836864	0.710904
	H1	H	0.604425	0.163403	0.709761
	H2	H	0.608007	0.836867	0.278393
	H3	H	0.405388	0.162633	0.277722
	H4	H	0.719765	0.403486	0.830122
	H5	H	0.717821	0.597022	0.157416
	H6	H	0.292404	0.597647	0.829782
	H7	H	0.291140	0.402036	0.156853
	H8	H	0.840656	0.713564	0.396909
	H9	H	0.170936	0.713541	0.593326
	H10	H	0.840619	0.287025	0.593411
	H11	H	0.171318	0.286497	0.395051
	H12	H	0.840933	0.400796	0.709349
	H13	H	0.170556	0.599476	0.708459
	H14	H	0.841165	0.600805	0.280041
	H15	H	0.169843	0.398170	0.277124
	H16	H	0.405000	0.717110	0.831315
	H17	H	0.604771	0.715420	0.156319
	H18	H	0.605701	0.285201	0.830624
	H19	H	0.403983	0.282761	0.155881
	H20	H	0.719346	0.835759	0.398433
	H21	H	0.716591	0.165145	0.590099
	H22	H	0.293345	0.835154	0.591290
	H23	H	0.294070	0.164867	0.398420
	H24	H	0.902416	0.337625	0.212150
	H25	H	0.105445	0.663485	0.209221
	H26	H	0.107127	0.337074	0.778113
	H27	H	0.905867	0.662738	0.778618
	H28	H	0.220669	0.902388	0.331237
	H29	H	0.216697	0.095453	0.658752
	H30	H	0.793360	0.097396	0.330956
	H31	H	0.791693	0.902383	0.658927
	H32	H	0.340497	0.213547	0.896457
	H33	H	0.671085	0.214200	0.092064
	H34	H	0.340240	0.786974	0.092917
	H35	H	0.670404	0.787581	0.895641
	H36	H	0.341142	0.900169	0.210027
	H37	H	0.670692	0.100545	0.208397
	H38	H	0.340034	0.099892	0.781287
	H39	H	0.668855	0.900457	0.778425
	H40	H	0.905901	0.216397	0.332078
	H41	H	0.104997	0.214561	0.657163
	H42	H	0.108051	0.782905	0.331975
	H43	H	0.906583	0.784546	0.657686
	H44	H	0.218305	0.335618	0.896882
	H45	H	0.218931	0.664718	0.091140
	H46	H	0.791016	0.336117	0.091414
	H47	H	0.794052	0.664797	0.898224
	H48	H	0.413941	0.114260	0.583015
	H49	H	0.593989	0.882638	0.595042
	H50	H	0.596911	0.115631	0.402786
	H51	H	0.416736	0.883574	0.397594
	H52	H	0.595769	0.413131	0.107812
	H53	H	0.593967	0.586769	0.880407
	H54	H	0.417837	0.584912	0.105046
	H55	H	0.408123	0.411757	0.878062
	H56	H	0.124957	0.592739	0.399227
	H57	H	0.890792	0.583296	0.585943
	H58	H	0.121725	0.413109	0.587304
	H59	H	0.888920	0.416514	0.398290
	H60	H	0.127210	0.404222	0.593208
	H61	H	0.884986	0.594058	0.595299
	H62	H	0.123759	0.591868	0.403548
	H63	H	0.884981	0.400850	0.398472
	H64	H	0.418674	0.602702	0.110427
	H65	H	0.595325	0.604134	0.875226
	H66	H	0.591209	0.400384	0.109571
	H67	H	0.420395	0.404593	0.879213
	H68	H	0.601112	0.117161	0.399523
	H69	H	0.594871	0.885412	0.582693
	H70	H	0.405707	0.119755	0.590197
	H71	H	0.415568	0.884127	0.404507
	H72	H	0.906849	0.619931	0.093682
	H73	H	0.093997	0.383475	0.092259
	H74	H	0.095703	0.621034	0.885725
	H75	H	0.912827	0.385675	0.909479
	H76	H	0.099082	0.893370	0.614772
	H77	H	0.094056	0.099548	0.377140
	H78	H	0.913328	0.094076	0.611268
	H79	H	0.909995	0.905432	0.378252
	H80	H	0.624707	0.095342	0.900446
	H81	H	0.386520	0.090755	0.093866
	H82	H	0.625243	0.908647	0.094787
	H83	H	0.382271	0.893172	0.903205
	H84	H	0.625600	0.899616	0.083774
	H85	H	0.387330	0.097766	0.083188
	H86	H	0.623138	0.091466	0.903676
	H87	H	0.392125	0.915257	0.913996
	H88	H	0.910684	0.096722	0.612075
	H89	H	0.106889	0.095159	0.376131
	H90	H	0.108726	0.912909	0.611533
	H91	H	0.915155	0.909376	0.380208
	H92	H	0.087009	0.611509	0.908610
	H93	H	0.095475	0.386007	0.082375
	H94	H	0.920206	0.615204	0.091950
	H95	H	0.906183	0.379404	0.896167
	H96	H	0.417147	0.117168	0.594211
	H97	H	0.604933	0.881868	0.588473
	H98	H	0.596107	0.116653	0.397880
	H99	H	0.410045	0.881635	0.400236
	H100	H	0.605074	0.404242	0.112581
	H101	H	0.609832	0.593255	0.874267
	H102	H	0.402800	0.592720	0.112198
	H103	H	0.409157	0.398211	0.874289
	H104	H	0.122718	0.588478	0.400063
	H105	H	0.887685	0.598019	0.580993
	H106	H	0.124082	0.403346	0.581336
	H107	H	0.890849	0.407092	0.412026
	H108	H	0.911346	0.615427	0.080600
	H109	H	0.103154	0.382166	0.087698
	H110	H	0.111688	0.619138	0.905386
	H111	H	0.921379	0.384105	0.896557
	H112	H	0.087030	0.910404	0.605650
	H113	H	0.097140	0.087262	0.380150
	H114	H	0.909689	0.093600	0.611113
	H115	H	0.915686	0.903390	0.378314
	H116	H	0.624186	0.090134	0.897724
	H117	H	0.392045	0.085534	0.083357
	H118	H	0.620732	0.913127	0.082411
	H119	H	0.384606	0.915111	0.888818
	C120	C	0.383623	0.008412	0.616941
	C121	C	0.626478	0.991594	0.616349
	C122	C	0.627487	0.008396	0.372034
	C123	C	0.384808	0.991617	0.372520
	C124	C	0.626735	0.378296	0.002002
	C125	C	0.627978	0.622504	0.984763
	C126	C	0.383959	0.622181	0.001816
	C127	C	0.383425	0.377109	0.985011
	C128	C	0.014554	0.620769	0.373210
	C129	C	0.997140	0.620439	0.615589
	C130	C	0.014902	0.378727	0.615914
	C131	C	0.997337	0.378903	0.373312
	C132	C	0.883096	0.508727	0.116886
	C133	C	0.127089	0.491845	0.115848
	C134	C	0.126919	0.508486	0.872024
	C135	C	0.884830	0.491331	0.872531
	C136	C	0.127792	0.877222	0.502962
	C137	C	0.127380	0.122197	0.486072
	C138	C	0.883238	0.122781	0.503398
	C139	C	0.884036	0.877803	0.486498
	C140	C	0.514480	0.120865	0.872819
	C141	C	0.497509	0.121081	0.115437
	C142	C	0.514482	0.878794	0.115656
	C143	C	0.495573	0.879305	0.873069
	C144	C	0.385428	0.885373	0.672373
	C145	C	0.624274	0.114845	0.671211
	C146	C	0.627057	0.885487	0.316862
	C147	C	0.386056	0.114474	0.316889
	C148	C	0.682061	0.382277	0.878837
	C149	C	0.681346	0.618349	0.108306
	C150	C	0.329291	0.618980	0.878971
	C151	C	0.328774	0.380822	0.107931
	C152	C	0.890151	0.676233	0.375902
	C153	C	0.121511	0.675781	0.613159
	C154	C	0.890229	0.324401	0.613664
	C155	C	0.121654	0.323823	0.375029
	C156	C	0.890313	0.381019	0.671229
	C157	C	0.121582	0.618939	0.670298
	C158	C	0.890250	0.619801	0.318301
	C159	C	0.121095	0.379472	0.316316
	C160	C	0.385321	0.678285	0.879565
	C161	C	0.625151	0.677440	0.107656
	C162	C	0.625708	0.323257	0.879145
	C163	C	0.384872	0.321527	0.107444
	C164	C	0.682443	0.884809	0.376408
	C165	C	0.680103	0.115763	0.611768
	C166	C	0.329792	0.884672	0.612933
	C167	C	0.330585	0.115361	0.376564
	C168	C	0.883925	0.385881	0.172524
	C169	C	0.125571	0.614735	0.171298
	C170	C	0.126463	0.385830	0.816414
	C171	C	0.886443	0.614348	0.817279
	C172	C	0.183129	0.880867	0.380034
	C173	C	0.180696	0.117584	0.609373
	C174	C	0.829863	0.118758	0.380050
	C175	C	0.829044	0.881388	0.609658
	C176	C	0.389649	0.175649	0.876130
	C177	C	0.621640	0.176529	0.112722
	C178	C	0.389767	0.824443	0.113042
	C179	C	0.620838	0.824756	0.875265
	C180	C	0.390204	0.880667	0.171385
	C181	C	0.621529	0.119751	0.170267
	C182	C	0.389710	0.119331	0.818541
	C183	C	0.620204	0.881075	0.817455
	C184	C	0.886055	0.177837	0.380487
	C185	C	0.125129	0.176862	0.608611
	C186	C	0.127054	0.821634	0.380430
	C187	C	0.886116	0.822478	0.609178
	C188	C	0.181433	0.384933	0.875779
	C189	C	0.182108	0.615223	0.112603
	C190	C	0.828243	0.385271	0.112922
	C191	C	0.830768	0.615286	0.876379
	C192	C	0.405724	0.094693	0.595486
	C193	C	0.604459	0.905577	0.595057
	C194	C	0.604759	0.094215	0.393739
	C195	C	0.407464	0.905374	0.394378
	C196	C	0.604018	0.399658	0.087680
	C197	C	0.606228	0.601012	0.898852
	C198	C	0.406417	0.599847	0.087251
	C199	C	0.405872	0.398624	0.899370
	C200	C	0.101299	0.597737	0.394678
	C201	C	0.910263	0.598249	0.593852
	C202	C	0.101877	0.400450	0.593783
	C203	C	0.910580	0.401703	0.396055
	C204	C	0.905960	0.594494	0.095129
	C205	C	0.104233	0.405947	0.093969
	C206	C	0.104653	0.594837	0.893608
	C207	C	0.906949	0.405173	0.894246
	C208	C	0.104968	0.899153	0.588477
	C209	C	0.105803	0.100533	0.400057
	C210	C	0.904908	0.101201	0.589058
	C211	C	0.907011	0.899566	0.401028
	C212	C	0.601428	0.098836	0.894197
	C213	C	0.410822	0.098100	0.093295
	C214	C	0.601310	0.900674	0.093475
	C215	C	0.408883	0.901309	0.895516
	Zn216	Zn	0.504806	0.000517	0.745671
	Zn217	Zn	0.505959	0.000038	0.243564
	Zn218	Zn	0.756021	0.500218	-0.006430
	Zn219	Zn	0.255365	0.500097	-0.006856
	Zn220	Zn	0.005844	0.748017	0.494769
	Zn221	Zn	0.006310	0.250872	0.494669
	Zn222	Zn	0.005862	0.499912	0.743685
	Zn223	Zn	0.005509	0.499992	0.245312
	Zn224	Zn	0.505572	0.751115	-0.006432
	Zn225	Zn	0.505841	0.248545	-0.006258
	Zn226	Zn	0.755147	0.000135	0.494514
	Zn227	Zn	0.255541	0.000088	0.494792
	N228	N	0.418031	0.963428	0.674835
	N229	N	0.591560	0.036918	0.674108
	N230	N	0.593616	0.963298	0.313889
	N231	N	0.418981	0.036503	0.314299
	N232	N	0.683131	0.415555	0.956335
	N233	N	0.683472	0.585074	0.030863
	N234	N	0.328376	0.584606	0.956066
	N235	N	0.327686	0.414487	0.030933
	N236	N	0.968404	0.677096	0.409149
	N237	N	0.043130	0.676779	0.579775
	N238	N	0.968731	0.322645	0.580000
	N239	N	0.043743	0.323337	0.409802
	N240	N	0.968793	0.414106	0.672701
	N241	N	0.043322	0.585111	0.671969
	N242	N	0.968668	0.585890	0.316457
	N243	N	0.042695	0.412993	0.315115
	N244	N	0.418646	0.680317	0.956914
	N245	N	0.592834	0.680120	0.029939
	N246	N	0.591954	0.320565	0.956536
	N247	N	0.418248	0.318960	0.029837
	N248	N	0.683011	0.962291	0.409962
	N249	N	0.681682	0.038145	0.578339
	N250	N	0.328407	0.962167	0.579203
	N251	N	0.329717	0.037957	0.410675
	N252	N	0.917436	0.463691	0.175293
	N253	N	0.091922	0.536976	0.173497
	N254	N	0.093193	0.463779	0.814215
	N255	N	0.919423	0.536316	0.814953
	N256	N	0.183989	0.914556	0.457148
	N257	N	0.182341	0.084467	0.531917
	N258	N	0.827992	0.085245	0.457391
	N259	N	0.827726	0.915152	0.532354
	N260	N	0.468036	0.176848	0.909216
	N261	N	0.543430	0.177385	0.079151
	N262	N	0.468097	0.823002	0.079092
	N263	N	0.542469	0.823589	0.909385
	N264	N	0.468697	0.913792	0.173134
	N265	N	0.543269	0.085906	0.171909
	N266	N	0.468271	0.085873	0.816584
	N267	N	0.541660	0.914358	0.816025
	N268	N	0.918500	0.180665	0.458185
	N269	N	0.092661	0.179759	0.530813
	N270	N	0.093324	0.819179	0.457958
	N271	N	0.919560	0.820219	0.531759
	N272	N	0.182091	0.462408	0.909554
	N273	N	0.183083	0.537808	0.078789
	N274	N	0.827841	0.462508	0.078961
	N275	N	0.829590	0.537808	0.910042
	O276	O	1.007407	1.021107	0.096791
	H277	H	1.015230	1.025565	0.107798
	H278	H	1.005186	1.019291	0.101786
	O279	O	0.573550	-0.518278	1.454633
	H280	H	0.573779	-0.516558	1.447972
	H281	H	0.576045	-0.520962	1.454662
	O282	O	-0.038978	-0.039272	0.037557
	H283	H	-0.038920	-0.040296	0.041874
	H284	H	-0.044355	-0.038134	0.032710
	O285	O	0.462354	0.522322	0.440018
	H286	H	0.457315	0.525696	0.434399
	H287	H	0.457938	0.518213	0.449700
	O288	O	-0.031068	-0.101716	0.063472
	H289	H	-0.020136	-0.098844	0.065349
	H290	H	-0.030614	-0.103455	0.064903
	O291	O	-0.170782	0.761809	0.232950
	H292	H	-0.179607	0.762975	0.228217
	H293	H	-0.166278	0.762578	0.226705
	O294	O	0.060544	1.014611	-0.015783
	H295	H	0.065847	1.016505	-0.017208
	H296	H	0.052709	1.024392	-0.022833
	O297	O	0.475323	0.504633	0.461480
	H298	H	0.475814	0.498701	0.465002
	H299	H	0.484884	0.501321	0.458556
	O300	O	0.446418	0.532303	0.381500
	H301	H	0.444271	0.538434	0.386061
	H302	H	0.436368	0.535190	0.382111
	O303	O	0.928058	-0.050632	1.028894
	H304	H	0.925472	-0.056743	1.035415
	H305	H	0.917943	-0.050734	1.028461
	O306	O	-0.016601	0.971635	1.002971
	H307	H	-0.018189	0.971319	0.999969
	H308	H	-0.019427	0.974454	1.009693
	O309	O	0.034351	1.081566	1.024764
	H310	H	0.041415	1.073085	1.013129
	H311	H	0.036649	1.080190	1.025703
	O312	O	-0.011059	-0.016839	0.966655
	H313	H	-0.012873	-0.022399	0.960461
	H314	H	-0.014028	-0.024544	0.963423
	O315	O	0.458239	0.519823	0.513799
	H316	H	0.457084	0.523136	0.509439
	H317	H	0.459812	0.525056	0.510762
	O318	O	0.047496	0.047920	1.051549
	H319	H	0.041019	0.049651	1.047392
	H320	H	0.050291	0.038353	1.041931
	O321	O	-0.018098	1.035074	-0.010344
	H322	H	-0.010479	1.039223	-0.004461
	H323	H	-0.010252	1.041389	-0.007874
	O324	O	0.983520	0.015960	0.988960
	H325	H	0.978990	0.014337	0.996527
	H326	H	0.984984	0.020914	0.996650
	O327	O	0.951499	0.970761	1.026820
	H328	H	0.947881	0.964651	1.034893
	H329	H	0.944681	0.977413	1.030413
	O330	O	0.499173	0.487291	0.504375
	H331	H	0.495077	0.486915	0.505339
	H332	H	0.493110	0.491161	0.497501
	O333	O	0.475085	0.454192	0.417584
	H334	H	0.481477	0.454485	0.415456
	H335	H	0.471276	0.455667	0.410751
	O336	O	0.562949	0.416268	0.355445
	H337	H	0.566086	0.404164	0.352468
	H338	H	0.567459	0.410661	0.352182
	O339	O	0.530210	0.506497	0.449371
	H340	H	0.531221	0.510759	0.447895
	H341	H	0.534290	0.493757	0.451242
	O342	O	0.457592	0.499788	0.509547
	H343	H	0.452894	0.498061	0.508546
	H344	H	0.453473	0.505322	0.517752
	O345	O	0.504265	0.530208	0.482234
	H346	H	0.492891	0.525345	0.480517
	H347	H	0.508343	0.534813	0.481214
