data_Molecule from HDF5

_cell_length_a		16.604284
_cell_length_b		16.576632
_cell_length_c		16.594063
_cell_angle_alpha	89.944325
_cell_angle_beta	89.986625
_cell_angle_gamma	90.011135
_symmetry_space_group_name_H-M	'P 1'
_symmetry_Int_Tables_number		1

loop_
	_symmetry_equiv_pos_as_xyz
	x,y,z

loop_
	_atom_site_label
	_atom_site_type_symbol
	_atom_site_fract_x
	_atom_site_fract_y
	_atom_site_fract_z
	H0	H	0.391663	0.830772	0.716089
	H1	H	0.602885	0.143153	0.718125
	H2	H	0.603750	0.833239	0.272870
	H3	H	0.391607	0.144254	0.273832
	H4	H	0.718429	0.381898	0.840108
	H5	H	0.718858	0.593771	0.150100
	H6	H	0.272877	0.594763	0.841137
	H7	H	0.274492	0.382192	0.151739
	H8	H	0.840134	0.708807	0.392042
	H9	H	0.152927	0.709208	0.598807
	H10	H	0.841557	0.267371	0.600908
	H11	H	0.150802	0.265352	0.387363
	H12	H	0.840963	0.383638	0.716527
	H13	H	0.150407	0.597721	0.719052
	H14	H	0.840745	0.593102	0.274564
	H15	H	0.151165	0.382796	0.271582
	H16	H	0.388513	0.711699	0.841529
	H17	H	0.599706	0.707946	0.152365
	H18	H	0.601959	0.266498	0.839676
	H19	H	0.390565	0.265047	0.150824
	H20	H	0.719522	0.833146	0.389266
	H21	H	0.719097	0.142827	0.602340
	H22	H	0.275430	0.831688	0.599399
	H23	H	0.275626	0.144739	0.390675
	H24	H	0.891260	0.333100	0.215834
	H25	H	0.097748	0.646764	0.212349
	H26	H	0.097772	0.332094	0.776595
	H27	H	0.892126	0.646650	0.775293
	H28	H	0.215819	0.887138	0.338502
	H29	H	0.217179	0.093677	0.651685
	H30	H	0.776619	0.092310	0.339522
	H31	H	0.776811	0.884210	0.652482
	H32	H	0.340235	0.209149	0.890192
	H33	H	0.653203	0.207128	0.097774
	H34	H	0.339219	0.769203	0.099754
	H35	H	0.651625	0.765285	0.890004
	H36	H	0.339840	0.884532	0.216665
	H37	H	0.653624	0.090499	0.214422
	H38	H	0.339693	0.092276	0.775193
	H39	H	0.651269	0.880286	0.772469
	H40	H	0.892047	0.209641	0.339034
	H41	H	0.102788	0.211645	0.650508
	H42	H	0.099301	0.770144	0.338046
	H43	H	0.894644	0.768989	0.652673
	H44	H	0.215669	0.332660	0.891239
	H45	H	0.215200	0.645565	0.098415
	H46	H	0.776642	0.332361	0.098285
	H47	H	0.775215	0.645629	0.890785
	H48	H	0.407742	0.101016	0.587738
	H49	H	0.584947	0.874305	0.591045
	H50	H	0.590515	0.103552	0.401529
	H51	H	0.409487	0.878277	0.408501
	H52	H	0.584736	0.401140	0.105860
	H53	H	0.584406	0.574094	0.884978
	H54	H	0.407057	0.569944	0.105315
	H55	H	0.408585	0.393771	0.882669
	H56	H	0.108746	0.577110	0.404789
	H57	H	0.884977	0.580460	0.580728
	H58	H	0.110716	0.395267	0.586191
	H59	H	0.886042	0.402901	0.407352
	H60	H	0.105985	0.401675	0.577240
	H61	H	0.886243	0.573444	0.585669
	H62	H	0.110304	0.579539	0.402136
	H63	H	0.884258	0.399860	0.403657
	H64	H	0.412089	0.582290	0.107622
	H65	H	0.582092	0.577828	0.883916
	H66	H	0.583748	0.397269	0.106994
	H67	H	0.401203	0.402067	0.883457
	H68	H	0.578356	0.098037	0.404926
	H69	H	0.579147	0.879443	0.581318
	H70	H	0.409541	0.099086	0.584436
	H71	H	0.404715	0.876231	0.407845
	H72	H	0.907704	0.603350	0.090386
	H73	H	0.093597	0.371926	0.089827
	H74	H	0.089159	0.602271	0.908396
	H75	H	0.902420	0.377137	0.910065
	H76	H	0.082456	0.894370	0.607290
	H77	H	0.085306	0.082397	0.381835
	H78	H	0.908512	0.072485	0.605264
	H79	H	0.914625	0.894425	0.383640
	H80	H	0.607648	0.071741	0.902793
	H81	H	0.385922	0.075303	0.081837
	H82	H	0.608229	0.899124	0.085324
	H83	H	0.384713	0.896839	0.909113
	H84	H	0.607982	0.897703	0.085495
	H85	H	0.383714	0.074490	0.089176
	H86	H	0.610164	0.081941	0.904879
	H87	H	0.386927	0.902610	0.908994
	H88	H	0.912652	0.080963	0.606890
	H89	H	0.091210	0.075095	0.382991
	H90	H	0.091707	0.895949	0.610743
	H91	H	0.900144	0.896384	0.380595
	H92	H	0.084052	0.601953	0.903123
	H93	H	0.075146	0.377759	0.089566
	H94	H	0.910712	0.598264	0.080887
	H95	H	0.905155	0.374912	0.900163
	H96	H	0.405484	0.100059	0.584436
	H97	H	0.590544	0.875708	0.580068
	H98	H	0.588457	0.098485	0.413946
	H99	H	0.407903	0.876018	0.403817
	H100	H	0.587586	0.398714	0.108193
	H101	H	0.586091	0.577866	0.882810
	H102	H	0.399558	0.579511	0.111017
	H103	H	0.410944	0.403375	0.887023
	H104	H	0.109225	0.581021	0.405720
	H105	H	0.882123	0.580797	0.588819
	H106	H	0.108254	0.406722	0.588194
	H107	H	0.885309	0.397759	0.408710
	H108	H	0.900346	0.602568	0.082602
	H109	H	0.086359	0.379387	0.073475
	H110	H	0.082446	0.599356	0.909533
	H111	H	0.912321	0.379827	0.906337
	H112	H	0.087050	0.903468	0.606416
	H113	H	0.081929	0.074484	0.386210
	H114	H	0.903722	0.079732	0.609251
	H115	H	0.908079	0.907364	0.386500
	H116	H	0.606077	0.075974	0.912420
	H117	H	0.382876	0.081334	0.085404
	H118	H	0.608581	0.898847	0.084262
	H119	H	0.384526	0.900351	0.903813
	C120	C	0.375137	-0.003478	0.617333
	C121	C	0.617701	0.979175	0.616774
	C122	C	0.618315	-0.003016	0.374408
	C123	C	0.375394	0.980011	0.374409
	C124	C	0.617528	0.366782	0.003881
	C125	C	0.616561	0.608938	0.986968
	C126	C	0.374143	0.609714	0.004806
	C127	C	0.374500	0.366925	0.987354
	C128	C	0.005459	0.610235	0.373751
	C129	C	0.987709	0.610840	0.616971
	C130	C	0.005484	0.368409	0.616366
	C131	C	0.987845	0.367633	0.373210
	C132	C	0.874695	0.497776	0.116369
	C133	C	0.116608	0.480156	0.115773
	C134	C	0.116990	0.497827	0.874519
	C135	C	0.874727	0.480760	0.873638
	C136	C	0.118159	0.867346	0.504022
	C137	C	0.118184	0.109951	0.486889
	C138	C	0.876118	0.109683	0.504220
	C139	C	0.875688	0.867138	0.487131
	C140	C	0.504979	0.109185	0.873883
	C141	C	0.487972	0.108869	0.116502
	C142	C	0.504627	0.866686	0.117126
	C143	C	0.487758	0.866224	0.874475
	C144	C	0.373188	0.878059	0.676329
	C145	C	0.620738	0.096264	0.677607
	C146	C	0.621506	0.879901	0.313532
	C147	C	0.373335	0.097597	0.314082
	C148	C	0.677943	0.364092	0.886775
	C149	C	0.677857	0.611862	0.103898
	C150	C	0.313391	0.612849	0.887901
	C151	C	0.314428	0.363885	0.104765
	C152	C	0.887218	0.669183	0.372937
	C153	C	0.105462	0.670230	0.618340
	C154	C	0.888270	0.307859	0.618768
	C155	C	0.104467	0.306382	0.369650
	C156	C	0.888062	0.365624	0.676532
	C157	C	0.104228	0.614632	0.678110
	C158	C	0.887261	0.611761	0.314832
	C159	C	0.104587	0.364469	0.312063
	C160	C	0.370744	0.671009	0.887931
	C161	C	0.618739	0.668409	0.104988
	C162	C	0.619976	0.306617	0.886646
	C163	C	0.372124	0.305783	0.104469
	C164	C	0.679149	0.879954	0.371407
	C165	C	0.678513	0.096322	0.620068
	C166	C	0.315607	0.878502	0.618292
	C167	C	0.315995	0.097815	0.372315
	C168	C	0.873041	0.379828	0.175559
	C169	C	0.117105	0.599057	0.173748
	C170	C	0.117489	0.379355	0.815880
	C171	C	0.873244	0.599136	0.814620
	C172	C	0.176428	0.867054	0.385542
	C173	C	0.177526	0.112085	0.604598
	C174	C	0.816625	0.111220	0.386174
	C175	C	0.816726	0.865622	0.605364
	C176	C	0.387271	0.169042	0.871804
	C177	C	0.606161	0.167642	0.117171
	C178	C	0.386326	0.808348	0.118495
	C179	C	0.604847	0.805523	0.872012
	C180	C	0.386688	0.865721	0.176563
	C181	C	0.606363	0.109802	0.174983
	C182	C	0.387068	0.110803	0.814469
	C183	C	0.604735	0.862819	0.813439
	C184	C	0.874066	0.169328	0.386018
	C185	C	0.120857	0.170926	0.603828
	C186	C	0.118558	0.809213	0.385333
	C187	C	0.875005	0.808360	0.605619
	C188	C	0.175787	0.379448	0.872842
	C189	C	0.175729	0.598492	0.117340
	C190	C	0.816158	0.379490	0.117093
	C191	C	0.815143	0.598792	0.871945
	C192	C	0.400329	0.078684	0.592542
	C193	C	0.592144	0.897582	0.591166
	C194	C	0.592928	0.078814	0.399816
	C195	C	0.400348	0.898222	0.399526
	C196	C	0.592296	0.391842	0.085824
	C197	C	0.591299	0.583785	0.905249
	C198	C	0.399132	0.584378	0.086573
	C199	C	0.399734	0.392469	0.905774
	C200	C	0.087803	0.586116	0.397544
	C201	C	0.905560	0.585410	0.591947
	C202	C	0.087135	0.394049	0.591029
	C203	C	0.906486	0.393067	0.399280
	C204	C	0.899271	0.580031	0.091828
	C205	C	0.092268	0.397714	0.091419
	C206	C	0.092389	0.579842	0.899620
	C207	C	0.899407	0.398652	0.898446
	C208	C	0.093966	0.891176	0.586631
	C209	C	0.093113	0.084658	0.405014
	C210	C	0.901197	0.084917	0.585760
	C211	C	0.900368	0.892219	0.405010
	C212	C	0.586807	0.083870	0.899278
	C213	C	0.405653	0.084319	0.092373
	C214	C	0.586871	0.891264	0.092150
	C215	C	0.406444	0.892521	0.900076
	Zn216	Zn	0.496453	-0.012598	0.745649
	Zn217	Zn	0.496683	-0.011810	0.245770
	Zn218	Zn	0.746241	0.488606	-0.005406
	Zn219	Zn	0.245392	0.487952	-0.004106
	Zn220	Zn	-0.003163	0.738768	0.495170
	Zn221	Zn	-0.003232	0.239022	0.495255
	Zn222	Zn	-0.003372	0.489798	0.745642
	Zn223	Zn	-0.003817	0.489201	0.244656
	Zn224	Zn	0.495878	0.737973	-0.003694
	Zn225	Zn	0.496159	0.237895	-0.004551
	Zn226	Zn	0.746975	-0.011478	0.496006
	Zn227	Zn	0.246788	-0.011182	0.495541
	N228	N	0.409348	0.952674	0.676058
	N229	N	0.583741	0.022334	0.675935
	N230	N	0.584050	0.953674	0.315405
	N231	N	0.409686	0.023298	0.315301
	N232	N	0.676531	0.401054	0.960753
	N233	N	0.676725	0.575673	0.029533
	N234	N	0.315379	0.575323	0.961523
	N235	N	0.315657	0.401221	0.030992
	N236	N	0.961653	0.668654	0.408585
	N237	N	0.031757	0.667998	0.581066
	N238	N	0.962395	0.309223	0.582069
	N239	N	0.030857	0.308115	0.407018
	N240	N	0.961923	0.402720	0.675200
	N241	N	0.029928	0.578230	0.677437
	N242	N	0.961780	0.575872	0.315077
	N243	N	0.030844	0.401866	0.314254
	N244	N	0.407731	0.669314	0.961767
	N245	N	0.581351	0.666714	0.031243
	N246	N	0.582943	0.308173	0.960524
	N247	N	0.408790	0.307507	0.030481
	N248	N	0.677310	0.953785	0.408569
	N249	N	0.676852	0.022416	0.582976
	N250	N	0.316462	0.953210	0.582623
	N251	N	0.317084	0.023664	0.409061
	N252	N	0.908648	0.454514	0.175375
	N253	N	0.081179	0.524353	0.173015
	N254	N	0.082021	0.454083	0.816556
	N255	N	0.909215	0.524540	0.815257
	N256	N	0.176335	0.902320	0.460311
	N257	N	0.176546	0.075410	0.530598
	N258	N	0.817319	0.074998	0.460545
	N259	N	0.816661	0.901274	0.530468
	N260	N	0.461664	0.168424	0.907925
	N261	N	0.531480	0.167336	0.081788
	N262	N	0.460872	0.808686	0.082651
	N263	N	0.530926	0.807321	0.909081
	N264	N	0.461413	0.901123	0.176242
	N265	N	0.531623	0.074168	0.174988
	N266	N	0.461471	0.074434	0.815478
	N267	N	0.530837	0.899708	0.814710
	N268	N	0.910041	0.168876	0.460411
	N269	N	0.084625	0.169825	0.529485
	N270	N	0.083132	0.809186	0.460240
	N271	N	0.910673	0.809060	0.531138
	N272	N	0.175973	0.454183	0.908298
	N273	N	0.175793	0.523418	0.082298
	N274	N	0.816764	0.454014	0.081150
	N275	N	0.815756	0.524082	0.907712
	O276	O	0.532960	0.702404	-0.540704
	H277	H	0.519309	0.704733	-0.513010
	H278	H	0.514334	0.700182	-0.566841
	O279	O	0.530126	0.436543	0.421628
	H280	H	0.532079	0.428377	0.420384
	H281	H	0.529448	0.428973	0.432837
	O282	O	0.311752	0.604152	0.667828
	H283	H	0.314755	0.592307	0.665572
	H284	H	0.305150	0.592893	0.645235
	O285	O	0.872824	0.063232	1.101493
	H286	H	0.872573	0.064765	1.091210
	H287	H	0.872668	0.073282	1.103883
	O288	O	-0.107112	1.057030	1.037386
	H289	H	-0.095834	1.046664	1.033033
	H290	H	-0.113853	1.046763	1.041052
	O291	O	0.403562	0.269585	0.405644
	H292	H	0.405671	0.266160	0.412471
	H293	H	0.399089	0.282805	0.415135
	O294	O	0.794845	-0.039913	1.206047
	H295	H	0.798478	-0.058499	1.205830
	H296	H	0.782593	-0.044007	1.219208
	O297	O	0.552515	0.601567	0.315231
	H298	H	0.533299	0.587324	0.322795
	H299	H	0.536417	0.609656	0.300617
	O300	O	-0.269460	-0.279291	1.234123
	H301	H	-0.283565	-0.289658	1.248839
	H302	H	-0.290498	-0.285397	1.243385
	O303	O	0.476181	0.270637	0.667637
	H304	H	0.487830	0.253908	0.687796
	H305	H	0.475209	0.289642	0.672963
	O306	O	0.862409	0.782237	0.202516
	H307	H	0.832912	0.753441	0.228792
	H308	H	0.847009	0.782719	0.170059
	O309	O	0.272268	0.525990	0.279077
	H310	H	0.275585	0.513064	0.263067
	H311	H	0.271572	0.528390	0.259006
	O312	O	0.941888	0.886355	0.870194
	H313	H	0.940259	0.869854	0.871995
	H314	H	0.924125	0.893756	0.864743
	O315	O	0.667781	0.453376	0.552522
	H316	H	0.661554	0.464898	0.557278
	H317	H	0.672504	0.446330	0.557436
	O318	O	0.285895	0.281155	0.703664
	H319	H	0.318935	0.279383	0.711691
	H320	H	0.282516	0.263518	0.692884
	O321	O	-0.138895	1.194395	0.883290
	H322	H	-0.156469	1.209604	0.884981
	H323	H	-0.135042	1.196484	0.856994
	O324	O	1.134760	1.144952	0.138258
	H325	H	1.109290	1.147326	0.141041
	H326	H	1.131548	1.109176	0.139139
	O327	O	0.084767	0.129682	1.025081
	H328	H	0.087156	0.140833	1.035485
	H329	H	0.073454	0.112857	1.024075
	O330	O	0.701573	0.392046	0.359254
	H331	H	0.701909	0.389505	0.349348
	H332	H	0.706500	0.383848	0.369565
	O333	O	0.465154	0.615020	0.714738
	H334	H	0.480775	0.630156	0.720227
	H335	H	0.464738	0.592726	0.722083
	O336	O	0.866087	-0.119057	-0.082509
	H337	H	0.868267	-0.119129	-0.076123
	H338	H	0.866524	-0.110757	-0.085426
	O339	O	1.311432	0.431917	0.381625
	H340	H	1.313615	0.448532	0.388499
	H341	H	1.317900	0.435940	0.367402
	O342	O	0.180930	-0.112605	0.028226
	H343	H	0.186814	-0.106879	0.021523
	H344	H	0.165885	-0.110430	0.014211
	O345	O	0.483973	1.337803	1.276850
	H346	H	0.492786	1.330489	1.284101
	H347	H	0.494557	1.325732	1.270910
	O348	O	0.529742	0.497188	0.688997
	H349	H	0.537109	0.505274	0.679363
	H350	H	0.517093	0.496621	0.682160
	O351	O	0.465636	0.566461	0.424425
	H352	H	0.461051	0.561673	0.423690
	H353	H	0.468474	0.561524	0.422160
	O354	O	-0.213881	0.197958	0.787821
	H355	H	-0.230296	0.206675	0.761243
	H356	H	-0.186295	0.202484	0.809342
	O357	O	0.545207	0.524304	0.542924
	H358	H	0.533585	0.514862	0.539382
	H359	H	0.550663	0.528885	0.538160
	O360	O	0.726580	0.542346	0.443212
	H361	H	0.729976	0.542780	0.453192
	H362	H	0.721815	0.529788	0.441726
	O363	O	-0.293135	-0.299628	-0.370002
	H364	H	-0.278657	-0.292534	-0.376415
	H365	H	-0.289523	-0.293563	-0.402956
	O366	O	0.715256	0.270381	0.464139
	H367	H	0.741073	0.257523	0.465730
	H368	H	0.710094	0.274301	0.457159
	O369	O	0.947350	0.078513	0.190469
	H370	H	0.938260	0.065309	0.202982
	H371	H	0.956674	0.093701	0.173096
	O372	O	1.210078	0.782430	-0.082311
	H373	H	1.202162	0.776938	-0.090695
	H374	H	1.228182	0.771400	-0.068008
	O375	O	0.996165	-0.172005	0.203405
	H376	H	0.988570	-0.178629	0.211981
	H377	H	0.969412	-0.191395	0.208017
	O378	O	0.417002	0.667090	0.543378
	H379	H	0.414477	0.661977	0.555518
	H380	H	0.402574	0.671556	0.561004
	O381	O	-0.730368	0.462996	0.717267
	H382	H	-0.728668	0.442985	0.730612
	H383	H	-0.746677	0.441969	0.736162
	O384	O	1.204769	0.015505	1.202480
	H385	H	1.204891	0.005783	1.196581
	H386	H	1.206106	0.003912	1.211357
	O387	O	0.684355	1.297585	-0.317746
	H388	H	0.683252	1.305818	-0.318612
	H389	H	0.661381	1.310331	-0.328062
	O390	O	0.719268	0.518049	0.721566
	H391	H	0.731181	0.533452	0.731000
	H392	H	0.729758	0.544800	0.736134
	O393	O	0.519803	0.419729	0.714171
	H394	H	0.520690	0.437122	0.693529
	H395	H	0.535047	0.435938	0.715593
	O396	O	0.018336	1.001357	0.778019
	H397	H	0.021886	0.987508	0.776133
	H398	H	0.022135	0.997391	0.770429
	O399	O	0.100921	-0.203911	0.831922
	H400	H	0.109832	-0.199941	0.857055
	H401	H	0.116527	-0.219987	0.825519
	O402	O	1.216954	0.955885	-0.225886
	H403	H	1.228679	0.947094	-0.235985
	H404	H	1.228174	0.930940	-0.237013
	O405	O	1.169773	0.167652	0.825498
	H406	H	1.153750	0.149899	0.830280
	H407	H	1.167420	0.179836	0.837767
	O408	O	0.041911	-0.072512	0.030877
	H409	H	0.055494	-0.067789	0.034840
	H410	H	0.028630	-0.071375	0.039834
	O411	O	0.829187	0.840152	0.966609
	H412	H	0.833781	0.843783	0.953620
	H413	H	0.826676	0.835131	0.959226
	O414	O	0.276990	0.271875	0.525116
	H415	H	0.271429	0.274587	0.531596
	H416	H	0.252468	0.261992	0.518864
	O417	O	0.979284	-0.143919	0.925643
	H418	H	0.985013	-0.137651	0.928499
	H419	H	0.982616	-0.145039	0.913283
	O420	O	-0.219886	1.016935	0.784251
	H421	H	-0.233168	1.024330	0.771742
	H422	H	-0.222229	1.037391	0.781139
	O423	O	0.026545	0.202195	1.168756
	H424	H	0.043549	0.200968	1.168903
	H425	H	0.022706	0.219026	1.180236
	O426	O	0.298746	0.628774	0.621914
	H427	H	0.311092	0.611456	0.621519
	H428	H	0.309974	0.616877	0.605328
	O429	O	0.967765	1.130477	0.950717
	H430	H	0.974928	1.130002	0.943468
	H431	H	0.963384	1.128090	0.957406
	O432	O	0.292392	0.694978	0.290024
	H433	H	0.300830	0.656737	0.283748
	H434	H	0.267310	0.716349	0.288628
	O435	O	0.060818	0.921622	0.158191
	H436	H	0.050873	0.908968	0.162402
	H437	H	0.055745	0.930605	0.146246
	O438	O	0.076490	0.006049	-0.119095
	H439	H	0.082941	0.019964	-0.110025
	H440	H	0.081472	-0.000058	-0.130268
	O441	O	-0.217962	-0.156261	0.045131
	H442	H	-0.223754	-0.141851	0.054433
	H443	H	-0.228219	-0.158064	0.040741
	O444	O	0.595511	0.689461	0.708817
	H445	H	0.608044	0.696237	0.689605
	H446	H	0.592625	0.704419	0.717142
	O447	O	-0.217467	1.200661	1.218430
	H448	H	-0.226307	1.209055	1.210676
	H449	H	-0.208737	1.189336	1.206278
	O450	O	0.465278	0.713841	1.274026
	H451	H	0.450635	0.722265	1.269820
	H452	H	0.445168	0.724275	1.257648
	O453	O	0.357569	0.368839	0.301332
	H454	H	0.353132	0.352008	0.280178
	H455	H	0.372430	0.367512	0.318289
	O456	O	0.214361	0.204362	1.073215
	H457	H	0.240287	0.221242	1.090666
	H458	H	0.218385	0.197242	1.090857
	O459	O	0.958437	0.784605	-0.205888
	H460	H	0.956808	0.775093	-0.204847
	H461	H	0.972514	0.793677	-0.201240
	O462	O	0.287871	0.526677	0.515926
	H463	H	0.280768	0.522390	0.527680
	H464	H	0.292887	0.515636	0.504976
	O465	O	0.952810	0.195878	-0.008661
	H466	H	0.952481	0.194919	-0.012059
	H467	H	0.949966	0.178864	-0.006771
	O468	O	0.643316	0.474417	0.296168
	H469	H	0.639671	0.473866	0.289211
	H470	H	0.647415	0.481334	0.300057
	O471	O	0.166977	0.802852	0.174417
	H472	H	0.151774	0.813434	0.147647
	H473	H	0.157200	0.807706	0.179680
	O474	O	0.277513	0.708771	0.457958
	H475	H	0.267389	0.709726	0.457714
	H476	H	0.261065	0.719051	0.443229
	O477	O	0.533168	0.258861	1.599458
	H478	H	0.534834	0.271268	1.609940
	H479	H	0.527171	0.242581	1.601157
	O480	O	0.445553	0.406471	0.501174
	H481	H	0.451381	0.395164	0.486430
	H482	H	0.450447	0.400479	0.505396
	O483	O	0.701044	0.693880	0.447476
	H484	H	0.692774	0.692570	0.442219
	H485	H	0.686717	0.696749	0.445943
	O486	O	0.617694	0.270277	1.280120
	H487	H	0.622392	0.270517	1.292433
	H488	H	0.624817	0.253817	1.266837
	O489	O	1.051062	1.141262	-0.156855
	H490	H	1.059780	1.146175	-0.166426
	H491	H	1.059979	1.144648	-0.157881
