data_Molecule from HDF5

_cell_length_a		16.444646
_cell_length_b		16.515832
_cell_length_c		16.495918
_cell_angle_alpha	89.940141
_cell_angle_beta	89.928814
_cell_angle_gamma	89.922036
_symmetry_space_group_name_H-M	'P 1'
_symmetry_Int_Tables_number		1

loop_
	_symmetry_equiv_pos_as_xyz
	x,y,z

loop_
	_atom_site_label
	_atom_site_type_symbol
	_atom_site_fract_x
	_atom_site_fract_y
	_atom_site_fract_z
	H0	H	0.389252	0.848929	0.734582
	H1	H	0.609914	0.158067	0.733291
	H2	H	0.603929	0.847602	0.287654
	H3	H	0.392686	0.161238	0.283305
	H4	H	0.724569	0.397631	0.850098
	H5	H	0.721127	0.606635	0.164417
	H6	H	0.275588	0.615515	0.851461
	H7	H	0.275427	0.395141	0.162000
	H8	H	0.848052	0.728058	0.399540
	H9	H	0.159238	0.731120	0.617398
	H10	H	0.846762	0.282096	0.614060
	H11	H	0.161689	0.281439	0.400626
	H12	H	0.846726	0.398620	0.729604
	H13	H	0.159139	0.616359	0.733869
	H14	H	0.846518	0.608007	0.286359
	H15	H	0.161032	0.397163	0.283964
	H16	H	0.390131	0.731266	0.851670
	H17	H	0.605464	0.724366	0.163994
	H18	H	0.609922	0.279602	0.850965
	H19	H	0.391011	0.279179	0.161822
	H20	H	0.723450	0.849081	0.401852
	H21	H	0.725228	0.159775	0.615514
	H22	H	0.276050	0.848369	0.616363
	H23	H	0.279130	0.161849	0.402141
	H24	H	0.900891	0.345532	0.226265
	H25	H	0.109222	0.662308	0.229483
	H26	H	0.112327	0.349010	0.782768
	H27	H	0.894221	0.659717	0.782154
	H28	H	0.226604	0.897558	0.349476
	H29	H	0.223130	0.108080	0.665747
	H30	H	0.782476	0.110474	0.349125
	H31	H	0.778719	0.898086	0.662353
	H32	H	0.345728	0.230740	0.896846
	H33	H	0.659073	0.225420	0.112025
	H34	H	0.342963	0.780685	0.114439
	H35	H	0.659470	0.783543	0.902269
	H36	H	0.341665	0.898662	0.228489
	H37	H	0.659530	0.108716	0.227143
	H38	H	0.344740	0.113681	0.782143
	H39	H	0.658899	0.900289	0.786887
	H40	H	0.902433	0.223094	0.348258
	H41	H	0.110366	0.227127	0.665107
	H42	H	0.113163	0.779388	0.350295
	H43	H	0.893156	0.779434	0.661681
	H44	H	0.228092	0.349382	0.898411
	H45	H	0.225325	0.662436	0.113164
	H46	H	0.784450	0.345249	0.109756
	H47	H	0.780187	0.661086	0.901486
	H48	H	0.411890	0.114057	0.591179
	H49	H	0.589801	0.892807	0.591432
	H50	H	0.593273	0.118698	0.418092
	H51	H	0.407715	0.889855	0.413928
	H52	H	0.595540	0.417270	0.120025
	H53	H	0.590570	0.590968	0.894039
	H54	H	0.411662	0.586530	0.116723
	H55	H	0.416019	0.419808	0.896237
	H56	H	0.118565	0.594873	0.417469
	H57	H	0.894250	0.591843	0.589517
	H58	H	0.117305	0.411102	0.591745
	H59	H	0.892613	0.416185	0.420617
	H60	H	0.113630	0.420962	0.591533
	H61	H	0.893969	0.587308	0.594119
	H62	H	0.115412	0.591623	0.423300
	H63	H	0.890061	0.414726	0.412813
	H64	H	0.421556	0.591935	0.115025
	H65	H	0.588978	0.597771	0.893312
	H66	H	0.586999	0.415650	0.118284
	H67	H	0.417542	0.419748	0.897486
	H68	H	0.590639	0.119971	0.413538
	H69	H	0.591966	0.891280	0.595473
	H70	H	0.416660	0.115701	0.597611
	H71	H	0.419716	0.893359	0.413792
	H72	H	0.910095	0.617136	0.095134
	H73	H	0.089814	0.394006	0.094391
	H74	H	0.091973	0.617300	0.919902
	H75	H	0.915579	0.394865	0.924113
	H76	H	0.088156	0.918879	0.616449
	H77	H	0.093188	0.090631	0.395206
	H78	H	0.915544	0.093421	0.619907
	H79	H	0.910496	0.914340	0.392346
	H80	H	0.613056	0.096323	0.924436
	H81	H	0.387580	0.091714	0.096758
	H82	H	0.611210	0.919984	0.096069
	H83	H	0.389745	0.919443	0.921240
	H84	H	0.615300	0.913399	0.101340
	H85	H	0.387698	0.094887	0.095501
	H86	H	0.609758	0.084985	0.922664
	H87	H	0.387886	0.916406	0.918820
	H88	H	0.912087	0.096417	0.621464
	H89	H	0.087892	0.092739	0.397053
	H90	H	0.086572	0.918036	0.615970
	H91	H	0.915074	0.920823	0.395612
	H92	H	0.083847	0.615601	0.917838
	H93	H	0.090357	0.393389	0.094490
	H94	H	0.909423	0.619138	0.101012
	H95	H	0.909563	0.388889	0.917162
	H96	H	0.419339	0.111523	0.591039
	H97	H	0.587228	0.892149	0.595662
	H98	H	0.588293	0.117482	0.417594
	H99	H	0.413424	0.893929	0.424221
	H100	H	0.592027	0.409161	0.121653
	H101	H	0.595152	0.595800	0.891368
	H102	H	0.413458	0.596716	0.120513
	H103	H	0.417026	0.418415	0.895758
	H104	H	0.116498	0.587753	0.417442
	H105	H	0.891785	0.593374	0.595061
	H106	H	0.117920	0.416800	0.600415
	H107	H	0.889208	0.409080	0.419018
	H108	H	0.914831	0.616587	0.099119
	H109	H	0.090313	0.393704	0.094888
	H110	H	0.086758	0.613309	0.925394
	H111	H	0.919138	0.392470	0.914211
	H112	H	0.087941	0.917155	0.616909
	H113	H	0.091484	0.096866	0.393962
	H114	H	0.911071	0.092077	0.620091
	H115	H	0.918256	0.912996	0.394440
	H116	H	0.614528	0.091216	0.913712
	H117	H	0.388204	0.092533	0.093684
	H118	H	0.612682	0.911316	0.092293
	H119	H	0.388928	0.915987	0.922864
	C120	C	0.380520	0.011380	0.628477
	C121	C	0.622560	0.995322	0.627914
	C122	C	0.622650	0.014448	0.384779
	C123	C	0.379924	0.996177	0.385217
	C124	C	0.623831	0.381720	0.015867
	C125	C	0.623218	0.625850	0.997511
	C126	C	0.380844	0.626066	0.014707
	C127	C	0.381099	0.384180	0.998614
	C128	C	0.012992	0.624438	0.386338
	C129	C	0.995740	0.625933	0.628145
	C130	C	0.012307	0.383402	0.628273
	C131	C	0.995368	0.381705	0.385274
	C132	C	0.880556	0.512825	0.129658
	C133	C	0.124205	0.496882	0.128275
	C134	C	0.123429	0.513142	0.886231
	C135	C	0.881332	0.495458	0.885446
	C136	C	0.123423	0.883544	0.513937
	C137	C	0.124050	0.125913	0.499469
	C138	C	0.881032	0.126575	0.516003
	C139	C	0.881298	0.883075	0.497515
	C140	C	0.509377	0.125382	0.885627
	C141	C	0.492498	0.125546	0.127876
	C142	C	0.508619	0.882361	0.129111
	C143	C	0.492632	0.883608	0.887271
	C144	C	0.374037	0.895194	0.692088
	C145	C	0.626793	0.112077	0.691093
	C146	C	0.623727	0.895243	0.326291
	C147	C	0.375387	0.114438	0.324296
	C148	C	0.684134	0.379530	0.897228
	C149	C	0.682085	0.626307	0.116598
	C150	C	0.316967	0.631778	0.898193
	C151	C	0.317135	0.378448	0.115347
	C152	C	0.894678	0.686275	0.382460
	C153	C	0.112436	0.689698	0.633893
	C154	C	0.893938	0.322763	0.631648
	C155	C	0.114100	0.321283	0.382456
	C156	C	0.893990	0.380672	0.689179
	C157	C	0.112467	0.632169	0.691845
	C158	C	0.893833	0.627174	0.325875
	C159	C	0.113750	0.378819	0.324304
	C160	C	0.374215	0.689877	0.898380
	C161	C	0.624549	0.684660	0.116571
	C162	C	0.627119	0.320779	0.897720
	C163	C	0.375054	0.320799	0.115302
	C164	C	0.682987	0.896048	0.382980
	C165	C	0.684289	0.112775	0.632638
	C166	C	0.317333	0.894705	0.633139
	C167	C	0.318997	0.114536	0.383232
	C168	C	0.881117	0.393395	0.187434
	C169	C	0.127405	0.615172	0.189233
	C170	C	0.129235	0.395847	0.823583
	C171	C	0.877038	0.613029	0.823489
	C172	C	0.186040	0.879827	0.396657
	C173	C	0.183825	0.127093	0.618271
	C174	C	0.822227	0.128424	0.396843
	C175	C	0.819035	0.879638	0.615181
	C176	C	0.392464	0.189230	0.879895
	C177	C	0.611396	0.185587	0.130258
	C178	C	0.390215	0.821504	0.132004
	C179	C	0.611751	0.823323	0.884305
	C180	C	0.389475	0.880358	0.188806
	C181	C	0.611569	0.127401	0.187688
	C182	C	0.392019	0.130543	0.822948
	C183	C	0.611770	0.881278	0.826964
	C184	C	0.881760	0.184696	0.396441
	C185	C	0.127441	0.186256	0.618007
	C186	C	0.129263	0.821010	0.396963
	C187	C	0.876361	0.820901	0.614967
	C188	C	0.187000	0.396173	0.881322
	C189	C	0.185445	0.615017	0.131550
	C190	C	0.823117	0.393210	0.129467
	C191	C	0.820133	0.613721	0.882566
	C192	C	0.408074	0.092470	0.601069
	C193	C	0.596798	0.913648	0.601703
	C194	C	0.597935	0.097064	0.409392
	C195	C	0.405904	0.914008	0.410121
	C196	C	0.598502	0.406725	0.098504
	C197	C	0.598635	0.601669	0.914483
	C198	C	0.407967	0.599119	0.096127
	C199	C	0.408865	0.411554	0.917471
	C200	C	0.095171	0.598749	0.412038
	C201	C	0.914459	0.598673	0.600644
	C202	C	0.094815	0.409096	0.602104
	C203	C	0.912250	0.406440	0.410379
	C204	C	0.904430	0.596033	0.105425
	C205	C	0.097673	0.415109	0.102109
	C206	C	0.095548	0.594221	0.913248
	C207	C	0.907275	0.413509	0.911164
	C208	C	0.095593	0.910252	0.595357
	C209	C	0.098161	0.100854	0.416873
	C210	C	0.905756	0.101335	0.598943
	C211	C	0.907292	0.908604	0.415446
	C212	C	0.591072	0.098562	0.912525
	C213	C	0.409581	0.100371	0.102746
	C214	C	0.591396	0.907661	0.103845
	C215	C	0.410305	0.909626	0.913389
	Zn216	Zn	0.501136	0.003141	0.757486
	Zn217	Zn	0.500111	0.004895	0.256553
	Zn218	Zn	0.752211	0.503467	0.006829
	Zn219	Zn	0.252321	0.505305	0.006559
	Zn220	Zn	0.003716	0.754183	0.506446
	Zn221	Zn	0.003973	0.254409	0.507692
	Zn222	Zn	0.003733	0.504663	0.756836
	Zn223	Zn	0.004174	0.503818	0.257230
	Zn224	Zn	0.500974	0.754470	0.007166
	Zn225	Zn	0.501103	0.254256	0.006332
	Zn226	Zn	0.752221	0.005077	0.506319
	Zn227	Zn	0.252164	0.004476	0.507272
	N228	N	0.412477	0.968802	0.689286
	N229	N	0.588945	0.038001	0.688228
	N230	N	0.587261	0.970027	0.327133
	N231	N	0.412536	0.039938	0.325256
	N232	N	0.682190	0.416814	0.971702
	N233	N	0.681839	0.590724	0.041301
	N234	N	0.321187	0.592701	0.971501
	N235	N	0.320808	0.417298	0.041748
	N236	N	0.969585	0.685001	0.418867
	N237	N	0.038744	0.685976	0.594862
	N238	N	0.968664	0.324370	0.594420
	N239	N	0.039324	0.323126	0.419863
	N240	N	0.968665	0.417772	0.686904
	N241	N	0.038847	0.593187	0.688401
	N242	N	0.968403	0.589547	0.328054
	N243	N	0.038975	0.415908	0.326100
	N244	N	0.413554	0.686199	0.971715
	N245	N	0.589007	0.684699	0.041357
	N246	N	0.590547	0.322045	0.972618
	N247	N	0.414305	0.324290	0.041766
	N248	N	0.682672	0.971239	0.418497
	N249	N	0.681849	0.039333	0.593904
	N250	N	0.321502	0.967916	0.593929
	N251	N	0.321664	0.039991	0.420339
	N252	N	0.915856	0.468998	0.187838
	N253	N	0.090282	0.540763	0.187450
	N254	N	0.090629	0.469747	0.826291
	N255	N	0.914279	0.538583	0.825087
	N256	N	0.182493	0.917835	0.470651
	N257	N	0.181754	0.090283	0.543616
	N258	N	0.821480	0.093341	0.472511
	N259	N	0.821996	0.917752	0.541161
	N260	N	0.466448	0.186051	0.918291
	N261	N	0.536130	0.184680	0.093771
	N262	N	0.465502	0.822488	0.095745
	N263	N	0.536472	0.824357	0.920783
	N264	N	0.464233	0.917618	0.187145
	N265	N	0.536523	0.091111	0.186452
	N266	N	0.465871	0.091576	0.826280
	N267	N	0.536680	0.917680	0.828604
	N268	N	0.917312	0.183944	0.471776
	N269	N	0.091235	0.185704	0.542848
	N270	N	0.091152	0.823178	0.470968
	N271	N	0.914602	0.822922	0.540905
	N272	N	0.183400	0.470086	0.919412
	N273	N	0.183673	0.540365	0.094539
	N274	N	0.822387	0.468782	0.094449
	N275	N	0.822422	0.539509	0.920224
	O276	O	0.582192	0.491488	0.660323
	H277	H	0.603556	0.506656	0.668142
	H278	H	0.586336	0.474127	0.656161
	O279	O	0.593744	0.521948	0.513087
	H280	H	0.598038	0.520095	0.507933
	H281	H	0.596007	0.523039	0.512123
	O282	O	1.048007	1.182847	0.162815
	H283	H	1.020470	1.189761	0.159440
	H284	H	1.046161	1.170582	0.147600
	O285	O	0.354406	0.716551	0.483694
	H286	H	0.346994	0.724138	0.501687
	H287	H	0.355745	0.729797	0.494410
	O288	O	-0.069883	0.032552	-0.119989
	H289	H	-0.067007	0.027241	-0.105276
	H290	H	-0.073226	0.059849	-0.132435
	O291	O	0.604823	0.451761	0.568489
	H292	H	0.612187	0.465961	0.556690
	H293	H	0.605245	0.443279	0.557409
	O294	O	-0.134958	0.797230	0.215659
	H295	H	-0.162125	0.769295	0.237455
	H296	H	-0.154402	0.788096	0.185217
	O297	O	0.483545	0.354521	0.553075
	H298	H	0.483543	0.354514	0.548573
	H299	H	0.476676	0.347667	0.544760
	O300	O	0.474348	0.402981	0.361267
	H301	H	0.462259	0.408726	0.366327
	H302	H	0.480757	0.407430	0.366443
	O303	O	0.482219	0.290769	0.716882
	H304	H	0.474841	0.274508	0.717515
	H305	H	0.489053	0.292747	0.726462
	O306	O	0.173533	0.828777	0.843365
	H307	H	0.185518	0.848923	0.850485
	H308	H	0.175915	0.831910	0.884708
	O309	O	0.320145	0.687165	0.322429
	H310	H	0.336651	0.677243	0.309927
	H311	H	0.319908	0.697874	0.365311
	O312	O	0.535956	0.531424	0.295300
	H313	H	0.528672	0.520001	0.320829
	H314	H	0.563952	0.507564	0.288183
	O315	O	0.089387	-0.209634	0.991443
	H316	H	0.086146	-0.202473	1.001878
	H317	H	0.095128	-0.204387	0.991964
	O318	O	-0.083685	1.115032	0.177912
	H319	H	-0.076538	1.108084	0.165388
	H320	H	-0.074939	1.083399	0.171322
	O321	O	0.692811	0.697479	0.315501
	H322	H	0.659308	0.680681	0.321327
	H323	H	0.686361	0.685589	0.349489
	O324	O	0.989191	-0.031315	1.139178
	H325	H	1.002993	-0.016210	1.147733
	H326	H	0.975456	-0.051375	1.136550
	O327	O	1.217223	0.081846	0.989629
	H328	H	1.207733	0.102494	1.006035
	H329	H	1.225435	0.080947	0.995841
	O330	O	0.900108	0.196629	-0.047877
	H331	H	0.874058	0.205158	-0.055160
	H332	H	0.904236	0.167765	-0.050168
	O333	O	0.993185	0.913748	0.877173
	H334	H	1.014575	0.902735	0.882969
	H335	H	0.997309	0.909171	0.876906
	O336	O	1.209067	0.030769	1.186611
	H337	H	1.211346	0.049617	1.194637
	H338	H	1.212152	0.046590	1.200494
	O339	O	0.714534	0.472725	0.289500
	H340	H	0.716505	0.454623	0.293222
	H341	H	0.729331	0.473341	0.279550
	O342	O	0.713950	0.714231	0.521348
	H343	H	0.702489	0.721167	0.534317
	H344	H	0.718007	0.724126	0.519943
	O345	O	0.179507	0.189050	0.018004
	H346	H	0.193078	0.209903	0.023682
	H347	H	0.148714	0.191184	0.014831
	O348	O	0.978663	0.056097	0.788877
	H349	H	0.989077	0.045296	0.787821
	H350	H	0.978424	0.059638	0.789414
	O351	O	0.958851	0.954924	0.105829
	H352	H	0.955629	0.947834	0.117410
	H353	H	0.965800	0.955402	0.116661
	O354	O	0.307729	0.527973	0.519841
	H355	H	0.306175	0.546547	0.526359
	H356	H	0.300116	0.531455	0.524008
	O357	O	0.949308	0.880903	0.876943
	H358	H	0.974646	0.888017	0.870562
	H359	H	0.980689	0.875714	0.875052
	O360	O	0.283992	0.463066	0.725369
	H361	H	0.247083	0.455518	0.763715
	H362	H	0.301507	0.437515	0.717751
	O363	O	0.309501	0.503467	0.407999
	H364	H	0.298706	0.525317	0.398741
	H365	H	0.317248	0.510061	0.418043
	O366	O	0.916233	0.205151	1.045948
	H367	H	0.890528	0.218748	1.042946
	H368	H	0.908436	0.180557	1.040304
	O369	O	0.430924	0.381312	0.473176
	H370	H	0.423525	0.381130	0.472063
	H371	H	0.442052	0.388200	0.472834
	O372	O	0.288262	0.527147	0.288714
	H373	H	0.305534	0.548155	0.292851
	H374	H	0.262929	0.528247	0.256063
	O375	O	-0.197657	0.935603	0.927566
	H376	H	-0.182167	0.933493	0.936571
	H377	H	-0.189390	0.934149	0.927533
	O378	O	1.089941	0.118382	0.030291
	H379	H	1.078460	0.126012	0.026114
	H380	H	1.075502	0.116536	0.033950
	O381	O	0.856205	0.012765	0.100419
	H382	H	0.871826	-0.006360	0.093329
	H383	H	0.833209	-0.015035	0.109813
	O384	O	0.206420	-0.015988	0.805813
	H385	H	0.211043	-0.000094	0.812594
	H386	H	0.216873	-0.021877	0.801967
	O387	O	0.133881	1.192068	1.133284
	H388	H	0.132003	1.193126	1.104603
	H389	H	0.115300	1.202780	1.141251
	O390	O	0.308476	0.315487	0.704640
	H391	H	0.291132	0.300087	0.661179
	H392	H	0.341288	0.313953	0.714613
	O393	O	0.697421	0.697161	-0.296468
	H394	H	0.719172	0.718961	-0.307996
	H395	H	0.660820	0.699726	-0.293138
	O396	O	0.524991	0.513241	0.489376
	H397	H	0.537225	0.500989	0.485912
	H398	H	0.521628	0.502903	0.512617
	O399	O	0.486710	0.708601	0.302401
	H400	H	0.482829	0.722769	0.294796
	H401	H	0.486294	0.684629	0.297024
	O402	O	-0.212056	-0.025590	1.226811
	H403	H	-0.238443	-0.033718	1.255329
	H404	H	-0.200407	-0.052133	1.229444
	O405	O	0.174328	-0.103114	0.092571
	H406	H	0.161895	-0.089641	0.121408
	H407	H	0.172686	-0.080326	0.082211
	O408	O	0.530375	0.667121	0.485327
	H409	H	0.516829	0.663665	0.482191
	H410	H	0.521284	0.660593	0.489827
	O411	O	0.711432	0.525659	0.724349
	H412	H	0.740471	0.530974	0.735603
	H413	H	0.712132	0.560773	0.716008
	O414	O	0.415685	0.344012	0.351973
	H415	H	0.435444	0.355823	0.355111
	H416	H	0.419517	0.332197	0.335657
	O417	O	0.653877	0.410890	0.354155
	H418	H	0.656978	0.404489	0.390101
	H419	H	0.624188	0.402193	0.349810
	O420	O	0.529127	0.724597	0.724907
	H421	H	0.523047	0.704745	0.738474
	H422	H	0.520851	0.740342	0.756333
	O423	O	-0.200779	0.873039	-0.010978
	H424	H	-0.194045	0.866193	-0.021630
	H425	H	-0.198168	0.849193	0.000971
	O426	O	0.757857	1.248908	0.759270
	H427	H	0.743827	1.254440	0.759370
	H428	H	0.748620	1.247472	0.760906
	O429	O	0.059896	0.795034	0.136317
	H430	H	0.065539	0.773878	0.149687
	H431	H	0.026625	0.793989	0.148618
	O432	O	0.292431	0.294196	0.530121
	H433	H	0.290419	0.302758	0.515853
	H434	H	0.276874	0.291182	0.518818
	O435	O	-0.025975	0.213567	-0.125304
	H436	H	-0.062197	0.210038	-0.129389
	H437	H	-0.025467	0.220829	-0.154370
	O438	O	0.866916	0.088037	-0.179697
	H439	H	0.870818	0.090346	-0.171267
	H440	H	0.844820	0.092131	-0.196120
	O441	O	0.599899	0.290504	0.600472
	H442	H	0.595817	0.276061	0.602584
	H443	H	0.581636	0.302868	0.591487
	O444	O	0.024853	0.893890	0.868646
	H445	H	0.064975	0.899147	0.881997
	H446	H	0.032195	0.884707	0.838810
	O447	O	0.722671	0.280876	0.478203
	H448	H	0.730066	0.257451	0.476058
	H449	H	0.722000	0.264233	0.471477
	O450	O	0.611746	0.290555	0.293660
	H451	H	0.624866	0.266763	0.261566
	H452	H	0.599594	0.326746	0.283203
	O453	O	0.673534	0.563682	0.538853
	H454	H	0.673201	0.542495	0.539933
	H455	H	0.672555	0.570343	0.561515
	O456	O	0.992249	-0.048127	0.004091
	H457	H	1.002883	-0.049672	0.004134
	H458	H	0.985278	-0.050813	0.018511
	O459	O	0.419522	0.561937	0.723907
	H460	H	0.407574	0.544129	0.725792
	H461	H	0.433715	0.543781	0.724368
	O462	O	0.406512	0.705877	0.613957
	H463	H	0.410741	0.699277	0.625231
	H464	H	0.417770	0.694398	0.617465
	O465	O	0.790064	-0.208047	0.106158
	H466	H	0.775379	-0.231879	0.105116
	H467	H	0.792946	-0.211652	0.083210
