data_Molecule from HDF5

_cell_length_a		16.365398
_cell_length_b		16.422139
_cell_length_c		16.526675
_cell_angle_alpha	90.050709
_cell_angle_beta	89.844875
_cell_angle_gamma	90.129950
_symmetry_space_group_name_H-M	'P 1'
_symmetry_Int_Tables_number		1

loop_
	_symmetry_equiv_pos_as_xyz
	x,y,z

loop_
	_atom_site_label
	_atom_site_type_symbol
	_atom_site_fract_x
	_atom_site_fract_y
	_atom_site_fract_z
	H0	H	0.387701	0.830952	0.725545
	H1	H	0.607145	0.144018	0.721171
	H2	H	0.607087	0.830818	0.274511
	H3	H	0.389041	0.143863	0.274004
	H4	H	0.722525	0.382897	0.841923
	H5	H	0.719370	0.590605	0.158955
	H6	H	0.274838	0.593130	0.843056
	H7	H	0.278094	0.378981	0.157173
	H8	H	0.840777	0.705026	0.397621
	H9	H	0.156802	0.714197	0.611240
	H10	H	0.839005	0.269809	0.603836
	H11	H	0.157886	0.263340	0.393868
	H12	H	0.840509	0.383555	0.721751
	H13	H	0.155989	0.599650	0.727602
	H14	H	0.843244	0.591562	0.279487
	H15	H	0.157355	0.374398	0.275089
	H16	H	0.390620	0.711001	0.842378
	H17	H	0.605592	0.710083	0.156317
	H18	H	0.608417	0.263919	0.842459
	H19	H	0.395569	0.264842	0.156701
	H20	H	0.720613	0.829470	0.392528
	H21	H	0.716245	0.146943	0.598347
	H22	H	0.272155	0.831670	0.610670
	H23	H	0.277911	0.146249	0.394957
	H24	H	0.896593	0.327742	0.220589
	H25	H	0.110326	0.642306	0.225301
	H26	H	0.108119	0.330888	0.775043
	H27	H	0.888849	0.644559	0.776908
	H28	H	0.221863	0.882456	0.343605
	H29	H	0.224524	0.097390	0.657055
	H30	H	0.782727	0.088014	0.341479
	H31	H	0.776148	0.882922	0.658311
	H32	H	0.342003	0.209051	0.892867
	H33	H	0.659954	0.202502	0.099796
	H34	H	0.342381	0.761720	0.107803
	H35	H	0.658853	0.765003	0.892588
	H36	H	0.343160	0.875842	0.225426
	H37	H	0.658085	0.091148	0.218304
	H38	H	0.340969	0.092912	0.777796
	H39	H	0.657563	0.879138	0.775637
	H40	H	0.895814	0.207756	0.342971
	H41	H	0.106201	0.211196	0.657929
	H42	H	0.105683	0.764673	0.344426
	H43	H	0.889751	0.764376	0.658096
	H44	H	0.220577	0.327994	0.893921
	H45	H	0.224694	0.642831	0.107726
	H46	H	0.782221	0.327390	0.101420
	H47	H	0.777935	0.645666	0.896104
	H48	H	0.413699	0.098182	0.585609
	H49	H	0.590055	0.873496	0.583712
	H50	H	0.586078	0.097470	0.415223
	H51	H	0.410654	0.876407	0.414362
	H52	H	0.590814	0.394933	0.112694
	H53	H	0.588823	0.575469	0.887968
	H54	H	0.416222	0.568549	0.106529
	H55	H	0.415860	0.406046	0.891790
	H56	H	0.112766	0.572737	0.414604
	H57	H	0.885299	0.569733	0.597837
	H58	H	0.112415	0.402669	0.590646
	H59	H	0.890425	0.399618	0.420861
	H60	H	0.113886	0.398341	0.588517
	H61	H	0.883865	0.584440	0.589002
	H62	H	0.114388	0.574536	0.411902
	H63	H	0.886969	0.406212	0.404356
	H64	H	0.415852	0.579371	0.110411
	H65	H	0.591159	0.574596	0.887674
	H66	H	0.589850	0.392715	0.113319
	H67	H	0.416801	0.390051	0.886114
	H68	H	0.598512	0.104648	0.408120
	H69	H	0.588820	0.871158	0.592269
	H70	H	0.411438	0.100058	0.589046
	H71	H	0.412987	0.874765	0.410257
	H72	H	0.914592	0.600621	0.093496
	H73	H	0.083939	0.374619	0.089933
	H74	H	0.089456	0.600432	0.911273
	H75	H	0.917464	0.375606	0.909258
	H76	H	0.086299	0.906750	0.610712
	H77	H	0.084184	0.073661	0.390959
	H78	H	0.906257	0.086909	0.617139
	H79	H	0.914559	0.897959	0.390206
	H80	H	0.608275	0.070248	0.920346
	H81	H	0.387191	0.074929	0.080796
	H82	H	0.613717	0.895053	0.085342
	H83	H	0.389943	0.901716	0.916852
	H84	H	0.609538	0.902627	0.082691
	H85	H	0.385511	0.068768	0.091597
	H86	H	0.613819	0.066784	0.897246
	H87	H	0.387654	0.903100	0.909146
	H88	H	0.902269	0.071684	0.614159
	H89	H	0.086923	0.081893	0.388136
	H90	H	0.079659	0.899283	0.611120
	H91	H	0.910645	0.890448	0.386121
	H92	H	0.081351	0.596847	0.914048
	H93	H	0.089273	0.374152	0.085542
	H94	H	0.911400	0.600337	0.089795
	H95	H	0.910861	0.375786	0.916232
	H96	H	0.415860	0.098508	0.589377
	H97	H	0.582267	0.874545	0.587796
	H98	H	0.584911	0.102241	0.399843
	H99	H	0.415221	0.877670	0.413863
	H100	H	0.592376	0.393833	0.114078
	H101	H	0.588940	0.573225	0.888116
	H102	H	0.406846	0.572594	0.111060
	H103	H	0.402617	0.398731	0.884280
	H104	H	0.113485	0.576088	0.414884
	H105	H	0.891556	0.570495	0.582041
	H106	H	0.110891	0.401885	0.586103
	H107	H	0.882608	0.389178	0.408291
	H108	H	0.909807	0.601980	0.093565
	H109	H	0.089837	0.370839	0.092088
	H110	H	0.088291	0.597043	0.919771
	H111	H	0.908522	0.372973	0.907909
	H112	H	0.088781	0.897806	0.614401
	H113	H	0.092709	0.074686	0.388635
	H114	H	0.917139	0.076748	0.611382
	H115	H	0.905299	0.898260	0.386346
	H116	H	0.618637	0.088025	0.907559
	H117	H	0.381585	0.080792	0.091185
	H118	H	0.612449	0.902225	0.091432
	H119	H	0.386066	0.895620	0.911999
	C120	C	0.377915	-0.004166	0.621965
	C121	C	0.619739	0.978073	0.619403
	C122	C	0.621817	-0.003360	0.376078
	C123	C	0.378800	0.979804	0.379053
	C124	C	0.623314	0.363344	0.008603
	C125	C	0.621373	0.607382	0.991980
	C126	C	0.378293	0.607490	0.006792
	C127	C	0.379206	0.365056	0.991073
	C128	C	0.008740	0.606326	0.381428
	C129	C	0.991057	0.609781	0.623586
	C130	C	0.007731	0.367986	0.621158
	C131	C	0.991502	0.364754	0.378537
	C132	C	0.879866	0.495563	0.122842
	C133	C	0.122096	0.476905	0.122507
	C134	C	0.120286	0.494963	0.880084
	C135	C	0.878874	0.479215	0.879581
	C136	C	0.119607	0.867039	0.509388
	C137	C	0.121799	0.110789	0.492631
	C138	C	0.878074	0.108774	0.509098
	C139	C	0.876631	0.864254	0.491786
	C140	C	0.508776	0.108151	0.876446
	C141	C	0.490295	0.106543	0.119385
	C142	C	0.508090	0.865358	0.120765
	C143	C	0.491713	0.865826	0.878272
	C144	C	0.371426	0.878100	0.684629
	C145	C	0.623571	0.097047	0.680057
	C146	C	0.624595	0.877908	0.315336
	C147	C	0.372968	0.097133	0.315778
	C148	C	0.683121	0.363383	0.889604
	C149	C	0.680326	0.609681	0.111086
	C150	C	0.315948	0.610870	0.889576
	C151	C	0.318945	0.362092	0.109790
	C152	C	0.888797	0.665581	0.379223
	C153	C	0.109107	0.673174	0.628396
	C154	C	0.887412	0.308385	0.623146
	C155	C	0.110355	0.303302	0.375767
	C156	C	0.887999	0.365291	0.681593
	C157	C	0.108907	0.615794	0.686382
	C158	C	0.890185	0.609216	0.320366
	C159	C	0.110037	0.358972	0.316496
	C160	C	0.373918	0.669437	0.889165
	C161	C	0.623650	0.668998	0.109738
	C162	C	0.626192	0.304124	0.889805
	C163	C	0.377196	0.304686	0.109458
	C164	C	0.681365	0.877365	0.373974
	C165	C	0.678229	0.098568	0.619364
	C166	C	0.313428	0.878722	0.627439
	C167	C	0.317482	0.098306	0.376086
	C168	C	0.877799	0.375611	0.181246
	C169	C	0.127377	0.595164	0.184507
	C170	C	0.125028	0.377617	0.816600
	C171	C	0.873730	0.597671	0.818077
	C172	C	0.181232	0.863762	0.390832
	C173	C	0.183509	0.114436	0.610065
	C174	C	0.821211	0.108095	0.389176
	C175	C	0.815763	0.863202	0.610551
	C176	C	0.389525	0.169100	0.874568
	C177	C	0.611306	0.164422	0.119358
	C178	C	0.389631	0.802682	0.125074
	C179	C	0.610799	0.804763	0.874588
	C180	C	0.390139	0.859523	0.183796
	C181	C	0.610383	0.108832	0.178370
	C182	C	0.388943	0.110944	0.817423
	C183	C	0.610286	0.861646	0.816193
	C184	C	0.877390	0.167625	0.390081
	C185	C	0.125005	0.171796	0.610463
	C186	C	0.123754	0.805068	0.391336
	C187	C	0.872657	0.804196	0.610497
	C188	C	0.181120	0.375989	0.875646
	C189	C	0.184266	0.595409	0.125974
	C190	C	0.820956	0.375225	0.122282
	C191	C	0.817913	0.598081	0.877289
	C192	C	0.405765	0.077681	0.595568
	C193	C	0.594317	0.894897	0.595172
	C194	C	0.596909	0.079870	0.400806
	C195	C	0.405445	0.897659	0.405368
	C196	C	0.598336	0.387238	0.091776
	C197	C	0.596537	0.581840	0.909477
	C198	C	0.405284	0.581202	0.088229
	C199	C	0.404552	0.390849	0.908808
	C200	C	0.091999	0.581468	0.406661
	C201	C	0.908405	0.582566	0.597192
	C202	C	0.090857	0.393636	0.595642
	C203	C	0.908438	0.390770	0.403908
	C204	C	0.904438	0.579072	0.099091
	C205	C	0.095368	0.394643	0.096509
	C206	C	0.093767	0.576659	0.907178
	C207	C	0.904856	0.396503	0.904198
	C208	C	0.092768	0.893527	0.590788
	C209	C	0.095606	0.084304	0.410573
	C210	C	0.901659	0.085262	0.592421
	C211	C	0.902521	0.888743	0.409270
	C212	C	0.591796	0.082424	0.901124
	C213	C	0.406683	0.081824	0.095026
	C214	C	0.590485	0.892371	0.094187
	C215	C	0.409484	0.892472	0.905115
	Zn216	Zn	0.499683	-0.013837	0.749134
	Zn217	Zn	0.499066	-0.012415	0.248687
	Zn218	Zn	0.751221	0.486842	0.000824
	Zn219	Zn	0.249436	0.484880	0.000077
	Zn220	Zn	-0.000639	0.736214	0.501392
	Zn221	Zn	-0.000955	0.238622	0.501466
	Zn222	Zn	-0.000802	0.487819	0.750902
	Zn223	Zn	0.001649	0.486493	0.251612
	Zn224	Zn	0.500040	0.737063	-0.001303
	Zn225	Zn	0.500034	0.235254	-0.001052
	Zn226	Zn	0.748735	-0.013191	0.499283
	Zn227	Zn	0.249969	-0.012195	0.500723
	N228	N	0.410931	0.951964	0.681425
	N229	N	0.588281	0.020950	0.680452
	N230	N	0.588260	0.953133	0.316369
	N231	N	0.410637	0.022239	0.317514
	N232	N	0.681571	0.399337	0.964851
	N233	N	0.679078	0.572229	0.036799
	N234	N	0.318498	0.573383	0.963691
	N235	N	0.320107	0.398860	0.035168
	N236	N	0.963608	0.663900	0.416586
	N237	N	0.034702	0.669456	0.590149
	N238	N	0.962759	0.310188	0.585953
	N239	N	0.035741	0.306899	0.413818
	N240	N	0.963703	0.401504	0.680517
	N241	N	0.034381	0.577103	0.683409
	N242	N	0.965874	0.573008	0.321644
	N243	N	0.035174	0.396778	0.318391
	N244	N	0.411985	0.667550	0.963235
	N245	N	0.587990	0.667811	0.034547
	N246	N	0.589765	0.303889	0.964703
	N247	N	0.414043	0.306301	0.034602
	N248	N	0.679682	0.952280	0.411117
	N249	N	0.676050	0.023632	0.582412
	N250	N	0.317506	0.952883	0.589158
	N251	N	0.321015	0.024446	0.414659
	N252	N	0.913445	0.451443	0.181913
	N253	N	0.089713	0.520320	0.182663
	N254	N	0.087798	0.452594	0.819089
	N255	N	0.911093	0.522760	0.819417
	N256	N	0.179050	0.901446	0.465141
	N257	N	0.181766	0.077486	0.535516
	N258	N	0.821414	0.072157	0.464209
	N259	N	0.817956	0.899595	0.535777
	N260	N	0.465140	0.167523	0.910534
	N261	N	0.535608	0.163271	0.083409
	N262	N	0.463994	0.806260	0.086301
	N263	N	0.535941	0.807151	0.912425
	N264	N	0.464864	0.897668	0.181317
	N265	N	0.534060	0.073671	0.178558
	N266	N	0.464155	0.074057	0.818264
	N267	N	0.535079	0.898630	0.818153
	N268	N	0.911930	0.168434	0.465716
	N269	N	0.087329	0.169654	0.536299
	N270	N	0.086517	0.806770	0.465972
	N271	N	0.909791	0.804609	0.535743
	N272	N	0.178230	0.449925	0.914474
	N273	N	0.181274	0.520912	0.088228
	N274	N	0.822034	0.450738	0.086773
	N275	N	0.820844	0.523597	0.914862
	O276	O	0.477745	0.696906	0.292625
	H277	H	0.476037	0.703122	0.290054
	H278	H	0.487127	0.713346	0.296835
	O279	O	1.012259	0.183488	1.178652
	H280	H	1.002892	0.192428	1.179458
	H281	H	0.993398	0.184277	1.175143
	O282	O	0.675168	0.292841	0.552104
	H283	H	0.666511	0.293119	0.544703
	H284	H	0.693612	0.291835	0.534923
	O285	O	0.633629	0.612920	0.330597
	H286	H	0.628187	0.603868	0.330336
	H287	H	0.632086	0.596681	0.351688
	O288	O	1.020671	1.156342	-0.023461
	H289	H	1.056368	1.163230	-0.012367
	H290	H	1.011491	1.152175	-0.024068
	O291	O	0.311944	0.674858	0.321009
	H292	H	0.307180	0.626643	0.307820
	H293	H	0.336084	0.683587	0.302765
	O294	O	0.205597	0.007319	1.210910
	H295	H	0.224909	-0.002991	1.217501
	H296	H	0.212372	-0.013629	1.188187
	O297	O	0.906003	1.089334	1.111009
	H298	H	0.921893	1.077560	1.106569
	H299	H	0.895502	1.097640	1.102007
	O300	O	0.439623	0.658802	0.561346
	H301	H	0.436239	0.654278	0.532250
	H302	H	0.436277	0.653230	0.550734
	O303	O	0.694878	0.487535	0.364510
	H304	H	0.699973	0.489246	0.359224
	H305	H	0.680359	0.487144	0.372416
	O306	O	0.697810	0.289657	0.361038
	H307	H	0.704807	0.318958	0.364823
	H308	H	0.669838	0.293295	0.358328
	O309	O	0.287252	0.507548	0.293267
	H310	H	0.295022	0.491155	0.299606
	H311	H	0.261362	0.497845	0.276391
	O312	O	-0.162318	1.142550	1.108750
	H313	H	-0.172809	1.155408	1.123928
	H314	H	-0.167344	1.127658	1.098849
	O315	O	0.443762	0.587510	0.670687
	H316	H	0.419225	0.594880	0.682876
	H317	H	0.436415	0.596739	0.655251
	O318	O	0.806196	-0.016646	0.117944
	H319	H	0.804422	-0.019586	0.118254
	H320	H	0.804446	-0.009467	0.109381
	O321	O	0.169860	-0.037517	0.021760
	H322	H	0.153664	-0.023513	0.011095
	H323	H	0.174645	-0.054964	0.013113
	O324	O	0.682391	0.647990	0.681212
	H325	H	0.639580	0.659943	0.696433
	H326	H	0.687954	0.602566	0.690787
	O327	O	0.530701	0.458337	0.713702
	H328	H	0.498177	0.492709	0.717499
	H329	H	0.508138	0.429119	0.723326
	O330	O	0.182638	1.170671	0.179704
	H331	H	0.184992	1.124529	0.191842
	H332	H	0.138056	1.171258	0.191448
	O333	O	0.696114	0.449846	0.541300
	H334	H	0.697173	0.441816	0.558978
	H335	H	0.704006	0.474402	0.532150
	O336	O	0.205750	-0.027436	-0.205452
	H337	H	0.213237	-0.019468	-0.225170
	H338	H	0.178312	-0.008842	-0.213458
	O339	O	-0.070322	1.000929	1.089930
	H340	H	-0.066192	0.997323	1.086739
	H341	H	-0.074429	0.988222	1.084147
	O342	O	0.172298	1.041348	0.903777
	H343	H	0.162638	1.043550	0.918906
	H344	H	0.171037	1.028513	0.876612
	O345	O	1.210452	1.197416	0.018981
	H346	H	1.229431	1.197694	0.028712
	H347	H	1.216850	1.202674	0.060875
	O348	O	0.487462	0.272947	0.385672
	H349	H	0.478086	0.285911	0.397152
	H350	H	0.482894	0.269541	0.398298
	O351	O	0.320856	1.306133	1.681936
	H352	H	0.313062	1.299867	1.630940
	H353	H	0.304648	1.344920	1.695446
	O354	O	0.181001	0.866954	0.135540
	H355	H	0.165756	0.882644	0.117858
	H356	H	0.168671	0.856080	0.121860
	O357	O	-0.020573	0.192467	0.785831
	H358	H	-0.027269	0.198014	0.769228
	H359	H	-0.021901	0.204104	0.805408
	O360	O	0.468597	0.428057	0.362142
	H361	H	0.469563	0.408366	0.366392
	H362	H	0.494775	0.449035	0.352435
	O363	O	0.031956	-0.029936	1.217676
	H364	H	0.037434	-0.022694	1.214194
	H365	H	0.042288	-0.020423	1.225920
	O366	O	0.713903	0.679044	0.528253
	H367	H	0.726623	0.694539	0.555010
	H368	H	0.720088	0.689332	0.550053
	O369	O	0.786744	0.778555	0.030114
	H370	H	0.792421	0.779286	0.054236
	H371	H	0.764008	0.766494	0.027651
	O372	O	1.021488	-0.004184	0.938520
	H373	H	1.019641	-0.008323	0.955303
	H374	H	1.034043	-0.000638	0.946366
	O375	O	0.184635	0.807983	0.821876
	H376	H	0.136582	0.797358	0.813240
	H377	H	0.192573	0.861940	0.812590
	O378	O	1.220682	0.766204	0.977260
	H379	H	1.249878	0.730447	0.974106
	H380	H	1.211965	0.775602	0.927798
	O381	O	0.489452	0.514492	0.284261
	H382	H	0.485988	0.540122	0.292129
	H383	H	0.505130	0.522295	0.283770
	O384	O	0.032700	0.842287	1.041421
	H385	H	0.043219	0.835824	1.032425
	H386	H	0.035277	0.851127	1.034003
	O387	O	-0.100443	-0.055812	0.778384
	H388	H	-0.123603	-0.050977	0.770923
	H389	H	-0.094804	-0.046913	0.786606
	O390	O	-0.188089	-0.079649	-0.093630
	H391	H	-0.179979	-0.089728	-0.089722
	H392	H	-0.194904	-0.067147	-0.088382
	O393	O	0.808220	1.184730	0.897816
	H394	H	0.827400	1.202364	0.893218
	H395	H	0.811034	1.189069	0.913942
	O396	O	0.554759	0.290680	0.301137
	H397	H	0.538747	0.279916	0.280543
	H398	H	0.543966	0.277937	0.340087
	O399	O	0.295266	0.472078	0.703366
	H400	H	0.280396	0.467189	0.725357
	H401	H	0.279100	0.496619	0.670634
	O402	O	0.978043	0.790155	1.201685
	H403	H	0.970365	0.789120	1.200885
	H404	H	0.980621	0.788707	1.201081
	O405	O	0.530171	0.694572	-0.284939
	H406	H	0.510997	0.705986	-0.312397
	H407	H	0.525671	0.724036	-0.268902
	O408	O	1.022701	-0.220032	-0.211729
	H409	H	0.992374	-0.208513	-0.191161
	H410	H	1.024389	-0.256488	-0.240875
	O411	O	0.848854	1.107515	0.032147
	H412	H	0.840730	1.093302	0.021758
	H413	H	0.844863	1.110352	0.037094
	O414	O	0.299236	0.277004	0.515477
	H415	H	0.296634	0.280046	0.501946
	H416	H	0.295440	0.254020	0.516027
	O417	O	0.809544	0.795023	0.194286
	H418	H	0.794803	0.800560	0.214720
	H419	H	0.826964	0.801664	0.181986
	O420	O	0.029638	0.032974	-0.207387
	H421	H	0.003950	0.025588	-0.214438
	H422	H	0.013509	0.051376	-0.185622
	O423	O	0.478214	0.267824	0.722194
	H424	H	0.435049	0.272624	0.718822
	H425	H	0.463627	0.240325	0.749705
	O426	O	0.668552	0.493963	0.699170
	H427	H	0.628352	0.481830	0.709878
	H428	H	0.685129	0.475562	0.705502
	O429	O	0.701364	0.483627	0.337524
	H430	H	0.701532	0.497140	0.364044
	H431	H	0.720405	0.479268	0.310088
	O432	O	0.567421	0.704042	0.454241
	H433	H	0.571893	0.703185	0.460697
	H434	H	0.580493	0.694059	0.466705
	O435	O	0.285063	0.428372	0.452551
	H436	H	0.294907	0.411387	0.462210
	H437	H	0.299460	0.440549	0.450711
	O438	O	-0.193148	0.093524	-0.187198
	H439	H	-0.193408	0.099687	-0.176523
	H440	H	-0.200087	0.091860	-0.178086
	O441	O	0.985761	-0.234290	-0.020951
	H442	H	0.997313	-0.242229	-0.026967
	H443	H	0.980645	-0.224538	-0.000339
	O444	O	0.289094	0.553436	0.560870
	H445	H	0.279041	0.562452	0.537905
	H446	H	0.305437	0.564511	0.545988
	O447	O	0.505520	0.291616	0.524931
	H448	H	0.536006	0.297861	0.536546
	H449	H	0.510482	0.292450	0.534492
	O450	O	0.475770	0.488275	0.495120
	H451	H	0.487825	0.482368	0.501492
	H452	H	0.481782	0.481228	0.508596
	O453	O	0.279038	0.706693	0.479081
	H454	H	0.252441	0.728563	0.464091
	H455	H	0.278954	0.708326	0.437081
