data_Molecule from HDF5

_cell_length_a		16.345453
_cell_length_b		16.102813
_cell_length_c		16.265767
_cell_angle_alpha	90.224236
_cell_angle_beta	89.687969
_cell_angle_gamma	90.342797
_symmetry_space_group_name_H-M	'P 1'
_symmetry_Int_Tables_number		1

loop_
	_symmetry_equiv_pos_as_xyz
	x,y,z

loop_
	_atom_site_label
	_atom_site_type_symbol
	_atom_site_fract_x
	_atom_site_fract_y
	_atom_site_fract_z
	H0	H	0.395619	0.835993	0.712697
	H1	H	0.594043	0.167204	0.712659
	H2	H	0.594507	0.837240	0.285335
	H3	H	0.399562	0.167231	0.288092
	H4	H	0.712783	0.400882	0.836410
	H5	H	0.712145	0.605098	0.162331
	H6	H	0.281036	0.601068	0.836327
	H7	H	0.277969	0.399494	0.162135
	H8	H	0.830647	0.712430	0.404542
	H9	H	0.158686	0.717264	0.596612
	H10	H	0.830550	0.288857	0.595791
	H11	H	0.159756	0.288357	0.401010
	H12	H	0.832814	0.400582	0.717302
	H13	H	0.159378	0.601103	0.713955
	H14	H	0.833208	0.601073	0.283819
	H15	H	0.158754	0.401427	0.281583
	H16	H	0.400791	0.712932	0.834013
	H17	H	0.592043	0.716086	0.163726
	H18	H	0.593490	0.288345	0.834909
	H19	H	0.397305	0.288385	0.163918
	H20	H	0.708571	0.837078	0.398696
	H21	H	0.711297	0.166355	0.599459
	H22	H	0.278337	0.837650	0.601163
	H23	H	0.282290	0.167010	0.401362
	H24	H	0.896748	0.336590	0.212977
	H25	H	0.095382	0.667350	0.212633
	H26	H	0.093777	0.336581	0.784837
	H27	H	0.899967	0.666560	0.788184
	H28	H	0.212532	0.900277	0.337854
	H29	H	0.212359	0.106085	0.662924
	H30	H	0.782289	0.099977	0.335322
	H31	H	0.776255	0.899916	0.661748
	H32	H	0.332113	0.213553	0.904709
	H33	H	0.660186	0.217890	0.097118
	H34	H	0.332521	0.787306	0.096417
	H35	H	0.660158	0.788831	0.900480
	H36	H	0.333411	0.900968	0.216336
	H37	H	0.659851	0.102163	0.214663
	H38	H	0.333783	0.101466	0.784345
	H39	H	0.658092	0.901704	0.780843
	H40	H	0.900629	0.212806	0.334592
	H41	H	0.091462	0.216814	0.664184
	H42	H	0.092126	0.789245	0.335612
	H43	H	0.895959	0.788775	0.663737
	H44	H	0.210183	0.336181	0.897319
	H45	H	0.211409	0.666021	0.098898
	H46	H	0.778478	0.338017	0.100507
	H47	H	0.784516	0.666857	0.901391
	H48	H	0.406388	0.116746	0.586158
	H49	H	0.591028	0.882570	0.589397
	H50	H	0.592383	0.122290	0.404489
	H51	H	0.410642	0.883177	0.399001
	H52	H	0.592639	0.404481	0.119287
	H53	H	0.599396	0.587498	0.882194
	H54	H	0.402450	0.596669	0.116538
	H55	H	0.404851	0.406990	0.883351
	H56	H	0.112181	0.603191	0.409437
	H57	H	0.881805	0.585594	0.593783
	H58	H	0.110625	0.413435	0.593478
	H59	H	0.881681	0.414493	0.403630
	H60	H	0.112830	0.407595	0.595149
	H61	H	0.876542	0.595894	0.605651
	H62	H	0.107812	0.587816	0.410869
	H63	H	0.877074	0.403630	0.401310
	H64	H	0.400309	0.591997	0.115503
	H65	H	0.582953	0.590712	0.886100
	H66	H	0.592372	0.419463	0.114324
	H67	H	0.401208	0.406750	0.881759
	H68	H	0.585916	0.119617	0.406977
	H69	H	0.584112	0.884063	0.593555
	H70	H	0.396833	0.122409	0.592509
	H71	H	0.406062	0.888726	0.419455
	H72	H	0.905122	0.619770	0.093630
	H73	H	0.079625	0.382835	0.100781
	H74	H	0.087261	0.618620	0.908516
	H75	H	0.894368	0.381130	0.910071
	H76	H	0.085402	0.925700	0.611805
	H77	H	0.083635	0.094785	0.384918
	H78	H	0.904785	0.094869	0.615310
	H79	H	0.897582	0.916311	0.383644
	H80	H	0.612026	0.096275	0.908250
	H81	H	0.381043	0.091506	0.098248
	H82	H	0.610223	0.913407	0.091521
	H83	H	0.381035	0.906735	0.909652
	H84	H	0.613878	0.909779	0.096129
	H85	H	0.379172	0.097460	0.094576
	H86	H	0.611051	0.090267	0.905052
	H87	H	0.380651	0.911930	0.906016
	H88	H	0.898498	0.096302	0.617913
	H89	H	0.095542	0.098332	0.380544
	H90	H	0.075934	0.900695	0.617094
	H91	H	0.909702	0.905742	0.385052
	H92	H	0.092531	0.618637	0.910412
	H93	H	0.082211	0.388803	0.078929
	H94	H	0.904601	0.618944	0.090524
	H95	H	0.906382	0.381739	0.900388
	H96	H	0.407882	0.120096	0.598629
	H97	H	0.584763	0.885248	0.585734
	H98	H	0.592320	0.119670	0.412002
	H99	H	0.391515	0.880761	0.407172
	H100	H	0.579301	0.410155	0.113704
	H101	H	0.592885	0.602799	0.879293
	H102	H	0.404809	0.592506	0.115241
	H103	H	0.402633	0.410060	0.882765
	H104	H	0.114413	0.594179	0.397149
	H105	H	0.878513	0.600984	0.589954
	H106	H	0.110109	0.408349	0.589135
	H107	H	0.881100	0.406121	0.411983
	H108	H	0.902389	0.621149	0.092123
	H109	H	0.099257	0.380102	0.090586
	H110	H	0.091359	0.621199	0.904945
	H111	H	0.908356	0.386861	0.915107
	H112	H	0.101576	0.906452	0.622655
	H113	H	0.093321	0.086662	0.383873
	H114	H	0.899985	0.089715	0.615008
	H115	H	0.895847	0.901103	0.378274
	H116	H	0.613650	0.095936	0.902267
	H117	H	0.381996	0.091730	0.091733
	H118	H	0.612970	0.907297	0.090182
	H119	H	0.378334	0.905950	0.903263
	C120	C	0.373833	0.010728	0.621755
	C121	C	0.616158	0.993073	0.619240
	C122	C	0.617797	0.011038	0.378103
	C123	C	0.374953	0.993317	0.379936
	C124	C	0.617433	0.381359	0.007838
	C125	C	0.619049	0.623964	0.990599
	C126	C	0.374754	0.622566	0.007564
	C127	C	0.373913	0.379115	0.990970
	C128	C	0.003497	0.622869	0.378353
	C129	C	0.987062	0.623497	0.623410
	C130	C	0.003495	0.380277	0.621606
	C131	C	0.987861	0.379286	0.376634
	C132	C	0.874155	0.510792	0.121257
	C133	C	0.116787	0.492986	0.119835
	C134	C	0.118233	0.510339	0.877936
	C135	C	0.875833	0.492735	0.880161
	C136	C	0.116239	0.881583	0.508594
	C137	C	0.118239	0.123740	0.491434
	C138	C	0.873767	0.122290	0.507614
	C139	C	0.871965	0.879022	0.490768
	C140	C	0.504567	0.122642	0.877751
	C141	C	0.488360	0.123772	0.122772
	C142	C	0.504688	0.880281	0.121622
	C143	C	0.487791	0.879648	0.877069
	C144	C	0.375463	0.885756	0.675904
	C145	C	0.614397	0.117723	0.675068
	C146	C	0.614621	0.886676	0.322535
	C147	C	0.378436	0.117868	0.325255
	C148	C	0.673781	0.381924	0.884991
	C149	C	0.673821	0.623899	0.113633
	C150	C	0.319210	0.620859	0.884781
	C151	C	0.317431	0.380676	0.113798
	C152	C	0.879922	0.675939	0.382694
	C153	C	0.110037	0.679196	0.618444
	C154	C	0.880009	0.325716	0.617541
	C155	C	0.110716	0.325180	0.379869
	C156	C	0.880987	0.381339	0.678015
	C157	C	0.110240	0.621738	0.676863
	C158	C	0.881312	0.620417	0.322770
	C159	C	0.110208	0.381325	0.320258
	C160	C	0.379120	0.676418	0.883591
	C161	C	0.614591	0.679331	0.114420
	C162	C	0.614930	0.325615	0.884322
	C163	C	0.376854	0.325425	0.114825
	C164	C	0.671278	0.886524	0.379219
	C165	C	0.672326	0.117265	0.618573
	C166	C	0.316751	0.886566	0.620473
	C167	C	0.320306	0.117915	0.381596
	C168	C	0.876112	0.386301	0.176049
	C169	C	0.115422	0.617614	0.175225
	C170	C	0.114947	0.385916	0.822176
	C171	C	0.879523	0.617417	0.825890
	C172	C	0.173226	0.881571	0.386102
	C173	C	0.173368	0.124375	0.614360
	C174	C	0.819972	0.120048	0.384245
	C175	C	0.815312	0.880723	0.613213
	C176	C	0.381369	0.177200	0.882434
	C177	C	0.611384	0.179778	0.118637
	C178	C	0.381427	0.824887	0.117837
	C179	C	0.611199	0.825745	0.879508
	C180	C	0.382155	0.881156	0.177781
	C181	C	0.611225	0.122486	0.176986
	C182	C	0.381985	0.121050	0.823057
	C183	C	0.610053	0.881717	0.819994
	C184	C	0.878727	0.175998	0.383840
	C185	C	0.113471	0.179515	0.614928
	C186	C	0.113330	0.826192	0.384983
	C187	C	0.874812	0.825327	0.614404
	C188	C	0.172894	0.385842	0.878165
	C189	C	0.173215	0.617013	0.118665
	C190	C	0.817473	0.386900	0.120125
	C191	C	0.822198	0.617465	0.881971
	C192	C	0.396738	0.097261	0.599146
	C193	C	0.593205	0.906319	0.596358
	C194	C	0.596529	0.098039	0.401279
	C195	C	0.396490	0.906782	0.401982
	C196	C	0.594681	0.404445	0.093616
	C197	C	0.597933	0.600780	0.904931
	C198	C	0.396132	0.600331	0.093538
	C199	C	0.396247	0.401426	0.904752
	C200	C	0.089266	0.601503	0.399738
	C201	C	0.901365	0.600977	0.602712
	C202	C	0.089227	0.403256	0.599314
	C203	C	0.902084	0.401528	0.398947
	C204	C	0.897216	0.597481	0.098840
	C205	C	0.093785	0.406306	0.096871
	C206	C	0.096760	0.597055	0.901076
	C207	C	0.896905	0.405708	0.902049
	C208	C	0.093983	0.904334	0.594751
	C209	C	0.097138	0.100300	0.405535
	C210	C	0.894757	0.100120	0.593815
	C211	C	0.894533	0.901104	0.404521
	C212	C	0.590171	0.100653	0.898788
	C213	C	0.402917	0.100490	0.101344
	C214	C	0.590262	0.903319	0.099185
	C215	C	0.402301	0.901558	0.899679
	Zn216	Zn	0.495576	0.001640	0.747589
	Zn217	Zn	0.496831	0.002085	0.251764
	Zn218	Zn	0.747094	0.502111	-0.000500
	Zn219	Zn	0.245385	0.500359	-0.000823
	Zn220	Zn	-0.005382	0.752249	0.500132
	Zn221	Zn	-0.004885	0.250792	0.499022
	Zn222	Zn	-0.003973	0.501590	0.752100
	Zn223	Zn	-0.003740	0.502158	0.248066
	Zn224	Zn	0.496714	0.751180	-0.001228
	Zn225	Zn	0.496084	0.251732	-0.000229
	Zn226	Zn	0.744669	0.001561	0.498612
	Zn227	Zn	0.246530	0.002043	0.500947
	N228	N	0.409966	0.963905	0.676853
	N229	N	0.580021	0.039413	0.675447
	N230	N	0.581942	0.965156	0.321890
	N231	N	0.411651	0.039512	0.324009
	N232	N	0.675353	0.415787	0.962915
	N233	N	0.676475	0.589802	0.035788
	N234	N	0.316528	0.587871	0.962680
	N235	N	0.315462	0.413285	0.035700
	N236	N	0.956888	0.677720	0.416519
	N237	N	0.032551	0.680582	0.585757
	N238	N	0.957014	0.325167	0.583045
	N239	N	0.033524	0.323900	0.414181
	N240	N	0.958856	0.414552	0.680548
	N241	N	0.032913	0.587960	0.679954
	N242	N	0.959031	0.588263	0.319957
	N243	N	0.032866	0.414439	0.318265
	N244	N	0.412811	0.677741	0.961004
	N245	N	0.581375	0.679832	0.037028
	N246	N	0.580390	0.325189	0.961652
	N247	N	0.411271	0.324363	0.037464
	N248	N	0.673419	0.965022	0.412933
	N249	N	0.673230	0.039028	0.584436
	N250	N	0.315854	0.965176	0.587372
	N251	N	0.317878	0.039532	0.414831
	N252	N	0.910761	0.464396	0.176634
	N253	N	0.081186	0.539296	0.176094
	N254	N	0.082116	0.464316	0.821686
	N255	N	0.912156	0.538926	0.824586
	N256	N	0.175065	0.915342	0.463909
	N257	N	0.176388	0.090319	0.536542
	N258	N	0.817102	0.087160	0.462238
	N259	N	0.813579	0.913355	0.535136
	N260	N	0.458595	0.178256	0.915838
	N261	N	0.533997	0.180747	0.085685
	N262	N	0.458651	0.824084	0.083711
	N263	N	0.534289	0.824500	0.914387
	N264	N	0.459671	0.914961	0.180075
	N265	N	0.533619	0.088732	0.179735
	N266	N	0.459440	0.087860	0.820091
	N267	N	0.532433	0.914442	0.818281
	N268	N	0.911408	0.177489	0.461524
	N269	N	0.080030	0.179346	0.537498
	N270	N	0.078589	0.826180	0.462200
	N271	N	0.909511	0.824332	0.537221
	N272	N	0.174824	0.464108	0.912512
	N273	N	0.173867	0.538567	0.084783
	N274	N	0.816104	0.465191	0.086961
	N275	N	0.819818	0.538922	0.915009
	O276	O	0.481250	0.498260	0.562037
	H277	H	0.483744	0.504717	0.564034
	H278	H	0.482506	0.503378	0.554664
	O279	O	0.488528	0.495996	0.416011
	H280	H	0.490741	0.488115	0.417945
	H281	H	0.492334	0.486829	0.419327
	O282	O	0.516803	0.489343	0.475337
	H283	H	0.513050	0.491732	0.476534
	H284	H	0.519657	0.479713	0.471617
	O285	O	0.035709	1.033917	0.965247
	H286	H	0.034626	1.027085	0.971753
	H287	H	0.039336	1.037637	0.956718
	O288	O	0.440017	0.518648	0.530551
	H289	H	0.445389	0.523972	0.541274
	H290	H	0.442630	0.537048	0.536940
	O291	O	0.047656	0.022729	0.954987
	H292	H	0.057164	0.025117	0.953977
	H293	H	0.046571	0.016841	0.956279
	O294	O	0.545040	0.518046	0.495124
	H295	H	0.548977	0.523491	0.495772
	H296	H	0.552247	0.511364	0.488126
	O297	O	0.479990	0.485683	0.482541
	H298	H	0.469751	0.487261	0.481104
	H299	H	0.480636	0.478094	0.498878
	O300	O	0.400000	0.506666	0.469858
	H301	H	0.394113	0.501970	0.474032
	H302	H	0.399739	0.512913	0.464292
	O303	O	0.460947	0.455500	0.474884
	H304	H	0.459009	0.450268	0.482050
	H305	H	0.458788	0.459005	0.469573
	O306	O	1.015482	0.027639	0.945747
	H307	H	1.006327	0.026808	0.941950
	H308	H	1.017519	0.035520	0.945605
	O309	O	0.510043	0.506474	0.486856
	H310	H	0.500379	0.505867	0.474786
	H311	H	0.500518	0.498545	0.486904
	O312	O	0.534920	0.487489	0.527556
	H313	H	0.538289	0.485701	0.528063
	H314	H	0.538484	0.489811	0.520895
	O315	O	1.058156	-0.012038	1.007311
	H316	H	1.058699	-0.009866	1.010499
	H317	H	1.053363	-0.017273	0.997797
	O318	O	0.020378	0.062801	-0.026304
	H319	H	0.028066	0.071087	-0.039689
	H320	H	0.018795	0.061644	-0.015628
	O321	O	0.453235	0.462015	0.491185
	H322	H	0.446754	0.463326	0.485855
	H323	H	0.457893	0.457583	0.477659
	O324	O	1.058320	0.061079	0.054543
	H325	H	1.056366	0.062236	0.036566
	H326	H	1.063929	0.061485	0.062092
	O327	O	1.046261	1.006928	0.032583
	H328	H	1.056165	1.002886	0.039953
	H329	H	1.041202	1.007650	0.046647
	O330	O	0.576193	0.548262	0.484518
	H331	H	0.579293	0.536742	0.467890
	H332	H	0.576292	0.548429	0.482141
	O333	O	0.517751	0.440896	0.480204
	H334	H	0.518154	0.432270	0.479654
	H335	H	0.516372	0.453218	0.492443
