data_Molecule from HDF5

_cell_length_a		16.029017
_cell_length_b		16.336151
_cell_length_c		16.307533
_cell_angle_alpha	89.588718
_cell_angle_beta	88.903565
_cell_angle_gamma	90.840120
_symmetry_space_group_name_H-M	'P 1'
_symmetry_Int_Tables_number		1

loop_
	_symmetry_equiv_pos_as_xyz
	x,y,z

loop_
	_atom_site_label
	_atom_site_type_symbol
	_atom_site_fract_x
	_atom_site_fract_y
	_atom_site_fract_z
	H0	H	0.395152	0.834146	0.722090
	H1	H	0.604198	0.159009	0.715838
	H2	H	0.603280	0.833134	0.282636
	H3	H	0.401801	0.157379	0.282827
	H4	H	0.714947	0.404063	0.834801
	H5	H	0.712889	0.594337	0.164165
	H6	H	0.297712	0.590574	0.832740
	H7	H	0.278324	0.394108	0.161158
	H8	H	0.834963	0.709709	0.401044
	H9	H	0.164442	0.712820	0.595363
	H10	H	0.836153	0.278234	0.601730
	H11	H	0.168437	0.287668	0.397065
	H12	H	0.835243	0.392783	0.716864
	H13	H	0.167757	0.595186	0.705329
	H14	H	0.833932	0.592483	0.288672
	H15	H	0.164631	0.397848	0.279337
	H16	H	0.405484	0.713852	0.838042
	H17	H	0.600730	0.712896	0.162686
	H18	H	0.606316	0.280324	0.838414
	H19	H	0.392146	0.275940	0.162412
	H20	H	0.714430	0.831726	0.402841
	H21	H	0.715918	0.160260	0.593410
	H22	H	0.280370	0.834437	0.606010
	H23	H	0.295161	0.161788	0.407609
	H24	H	0.891254	0.334815	0.220317
	H25	H	0.104796	0.657791	0.213017
	H26	H	0.101322	0.333496	0.780274
	H27	H	0.904602	0.658732	0.783083
	H28	H	0.219267	0.903691	0.338276
	H29	H	0.209795	0.093951	0.666248
	H30	H	0.794331	0.090788	0.335081
	H31	H	0.781396	0.895559	0.663540
	H32	H	0.336182	0.209762	0.901847
	H33	H	0.665644	0.214779	0.098548
	H34	H	0.336494	0.777222	0.106583
	H35	H	0.667250	0.787718	0.900268
	H36	H	0.336391	0.892121	0.220869
	H37	H	0.667710	0.097077	0.210809
	H38	H	0.335582	0.094450	0.790062
	H39	H	0.665418	0.900575	0.784445
	H40	H	0.904096	0.213050	0.337015
	H41	H	0.102543	0.216788	0.660656
	H42	H	0.105131	0.783897	0.337515
	H43	H	0.892072	0.774887	0.661773
	H44	H	0.214761	0.332211	0.898138
	H45	H	0.214874	0.659964	0.089216
	H46	H	0.780164	0.333766	0.100233
	H47	H	0.795132	0.661531	0.903387
	H48	H	0.395635	0.115457	0.591092
	H49	H	0.593062	0.879219	0.594066
	H50	H	0.593334	0.110760	0.404414
	H51	H	0.408071	0.879374	0.410279
	H52	H	0.587145	0.411623	0.112243
	H53	H	0.593310	0.596906	0.883406
	H54	H	0.404768	0.580095	0.114150
	H55	H	0.403313	0.398424	0.879526
	H56	H	0.117062	0.591470	0.409650
	H57	H	0.882538	0.579362	0.594489
	H58	H	0.118591	0.411239	0.591239
	H59	H	0.881244	0.408394	0.400219
	H60	H	0.121186	0.400723	0.590748
	H61	H	0.878762	0.588677	0.597375
	H62	H	0.118472	0.586809	0.401377
	H63	H	0.879903	0.389769	0.411743
	H64	H	0.413757	0.587690	0.114366
	H65	H	0.602638	0.598312	0.880950
	H66	H	0.581309	0.398378	0.114791
	H67	H	0.414163	0.410372	0.886765
	H68	H	0.599130	0.111624	0.408169
	H69	H	0.588304	0.878768	0.599702
	H70	H	0.411552	0.117320	0.612719
	H71	H	0.411615	0.881302	0.411955
	H72	H	0.903272	0.615651	0.098973
	H73	H	0.090354	0.382048	0.081737
	H74	H	0.091848	0.607416	0.910903
	H75	H	0.906411	0.381053	0.913652
	H76	H	0.083318	0.900702	0.616334
	H77	H	0.102986	0.098075	0.381347
	H78	H	0.898161	0.083603	0.617911
	H79	H	0.913644	0.899795	0.384194
	H80	H	0.620610	0.087704	0.901363
	H81	H	0.381167	0.089240	0.094314
	H82	H	0.620397	0.908740	0.096651
	H83	H	0.385913	0.905453	0.924777
	H84	H	0.622476	0.898011	0.091757
	H85	H	0.386064	0.081155	0.090847
	H86	H	0.620145	0.095902	0.910462
	H87	H	0.381757	0.910142	0.904861
	H88	H	0.918118	0.080805	0.611503
	H89	H	0.103146	0.086974	0.384183
	H90	H	0.091119	0.897801	0.619605
	H91	H	0.907136	0.901620	0.382735
	H92	H	0.111729	0.616118	0.900049
	H93	H	0.093278	0.376774	0.096046
	H94	H	0.918738	0.610725	0.096680
	H95	H	0.903334	0.377454	0.903086
	H96	H	0.420519	0.106853	0.589600
	H97	H	0.585660	0.882199	0.592959
	H98	H	0.599804	0.112144	0.400406
	H99	H	0.408329	0.881204	0.414245
	H100	H	0.595612	0.401371	0.119164
	H101	H	0.600634	0.590260	0.884257
	H102	H	0.402876	0.590661	0.118526
	H103	H	0.420866	0.394143	0.884787
	H104	H	0.120904	0.595431	0.401834
	H105	H	0.881855	0.586947	0.587407
	H106	H	0.118227	0.405995	0.582472
	H107	H	0.887146	0.408134	0.421048
	H108	H	0.909055	0.610552	0.084631
	H109	H	0.079207	0.382097	0.092451
	H110	H	0.092312	0.613853	0.889503
	H111	H	0.914474	0.381012	0.905184
	H112	H	0.089966	0.906149	0.616574
	H113	H	0.093778	0.092880	0.385523
	H114	H	0.911689	0.099483	0.617955
	H115	H	0.911457	0.906106	0.384678
	H116	H	0.615965	0.084461	0.912163
	H117	H	0.382210	0.081804	0.100164
	H118	H	0.617126	0.907378	0.085546
	H119	H	0.377657	0.891224	0.911458
	C120	C	0.377365	0.005576	0.627735
	C121	C	0.620761	0.987769	0.622260
	C122	C	0.625145	0.003795	0.376924
	C123	C	0.381913	0.988328	0.382698
	C124	C	0.620756	0.375953	0.007988
	C125	C	0.625263	0.621720	0.991418
	C126	C	0.381448	0.616217	0.007696
	C127	C	0.377927	0.371057	0.990588
	C128	C	0.009244	0.618488	0.377165
	C129	C	0.990906	0.615636	0.619247
	C130	C	0.010166	0.374351	0.620197
	C131	C	0.992182	0.375029	0.379073
	C132	C	0.877580	0.504696	0.122901
	C133	C	0.119957	0.487813	0.117766
	C134	C	0.126027	0.504553	0.872518
	C135	C	0.881192	0.487779	0.878485
	C136	C	0.121400	0.875140	0.509896
	C137	C	0.125742	0.120482	0.491708
	C138	C	0.882073	0.116724	0.507847
	C139	C	0.877677	0.872380	0.491420
	C140	C	0.509776	0.117362	0.880193
	C141	C	0.492598	0.115712	0.121917
	C142	C	0.510503	0.873711	0.123497
	C143	C	0.491424	0.875934	0.882343
	C144	C	0.376233	0.883103	0.683933
	C145	C	0.622432	0.110450	0.676845
	C146	C	0.622872	0.881653	0.321321
	C147	C	0.383635	0.109925	0.323735
	C148	C	0.677803	0.381547	0.884318
	C149	C	0.677111	0.616311	0.114588
	C150	C	0.331627	0.612846	0.883069
	C151	C	0.317370	0.373171	0.112588
	C152	C	0.884382	0.672187	0.380818
	C153	C	0.115648	0.673171	0.614906
	C154	C	0.885576	0.316733	0.620862
	C155	C	0.117757	0.322696	0.377445
	C156	C	0.885231	0.373908	0.678184
	C157	C	0.117003	0.615042	0.670241
	C158	C	0.883958	0.613878	0.324813
	C159	C	0.115890	0.377611	0.319113
	C160	C	0.385209	0.674044	0.885653
	C161	C	0.621567	0.675586	0.113920
	C162	C	0.623423	0.320139	0.885967
	C163	C	0.373869	0.314321	0.113275
	C164	C	0.678402	0.880887	0.381056
	C165	C	0.678044	0.111258	0.616121
	C166	C	0.319050	0.883253	0.626258
	C167	C	0.330361	0.112154	0.385811
	C168	C	0.874099	0.382995	0.180854
	C169	C	0.122669	0.609572	0.173908
	C170	C	0.121972	0.381963	0.818090
	C171	C	0.884594	0.610216	0.821899
	C172	C	0.180650	0.880959	0.387046
	C173	C	0.175554	0.116128	0.616176
	C174	C	0.829945	0.112973	0.384401
	C175	C	0.819500	0.874475	0.614321
	C176	C	0.385378	0.171788	0.882744
	C177	C	0.616591	0.175150	0.118795
	C178	C	0.386102	0.815632	0.125259
	C179	C	0.617137	0.823847	0.881284
	C180	C	0.386042	0.873041	0.182045
	C181	C	0.617866	0.116403	0.174396
	C182	C	0.385081	0.114589	0.826786
	C183	C	0.616402	0.879686	0.823795
	C184	C	0.884814	0.173361	0.385220
	C185	C	0.121941	0.176914	0.613419
	C186	C	0.123629	0.821683	0.386630
	C187	C	0.874910	0.814725	0.613480
	C188	C	0.178985	0.381445	0.876378
	C189	C	0.177374	0.610719	0.112377
	C190	C	0.818366	0.382646	0.121444
	C191	C	0.830123	0.611835	0.881907
	C192	C	0.402105	0.091085	0.604533
	C193	C	0.596232	0.902384	0.601531
	C194	C	0.603783	0.089380	0.398106
	C195	C	0.403100	0.902771	0.405487
	C196	C	0.595529	0.397545	0.093464
	C197	C	0.604792	0.601343	0.905082
	C198	C	0.401345	0.592997	0.093529
	C199	C	0.404924	0.394183	0.905698
	C200	C	0.096372	0.597588	0.397954
	C201	C	0.903577	0.591917	0.599004
	C202	C	0.096897	0.398657	0.595368
	C203	C	0.905343	0.395775	0.403968
	C204	C	0.903003	0.590206	0.100070
	C205	C	0.094965	0.402283	0.096410
	C206	C	0.104933	0.590255	0.893796
	C207	C	0.901892	0.402044	0.900784
	C208	C	0.095597	0.895480	0.595431
	C209	C	0.105916	0.098932	0.405773
	C210	C	0.903290	0.094486	0.593678
	C211	C	0.903306	0.895673	0.405728
	C212	C	0.596513	0.095780	0.901660
	C213	C	0.405499	0.091163	0.101146
	C214	C	0.597491	0.897891	0.098636
	C215	C	0.404297	0.896289	0.906510
	Zn216	Zn	0.500031	-0.003411	0.754115
	Zn217	Zn	0.502093	-0.004848	0.250316
	Zn218	Zn	0.751221	0.497620	-0.000525
	Zn219	Zn	0.251744	0.495152	-0.003225
	Zn220	Zn	-0.000716	0.744371	0.499467
	Zn221	Zn	0.002859	0.247220	0.498602
	Zn222	Zn	0.001296	0.495927	0.746852
	Zn223	Zn	-0.000146	0.495610	0.250486
	Zn224	Zn	0.501518	0.747602	0.001053
	Zn225	Zn	0.500299	0.243989	0.000835
	Zn226	Zn	0.751592	-0.004438	0.500012
	Zn227	Zn	0.251739	-0.002150	0.503633
	N228	N	0.411747	0.960385	0.684989
	N229	N	0.587484	0.032888	0.680815
	N230	N	0.590568	0.959084	0.318810
	N231	N	0.414748	0.031860	0.321596
	N232	N	0.676177	0.415604	0.961264
	N233	N	0.679680	0.583603	0.037130
	N234	N	0.329281	0.577463	0.959877
	N235	N	0.319768	0.407687	0.035279
	N236	N	0.963417	0.675355	0.412316
	N237	N	0.036253	0.673735	0.584106
	N238	N	0.964304	0.316691	0.585641
	N239	N	0.039709	0.320778	0.414104
	N240	N	0.963859	0.408872	0.677942
	N241	N	0.038524	0.579786	0.672979
	N242	N	0.962527	0.580963	0.322487
	N243	N	0.036881	0.409276	0.320028
	N244	N	0.415354	0.676249	0.964227
	N245	N	0.590126	0.678840	0.036230
	N246	N	0.588607	0.316558	0.963789
	N247	N	0.410986	0.313064	0.036537
	N248	N	0.679893	0.957827	0.415087
	N249	N	0.677200	0.033961	0.582934
	N250	N	0.319621	0.960459	0.592055
	N251	N	0.329315	0.035722	0.422134
	N252	N	0.910042	0.460013	0.181989
	N253	N	0.087478	0.532180	0.177086
	N254	N	0.089858	0.459607	0.815480
	N255	N	0.915745	0.532081	0.819580
	N256	N	0.179549	0.913369	0.464673
	N257	N	0.177881	0.081824	0.539469
	N258	N	0.828028	0.078537	0.461594
	N259	N	0.821480	0.909570	0.537441
	N260	N	0.463874	0.173528	0.915348
	N261	N	0.537723	0.174720	0.086922
	N262	N	0.464562	0.815905	0.089535
	N263	N	0.538552	0.821527	0.917105
	N264	N	0.464583	0.908264	0.181127
	N265	N	0.539668	0.080262	0.176628
	N266	N	0.463425	0.081457	0.824978
	N267	N	0.537452	0.911358	0.824254
	N268	N	0.916543	0.175773	0.463110
	N269	N	0.091686	0.179771	0.535087
	N270	N	0.087369	0.817980	0.463835
	N271	N	0.910252	0.813248	0.535878
	N272	N	0.181683	0.458671	0.909333
	N273	N	0.175738	0.533891	0.078143
	N274	N	0.820295	0.459443	0.086269
	N275	N	0.827937	0.534843	0.916705
	O276	O	0.399876	0.470431	0.581423
	H277	H	0.386460	0.457715	0.580430
	H278	H	0.406939	0.468990	0.576492
	O279	O	0.427419	0.566559	0.574212
	H280	H	0.421190	0.567651	0.565038
	H281	H	0.416868	0.558126	0.584651
	O282	O	0.986103	1.085415	0.074693
	H283	H	0.995690	1.094599	0.075756
	H284	H	0.983573	1.079647	0.065203
	O285	O	1.025740	-0.028114	0.879061
	H286	H	1.035634	-0.038832	0.876518
	H287	H	1.037499	-0.030489	0.887697
	O288	O	0.500906	0.502900	0.584616
	H289	H	0.495824	0.500241	0.586992
	H290	H	0.498824	0.501612	0.582951
	O291	O	0.484586	0.499860	0.432519
	H292	H	0.485950	0.497873	0.450736
	H293	H	0.479807	0.501203	0.427264
	O294	O	0.445402	0.551270	0.380876
	H295	H	0.436973	0.548631	0.384566
	H296	H	0.441624	0.552927	0.374709
	O297	O	0.107584	-0.002013	1.007077
	H298	H	0.099903	0.000925	1.006109
	H299	H	0.113565	-0.001723	1.017913
	O300	O	0.428121	0.423017	0.519190
	H301	H	0.425872	0.425758	0.519719
	H302	H	0.424646	0.412867	0.520969
	O303	O	0.986973	1.085310	-0.029110
	H304	H	0.985826	1.087224	-0.027067
	H305	H	1.002136	1.086195	-0.021919
	O306	O	0.124072	1.048782	1.036513
	H307	H	0.131685	1.046513	1.030729
	H308	H	0.120467	1.053549	1.053196
	O309	O	0.435844	0.516435	0.505696
	H310	H	0.432914	0.517067	0.508133
	H311	H	0.437222	0.511124	0.500440
	O312	O	-0.077959	0.030736	-0.012655
	H313	H	-0.059667	0.041532	-0.015502
	H314	H	-0.080617	0.025586	-0.000135
	O315	O	0.537650	-0.560750	0.483558
	H316	H	0.538902	-0.549536	0.487262
	H317	H	0.540083	-0.544393	0.478869
	O318	O	0.875073	0.877441	1.090388
	H319	H	0.870550	0.898868	1.076895
	H320	H	0.864757	0.868635	1.085678
	O321	O	-0.009182	-0.005383	0.944725
	H322	H	-0.015659	0.000687	0.934892
	H323	H	-0.001328	-0.020527	0.949758
	O324	O	0.478651	0.577800	0.363660
	H325	H	0.479276	0.579187	0.356424
	H326	H	0.467904	0.573634	0.361563
	O327	O	-0.019554	-0.047454	0.091462
	H328	H	-0.027251	-0.053133	0.092787
	H329	H	-0.033167	-0.050531	0.099558
	O330	O	0.570902	0.556819	0.563718
	H331	H	0.568185	0.556245	0.567859
	H332	H	0.568676	0.560469	0.565029
	O333	O	-0.035550	1.093566	0.964805
	H334	H	-0.038799	1.094261	0.961858
	H335	H	-0.027880	1.087879	0.972157
	O336	O	0.045762	-0.098699	0.024614
	H337	H	0.041895	-0.098277	0.027211
	H338	H	0.065938	-0.096123	0.026302
	O339	O	0.493508	0.416499	0.461790
	H340	H	0.503092	0.411939	0.458635
	H341	H	0.492177	0.423822	0.468037
	O342	O	1.081118	0.875190	1.036729
	H343	H	1.074155	0.880616	1.049880
	H344	H	1.079106	0.875445	1.047200
	O345	O	1.130967	2.048632	0.039789
	H346	H	1.136399	2.049652	0.040257
	H347	H	1.117940	2.039595	0.039966
	O348	O	0.567777	0.447265	0.466287
	H349	H	0.571446	0.455811	0.469285
	H350	H	0.566163	0.437757	0.455379
	O351	O	0.595854	0.441445	0.511386
	H352	H	0.602388	0.457021	0.514227
	H353	H	0.595984	0.434037	0.520411
	O354	O	0.522251	0.465485	0.382744
	H355	H	0.523372	0.459400	0.390382
	H356	H	0.522136	0.460935	0.374779
	O357	O	0.932665	0.123718	1.027067
	H358	H	0.923883	0.119678	1.023521
	H359	H	0.921790	0.134355	1.016123
	O360	O	0.494256	0.461726	0.475670
	H361	H	0.489778	0.468512	0.479413
	H362	H	0.495353	0.466660	0.479299
	O363	O	0.431809	0.507253	0.545652
	H364	H	0.429625	0.498325	0.542532
	H365	H	0.437336	0.507374	0.533404
	O366	O	0.982738	0.897376	1.037311
	H367	H	0.977492	0.897443	1.044361
	H368	H	0.974770	0.913031	1.040834
	O369	O	0.949161	-0.099992	1.029036
	H370	H	0.942034	-0.087426	1.024496
	H371	H	0.953798	-0.098901	1.035387
	O372	O	0.097433	0.019977	-0.091742
	H373	H	0.110249	0.021453	-0.090170
	H374	H	0.101781	0.010544	-0.089897
	O375	O	0.983545	-0.111424	0.069138
	H376	H	0.972768	-0.122071	0.062781
	H377	H	0.968506	-0.122958	0.070166
	O378	O	0.532743	0.458799	0.481701
	H379	H	0.537895	0.449593	0.483112
	H380	H	0.541547	0.468497	0.488521
	O381	O	0.914610	1.116070	-0.131859
	H382	H	0.899614	1.107486	-0.130822
	H383	H	0.916238	1.127686	-0.145776
