data_Molecule from HDF5

_cell_length_a		16.512267
_cell_length_b		16.453228
_cell_length_c		16.638112
_cell_angle_alpha	90.074832
_cell_angle_beta	90.008512
_cell_angle_gamma	90.039747
_symmetry_space_group_name_H-M	'P 1'
_symmetry_Int_Tables_number		1

loop_
	_symmetry_equiv_pos_as_xyz
	x,y,z

loop_
	_atom_site_label
	_atom_site_type_symbol
	_atom_site_fract_x
	_atom_site_fract_y
	_atom_site_fract_z
	H0	H	0.381547	0.843550	0.714475
	H1	H	0.585577	0.161238	0.713896
	H2	H	0.592491	0.846742	0.272685
	H3	H	0.376048	0.159050	0.271919
	H4	H	0.704623	0.397449	0.840506
	H5	H	0.707874	0.607752	0.152243
	H6	H	0.264790	0.604437	0.840006
	H7	H	0.259110	0.394331	0.151373
	H8	H	0.824692	0.720427	0.393967
	H9	H	0.142134	0.719947	0.596346
	H10	H	0.829404	0.278523	0.602197
	H11	H	0.140565	0.279454	0.388200
	H12	H	0.830960	0.392021	0.720842
	H13	H	0.139791	0.609240	0.717618
	H14	H	0.826376	0.607611	0.274292
	H15	H	0.140431	0.394941	0.271883
	H16	H	0.383842	0.720153	0.839323
	H17	H	0.591816	0.725735	0.152435
	H18	H	0.583653	0.285016	0.838144
	H19	H	0.376834	0.278635	0.152169
	H20	H	0.704336	0.844768	0.391631
	H21	H	0.701406	0.161335	0.596475
	H22	H	0.265083	0.843902	0.598279
	H23	H	0.261088	0.159549	0.388955
	H24	H	0.875684	0.345967	0.219635
	H25	H	0.088946	0.660053	0.216240
	H26	H	0.089762	0.344890	0.773480
	H27	H	0.878674	0.658411	0.774660
	H28	H	0.206750	0.897560	0.340185
	H29	H	0.206687	0.110070	0.651855
	H30	H	0.759131	0.110054	0.340368
	H31	H	0.763537	0.898069	0.652680
	H32	H	0.324820	0.219932	0.893997
	H33	H	0.642562	0.223360	0.098457
	H34	H	0.326840	0.783664	0.099011
	H35	H	0.642988	0.782972	0.894098
	H36	H	0.328140	0.897622	0.217513
	H37	H	0.640020	0.112473	0.219847
	H38	H	0.325549	0.104113	0.777102
	H39	H	0.642410	0.898015	0.776317
	H40	H	0.875088	0.227498	0.340227
	H41	H	0.091135	0.227422	0.650504
	H42	H	0.087103	0.782681	0.338690
	H43	H	0.881230	0.782711	0.652565
	H44	H	0.203823	0.342846	0.891128
	H45	H	0.204882	0.659806	0.100063
	H46	H	0.763950	0.343565	0.100177
	H47	H	0.763722	0.659079	0.891878
	H48	H	0.397691	0.116405	0.591129
	H49	H	0.573925	0.888456	0.590242
	H50	H	0.565767	0.112716	0.409806
	H51	H	0.392821	0.891533	0.413329
	H52	H	0.572725	0.415448	0.107544
	H53	H	0.568480	0.591462	0.887127
	H54	H	0.389006	0.594972	0.111487
	H55	H	0.393540	0.412645	0.884947
	H56	H	0.095527	0.591168	0.407484
	H57	H	0.869302	0.590645	0.592533
	H58	H	0.097996	0.414133	0.583959
	H59	H	0.873766	0.414718	0.410818
	H60	H	0.094788	0.416662	0.578687
	H61	H	0.869639	0.597571	0.583181
	H62	H	0.097827	0.590205	0.400745
	H63	H	0.873552	0.419766	0.405270
	H64	H	0.393560	0.584243	0.106859
	H65	H	0.575502	0.596307	0.882884
	H66	H	0.571353	0.409717	0.109175
	H67	H	0.394954	0.411466	0.884586
	H68	H	0.577468	0.115621	0.411784
	H69	H	0.573120	0.888823	0.585357
	H70	H	0.397584	0.113678	0.583377
	H71	H	0.396165	0.888129	0.401495
	H72	H	0.893934	0.616142	0.086689
	H73	H	0.073246	0.388379	0.086062
	H74	H	0.077852	0.613964	0.912641
	H75	H	0.888561	0.386631	0.909211
	H76	H	0.076886	0.910159	0.609293
	H77	H	0.076506	0.088730	0.384415
	H78	H	0.898633	0.091667	0.604749
	H79	H	0.892625	0.911847	0.383065
	H80	H	0.596662	0.092157	0.907321
	H81	H	0.372823	0.087967	0.084850
	H82	H	0.595639	0.922671	0.087679
	H83	H	0.369576	0.907386	0.902199
	H84	H	0.600994	0.910399	0.090387
	H85	H	0.371940	0.089952	0.085150
	H86	H	0.597138	0.090436	0.902704
	H87	H	0.372611	0.911047	0.909026
	H88	H	0.893481	0.091696	0.606963
	H89	H	0.070856	0.085407	0.387517
	H90	H	0.076332	0.913376	0.607468
	H91	H	0.893065	0.912296	0.383532
	H92	H	0.077603	0.617910	0.899790
	H93	H	0.068132	0.389815	0.085558
	H94	H	0.897825	0.614130	0.085673
	H95	H	0.899160	0.387589	0.899717
	H96	H	0.390713	0.117625	0.586374
	H97	H	0.577448	0.886344	0.586427
	H98	H	0.571787	0.117877	0.400945
	H99	H	0.403965	0.894694	0.409441
	H100	H	0.576765	0.412262	0.110069
	H101	H	0.577359	0.587115	0.886078
	H102	H	0.400714	0.594553	0.108179
	H103	H	0.393495	0.410488	0.884120
	H104	H	0.097780	0.596304	0.403739
	H105	H	0.873017	0.586368	0.582256
	H106	H	0.095212	0.420604	0.583957
	H107	H	0.870292	0.413251	0.404248
	H108	H	0.894840	0.613913	0.082631
	H109	H	0.071395	0.391047	0.081708
	H110	H	0.066369	0.613238	0.905965
	H111	H	0.901128	0.392449	0.913050
	H112	H	0.073726	0.910291	0.607120
	H113	H	0.070163	0.092845	0.384963
	H114	H	0.895423	0.087114	0.604593
	H115	H	0.893335	0.911545	0.383297
	H116	H	0.597915	0.095174	0.903843
	H117	H	0.373751	0.089469	0.083019
	H118	H	0.596068	0.912640	0.078170
	H119	H	0.371537	0.915467	0.902299
	C120	C	0.363783	0.011007	0.617214
	C121	C	0.605065	0.993406	0.617403
	C122	C	0.605222	0.011440	0.374580
	C123	C	0.363853	0.994948	0.374921
	C124	C	0.604532	0.381084	0.005012
	C125	C	0.606543	0.624043	0.988456
	C126	C	0.363546	0.622534	0.005021
	C127	C	0.361159	0.378985	0.987650
	C128	C	-0.007547	0.624245	0.373304
	C129	C	0.974914	0.623451	0.617073
	C130	C	-0.006583	0.382575	0.615809
	C131	C	0.975358	0.381541	0.373538
	C132	C	0.862611	0.510547	0.117232
	C133	C	0.104400	0.493859	0.116774
	C134	C	0.105272	0.510155	0.874543
	C135	C	0.863557	0.492826	0.874995
	C136	C	0.106809	0.879846	0.504307
	C137	C	0.105909	0.123547	0.487941
	C138	C	0.862618	0.123975	0.503062
	C139	C	0.861819	0.880599	0.487058
	C140	C	0.492282	0.123270	0.874469
	C141	C	0.476201	0.123783	0.117056
	C142	C	0.493536	0.882306	0.117407
	C143	C	0.476225	0.880438	0.874223
	C144	C	0.362624	0.891212	0.675240
	C145	C	0.604837	0.113514	0.674703
	C146	C	0.609206	0.893497	0.313564
	C147	C	0.359277	0.112404	0.313222
	C148	C	0.663882	0.379456	0.887057
	C149	C	0.667642	0.626573	0.105479
	C150	C	0.304863	0.623470	0.886749
	C151	C	0.299741	0.375826	0.104749
	C152	C	0.872703	0.681802	0.373950
	C153	C	0.094439	0.681303	0.616404
	C154	C	0.876336	0.319466	0.619965
	C155	C	0.093486	0.320046	0.370384
	C156	C	0.876896	0.375783	0.679159
	C157	C	0.093139	0.626179	0.676648
	C158	C	0.873431	0.625338	0.314766
	C159	C	0.093229	0.377619	0.312447
	C160	C	0.363595	0.681138	0.886757
	C161	C	0.609767	0.684934	0.105664
	C162	C	0.604091	0.323247	0.886094
	C163	C	0.358286	0.318344	0.105222
	C164	C	0.664973	0.892603	0.372838
	C165	C	0.662198	0.113767	0.616428
	C166	C	0.304781	0.891404	0.617580
	C167	C	0.302063	0.112605	0.371465
	C168	C	0.858966	0.392523	0.178318
	C169	C	0.107347	0.612541	0.176580
	C170	C	0.107877	0.391878	0.813869
	C171	C	0.860537	0.611325	0.814862
	C172	C	0.165944	0.878882	0.386481
	C173	C	0.166752	0.127695	0.604702
	C174	C	0.800319	0.127664	0.386591
	C175	C	0.803040	0.879424	0.605236
	C176	C	0.372425	0.180518	0.874769
	C177	C	0.594888	0.184156	0.118153
	C178	C	0.374692	0.822878	0.118438
	C179	C	0.595444	0.822094	0.874439
	C180	C	0.375218	0.879557	0.177293
	C181	C	0.593710	0.128817	0.178296
	C182	C	0.372778	0.122989	0.816547
	C183	C	0.595065	0.879217	0.815949
	C184	C	0.858033	0.186197	0.386727
	C185	C	0.109088	0.186238	0.603985
	C186	C	0.106836	0.821644	0.385836
	C187	C	0.861546	0.821973	0.605432
	C188	C	0.164384	0.390971	0.872684
	C189	C	0.165051	0.612175	0.118803
	C190	C	0.802837	0.391488	0.119290
	C191	C	0.803523	0.611475	0.873296
	C192	C	0.388175	0.094157	0.593691
	C193	C	0.581591	0.909732	0.593953
	C194	C	0.579183	0.093976	0.400085
	C195	C	0.390158	0.913006	0.400766
	C196	C	0.580515	0.405612	0.087593
	C197	C	0.581058	0.598712	0.906737
	C198	C	0.387589	0.598149	0.087190
	C199	C	0.386531	0.404389	0.906027
	C200	C	0.075402	0.599742	0.397141
	C201	C	0.892265	0.598603	0.592955
	C202	C	0.074694	0.409666	0.589582
	C203	C	0.893817	0.408111	0.399434
	C204	C	0.888188	0.593166	0.092060
	C205	C	0.078312	0.411223	0.091681
	C206	C	0.080879	0.593150	0.899185
	C207	C	0.889305	0.410316	0.900019
	C208	C	0.082529	0.904148	0.586572
	C209	C	0.079830	0.096579	0.406626
	C210	C	0.888640	0.097710	0.584263
	C211	C	0.885970	0.904969	0.404604
	C212	C	0.575432	0.099585	0.897896
	C213	C	0.394145	0.097011	0.091714
	C214	C	0.576142	0.907934	0.092559
	C215	C	0.392901	0.904485	0.897838
	Zn216	Zn	0.484589	0.001964	0.745986
	Zn217	Zn	0.484683	0.003308	0.245939
	Zn218	Zn	0.734781	0.501723	-0.003447
	Zn219	Zn	0.233099	0.501512	-0.003557
	Zn220	Zn	-0.016258	0.752056	0.495532
	Zn221	Zn	-0.015552	0.253294	0.494714
	Zn222	Zn	-0.015685	0.502323	0.745757
	Zn223	Zn	-0.016083	0.502441	0.244832
	Zn224	Zn	0.484845	0.752854	-0.002897
	Zn225	Zn	0.483582	0.251443	-0.003834
	Zn226	Zn	0.733427	0.002489	0.495809
	Zn227	Zn	0.235500	0.002316	0.495808
	N228	N	0.398550	0.966528	0.675201
	N229	N	0.570661	0.037436	0.675637
	N230	N	0.572874	0.968587	0.314410
	N231	N	0.397139	0.038352	0.315354
	N232	N	0.664463	0.414403	0.962079
	N233	N	0.665584	0.589284	0.031632
	N234	N	0.304492	0.587895	0.961268
	N235	N	0.301260	0.412577	0.030621
	N236	N	0.947838	0.681294	0.409558
	N237	N	0.019690	0.680062	0.580323
	N238	N	0.949585	0.323622	0.581173
	N239	N	0.019236	0.322195	0.407545
	N240	N	0.950754	0.414243	0.676774
	N241	N	0.017943	0.590853	0.677187
	N242	N	0.949033	0.590455	0.313992
	N243	N	0.018703	0.414753	0.313865
	N244	N	0.399030	0.681126	0.961395
	N245	N	0.572549	0.683548	0.031883
	N246	N	0.568153	0.323901	0.960559
	N247	N	0.395555	0.320029	0.031425
	N248	N	0.662736	0.967088	0.409992
	N249	N	0.662554	0.038064	0.581558
	N250	N	0.305229	0.966893	0.582300
	N251	N	0.304859	0.038528	0.409327
	N252	N	0.895529	0.467566	0.177238
	N253	N	0.070684	0.537671	0.175574
	N254	N	0.072090	0.467192	0.814639
	N255	N	0.897253	0.536447	0.815772
	N256	N	0.166082	0.914229	0.461175
	N257	N	0.164926	0.089527	0.531233
	N258	N	0.802910	0.089771	0.460093
	N259	N	0.803160	0.915173	0.530721
	N260	N	0.447575	0.180848	0.910072
	N261	N	0.520665	0.181130	0.080967
	N262	N	0.449299	0.824498	0.082101
	N263	N	0.520378	0.822615	0.910064
	N264	N	0.450443	0.915486	0.177072
	N265	N	0.518839	0.092252	0.177932
	N266	N	0.448256	0.088110	0.816246
	N267	N	0.519841	0.914556	0.815595
	N268	N	0.896106	0.183986	0.460136
	N269	N	0.071907	0.183672	0.530172
	N270	N	0.070841	0.822069	0.460164
	N271	N	0.897259	0.822344	0.530796
	N272	N	0.163052	0.465686	0.909642
	N273	N	0.163316	0.537149	0.082464
	N274	N	0.804960	0.465938	0.082227
	N275	N	0.805269	0.536721	0.909740
	O276	O	1.040602	0.856543	0.039762
	H277	H	1.038391	0.856319	0.042211
	H278	H	1.050578	0.858152	0.042482
	O279	O	0.082810	-0.079548	1.013520
	H280	H	0.095620	-0.090864	0.996346
	H281	H	0.072522	-0.063062	1.010119
	O282	O	1.197467	0.968077	0.780014
	H283	H	1.202813	0.979664	0.755114
	H284	H	1.183330	0.982245	0.778216
	O285	O	0.685062	0.435435	0.553996
	H286	H	0.679360	0.462486	0.539215
	H287	H	0.696065	0.456496	0.570628
	O288	O	1.490050	-0.609169	1.459386
	H289	H	1.477703	-0.599574	1.453833
	H290	H	1.506902	-0.612745	1.443813
	O291	O	0.493410	0.546774	0.271815
	H292	H	0.466642	0.538164	0.264741
	H293	H	0.479986	0.551846	0.266453
	O294	O	-0.070589	-0.214832	0.215271
	H295	H	-0.075927	-0.237253	0.230235
	H296	H	-0.086440	-0.223100	0.204542
	O297	O	1.187989	0.120404	-0.125148
	H298	H	1.174119	0.096578	-0.122830
	H299	H	1.186393	0.099387	-0.116165
	O300	O	0.009093	0.216597	0.216076
	H301	H	0.006641	0.222076	0.236072
	H302	H	0.034320	0.223278	0.223430
	O303	O	-0.110002	-0.110058	-0.000420
	H304	H	-0.107002	-0.110300	0.000977
	H305	H	-0.119310	-0.109897	-0.002253
	O306	O	0.787769	-0.189111	0.007408
	H307	H	0.794847	-0.192636	0.005899
	H308	H	0.780216	-0.188532	0.015119
	O309	O	0.703547	0.699537	0.525263
	H310	H	0.686510	0.689488	0.509558
	H311	H	0.727352	0.732187	0.524710
	O312	O	0.272749	0.465098	0.448709
	H313	H	0.261277	0.479423	0.464671
	H314	H	0.279341	0.438050	0.445295
	O315	O	0.769643	0.971502	0.212710
	H316	H	0.756053	0.982261	0.211862
	H317	H	0.759150	0.968840	0.219810
	O318	O	0.938938	1.090618	0.196484
	H319	H	0.928614	1.093390	0.191090
	H320	H	0.927204	1.098464	0.204733
	O321	O	0.041237	1.125201	0.958164
	H322	H	0.042223	1.106851	0.970158
	H323	H	0.033417	1.122090	0.950815
	O324	O	1.070701	-0.046148	1.152100
	H325	H	1.053785	-0.055295	1.160277
	H326	H	1.049123	-0.042915	1.162197
	O327	O	1.701577	0.717969	0.715028
	H328	H	1.717592	0.741477	0.737120
	H329	H	1.703284	0.727460	0.681788
	O330	O	0.496125	0.318968	0.281379
	H331	H	0.482259	0.312441	0.279347
	H332	H	0.470382	0.309786	0.283987
	O333	O	0.332106	0.357813	0.481070
	H334	H	0.326018	0.365495	0.485499
	H335	H	0.326955	0.367507	0.486690
	O336	O	0.423550	0.728482	0.270705
	H337	H	0.419124	0.757773	0.247649
	H338	H	0.411075	0.718809	0.268385
	O339	O	0.533548	0.488102	0.667994
	H340	H	0.530519	0.491416	0.656451
	H341	H	0.538379	0.506070	0.674492
	O342	O	-0.019673	0.823475	-0.018467
	H343	H	-0.010593	0.818757	-0.007644
	H344	H	-0.005710	0.811062	-0.029291
	O345	O	0.172247	0.189375	0.191883
	H346	H	0.159391	0.197609	0.165124
	H347	H	0.183663	0.159634	0.184754
	O348	O	0.699480	0.525601	0.712010
	H349	H	0.723968	0.542090	0.730937
	H350	H	0.693439	0.557980	0.710289
	O351	O	0.195473	0.194884	1.028522
	H352	H	0.188916	0.198991	1.027824
	H353	H	0.216391	0.208632	1.016059
	O354	O	0.921231	0.153608	1.049737
	H355	H	0.931246	0.154676	1.046550
	H356	H	0.922891	0.155356	1.049590
	O357	O	0.456001	0.514754	0.687040
	H358	H	0.443378	0.508592	0.679804
	H359	H	0.476638	0.509648	0.684188
	O360	O	0.312899	0.656422	0.295646
	H361	H	0.327090	0.672148	0.298040
	H362	H	0.299075	0.652799	0.296143
	O363	O	0.520432	0.539289	0.324497
	H364	H	0.497835	0.529112	0.314532
	H365	H	0.531340	0.521708	0.316282
	O366	O	0.922111	-0.034688	0.863404
	H367	H	0.925151	-0.025028	0.879389
	H368	H	0.929852	-0.047899	0.861614
	O369	O	-0.038111	0.208228	0.786512
	H370	H	-0.063405	0.209014	0.784738
	H371	H	-0.053300	0.217742	0.776407
	O372	O	0.281090	0.707786	0.477700
	H373	H	0.300325	0.697115	0.470628
	H374	H	0.263029	0.717621	0.480740
	O375	O	1.269154	0.527002	0.274744
	H376	H	1.252460	0.528373	0.270195
	H377	H	1.254427	0.551084	0.274113
	O378	O	-0.232171	0.036707	0.776470
	H379	H	-0.235283	0.059566	0.767660
	H380	H	-0.249772	0.050147	0.765450
	O381	O	0.049303	1.043072	-0.225098
	H382	H	0.034649	1.041577	-0.223199
	H383	H	0.021761	1.038826	-0.226281
	O384	O	0.640449	0.315971	0.305038
	H385	H	0.593634	0.311068	0.292964
	H386	H	0.646182	0.306393	0.333150
	O387	O	0.296893	0.691235	1.686383
	H388	H	0.317991	0.682412	1.657741
	H389	H	0.314103	0.660357	1.681956
	O390	O	-0.184803	1.153348	1.034366
	H391	H	-0.174498	1.144658	1.025823
	H392	H	-0.193228	1.165919	1.041798
	O393	O	0.979999	-0.148759	-0.225468
	H394	H	0.997986	-0.165299	-0.235525
	H395	H	0.983286	-0.147368	-0.215688
	O396	O	0.454352	0.296550	0.699726
	H397	H	0.466629	0.283246	0.683487
	H398	H	0.475465	0.316088	0.705554
	O399	O	0.534820	0.381201	0.473020
	H400	H	0.542440	0.391008	0.461257
	H401	H	0.546091	0.378342	0.471395
	O402	O	1.146979	-0.161765	1.242009
	H403	H	1.131762	-0.139621	1.247443
	H404	H	1.142514	-0.162856	1.239448
	O405	O	0.446611	0.410573	0.473786
	H406	H	0.443541	0.417270	0.474639
	H407	H	0.437121	0.411093	0.479509
	O408	O	0.830755	1.161359	0.999386
	H409	H	0.835221	1.173736	1.013970
	H410	H	0.836883	1.162440	1.001990
	O411	O	1.573113	1.465144	0.444899
	H412	H	1.569946	1.471622	0.440012
	H413	H	1.572421	1.467181	0.439757
	O414	O	-0.204509	-0.127512	-0.144683
	H415	H	-0.188602	-0.113532	-0.142146
	H416	H	-0.191826	-0.126609	-0.129683
	O417	O	0.286434	0.303895	0.696009
	H418	H	0.276300	0.274371	0.724300
	H419	H	0.325756	0.303819	0.691781
	O420	O	1.188229	-0.204770	0.789774
	H421	H	1.206263	-0.192591	0.770026
	H422	H	1.209738	-0.198062	0.774357
	O423	O	0.780198	1.207500	-0.213896
	H424	H	0.775403	1.212829	-0.179281
	H425	H	0.750193	1.233578	-0.241059
	O426	O	0.159850	0.905485	0.064715
	H427	H	0.144547	0.918511	0.056070
	H428	H	0.163280	0.905925	0.061553
	O429	O	0.652092	0.313800	0.503979
	H430	H	0.670331	0.328348	0.510299
	H431	H	0.667503	0.319633	0.500361
	O432	O	0.925143	-0.009356	0.964479
	H433	H	0.929610	-0.002532	0.954586
	H434	H	0.924494	0.000322	0.962118
	O435	O	0.684192	0.589683	0.385863
	H436	H	0.682962	0.570667	0.369372
	H437	H	0.671963	0.604067	0.385408
	O438	O	0.547864	0.718941	0.431929
	H439	H	0.544419	0.721522	0.444196
	H440	H	0.532576	0.715282	0.401388
	O441	O	0.784574	0.803126	0.171814
	H442	H	0.779936	0.824191	0.182909
	H443	H	0.780289	0.801615	0.149206
	O444	O	0.693947	0.453975	0.287957
	H445	H	0.695911	0.450980	0.263018
	H446	H	0.689985	0.426944	0.289906
	O447	O	0.534644	0.576109	0.561556
	H448	H	0.520914	0.573267	0.552508
	H449	H	0.537312	0.581039	0.560232
	O450	O	1.178962	-0.218523	-0.062109
	H451	H	1.195243	-0.232771	-0.084056
	H452	H	1.186565	-0.228159	-0.079343
	O453	O	0.674724	0.314332	0.687830
	H454	H	0.654410	0.334001	0.669155
	H455	H	0.661534	0.335430	0.668048
	O456	O	0.186564	1.022057	1.204631
	H457	H	0.206724	1.025121	1.211207
	H458	H	0.163463	1.009582	1.206464
	O459	O	0.300267	0.558626	0.597958
	H460	H	0.288487	0.542846	0.602466
	H461	H	0.304160	0.555115	0.604746
	O462	O	0.300124	0.293839	0.442207
	H463	H	0.273055	0.272126	0.445737
	H464	H	0.300136	0.299112	0.478248
	O465	O	0.258921	0.472348	0.717519
	H466	H	0.250253	0.455433	0.730554
	H467	H	0.246285	0.440264	0.731890
	O468	O	-0.174096	1.024327	-0.019683
	H469	H	-0.177911	1.014413	-0.032595
	H470	H	-0.171983	1.013773	-0.017010
	O471	O	0.514593	0.715099	0.705168
	H472	H	0.525088	0.722831	0.711160
	H473	H	0.511544	0.704957	0.722702
	O474	O	1.057086	1.225752	-0.039588
	H475	H	1.069829	1.228528	-0.041246
	H476	H	1.039015	1.232282	-0.049773
	O477	O	0.440727	0.715326	0.550136
	H478	H	0.442890	0.713669	0.548899
	H479	H	0.454712	0.718793	0.557230
