data_Molecule from HDF5

_cell_length_a		16.371797
_cell_length_b		16.200939
_cell_length_c		16.171017
_cell_angle_alpha	90.122989
_cell_angle_beta	89.844635
_cell_angle_gamma	90.057091
_symmetry_space_group_name_H-M	'P 1'
_symmetry_Int_Tables_number		1

loop_
	_symmetry_equiv_pos_as_xyz
	x,y,z

loop_
	_atom_site_label
	_atom_site_type_symbol
	_atom_site_fract_x
	_atom_site_fract_y
	_atom_site_fract_z
	H0	H	0.389316	0.832035	0.713168
	H1	H	0.583694	0.161904	0.711635
	H2	H	0.585582	0.831774	0.286357
	H3	H	0.390909	0.160905	0.283907
	H4	H	0.706042	0.395602	0.834452
	H5	H	0.704476	0.596810	0.163185
	H6	H	0.275358	0.596841	0.834903
	H7	H	0.272849	0.393762	0.161363
	H8	H	0.824953	0.710413	0.401669
	H9	H	0.151544	0.714775	0.597559
	H10	H	0.825376	0.282354	0.598245
	H11	H	0.151138	0.281543	0.399453
	H12	H	0.826232	0.399742	0.714644
	H13	H	0.153038	0.597482	0.713476
	H14	H	0.825522	0.594539	0.284924
	H15	H	0.152621	0.398642	0.284137
	H16	H	0.392717	0.709298	0.833629
	H17	H	0.587987	0.710370	0.163433
	H18	H	0.588759	0.283087	0.833891
	H19	H	0.394741	0.286265	0.164642
	H20	H	0.703920	0.833540	0.397532
	H21	H	0.703271	0.160640	0.599827
	H22	H	0.270732	0.833415	0.600103
	H23	H	0.274644	0.161410	0.399580
	H24	H	0.893054	0.332067	0.211491
	H25	H	0.086016	0.662346	0.210721
	H26	H	0.087831	0.333442	0.782537
	H27	H	0.892952	0.662904	0.788495
	H28	H	0.203626	0.897013	0.334580
	H29	H	0.203256	0.099536	0.662396
	H30	H	0.772774	0.096473	0.334475
	H31	H	0.772586	0.897967	0.662713
	H32	H	0.327689	0.212320	0.901432
	H33	H	0.653227	0.211360	0.097340
	H34	H	0.328202	0.778468	0.099926
	H35	H	0.652683	0.782091	0.899080
	H36	H	0.325842	0.897615	0.212637
	H37	H	0.652639	0.095131	0.214199
	H38	H	0.325544	0.095018	0.786602
	H39	H	0.651622	0.897716	0.782234
	H40	H	0.890512	0.210243	0.333236
	H41	H	0.083889	0.210414	0.663725
	H42	H	0.085296	0.785973	0.333171
	H43	H	0.890843	0.786817	0.664056
	H44	H	0.206524	0.333117	0.894728
	H45	H	0.207164	0.659790	0.100008
	H46	H	0.774214	0.332545	0.099075
	H47	H	0.774144	0.660580	0.898763
	H48	H	0.387646	0.117436	0.597502
	H49	H	0.580548	0.879636	0.589967
	H50	H	0.583670	0.113492	0.412144
	H51	H	0.395323	0.877141	0.396759
	H52	H	0.581251	0.412342	0.113804
	H53	H	0.580770	0.593210	0.880788
	H54	H	0.407851	0.585638	0.111773
	H55	H	0.388309	0.399881	0.877000
	H56	H	0.104203	0.591255	0.407084
	H57	H	0.876176	0.591065	0.587017
	H58	H	0.104886	0.403185	0.591579
	H59	H	0.872438	0.407290	0.400199
	H60	H	0.104090	0.403797	0.587966
	H61	H	0.872685	0.586590	0.598836
	H62	H	0.105216	0.591182	0.402195
	H63	H	0.871267	0.398676	0.405867
	H64	H	0.395147	0.596660	0.119575
	H65	H	0.590398	0.587360	0.878953
	H66	H	0.578463	0.397937	0.117174
	H67	H	0.398265	0.413806	0.883680
	H68	H	0.584265	0.116602	0.402275
	H69	H	0.581604	0.878644	0.589638
	H70	H	0.402446	0.112690	0.595612
	H71	H	0.402608	0.884078	0.411003
	H72	H	0.895723	0.613467	0.088619
	H73	H	0.086059	0.379355	0.088255
	H74	H	0.089889	0.613748	0.912431
	H75	H	0.889063	0.377865	0.907720
	H76	H	0.080440	0.903663	0.616324
	H77	H	0.085654	0.085458	0.381535
	H78	H	0.888227	0.090029	0.617872
	H79	H	0.900230	0.895373	0.379137
	H80	H	0.604654	0.088882	0.907799
	H81	H	0.372076	0.091274	0.098282
	H82	H	0.602690	0.913911	0.094438
	H83	H	0.373792	0.897621	0.911993
	H84	H	0.610617	0.897078	0.100492
	H85	H	0.373440	0.095941	0.088743
	H86	H	0.605707	0.087401	0.901279
	H87	H	0.376311	0.908958	0.908792
	H88	H	0.896291	0.084564	0.613892
	H89	H	0.077485	0.089544	0.382839
	H90	H	0.082728	0.908347	0.615836
	H91	H	0.884328	0.905073	0.377560
	H92	H	0.084445	0.616253	0.900976
	H93	H	0.082890	0.378894	0.094022
	H94	H	0.892116	0.615769	0.093068
	H95	H	0.900521	0.378885	0.898358
	H96	H	0.392521	0.111295	0.583546
	H97	H	0.580574	0.879449	0.591159
	H98	H	0.575195	0.112604	0.406303
	H99	H	0.385984	0.878737	0.411631
	H100	H	0.591890	0.403314	0.118445
	H101	H	0.581007	0.582684	0.884246
	H102	H	0.390841	0.579033	0.115327
	H103	H	0.405437	0.397901	0.881505
	H104	H	0.105922	0.595550	0.404581
	H105	H	0.871131	0.599172	0.595818
	H106	H	0.103287	0.406917	0.590826
	H107	H	0.875451	0.407275	0.410266
	H108	H	0.897797	0.614203	0.094615
	H109	H	0.080291	0.380406	0.088709
	H110	H	0.077730	0.610274	0.910211
	H111	H	0.901625	0.382567	0.912508
	H112	H	0.077768	0.908530	0.615143
	H113	H	0.083921	0.094325	0.378254
	H114	H	0.896714	0.094884	0.616654
	H115	H	0.899396	0.913844	0.385097
	H116	H	0.607395	0.093502	0.903860
	H117	H	0.377167	0.085203	0.089267
	H118	H	0.604084	0.899100	0.082560
	H119	H	0.371428	0.900850	0.900781
	C120	C	0.365169	0.005490	0.621661
	C121	C	0.608763	0.988323	0.619578
	C122	C	0.609513	0.005339	0.377856
	C123	C	0.366763	0.988653	0.377447
	C124	C	0.612400	0.375576	0.007262
	C125	C	0.611823	0.617219	0.990357
	C126	C	0.369674	0.616560	0.007001
	C127	C	0.369072	0.375138	0.989941
	C128	C	-0.003233	0.619806	0.377126
	C129	C	0.981025	0.621065	0.621931
	C130	C	-0.002968	0.375909	0.620036
	C131	C	0.980599	0.375480	0.376651
	C132	C	0.867472	0.505766	0.120694
	C133	C	0.111601	0.488152	0.119865
	C134	C	0.112529	0.505380	0.876800
	C135	C	0.868786	0.488893	0.878420
	C136	C	0.109367	0.877508	0.506891
	C137	C	0.110018	0.118880	0.489970
	C138	C	0.865902	0.118529	0.507502
	C139	C	0.865926	0.876104	0.489621
	C140	C	0.497999	0.118255	0.876986
	C141	C	0.481613	0.119025	0.121068
	C142	C	0.498080	0.874362	0.121081
	C143	C	0.481245	0.874119	0.877101
	C144	C	0.368391	0.881582	0.675960
	C145	C	0.605028	0.112577	0.674123
	C146	C	0.606855	0.881298	0.323114
	C147	C	0.370288	0.112232	0.322434
	C148	C	0.667880	0.376258	0.883626
	C149	C	0.666605	0.616468	0.114125
	C150	C	0.313565	0.616017	0.883650
	C151	C	0.312793	0.376010	0.113201
	C152	C	0.874055	0.673488	0.380512
	C153	C	0.103279	0.676609	0.618658
	C154	C	0.874184	0.320593	0.618650
	C155	C	0.102927	0.319597	0.378793
	C156	C	0.874623	0.379093	0.676229
	C157	C	0.103866	0.618318	0.676145
	C158	C	0.874391	0.615707	0.322536
	C159	C	0.103753	0.378084	0.321839
	C160	C	0.372128	0.672006	0.883104
	C161	C	0.608548	0.672756	0.114253
	C162	C	0.609189	0.320551	0.883237
	C163	C	0.372768	0.321741	0.114565
	C164	C	0.665651	0.882235	0.378510
	C165	C	0.664484	0.111925	0.618769
	C166	C	0.309437	0.882016	0.619629
	C167	C	0.312357	0.112231	0.379277
	C168	C	0.871462	0.381162	0.174345
	C169	C	0.107723	0.612601	0.174131
	C170	C	0.108991	0.382236	0.820453
	C171	C	0.872113	0.613364	0.824991
	C172	C	0.165234	0.877756	0.383579
	C173	C	0.165184	0.118568	0.613448
	C174	C	0.810609	0.116893	0.383580
	C175	C	0.810643	0.878232	0.613528
	C176	C	0.375885	0.173965	0.880514
	C177	C	0.604521	0.173815	0.118367
	C178	C	0.376248	0.817586	0.119317
	C179	C	0.603825	0.819370	0.878673
	C180	C	0.375259	0.876453	0.175937
	C181	C	0.604098	0.115994	0.176511
	C182	C	0.374858	0.115538	0.823603
	C183	C	0.603259	0.876953	0.820488
	C184	C	0.869278	0.173239	0.382985
	C185	C	0.105784	0.173626	0.614069
	C186	C	0.106242	0.822728	0.382883
	C187	C	0.869644	0.823132	0.614403
	C188	C	0.167682	0.382043	0.876631
	C189	C	0.167702	0.611501	0.118649
	C190	C	0.812363	0.381618	0.118783
	C191	C	0.813223	0.612123	0.880154
	C192	C	0.387611	0.091667	0.598904
	C193	C	0.587340	0.901642	0.596917
	C194	C	0.587481	0.091879	0.400259
	C195	C	0.388197	0.902191	0.399858
	C196	C	0.590441	0.397938	0.094145
	C197	C	0.590453	0.594553	0.903754
	C198	C	0.391567	0.593804	0.093156
	C199	C	0.390859	0.397209	0.903230
	C200	C	0.082847	0.598880	0.398298
	C201	C	0.895387	0.598733	0.600434
	C202	C	0.081989	0.398146	0.597004
	C203	C	0.895234	0.397851	0.398781
	C204	C	0.888932	0.592046	0.098654
	C205	C	0.089671	0.401888	0.097040
	C206	C	0.090660	0.591386	0.900757
	C207	C	0.890652	0.402195	0.900004
	C208	C	0.086938	0.900408	0.593473
	C209	C	0.088617	0.096362	0.403237
	C210	C	0.887474	0.096323	0.593821
	C211	C	0.888012	0.898056	0.403052
	C212	C	0.583781	0.096272	0.898001
	C213	C	0.396403	0.097213	0.098632
	C214	C	0.583648	0.896755	0.099068
	C215	C	0.395876	0.896192	0.900349
	Zn216	Zn	0.488428	-0.003710	0.748409
	Zn217	Zn	0.489010	-0.003763	0.249866
	Zn218	Zn	0.740310	0.496889	-0.001207
	Zn219	Zn	0.240786	0.496248	-0.001601
	Zn220	Zn	-0.011751	0.749657	0.499167
	Zn221	Zn	-0.011763	0.246463	0.498403
	Zn222	Zn	-0.010249	0.498162	0.750003
	Zn223	Zn	-0.010600	0.496911	0.248239
	Zn224	Zn	0.490434	0.745098	-0.001446
	Zn225	Zn	0.490711	0.247827	-0.001144
	Zn226	Zn	0.737463	-0.002858	0.498587
	Zn227	Zn	0.238012	-0.002605	0.498694
	N228	N	0.402341	0.959238	0.677150
	N229	N	0.571247	0.034774	0.674697
	N230	N	0.572749	0.958940	0.322613
	N231	N	0.403089	0.034163	0.320912
	N232	N	0.669780	0.409773	0.961894
	N233	N	0.668587	0.582547	0.036030
	N234	N	0.311831	0.582288	0.961598
	N235	N	0.310219	0.408243	0.034666
	N236	N	0.951339	0.676080	0.413837
	N237	N	0.025760	0.678483	0.585762
	N238	N	0.951017	0.318541	0.584286
	N239	N	0.025605	0.318141	0.412294
	N240	N	0.951724	0.412814	0.677152
	N241	N	0.026766	0.584555	0.678238
	N242	N	0.951872	0.583098	0.320095
	N243	N	0.026643	0.412046	0.320289
	N244	N	0.406193	0.672539	0.960919
	N245	N	0.575094	0.673349	0.036270
	N246	N	0.575296	0.320032	0.961220
	N247	N	0.407073	0.320909	0.036711
	N248	N	0.667538	0.960571	0.411610
	N249	N	0.666682	0.033698	0.585387
	N250	N	0.307347	0.960169	0.586586
	N251	N	0.310113	0.034223	0.412925
	N252	N	0.905130	0.459077	0.175749
	N253	N	0.073627	0.534895	0.174976
	N254	N	0.075388	0.459948	0.820511
	N255	N	0.906072	0.535610	0.823635
	N256	N	0.167189	0.911078	0.461735
	N257	N	0.167722	0.084980	0.535174
	N258	N	0.808547	0.083485	0.461646
	N259	N	0.808251	0.910608	0.534918
	N260	N	0.453387	0.175775	0.913117
	N261	N	0.527476	0.175847	0.084588
	N262	N	0.453630	0.816095	0.085898
	N263	N	0.526889	0.817372	0.912984
	N264	N	0.452035	0.911058	0.176981
	N265	N	0.526705	0.082896	0.178490
	N266	N	0.451867	0.081714	0.821399
	N267	N	0.525883	0.910178	0.819469
	N268	N	0.902954	0.174474	0.461056
	N269	N	0.072249	0.173849	0.536244
	N270	N	0.072128	0.822416	0.460889
	N271	N	0.903290	0.821669	0.536345
	N272	N	0.169844	0.459844	0.911196
	N273	N	0.170438	0.533085	0.085896
	N274	N	0.809670	0.460046	0.086354
	N275	N	0.811034	0.533694	0.912503
	O276	O	0.382520	0.587147	0.497107
	H277	H	0.392191	0.580059	0.501192
	H278	H	0.372375	0.605831	0.496738
	O279	O	0.457918	0.403034	0.517197
	H280	H	0.455676	0.401369	0.513017
	H281	H	0.450199	0.410327	0.503705
	O282	O	0.511833	0.512465	0.554615
	H283	H	0.509030	0.512432	0.541942
	H284	H	0.516628	0.518304	0.558149
	O285	O	0.522811	1.417624	0.461738
	H286	H	0.520491	1.408245	0.459887
	H287	H	0.521310	1.410899	0.462484
	O288	O	0.398317	0.540365	0.438350
	H289	H	0.396062	0.544812	0.439306
	H290	H	0.392975	0.535969	0.421592
	O291	O	0.034721	-0.041443	1.011011
	H292	H	0.033001	-0.045216	1.013605
	H293	H	0.037788	-0.050146	1.014113
	O294	O	1.037996	0.004140	0.965469
	H295	H	1.033902	0.017616	0.966896
	H296	H	1.050983	-0.000236	0.960503
	O297	O	0.477626	0.502669	0.548656
	H298	H	0.482454	0.499137	0.542568
	H299	H	0.466355	0.504527	0.550120
	O300	O	0.464316	0.547748	0.453450
	H301	H	0.468882	0.554978	0.460292
	H302	H	0.466624	0.554891	0.455894
	O303	O	0.185425	0.825199	0.142141
	H304	H	0.189283	0.829209	0.139035
	H305	H	0.185698	0.840509	0.142270
	O306	O	1.083710	0.046504	0.998761
	H307	H	1.077536	0.053287	0.993964
	H308	H	1.080531	0.042135	1.004071
	O309	O	0.465242	0.586360	0.534272
	H310	H	0.464032	0.586747	0.541460
	H311	H	0.477508	0.588127	0.529591
	O312	O	0.458458	0.496708	0.494945
	H313	H	0.455759	0.491827	0.496880
	H314	H	0.443640	0.503409	0.498931
	O315	O	1.116939	-0.026180	0.953144
	H316	H	1.112646	-0.020451	0.959469
	H317	H	1.114951	-0.030230	0.941761
	O318	O	0.035662	-0.048640	0.011683
	H319	H	0.040001	-0.052962	0.008235
	H320	H	0.044405	-0.042910	0.016002
	O321	O	0.984062	1.010831	0.963190
	H322	H	0.990355	1.012402	0.964052
	H323	H	0.976678	1.011543	0.968290
	O324	O	1.064737	0.011989	-0.049712
	H325	H	1.066039	0.007772	-0.050043
	H326	H	1.056221	0.012550	-0.047522
	O327	O	1.034258	0.953523	-0.027072
	H328	H	1.036384	0.949830	-0.032425
	H329	H	1.042271	0.945930	-0.030123
	O330	O	0.479579	0.489050	0.469306
	H331	H	0.491287	0.482721	0.473179
	H332	H	0.474602	0.476968	0.481374
	O333	O	0.507603	0.499884	0.493099
	H334	H	0.511739	0.487349	0.486452
	H335	H	0.515423	0.513246	0.489809
