data_Molecule from HDF5

_cell_length_a		16.409001
_cell_length_b		16.193279
_cell_length_c		16.547079
_cell_angle_alpha	89.900692
_cell_angle_beta	89.897351
_cell_angle_gamma	89.915089
_symmetry_space_group_name_H-M	'P 1'
_symmetry_Int_Tables_number		1

loop_
	_symmetry_equiv_pos_as_xyz
	x,y,z

loop_
	_atom_site_label
	_atom_site_type_symbol
	_atom_site_fract_x
	_atom_site_fract_y
	_atom_site_fract_z
	H0	H	0.386225	0.828151	0.720933
	H1	H	0.597662	0.148706	0.718586
	H2	H	0.602329	0.830819	0.276570
	H3	H	0.386388	0.149691	0.277739
	H4	H	0.713512	0.386305	0.843794
	H5	H	0.713505	0.597628	0.157782
	H6	H	0.268698	0.599838	0.842982
	H7	H	0.270350	0.386474	0.158516
	H8	H	0.833259	0.709150	0.399399
	H9	H	0.154205	0.707797	0.601253
	H10	H	0.833065	0.274630	0.599453
	H11	H	0.154543	0.274078	0.397857
	H12	H	0.834197	0.388119	0.719691
	H13	H	0.149708	0.601661	0.724496
	H14	H	0.834743	0.598979	0.279184
	H15	H	0.149584	0.382197	0.275239
	H16	H	0.388761	0.712402	0.841645
	H17	H	0.593755	0.710059	0.159225
	H18	H	0.592363	0.274720	0.840769
	H19	H	0.388504	0.270312	0.159628
	H20	H	0.714662	0.828786	0.394998
	H21	H	0.711488	0.150244	0.601619
	H22	H	0.274071	0.827011	0.602957
	H23	H	0.272484	0.149410	0.393684
	H24	H	0.883870	0.331266	0.223354
	H25	H	0.096182	0.651483	0.221296
	H26	H	0.094528	0.332177	0.781713
	H27	H	0.885125	0.653573	0.780670
	H28	H	0.217450	0.882446	0.341017
	H29	H	0.214407	0.092228	0.656907
	H30	H	0.770543	0.098544	0.341614
	H31	H	0.772572	0.883515	0.656897
	H32	H	0.332095	0.206042	0.898763
	H33	H	0.651949	0.209163	0.100771
	H34	H	0.332799	0.771978	0.104528
	H35	H	0.654080	0.772804	0.901016
	H36	H	0.337510	0.880009	0.226228
	H37	H	0.650244	0.099510	0.221840
	H38	H	0.334533	0.092136	0.778375
	H39	H	0.651422	0.879432	0.777293
	H40	H	0.891260	0.211496	0.340158
	H41	H	0.094683	0.207224	0.658665
	H42	H	0.097898	0.769262	0.340511
	H43	H	0.893953	0.772485	0.658949
	H44	H	0.209177	0.331676	0.897350
	H45	H	0.213346	0.651358	0.108374
	H46	H	0.771996	0.329499	0.105427
	H47	H	0.772602	0.654091	0.900012
	H48	H	0.412421	0.101591	0.592201
	H49	H	0.585775	0.874070	0.581727
	H50	H	0.582888	0.103408	0.413999
	H51	H	0.413718	0.880139	0.416373
	H52	H	0.586780	0.399746	0.115681
	H53	H	0.587202	0.580223	0.885942
	H54	H	0.398847	0.583387	0.114187
	H55	H	0.395472	0.399204	0.885095
	H56	H	0.107487	0.578766	0.408059
	H57	H	0.873872	0.587554	0.598215
	H58	H	0.107500	0.402003	0.592087
	H59	H	0.875022	0.393423	0.407096
	H60	H	0.108132	0.402333	0.593485
	H61	H	0.880970	0.583230	0.581280
	H62	H	0.105777	0.576853	0.412533
	H63	H	0.883241	0.403393	0.421336
	H64	H	0.398978	0.574970	0.112378
	H65	H	0.581776	0.575513	0.889871
	H66	H	0.580069	0.404536	0.112591
	H67	H	0.401547	0.404534	0.889526
	H68	H	0.584454	0.106145	0.408736
	H69	H	0.588778	0.869817	0.593101
	H70	H	0.406136	0.100300	0.581065
	H71	H	0.399278	0.873772	0.414904
	H72	H	0.900058	0.606433	0.088356
	H73	H	0.077384	0.380003	0.082860
	H74	H	0.080210	0.610388	0.908858
	H75	H	0.899063	0.375620	0.910296
	H76	H	0.084827	0.902023	0.611146
	H77	H	0.077195	0.084786	0.386405
	H78	H	0.899855	0.081664	0.612792
	H79	H	0.906792	0.903460	0.388457
	H80	H	0.610359	0.083763	0.900829
	H81	H	0.377735	0.081334	0.090547
	H82	H	0.603482	0.902632	0.082246
	H83	H	0.378245	0.895849	0.911964
	H84	H	0.605587	0.909420	0.091240
	H85	H	0.380019	0.076231	0.086675
	H86	H	0.606876	0.083722	0.912301
	H87	H	0.381913	0.908064	0.911623
	H88	H	0.902203	0.076606	0.610537
	H89	H	0.092813	0.084930	0.382099
	H90	H	0.083520	0.900085	0.610858
	H91	H	0.906264	0.899043	0.385802
	H92	H	0.076316	0.607741	0.912264
	H93	H	0.084701	0.374584	0.089448
	H94	H	0.904443	0.606520	0.092860
	H95	H	0.904824	0.375650	0.906389
	H96	H	0.399384	0.105760	0.591558
	H97	H	0.576704	0.874377	0.590979
	H98	H	0.578437	0.104077	0.409143
	H99	H	0.409885	0.872350	0.403031
	H100	H	0.578795	0.396573	0.114807
	H101	H	0.579699	0.583159	0.887646
	H102	H	0.405838	0.580160	0.111300
	H103	H	0.403389	0.395974	0.887094
	H104	H	0.105985	0.573936	0.408730
	H105	H	0.881580	0.570520	0.594829
	H106	H	0.108952	0.400986	0.592466
	H107	H	0.880645	0.411790	0.403777
	H108	H	0.905996	0.603418	0.087624
	H109	H	0.074612	0.377126	0.093402
	H110	H	0.082213	0.608061	0.914049
	H111	H	0.905043	0.379384	0.912240
	H112	H	0.086163	0.900161	0.612284
	H113	H	0.086041	0.071339	0.388567
	H114	H	0.906081	0.081536	0.610908
	H115	H	0.902166	0.902657	0.385923
	H116	H	0.606397	0.073447	0.906016
	H117	H	0.378457	0.075233	0.093467
	H118	H	0.608121	0.898567	0.091035
	H119	H	0.377230	0.902656	0.901195
	C120	C	0.373518	-0.003645	0.619617
	C121	C	0.615166	0.979323	0.620209
	C122	C	0.615042	-0.001256	0.378063
	C123	C	0.373877	0.981086	0.378593
	C124	C	0.613328	0.369004	0.009655
	C125	C	0.613592	0.612156	0.992447
	C126	C	0.369423	0.613118	0.008608
	C127	C	0.368775	0.368355	0.991807
	C128	C	0.001425	0.610543	0.378917
	C129	C	0.984208	0.612992	0.622323
	C130	C	0.002195	0.370261	0.622450
	C131	C	0.984410	0.369859	0.378407
	C132	C	0.870737	0.499358	0.122056
	C133	C	0.111808	0.483046	0.121467
	C134	C	0.111629	0.502000	0.879997
	C135	C	0.870455	0.483782	0.879439
	C136	C	0.116780	0.867587	0.507288
	C137	C	0.116396	0.111395	0.490419
	C138	C	0.871494	0.112420	0.507038
	C139	C	0.873337	0.868817	0.491155
	C140	C	0.502147	0.110973	0.876226
	C141	C	0.483802	0.110992	0.121187
	C142	C	0.501429	0.869703	0.121746
	C143	C	0.484568	0.868638	0.877889
	C144	C	0.369789	0.875639	0.679872
	C145	C	0.616325	0.100474	0.679098
	C146	C	0.619288	0.878440	0.317203
	C147	C	0.369241	0.101423	0.317577
	C148	C	0.672989	0.367953	0.890667
	C149	C	0.672723	0.614805	0.110958
	C150	C	0.309308	0.616882	0.890142
	C151	C	0.309725	0.367106	0.110989
	C152	C	0.881608	0.670687	0.379382
	C153	C	0.105218	0.670121	0.621441
	C154	C	0.881428	0.312675	0.620491
	C155	C	0.105563	0.311725	0.377737
	C156	C	0.882043	0.368724	0.680413
	C157	C	0.102838	0.617557	0.683314
	C158	C	0.882014	0.615731	0.319409
	C159	C	0.103203	0.365577	0.316711
	C160	C	0.368976	0.673193	0.889544
	C161	C	0.613232	0.671093	0.111467
	C162	C	0.612650	0.312372	0.889258
	C163	C	0.368487	0.309162	0.111433
	C164	C	0.675459	0.877461	0.375963
	C165	C	0.672712	0.101515	0.620617
	C166	C	0.313685	0.875365	0.621302
	C167	C	0.312423	0.101486	0.375340
	C168	C	0.866590	0.379117	0.183090
	C169	C	0.114106	0.603477	0.181465
	C170	C	0.113482	0.380579	0.821153
	C171	C	0.867532	0.605314	0.820586
	C172	C	0.176873	0.864874	0.388280
	C173	C	0.174729	0.111610	0.609753
	C174	C	0.811466	0.115700	0.388712
	C175	C	0.813195	0.866181	0.609795
	C176	C	0.380747	0.167903	0.877861
	C177	C	0.603890	0.170606	0.120811
	C178	C	0.381715	0.810069	0.123692
	C179	C	0.605484	0.810414	0.879807
	C180	C	0.383847	0.864230	0.184322
	C181	C	0.602992	0.115868	0.180965
	C182	C	0.382007	0.111395	0.818103
	C183	C	0.604186	0.863549	0.818226
	C184	C	0.871621	0.171839	0.387736
	C185	C	0.115347	0.168822	0.610470
	C186	C	0.117279	0.808643	0.387861
	C187	C	0.873313	0.810431	0.610685
	C188	C	0.170449	0.380319	0.878725
	C189	C	0.172623	0.603317	0.125091
	C190	C	0.811154	0.378096	0.124006
	C191	C	0.811482	0.605568	0.879930
	C192	C	0.398750	0.080594	0.595230
	C193	C	0.590932	0.894680	0.595583
	C194	C	0.589264	0.082636	0.403153
	C195	C	0.400170	0.897304	0.404220
	C196	C	0.588896	0.393389	0.092714
	C197	C	0.589630	0.586899	0.909377
	C198	C	0.393982	0.586994	0.090956
	C199	C	0.392981	0.392945	0.908828
	C200	C	0.084626	0.584129	0.402783
	C201	C	0.900476	0.587655	0.598440
	C202	C	0.086283	0.394731	0.599428
	C203	C	0.901401	0.395403	0.403546
	C204	C	0.896095	0.583324	0.096794
	C205	C	0.086220	0.398833	0.095884
	C206	C	0.086708	0.586496	0.904276
	C207	C	0.895576	0.399145	0.902930
	C208	C	0.092059	0.893193	0.589741
	C209	C	0.092278	0.087240	0.407313
	C210	C	0.895569	0.087087	0.589774
	C211	C	0.897905	0.894311	0.408290
	C212	C	0.586199	0.087184	0.899593
	C213	C	0.400442	0.085132	0.097205
	C214	C	0.584075	0.896107	0.095726
	C215	C	0.401047	0.894699	0.901472
	Zn216	Zn	0.493803	-0.012525	0.748164
	Zn217	Zn	0.494159	-0.009506	0.250313
	Zn218	Zn	0.742973	0.490818	0.001203
	Zn219	Zn	0.239704	0.491991	0.000581
	Zn220	Zn	-0.005505	0.739204	0.499498
	Zn221	Zn	-0.005719	0.241580	0.499386
	Zn222	Zn	-0.008133	0.493284	0.750876
	Zn223	Zn	-0.008128	0.490373	0.250072
	Zn224	Zn	0.492082	0.741726	-0.000005
	Zn225	Zn	0.491874	0.238723	-0.000231
	Zn226	Zn	0.742845	-0.010644	0.498944
	Zn227	Zn	0.245944	-0.011265	0.498936
	N228	N	0.406672	0.951687	0.678774
	N229	N	0.581470	0.023362	0.679064
	N230	N	0.582634	0.954792	0.318273
	N231	N	0.406457	0.025389	0.319296
	N232	N	0.673846	0.401945	0.966656
	N233	N	0.673104	0.578958	0.035772
	N234	N	0.309152	0.580697	0.965292
	N235	N	0.309732	0.403087	0.035718
	N236	N	0.956838	0.667639	0.415597
	N237	N	0.030324	0.667674	0.584397
	N238	N	0.957401	0.313190	0.585372
	N239	N	0.030854	0.314169	0.415413
	N240	N	0.958294	0.403613	0.681921
	N241	N	0.026467	0.582614	0.683767
	N242	N	0.957610	0.579203	0.318936
	N243	N	0.026841	0.400760	0.316891
	N244	N	0.405489	0.671279	0.964197
	N245	N	0.576962	0.669363	0.036756
	N246	N	0.576251	0.312706	0.964279
	N247	N	0.404501	0.309644	0.036362
	N248	N	0.672867	0.953188	0.413228
	N249	N	0.672140	0.025036	0.584815
	N250	N	0.316142	0.951432	0.584167
	N251	N	0.315128	0.025597	0.412511
	N252	N	0.902874	0.455481	0.182121
	N253	N	0.077063	0.527471	0.179149
	N254	N	0.077841	0.457235	0.821733
	N255	N	0.903395	0.528457	0.820012
	N256	N	0.176750	0.900715	0.463499
	N257	N	0.175614	0.077040	0.533998
	N258	N	0.811179	0.079447	0.463850
	N259	N	0.812977	0.901583	0.534375
	N260	N	0.456447	0.167657	0.913437
	N261	N	0.528659	0.167717	0.084477
	N262	N	0.455963	0.813475	0.085226
	N263	N	0.530095	0.813416	0.916117
	N264	N	0.459348	0.900588	0.183136
	N265	N	0.527311	0.079626	0.181442
	N266	N	0.458634	0.077238	0.816784
	N267	N	0.527947	0.898704	0.816758
	N268	N	0.908319	0.170096	0.462302
	N269	N	0.080160	0.169181	0.535160
	N270	N	0.080831	0.809964	0.462759
	N271	N	0.910030	0.812067	0.535961
	N272	N	0.169514	0.456923	0.914576
	N273	N	0.171104	0.527306	0.088225
	N274	N	0.813591	0.453819	0.086736
	N275	N	0.813370	0.529023	0.915886
	O276	O	0.505722	0.517269	0.584284
	H277	H	0.497288	0.526023	0.591063
	H278	H	0.519092	0.515966	0.571324
	O279	O	0.459191	0.489270	0.431575
	H280	H	0.433763	0.499179	0.441600
	H281	H	0.463415	0.498046	0.438066
	O282	O	0.681650	0.492870	0.328154
	H283	H	0.691687	0.499342	0.329956
	H284	H	0.677791	0.473132	0.348929
	O285	O	0.810120	1.085440	-0.203689
	H286	H	0.817021	1.107677	-0.208693
	H287	H	0.810399	1.100930	-0.192764
	O288	O	0.599472	0.540726	0.308651
	H289	H	0.616152	0.533749	0.305456
	H290	H	0.584100	0.526259	0.317455
	O291	O	0.349092	0.272598	0.524256
	H292	H	0.334503	0.260377	0.548250
	H293	H	0.333784	0.266177	0.538500
	O294	O	0.859123	0.978795	1.020625
	H295	H	0.843147	0.959393	1.008918
	H296	H	0.848757	0.971370	1.033703
	O297	O	0.397895	0.658742	0.370079
	H298	H	0.404619	0.667919	0.372267
	H299	H	0.403983	0.641500	0.363083
	O300	O	0.518414	0.302644	0.287811
	H301	H	0.530844	0.293395	0.273792
	H302	H	0.517698	0.291946	0.284897
	O303	O	0.684713	0.675137	0.653087
	H304	H	0.705357	0.680466	0.636814
	H305	H	0.691888	0.649142	0.638816
	O306	O	-0.007985	-0.116467	0.808150
	H307	H	-0.015738	-0.118197	0.806236
	H308	H	-0.016102	-0.110395	0.807344
	O309	O	1.210010	-0.223420	-0.023666
	H310	H	1.209443	-0.224169	-0.062526
	H311	H	1.234993	-0.246248	-0.042618
	O312	O	0.515268	0.359523	0.532766
	H313	H	0.498141	0.370166	0.562352
	H314	H	0.494931	0.355248	0.511539
	O315	O	1.168592	1.173291	0.181126
	H316	H	1.152230	1.152250	0.194693
	H317	H	1.144082	1.151707	0.189098
	O318	O	-0.175641	-0.075782	-0.193702
	H319	H	-0.168625	-0.056746	-0.191022
	H320	H	-0.195804	-0.049391	-0.202245
	O321	O	0.408957	0.511056	0.342901
	H322	H	0.408206	0.491671	0.329777
	H323	H	0.425128	0.498839	0.339912
	O324	O	1.109501	-0.006162	1.173324
	H325	H	1.120593	-0.010739	1.176033
	H326	H	1.099517	-0.019209	1.164663
	O327	O	0.684279	0.506023	0.697062
	H328	H	0.682725	0.510491	0.676777
	H329	H	0.681636	0.512138	0.711782
	O330	O	0.202906	1.202089	1.024727
	H331	H	0.207376	1.204013	1.054513
	H332	H	0.220104	1.217739	1.050995
	O333	O	-0.217701	1.199934	-0.040494
	H334	H	-0.230806	1.202260	-0.033571
	H335	H	-0.225027	1.208357	-0.048205
	O336	O	0.877234	0.846312	0.102561
	H337	H	0.874297	0.840819	0.103059
	H338	H	0.867585	0.822544	0.106794
	O339	O	0.180629	1.129975	0.824721
	H340	H	0.184419	1.101397	0.837399
	H341	H	0.161054	1.138549	0.849544
	O342	O	0.293263	0.287960	0.671474
	H343	H	0.280928	0.331683	0.675996
	H344	H	0.264541	0.270357	0.686539
	O345	O	-0.027172	0.153840	1.136824
	H346	H	-0.033796	0.161969	1.142261
	H347	H	-0.050635	0.155084	1.130002
	O348	O	0.356601	0.679473	0.475576
	H349	H	0.354465	0.667067	0.467861
	H350	H	0.376275	0.681827	0.471595
	O351	O	0.844990	0.882143	0.002368
	H352	H	0.850066	0.878107	-0.017710
	H353	H	0.848052	0.873491	-0.010914
	O354	O	1.151907	0.923229	0.822152
	H355	H	1.133495	0.930943	0.814298
	H356	H	1.139650	0.933597	0.830985
	O357	O	-0.268573	0.239930	-0.246975
	H358	H	-0.252339	0.239401	-0.221795
	H359	H	-0.287807	0.261066	-0.270100
	O360	O	0.434162	0.484461	0.640594
	H361	H	0.447722	0.493947	0.647819
	H362	H	0.438255	0.464390	0.641830
	O363	O	0.877740	-0.125373	-0.072934
	H364	H	0.855436	-0.116655	-0.063237
	H365	H	0.899233	-0.119978	-0.069471
	O366	O	-0.133670	-0.097638	1.195438
	H367	H	-0.132325	-0.114033	1.202087
	H368	H	-0.126123	-0.125965	1.193334
	O369	O	1.078104	0.156680	0.946681
	H370	H	1.105066	0.158516	0.965647
	H371	H	1.067078	0.156040	0.972204
	O372	O	0.533806	0.515647	0.456368
	H373	H	0.517083	0.531393	0.464940
	H374	H	0.544179	0.523677	0.442393
	O375	O	-0.036710	-0.163167	1.175326
	H376	H	-0.018246	-0.159651	1.166890
	H377	H	-0.027996	-0.177162	1.173792
	O378	O	0.441746	0.292806	0.697263
	H379	H	0.433938	0.269988	0.719924
	H380	H	0.414947	0.298450	0.693962
	O381	O	0.187628	0.888364	-0.116499
	H382	H	0.169952	0.901988	-0.111270
	H383	H	0.183758	0.897689	-0.121563
	O384	O	0.600038	0.364856	0.517452
	H385	H	0.593680	0.370867	0.509649
	H386	H	0.582888	0.356598	0.521441
	O387	O	0.520837	0.550198	0.610409
	H388	H	0.512419	0.557463	0.611498
	H389	H	0.516959	0.551769	0.616442
	O390	O	1.017759	0.800250	0.046655
	H391	H	1.040348	0.788433	0.025591
	H392	H	1.023513	0.812268	0.042437
	O393	O	0.803143	0.024158	1.144004
	H394	H	0.781703	0.026257	1.173857
	H395	H	0.803436	0.005870	1.138651
	O396	O	0.462657	0.585891	0.472613
	H397	H	0.465706	0.597476	0.459379
	H398	H	0.444324	0.582070	0.482029
	O399	O	0.682960	0.307649	0.382854
	H400	H	0.650452	0.300761	0.392390
	H401	H	0.695421	0.294560	0.412928
	O402	O	0.972413	0.933113	0.199064
	H403	H	0.965896	0.922275	0.209671
	H404	H	0.964253	0.943106	0.196170
	O405	O	0.311183	0.603174	0.566400
	H406	H	0.301278	0.605011	0.548969
	H407	H	0.318916	0.610243	0.556233
	O408	O	0.379123	0.372377	0.334342
	H409	H	0.379717	0.366771	0.347166
	H410	H	0.383420	0.375829	0.340169
	O411	O	1.075930	0.970496	1.049998
	H412	H	1.082486	0.960981	1.033392
	H413	H	1.064439	0.978446	1.045897
	O414	O	0.566341	0.687342	0.445410
	H415	H	0.559374	0.688289	0.445639
	H416	H	0.559102	0.676203	0.450898
	O417	O	-0.021793	1.169799	0.792968
	H418	H	-0.014408	1.169900	0.804200
	H419	H	-0.018163	1.186436	0.795823
	O420	O	-0.050893	1.181630	1.117585
	H421	H	-0.070706	1.161316	1.117609
	H422	H	-0.066205	1.185611	1.117273
	O423	O	0.052459	0.971802	-0.195214
	H424	H	0.020728	0.967869	-0.200321
	H425	H	0.046869	0.995749	-0.190376
	O426	O	0.304491	0.559072	0.331623
	H427	H	0.310760	0.563020	0.320911
	H428	H	0.301103	0.544630	0.327530
	O429	O	0.681220	0.562220	0.531302
	H430	H	0.663671	0.547534	0.524655
	H431	H	0.677845	0.550680	0.542468
	O432	O	0.681477	0.305099	0.611909
	H433	H	0.658960	0.314495	0.608918
	H434	H	0.666842	0.314391	0.610314
	O435	O	0.276132	0.460067	0.715831
	H436	H	0.291953	0.477012	0.712723
	H437	H	0.255433	0.469748	0.741311
	O438	O	0.128424	1.050774	1.063089
	H439	H	0.132278	1.055298	1.079818
	H440	H	0.114404	1.037719	1.074546
	O441	O	0.481751	0.622425	0.629351
	H442	H	0.496632	0.616238	0.626584
	H443	H	0.486323	0.638172	0.638040
