data_Molecule from HDF5

_cell_length_a		16.260375
_cell_length_b		16.440050
_cell_length_c		16.262831
_cell_angle_alpha	89.974493
_cell_angle_beta	89.872252
_cell_angle_gamma	89.568877
_symmetry_space_group_name_H-M	'P 1'
_symmetry_Int_Tables_number		1

loop_
	_symmetry_equiv_pos_as_xyz
	x,y,z

loop_
	_atom_site_label
	_atom_site_type_symbol
	_atom_site_fract_x
	_atom_site_fract_y
	_atom_site_fract_z
	H0	H	0.400562	0.817014	0.722250
	H1	H	0.598870	0.140507	0.721103
	H2	H	0.606277	0.817586	0.286559
	H3	H	0.397717	0.137911	0.284740
	H4	H	0.718328	0.376340	0.842181
	H5	H	0.714563	0.574930	0.168094
	H6	H	0.285474	0.578788	0.843247
	H7	H	0.285537	0.376772	0.167280
	H8	H	0.839913	0.699745	0.401017
	H9	H	0.163785	0.696383	0.607282
	H10	H	0.841189	0.262571	0.607444
	H11	H	0.162170	0.258263	0.399211
	H12	H	0.840458	0.378746	0.721250
	H13	H	0.164656	0.577631	0.721456
	H14	H	0.837724	0.580924	0.289033
	H15	H	0.163727	0.377946	0.288370
	H16	H	0.396581	0.697427	0.844374
	H17	H	0.607166	0.697392	0.164541
	H18	H	0.605163	0.258579	0.843334
	H19	H	0.397727	0.259284	0.165934
	H20	H	0.723690	0.818814	0.402187
	H21	H	0.716935	0.140372	0.605050
	H22	H	0.284542	0.816945	0.605326
	H23	H	0.282630	0.139005	0.401906
	H24	H	0.901436	0.317075	0.223126
	H25	H	0.102715	0.639360	0.224887
	H26	H	0.105920	0.317150	0.786211
	H27	H	0.897977	0.638476	0.786998
	H28	H	0.218158	0.877626	0.341694
	H29	H	0.215477	0.077963	0.667193
	H30	H	0.782248	0.083230	0.342480
	H31	H	0.787465	0.882315	0.668169
	H32	H	0.339387	0.198248	0.902124
	H33	H	0.661617	0.196059	0.109617
	H34	H	0.340300	0.758284	0.110058
	H35	H	0.663061	0.757770	0.899689
	H36	H	0.339807	0.874928	0.224672
	H37	H	0.663888	0.076920	0.220513
	H38	H	0.337050	0.079941	0.789354
	H39	H	0.664671	0.878217	0.788234
	H40	H	0.896541	0.200305	0.343228
	H41	H	0.104767	0.196888	0.665258
	H42	H	0.107838	0.758091	0.343272
	H43	H	0.897022	0.760831	0.665789
	H44	H	0.222900	0.317502	0.903416
	H45	H	0.220972	0.638868	0.109238
	H46	H	0.786215	0.315802	0.106337
	H47	H	0.781899	0.638182	0.903020
	H48	H	0.408150	0.089847	0.585516
	H49	H	0.593102	0.863711	0.599822
	H50	H	0.589711	0.090550	0.415252
	H51	H	0.411969	0.863602	0.412765
	H52	H	0.600156	0.389803	0.121167
	H53	H	0.593134	0.573408	0.886281
	H54	H	0.409539	0.564363	0.120444
	H55	H	0.413176	0.396090	0.892404
	H56	H	0.117882	0.569674	0.410683
	H57	H	0.887149	0.568019	0.597033
	H58	H	0.117701	0.389783	0.593811
	H59	H	0.884302	0.389595	0.410369
	H60	H	0.119459	0.384287	0.596886
	H61	H	0.885528	0.573464	0.597047
	H62	H	0.116204	0.572385	0.417815
	H63	H	0.885094	0.384606	0.417924
	H64	H	0.417259	0.568784	0.119033
	H65	H	0.594699	0.561676	0.890462
	H66	H	0.584720	0.388224	0.117024
	H67	H	0.421181	0.383110	0.890358
	H68	H	0.594010	0.093245	0.412432
	H69	H	0.591082	0.866597	0.592928
	H70	H	0.397589	0.096970	0.600857
	H71	H	0.413040	0.865221	0.415392
	H72	H	0.911466	0.591992	0.099118
	H73	H	0.097049	0.364441	0.094481
	H74	H	0.089702	0.591868	0.909594
	H75	H	0.903709	0.360177	0.911424
	H76	H	0.090628	0.884368	0.620041
	H77	H	0.087174	0.076022	0.387800
	H78	H	0.914997	0.077608	0.619994
	H79	H	0.918635	0.890675	0.391045
	H80	H	0.614307	0.066477	0.918362
	H81	H	0.384259	0.068812	0.099972
	H82	H	0.618144	0.888112	0.103707
	H83	H	0.384630	0.888435	0.909284
	H84	H	0.617890	0.875799	0.089107
	H85	H	0.385957	0.073148	0.090001
	H86	H	0.616602	0.064527	0.909418
	H87	H	0.384633	0.882155	0.915150
	H88	H	0.903533	0.072649	0.621247
	H89	H	0.098077	0.069888	0.386850
	H90	H	0.094149	0.887220	0.620405
	H91	H	0.912909	0.884479	0.388386
	H92	H	0.088870	0.588926	0.919005
	H93	H	0.093221	0.364106	0.101037
	H94	H	0.906923	0.590911	0.092975
	H95	H	0.915927	0.363580	0.908026
	H96	H	0.416643	0.092070	0.603526
	H97	H	0.598003	0.864333	0.594042
	H98	H	0.589158	0.092432	0.409833
	H99	H	0.409908	0.863666	0.415514
	H100	H	0.593910	0.375416	0.124782
	H101	H	0.583285	0.567055	0.891495
	H102	H	0.410323	0.573114	0.122783
	H103	H	0.406001	0.383626	0.886409
	H104	H	0.114576	0.565066	0.416249
	H105	H	0.887548	0.570915	0.591142
	H106	H	0.118693	0.384904	0.590556
	H107	H	0.887416	0.393080	0.417389
	H108	H	0.903969	0.594433	0.099052
	H109	H	0.090122	0.366981	0.094414
	H110	H	0.097364	0.592997	0.915390
	H111	H	0.911910	0.364692	0.919549
	H112	H	0.090939	0.888602	0.618969
	H113	H	0.087861	0.064134	0.391338
	H114	H	0.912287	0.066068	0.616726
	H115	H	0.910083	0.892873	0.389713
	H116	H	0.617574	0.072761	0.912710
	H117	H	0.388421	0.063308	0.091642
	H118	H	0.611082	0.893080	0.086893
	H119	H	0.388455	0.889408	0.917200
	C120	C	0.378194	-0.013327	0.626789
	C121	C	0.622745	0.971022	0.625542
	C122	C	0.623956	-0.013295	0.382096
	C123	C	0.379767	0.970010	0.382774
	C124	C	0.623549	0.354692	0.013672
	C125	C	0.621848	0.597532	0.995997
	C126	C	0.380300	0.599642	0.014248
	C127	C	0.381835	0.357152	0.996628
	C128	C	0.009151	0.600428	0.383764
	C129	C	0.993859	0.600109	0.626049
	C130	C	0.011340	0.357364	0.624974
	C131	C	0.992680	0.357936	0.383913
	C132	C	0.878786	0.486067	0.127331
	C133	C	0.123694	0.470903	0.127428
	C134	C	0.124154	0.485979	0.883625
	C135	C	0.879373	0.469294	0.882907
	C136	C	0.123177	0.856315	0.512724
	C137	C	0.121527	0.099619	0.495653
	C138	C	0.878989	0.102768	0.512586
	C139	C	0.882011	0.859267	0.496532
	C140	C	0.509341	0.099622	0.883212
	C141	C	0.492817	0.098413	0.125230
	C142	C	0.509625	0.855211	0.125804
	C143	C	0.493082	0.855871	0.882983
	C144	C	0.380282	0.865195	0.683477
	C145	C	0.619745	0.092160	0.682606
	C146	C	0.625522	0.865982	0.324905
	C147	C	0.379310	0.090151	0.324254
	C148	C	0.680120	0.356225	0.891177
	C149	C	0.677906	0.595976	0.118759
	C150	C	0.322810	0.599097	0.892146
	C151	C	0.324095	0.357502	0.118628
	C152	C	0.887767	0.659303	0.383008
	C153	C	0.115573	0.656951	0.626200
	C154	C	0.889419	0.301018	0.625900
	C155	C	0.114035	0.298495	0.381552
	C156	C	0.889242	0.358867	0.682710
	C157	C	0.116049	0.598154	0.683220
	C158	C	0.886699	0.600167	0.327328
	C159	C	0.114839	0.357939	0.326253
	C160	C	0.378034	0.658223	0.892865
	C161	C	0.623946	0.656401	0.117232
	C162	C	0.623982	0.297398	0.891644
	C163	C	0.379873	0.298962	0.117841
	C164	C	0.683941	0.866434	0.382555
	C165	C	0.678290	0.092217	0.624816
	C166	C	0.322334	0.865325	0.625400
	C167	C	0.321513	0.090682	0.382391
	C168	C	0.881236	0.365054	0.184467
	C169	C	0.122741	0.591368	0.185498
	C170	C	0.125247	0.365255	0.825416
	C171	C	0.878910	0.590007	0.825448
	C172	C	0.180432	0.857068	0.390629
	C173	C	0.178224	0.098349	0.618004
	C174	C	0.821077	0.102624	0.391057
	C175	C	0.824891	0.860929	0.618782
	C176	C	0.387574	0.158590	0.883085
	C177	C	0.613913	0.156343	0.127246
	C178	C	0.388241	0.797784	0.127860
	C179	C	0.614813	0.797677	0.881812
	C180	C	0.388355	0.855753	0.185245
	C181	C	0.614993	0.096940	0.182424
	C182	C	0.386502	0.099693	0.826866
	C183	C	0.615631	0.857483	0.826060
	C184	C	0.877555	0.161227	0.391600
	C185	C	0.122796	0.157592	0.617101
	C186	C	0.125355	0.797657	0.391588
	C187	C	0.879577	0.800626	0.617665
	C188	C	0.183298	0.365322	0.883524
	C189	C	0.181747	0.591022	0.128018
	C190	C	0.823742	0.364541	0.126328
	C191	C	0.820758	0.589933	0.883394
	C192	C	0.400810	0.071094	0.603585
	C193	C	0.600618	0.886733	0.602301
	C194	C	0.598578	0.070636	0.405684
	C195	C	0.404529	0.885941	0.407435
	C196	C	0.599734	0.377625	0.098887
	C197	C	0.597549	0.574163	0.911466
	C198	C	0.405294	0.575719	0.098942
	C199	C	0.406409	0.380651	0.911679
	C200	C	0.094174	0.576016	0.407804
	C201	C	0.908989	0.577288	0.602095
	C202	C	0.096384	0.379875	0.600729
	C203	C	0.907670	0.382136	0.408286
	C204	C	0.901018	0.570516	0.103865
	C205	C	0.100301	0.386996	0.103478
	C206	C	0.099245	0.569220	0.907773
	C207	C	0.903523	0.384673	0.906262
	C208	C	0.098910	0.879981	0.597682
	C209	C	0.097910	0.076481	0.410709
	C210	C	0.903235	0.079107	0.597431
	C211	C	0.906594	0.882624	0.411653
	C212	C	0.593985	0.075200	0.906766
	C213	C	0.408198	0.075226	0.100916
	C214	C	0.593947	0.878697	0.100578
	C215	C	0.408123	0.879670	0.907049
	Zn216	Zn	0.500468	-0.021829	0.755215
	Zn217	Zn	0.501602	-0.022348	0.253517
	Zn218	Zn	0.750737	0.477432	0.005302
	Zn219	Zn	0.253710	0.477787	0.005471
	Zn220	Zn	0.001624	0.729150	0.504281
	Zn221	Zn	0.001789	0.229555	0.504221
	Zn222	Zn	0.002154	0.477901	0.754504
	Zn223	Zn	0.000539	0.478942	0.255977
	Zn224	Zn	0.501651	0.726672	0.004704
	Zn225	Zn	0.501076	0.227566	0.005009
	Zn226	Zn	0.752482	-0.020264	0.504231
	Zn227	Zn	0.249937	-0.021411	0.503949
	N228	N	0.413997	0.941608	0.684556
	N229	N	0.585711	0.015739	0.683213
	N230	N	0.588894	0.941544	0.324696
	N231	N	0.414676	0.013859	0.324386
	N232	N	0.680148	0.391009	0.967945
	N233	N	0.676515	0.559842	0.042581
	N234	N	0.324010	0.563668	0.968770
	N235	N	0.325251	0.392971	0.042198
	N236	N	0.964996	0.659487	0.417295
	N237	N	0.038469	0.658520	0.591652
	N238	N	0.966511	0.299799	0.591048
	N239	N	0.036954	0.298376	0.416490
	N240	N	0.966095	0.393092	0.682419
	N241	N	0.039238	0.563712	0.683206
	N242	N	0.963426	0.564407	0.327472
	N243	N	0.038399	0.394293	0.327695
	N244	N	0.412884	0.658802	0.969909
	N245	N	0.589739	0.657507	0.040017
	N246	N	0.589845	0.296044	0.969011
	N247	N	0.415306	0.298936	0.040933
	N248	N	0.683048	0.942748	0.417312
	N249	N	0.680068	0.016078	0.590183
	N250	N	0.320958	0.941819	0.590933
	N251	N	0.321964	0.014946	0.418201
	N252	N	0.914746	0.441675	0.185193
	N253	N	0.087334	0.515872	0.185098
	N254	N	0.089222	0.441212	0.825168
	N255	N	0.914527	0.513880	0.825157
	N256	N	0.179349	0.892661	0.466921
	N257	N	0.177652	0.063050	0.541460
	N258	N	0.821820	0.067144	0.467431
	N259	N	0.826256	0.896666	0.542392
	N260	N	0.464852	0.158595	0.917421
	N261	N	0.537004	0.157376	0.092340
	N262	N	0.464696	0.797216	0.091676
	N263	N	0.537694	0.796687	0.916412
	N264	N	0.464965	0.890569	0.184239
	N265	N	0.538731	0.061617	0.181283
	N266	N	0.463064	0.063622	0.826772
	N267	N	0.538815	0.893068	0.826623
	N268	N	0.912832	0.161366	0.468304
	N269	N	0.088407	0.158705	0.539950
	N270	N	0.090197	0.797245	0.468686
	N271	N	0.914381	0.799511	0.540494
	N272	N	0.182999	0.441230	0.918818
	N273	N	0.182291	0.515082	0.092457
	N274	N	0.822168	0.440719	0.091472
	N275	N	0.820841	0.513523	0.918261
	O276	O	0.552799	0.370784	0.371419
	H277	H	0.551656	0.360727	0.368505
	H278	H	0.540928	0.365898	0.378998
	O279	O	0.642876	0.453914	0.504855
	H280	H	0.640492	0.455085	0.505846
	H281	H	0.649043	0.450689	0.503567
	O282	O	0.636754	0.587529	0.650655
	H283	H	0.650273	0.576671	0.661783
	H284	H	0.629944	0.589725	0.658387
	O285	O	0.358256	0.460034	0.511763
	H286	H	0.354460	0.470979	0.506294
	H287	H	0.349901	0.459542	0.500955
	O288	O	1.037019	0.903380	0.962296
	H289	H	1.043106	0.908152	0.957798
	H290	H	1.046251	0.904326	0.963860
	O291	O	0.021021	0.982608	0.084925
	H292	H	0.013870	0.965573	0.090451
	H293	H	0.028241	0.975175	0.083458
	O294	O	0.489032	0.508318	0.430309
	H295	H	0.484771	0.520058	0.431847
	H296	H	0.491271	0.509208	0.426794
	O297	O	0.440224	0.533530	0.398908
	H298	H	0.421489	0.530861	0.396916
	H299	H	0.444755	0.542409	0.398767
	O300	O	0.463660	0.343572	0.570873
	H301	H	0.455027	0.342406	0.562472
	H302	H	0.466249	0.324659	0.578272
	O303	O	0.474227	0.427724	0.375919
	H304	H	0.470338	0.424395	0.371407
	H305	H	0.481368	0.429583	0.377696
	O306	O	0.054604	0.899194	0.887881
	H307	H	0.056829	0.896976	0.870025
	H308	H	0.063118	0.906964	0.891885
	O309	O	0.392265	0.457808	0.452021
	H310	H	0.395104	0.474079	0.450576
	H311	H	0.382610	0.467968	0.433736
	O312	O	-0.122378	0.057406	-0.178155
	H313	H	-0.112533	0.043006	-0.177622
	H314	H	-0.118220	0.062771	-0.182877
	O315	O	0.439286	0.647342	0.392999
	H316	H	0.434400	0.631452	0.394330
	H317	H	0.436008	0.645446	0.388546
	O318	O	0.581330	1.312862	1.473718
	H319	H	0.596836	1.311108	1.472385
	H320	H	0.586816	1.302819	1.470338
	O321	O	0.482998	0.479609	0.478867
	H322	H	0.493392	0.489275	0.480950
	H323	H	0.481216	0.480485	0.487721
	O324	O	-0.076678	1.021641	0.115436
	H325	H	-0.072001	1.026077	0.112740
	H326	H	-0.075543	1.022070	0.100748
	O327	O	0.597435	0.510287	0.466746
	H328	H	0.579751	0.512942	0.469660
	H329	H	0.613446	0.517476	0.451412
	O330	O	-0.022914	0.116975	0.942618
	H331	H	-0.014136	0.114409	0.938668
	H332	H	-0.038793	0.113120	0.937854
	O333	O	-0.286588	0.106004	0.781353
	H334	H	-0.286914	0.107820	0.788979
	H335	H	-0.272772	0.101073	0.770926
	O336	O	0.323294	0.391060	0.545966
	H337	H	0.316134	0.387864	0.550750
	H338	H	0.331273	0.382682	0.550239
	O339	O	0.872352	-0.085703	0.031783
	H340	H	0.875573	-0.095901	0.035382
	H341	H	0.882766	-0.074881	0.045990
	O342	O	0.123346	-0.192143	-0.118511
	H343	H	0.108577	-0.165768	-0.112316
	H344	H	0.134393	-0.197492	-0.134100
	O345	O	1.046709	-0.088958	1.201549
	H346	H	1.059140	-0.096779	1.216340
	H347	H	1.035799	-0.086371	1.192589
	O348	O	0.971165	0.845579	0.101731
	H349	H	0.983007	0.838580	0.104942
	H350	H	0.978499	0.851065	0.100521
	O351	O	0.539660	0.452442	0.483217
	H352	H	0.545330	0.456802	0.471959
	H353	H	0.540761	0.443790	0.465788
	O354	O	1.092556	0.035891	1.141909
	H355	H	1.090357	0.019553	1.145501
	H356	H	1.090166	0.023675	1.136503
	O357	O	0.446277	0.457284	0.636720
	H358	H	0.441661	0.453183	0.647744
	H359	H	0.442067	0.443896	0.635289
	O360	O	0.665148	0.558016	0.465160
	H361	H	0.669359	0.577378	0.473490
	H362	H	0.647947	0.560057	0.451687
	O363	O	0.099112	1.047446	1.102721
	H364	H	0.114907	1.034666	1.097937
	H365	H	0.095613	1.067985	1.105224
	O366	O	1.081080	0.874636	0.004121
	H367	H	1.086879	0.861810	-0.005815
	H368	H	1.091198	0.871244	-0.011710
	O369	O	-0.195529	1.157481	-0.020466
	H370	H	-0.210189	1.155105	-0.041495
	H371	H	-0.205629	1.162833	-0.027420
	O372	O	0.596520	0.589517	0.490469
	H373	H	0.595397	0.588060	0.503772
	H374	H	0.597386	0.589121	0.480514
	O375	O	0.344512	0.559818	0.499594
	H376	H	0.362319	0.543666	0.511451
	H377	H	0.348942	0.540741	0.496049
	O378	O	0.782760	0.706855	-0.227509
	H379	H	0.783103	0.722620	-0.217800
	H380	H	0.782815	0.700150	-0.226260
	O381	O	1.134822	-0.000251	-0.069049
	H382	H	1.124210	0.016644	-0.064712
	H383	H	1.148415	0.006228	-0.080372
	O384	O	0.899381	0.879191	-0.029770
	H385	H	0.886276	0.891304	-0.020276
	H386	H	0.904484	0.891106	-0.024690
	O387	O	0.147984	0.038537	0.000232
	H388	H	0.157059	0.028321	-0.002685
	H389	H	0.146276	0.043268	-0.001127
	O390	O	-0.092995	0.919872	0.088263
	H391	H	-0.095978	0.918617	0.091951
	H392	H	-0.102253	0.924333	0.095565
	O393	O	0.860597	0.989736	1.050065
	H394	H	0.862770	0.987031	1.052418
	H395	H	0.867885	0.977193	1.047222
	O396	O	0.499114	0.391235	0.548760
	H397	H	0.507578	0.394827	0.556420
	H398	H	0.484694	0.397702	0.533652
	O399	O	0.073168	1.003392	0.825409
	H400	H	0.064592	1.001328	0.825238
	H401	H	0.066234	0.998283	0.816439
	O402	O	0.322813	0.753380	0.757215
	H403	H	0.325802	0.760538	0.757172
	H404	H	0.306212	0.749060	0.758097
	O405	O	1.117172	1.121319	0.016723
	H406	H	1.123304	1.126118	0.010539
	H407	H	1.110252	1.113760	0.025293
	O408	O	1.017084	1.026035	0.108437
	H409	H	1.007787	1.032368	0.108289
	H410	H	1.014865	1.027766	0.101707
	O411	O	1.010853	0.114679	0.888792
	H412	H	1.001855	0.130146	0.892644
	H413	H	1.016902	0.113165	0.897400
	O414	O	0.484517	0.524965	0.625560
	H415	H	0.477047	0.518045	0.606966
	H416	H	0.498983	0.517967	0.637105
	O417	O	0.515515	0.594765	0.597584
	H418	H	0.529354	0.601202	0.619964
	H419	H	0.505580	0.591908	0.583892
