data_Molecule from HDF5

_cell_length_a		16.383540
_cell_length_b		16.468022
_cell_length_c		16.442707
_cell_angle_alpha	89.910859
_cell_angle_beta	89.963384
_cell_angle_gamma	90.054246
_symmetry_space_group_name_H-M	'P 1'
_symmetry_Int_Tables_number		1

loop_
	_symmetry_equiv_pos_as_xyz
	x,y,z

loop_
	_atom_site_label
	_atom_site_type_symbol
	_atom_site_fract_x
	_atom_site_fract_y
	_atom_site_fract_z
	H0	H	0.400957	0.834142	0.726446
	H1	H	0.618731	0.146222	0.727311
	H2	H	0.614163	0.832306	0.280996
	H3	H	0.397293	0.145656	0.275961
	H4	H	0.730798	0.382994	0.844802
	H5	H	0.731736	0.598087	0.158610
	H6	H	0.286190	0.595936	0.844207
	H7	H	0.283463	0.381114	0.159224
	H8	H	0.849869	0.712957	0.394856
	H9	H	0.164026	0.715430	0.611757
	H10	H	0.849439	0.266670	0.609268
	H11	H	0.163962	0.263939	0.390603
	H12	H	0.849762	0.381760	0.725763
	H13	H	0.162892	0.600680	0.729709
	H14	H	0.850319	0.598555	0.278220
	H15	H	0.164690	0.380365	0.276249
	H16	H	0.402057	0.712861	0.844648
	H17	H	0.618212	0.715398	0.158685
	H18	H	0.616049	0.266355	0.845993
	H19	H	0.395838	0.263449	0.157342
	H20	H	0.727977	0.832085	0.397698
	H21	H	0.731784	0.146920	0.609544
	H22	H	0.284376	0.833652	0.610981
	H23	H	0.284473	0.147340	0.394912
	H24	H	0.901322	0.332171	0.224498
	H25	H	0.116388	0.646707	0.225906
	H26	H	0.113840	0.331712	0.781024
	H27	H	0.897688	0.645828	0.776366
	H28	H	0.232113	0.881849	0.345628
	H29	H	0.230376	0.096662	0.659891
	H30	H	0.786804	0.094237	0.343689
	H31	H	0.787982	0.885381	0.660686
	H32	H	0.350045	0.214222	0.893014
	H33	H	0.664277	0.214937	0.110885
	H34	H	0.349240	0.766737	0.109461
	H35	H	0.664546	0.766982	0.894847
	H36	H	0.348647	0.882712	0.224783
	H37	H	0.664756	0.097249	0.225635
	H38	H	0.351422	0.100647	0.775400
	H39	H	0.666866	0.884977	0.781642
	H40	H	0.902677	0.210418	0.343072
	H41	H	0.118850	0.216109	0.658251
	H42	H	0.119082	0.763073	0.346749
	H43	H	0.902294	0.768609	0.660734
	H44	H	0.229458	0.331760	0.896762
	H45	H	0.232358	0.646724	0.110870
	H46	H	0.784226	0.332856	0.108972
	H47	H	0.783181	0.646496	0.892790
	H48	H	0.418851	0.104759	0.593583
	H49	H	0.599886	0.878512	0.585863
	H50	H	0.597464	0.101344	0.420606
	H51	H	0.422254	0.877529	0.410231
	H52	H	0.590780	0.402165	0.113229
	H53	H	0.593764	0.579745	0.889283
	H54	H	0.418187	0.583139	0.117143
	H55	H	0.418551	0.399612	0.888176
	H56	H	0.120268	0.576488	0.415639
	H57	H	0.897847	0.571526	0.587873
	H58	H	0.120689	0.399253	0.589259
	H59	H	0.894177	0.399888	0.414655
	H60	H	0.118359	0.404602	0.587126
	H61	H	0.892055	0.578183	0.595764
	H62	H	0.119682	0.575926	0.415537
	H63	H	0.896220	0.402260	0.415266
	H64	H	0.415682	0.574843	0.114815
	H65	H	0.595188	0.578517	0.889705
	H66	H	0.594914	0.401218	0.116025
	H67	H	0.418099	0.404957	0.889887
	H68	H	0.601692	0.106170	0.409923
	H69	H	0.601564	0.873432	0.598072
	H70	H	0.427024	0.100787	0.589066
	H71	H	0.422294	0.879973	0.418348
	H72	H	0.913907	0.603245	0.085819
	H73	H	0.094423	0.377039	0.092903
	H74	H	0.098197	0.601823	0.916311
	H75	H	0.915612	0.378840	0.920867
	H76	H	0.094208	0.898849	0.615341
	H77	H	0.097682	0.077276	0.389308
	H78	H	0.919717	0.077355	0.614637
	H79	H	0.921748	0.899706	0.389709
	H80	H	0.619258	0.081098	0.918942
	H81	H	0.396315	0.080176	0.081810
	H82	H	0.620477	0.898228	0.086494
	H83	H	0.396070	0.906403	0.915672
	H84	H	0.618777	0.906912	0.090877
	H85	H	0.398263	0.069403	0.088931
	H86	H	0.618002	0.073662	0.915225
	H87	H	0.393536	0.903099	0.911495
	H88	H	0.920800	0.079948	0.614998
	H89	H	0.093677	0.074343	0.391940
	H90	H	0.097221	0.905115	0.614058
	H91	H	0.916430	0.899283	0.387313
	H92	H	0.094759	0.602650	0.911989
	H93	H	0.093333	0.378705	0.088020
	H94	H	0.919766	0.603736	0.096758
	H95	H	0.914788	0.374190	0.908349
	H96	H	0.418343	0.101624	0.584267
	H97	H	0.589893	0.878433	0.594508
	H98	H	0.589924	0.101789	0.410510
	H99	H	0.415280	0.876680	0.415195
	H100	H	0.594435	0.405916	0.113904
	H101	H	0.593681	0.578025	0.889969
	H102	H	0.424355	0.577820	0.113845
	H103	H	0.423591	0.401560	0.890645
	H104	H	0.119343	0.576462	0.414949
	H105	H	0.894639	0.582700	0.584677
	H106	H	0.120486	0.404397	0.593147
	H107	H	0.894562	0.402152	0.411976
	H108	H	0.926160	0.599354	0.087277
	H109	H	0.097441	0.377149	0.089014
	H110	H	0.092290	0.600575	0.916729
	H111	H	0.926173	0.379603	0.913127
	H112	H	0.089849	0.904070	0.611967
	H113	H	0.092480	0.079489	0.390573
	H114	H	0.917729	0.079397	0.615552
	H115	H	0.917885	0.904389	0.389712
	H116	H	0.622133	0.079776	0.911284
	H117	H	0.391408	0.079559	0.093898
	H118	H	0.622743	0.899850	0.096399
	H119	H	0.394266	0.900269	0.917206
	C120	C	0.386962	-0.001002	0.623613
	C121	C	0.630576	0.980905	0.625208
	C122	C	0.628463	-0.001370	0.381282
	C123	C	0.385919	0.981551	0.380488
	C124	C	0.627758	0.369312	0.010786
	C125	C	0.628895	0.612137	0.993554
	C126	C	0.386156	0.611655	0.010936
	C127	C	0.385950	0.368170	0.993333
	C128	C	0.016319	0.611004	0.381120
	C129	C	0.998587	0.611461	0.623990
	C130	C	0.015696	0.368707	0.623067
	C131	C	0.999305	0.368483	0.380310
	C132	C	0.886546	0.498314	0.122978
	C133	C	0.129537	0.481430	0.123682
	C134	C	0.128611	0.497965	0.881445
	C135	C	0.885485	0.481197	0.880428
	C136	C	0.128602	0.868311	0.510748
	C137	C	0.129477	0.112042	0.493595
	C138	C	0.885985	0.111363	0.510832
	C139	C	0.887068	0.868805	0.493745
	C140	C	0.516299	0.112194	0.880123
	C141	C	0.498732	0.111038	0.122951
	C142	C	0.515941	0.868263	0.123872
	C143	C	0.499228	0.870295	0.881792
	C144	C	0.382888	0.881301	0.686139
	C145	C	0.635537	0.099110	0.686600
	C146	C	0.631683	0.880002	0.320834
	C147	C	0.381262	0.099134	0.317866
	C148	C	0.689960	0.365494	0.892409
	C149	C	0.691096	0.615683	0.111576
	C150	C	0.325632	0.614654	0.892053
	C151	C	0.323682	0.363587	0.111564
	C152	C	0.897686	0.672839	0.377072
	C153	C	0.116649	0.674566	0.629483
	C154	C	0.897238	0.306698	0.627028
	C155	C	0.117029	0.305231	0.374463
	C156	C	0.897170	0.364543	0.684816
	C157	C	0.116144	0.617063	0.687862
	C158	C	0.897902	0.615550	0.319041
	C159	C	0.117239	0.363869	0.317560
	C160	C	0.383229	0.672916	0.892318
	C161	C	0.634433	0.674258	0.111459
	C162	C	0.632696	0.307354	0.892716
	C163	C	0.379815	0.304806	0.110743
	C164	C	0.688410	0.879592	0.379156
	C165	C	0.691982	0.099303	0.627729
	C166	C	0.324940	0.881175	0.628433
	C167	C	0.324463	0.099670	0.376807
	C168	C	0.883261	0.379751	0.184423
	C169	C	0.133706	0.599458	0.185231
	C170	C	0.131775	0.379272	0.820627
	C171	C	0.880889	0.598889	0.817713
	C172	C	0.191318	0.864109	0.392761
	C173	C	0.191188	0.115646	0.612017
	C174	C	0.826037	0.113253	0.391516
	C175	C	0.827646	0.867019	0.613254
	C176	C	0.397724	0.173961	0.875703
	C177	C	0.617212	0.173532	0.127899
	C178	C	0.396635	0.807105	0.126966
	C179	C	0.617769	0.808452	0.877940
	C180	C	0.396277	0.865186	0.184240
	C181	C	0.617272	0.115344	0.185373
	C182	C	0.398418	0.117290	0.816874
	C183	C	0.618784	0.867378	0.821468
	C184	C	0.883955	0.170910	0.391135
	C185	C	0.134954	0.174728	0.611188
	C186	C	0.135021	0.804668	0.393474
	C187	C	0.884564	0.808795	0.613158
	C188	C	0.189517	0.379347	0.878529
	C189	C	0.191880	0.599278	0.128049
	C190	C	0.825007	0.379925	0.126751
	C191	C	0.823853	0.599272	0.875894
	C192	C	0.413757	0.081062	0.596609
	C193	C	0.604534	0.898249	0.600132
	C194	C	0.603467	0.081527	0.406253
	C195	C	0.412332	0.899350	0.407022
	C196	C	0.601052	0.395728	0.092744
	C197	C	0.601976	0.586184	0.911317
	C198	C	0.411877	0.585870	0.093616
	C199	C	0.412424	0.394405	0.911084
	C200	C	0.098414	0.584177	0.407944
	C201	C	0.916425	0.584975	0.597172
	C202	C	0.098326	0.395074	0.597032
	C203	C	0.916523	0.394171	0.406524
	C204	C	0.912521	0.580720	0.097153
	C205	C	0.102971	0.399059	0.097410
	C206	C	0.102649	0.580224	0.907343
	C207	C	0.911459	0.399052	0.906547
	C208	C	0.101511	0.894935	0.592434
	C209	C	0.102473	0.084831	0.411965
	C210	C	0.911905	0.086243	0.593544
	C211	C	0.911811	0.893897	0.410634
	C212	C	0.598436	0.085635	0.907362
	C213	C	0.416770	0.084234	0.096043
	C214	C	0.598801	0.894287	0.098562
	C215	C	0.416416	0.896056	0.907384
	Zn216	Zn	0.508306	-0.009346	0.752341
	Zn217	Zn	0.507648	-0.010271	0.252110
	Zn218	Zn	0.756752	0.490440	0.002115
	Zn219	Zn	0.257922	0.489680	0.002334
	Zn220	Zn	0.007100	0.739604	0.502206
	Zn221	Zn	0.007624	0.239986	0.501795
	Zn222	Zn	0.007431	0.489444	0.752522
	Zn223	Zn	0.007596	0.490301	0.252151
	Zn224	Zn	0.507896	0.740771	0.002336
	Zn225	Zn	0.507048	0.240542	0.002228
	Zn226	Zn	0.757391	-0.010606	0.502068
	Zn227	Zn	0.257348	-0.009985	0.502633
	N228	N	0.420790	0.955628	0.683128
	N229	N	0.597901	0.024608	0.684922
	N230	N	0.595149	0.955063	0.321892
	N231	N	0.418596	0.024518	0.320055
	N232	N	0.687268	0.403093	0.966964
	N233	N	0.687992	0.578087	0.037074
	N234	N	0.327167	0.577487	0.966916
	N235	N	0.327512	0.402589	0.037649
	N236	N	0.972459	0.670276	0.414747
	N237	N	0.042676	0.670868	0.590415
	N238	N	0.972198	0.308950	0.589543
	N239	N	0.042650	0.308162	0.413139
	N240	N	0.972023	0.402162	0.682691
	N241	N	0.041663	0.578643	0.684875
	N242	N	0.972712	0.577814	0.321229
	N243	N	0.042998	0.402487	0.320985
	N244	N	0.419665	0.671441	0.967562
	N245	N	0.596427	0.672069	0.037007
	N246	N	0.594905	0.309505	0.967279
	N247	N	0.417780	0.307532	0.036270
	N248	N	0.686558	0.954360	0.416203
	N249	N	0.688881	0.024834	0.590138
	N250	N	0.327462	0.955546	0.590294
	N251	N	0.327236	0.025539	0.415030
	N252	N	0.920652	0.454407	0.182269
	N253	N	0.095891	0.524992	0.182832
	N254	N	0.094828	0.454261	0.822145
	N255	N	0.918429	0.524373	0.820239
	N256	N	0.187608	0.903132	0.466471
	N257	N	0.187803	0.077284	0.537963
	N258	N	0.827020	0.077227	0.466985
	N259	N	0.829080	0.903799	0.538171
	N260	N	0.472127	0.170969	0.914257
	N261	N	0.542704	0.170857	0.089509
	N262	N	0.472041	0.808762	0.090337
	N263	N	0.542612	0.810260	0.914977
	N264	N	0.471509	0.902229	0.182743
	N265	N	0.542681	0.077228	0.182411
	N266	N	0.473252	0.079812	0.819410
	N267	N	0.544000	0.905154	0.823669
	N268	N	0.920305	0.170138	0.466463
	N269	N	0.097500	0.172764	0.536428
	N270	N	0.096758	0.807285	0.467865
	N271	N	0.920697	0.809772	0.537772
	N272	N	0.187910	0.454192	0.915269
	N273	N	0.189540	0.524604	0.090717
	N274	N	0.826846	0.454586	0.089316
	N275	N	0.826504	0.525099	0.914233
	O276	O	0.533030	0.278818	0.289562
	H277	H	0.539697	0.259778	0.284948
	H278	H	0.514781	0.271787	0.302256
	O279	O	1.143546	-0.145541	1.069290
	H280	H	1.159490	-0.141386	1.085807
	H281	H	1.142012	-0.163728	1.054933
	O282	O	0.304744	0.412853	0.433549
	H283	H	0.320373	0.437562	0.433885
	H284	H	0.312208	0.429942	0.399443
	O285	O	0.703461	0.555473	0.439511
	H286	H	0.705823	0.571687	0.437557
	H287	H	0.705887	0.557936	0.414279
	O288	O	1.223062	1.007590	-0.121809
	H289	H	1.217874	0.994618	-0.116451
	H290	H	1.214777	0.997849	-0.117967
	O291	O	0.288035	0.623805	0.503603
	H292	H	0.263848	0.630659	0.504635
	H293	H	0.292097	0.600807	0.529751
	O294	O	-0.047394	0.182817	1.136674
	H295	H	-0.042147	0.183004	1.119312
	H296	H	-0.079741	0.174681	1.117878
	O297	O	0.282181	0.466771	1.721132
	H298	H	0.243914	0.460900	1.761143
	H299	H	0.297025	0.413184	1.707329
	O300	O	0.328941	0.672609	0.322279
	H301	H	0.316297	0.676435	0.369792
	H302	H	0.316441	0.625364	0.319480
	O303	O	-0.291881	-0.303044	0.603233
	H304	H	-0.288806	-0.298643	0.634826
	H305	H	-0.284718	-0.291432	0.593236
	O306	O	0.563073	0.515911	0.351489
	H307	H	0.563877	0.553302	0.341215
	H308	H	0.597665	0.514739	0.349632
	O309	O	0.716304	0.519776	0.716149
	H310	H	0.725531	0.524242	0.716829
	H311	H	0.726963	0.511986	0.722619
	O312	O	-0.076914	0.909667	0.807181
	H313	H	-0.094972	0.915158	0.817667
	H314	H	-0.065242	0.874105	0.810788
	O315	O	0.518897	0.392848	0.468989
	H316	H	0.514629	0.395925	0.469441
	H317	H	0.529486	0.410481	0.456973
	O318	O	1.111090	0.188875	-0.018816
	H319	H	1.092063	0.161527	-0.032707
	H320	H	1.138679	0.204301	-0.018133
	O321	O	0.139199	0.191700	-0.029066
	H322	H	0.154622	0.194068	-0.042769
	H323	H	0.130429	0.172894	-0.030698
	O324	O	1.206325	0.954990	-0.078140
	H325	H	1.210618	0.962819	-0.044579
	H326	H	1.230793	0.941707	-0.084796
	O327	O	0.631904	0.358284	0.477464
	H328	H	0.658639	0.324691	0.479849
	H329	H	0.616312	0.367946	0.491989
	O330	O	-0.178503	1.172977	-0.178750
	H331	H	-0.186360	1.119221	-0.188883
	H332	H	-0.124993	1.184208	-0.192228
	O333	O	0.436978	0.434241	0.283310
	H334	H	0.460737	0.435284	0.295690
	H335	H	0.468151	0.435744	0.275637
	O336	O	0.022284	-0.212701	-0.204212
	H337	H	0.010327	-0.224494	-0.207946
	H338	H	0.007052	-0.228178	-0.181044
	O339	O	-0.018658	1.203537	0.787161
	H340	H	-0.006471	1.221345	0.764967
	H341	H	0.004699	1.197439	0.792120
	O342	O	0.325220	1.312051	0.681758
	H343	H	0.317219	1.297747	0.629673
	H344	H	0.378159	1.299579	0.690345
	O345	O	1.224454	1.009768	0.220858
	H346	H	1.250841	1.028126	0.244142
	H347	H	1.222435	1.050107	0.217564
	O348	O	0.411792	0.685396	0.507350
	H349	H	0.391630	0.670868	0.519752
	H350	H	0.419000	0.702786	0.508047
	O351	O	0.586511	1.639623	1.358236
	H352	H	0.586020	1.646590	1.375332
	H353	H	0.578147	1.658073	1.333083
	O354	O	0.186250	0.806560	-0.182732
	H355	H	0.156404	0.788606	-0.203470
	H356	H	0.175608	0.835313	-0.186306
	O357	O	-0.125714	-0.131066	0.949340
	H358	H	-0.121975	-0.142617	0.970423
	H359	H	-0.139582	-0.126682	0.973227
	O360	O	0.563557	0.432909	0.594289
	H361	H	0.585988	0.413300	0.595546
	H362	H	0.553832	0.427454	0.604432
	O363	O	-0.194746	0.007793	0.802856
	H364	H	-0.191269	-0.013338	0.824588
	H365	H	-0.212830	-0.004451	0.781477
	O366	O	0.484588	0.710173	0.278862
	H367	H	0.465066	0.734412	0.255058
	H368	H	0.445797	0.712763	0.279706
	O369	O	0.708279	0.682321	-0.381361
	H370	H	0.694462	0.688648	-0.380481
	H371	H	0.700661	0.655739	-0.377735
	O372	O	1.003472	0.193528	1.154590
	H373	H	0.982835	0.202655	1.134617
	H374	H	0.990578	0.196684	1.164572
	O375	O	0.024510	0.973806	1.209381
	H376	H	0.053917	0.983646	1.205186
	H377	H	0.033711	0.985100	1.211281
	O378	O	0.985179	0.890328	0.949903
	H379	H	0.989675	0.884798	0.980689
	H380	H	0.974935	0.885224	0.974952
	O381	O	0.730422	0.465764	0.306243
	H382	H	0.737033	0.437143	0.299863
	H383	H	0.743629	0.438170	0.292138
	O384	O	-0.209675	0.771284	1.018506
	H385	H	-0.246767	0.734646	1.025895
	H386	H	-0.197535	0.785534	1.070279
	O387	O	-0.152759	-0.004105	1.094425
	H388	H	-0.146001	0.016310	1.098271
	H389	H	-0.172927	0.004123	1.088165
	O390	O	0.025015	-0.029894	0.160889
	H391	H	0.044913	-0.025265	0.157253
	H392	H	0.024095	-0.042916	0.156441
	O393	O	1.099337	1.025002	0.961265
	H394	H	1.093643	1.013067	0.960278
	H395	H	1.099690	1.001726	0.942996
	O396	O	0.289457	0.510048	0.291748
	H397	H	0.291711	0.497247	0.261308
	H398	H	0.302055	0.497004	0.272473
	O399	O	0.440943	0.274300	0.438963
	H400	H	0.443647	0.291644	0.435821
	H401	H	0.409511	0.263404	0.453713
	O402	O	1.224991	0.770104	0.976244
	H403	H	1.249995	0.749057	0.958583
	H404	H	1.227735	0.768237	0.945291
	O405	O	0.682207	0.324647	-0.682460
	H406	H	0.633779	0.326897	-0.682681
	H407	H	0.697763	0.310753	-0.632670
	O408	O	1.053152	0.035538	-0.207592
	H409	H	1.029267	0.019377	-0.219182
	H410	H	1.080551	0.028840	-0.190403
	O411	O	1.187565	1.166163	0.182080
	H412	H	1.134693	1.176878	0.191157
	H413	H	1.195213	1.177631	0.131078
	O414	O	0.485776	0.500430	0.694902
	H415	H	0.484323	0.483127	0.674672
	H416	H	0.476645	0.488257	0.695459
	O417	O	0.509162	1.459947	-0.360455
	H418	H	0.527919	1.471718	-0.352437
	H419	H	0.500373	1.489081	-0.365099
	O420	O	-0.196363	-0.006791	0.162681
	H421	H	-0.222200	0.005186	0.160905
	H422	H	-0.175119	0.017424	0.148846
	O423	O	0.487266	0.278372	0.710679
	H424	H	0.489954	0.247635	0.739920
	H425	H	0.516331	0.296374	0.698166
	O426	O	-0.070598	0.895593	1.022375
	H427	H	-0.069162	0.901137	1.037804
	H428	H	-0.056221	0.891014	1.010426
	O429	O	0.609373	0.281515	0.590372
	H430	H	0.589611	0.277905	0.582298
	H431	H	0.606210	0.305916	0.595463
	O432	O	0.694188	0.443549	0.578967
	H433	H	0.704370	0.443159	0.573889
	H434	H	0.694603	0.464600	0.556032
	O435	O	0.502772	0.649660	0.602823
	H436	H	0.497609	0.665696	0.611546
	H437	H	0.490399	0.645334	0.599317
	O438	O	-0.170032	-0.190433	0.173277
	H439	H	-0.181162	-0.137452	0.186085
	H440	H	-0.117442	-0.201086	0.189139
	O441	O	0.989219	-0.219631	0.213767
	H442	H	1.000162	-0.232565	0.233308
	H443	H	1.011895	-0.213563	0.217772
	O444	O	0.792418	0.204970	0.981857
	H445	H	0.794402	0.207046	0.945639
	H446	H	0.773135	0.226149	0.961334
	O447	O	0.319598	0.620270	0.596456
	H448	H	0.332423	0.605961	0.589731
	H449	H	0.334042	0.603497	0.607733
	O450	O	0.527527	0.694639	0.649862
	H451	H	0.524930	0.697173	0.663381
	H452	H	0.519333	0.675355	0.638701
	O453	O	0.295275	0.275067	0.520536
	H454	H	0.254771	0.243070	0.518342
	H455	H	0.284060	0.321739	0.494313
