data_Molecule from HDF5

_cell_length_a		16.304433
_cell_length_b		16.134347
_cell_length_c		16.296391
_cell_angle_alpha	90.325719
_cell_angle_beta	89.458525
_cell_angle_gamma	90.063079
_symmetry_space_group_name_H-M	'P 1'
_symmetry_Int_Tables_number		1

loop_
	_symmetry_equiv_pos_as_xyz
	x,y,z

loop_
	_atom_site_label
	_atom_site_type_symbol
	_atom_site_fract_x
	_atom_site_fract_y
	_atom_site_fract_z
	H0	H	0.398972	0.830891	0.714244
	H1	H	0.600965	0.159786	0.715137
	H2	H	0.600906	0.831250	0.282663
	H3	H	0.404273	0.160569	0.289295
	H4	H	0.720849	0.395105	0.837859
	H5	H	0.717025	0.598994	0.163388
	H6	H	0.288149	0.595605	0.837677
	H7	H	0.284772	0.396120	0.162713
	H8	H	0.837488	0.707722	0.407931
	H9	H	0.165711	0.711503	0.598224
	H10	H	0.837387	0.282312	0.600549
	H11	H	0.164576	0.281424	0.399953
	H12	H	0.839208	0.397036	0.719377
	H13	H	0.166582	0.596388	0.714426
	H14	H	0.839426	0.597066	0.286630
	H15	H	0.163700	0.393683	0.281751
	H16	H	0.406523	0.708233	0.835463
	H17	H	0.598340	0.713042	0.163361
	H18	H	0.604047	0.279298	0.837448
	H19	H	0.403299	0.285196	0.164575
	H20	H	0.717122	0.831227	0.397306
	H21	H	0.716929	0.159355	0.599342
	H22	H	0.285154	0.830931	0.598321
	H23	H	0.288331	0.160116	0.400670
	H24	H	0.900393	0.331852	0.215701
	H25	H	0.101824	0.658947	0.217225
	H26	H	0.103467	0.331836	0.783395
	H27	H	0.905454	0.660982	0.789314
	H28	H	0.218799	0.893246	0.337225
	H29	H	0.215977	0.097137	0.662339
	H30	H	0.787840	0.095877	0.336785
	H31	H	0.781025	0.893095	0.661017
	H32	H	0.337070	0.210014	0.905493
	H33	H	0.664689	0.212133	0.099460
	H34	H	0.337664	0.783251	0.096972
	H35	H	0.665567	0.781979	0.898242
	H36	H	0.338258	0.895800	0.216630
	H37	H	0.664181	0.097946	0.215765
	H38	H	0.337748	0.096163	0.784832
	H39	H	0.662987	0.892760	0.778064
	H40	H	0.904481	0.209841	0.336854
	H41	H	0.098285	0.210843	0.663873
	H42	H	0.101429	0.779364	0.337361
	H43	H	0.902166	0.784771	0.664919
	H44	H	0.217743	0.330971	0.899036
	H45	H	0.216749	0.660777	0.101342
	H46	H	0.784462	0.333281	0.102824
	H47	H	0.790284	0.660418	0.902185
	H48	H	0.408459	0.114853	0.599185
	H49	H	0.590112	0.877624	0.595514
	H50	H	0.593061	0.114243	0.402338
	H51	H	0.402423	0.875424	0.408146
	H52	H	0.590368	0.405348	0.114997
	H53	H	0.599659	0.589603	0.883206
	H54	H	0.397521	0.590834	0.120467
	H55	H	0.411963	0.398726	0.882803
	H56	H	0.116227	0.587878	0.414039
	H57	H	0.885210	0.591985	0.596445
	H58	H	0.119600	0.403551	0.597747
	H59	H	0.890812	0.419734	0.410560
	H60	H	0.118289	0.399974	0.589118
	H61	H	0.887570	0.587045	0.595452
	H62	H	0.117986	0.581357	0.403415
	H63	H	0.879038	0.399090	0.394359
	H64	H	0.412451	0.579593	0.112182
	H65	H	0.600473	0.585726	0.884124
	H66	H	0.596229	0.402279	0.117852
	H67	H	0.407094	0.404915	0.882901
	H68	H	0.592456	0.110997	0.412014
	H69	H	0.586944	0.881446	0.583271
	H70	H	0.413744	0.110575	0.590359
	H71	H	0.411761	0.876579	0.400562
	H72	H	0.908967	0.617743	0.105493
	H73	H	0.103464	0.374377	0.094745
	H74	H	0.100399	0.615275	0.907754
	H75	H	0.918425	0.382703	0.917389
	H76	H	0.094335	0.904629	0.617188
	H77	H	0.100314	0.087380	0.381857
	H78	H	0.915153	0.087818	0.613198
	H79	H	0.908485	0.893833	0.380906
	H80	H	0.616137	0.081498	0.903209
	H81	H	0.383159	0.094849	0.094574
	H82	H	0.615846	0.904750	0.086400
	H83	H	0.386035	0.899760	0.910104
	H84	H	0.617147	0.909497	0.094617
	H85	H	0.387263	0.086650	0.092616
	H86	H	0.619156	0.091592	0.903152
	H87	H	0.386523	0.907021	0.908269
	H88	H	0.904712	0.094131	0.619216
	H89	H	0.094611	0.084674	0.384868
	H90	H	0.093589	0.907647	0.615527
	H91	H	0.904240	0.907082	0.383426
	H92	H	0.095017	0.613712	0.905822
	H93	H	0.085254	0.379277	0.096257
	H94	H	0.919397	0.610471	0.092815
	H95	H	0.901720	0.376127	0.911636
	H96	H	0.402550	0.113387	0.589248
	H97	H	0.598997	0.877334	0.585965
	H98	H	0.601004	0.114576	0.408287
	H99	H	0.412520	0.880354	0.411681
	H100	H	0.596404	0.409263	0.116467
	H101	H	0.596378	0.586809	0.884085
	H102	H	0.415699	0.598307	0.117266
	H103	H	0.413143	0.406225	0.885441
	H104	H	0.120518	0.593286	0.404233
	H105	H	0.885099	0.588150	0.599876
	H106	H	0.115599	0.409457	0.590467
	H107	H	0.885836	0.393444	0.421499
	H108	H	0.902353	0.614934	0.088845
	H109	H	0.094078	0.382081	0.080322
	H110	H	0.096010	0.612467	0.911394
	H111	H	0.916720	0.377065	0.900700
	H112	H	0.091192	0.905084	0.616027
	H113	H	0.094028	0.092254	0.383152
	H114	H	0.902843	0.081132	0.615182
	H115	H	0.916567	0.903675	0.386709
	H116	H	0.614548	0.087253	0.911869
	H117	H	0.384182	0.088473	0.102435
	H118	H	0.619824	0.900254	0.093263
	H119	H	0.383881	0.902081	0.903334
	C120	C	0.378984	0.003880	0.621232
	C121	C	0.621900	0.987071	0.619096
	C122	C	0.624014	0.004387	0.377153
	C123	C	0.381094	0.986627	0.379152
	C124	C	0.625102	0.374404	0.009014
	C125	C	0.625719	0.618278	0.991612
	C126	C	0.380620	0.618200	0.008782
	C127	C	0.380942	0.374995	0.991562
	C128	C	0.010441	0.616615	0.380277
	C129	C	0.994014	0.618739	0.624452
	C130	C	0.010273	0.374791	0.622743
	C131	C	0.992538	0.374319	0.378509
	C132	C	0.880187	0.505531	0.123990
	C133	C	0.123510	0.487036	0.121158
	C134	C	0.125746	0.504581	0.878544
	C135	C	0.883598	0.487470	0.881387
	C136	C	0.123019	0.875008	0.508581
	C137	C	0.123841	0.117908	0.491244
	C138	C	0.879499	0.117021	0.508392
	C139	C	0.879145	0.873016	0.491217
	C140	C	0.509082	0.116857	0.878130
	C141	C	0.493029	0.118830	0.123637
	C142	C	0.509691	0.875542	0.120653
	C143	C	0.492956	0.873382	0.876487
	C144	C	0.379494	0.880095	0.676146
	C145	C	0.620336	0.110728	0.676078
	C146	C	0.621573	0.880413	0.320740
	C147	C	0.383624	0.110978	0.325532
	C148	C	0.682230	0.375364	0.886717
	C149	C	0.679046	0.617987	0.114605
	C150	C	0.326016	0.615842	0.885949
	C151	C	0.323933	0.376877	0.114329
	C152	C	0.886914	0.671010	0.385571
	C153	C	0.116837	0.674260	0.619851
	C154	C	0.886739	0.319916	0.620910
	C155	C	0.115718	0.319063	0.380011
	C156	C	0.887567	0.376940	0.679956
	C157	C	0.117180	0.616924	0.677777
	C158	C	0.887754	0.615731	0.325383
	C159	C	0.115099	0.374641	0.320871
	C160	C	0.385316	0.671435	0.884650
	C161	C	0.619962	0.674704	0.114616
	C162	C	0.624117	0.317583	0.886428
	C163	C	0.382834	0.321465	0.115281
	C164	C	0.679376	0.880558	0.377586
	C165	C	0.678068	0.110501	0.618460
	C166	C	0.322713	0.880256	0.618870
	C167	C	0.325946	0.110846	0.381192
	C168	C	0.880964	0.381347	0.178531
	C169	C	0.121831	0.610686	0.178185
	C170	C	0.123995	0.381044	0.821312
	C171	C	0.885344	0.611742	0.826738
	C172	C	0.179639	0.874884	0.385760
	C173	C	0.178312	0.117030	0.613733
	C174	C	0.825445	0.115364	0.385725
	C175	C	0.820963	0.874256	0.613219
	C176	C	0.386092	0.172387	0.883104
	C177	C	0.615896	0.174206	0.120093
	C178	C	0.386799	0.820340	0.118344
	C179	C	0.616038	0.818549	0.877782
	C180	C	0.387137	0.876417	0.177811
	C181	C	0.615406	0.117572	0.178310
	C182	C	0.386429	0.115766	0.823209
	C183	C	0.614877	0.873758	0.818137
	C184	C	0.883083	0.172487	0.385749
	C185	C	0.119498	0.173389	0.614556
	C186	C	0.121540	0.817897	0.386134
	C187	C	0.881128	0.820136	0.615204
	C188	C	0.180532	0.380455	0.879187
	C189	C	0.179213	0.611159	0.120662
	C190	C	0.823105	0.382184	0.122400
	C191	C	0.828206	0.611356	0.883123
	C192	C	0.401684	0.090462	0.599260
	C193	C	0.598661	0.900827	0.595279
	C194	C	0.601969	0.090805	0.400557
	C195	C	0.402366	0.900001	0.400753
	C196	C	0.601351	0.398454	0.094473
	C197	C	0.605024	0.594515	0.905945
	C198	C	0.402195	0.596114	0.094206
	C199	C	0.404098	0.396622	0.906016
	C200	C	0.096150	0.594041	0.401138
	C201	C	0.908215	0.595736	0.603644
	C202	C	0.095622	0.397608	0.599348
	C203	C	0.907356	0.397353	0.401927
	C204	C	0.903468	0.591853	0.102080
	C205	C	0.100847	0.401014	0.097476
	C206	C	0.103604	0.591222	0.901524
	C207	C	0.905887	0.401124	0.903438
	C208	C	0.099920	0.898988	0.594225
	C209	C	0.102607	0.094879	0.405305
	C210	C	0.901221	0.094330	0.593677
	C211	C	0.902721	0.895151	0.405785
	C212	C	0.594400	0.093662	0.899645
	C213	C	0.407107	0.096623	0.102744
	C214	C	0.595487	0.898132	0.097942
	C215	C	0.407663	0.896266	0.900168
	Zn216	Zn	0.500794	-0.005381	0.748314
	Zn217	Zn	0.501452	-0.003867	0.251179
	Zn218	Zn	0.754996	0.496240	0.000982
	Zn219	Zn	0.252383	0.495971	0.000257
	Zn220	Zn	0.001759	0.746178	0.501524
	Zn221	Zn	0.001133	0.245991	0.500158
	Zn222	Zn	0.003036	0.496564	0.752690
	Zn223	Zn	0.002007	0.495460	0.249732
	Zn224	Zn	0.502290	0.746223	-0.000968
	Zn225	Zn	0.501784	0.246351	0.000967
	Zn226	Zn	0.751781	-0.004872	0.498977
	Zn227	Zn	0.252491	-0.004274	0.499211
	N228	N	0.413730	0.957947	0.677766
	N229	N	0.586137	0.032721	0.676443
	N230	N	0.588164	0.958559	0.320156
	N231	N	0.417127	0.032887	0.324094
	N232	N	0.683060	0.409835	0.964161
	N233	N	0.682678	0.583729	0.037167
	N234	N	0.322955	0.583351	0.963798
	N235	N	0.322613	0.409478	0.036627
	N236	N	0.964258	0.671815	0.418784
	N237	N	0.039316	0.675555	0.587557
	N238	N	0.963921	0.318682	0.585979
	N239	N	0.038677	0.318698	0.415336
	N240	N	0.965439	0.410153	0.681380
	N241	N	0.039716	0.583060	0.680734
	N242	N	0.965521	0.582545	0.321811
	N243	N	0.037570	0.408169	0.319658
	N244	N	0.418506	0.673028	0.961911
	N245	N	0.587641	0.675077	0.037036
	N246	N	0.589363	0.316909	0.963589
	N247	N	0.417742	0.320052	0.038074
	N248	N	0.680927	0.958561	0.412067
	N249	N	0.678952	0.032670	0.583729
	N250	N	0.322259	0.958468	0.585418
	N251	N	0.323869	0.032454	0.413866
	N252	N	0.915614	0.459075	0.179762
	N253	N	0.087858	0.532597	0.178550
	N254	N	0.090552	0.459298	0.820767
	N255	N	0.919257	0.533693	0.825516
	N256	N	0.180815	0.909579	0.463134
	N257	N	0.181134	0.083253	0.536016
	N258	N	0.823174	0.081568	0.463109
	N259	N	0.819645	0.906419	0.535288
	N260	N	0.463208	0.173027	0.916726
	N261	N	0.538694	0.175290	0.086919
	N262	N	0.463913	0.819572	0.083611
	N263	N	0.539273	0.818259	0.913549
	N264	N	0.464697	0.910104	0.179410
	N265	N	0.537972	0.083601	0.180568
	N266	N	0.463908	0.081932	0.820050
	N267	N	0.537197	0.906989	0.817079
	N268	N	0.915927	0.173854	0.463106
	N269	N	0.086222	0.174027	0.537367
	N270	N	0.087246	0.817993	0.463465
	N271	N	0.916620	0.818918	0.538351
	N272	N	0.181881	0.458363	0.913817
	N273	N	0.180097	0.533308	0.085521
	N274	N	0.822414	0.460384	0.089225
	N275	N	0.827015	0.533229	0.916350
	O276	O	0.484124	0.413599	0.500277
	H277	H	0.479942	0.412659	0.511039
	H278	H	0.495276	0.416821	0.501672
	O279	O	0.411885	0.540676	0.501489
	H280	H	0.404880	0.530080	0.494347
	H281	H	0.414733	0.533333	0.490129
	O282	O	0.863335	0.991286	-0.057762
	H283	H	0.863246	0.980518	-0.041010
	H284	H	0.869150	0.993121	-0.070245
	O285	O	0.939725	0.044123	0.871288
	H286	H	0.940056	0.032967	0.859725
	H287	H	0.942154	0.041026	0.872492
	O288	O	0.542863	0.514602	0.530071
	H289	H	0.531856	0.521404	0.519787
	H290	H	0.552987	0.507571	0.529739
	O291	O	0.490899	0.362875	0.473444
	H292	H	0.493276	0.366679	0.470966
	H293	H	0.488316	0.355962	0.462352
	O294	O	0.358609	0.453579	0.557358
	H295	H	0.366373	0.463978	0.559471
	H296	H	0.343613	0.443960	0.559348
	O297	O	0.028767	-0.105563	0.855334
	H298	H	0.028149	-0.105142	0.844131
	H299	H	0.019694	-0.100885	0.861495
	O300	O	0.552781	0.488710	0.540329
	H301	H	0.543276	0.498480	0.562127
	H302	H	0.560698	0.487375	0.551155
	O303	O	0.994533	0.933316	0.040969
	H304	H	0.991373	0.928327	0.043445
	H305	H	0.988527	0.933672	0.048489
	O306	O	-0.033655	1.062095	1.014441
	H307	H	-0.042238	1.068914	1.012071
	H308	H	-0.034840	1.063564	1.013555
	O309	O	0.509391	0.590677	0.435358
	H310	H	0.520686	0.588273	0.439380
	H311	H	0.509893	0.592774	0.444737
	O312	O	-0.080267	0.025629	0.070546
	H313	H	-0.073477	0.032646	0.069876
	H314	H	-0.084485	0.013283	0.056453
	O315	O	0.481286	-0.509064	0.455179
	H316	H	0.491142	-0.507820	0.441950
	H317	H	0.481924	-0.524139	0.469390
	O318	O	1.090980	1.096208	0.914950
	H319	H	1.076572	1.089947	0.918651
	H320	H	1.092658	1.096495	0.917096
	O321	O	-0.116531	0.136047	0.892120
	H322	H	-0.118284	0.123677	0.897286
	H323	H	-0.119381	0.135001	0.890999
	O324	O	0.581260	0.450459	0.454758
	H325	H	0.580427	0.461295	0.453582
	H326	H	0.575240	0.446083	0.445007
	O327	O	-0.060383	-0.040445	0.071854
	H328	H	-0.055151	-0.035718	0.061826
	H329	H	-0.071187	-0.043042	0.065714
	O330	O	0.499444	0.483682	0.567183
	H331	H	0.494062	0.475454	0.571377
	H332	H	0.491009	0.479014	0.557362
	O333	O	-0.028333	1.055411	1.007350
	H334	H	-0.039312	1.058604	0.996423
	H335	H	-0.028420	1.062560	1.010485
	O336	O	0.131880	-0.122270	-0.070859
	H337	H	0.133162	-0.117318	-0.077620
	H338	H	0.137385	-0.133041	-0.072421
	O339	O	0.537135	0.498370	0.590107
	H340	H	0.526191	0.493299	0.584510
	H341	H	0.528704	0.490131	0.602554
	O342	O	1.013437	1.004041	1.103614
	H343	H	1.023607	1.012745	1.096903
	H344	H	1.014083	1.000675	1.110454
	O345	O	1.015007	2.024341	0.045377
	H346	H	1.023141	2.023930	0.037288
	H347	H	1.015308	2.028053	0.033292
	O348	O	0.489666	0.425206	0.506200
	H349	H	0.500572	0.426922	0.506548
	H350	H	0.488366	0.430393	0.504275
	O351	O	0.503381	0.523370	0.521500
	H352	H	0.508500	0.517699	0.511773
	H353	H	0.503470	0.526895	0.533902
	O354	O	0.490825	0.627988	0.486182
	H355	H	0.492117	0.640530	0.498638
	H356	H	0.496827	0.632269	0.486052
	O357	O	0.989239	-0.024560	0.911558
	H358	H	0.977613	-0.020479	0.905949
	H359	H	0.999653	-0.037535	0.917745
	O360	O	0.448737	0.574242	0.527726
	H361	H	0.436211	0.586639	0.526406
	H362	H	0.462924	0.568182	0.523911
	O363	O	0.549337	0.375360	0.518477
	H364	H	0.552873	0.367666	0.511787
	H365	H	0.542156	0.374628	0.524604
	O366	O	0.954742	0.982358	1.072764
	H367	H	0.951561	0.992489	1.080209
	H368	H	0.967580	0.991357	1.076000
	O369	O	1.009719	0.006186	1.104975
	H370	H	1.005075	0.007741	1.115439
	H371	H	1.012812	0.021299	1.103675
	O372	O	-0.000335	-0.067180	-0.138959
	H373	H	0.012817	-0.066339	-0.146304
	H374	H	-0.009718	-0.077958	-0.125372
	O375	O	0.976056	-0.037367	0.047263
	H376	H	0.971829	-0.039160	0.056418
	H377	H	0.976310	-0.034097	0.069059
	O378	O	0.542128	0.464896	0.384131
	H379	H	0.544327	0.463319	0.384415
	H380	H	0.542546	0.470001	0.381440
	O381	O	1.136464	0.992755	0.066145
	H382	H	1.132037	0.980001	0.066483
	H383	H	1.137454	0.977664	0.071570
