data_Molecule from HDF5

_cell_length_a		16.150659
_cell_length_b		16.292551
_cell_length_c		16.289960
_cell_angle_alpha	90.057345
_cell_angle_beta	89.850931
_cell_angle_gamma	89.662888
_symmetry_space_group_name_H-M	'P 1'
_symmetry_Int_Tables_number		1

loop_
	_symmetry_equiv_pos_as_xyz
	x,y,z

loop_
	_atom_site_label
	_atom_site_type_symbol
	_atom_site_fract_x
	_atom_site_fract_y
	_atom_site_fract_z
	H0	H	0.390940	0.830048	0.709533
	H1	H	0.586760	0.157556	0.708027
	H2	H	0.593004	0.830968	0.277930
	H3	H	0.388719	0.156883	0.278198
	H4	H	0.704816	0.395455	0.828489
	H5	H	0.702858	0.589372	0.157747
	H6	H	0.278044	0.591255	0.829228
	H7	H	0.276967	0.395863	0.156537
	H8	H	0.826601	0.708645	0.393865
	H9	H	0.156185	0.704796	0.591365
	H10	H	0.824859	0.282977	0.590899
	H11	H	0.155148	0.276795	0.393322
	H12	H	0.826232	0.395705	0.708354
	H13	H	0.156046	0.590269	0.705580
	H14	H	0.825852	0.592595	0.280469
	H15	H	0.155120	0.391666	0.277435
	H16	H	0.390593	0.709644	0.830760
	H17	H	0.591637	0.709681	0.156157
	H18	H	0.592624	0.276328	0.830339
	H19	H	0.392258	0.279486	0.157156
	H20	H	0.705953	0.830153	0.395349
	H21	H	0.701213	0.158113	0.590716
	H22	H	0.277875	0.828878	0.591675
	H23	H	0.274219	0.157152	0.395912
	H24	H	0.892297	0.329662	0.207945
	H25	H	0.089437	0.657345	0.208584
	H26	H	0.092365	0.330557	0.777633
	H27	H	0.891822	0.657495	0.780301
	H28	H	0.205663	0.894289	0.330171
	H29	H	0.200916	0.088267	0.658785
	H30	H	0.777043	0.090931	0.329193
	H31	H	0.777844	0.897663	0.658252
	H32	H	0.326625	0.208900	0.895046
	H33	H	0.655772	0.206052	0.091852
	H34	H	0.326477	0.780274	0.093152
	H35	H	0.655649	0.778861	0.894383
	H36	H	0.326124	0.895536	0.208797
	H37	H	0.655227	0.091791	0.208019
	H38	H	0.325168	0.092073	0.782321
	H39	H	0.655078	0.893673	0.779258
	H40	H	0.889129	0.209916	0.329943
	H41	H	0.088358	0.208238	0.657167
	H42	H	0.092182	0.776342	0.330259
	H43	H	0.891827	0.778524	0.657393
	H44	H	0.206600	0.329818	0.894797
	H45	H	0.204352	0.657275	0.091067
	H46	H	0.778807	0.328048	0.089992
	H47	H	0.776086	0.657188	0.896233
	H48	H	0.399047	0.107852	0.588026
	H49	H	0.588485	0.875619	0.587202
	H50	H	0.585510	0.111857	0.398406
	H51	H	0.393661	0.878044	0.406951
	H52	H	0.576857	0.400734	0.107762
	H53	H	0.581751	0.580086	0.879274
	H54	H	0.391641	0.587139	0.111406
	H55	H	0.399101	0.405491	0.877899
	H56	H	0.108242	0.578755	0.395443
	H57	H	0.873946	0.589178	0.582994
	H58	H	0.108603	0.399244	0.584778
	H59	H	0.878436	0.409580	0.410116
	H60	H	0.108075	0.400398	0.585883
	H61	H	0.873835	0.582961	0.587158
	H62	H	0.111043	0.591227	0.398621
	H63	H	0.871936	0.407532	0.388737
	H64	H	0.401127	0.582430	0.107863
	H65	H	0.577571	0.590112	0.877041
	H66	H	0.586911	0.389853	0.112771
	H67	H	0.405378	0.396363	0.877485
	H68	H	0.578248	0.109497	0.398754
	H69	H	0.580703	0.876834	0.590931
	H70	H	0.392739	0.110827	0.585702
	H71	H	0.396023	0.874346	0.392508
	H72	H	0.901748	0.607705	0.086614
	H73	H	0.089710	0.376976	0.082566
	H74	H	0.075652	0.603886	0.912758
	H75	H	0.898067	0.373572	0.888825
	H76	H	0.074337	0.906832	0.605892
	H77	H	0.075723	0.076906	0.381438
	H78	H	0.898613	0.086171	0.608783
	H79	H	0.897951	0.904354	0.377933
	H80	H	0.606127	0.075020	0.898041
	H81	H	0.368632	0.089210	0.096241
	H82	H	0.607128	0.899193	0.081093
	H83	H	0.374219	0.908384	0.898354
	H84	H	0.606335	0.905211	0.086621
	H85	H	0.373232	0.093718	0.078707
	H86	H	0.612207	0.090203	0.893097
	H87	H	0.369321	0.894834	0.896691
	H88	H	0.897964	0.092624	0.609638
	H89	H	0.077647	0.095853	0.376444
	H90	H	0.080250	0.885001	0.613953
	H91	H	0.903010	0.897447	0.378286
	H92	H	0.100675	0.616260	0.899645
	H93	H	0.083344	0.375735	0.091577
	H94	H	0.893209	0.609741	0.083126
	H95	H	0.908634	0.379989	0.902945
	H96	H	0.395123	0.111549	0.592313
	H97	H	0.582346	0.878390	0.583233
	H98	H	0.582300	0.109617	0.404241
	H99	H	0.407338	0.879240	0.401643
	H100	H	0.591076	0.404801	0.110174
	H101	H	0.588718	0.587698	0.875579
	H102	H	0.400822	0.592052	0.110546
	H103	H	0.395000	0.395633	0.873848
	H104	H	0.105912	0.583340	0.407811
	H105	H	0.870824	0.590180	0.590656
	H106	H	0.109425	0.397971	0.586324
	H107	H	0.870421	0.389804	0.402661
	H108	H	0.894773	0.612073	0.092171
	H109	H	0.078714	0.379786	0.082879
	H110	H	0.075262	0.612842	0.883302
	H111	H	0.889826	0.375551	0.905411
	H112	H	0.096111	0.901364	0.612171
	H113	H	0.092749	0.083688	0.374340
	H114	H	0.893341	0.088429	0.611595
	H115	H	0.894526	0.896294	0.374651
	H116	H	0.607036	0.088576	0.909284
	H117	H	0.377364	0.076542	0.084846
	H118	H	0.610478	0.897742	0.088936
	H119	H	0.375205	0.898536	0.909391
	C120	C	0.367806	0.001807	0.616568
	C121	C	0.611275	0.985356	0.615653
	C122	C	0.612521	0.002282	0.371724
	C123	C	0.368794	0.985339	0.372047
	C124	C	0.613603	0.370169	0.001750
	C125	C	0.611768	0.614400	0.985307
	C126	C	0.369536	0.615422	0.001818
	C127	C	0.370069	0.371426	0.984385
	C128	C	-0.000576	0.613998	0.372267
	C129	C	0.982217	0.614725	0.614666
	C130	C	-0.000422	0.371745	0.614651
	C131	C	0.982223	0.372102	0.371434
	C132	C	0.868950	0.501412	0.115182
	C133	C	0.112314	0.485308	0.114595
	C134	C	0.113237	0.502359	0.870813
	C135	C	0.869779	0.484818	0.871524
	C136	C	0.112599	0.869865	0.502341
	C137	C	0.110715	0.113918	0.485581
	C138	C	0.868290	0.116476	0.501615
	C139	C	0.869634	0.871640	0.485389
	C140	C	0.499408	0.114005	0.872206
	C141	C	0.482101	0.114629	0.114999
	C142	C	0.499510	0.872070	0.115129
	C143	C	0.481884	0.871516	0.872133
	C144	C	0.371057	0.878574	0.671040
	C145	C	0.608152	0.108499	0.670553
	C146	C	0.611944	0.879636	0.316250
	C147	C	0.369104	0.108060	0.316392
	C148	C	0.668104	0.373867	0.877879
	C149	C	0.666104	0.610742	0.108598
	C150	C	0.315094	0.612252	0.878390
	C151	C	0.314854	0.375077	0.107767
	C152	C	0.875870	0.670683	0.373869
	C153	C	0.106656	0.668280	0.611915
	C154	C	0.874528	0.319309	0.611679
	C155	C	0.106013	0.315371	0.373365
	C156	C	0.875499	0.375254	0.670191
	C157	C	0.106734	0.610812	0.668418
	C158	C	0.875322	0.612677	0.317642
	C159	C	0.106217	0.372604	0.315746
	C160	C	0.370946	0.671244	0.879276
	C161	C	0.610755	0.670559	0.107736
	C162	C	0.611984	0.314892	0.878596
	C163	C	0.371991	0.317075	0.107888
	C164	C	0.667998	0.879243	0.374928
	C165	C	0.664656	0.108887	0.611981
	C166	C	0.314673	0.878021	0.612551
	C167	C	0.312303	0.108253	0.375161
	C168	C	0.872067	0.378386	0.170165
	C169	C	0.109699	0.608393	0.170428
	C170	C	0.111787	0.379124	0.815976
	C171	C	0.871095	0.608294	0.817183
	C172	C	0.167807	0.873137	0.378979
	C173	C	0.164216	0.110023	0.609388
	C174	C	0.814009	0.112460	0.378265
	C175	C	0.814726	0.875639	0.608802
	C176	C	0.375484	0.170256	0.875163
	C177	C	0.606358	0.168946	0.112442
	C178	C	0.375517	0.817551	0.113526
	C179	C	0.605985	0.816096	0.873945
	C180	C	0.375369	0.874829	0.170812
	C181	C	0.606038	0.112313	0.170397
	C182	C	0.374857	0.112270	0.818953
	C183	C	0.605710	0.873177	0.816405
	C184	C	0.869783	0.171612	0.378766
	C185	C	0.108552	0.169852	0.608406
	C186	C	0.111502	0.814622	0.379047
	C187	C	0.871546	0.816526	0.608422
	C188	C	0.168711	0.378969	0.874289
	C189	C	0.166241	0.608817	0.111673
	C190	C	0.815586	0.377577	0.111419
	C191	C	0.813959	0.608232	0.875091
	C192	C	0.389238	0.087868	0.594969
	C193	C	0.590056	0.899038	0.593523
	C194	C	0.588954	0.088158	0.393924
	C195	C	0.392187	0.899505	0.393908
	C196	C	0.591411	0.391966	0.087752
	C197	C	0.589294	0.592451	0.899456
	C198	C	0.391402	0.593656	0.087579
	C199	C	0.392884	0.392945	0.898587
	C200	C	0.085989	0.591046	0.394172
	C201	C	0.895266	0.593664	0.593261
	C202	C	0.086311	0.392885	0.592392
	C203	C	0.895919	0.395277	0.393876
	C204	C	0.890393	0.587579	0.093493
	C205	C	0.090422	0.399460	0.092274
	C206	C	0.090507	0.588804	0.892264
	C207	C	0.892180	0.398659	0.892865
	C208	C	0.090170	0.891428	0.588267
	C209	C	0.088611	0.091862	0.399603
	C210	C	0.890190	0.095238	0.587753
	C211	C	0.891878	0.893130	0.399288
	C212	C	0.586113	0.091296	0.893852
	C213	C	0.395471	0.092907	0.093052
	C214	C	0.585695	0.894306	0.092226
	C215	C	0.395199	0.893933	0.894831
	Zn216	Zn	0.489819	-0.006596	0.744417
	Zn217	Zn	0.490910	-0.006330	0.243045
	Zn218	Zn	0.741017	0.492770	-0.006721
	Zn219	Zn	0.241240	0.493861	-0.006993
	Zn220	Zn	-0.008916	0.741865	0.493312
	Zn221	Zn	-0.010166	0.244448	0.493134
	Zn222	Zn	-0.008960	0.493871	0.742816
	Zn223	Zn	-0.008907	0.493553	0.243750
	Zn224	Zn	0.490910	0.744001	-0.006109
	Zn225	Zn	0.491374	0.242285	-0.006582
	Zn226	Zn	0.740018	-0.005743	0.493674
	Zn227	Zn	0.240206	-0.007616	0.494259
	N228	N	0.403355	0.956490	0.673605
	N229	N	0.575571	0.030670	0.672719
	N230	N	0.577801	0.957269	0.314284
	N231	N	0.403623	0.030621	0.314404
	N232	N	0.669300	0.407562	0.955401
	N233	N	0.666895	0.576525	0.031439
	N234	N	0.314042	0.578046	0.955447
	N235	N	0.313588	0.408272	0.030080
	N236	N	0.953903	0.671269	0.407431
	N237	N	0.028291	0.670680	0.579149
	N238	N	0.952620	0.317185	0.577670
	N239	N	0.027755	0.314849	0.407245
	N240	N	0.954162	0.407125	0.672268
	N241	N	0.028418	0.578026	0.670205
	N242	N	0.953345	0.578122	0.316472
	N243	N	0.028348	0.407133	0.314394
	N244	N	0.404305	0.673208	0.956867
	N245	N	0.577525	0.672660	0.030054
	N246	N	0.578948	0.312394	0.956567
	N247	N	0.405643	0.314531	0.030273
	N248	N	0.668365	0.956571	0.408674
	N249	N	0.666949	0.031104	0.578869
	N250	N	0.312735	0.955577	0.579126
	N251	N	0.312105	0.030940	0.409160
	N252	N	0.904229	0.456374	0.172900
	N253	N	0.076791	0.530675	0.172134
	N254	N	0.078179	0.456909	0.813635
	N255	N	0.905139	0.530672	0.814995
	N256	N	0.168786	0.906767	0.456474
	N257	N	0.165825	0.076173	0.531956
	N258	N	0.812922	0.078899	0.455708
	N259	N	0.813555	0.909276	0.531413
	N260	N	0.453937	0.171385	0.907934
	N261	N	0.528175	0.170603	0.078926
	N262	N	0.453681	0.815741	0.079759
	N263	N	0.527893	0.814871	0.907738
	N264	N	0.453529	0.908040	0.172175
	N265	N	0.527854	0.079147	0.171960
	N266	N	0.452832	0.078074	0.817087
	N267	N	0.527396	0.906932	0.815092
	N268	N	0.902611	0.174315	0.456578
	N269	N	0.075985	0.172425	0.530373
	N270	N	0.078023	0.812376	0.456757
	N271	N	0.904734	0.813850	0.530603
	N272	N	0.169637	0.456664	0.907628
	N273	N	0.168057	0.531385	0.077673
	N274	N	0.813671	0.455029	0.077818
	N275	N	0.812741	0.530431	0.908064
	O276	O	0.467010	0.551657	0.481958
	H277	H	0.462212	0.546632	0.483149
	H278	H	0.469050	0.559620	0.476875
	O279	O	0.563823	0.475626	0.479132
	H280	H	0.574281	0.469085	0.485836
	H281	H	0.554157	0.474203	0.477309
	O282	O	0.495521	0.491879	0.558540
	H283	H	0.495798	0.505201	0.552841
	H284	H	0.482144	0.486753	0.557759
	O285	O	0.460002	1.497865	0.524007
	H286	H	0.461816	1.512626	0.529095
	H287	H	0.464725	1.491428	0.520644
	O288	O	0.441431	0.537958	0.491286
	H289	H	0.439909	0.541073	0.500006
	H290	H	0.444043	0.540967	0.500661
	O291	O	-0.005338	0.051171	1.046554
	H292	H	-0.003206	0.042323	1.050492
	H293	H	-0.002627	0.061670	1.049394
	O294	O	0.989071	0.082336	0.980556
	H295	H	0.981429	0.081300	0.986504
	H296	H	0.988686	0.086631	0.973440
	O297	O	0.563336	0.482836	0.400481
	H298	H	0.580263	0.477479	0.396843
	H299	H	0.565280	0.473297	0.398612
	O300	O	0.544127	0.444366	0.468763
	H301	H	0.556133	0.448861	0.467626
	H302	H	0.547018	0.433052	0.466710
	O303	O	-0.089394	1.028978	-0.025271
	H304	H	-0.093104	1.027908	-0.027944
	H305	H	-0.103883	1.036315	-0.022742
	O306	O	0.476547	0.579439	1.501697
	H307	H	0.483518	0.568650	1.496536
	H308	H	0.481747	0.584851	1.500036
	O309	O	0.526408	0.469557	0.476644
	H310	H	0.529792	0.466784	0.484457
	H311	H	0.514772	0.470760	0.475602
	O312	O	0.527421	0.513358	0.463560
	H313	H	0.518530	0.505131	0.470271
	H314	H	0.515505	0.513523	0.460532
	O315	O	0.957708	0.013829	0.982079
	H316	H	0.963278	0.022711	0.989304
	H317	H	0.961660	0.011413	0.979268
	O318	O	0.051695	0.009656	-0.020787
	H319	H	0.045805	0.017022	-0.027678
	H320	H	0.052338	0.005699	-0.022478
	O321	O	0.994804	1.086913	1.016728
	H322	H	0.990718	1.097156	1.018165
	H323	H	1.008270	1.085129	1.019864
	O324	O	0.988276	0.022940	0.014707
	H325	H	0.981889	0.026626	0.000442
	H326	H	0.991183	0.015023	0.021729
	O327	O	1.591658	0.448743	0.409462
	H328	H	1.579917	0.450329	0.408294
	H329	H	1.588797	0.458295	0.409388
	O330	O	0.481940	0.578006	0.464132
	H331	H	0.480592	0.579299	0.464832
	H332	H	0.482578	0.586587	0.455745
	O333	O	0.446106	0.525506	0.527778
	H334	H	0.445209	0.527005	0.526131
	H335	H	0.445024	0.525124	0.532267
