data_Molecule from HDF5

_cell_length_a		16.564886
_cell_length_b		16.677538
_cell_length_c		16.685695
_cell_angle_alpha	90.069652
_cell_angle_beta	90.020184
_cell_angle_gamma	89.833079
_symmetry_space_group_name_H-M	'P 1'
_symmetry_Int_Tables_number		1

loop_
	_symmetry_equiv_pos_as_xyz
	x,y,z

loop_
	_atom_site_label
	_atom_site_type_symbol
	_atom_site_fract_x
	_atom_site_fract_y
	_atom_site_fract_z
	H0	H	0.415116	0.824950	0.719082
	H1	H	0.622013	0.136692	0.723391
	H2	H	0.622805	0.827406	0.279168
	H3	H	0.409366	0.135275	0.278761
	H4	H	0.738712	0.374847	0.846505
	H5	H	0.734719	0.583024	0.157587
	H6	H	0.296173	0.585714	0.846248
	H7	H	0.295989	0.378984	0.157244
	H8	H	0.859590	0.702031	0.398132
	H9	H	0.173702	0.700266	0.604805
	H10	H	0.860307	0.260704	0.606625
	H11	H	0.175520	0.264971	0.401072
	H12	H	0.860278	0.377024	0.722277
	H13	H	0.172114	0.585835	0.722157
	H14	H	0.858497	0.584052	0.283816
	H15	H	0.174587	0.379953	0.284259
	H16	H	0.412381	0.701545	0.845928
	H17	H	0.618386	0.699799	0.157401
	H18	H	0.623139	0.258137	0.847138
	H19	H	0.407936	0.257515	0.154383
	H20	H	0.737315	0.826875	0.397449
	H21	H	0.735584	0.138168	0.604582
	H22	H	0.300631	0.823516	0.601200
	H23	H	0.295093	0.136631	0.396569
	H24	H	0.912722	0.324648	0.220814
	H25	H	0.114407	0.639643	0.218428
	H26	H	0.123436	0.326197	0.780070
	H27	H	0.912326	0.636970	0.782142
	H28	H	0.231945	0.882235	0.343086
	H29	H	0.235260	0.082846	0.657980
	H30	H	0.795453	0.087941	0.346746
	H31	H	0.798814	0.881176	0.658331
	H32	H	0.358977	0.202874	0.896500
	H33	H	0.670706	0.205747	0.108688
	H34	H	0.360694	0.762793	0.105016
	H35	H	0.675075	0.764403	0.899900
	H36	H	0.361006	0.878928	0.221003
	H37	H	0.669860	0.093094	0.226603
	H38	H	0.359875	0.087294	0.780468
	H39	H	0.675072	0.880618	0.784180
	H40	H	0.912383	0.202737	0.346248
	H41	H	0.121432	0.201734	0.657398
	H42	H	0.117111	0.764649	0.344243
	H43	H	0.914209	0.763606	0.657448
	H44	H	0.237200	0.326306	0.899023
	H45	H	0.228922	0.641568	0.100127
	H46	H	0.797026	0.324324	0.103870
	H47	H	0.796915	0.637443	0.899115
	H48	H	0.429094	0.093823	0.596503
	H49	H	0.603521	0.871597	0.591702
	H50	H	0.601726	0.089685	0.418159
	H51	H	0.428288	0.871482	0.413604
	H52	H	0.605441	0.392147	0.112740
	H53	H	0.602904	0.573749	0.890055
	H54	H	0.425652	0.573335	0.113654
	H55	H	0.425245	0.398569	0.892335
	H56	H	0.129153	0.573482	0.409773
	H57	H	0.903046	0.573209	0.593990
	H58	H	0.129251	0.390183	0.591237
	H59	H	0.904314	0.394909	0.408174
	H60	H	0.127158	0.392003	0.589115
	H61	H	0.904245	0.574188	0.588353
	H62	H	0.129286	0.572698	0.410772
	H63	H	0.902297	0.386862	0.409399
	H64	H	0.425197	0.575423	0.114544
	H65	H	0.609213	0.574690	0.886861
	H66	H	0.604037	0.396860	0.109928
	H67	H	0.433901	0.393817	0.893116
	H68	H	0.609821	0.094733	0.412926
	H69	H	0.609511	0.870851	0.589667
	H70	H	0.429631	0.090085	0.586804
	H71	H	0.421800	0.868311	0.409744
	H72	H	0.926422	0.591139	0.087925
	H73	H	0.099886	0.371249	0.095859
	H74	H	0.102950	0.590559	0.916891
	H75	H	0.924903	0.369551	0.914916
	H76	H	0.106507	0.888929	0.613902
	H77	H	0.107642	0.081082	0.386664
	H78	H	0.927174	0.074562	0.613729
	H79	H	0.928118	0.889626	0.389593
	H80	H	0.630146	0.075363	0.909515
	H81	H	0.405539	0.069789	0.090097
	H82	H	0.630661	0.889872	0.093973
	H83	H	0.405602	0.891085	0.913139
	H84	H	0.628949	0.889483	0.087081
	H85	H	0.405034	0.070189	0.086914
	H86	H	0.625405	0.071464	0.918531
	H87	H	0.403447	0.893694	0.907087
	H88	H	0.925536	0.071344	0.613177
	H89	H	0.113343	0.067323	0.389050
	H90	H	0.110303	0.888566	0.614300
	H91	H	0.923585	0.891655	0.389391
	H92	H	0.109905	0.594951	0.910735
	H93	H	0.111102	0.370647	0.085890
	H94	H	0.919993	0.595001	0.094524
	H95	H	0.928547	0.368966	0.907678
	H96	H	0.420754	0.094308	0.590519
	H97	H	0.608032	0.869539	0.595880
	H98	H	0.600247	0.093755	0.408036
	H99	H	0.429125	0.869040	0.405633
	H100	H	0.600549	0.392685	0.110033
	H101	H	0.607743	0.568620	0.890286
	H102	H	0.423381	0.574029	0.114539
	H103	H	0.426521	0.389420	0.888971
	H104	H	0.129515	0.572373	0.410044
	H105	H	0.905402	0.568701	0.590540
	H106	H	0.127773	0.393463	0.592241
	H107	H	0.905448	0.391592	0.415564
	H108	H	0.928685	0.593034	0.097653
	H109	H	0.113465	0.365783	0.099950
	H110	H	0.100580	0.593028	0.907516
	H111	H	0.932366	0.372014	0.913945
	H112	H	0.109256	0.891908	0.613163
	H113	H	0.099229	0.070687	0.393603
	H114	H	0.929796	0.071598	0.612508
	H115	H	0.927668	0.894442	0.390873
	H116	H	0.626998	0.065056	0.910030
	H117	H	0.406643	0.067574	0.087720
	H118	H	0.628633	0.895534	0.091158
	H119	H	0.401811	0.887077	0.908160
	C120	C	0.395917	-0.010742	0.621839
	C121	C	0.638631	0.973436	0.623733
	C122	C	0.637059	-0.009551	0.380320
	C123	C	0.394847	0.972624	0.379016
	C124	C	0.636987	0.360372	0.009427
	C125	C	0.637182	0.602403	0.992553
	C126	C	0.394149	0.604647	0.010773
	C127	C	0.395459	0.361440	0.993559
	C128	C	0.024729	0.603091	0.380324
	C129	C	1.007760	0.603048	0.622533
	C130	C	0.024623	0.360624	0.622762
	C131	C	1.008671	0.360939	0.380959
	C132	C	0.894698	0.489096	0.123276
	C133	C	0.137511	0.473661	0.123081
	C134	C	0.137612	0.490221	0.879973
	C135	C	0.895890	0.472778	0.880677
	C136	C	0.138085	0.860476	0.509583
	C137	C	0.138208	0.103264	0.493019
	C138	C	0.895645	0.103756	0.509954
	C139	C	0.895659	0.861289	0.493179
	C140	C	0.524016	0.102785	0.880523
	C141	C	0.507619	0.103350	0.122099
	C142	C	0.525813	0.860542	0.122393
	C143	C	0.508389	0.860599	0.879918
	C144	C	0.395804	0.871699	0.679971
	C145	C	0.640341	0.090421	0.683169
	C146	C	0.640523	0.873902	0.319927
	C147	C	0.391693	0.089287	0.319382
	C148	C	0.697988	0.357125	0.892903
	C149	C	0.695459	0.602588	0.110462
	C150	C	0.335417	0.604939	0.893172
	C151	C	0.335261	0.359595	0.110229
	C152	C	0.906505	0.662012	0.379822
	C153	C	0.126063	0.661261	0.623762
	C154	C	0.907306	0.300594	0.625147
	C155	C	0.127564	0.303499	0.381238
	C156	C	0.907165	0.358556	0.682518
	C157	C	0.125432	0.604229	0.682001
	C158	C	0.905891	0.603454	0.323064
	C159	C	0.127295	0.360822	0.323345
	C160	C	0.393516	0.662223	0.892953
	C161	C	0.637626	0.660410	0.110523
	C162	C	0.640684	0.298991	0.893293
	C163	C	0.390963	0.299654	0.109001
	C164	C	0.697590	0.873661	0.378454
	C165	C	0.696890	0.090947	0.624273
	C166	C	0.338789	0.871073	0.621318
	C167	C	0.335073	0.089694	0.378034
	C168	C	0.894068	0.371583	0.181355
	C169	C	0.134833	0.592646	0.179333
	C170	C	0.140883	0.373065	0.820636
	C171	C	0.893644	0.590146	0.821847
	C172	C	0.193700	0.862271	0.390463
	C173	C	0.196207	0.102752	0.610978
	C174	C	0.835627	0.105927	0.393247
	C175	C	0.838028	0.861824	0.611181
	C176	C	0.406181	0.162949	0.878416
	C177	C	0.623865	0.165383	0.126248
	C178	C	0.407785	0.802346	0.123904
	C179	C	0.627532	0.803285	0.880535
	C180	C	0.408015	0.860110	0.181265
	C181	C	0.623372	0.109205	0.185050
	C182	C	0.406536	0.105561	0.820616
	C183	C	0.627583	0.861376	0.823353
	C184	C	0.893829	0.163086	0.393100
	C185	C	0.139484	0.161718	0.610690
	C186	C	0.136725	0.803878	0.391088
	C187	C	0.895354	0.803425	0.610842
	C188	C	0.197551	0.373064	0.879526
	C189	C	0.191804	0.593493	0.120781
	C190	C	0.836668	0.371264	0.123056
	C191	C	0.836495	0.590382	0.880201
	C192	C	0.419672	0.071396	0.598085
	C193	C	0.614161	0.891818	0.599276
	C194	C	0.611198	0.071675	0.405599
	C195	C	0.419595	0.890906	0.402825
	C196	C	0.610716	0.386566	0.090169
	C197	C	0.613296	0.578926	0.910390
	C198	C	0.417856	0.581157	0.092932
	C199	C	0.421391	0.386688	0.912498
	C200	C	0.107639	0.579379	0.403506
	C201	C	0.925551	0.578808	0.598049
	C202	C	0.106766	0.384932	0.598004
	C203	C	0.925699	0.384407	0.404305
	C204	C	0.918271	0.571523	0.099987
	C205	C	0.114988	0.390883	0.100329
	C206	C	0.111772	0.571722	0.904718
	C207	C	0.921304	0.391214	0.905107
	C208	C	0.115182	0.883123	0.592228
	C209	C	0.113793	0.079648	0.411065
	C210	C	0.920343	0.079393	0.591724
	C211	C	0.919720	0.884900	0.411267
	C212	C	0.606162	0.077667	0.905531
	C213	C	0.426728	0.076650	0.095743
	C214	C	0.607905	0.884697	0.097756
	C215	C	0.425204	0.883968	0.902994
	Zn216	Zn	0.516496	-0.017809	0.751828
	Zn217	Zn	0.516897	-0.017418	0.250653
	Zn218	Zn	0.766356	0.480706	0.001205
	Zn219	Zn	0.266262	0.482523	0.002003
	Zn220	Zn	0.017073	0.731666	0.501194
	Zn221	Zn	0.016954	0.232112	0.501746
	Zn222	Zn	0.016480	0.481292	0.751153
	Zn223	Zn	0.016222	0.481558	0.252088
	Zn224	Zn	0.516729	0.732331	0.001057
	Zn225	Zn	0.515511	0.231683	0.001065
	Zn226	Zn	0.766616	-0.017300	0.501345
	Zn227	Zn	0.266905	-0.018954	0.501166
	N228	N	0.430278	0.946388	0.680785
	N229	N	0.604795	0.016253	0.683061
	N230	N	0.604077	0.947769	0.320651
	N231	N	0.428337	0.015552	0.319708
	N232	N	0.695902	0.394611	0.966155
	N233	N	0.695696	0.567322	0.036022
	N234	N	0.335408	0.570030	0.967518
	N235	N	0.338015	0.397523	0.037371
	N236	N	0.981607	0.662025	0.414633
	N237	N	0.051675	0.660960	0.587565
	N238	N	0.981591	0.301482	0.588862
	N239	N	0.052619	0.303193	0.416149
	N240	N	0.981203	0.395161	0.681181
	N241	N	0.050731	0.568789	0.681605
	N242	N	0.980534	0.567558	0.322997
	N243	N	0.052023	0.395697	0.322738
	N244	N	0.429140	0.662503	0.967233
	N245	N	0.602380	0.660683	0.036049
	N246	N	0.603575	0.300652	0.966882
	N247	N	0.427741	0.300777	0.035386
	N248	N	0.695801	0.947296	0.415309
	N249	N	0.696244	0.017076	0.588204
	N250	N	0.338552	0.945342	0.586013
	N251	N	0.336584	0.015999	0.414139
	N252	N	0.929321	0.446072	0.181827
	N253	N	0.102183	0.517003	0.181359
	N254	N	0.104507	0.447190	0.820565
	N255	N	0.929835	0.516019	0.821886
	N256	N	0.194962	0.896393	0.465258
	N257	N	0.195756	0.067108	0.536831
	N258	N	0.836549	0.069693	0.467014
	N259	N	0.837671	0.896904	0.536791
	N260	N	0.480528	0.161618	0.914688
	N261	N	0.550737	0.161981	0.087709
	N262	N	0.482285	0.802166	0.088097
	N263	N	0.552034	0.802319	0.914742
	N264	N	0.482560	0.895627	0.180683
	N265	N	0.550053	0.071176	0.182759
	N266	N	0.480911	0.068996	0.821528
	N267	N	0.552191	0.895926	0.822434
	N268	N	0.930206	0.162250	0.466965
	N269	N	0.104276	0.162304	0.536246
	N270	N	0.103067	0.802324	0.466260
	N271	N	0.930110	0.802591	0.536306
	N272	N	0.195841	0.447084	0.915684
	N273	N	0.194018	0.518357	0.086966
	N274	N	0.836643	0.445619	0.087958
	N275	N	0.837683	0.516409	0.916177
	O276	O	0.091435	1.039586	-0.208256
	H277	H	0.078551	1.038998	-0.199807
	H278	H	0.100402	1.025743	-0.211718
	O279	O	-0.009419	0.921657	-0.173475
	H280	H	-0.023357	0.930229	-0.174607
	H281	H	-0.003465	0.935669	-0.170290
	O282	O	1.207158	0.197367	1.031141
	H283	H	1.205273	0.193951	1.028909
	H284	H	1.207529	0.206494	1.013240
	O285	O	0.489794	0.515707	0.728509
	H286	H	0.500973	0.535187	0.722967
	H287	H	0.502046	0.504995	0.737951
	O288	O	0.287737	0.708803	0.460978
	H289	H	0.298139	0.698535	0.409859
	H290	H	0.252506	0.746607	0.458754
	O291	O	0.737531	0.703488	0.552990
	H292	H	0.738286	0.706878	0.534091
	H293	H	0.742594	0.713209	0.531703
	O294	O	0.884237	-0.056251	1.110505
	H295	H	0.873709	-0.077079	1.112791
	H296	H	0.902174	-0.057875	1.110512
	O297	O	-0.025855	0.760909	-0.018993
	H298	H	-0.005062	0.760112	0.002906
	H299	H	-0.013233	0.770330	-0.029177
	O300	O	-0.168485	0.169714	1.188106
	H301	H	-0.165927	0.147907	1.172982
	H302	H	-0.150185	0.162399	1.188689
	O303	O	0.644938	0.678692	0.390450
	H304	H	0.630192	0.660979	0.399828
	H305	H	0.628048	0.664745	0.405742
	O306	O	0.635250	0.573563	0.516628
	H307	H	0.613628	0.569842	0.519872
	H308	H	0.630218	0.549049	0.521805
	O309	O	0.352631	0.314616	0.391875
	H310	H	0.369823	0.315724	0.406131
	H311	H	0.347140	0.337738	0.409381
	O312	O	0.704400	0.325855	0.686139
	H313	H	0.675358	0.342194	0.682819
	H314	H	0.706793	0.341710	0.658724
	O315	O	0.827266	0.879479	0.954401
	H316	H	0.841986	0.882194	0.964426
	H317	H	0.826997	0.891398	0.965049
	O318	O	0.475714	0.469529	0.352951
	H319	H	0.468937	0.471830	0.343519
	H320	H	0.480597	0.461860	0.369676
	O321	O	0.057443	0.776719	0.795300
	H322	H	0.051855	0.768899	0.778347
	H323	H	0.053700	0.786123	0.798384
	O324	O	0.858387	1.031432	0.141626
	H325	H	0.857556	1.021311	0.154954
	H326	H	0.859664	1.026088	0.147392
	O327	O	-0.211267	-0.042779	1.223659
	H328	H	-0.220143	-0.072406	1.237010
	H329	H	-0.218761	-0.050027	1.234297
	O330	O	0.574096	0.543654	0.273310
	H331	H	0.580268	0.525174	0.272094
	H332	H	0.565332	0.524979	0.280092
	O333	O	0.241113	0.945674	0.778328
	H334	H	0.264820	0.941617	0.749281
	H335	H	0.233103	0.919831	0.782910
	O336	O	0.296333	0.448826	0.723727
	H337	H	0.285286	0.434928	0.734285
	H338	H	0.294299	0.449278	0.727623
	O339	O	0.802336	0.194170	0.969720
	H340	H	0.802418	0.180770	0.975368
	H341	H	0.787122	0.205474	0.973695
	O342	O	-0.060493	-0.001271	-0.125215
	H343	H	-0.064169	-0.014139	-0.118040
	H344	H	-0.043960	0.001230	-0.134924
	O345	O	0.075857	0.778024	1.055929
	H346	H	0.077114	0.786356	1.040288
	H347	H	0.083662	0.769330	1.055538
	O348	O	-0.190520	0.191723	-0.204353
	H349	H	-0.182849	0.193380	-0.168990
	H350	H	-0.196537	0.216769	-0.227542
	O351	O	0.628443	0.276101	0.473324
	H352	H	0.629114	0.276661	0.465362
	H353	H	0.633343	0.289069	0.493166
	O354	O	-0.204861	-0.236268	1.044264
	H355	H	-0.196861	-0.235784	1.040915
	H356	H	-0.218875	-0.248686	1.034506
	O357	O	0.511189	0.690765	0.447846
	H358	H	0.495825	0.696403	0.448575
	H359	H	0.503018	0.681259	0.452804
	O360	O	0.313441	0.574982	0.546348
	H361	H	0.302535	0.581685	0.542308
	H362	H	0.324782	0.591414	0.532414
	O363	O	0.314261	0.251198	0.527003
	H364	H	0.303073	0.254452	0.561208
	H365	H	0.295776	0.237554	0.523384
	O366	O	0.267681	0.234212	0.252921
	H367	H	0.278690	0.231268	0.246730
	H368	H	0.296147	0.262898	0.274885
	O369	O	0.486178	0.259974	0.719056
	H370	H	0.478704	0.257948	0.734849
	H371	H	0.471075	0.260366	0.725263
	O372	O	1.238885	0.763983	-0.033865
	H373	H	1.260941	0.743105	-0.046185
	H374	H	1.241995	0.760508	-0.063710
	O375	O	1.003909	-0.232473	0.216555
	H376	H	0.976373	-0.236580	0.201800
	H377	H	1.003756	-0.229263	0.238130
	O378	O	0.034154	1.126303	0.890471
	H379	H	0.030579	1.121185	0.907187
	H380	H	0.004885	1.136782	0.887161
	O381	O	0.160980	0.926720	1.122627
	H382	H	0.156887	0.927723	1.113352
	H383	H	0.158547	0.936929	1.122325
	O384	O	0.211260	-0.206829	0.191855
	H385	H	0.195963	-0.182449	0.169851
	H386	H	0.185006	-0.191982	0.181490
	O387	O	1.289755	1.521010	0.271432
	H388	H	1.269999	1.530273	0.254795
	H389	H	1.280111	1.553461	0.267357
	O390	O	0.305438	0.690055	0.291386
	H391	H	0.354512	0.692076	0.283877
	H392	H	0.277037	0.724731	0.257054
	O393	O	0.530385	0.416636	0.337742
	H394	H	0.519350	0.417287	0.330889
	H395	H	0.535537	0.408639	0.340082
	O396	O	-0.277977	0.531847	0.723153
	H397	H	-0.255396	0.541025	0.737718
	H398	H	-0.272418	0.569544	0.714188
	O399	O	-0.102991	0.090485	0.999509
	H400	H	-0.092694	0.072749	1.006938
	H401	H	-0.098251	0.091632	1.016262
	O402	O	0.726376	0.275007	0.290440
	H403	H	0.743148	0.258221	0.291260
	H404	H	0.711159	0.276145	0.295475
	O405	O	1.085160	0.117805	1.218393
	H406	H	1.106065	0.146115	1.233351
	H407	H	1.081771	0.115579	1.202597
	O408	O	0.244530	0.041217	-0.045619
	H409	H	0.245591	0.038040	-0.056686
	H410	H	0.248947	0.031134	-0.045103
	O411	O	0.746267	0.364718	0.475666
	H412	H	0.749208	0.370367	0.471248
	H413	H	0.747033	0.352211	0.484357
	O414	O	0.488684	0.281713	0.515592
	H415	H	0.479524	0.285878	0.529038
	H416	H	0.488486	0.279789	0.517164
	O417	O	0.464619	0.670328	0.604564
	H418	H	0.462028	0.661978	0.607117
	H419	H	0.471400	0.677922	0.623647
	O420	O	0.710745	0.538434	0.402034
	H421	H	0.707752	0.520787	0.397313
	H422	H	0.701612	0.517572	0.406740
	O423	O	0.165014	-0.030231	1.038770
	H424	H	0.167145	-0.040878	1.045615
	H425	H	0.154388	-0.029334	1.043818
	O426	O	0.553832	0.708613	0.730364
	H427	H	0.602514	0.697134	0.725802
	H428	H	0.556433	0.741215	0.766510
	O429	O	1.041243	0.920594	0.949024
	H430	H	1.041559	0.924129	0.957965
	H431	H	1.044344	0.922270	0.942763
	O432	O	0.511161	0.468207	0.409442
	H433	H	0.494360	0.462676	0.409788
	H434	H	0.522597	0.466366	0.426065
	O435	O	0.198321	1.165820	-0.181644
	H436	H	0.177840	1.151180	-0.167441
	H437	H	0.178998	1.148281	-0.166590
	O438	O	-0.020991	0.208741	0.020925
	H439	H	-0.035949	0.210767	0.032248
	H440	H	-0.032676	0.209049	0.031349
	O441	O	0.233581	0.019402	0.220815
	H442	H	0.230460	0.040197	0.212772
	H443	H	0.260210	0.025444	0.243569
	O444	O	0.476149	0.697544	0.286319
	H445	H	0.488925	0.706563	0.273810
	H446	H	0.491585	0.688499	0.291353
	O447	O	-0.267739	0.698720	0.722157
	H448	H	-0.231959	0.729482	0.747637
	H449	H	-0.259647	0.703195	0.672571
	O450	O	0.306214	1.267886	0.712979
	H451	H	0.297872	1.260150	0.733456
	H452	H	0.302570	1.273696	0.721329
	O453	O	0.737948	0.445272	0.276319
	H454	H	0.755017	0.430380	0.257789
	H455	H	0.748999	0.429390	0.278314
	O456	O	0.324125	0.669325	0.693231
	H457	H	0.335368	0.647204	0.676092
	H458	H	0.349222	0.649063	0.678831
	O459	O	0.801847	0.767356	0.213183
	H460	H	0.795317	0.770140	0.172160
	H461	H	0.769815	0.734764	0.241251
	O462	O	0.560531	0.267390	0.300460
	H463	H	0.556712	0.260255	0.297374
	H464	H	0.569898	0.260453	0.287932
	O465	O	0.984017	0.204838	-0.219710
	H466	H	0.983763	0.192627	-0.229051
	H467	H	0.978256	0.221819	-0.238819
	O468	O	0.517809	0.485697	0.600934
	H469	H	0.507725	0.481634	0.597027
	H470	H	0.519129	0.487744	0.601861
	O471	O	0.343722	0.439796	0.534474
	H472	H	0.343331	0.452998	0.531791
	H473	H	0.342801	0.427660	0.526236
	O474	O	0.327278	0.430005	0.397673
	H475	H	0.323688	0.442459	0.401657
	H476	H	0.328398	0.446574	0.382271
	O477	O	-0.158817	0.796626	1.812669
	H478	H	-0.136841	0.804451	1.838858
	H479	H	-0.148473	0.822868	1.828416
	O480	O	0.612410	0.431455	0.695474
	H481	H	0.623549	0.434968	0.696391
	H482	H	0.623775	0.441400	0.700964
	O483	O	0.692615	0.489821	0.560953
	H484	H	0.685654	0.487414	0.579666
	H485	H	0.694171	0.511728	0.559429
	O486	O	1.225276	-0.226918	0.795322
	H487	H	1.204209	-0.230020	0.785207
	H488	H	1.239224	-0.246229	0.767487
	O489	O	1.101368	0.992155	0.172310
	H490	H	1.121313	1.005424	0.174261
	H491	H	1.091776	0.994392	0.179791
	O492	O	-0.001535	-0.011198	0.032910
	H493	H	-0.008360	-0.003430	0.029039
	H494	H	0.000534	-0.007193	0.047271
	O495	O	-0.201684	1.013339	0.783537
	H496	H	-0.204175	1.045884	0.777479
	H497	H	-0.221394	1.028966	0.772105
	O498	O	1.050654	1.208771	1.225445
	H499	H	1.067290	1.220314	1.243380
	H500	H	1.085687	1.217025	1.235327
	O501	O	0.536157	0.325689	0.575288
	H502	H	0.535615	0.328417	0.573176
	H503	H	0.523398	0.311553	0.602145
