data_Molecule from HDF5

_cell_length_a		16.320934
_cell_length_b		16.526176
_cell_length_c		16.323790
_cell_angle_alpha	90.006306
_cell_angle_beta	89.783266
_cell_angle_gamma	89.903641
_symmetry_space_group_name_H-M	'P 1'
_symmetry_Int_Tables_number		1

loop_
	_symmetry_equiv_pos_as_xyz
	x,y,z

loop_
	_atom_site_label
	_atom_site_type_symbol
	_atom_site_fract_x
	_atom_site_fract_y
	_atom_site_fract_z
	H0	H	0.383816	0.838651	0.725586
	H1	H	0.600399	0.149983	0.721705
	H2	H	0.602534	0.836278	0.273529
	H3	H	0.386628	0.150351	0.274629
	H4	H	0.715419	0.390375	0.837042
	H5	H	0.716186	0.599056	0.155900
	H6	H	0.273635	0.600226	0.837393
	H7	H	0.270784	0.387144	0.155247
	H8	H	0.835925	0.717671	0.387063
	H9	H	0.150423	0.719976	0.606996
	H10	H	0.834070	0.272987	0.603543
	H11	H	0.151577	0.268081	0.385985
	H12	H	0.834905	0.387274	0.720379
	H13	H	0.153303	0.599662	0.716768
	H14	H	0.833234	0.596551	0.277478
	H15	H	0.153153	0.386422	0.273682
	H16	H	0.384693	0.719498	0.840690
	H17	H	0.603641	0.716408	0.155433
	H18	H	0.606499	0.267745	0.840818
	H19	H	0.387524	0.272457	0.156848
	H20	H	0.717212	0.835996	0.391402
	H21	H	0.716187	0.150316	0.604493
	H22	H	0.265830	0.838611	0.611889
	H23	H	0.272241	0.151554	0.393192
	H24	H	0.888659	0.335656	0.217646
	H25	H	0.101059	0.650476	0.220018
	H26	H	0.101913	0.336762	0.771995
	H27	H	0.887179	0.650876	0.772873
	H28	H	0.217438	0.888715	0.339972
	H29	H	0.211639	0.099013	0.658824
	H30	H	0.773481	0.096855	0.337460
	H31	H	0.774540	0.891004	0.658337
	H32	H	0.337475	0.219519	0.889312
	H33	H	0.654428	0.213181	0.104367
	H34	H	0.337641	0.767034	0.111569
	H35	H	0.652776	0.771377	0.891153
	H36	H	0.335007	0.888578	0.219841
	H37	H	0.654769	0.094748	0.215963
	H38	H	0.334381	0.100309	0.778088
	H39	H	0.653344	0.889168	0.778793
	H40	H	0.887026	0.212915	0.337175
	H41	H	0.100896	0.218349	0.654858
	H42	H	0.102157	0.772844	0.337834
	H43	H	0.883841	0.769067	0.654511
	H44	H	0.219406	0.337098	0.887245
	H45	H	0.216032	0.651702	0.102270
	H46	H	0.772951	0.335659	0.101595
	H47	H	0.771319	0.651671	0.889776
	H48	H	0.403389	0.105872	0.586534
	H49	H	0.581019	0.881176	0.585904
	H50	H	0.579197	0.104129	0.407661
	H51	H	0.405573	0.884180	0.416632
	H52	H	0.577632	0.405975	0.109086
	H53	H	0.589238	0.584568	0.880115
	H54	H	0.408896	0.584354	0.110454
	H55	H	0.411206	0.405722	0.884799
	H56	H	0.108248	0.585745	0.408384
	H57	H	0.879791	0.585760	0.580993
	H58	H	0.104054	0.407672	0.578519
	H59	H	0.883452	0.410282	0.411042
	H60	H	0.107032	0.407144	0.586119
	H61	H	0.883567	0.578296	0.579488
	H62	H	0.106564	0.582144	0.411792
	H63	H	0.876955	0.402686	0.398878
	H64	H	0.402913	0.580665	0.111678
	H65	H	0.580193	0.575390	0.886941
	H66	H	0.583736	0.397615	0.114029
	H67	H	0.408492	0.403300	0.883668
	H68	H	0.584511	0.105234	0.410713
	H69	H	0.583028	0.881450	0.585851
	H70	H	0.402532	0.106562	0.589248
	H71	H	0.402060	0.879286	0.408988
	H72	H	0.905785	0.607266	0.090740
	H73	H	0.079799	0.384589	0.078933
	H74	H	0.086952	0.610955	0.896901
	H75	H	0.904597	0.382232	0.910857
	H76	H	0.075245	0.895413	0.612595
	H77	H	0.079100	0.078107	0.386410
	H78	H	0.897000	0.083084	0.614158
	H79	H	0.907909	0.900447	0.382566
	H80	H	0.606332	0.081916	0.914673
	H81	H	0.378692	0.082208	0.092188
	H82	H	0.605925	0.905765	0.080235
	H83	H	0.378824	0.901669	0.912823
	H84	H	0.608343	0.906921	0.088292
	H85	H	0.378423	0.089440	0.084624
	H86	H	0.607578	0.077715	0.907638
	H87	H	0.382946	0.906168	0.919105
	H88	H	0.908664	0.078889	0.608301
	H89	H	0.080411	0.086185	0.383195
	H90	H	0.087879	0.909299	0.613593
	H91	H	0.900635	0.905785	0.382182
	H92	H	0.070621	0.601093	0.907290
	H93	H	0.088889	0.380512	0.083700
	H94	H	0.907796	0.604732	0.084078
	H95	H	0.906999	0.381433	0.906139
	H96	H	0.404890	0.105441	0.588403
	H97	H	0.582024	0.880940	0.587915
	H98	H	0.584097	0.106731	0.404756
	H99	H	0.410912	0.882866	0.409074
	H100	H	0.588541	0.407448	0.112353
	H101	H	0.575960	0.588478	0.883396
	H102	H	0.408229	0.577233	0.108496
	H103	H	0.407545	0.406844	0.884232
	H104	H	0.107299	0.580066	0.407020
	H105	H	0.880512	0.580238	0.587064
	H106	H	0.107387	0.401001	0.581199
	H107	H	0.878654	0.395354	0.412471
	H108	H	0.901184	0.607359	0.084456
	H109	H	0.079890	0.381151	0.089361
	H110	H	0.089795	0.604626	0.917720
	H111	H	0.909734	0.383893	0.909962
	H112	H	0.070726	0.912118	0.605150
	H113	H	0.086925	0.080526	0.382809
	H114	H	0.907768	0.091762	0.612991
	H115	H	0.908552	0.908853	0.385622
	H116	H	0.609847	0.085714	0.907904
	H117	H	0.382160	0.079687	0.082185
	H118	H	0.609378	0.899191	0.084780
	H119	H	0.381068	0.909607	0.911152
	C120	C	0.370233	0.002501	0.622334
	C121	C	0.614900	0.984795	0.619486
	C122	C	0.615948	0.001570	0.375376
	C123	C	0.372615	0.985623	0.377428
	C124	C	0.616767	0.371651	0.006374
	C125	C	0.615166	0.614963	0.988475
	C126	C	0.372923	0.614862	0.005941
	C127	C	0.374761	0.372632	0.988887
	C128	C	0.002025	0.614494	0.375872
	C129	C	0.985483	0.615023	0.617052
	C130	C	0.001617	0.372631	0.616572
	C131	C	0.984946	0.370208	0.373942
	C132	C	0.872313	0.501951	0.118599
	C133	C	0.115543	0.485691	0.117713
	C134	C	0.116504	0.502208	0.873753
	C135	C	0.873514	0.485986	0.875100
	C136	C	0.113665	0.872713	0.506231
	C137	C	0.114474	0.114996	0.489245
	C138	C	0.871831	0.115378	0.506045
	C139	C	0.872065	0.872067	0.488386
	C140	C	0.502957	0.115301	0.876937
	C141	C	0.486237	0.114234	0.118145
	C142	C	0.503644	0.870514	0.119755
	C143	C	0.485234	0.872555	0.879026
	C144	C	0.366079	0.885418	0.685003
	C145	C	0.618109	0.102883	0.680930
	C146	C	0.620004	0.883463	0.314331
	C147	C	0.369352	0.103332	0.315576
	C148	C	0.676547	0.370578	0.885705
	C149	C	0.676309	0.617352	0.108114
	C150	C	0.312824	0.618477	0.885812
	C151	C	0.311861	0.369284	0.107906
	C152	C	0.883037	0.676335	0.370675
	C153	C	0.103513	0.678038	0.622908
	C154	C	0.882101	0.312400	0.621322
	C155	C	0.104084	0.308940	0.369263
	C156	C	0.882667	0.369549	0.679578
	C157	C	0.105064	0.617931	0.677694
	C158	C	0.881779	0.615876	0.316154
	C159	C	0.104876	0.367937	0.313173
	C160	C	0.368149	0.678179	0.887871
	C161	C	0.619857	0.675682	0.107886
	C162	C	0.621825	0.309948	0.887262
	C163	C	0.369958	0.311936	0.108614
	C164	C	0.677211	0.883381	0.373075
	C165	C	0.675800	0.103227	0.622502
	C166	C	0.307196	0.885640	0.627944
	C167	C	0.312232	0.103954	0.374775
	C168	C	0.870503	0.383265	0.178113
	C169	C	0.118228	0.603809	0.178731
	C170	C	0.120229	0.384123	0.812086
	C171	C	0.869818	0.603906	0.813453
	C172	C	0.177011	0.869850	0.387336
	C173	C	0.172939	0.117634	0.610131
	C174	C	0.812932	0.115784	0.385589
	C175	C	0.812837	0.870993	0.609331
	C176	C	0.384459	0.177879	0.872727
	C177	C	0.606465	0.173285	0.121275
	C178	C	0.384921	0.808478	0.126811
	C179	C	0.604648	0.811547	0.873874
	C180	C	0.383601	0.868896	0.181162
	C181	C	0.606497	0.114418	0.177279
	C182	C	0.383003	0.118474	0.817110
	C183	C	0.605105	0.870357	0.817693
	C184	C	0.869388	0.173865	0.385569
	C185	C	0.117911	0.177259	0.608018
	C186	C	0.119104	0.812483	0.386169
	C187	C	0.867573	0.810490	0.607539
	C188	C	0.178688	0.384198	0.869499
	C189	C	0.176127	0.604090	0.120368
	C190	C	0.812763	0.383292	0.120054
	C191	C	0.811896	0.604090	0.871695
	C192	C	0.396158	0.084674	0.595672
	C193	C	0.589132	0.902678	0.594012
	C194	C	0.589978	0.083981	0.400550
	C195	C	0.398692	0.903468	0.403860
	C196	C	0.590797	0.396470	0.089902
	C197	C	0.589107	0.590002	0.905289
	C198	C	0.399103	0.588259	0.088628
	C199	C	0.401496	0.398029	0.905967
	C200	C	0.085524	0.589773	0.401663
	C201	C	0.902968	0.588711	0.590334
	C202	C	0.084494	0.398067	0.589580
	C203	C	0.901606	0.395550	0.400104
	C204	C	0.897567	0.584977	0.093706
	C205	C	0.090238	0.403377	0.091476
	C206	C	0.090265	0.584087	0.899995
	C207	C	0.899680	0.403853	0.901500
	C208	C	0.086098	0.898041	0.588696
	C209	C	0.089526	0.089192	0.406022
	C210	C	0.897074	0.091373	0.590091
	C211	C	0.898290	0.897510	0.405050
	C212	C	0.586322	0.089198	0.902504
	C213	C	0.402024	0.090562	0.093275
	C214	C	0.586204	0.896449	0.092387
	C215	C	0.402607	0.898599	0.906478
	Zn216	Zn	0.493904	-0.006626	0.749754
	Zn217	Zn	0.494234	-0.006894	0.246450
	Zn218	Zn	0.743628	0.494312	-0.003109
	Zn219	Zn	0.245200	0.493573	-0.003921
	Zn220	Zn	-0.006500	0.743486	0.496029
	Zn221	Zn	-0.006687	0.242919	0.496495
	Zn222	Zn	-0.005774	0.493705	0.745305
	Zn223	Zn	-0.005884	0.493438	0.247742
	Zn224	Zn	0.493941	0.743090	-0.001371
	Zn225	Zn	0.495581	0.243549	-0.001735
	Zn226	Zn	0.744423	-0.006162	0.497622
	Zn227	Zn	0.242623	-0.005811	0.499267
	N228	N	0.404455	0.959282	0.681715
	N229	N	0.581003	0.028333	0.679188
	N230	N	0.582441	0.957752	0.315761
	N231	N	0.406297	0.028419	0.317072
	N232	N	0.673498	0.408111	0.960789
	N233	N	0.673854	0.580379	0.032666
	N234	N	0.315556	0.579926	0.960215
	N235	N	0.314547	0.406256	0.032559
	N236	N	0.958847	0.675612	0.407047
	N237	N	0.028230	0.676313	0.585617
	N238	N	0.956969	0.314125	0.582755
	N239	N	0.028470	0.310148	0.406305
	N240	N	0.957877	0.406505	0.676546
	N241	N	0.030646	0.579278	0.673995
	N242	N	0.956848	0.578141	0.319149
	N243	N	0.029577	0.405277	0.315826
	N244	N	0.404614	0.676292	0.963742
	N245	N	0.582416	0.674197	0.032677
	N246	N	0.585437	0.310428	0.963333
	N247	N	0.408305	0.313770	0.033509
	N248	N	0.674631	0.957773	0.410651
	N249	N	0.673915	0.029026	0.584798
	N250	N	0.309698	0.959676	0.589668
	N251	N	0.313986	0.029644	0.412531
	N252	N	0.906649	0.458312	0.177334
	N253	N	0.081623	0.529087	0.177330
	N254	N	0.082648	0.458530	0.814307
	N255	N	0.907252	0.529278	0.815478
	N256	N	0.173957	0.906518	0.462752
	N257	N	0.170787	0.079517	0.535401
	N258	N	0.814020	0.080476	0.461899
	N259	N	0.815662	0.908696	0.534288
	N260	N	0.460305	0.176324	0.909026
	N261	N	0.530371	0.173406	0.085212
	N262	N	0.460545	0.809164	0.089708
	N263	N	0.529115	0.812642	0.911170
	N264	N	0.458392	0.906720	0.177008
	N265	N	0.530817	0.078173	0.175232
	N266	N	0.457783	0.080154	0.819879
	N267	N	0.529687	0.907566	0.820722
	N268	N	0.905383	0.173872	0.461561
	N269	N	0.082350	0.175965	0.531790
	N270	N	0.080561	0.813888	0.461114
	N271	N	0.903525	0.810846	0.531228
	N272	N	0.176739	0.458694	0.906895
	N273	N	0.174662	0.529349	0.083064
	N274	N	0.813617	0.458375	0.084016
	N275	N	0.813886	0.529679	0.909295
	O276	O	0.621814	0.397827	0.462571
	H277	H	0.616044	0.399152	0.445119
	H278	H	0.638567	0.390258	0.463140
	O279	O	0.691632	0.290663	0.412291
	H280	H	0.682422	0.282897	0.416185
	H281	H	0.674584	0.292522	0.417548
	O282	O	0.538774	0.442197	0.697253
	H283	H	0.551622	0.440732	0.703705
	H284	H	0.543746	0.410780	0.693560
	O285	O	1.182444	1.009222	-0.178447
	H286	H	1.160244	1.030960	-0.171800
	H287	H	1.193507	1.019182	-0.195626
	O288	O	0.470339	0.279821	0.709330
	H289	H	0.435377	0.277623	0.714209
	H290	H	0.451936	0.262600	0.720788
	O291	O	0.432448	0.551344	0.701768
	H292	H	0.432305	0.533775	0.683568
	H293	H	0.433873	0.532070	0.707696
	O294	O	0.866521	0.851959	1.182432
	H295	H	0.874274	0.850928	1.162874
	H296	H	0.861846	0.867892	1.179765
	O297	O	0.325191	0.321640	0.657337
	H298	H	0.315252	0.319950	0.615186
	H299	H	0.308558	0.368270	0.666365
	O300	O	0.308271	0.645726	0.312792
	H301	H	0.331801	0.660981	0.313867
	H302	H	0.315619	0.665364	0.345318
	O303	O	0.516157	0.711394	0.708162
	H304	H	0.497842	0.694640	0.722787
	H305	H	0.508266	0.730015	0.720191
	O306	O	-0.156548	-0.215497	1.042442
	H307	H	-0.116530	-0.217218	1.031258
	H308	H	-0.171103	-0.240923	1.050772
	O309	O	1.076749	0.069952	0.157745
	H310	H	1.044742	0.066853	0.162277
	H311	H	1.070990	0.048153	0.165420
	O312	O	0.429630	0.426946	0.459360
	H313	H	0.435222	0.429330	0.464047
	H314	H	0.427032	0.433451	0.468956
	O315	O	0.555429	0.701433	0.411900
	H316	H	0.551106	0.685408	0.383068
	H317	H	0.584439	0.717910	0.421946
	O318	O	-0.030921	-0.191487	0.142901
	H319	H	-0.047771	-0.182182	0.133192
	H320	H	-0.025401	-0.208298	0.170295
	O321	O	0.650723	0.447212	0.328717
	H322	H	0.631633	0.443761	0.324984
	H323	H	0.654082	0.431003	0.358564
	O324	O	0.956995	-0.180393	0.965970
	H325	H	0.973877	-0.175645	0.953669
	H326	H	0.985801	-0.184336	0.978395
	O327	O	0.688590	0.499648	0.697636
	H328	H	0.703138	0.496788	0.702019
	H329	H	0.697205	0.490565	0.683534
	O330	O	0.191111	1.010280	1.191406
	H331	H	0.180488	0.993536	1.175435
	H332	H	0.202195	1.007848	1.207385
	O333	O	-0.097193	1.188615	-0.194428
	H334	H	-0.101173	1.196131	-0.198372
	H335	H	-0.076433	1.178059	-0.192640
	O336	O	0.793013	1.007985	0.014273
	H337	H	0.784598	0.997863	0.025608
	H338	H	0.793316	1.018252	0.001928
	O339	O	0.210414	0.791347	0.983020
	H340	H	0.234651	0.788283	0.987564
	H341	H	0.217233	0.790188	0.948273
	O342	O	0.342626	0.582140	0.554372
	H343	H	0.353287	0.595360	0.533781
	H344	H	0.350282	0.578692	0.547698
	O345	O	-0.111728	-0.090403	0.860898
	H346	H	-0.113976	-0.103357	0.885253
	H347	H	-0.113531	-0.085233	0.858541
	O348	O	0.288362	0.465179	0.704633
	H349	H	0.284842	0.488036	0.696665
	H350	H	0.262687	0.472886	0.719635
	O351	O	1.189921	1.131659	-0.025508
	H352	H	1.179257	1.129282	-0.002524
	H353	H	1.219873	1.147712	-0.021329
	O354	O	1.009565	1.117680	1.070347
	H355	H	1.008184	1.112842	1.070921
	H356	H	1.005337	1.123746	1.088636
	O357	O	-0.210409	0.202406	-0.023092
	H358	H	-0.221156	0.210818	-0.051062
	H359	H	-0.217690	0.216024	-0.042753
	O360	O	0.481127	0.329745	0.450864
	H361	H	0.474274	0.340576	0.458824
	H362	H	0.478220	0.309870	0.461251
	O363	O	0.970225	-0.139940	0.098514
	H364	H	0.980864	-0.146240	0.113866
	H365	H	0.983517	-0.144117	0.092104
	O366	O	0.029299	0.203199	0.963363
	H367	H	0.019480	0.201402	0.975903
	H368	H	0.056099	0.204947	0.978843
	O369	O	0.802314	0.097137	0.804261
	H370	H	0.817338	0.096177	0.801690
	H371	H	0.794945	0.072650	0.790931
	O372	O	0.551264	0.529813	0.310092
	H373	H	0.544030	0.508602	0.312997
	H374	H	0.561043	0.506314	0.310974
	O375	O	-0.046478	0.009097	1.038098
	H376	H	-0.048672	0.005591	1.043072
	H377	H	-0.041643	0.014784	1.034930
	O378	O	0.706059	0.703335	0.517975
	H379	H	0.714821	0.717225	0.537984
	H380	H	0.721524	0.706478	0.532633
	O381	O	-0.098434	1.080916	0.135533
	H382	H	-0.113074	1.079854	0.118278
	H383	H	-0.118121	1.085007	0.128678
	O384	O	0.627498	0.346968	0.572189
	H385	H	0.610241	0.332925	0.578245
	H386	H	0.622604	0.373261	0.554700
	O387	O	0.676425	0.670862	0.677910
	H388	H	0.640409	0.679450	0.672514
	H389	H	0.670864	0.638068	0.689698
	O390	O	0.955049	0.980968	-0.118636
	H391	H	0.946004	0.975861	-0.101161
	H392	H	0.942907	0.976417	-0.107133
	O393	O	0.963987	0.052060	0.798772
	H394	H	0.956138	0.043810	0.805724
	H395	H	0.970793	0.052616	0.808820
	O396	O	0.693323	0.474601	0.492308
	H397	H	0.687728	0.482205	0.488093
	H398	H	0.697153	0.464697	0.487660
	O399	O	0.446862	0.391839	0.293473
	H400	H	0.431458	0.394531	0.279235
	H401	H	0.432576	0.384515	0.306013
	O402	O	1.012662	1.192749	0.199164
	H403	H	0.986203	1.196561	0.179086
	H404	H	1.014964	1.207858	0.223118
	O405	O	0.286341	0.304675	0.502910
	H406	H	0.270341	0.319040	0.493853
	H407	H	0.262813	0.310956	0.494966
	O408	O	0.622053	0.420442	0.414926
	H409	H	0.636227	0.418266	0.422012
	H410	H	0.636283	0.402547	0.420639
	O411	O	1.192247	0.946248	1.034205
	H412	H	1.190083	0.942959	1.027056
	H413	H	1.191192	0.957729	1.013733
	O414	O	0.277109	0.708962	0.475414
	H415	H	0.252347	0.743486	0.478058
	H416	H	0.309125	0.720001	0.500677
	O417	O	0.169634	0.809555	0.829783
	H418	H	0.182238	0.858795	0.817440
	H419	H	0.141480	0.803582	0.841360
	O420	O	-0.035436	0.789624	0.812108
	H421	H	-0.029907	0.799539	0.810391
	H422	H	-0.026552	0.771571	0.794553
	O423	O	0.180944	1.103168	0.018388
	H424	H	0.167494	1.112962	0.016176
	H425	H	0.175555	1.097892	0.022607
	O426	O	0.454080	0.697379	0.286851
	H427	H	0.467121	0.695280	0.277512
	H428	H	0.471098	0.699992	0.263896
	O429	O	0.303824	0.487730	0.486105
	H430	H	0.309909	0.507101	0.476322
	H431	H	0.315777	0.499913	0.475600
	O432	O	0.593397	0.336880	0.304705
	H433	H	0.575125	0.347169	0.323760
	H434	H	0.586805	0.328424	0.288876
	O435	O	0.312522	0.506886	0.289579
	H436	H	0.301524	0.516474	0.269022
	H437	H	0.315653	0.543607	0.289972
	O438	O	-0.020472	1.025781	1.043813
	H439	H	-0.007373	1.035634	1.048081
	H440	H	-0.038318	1.045090	1.030632
	O441	O	0.448619	0.706072	0.535468
	H442	H	0.468698	0.694053	0.552814
	H443	H	0.482428	0.708001	0.515680
