data_Molecule from HDF5

_cell_length_a		16.558163
_cell_length_b		16.684408
_cell_length_c		16.506155
_cell_angle_alpha	89.922015
_cell_angle_beta	90.014773
_cell_angle_gamma	90.115508
_symmetry_space_group_name_H-M	'P 1'
_symmetry_Int_Tables_number		1

loop_
	_symmetry_equiv_pos_as_xyz
	x,y,z

loop_
	_atom_site_label
	_atom_site_type_symbol
	_atom_site_fract_x
	_atom_site_fract_y
	_atom_site_fract_z
	H0	H	0.390499	0.829904	0.712931
	H1	H	0.597272	0.142255	0.714540
	H2	H	0.599953	0.831301	0.271134
	H3	H	0.388959	0.142966	0.271370
	H4	H	0.709648	0.386688	0.834916
	H5	H	0.712629	0.589987	0.151908
	H6	H	0.273883	0.590394	0.835562
	H7	H	0.270985	0.381487	0.150878
	H8	H	0.836049	0.708556	0.387182
	H9	H	0.149228	0.708144	0.598803
	H10	H	0.836992	0.266299	0.597293
	H11	H	0.150067	0.264802	0.385887
	H12	H	0.834693	0.385399	0.710310
	H13	H	0.150330	0.590552	0.713450
	H14	H	0.835021	0.590405	0.273862
	H15	H	0.149717	0.382729	0.270593
	H16	H	0.389209	0.707454	0.836124
	H17	H	0.598201	0.707272	0.151535
	H18	H	0.594473	0.269797	0.835777
	H19	H	0.384695	0.263141	0.150253
	H20	H	0.716430	0.831564	0.387533
	H21	H	0.718244	0.140109	0.601617
	H22	H	0.274359	0.830163	0.595413
	H23	H	0.271806	0.143638	0.387931
	H24	H	0.889890	0.330664	0.213509
	H25	H	0.096069	0.643419	0.212350
	H26	H	0.095423	0.330388	0.774752
	H27	H	0.893591	0.644258	0.775369
	H28	H	0.211883	0.884877	0.335417
	H29	H	0.210894	0.087773	0.652486
	H30	H	0.771674	0.092060	0.338336
	H31	H	0.778299	0.887382	0.653598
	H32	H	0.336563	0.208490	0.888829
	H33	H	0.650011	0.207491	0.097710
	H34	H	0.337392	0.764076	0.100370
	H35	H	0.649006	0.766757	0.888396
	H36	H	0.336506	0.881968	0.214778
	H37	H	0.650474	0.089756	0.212959
	H38	H	0.334986	0.089966	0.774724
	H39	H	0.650289	0.885909	0.774488
	H40	H	0.888374	0.208582	0.337783
	H41	H	0.097949	0.206625	0.651167
	H42	H	0.097658	0.766865	0.336252
	H43	H	0.892891	0.769241	0.652374
	H44	H	0.215410	0.332346	0.888611
	H45	H	0.214550	0.642666	0.098052
	H46	H	0.773361	0.330141	0.097112
	H47	H	0.775239	0.644385	0.891618
	H48	H	0.400402	0.099032	0.583468
	H49	H	0.581080	0.875508	0.587222
	H50	H	0.580902	0.096893	0.403320
	H51	H	0.400746	0.876785	0.407233
	H52	H	0.588142	0.397974	0.109259
	H53	H	0.583477	0.579141	0.880609
	H54	H	0.406035	0.571728	0.102848
	H55	H	0.403571	0.399749	0.883207
	H56	H	0.106751	0.580653	0.402809
	H57	H	0.882463	0.574829	0.581121
	H58	H	0.106118	0.395151	0.581982
	H59	H	0.883563	0.398241	0.408035
	H60	H	0.105844	0.398090	0.584839
	H61	H	0.879613	0.577125	0.586611
	H62	H	0.103262	0.577036	0.407281
	H63	H	0.882493	0.399081	0.404314
	H64	H	0.408405	0.580159	0.106311
	H65	H	0.584328	0.577328	0.880264
	H66	H	0.580087	0.399056	0.105395
	H67	H	0.407334	0.398227	0.882893
	H68	H	0.581680	0.095980	0.406970
	H69	H	0.582152	0.876965	0.581123
	H70	H	0.401494	0.100677	0.586834
	H71	H	0.403057	0.875707	0.401949
	H72	H	0.899850	0.598740	0.081907
	H73	H	0.086073	0.374024	0.084048
	H74	H	0.082808	0.600516	0.898209
	H75	H	0.898658	0.375466	0.905259
	H76	H	0.085547	0.899421	0.606404
	H77	H	0.080544	0.081998	0.380021
	H78	H	0.903365	0.081897	0.609055
	H79	H	0.903011	0.899251	0.381060
	H80	H	0.606272	0.079631	0.904466
	H81	H	0.381585	0.075322	0.082300
	H82	H	0.603188	0.899610	0.079052
	H83	H	0.384017	0.904406	0.909504
	H84	H	0.605902	0.898695	0.086349
	H85	H	0.381105	0.076179	0.082249
	H86	H	0.604779	0.077557	0.905947
	H87	H	0.377956	0.897472	0.895624
	H88	H	0.902815	0.069410	0.605887
	H89	H	0.087357	0.077336	0.379513
	H90	H	0.078800	0.895894	0.605179
	H91	H	0.905844	0.896949	0.381512
	H92	H	0.080325	0.596351	0.906355
	H93	H	0.077095	0.376906	0.085924
	H94	H	0.902764	0.599817	0.086660
	H95	H	0.897584	0.372547	0.899212
	H96	H	0.403696	0.098454	0.584349
	H97	H	0.586994	0.873798	0.584532
	H98	H	0.584482	0.097852	0.404936
	H99	H	0.406224	0.878307	0.405930
	H100	H	0.582206	0.391360	0.109285
	H101	H	0.582716	0.577905	0.881894
	H102	H	0.399962	0.576649	0.108360
	H103	H	0.403771	0.395752	0.881919
	H104	H	0.103952	0.575003	0.401096
	H105	H	0.879851	0.581094	0.581241
	H106	H	0.108012	0.394657	0.585594
	H107	H	0.882055	0.394993	0.406016
	H108	H	0.905441	0.598224	0.082000
	H109	H	0.081079	0.377837	0.076794
	H110	H	0.088792	0.599743	0.905310
	H111	H	0.903793	0.374846	0.900632
	H112	H	0.084500	0.892470	0.608606
	H113	H	0.079939	0.074344	0.382673
	H114	H	0.913424	0.076392	0.603916
	H115	H	0.903043	0.895389	0.379495
	H116	H	0.604670	0.077582	0.902813
	H117	H	0.381008	0.075612	0.081399
	H118	H	0.605842	0.893171	0.081090
	H119	H	0.379508	0.888602	0.909391
	C120	C	0.370927	-0.004472	0.615885
	C121	C	0.614868	0.978367	0.615831
	C122	C	0.614929	-0.005543	0.372695
	C123	C	0.371141	0.979247	0.371930
	C124	C	0.613793	0.366186	0.002752
	C125	C	0.614750	0.608950	0.985310
	C126	C	0.372665	0.607942	0.001779
	C127	C	0.371728	0.365420	0.986209
	C128	C	0.000790	0.608700	0.372249
	C129	C	0.984741	0.608223	0.614532
	C130	C	0.002323	0.365375	0.614786
	C131	C	0.985599	0.365677	0.372542
	C132	C	0.871421	0.495424	0.114933
	C133	C	0.113987	0.479014	0.114542
	C134	C	0.115277	0.495626	0.871752
	C135	C	0.870713	0.478369	0.871430
	C136	C	0.114546	0.864988	0.502438
	C137	C	0.114483	0.108503	0.485185
	C138	C	0.873144	0.107777	0.502666
	C139	C	0.873162	0.866179	0.485501
	C140	C	0.501304	0.108890	0.872614
	C141	C	0.484992	0.107684	0.114058
	C142	C	0.501630	0.865506	0.114746
	C143	C	0.484331	0.865903	0.872728
	C144	C	0.371271	0.877135	0.673664
	C145	C	0.616431	0.095457	0.675168
	C146	C	0.617792	0.878048	0.311735
	C147	C	0.369868	0.096325	0.311685
	C148	C	0.670728	0.367120	0.882952
	C149	C	0.673201	0.609120	0.104395
	C150	C	0.313510	0.609187	0.883112
	C151	C	0.311057	0.362881	0.103916
	C152	C	0.882944	0.668097	0.369904
	C153	C	0.102544	0.667779	0.616699
	C154	C	0.883775	0.306475	0.615595
	C155	C	0.103352	0.305582	0.368618
	C156	C	0.882771	0.365575	0.671945
	C157	C	0.102906	0.609450	0.674005
	C158	C	0.882442	0.609416	0.313153
	C159	C	0.103084	0.364022	0.311195
	C160	C	0.370873	0.667434	0.883438
	C161	C	0.616256	0.667516	0.104084
	C162	C	0.613602	0.308923	0.883200
	C163	C	0.367720	0.304260	0.103608
	C164	C	0.675887	0.878203	0.369723
	C165	C	0.676256	0.094321	0.618921
	C166	C	0.313352	0.877230	0.615472
	C167	C	0.311625	0.096579	0.369663
	C168	C	0.870682	0.377591	0.174068
	C169	C	0.115227	0.596634	0.173287
	C170	C	0.115319	0.377727	0.813573
	C171	C	0.872796	0.597127	0.814177
	C172	C	0.172779	0.865191	0.383238
	C173	C	0.172382	0.107902	0.604668
	C174	C	0.812270	0.110388	0.384965
	C175	C	0.816479	0.867138	0.605494
	C176	C	0.383031	0.167844	0.870794
	C177	C	0.603213	0.166729	0.115674
	C178	C	0.383952	0.805007	0.117857
	C179	C	0.602421	0.807010	0.870612
	C180	C	0.383507	0.863863	0.174565
	C181	C	0.603434	0.108362	0.173033
	C182	C	0.382541	0.109329	0.813959
	C183	C	0.602969	0.866131	0.814035
	C184	C	0.870023	0.168139	0.384608
	C185	C	0.116260	0.166957	0.604051
	C186	C	0.115968	0.806613	0.383608
	C187	C	0.873184	0.808484	0.604982
	C188	C	0.174791	0.378509	0.870133
	C189	C	0.173965	0.596034	0.116149
	C190	C	0.812868	0.377507	0.115916
	C191	C	0.814335	0.597297	0.871980
	C192	C	0.394936	0.077810	0.591792
	C193	C	0.590240	0.896665	0.591219
	C194	C	0.589625	0.075858	0.397858
	C195	C	0.396097	0.898032	0.397612
	C196	C	0.590079	0.389440	0.086288
	C197	C	0.590305	0.584956	0.902477
	C198	C	0.397674	0.583186	0.084404
	C199	C	0.397475	0.390623	0.904203
	C200	C	0.083344	0.584548	0.396800
	C201	C	0.902109	0.584369	0.589965
	C202	C	0.085146	0.389224	0.590990
	C203	C	0.904016	0.390356	0.398669
	C204	C	0.895604	0.577563	0.090453
	C205	C	0.088651	0.397420	0.089488
	C206	C	0.090929	0.577546	0.896227
	C207	C	0.893328	0.395785	0.895113
	C208	C	0.090040	0.889103	0.585202
	C209	C	0.089752	0.084672	0.402213
	C210	C	0.899067	0.082818	0.584820
	C211	C	0.897138	0.890178	0.402419
	C212	C	0.583911	0.085110	0.897417
	C213	C	0.402660	0.083125	0.089001
	C214	C	0.583683	0.890027	0.089529
	C215	C	0.401886	0.889923	0.897859
	Zn216	Zn	0.492632	-0.012644	0.744581
	Zn217	Zn	0.493466	-0.013442	0.243389
	Zn218	Zn	0.742297	0.487169	-0.006146
	Zn219	Zn	0.243982	0.486800	-0.005926
	Zn220	Zn	-0.006898	0.737239	0.493257
	Zn221	Zn	-0.005521	0.236872	0.493477
	Zn222	Zn	-0.006624	0.486710	0.742945
	Zn223	Zn	-0.007510	0.487460	0.243813
	Zn224	Zn	0.493576	0.736978	-0.006225
	Zn225	Zn	0.492621	0.237516	-0.006040
	Zn226	Zn	0.744552	-0.013392	0.494080
	Zn227	Zn	0.242044	-0.012861	0.493584
	N228	N	0.406147	0.951932	0.674141
	N229	N	0.578879	0.022195	0.673504
	N230	N	0.580556	0.951528	0.313406
	N231	N	0.406084	0.022458	0.312845
	N232	N	0.671139	0.401851	0.958440
	N233	N	0.672819	0.573786	0.029417
	N234	N	0.314435	0.572936	0.957864
	N235	N	0.313425	0.400250	0.029990
	N236	N	0.957704	0.667991	0.405837
	N237	N	0.028076	0.667114	0.580208
	N238	N	0.959278	0.305906	0.581057
	N239	N	0.029230	0.306263	0.405874
	N240	N	0.957584	0.401294	0.671794
	N241	N	0.028609	0.573014	0.672633
	N242	N	0.956740	0.573005	0.314565
	N243	N	0.028993	0.400793	0.313512
	N244	N	0.406771	0.666858	0.958398
	N245	N	0.580783	0.667637	0.028854
	N246	N	0.579038	0.308134	0.958938
	N247	N	0.404843	0.305797	0.029295
	N248	N	0.674065	0.951630	0.407071
	N249	N	0.675351	0.020554	0.582625
	N250	N	0.312835	0.951890	0.580393
	N251	N	0.312103	0.022613	0.406338
	N252	N	0.906125	0.452078	0.173764
	N253	N	0.078968	0.522564	0.172827
	N254	N	0.079088	0.451557	0.814457
	N255	N	0.906776	0.522111	0.813431
	N256	N	0.172201	0.900684	0.458201
	N257	N	0.171432	0.072469	0.529608
	N258	N	0.814079	0.073773	0.459417
	N259	N	0.815963	0.902040	0.530050
	N260	N	0.458116	0.168170	0.906186
	N261	N	0.528405	0.166563	0.079895
	N262	N	0.458482	0.805605	0.081582
	N263	N	0.527637	0.806917	0.906354
	N264	N	0.457524	0.900857	0.172609
	N265	N	0.528753	0.072507	0.172321
	N266	N	0.457072	0.073296	0.814946
	N267	N	0.528281	0.901885	0.814984
	N268	N	0.907221	0.166754	0.458885
	N269	N	0.081070	0.167512	0.528622
	N270	N	0.080645	0.806200	0.458878
	N271	N	0.907207	0.807594	0.529095
	N272	N	0.175118	0.453007	0.905265
	N273	N	0.173355	0.521775	0.080425
	N274	N	0.813101	0.451909	0.080056
	N275	N	0.812745	0.522369	0.906622
	O276	O	0.621224	0.662024	-0.621525
	H277	H	0.624069	0.647763	-0.622550
	H278	H	0.590162	0.657079	-0.623412
	O279	O	0.355755	0.661997	0.601887
	H280	H	0.348712	0.650233	0.582309
	H281	H	0.373572	0.648669	0.604169
	O282	O	0.437639	0.333836	0.501416
	H283	H	0.424579	0.338819	0.507284
	H284	H	0.427851	0.333437	0.485568
	O285	O	0.812378	0.175449	1.180911
	H286	H	0.839247	0.164783	1.163819
	H287	H	0.827920	0.151396	1.167860
	O288	O	0.148280	0.950993	1.037678
	H289	H	0.126931	0.962109	1.053576
	H290	H	0.154609	0.937047	1.036522
	O291	O	0.279293	0.318290	0.484815
	H292	H	0.265168	0.303215	0.495368
	H293	H	0.283968	0.323256	0.498476
	O294	O	0.889746	-0.161245	1.215172
	H295	H	0.866659	-0.162690	1.233891
	H296	H	0.892499	-0.190175	1.222145
	O297	O	0.600278	0.573667	0.315092
	H298	H	0.580473	0.557659	0.304663
	H299	H	0.581777	0.573875	0.332597
	O300	O	-0.209509	-0.210737	1.195974
	H301	H	-0.223145	-0.212775	1.198402
	H302	H	-0.193781	-0.221569	1.166911
	O303	O	0.458196	0.272311	0.701314
	H304	H	0.470372	0.268191	0.691515
	H305	H	0.468211	0.268099	0.708473
	O306	O	0.943161	0.941916	0.213295
	H307	H	0.955519	0.938870	0.224690
	H308	H	0.958988	0.942282	0.213443
	O309	O	0.297831	0.482257	0.295447
	H310	H	0.300625	0.483903	0.296936
	H311	H	0.284556	0.490271	0.289790
	O312	O	1.009797	0.850200	1.022353
	H313	H	1.010801	0.847342	1.024189
	H314	H	1.016235	0.848741	1.030536
	O315	O	0.372713	0.494765	0.443019
	H316	H	0.365433	0.492389	0.436294
	H317	H	0.368541	0.498585	0.441282
	O318	O	0.289399	0.280610	0.701703
	H319	H	0.289032	0.274542	0.719115
	H320	H	0.318227	0.285005	0.690739
	O321	O	-0.227144	1.207920	0.960741
	H322	H	-0.221079	1.209812	0.937603
	H323	H	-0.247348	1.230284	0.949233
	O324	O	1.051271	0.948254	0.097950
	H325	H	1.045676	0.941470	0.102007
	H326	H	1.059901	0.950360	0.096105
	O327	O	-0.021431	-0.107053	0.838667
	H328	H	-0.042126	-0.100964	0.838491
	H329	H	-0.015795	-0.122777	0.845907
	O330	O	0.705769	0.453244	0.274755
	H331	H	0.719713	0.451862	0.255258
	H332	H	0.699051	0.444444	0.264538
	O333	O	0.472233	0.614206	0.709008
	H334	H	0.481792	0.612281	0.717990
	H335	H	0.494337	0.623694	0.710501
	O336	O	1.004878	-0.000750	-0.191040
	H337	H	1.005510	-0.010035	-0.188947
	H338	H	1.008526	-0.001446	-0.189439
	O339	O	1.328092	0.337788	0.392148
	H340	H	1.317984	0.333264	0.394104
	H341	H	1.313276	0.331690	0.389430
	O342	O	-0.003417	-0.234825	-0.030983
	H343	H	0.002400	-0.239761	-0.048557
	H344	H	0.019602	-0.231852	-0.014455
	O345	O	0.530333	1.267082	1.273383
	H346	H	0.545428	1.243214	1.252544
	H347	H	0.566088	1.264683	1.277655
	O348	O	0.548601	0.405880	0.409028
	H349	H	0.544590	0.403274	0.418146
	H350	H	0.543771	0.401830	0.411714
	O351	O	0.684324	0.423655	0.476128
	H352	H	0.689258	0.420230	0.469724
	H353	H	0.676755	0.414246	0.464128
	O354	O	-0.218720	0.200375	0.786704
	H355	H	-0.250180	0.230894	0.751701
	H356	H	-0.201492	0.181755	0.789156
	O357	O	0.484700	0.607826	0.556827
	H358	H	0.506746	0.601157	0.568408
	H359	H	0.489158	0.612798	0.552541
	O360	O	0.677404	0.533296	0.492913
	H361	H	0.675879	0.524240	0.477997
	H362	H	0.665747	0.520452	0.495525
	O363	O	-0.247199	-0.253871	-0.245547
	H364	H	-0.234319	-0.234713	-0.226059
	H365	H	-0.239882	-0.250473	-0.261304
	O366	O	0.699709	0.278791	0.445661
	H367	H	0.715175	0.256567	0.451705
	H368	H	0.684422	0.299140	0.447091
	O369	O	0.956455	0.092044	-0.000603
	H370	H	0.952191	0.088004	0.001453
	H371	H	0.957025	0.093222	-0.010272
	O372	O	1.066183	1.159617	0.135817
	H373	H	1.065377	1.161821	0.128495
	H374	H	1.078385	1.162488	0.140215
	O375	O	1.016684	-0.208422	-0.118188
	H376	H	1.031305	-0.195049	-0.117069
	H377	H	1.036361	-0.221583	-0.121020
	O378	O	0.326355	0.416238	0.456791
	H379	H	0.330968	0.415815	0.448953
	H380	H	0.324463	0.419412	0.445827
	O381	O	-0.725668	0.451681	0.712504
	H382	H	-0.725515	0.434166	0.715938
	H383	H	-0.736964	0.455660	0.736012
	O384	O	1.208593	0.014147	1.207625
	H385	H	1.224540	0.009337	1.227702
	H386	H	1.207315	0.016755	1.197131
	O387	O	0.679350	1.295524	-0.321145
	H388	H	0.663518	1.311762	-0.345167
	H389	H	0.657308	1.312583	-0.336245
	O390	O	0.717190	0.528419	0.716683
	H391	H	0.712611	0.563279	0.716273
	H392	H	0.745579	0.530057	0.742364
	O393	O	0.492637	0.473855	0.713711
	H394	H	0.482765	0.474048	0.705985
	H395	H	0.493132	0.476749	0.714311
	O396	O	0.047122	1.178921	0.920741
	H397	H	0.056231	1.182862	0.920587
	H398	H	0.047973	1.178370	0.920403
	O399	O	0.131903	-0.023492	0.860364
	H400	H	0.119557	-0.024442	0.861365
	H401	H	0.129043	-0.045817	0.855905
	O402	O	1.210519	0.951237	-0.204465
	H403	H	1.209186	0.968061	-0.204283
	H404	H	1.217802	0.952009	-0.208932
	O405	O	1.174010	0.173821	0.814019
	H406	H	1.169534	0.160362	0.821770
	H407	H	1.175338	0.174838	0.823086
	O408	O	0.170616	-0.233154	-0.040458
	H409	H	0.173219	-0.233913	-0.064589
	H410	H	0.187962	-0.247894	-0.049425
	O411	O	0.776159	0.769143	1.027517
	H412	H	0.779882	0.770390	1.013449
	H413	H	0.756411	0.757295	1.024169
	O414	O	0.362935	0.420229	0.477863
	H415	H	0.342394	0.414001	0.488961
	H416	H	0.371905	0.418002	0.488922
	O417	O	0.942170	-0.077930	0.932513
	H418	H	0.931099	-0.071877	0.932907
	H419	H	0.945330	-0.084085	0.936572
	O420	O	-0.222396	1.029954	0.786011
	H421	H	-0.236281	1.043343	0.778234
	H422	H	-0.224129	1.025127	0.783982
	O423	O	0.129765	0.058285	1.032682
	H424	H	0.115461	0.051995	1.038956
	H425	H	0.127729	0.043346	1.035159
	O426	O	0.218366	0.754689	0.766815
	H427	H	0.229227	0.742042	0.738568
	H428	H	0.222774	0.788689	0.761395
	O429	O	0.931804	1.192830	1.026520
	H430	H	0.955454	1.202096	1.019255
	H431	H	0.914433	1.190155	1.005746
	O432	O	0.417317	0.643712	0.426396
	H433	H	0.428987	0.636614	0.415824
	H434	H	0.421776	0.641802	0.433490
	O435	O	0.106515	0.895018	0.185755
	H436	H	0.106379	0.913756	0.171867
	H437	H	0.122749	0.882375	0.192810
	O438	O	-0.233664	0.032283	0.043664
	H439	H	-0.234667	0.054899	0.052367
	H440	H	-0.233271	0.039680	0.064728
	O441	O	-0.026361	-0.074242	-0.014309
	H442	H	-0.021880	-0.067257	-0.025613
	H443	H	-0.029272	-0.069623	-0.008754
	O444	O	0.601992	0.693942	0.704276
	H445	H	0.613144	0.713692	0.718456
	H446	H	0.618890	0.703420	0.680966
	O447	O	-0.171490	0.988451	1.192175
	H448	H	-0.174446	0.970659	1.198705
	H449	H	-0.169702	0.983699	1.203176
	O450	O	0.487235	0.696880	1.286612
	H451	H	0.489378	0.697371	1.270535
	H452	H	0.494130	0.698985	1.285556
	O453	O	0.475290	0.462637	0.274736
	H454	H	0.475737	0.437096	0.269974
	H455	H	0.468847	0.449869	0.276823
	O456	O	0.191993	0.186551	1.191481
	H457	H	0.186042	0.189160	1.167021
	H458	H	0.181227	0.161441	1.189371
	O459	O	0.797689	0.856280	-0.135021
	H460	H	0.803505	0.854168	-0.120938
	H461	H	0.801743	0.875789	-0.113176
	O462	O	0.512141	0.720561	0.438400
	H463	H	0.519592	0.725156	0.430081
	H464	H	0.504124	0.714649	0.445148
	O465	O	1.198401	0.200086	0.018426
	H466	H	1.195025	0.194466	0.023108
	H467	H	1.208047	0.201258	0.012442
	O468	O	0.605983	0.445784	0.617912
	H469	H	0.592734	0.454376	0.613766
	H470	H	0.623116	0.469989	0.621687
	O471	O	0.238159	0.746408	0.237175
	H472	H	0.250775	0.734271	0.255909
	H473	H	0.247219	0.742974	0.233360
	O474	O	0.278947	0.599024	0.553267
	H475	H	0.275697	0.592270	0.561963
	H476	H	0.273348	0.590614	0.536530
	O477	O	0.551481	0.250956	1.550030
	H478	H	0.528585	0.253300	1.535659
	H479	H	0.554483	0.248423	1.532818
	O480	O	0.290772	0.654627	0.424280
	H481	H	0.279138	0.666159	0.432142
	H482	H	0.303938	0.647371	0.441210
	O483	O	0.714422	0.715687	0.535951
	H484	H	0.719577	0.693970	0.518403
	H485	H	0.741039	0.733705	0.526919
	O486	O	0.703944	0.271784	1.280025
	H487	H	0.710527	0.290882	1.310633
	H488	H	0.739770	0.241759	1.251431
	O489	O	0.955077	1.207437	-0.222240
	H490	H	0.940544	1.214926	-0.222299
	H491	H	0.953646	1.210227	-0.243759
