data_Molecule from HDF5

_cell_length_a		16.422312
_cell_length_b		16.060207
_cell_length_c		16.277832
_cell_angle_alpha	89.659843
_cell_angle_beta	89.822438
_cell_angle_gamma	90.342692
_symmetry_space_group_name_H-M	'P 1'
_symmetry_Int_Tables_number		1

loop_
	_symmetry_equiv_pos_as_xyz
	x,y,z

loop_
	_atom_site_label
	_atom_site_type_symbol
	_atom_site_fract_x
	_atom_site_fract_y
	_atom_site_fract_z
	H0	H	0.396877	0.837065	0.715880
	H1	H	0.597388	0.168055	0.711168
	H2	H	0.595746	0.837152	0.284990
	H3	H	0.399679	0.168223	0.286175
	H4	H	0.711211	0.402093	0.836840
	H5	H	0.713650	0.608548	0.160091
	H6	H	0.278175	0.607751	0.835824
	H7	H	0.275674	0.399733	0.161296
	H8	H	0.833535	0.716846	0.399466
	H9	H	0.158549	0.713605	0.592607
	H10	H	0.833530	0.283199	0.597108
	H11	H	0.159820	0.289589	0.401204
	H12	H	0.834272	0.396039	0.717802
	H13	H	0.156555	0.602958	0.714108
	H14	H	0.833409	0.603021	0.281170
	H15	H	0.156462	0.400837	0.278215
	H16	H	0.399573	0.718370	0.835076
	H17	H	0.590421	0.714409	0.164086
	H18	H	0.590237	0.293711	0.834346
	H19	H	0.395028	0.287595	0.162850
	H20	H	0.711117	0.836856	0.398883
	H21	H	0.716710	0.164914	0.600002
	H22	H	0.279775	0.836642	0.603253
	H23	H	0.281086	0.165665	0.397525
	H24	H	0.891998	0.337098	0.214442
	H25	H	0.093457	0.667760	0.211084
	H26	H	0.090820	0.336170	0.787386
	H27	H	0.897245	0.667100	0.782107
	H28	H	0.216776	0.897548	0.337441
	H29	H	0.214991	0.102560	0.660872
	H30	H	0.778666	0.107476	0.337101
	H31	H	0.777436	0.894137	0.659670
	H32	H	0.332125	0.215789	0.901020
	H33	H	0.657511	0.218894	0.095049
	H34	H	0.333821	0.786041	0.099957
	H35	H	0.658220	0.788353	0.900786
	H36	H	0.335543	0.899970	0.219003
	H37	H	0.656977	0.108136	0.215406
	H38	H	0.335478	0.105405	0.779560
	H39	H	0.657346	0.902610	0.782583
	H40	H	0.900439	0.215439	0.334973
	H41	H	0.095309	0.214597	0.662414
	H42	H	0.093398	0.790273	0.333414
	H43	H	0.899865	0.786716	0.661764
	H44	H	0.209202	0.337615	0.898671
	H45	H	0.211360	0.667024	0.099933
	H46	H	0.775719	0.338908	0.101697
	H47	H	0.779503	0.667311	0.894837
	H48	H	0.397354	0.118718	0.582176
	H49	H	0.582725	0.886130	0.592550
	H50	H	0.592560	0.121347	0.405851
	H51	H	0.409300	0.885592	0.407877
	H52	H	0.586532	0.409842	0.115906
	H53	H	0.584678	0.596410	0.883972
	H54	H	0.403397	0.574522	0.108024
	H55	H	0.397596	0.404912	0.880047
	H56	H	0.110770	0.598165	0.405562
	H57	H	0.877818	0.596413	0.591370
	H58	H	0.107661	0.416287	0.586493
	H59	H	0.879107	0.410549	0.397189
	H60	H	0.112032	0.412203	0.601899
	H61	H	0.882179	0.590965	0.587107
	H62	H	0.109413	0.590195	0.404296
	H63	H	0.879218	0.400196	0.409855
	H64	H	0.415526	0.606165	0.114583
	H65	H	0.590977	0.597984	0.881471
	H66	H	0.588055	0.414499	0.115023
	H67	H	0.395666	0.417557	0.883244
	H68	H	0.587553	0.119119	0.405118
	H69	H	0.589905	0.885443	0.586164
	H70	H	0.404971	0.122506	0.598180
	H71	H	0.405877	0.884866	0.414136
	H72	H	0.910655	0.617918	0.090899
	H73	H	0.088456	0.385658	0.085308
	H74	H	0.087961	0.622857	0.898474
	H75	H	0.892892	0.384044	0.913372
	H76	H	0.082733	0.912743	0.611292
	H77	H	0.088470	0.092770	0.383050
	H78	H	0.914498	0.091804	0.611758
	H79	H	0.902178	0.902190	0.378759
	H80	H	0.611738	0.100781	0.905737
	H81	H	0.382731	0.081463	0.098158
	H82	H	0.612142	0.915511	0.098575
	H83	H	0.381346	0.910060	0.909831
	H84	H	0.612623	0.903691	0.093057
	H85	H	0.376122	0.101499	0.101354
	H86	H	0.609448	0.095184	0.906125
	H87	H	0.382508	0.916218	0.909032
	H88	H	0.898818	0.096397	0.618934
	H89	H	0.092608	0.094120	0.381934
	H90	H	0.087608	0.899049	0.618067
	H91	H	0.895463	0.916102	0.381113
	H92	H	0.081330	0.617358	0.908216
	H93	H	0.086068	0.382976	0.092377
	H94	H	0.901333	0.617625	0.081473
	H95	H	0.902635	0.382484	0.900608
	H96	H	0.413858	0.114778	0.584369
	H97	H	0.590709	0.881749	0.594583
	H98	H	0.590459	0.119006	0.410161
	H99	H	0.402794	0.882835	0.408229
	H100	H	0.583174	0.413383	0.114308
	H101	H	0.589892	0.591179	0.882787
	H102	H	0.383165	0.598470	0.121456
	H103	H	0.407371	0.411913	0.884714
	H104	H	0.112365	0.594671	0.397899
	H105	H	0.879190	0.588928	0.594099
	H106	H	0.112467	0.400522	0.589317
	H107	H	0.885399	0.414940	0.411042
	H108	H	0.898898	0.623402	0.094271
	H109	H	0.080466	0.386864	0.087029
	H110	H	0.093679	0.620667	0.909920
	H111	H	0.908191	0.389395	0.913353
	H112	H	0.097902	0.911515	0.615843
	H113	H	0.092260	0.089662	0.383083
	H114	H	0.901407	0.079674	0.611974
	H115	H	0.910731	0.913734	0.384780
	H116	H	0.612173	0.097445	0.901209
	H117	H	0.382742	0.095929	0.081552
	H118	H	0.608979	0.913735	0.086005
	H119	H	0.380826	0.913061	0.904885
	C120	C	0.375406	0.010047	0.620038
	C121	C	0.618125	0.993234	0.619870
	C122	C	0.618878	0.010792	0.377621
	C123	C	0.376384	0.993166	0.379140
	C124	C	0.615448	0.383104	0.007403
	C125	C	0.617166	0.625206	0.990652
	C126	C	0.372602	0.624405	0.007152
	C127	C	0.371084	0.380786	0.990255
	C128	C	0.003906	0.623936	0.374436
	C129	C	0.986683	0.621988	0.619292
	C130	C	0.003889	0.378367	0.621645
	C131	C	0.987951	0.379675	0.375985
	C132	C	0.872925	0.511034	0.119625
	C133	C	0.114614	0.494132	0.118427
	C134	C	0.116401	0.511324	0.876696
	C135	C	0.873139	0.494087	0.877855
	C136	C	0.118475	0.879037	0.507316
	C137	C	0.119827	0.121825	0.490501
	C138	C	0.875590	0.121348	0.507076
	C139	C	0.874282	0.879408	0.489181
	C140	C	0.504079	0.126299	0.875504
	C141	C	0.487549	0.124436	0.121291
	C142	C	0.504782	0.880573	0.122596
	C143	C	0.487814	0.882725	0.878472
	C144	C	0.376566	0.886404	0.678088
	C145	C	0.617412	0.118068	0.674083
	C146	C	0.615968	0.886660	0.322401
	C147	C	0.378805	0.118114	0.323441
	C148	C	0.671959	0.384013	0.885193
	C149	C	0.674036	0.625967	0.112173
	C150	C	0.316919	0.625917	0.884476
	C151	C	0.314783	0.380966	0.112991
	C152	C	0.882107	0.679648	0.377868
	C153	C	0.109490	0.677082	0.615038
	C154	C	0.882170	0.321076	0.618608
	C155	C	0.110560	0.325877	0.379133
	C156	C	0.882457	0.377237	0.678524
	C157	C	0.108482	0.621916	0.675140
	C158	C	0.881969	0.622677	0.319486
	C159	C	0.108877	0.381226	0.318223
	C160	C	0.377005	0.681326	0.884054
	C161	C	0.612455	0.678628	0.114392
	C162	C	0.611581	0.329868	0.883800
	C163	C	0.374365	0.325311	0.113647
	C164	C	0.673447	0.886476	0.378993
	C165	C	0.676729	0.116504	0.618854
	C166	C	0.318569	0.885962	0.621701
	C167	C	0.319759	0.116907	0.378950
	C168	C	0.872588	0.386887	0.176734
	C169	C	0.113413	0.618211	0.173968
	C170	C	0.112533	0.386119	0.823436
	C171	C	0.876515	0.618003	0.820309
	C172	C	0.176865	0.878915	0.385465
	C173	C	0.176268	0.121770	0.612642
	C174	C	0.818243	0.124335	0.385398
	C175	C	0.816859	0.876869	0.611188
	C176	C	0.381624	0.179944	0.878952
	C177	C	0.609022	0.181062	0.116540
	C178	C	0.382787	0.823893	0.120906
	C179	C	0.609624	0.826533	0.880394
	C180	C	0.383587	0.880400	0.180318
	C181	C	0.608789	0.125555	0.176404
	C182	C	0.383228	0.124654	0.818603
	C183	C	0.609162	0.883336	0.821327
	C184	C	0.879087	0.177898	0.384003
	C185	C	0.116731	0.177542	0.613215
	C186	C	0.115333	0.825874	0.383208
	C187	C	0.877529	0.823044	0.612370
	C188	C	0.171505	0.386987	0.878650
	C189	C	0.172117	0.617978	0.118355
	C190	C	0.814776	0.387767	0.120495
	C191	C	0.818029	0.617936	0.876527
	C192	C	0.398627	0.096154	0.595379
	C193	C	0.594545	0.906758	0.597724
	C194	C	0.596558	0.097437	0.400541
	C195	C	0.399237	0.906864	0.402873
	C196	C	0.592686	0.405928	0.092873
	C197	C	0.594996	0.602080	0.904897
	C198	C	0.394189	0.600240	0.092406
	C199	C	0.393445	0.404597	0.904738
	C200	C	0.088811	0.601070	0.396125
	C201	C	0.901937	0.598852	0.597471
	C202	C	0.088723	0.402548	0.599309
	C203	C	0.903249	0.401970	0.399157
	C204	C	0.896717	0.597384	0.095880
	C205	C	0.091564	0.407632	0.095148
	C206	C	0.094303	0.597960	0.899003
	C207	C	0.894994	0.407536	0.902011
	C208	C	0.096098	0.901289	0.592827
	C209	C	0.097747	0.098760	0.404875
	C210	C	0.898225	0.096448	0.592148
	C211	C	0.896386	0.903608	0.403747
	C212	C	0.589085	0.104404	0.897638
	C213	C	0.402412	0.100080	0.099923
	C214	C	0.589414	0.904071	0.099376
	C215	C	0.403484	0.906335	0.901347
	Zn216	Zn	0.496523	0.003429	0.747507
	Zn217	Zn	0.497459	0.002942	0.251081
	Zn218	Zn	0.745031	0.503623	-0.000697
	Zn219	Zn	0.242986	0.502868	-0.001638
	Zn220	Zn	-0.003830	0.751941	0.497465
	Zn221	Zn	-0.003117	0.249795	0.498558
	Zn222	Zn	-0.005275	0.501669	0.749474
	Zn223	Zn	-0.005362	0.501759	0.246334
	Zn224	Zn	0.495585	0.752480	-0.000395
	Zn225	Zn	0.494533	0.253562	-0.000760
	Zn226	Zn	0.746310	0.001049	0.498523
	Zn227	Zn	0.247672	-0.000240	0.499182
	N228	N	0.411367	0.964401	0.676934
	N229	N	0.581585	0.040431	0.674829
	N230	N	0.582838	0.965225	0.321310
	N231	N	0.413314	0.040240	0.323535
	N232	N	0.674503	0.416333	0.963338
	N233	N	0.677265	0.593641	0.034180
	N234	N	0.313930	0.591255	0.961939
	N235	N	0.312795	0.414880	0.035326
	N236	N	0.958845	0.680460	0.411449
	N237	N	0.033015	0.677251	0.580968
	N238	N	0.958700	0.321660	0.583952
	N239	N	0.034439	0.324801	0.414316
	N240	N	0.959103	0.412106	0.680556
	N241	N	0.031177	0.588357	0.677930
	N242	N	0.958687	0.588932	0.316964
	N243	N	0.031521	0.413614	0.315870
	N244	N	0.410849	0.680525	0.961274
	N245	N	0.577920	0.678502	0.037499
	N246	N	0.576973	0.329013	0.960804
	N247	N	0.408628	0.325007	0.036363
	N248	N	0.675440	0.964754	0.412428
	N249	N	0.677487	0.037789	0.586079
	N250	N	0.317733	0.963857	0.586172
	N251	N	0.317988	0.038117	0.412783
	N252	N	0.908131	0.464744	0.176354
	N253	N	0.078587	0.540070	0.174134
	N254	N	0.078936	0.464360	0.822043
	N255	N	0.910012	0.539714	0.820970
	N256	N	0.179023	0.911144	0.463596
	N257	N	0.178293	0.087954	0.535199
	N258	N	0.816185	0.089581	0.462914
	N259	N	0.814618	0.911112	0.533619
	N260	N	0.457685	0.181256	0.913512
	N261	N	0.532417	0.180210	0.082924
	N262	N	0.459081	0.823844	0.085779
	N263	N	0.533357	0.826156	0.915435
	N264	N	0.460362	0.914986	0.181398
	N265	N	0.532102	0.091006	0.179427
	N266	N	0.460555	0.092322	0.816288
	N267	N	0.532612	0.917640	0.820082
	N268	N	0.914210	0.176207	0.460591
	N269	N	0.082473	0.177779	0.536159
	N270	N	0.079698	0.825884	0.459906
	N271	N	0.912458	0.824216	0.535495
	N272	N	0.174129	0.465992	0.910958
	N273	N	0.172841	0.539688	0.084558
	N274	N	0.814859	0.465952	0.085761
	N275	N	0.815975	0.539991	0.911846
	O276	O	1.015831	0.090813	0.971778
	H277	H	1.003976	0.089563	0.975870
	H278	H	1.021563	0.080691	0.971801
	O279	O	0.531152	0.522724	0.496406
	H280	H	0.535627	0.525981	0.502024
	H281	H	0.531132	0.510442	0.498665
	O282	O	0.569563	0.515206	0.541511
	H283	H	0.578303	0.516452	0.554120
	H284	H	0.561953	0.515791	0.547821
	O285	O	0.447823	0.644009	0.420611
	H286	H	0.455836	0.650557	0.420692
	H287	H	0.458543	0.639747	0.420804
	O288	O	0.559335	0.507779	0.623631
	H289	H	0.560421	0.524095	0.627246
	H290	H	0.558547	0.504068	0.640382
	O291	O	-0.096843	-0.041103	0.897357
	H292	H	-0.101230	-0.032202	0.892484
	H293	H	-0.103670	-0.038928	0.905381
	O294	O	1.031870	1.135157	0.084695
	H295	H	1.015050	1.127839	0.086810
	H296	H	1.031805	1.144158	0.089496
	O297	O	1.071566	1.114818	0.020805
	H298	H	1.086303	1.122290	0.022927
	H299	H	1.072213	1.113992	0.015112
	O300	O	0.370856	0.487283	0.533227
	H301	H	0.363262	0.488946	0.530081
	H302	H	0.361976	0.472607	0.536425
	O303	O	1.107056	-0.097847	0.930835
	H304	H	1.108113	-0.102101	0.925133
	H305	H	1.103904	-0.103770	0.927500
	O306	O	0.506620	0.436953	0.472428
	H307	H	0.501857	0.438663	0.476354
	H308	H	0.502438	0.437861	0.476431
	O309	O	0.620026	0.538530	0.436032
	H310	H	0.610200	0.550768	0.437630
	H311	H	0.621319	0.532043	0.430533
	O312	O	0.455009	1.478518	0.419899
	H313	H	0.454771	1.478295	0.416838
	H314	H	0.450828	1.464776	0.419754
	O315	O	0.944949	0.946880	0.093207
	H316	H	0.938895	0.939308	0.103509
	H317	H	0.940364	0.943789	0.096208
	O318	O	0.454711	0.455169	0.572578
	H319	H	0.460371	0.452091	0.580137
	H320	H	0.436101	0.460790	0.575915
	O321	O	0.339549	0.397797	0.624969
	H322	H	0.333805	0.388032	0.614991
	H323	H	0.329949	0.396888	0.626341
	O324	O	-0.118005	1.044430	1.089643
	H325	H	-0.099642	1.053411	1.099207
	H326	H	-0.117339	1.053211	1.090311
	O327	O	0.064056	1.048448	1.105992
	H328	H	0.066900	1.044417	1.106961
	H329	H	0.068940	1.050254	1.109571
	O330	O	0.051023	0.054031	0.117809
	H331	H	0.038119	0.050090	0.114351
	H332	H	0.050399	0.041752	0.106166
	O333	O	0.465128	0.524387	0.630615
	H334	H	0.459943	0.515643	0.640558
	H335	H	0.464761	0.523846	0.642277
	O336	O	-0.021166	-0.048839	0.041815
	H337	H	-0.024744	-0.055207	0.037693
	H338	H	-0.030925	-0.053869	0.057226
	O339	O	-0.134521	-0.084389	0.037309
	H340	H	-0.133400	-0.086015	0.028514
	H341	H	-0.134974	-0.070002	0.019115
	O342	O	0.560257	0.514523	0.374348
	H343	H	0.560286	0.508146	0.368978
	H344	H	0.563277	0.500611	0.358887
	O345	O	0.132851	0.857095	0.970108
	H346	H	0.129034	0.861668	0.984316
	H347	H	0.133856	0.847779	0.972527
	O348	O	0.524878	0.544507	0.583344
	H349	H	0.522424	0.557002	0.573215
	H350	H	0.520158	0.546330	0.580567
	O351	O	0.538686	0.448101	0.539850
	H352	H	0.530359	0.452881	0.537054
	H353	H	0.547596	0.443202	0.550418
	O354	O	-0.047076	0.948771	-0.060114
	H355	H	-0.051154	0.950930	-0.047839
	H356	H	-0.031157	0.944506	-0.071080
	O357	O	0.424334	0.434689	0.473236
	H358	H	0.435185	0.441332	0.476304
	H359	H	0.418848	0.439177	0.464539
	O360	O	0.869482	0.066861	0.913223
	H361	H	0.860909	0.073724	0.911789
	H362	H	0.875052	0.075722	0.910277
	O363	O	0.551075	0.514676	0.554167
	H364	H	0.552578	0.525491	0.560228
	H365	H	0.542674	0.505167	0.552855
	O366	O	0.443457	0.674633	0.505005
	H367	H	0.446224	0.690937	0.508723
	H368	H	0.436421	0.673687	0.483390
	O369	O	1.063804	0.096733	-0.091865
	H370	H	1.073053	0.088591	-0.092911
	H371	H	1.044911	0.097794	-0.098046
	O372	O	0.453557	0.473484	0.467674
	H373	H	0.453773	0.462929	0.460644
	H374	H	0.450566	0.479893	0.466115
	O375	O	0.899016	0.006463	1.027458
	H376	H	0.897648	0.003382	1.033190
	H377	H	0.907213	-0.000221	1.028884
	O378	O	-0.041269	1.004013	-0.075569
	H379	H	-0.053108	1.020214	-0.073963
	H380	H	-0.036866	0.995401	-0.073719
	O381	O	0.451844	0.423836	0.468998
	H382	H	0.451062	0.435243	0.474939
	H383	H	0.458740	0.424315	0.464999
	O384	O	1.107006	0.936182	-0.084423
	H385	H	1.120660	0.926173	-0.077363
	H386	H	1.103018	0.931612	-0.079464
	O387	O	1.093880	-0.018559	1.048721
	H388	H	1.088271	-0.005127	1.053694
	H389	H	1.091094	-0.015274	1.047623
	O390	O	0.949455	0.994299	0.024883
	H391	H	0.957882	0.990144	0.020247
	H392	H	0.944969	0.996842	0.029248
	O393	O	0.605916	0.482048	0.438155
	H394	H	0.615214	0.472668	0.428601
	H395	H	0.608802	0.475908	0.447334
