data_Molecule from HDF5

_cell_length_a		16.299167
_cell_length_b		16.295503
_cell_length_c		16.092372
_cell_angle_alpha	89.653512
_cell_angle_beta	89.793552
_cell_angle_gamma	90.161481
_symmetry_space_group_name_H-M	'P 1'
_symmetry_Int_Tables_number		1

loop_
	_symmetry_equiv_pos_as_xyz
	x,y,z

loop_
	_atom_site_label
	_atom_site_type_symbol
	_atom_site_fract_x
	_atom_site_fract_y
	_atom_site_fract_z
	H0	H	0.398248	0.830352	0.717470
	H1	H	0.598218	0.157777	0.714871
	H2	H	0.594200	0.827750	0.290983
	H3	H	0.404434	0.156897	0.286064
	H4	H	0.712219	0.394625	0.838010
	H5	H	0.709828	0.592940	0.166947
	H6	H	0.282823	0.592544	0.838339
	H7	H	0.280973	0.391077	0.167295
	H8	H	0.834978	0.711017	0.401226
	H9	H	0.161543	0.709225	0.601028
	H10	H	0.835158	0.276142	0.604026
	H11	H	0.160686	0.278318	0.399488
	H12	H	0.833704	0.393898	0.717139
	H13	H	0.162047	0.591074	0.715118
	H14	H	0.833008	0.590370	0.288921
	H15	H	0.161846	0.398652	0.287821
	H16	H	0.394971	0.708601	0.838359
	H17	H	0.593995	0.705660	0.167360
	H18	H	0.597606	0.279638	0.837222
	H19	H	0.395363	0.275933	0.166007
	H20	H	0.714286	0.830881	0.400399
	H21	H	0.713329	0.157459	0.599146
	H22	H	0.279367	0.831730	0.603795
	H23	H	0.283861	0.157003	0.397771
	H24	H	0.897776	0.329633	0.218729
	H25	H	0.093701	0.657778	0.212840
	H26	H	0.096160	0.329007	0.788993
	H27	H	0.900038	0.656575	0.787455
	H28	H	0.211306	0.896036	0.336942
	H29	H	0.214231	0.096154	0.663987
	H30	H	0.784824	0.093844	0.335583
	H31	H	0.781113	0.893402	0.665918
	H32	H	0.334572	0.210880	0.898215
	H33	H	0.658993	0.211579	0.102788
	H34	H	0.334085	0.777316	0.102436
	H35	H	0.659543	0.774028	0.898687
	H36	H	0.334467	0.892698	0.217443
	H37	H	0.662802	0.089038	0.211809
	H38	H	0.334065	0.091933	0.786058
	H39	H	0.662154	0.895910	0.787057
	H40	H	0.898895	0.210134	0.336889
	H41	H	0.097093	0.206577	0.666509
	H42	H	0.098367	0.780492	0.337378
	H43	H	0.896996	0.778356	0.666894
	H44	H	0.213858	0.330916	0.902012
	H45	H	0.214280	0.655093	0.103920
	H46	H	0.777801	0.330915	0.106393
	H47	H	0.781110	0.655970	0.900590
	H48	H	0.413598	0.107957	0.592526
	H49	H	0.586092	0.877841	0.598146
	H50	H	0.588633	0.109363	0.406558
	H51	H	0.395158	0.873734	0.408632
	H52	H	0.586554	0.392662	0.122149
	H53	H	0.597910	0.584852	0.881806
	H54	H	0.399771	0.587880	0.123034
	H55	H	0.413576	0.403213	0.888044
	H56	H	0.114823	0.595000	0.411124
	H57	H	0.880805	0.588613	0.596951
	H58	H	0.112982	0.402567	0.592312
	H59	H	0.882662	0.404361	0.409889
	H60	H	0.115018	0.400056	0.599293
	H61	H	0.882291	0.587314	0.590879
	H62	H	0.112221	0.583564	0.410776
	H63	H	0.879492	0.397267	0.408695
	H64	H	0.403068	0.579616	0.120285
	H65	H	0.585653	0.577850	0.887311
	H66	H	0.593591	0.404733	0.121425
	H67	H	0.400812	0.393091	0.880590
	H68	H	0.596324	0.110980	0.409046
	H69	H	0.588236	0.879770	0.588064
	H70	H	0.402843	0.108844	0.583922
	H71	H	0.408783	0.875825	0.404319
	H72	H	0.903579	0.609325	0.095228
	H73	H	0.079123	0.377891	0.100521
	H74	H	0.096021	0.608764	0.915952
	H75	H	0.900466	0.375713	0.910954
	H76	H	0.094126	0.894379	0.623446
	H77	H	0.088147	0.080832	0.385230
	H78	H	0.897817	0.092797	0.623145
	H79	H	0.902885	0.903953	0.383391
	H80	H	0.614037	0.086322	0.903967
	H81	H	0.380434	0.090564	0.092858
	H82	H	0.616101	0.890288	0.092077
	H83	H	0.382008	0.905399	0.905335
	H84	H	0.612010	0.901387	0.089187
	H85	H	0.383570	0.080890	0.088260
	H86	H	0.614268	0.093619	0.910194
	H87	H	0.379316	0.894587	0.908037
	H88	H	0.900460	0.075323	0.617715
	H89	H	0.085435	0.093575	0.382355
	H90	H	0.093643	0.911810	0.618049
	H91	H	0.909099	0.904893	0.385714
	H92	H	0.093196	0.612381	0.902766
	H93	H	0.089461	0.379919	0.083850
	H94	H	0.901365	0.610083	0.092580
	H95	H	0.905826	0.376637	0.909040
	H96	H	0.400983	0.112351	0.596834
	H97	H	0.595978	0.875891	0.593493
	H98	H	0.594077	0.112155	0.401233
	H99	H	0.405286	0.879737	0.417421
	H100	H	0.580194	0.403984	0.116732
	H101	H	0.584527	0.592299	0.883055
	H102	H	0.408716	0.586771	0.119774
	H103	H	0.397986	0.409877	0.884714
	H104	H	0.116303	0.588988	0.401040
	H105	H	0.882368	0.583165	0.595269
	H106	H	0.115417	0.395515	0.593522
	H107	H	0.882832	0.399142	0.415709
	H108	H	0.900495	0.609941	0.096155
	H109	H	0.098359	0.372243	0.101181
	H110	H	0.083540	0.607102	0.910852
	H111	H	0.904310	0.377874	0.915034
	H112	H	0.078743	0.901372	0.617322
	H113	H	0.097614	0.089124	0.380342
	H114	H	0.913977	0.088189	0.617815
	H115	H	0.907870	0.899044	0.383764
	H116	H	0.611130	0.084468	0.913311
	H117	H	0.380373	0.081121	0.098775
	H118	H	0.616763	0.899300	0.100449
	H119	H	0.384585	0.901421	0.916166
	C120	C	0.375920	0.002383	0.622440
	C121	C	0.619483	0.985999	0.622044
	C122	C	0.620876	0.002127	0.378045
	C123	C	0.376088	0.984477	0.379297
	C124	C	0.617184	0.372053	0.011129
	C125	C	0.617377	0.613773	0.993477
	C126	C	0.374849	0.614039	0.012078
	C127	C	0.375001	0.371871	0.993429
	C128	C	0.006033	0.617142	0.379352
	C129	C	0.989784	0.615249	0.623367
	C130	C	0.006441	0.370461	0.624767
	C131	C	0.989381	0.372520	0.381146
	C132	C	0.873448	0.502005	0.124772
	C133	C	0.118344	0.484546	0.123726
	C134	C	0.119665	0.501568	0.880765
	C135	C	0.875160	0.484474	0.881430
	C136	C	0.118381	0.874087	0.510660
	C137	C	0.119397	0.116534	0.491641
	C138	C	0.876174	0.114904	0.509843
	C139	C	0.876327	0.872535	0.492663
	C140	C	0.505678	0.116591	0.879238
	C141	C	0.489036	0.113779	0.122145
	C142	C	0.506637	0.869075	0.123629
	C143	C	0.489382	0.871171	0.880153
	C144	C	0.377720	0.879493	0.679510
	C145	C	0.617412	0.108929	0.676683
	C146	C	0.616466	0.877798	0.326236
	C147	C	0.381491	0.107801	0.323136
	C148	C	0.674342	0.374002	0.887336
	C149	C	0.672130	0.612247	0.117640
	C150	C	0.320029	0.612407	0.887756
	C151	C	0.318644	0.371418	0.117619
	C152	C	0.883438	0.672419	0.381292
	C153	C	0.112598	0.671168	0.621294
	C154	C	0.883621	0.314824	0.623499
	C155	C	0.112220	0.317077	0.380929
	C156	C	0.883039	0.373378	0.679798
	C157	C	0.113062	0.611979	0.677712
	C158	C	0.882574	0.612494	0.325447
	C159	C	0.112760	0.377144	0.325490
	C160	C	0.376384	0.669867	0.887574
	C161	C	0.614452	0.668379	0.117845
	C162	C	0.616878	0.317265	0.886733
	C163	C	0.375446	0.314190	0.117089
	C164	C	0.675960	0.879322	0.381082
	C165	C	0.675175	0.108601	0.619168
	C166	C	0.318691	0.880140	0.622676
	C167	C	0.321471	0.107706	0.378727
	C168	C	0.876740	0.378697	0.180877
	C169	C	0.115479	0.608095	0.176923
	C170	C	0.116909	0.378530	0.825753
	C171	C	0.878449	0.607480	0.825020
	C172	C	0.174320	0.875787	0.386409
	C173	C	0.175921	0.115333	0.615230
	C174	C	0.822283	0.113722	0.385108
	C175	C	0.819336	0.873517	0.616723
	C176	C	0.383180	0.172233	0.879399
	C177	C	0.611120	0.171513	0.121386
	C178	C	0.383086	0.814892	0.122204
	C179	C	0.611365	0.813855	0.880023
	C180	C	0.383370	0.872358	0.179403
	C181	C	0.613126	0.110516	0.175670
	C182	C	0.382991	0.112963	0.823494
	C183	C	0.612888	0.874481	0.824562
	C184	C	0.878821	0.171728	0.385990
	C185	C	0.117390	0.170292	0.616348
	C186	C	0.117726	0.818361	0.386611
	C187	C	0.876894	0.816236	0.617176
	C188	C	0.175611	0.379289	0.882096
	C189	C	0.175577	0.606644	0.122869
	C190	C	0.816722	0.379316	0.125517
	C191	C	0.819778	0.607426	0.881770
	C192	C	0.399144	0.087669	0.598233
	C193	C	0.596700	0.899945	0.599782
	C194	C	0.599308	0.088520	0.399243
	C195	C	0.396894	0.898836	0.403097
	C196	C	0.593547	0.393839	0.097635
	C197	C	0.595587	0.591589	0.906355
	C198	C	0.397119	0.591339	0.098835
	C199	C	0.397421	0.395377	0.906896
	C200	C	0.092204	0.595583	0.401214
	C201	C	0.903979	0.592978	0.600770
	C202	C	0.092193	0.392643	0.601726
	C203	C	0.903603	0.393785	0.404690
	C204	C	0.895262	0.587598	0.101432
	C205	C	0.095700	0.398909	0.101673
	C206	C	0.097549	0.587299	0.903354
	C207	C	0.896962	0.398961	0.904916
	C208	C	0.095661	0.896041	0.597113
	C209	C	0.096929	0.094380	0.404968
	C210	C	0.897677	0.092171	0.596906
	C211	C	0.899809	0.895791	0.406508
	C212	C	0.590968	0.094735	0.902339
	C213	C	0.403619	0.090946	0.099843
	C214	C	0.592489	0.890648	0.100702
	C215	C	0.404111	0.893737	0.903077
	Zn216	Zn	0.498442	-0.005611	0.751011
	Zn217	Zn	0.498794	-0.008529	0.250698
	Zn218	Zn	0.745429	0.493189	0.002643
	Zn219	Zn	0.247663	0.492955	0.003295
	Zn220	Zn	-0.001936	0.745332	0.502244
	Zn221	Zn	-0.001997	0.242700	0.502273
	Zn222	Zn	-0.001786	0.492941	0.752698
	Zn223	Zn	-0.002579	0.493503	0.251795
	Zn224	Zn	0.496912	0.741011	0.002274
	Zn225	Zn	0.496191	0.244543	0.001573
	Zn226	Zn	0.748306	-0.005754	0.500023
	Zn227	Zn	0.246218	-0.005094	0.500771
	N228	N	0.412600	0.956559	0.679401
	N229	N	0.583503	0.031478	0.678457
	N230	N	0.582927	0.955141	0.324236
	N231	N	0.414841	0.030469	0.323491
	N232	N	0.674682	0.407188	0.965673
	N233	N	0.673991	0.578970	0.039249
	N234	N	0.319128	0.578271	0.966070
	N235	N	0.317969	0.406315	0.039688
	N236	N	0.961368	0.675513	0.413844
	N237	N	0.034734	0.673296	0.588169
	N238	N	0.961424	0.312770	0.589959
	N239	N	0.034540	0.313993	0.414782
	N240	N	0.960439	0.407411	0.680647
	N241	N	0.035742	0.578055	0.679156
	N242	N	0.960068	0.578961	0.323962
	N243	N	0.035403	0.410857	0.325568
	N244	N	0.409716	0.671223	0.965944
	N245	N	0.581088	0.669299	0.039358
	N246	N	0.582269	0.315733	0.964879
	N247	N	0.409832	0.314309	0.038981
	N248	N	0.678873	0.957810	0.412380
	N249	N	0.676492	0.030992	0.585990
	N250	N	0.317264	0.957632	0.588075
	N251	N	0.317803	0.029979	0.412808
	N252	N	0.911101	0.455924	0.180881
	N253	N	0.080675	0.531271	0.177458
	N254	N	0.082917	0.455627	0.824983
	N255	N	0.912186	0.530287	0.824674
	N256	N	0.174645	0.909954	0.464359
	N257	N	0.177314	0.082525	0.536661
	N258	N	0.820736	0.079004	0.463084
	N259	N	0.818496	0.907676	0.538343
	N260	N	0.460473	0.174541	0.913559
	N261	N	0.533056	0.173665	0.088787
	N262	N	0.460701	0.812611	0.088343
	N263	N	0.533653	0.811411	0.913868
	N264	N	0.461154	0.905422	0.180433
	N265	N	0.536236	0.075263	0.176480
	N266	N	0.460234	0.079211	0.823114
	N267	N	0.536038	0.909451	0.824471
	N268	N	0.911790	0.172464	0.464707
	N269	N	0.082960	0.171163	0.538401
	N270	N	0.083634	0.817057	0.464843
	N271	N	0.911609	0.815539	0.539226
	N272	N	0.177314	0.456807	0.915845
	N273	N	0.177391	0.528622	0.090075
	N274	N	0.814711	0.456797	0.091212
	N275	N	0.817302	0.529718	0.916022
	O276	O	0.589060	0.568646	0.552713
	H277	H	0.590126	0.570106	0.543699
	H278	H	0.586724	0.576523	0.543585
	O279	O	0.456349	0.430335	0.458033
	H280	H	0.451489	0.427820	0.465523
	H281	H	0.456363	0.428415	0.462678
	O282	O	0.975348	0.936451	0.048258
	H283	H	0.956942	0.949152	0.055199
	H284	H	0.980643	0.922747	0.064570
	O285	O	1.067952	0.002466	0.948442
	H286	H	1.067962	0.005886	0.938307
	H287	H	1.067342	0.003719	0.957105
	O288	O	0.401346	0.525938	0.417251
	H289	H	0.402351	0.528794	0.418844
	H290	H	0.404674	0.524691	0.425666
	O291	O	0.560468	0.504205	0.543665
	H292	H	0.562628	0.512963	0.535735
	H293	H	0.554020	0.503179	0.545270
	O294	O	0.472155	0.445428	0.536088
	H295	H	0.469993	0.447753	0.533701
	H296	H	0.479467	0.451979	0.526220
	O297	O	-0.054584	0.001699	1.138675
	H298	H	-0.043048	0.014578	1.135022
	H299	H	-0.064479	0.003622	1.138421
	O300	O	0.523194	0.524434	0.573186
	H301	H	0.531796	0.511188	0.571669
	H302	H	0.515909	0.519231	0.574107
	O303	O	0.878598	0.957805	-0.061731
	H304	H	0.883140	0.954212	-0.069151
	H305	H	0.875182	0.958751	-0.061621
	O306	O	-0.027901	1.071660	0.982134
	H307	H	-0.030152	1.078351	0.972787
	H308	H	-0.034907	1.068586	0.981182
	O309	O	0.546120	0.476786	0.447595
	H310	H	0.537226	0.473726	0.449623
	H311	H	0.546081	0.476639	0.451854
	O312	O	-0.091060	0.132231	-0.186982
	H313	H	-0.092539	0.129984	-0.184894
	H314	H	-0.100368	0.135082	-0.201971
	O315	O	0.991972	0.108823	0.012068
	H316	H	0.992781	0.106816	0.007437
	H317	H	0.991927	0.110677	0.017337
	O318	O	1.084664	1.070865	1.062774
	H319	H	1.103893	1.056889	1.053247
	H320	H	1.088307	1.073080	1.075517
	O321	O	0.082158	-0.120742	0.947502
	H322	H	0.082975	-0.118985	0.945107
	H323	H	0.076812	-0.111361	0.960508
	O324	O	0.615703	0.461030	0.484170
	H325	H	0.618110	0.455096	0.482426
	H326	H	0.614139	0.457840	0.485808
	O327	O	-0.013771	0.078813	-0.005041
	H328	H	-0.014605	0.081596	-0.022859
	H329	H	-0.013349	0.078492	-0.015694
	O330	O	0.533475	0.518039	0.490781
	H331	H	0.539038	0.522794	0.495011
	H332	H	0.538178	0.521872	0.494972
	O333	O	-0.004822	0.879306	0.909079
	H334	H	-0.014007	0.875900	0.917863
	H335	H	0.007824	0.877745	0.913755
	O336	O	0.091675	-0.064707	-0.071984
	H337	H	0.099717	-0.067693	-0.070529
	H338	H	0.100801	-0.082220	-0.068485
	O339	O	0.461651	0.560786	0.507319
	H340	H	0.460389	0.559873	0.503668
	H341	H	0.460811	0.556613	0.495268
	O342	O	0.979952	0.927990	0.998442
	H343	H	0.977190	0.935584	1.008328
	H344	H	0.982549	0.924876	1.012900
	O345	O	0.923464	1.953256	0.083166
	H346	H	0.916176	1.940419	0.081777
	H347	H	0.930760	1.952115	0.083848
	O348	O	0.452190	0.403384	0.546878
	H349	H	0.452082	0.399006	0.549640
	H350	H	0.437204	0.398499	0.552960
	O351	O	0.451588	0.392511	0.613641
	H352	H	0.452705	0.384123	0.636220
	H353	H	0.466490	0.402499	0.613476
	O354	O	0.481262	0.495175	0.452996
	H355	H	0.475992	0.499444	0.453052
	H356	H	0.478089	0.492425	0.459045
	O357	O	0.909677	-0.030287	1.133437
	H358	H	0.916043	-0.021715	1.139871
	H359	H	0.909350	-0.036792	1.139715
	O360	O	0.540814	0.559981	0.586566
	H361	H	0.550514	0.561419	0.595787
	H362	H	0.542730	0.567712	0.582001
	O363	O	0.553466	0.529101	0.515777
	H364	H	0.559416	0.540948	0.512621
	H365	H	0.545043	0.528202	0.506322
	O366	O	0.957258	0.972315	1.126960
	H367	H	0.950635	0.988114	1.124435
	H368	H	0.961976	0.980858	1.127389
	O369	O	1.138082	-0.069083	0.976716
	H370	H	1.137315	-0.067616	0.978784
	H371	H	1.146568	-0.077573	0.976450
	O372	O	-0.056328	0.117420	0.009067
	H373	H	-0.066270	0.115281	0.004688
	H374	H	-0.060705	0.108801	0.013838
	O375	O	1.044510	-0.112390	-0.071981
	H376	H	1.057328	-0.113913	-0.070486
	H377	H	1.032722	-0.105521	-0.068896
	O378	O	0.479882	0.414833	0.497758
	H379	H	0.473926	0.407961	0.500222
	H380	H	0.479855	0.412524	0.499143
	O381	O	1.004567	0.994607	-0.048380
	H382	H	0.997587	0.997364	-0.044320
	H383	H	0.998231	0.997470	-0.058506
