data_Molecule from HDF5

_cell_length_a		16.257792
_cell_length_b		16.177899
_cell_length_c		16.391293
_cell_angle_alpha	90.109588
_cell_angle_beta	90.053623
_cell_angle_gamma	89.946232
_symmetry_space_group_name_H-M	'P 1'
_symmetry_Int_Tables_number		1

loop_
	_symmetry_equiv_pos_as_xyz
	x,y,z

loop_
	_atom_site_label
	_atom_site_type_symbol
	_atom_site_fract_x
	_atom_site_fract_y
	_atom_site_fract_z
	H0	H	0.400374	0.840125	0.719047
	H1	H	0.599357	0.167564	0.719476
	H2	H	0.600252	0.840158	0.288377
	H3	H	0.399219	0.168154	0.290315
	H4	H	0.714585	0.405288	0.839096
	H5	H	0.716117	0.603269	0.164484
	H6	H	0.285036	0.602393	0.839611
	H7	H	0.283027	0.404217	0.164412
	H8	H	0.834655	0.716200	0.406106
	H9	H	0.163303	0.716760	0.598731
	H10	H	0.834541	0.292768	0.598322
	H11	H	0.163786	0.290101	0.405608
	H12	H	0.837191	0.403332	0.719313
	H13	H	0.163182	0.603949	0.717025
	H14	H	0.836902	0.606126	0.285556
	H15	H	0.162783	0.403213	0.287169
	H16	H	0.403246	0.717503	0.839347
	H17	H	0.598656	0.718315	0.165825
	H18	H	0.598013	0.287878	0.840373
	H19	H	0.401818	0.290822	0.166389
	H20	H	0.712132	0.838251	0.407647
	H21	H	0.713075	0.167978	0.603064
	H22	H	0.287552	0.838981	0.600987
	H23	H	0.286081	0.168724	0.407499
	H24	H	0.900385	0.340732	0.216842
	H25	H	0.099193	0.668979	0.217740
	H26	H	0.099023	0.340519	0.788712
	H27	H	0.899650	0.668383	0.787645
	H28	H	0.215777	0.903613	0.341126
	H29	H	0.212462	0.102398	0.666991
	H30	H	0.782231	0.102606	0.341806
	H31	H	0.784356	0.904808	0.666563
	H32	H	0.335009	0.215209	0.908314
	H33	H	0.663947	0.217542	0.101422
	H34	H	0.335578	0.790826	0.100313
	H35	H	0.664433	0.791810	0.907283
	H36	H	0.336997	0.903926	0.219917
	H37	H	0.662918	0.104881	0.220488
	H38	H	0.337296	0.105098	0.787768
	H39	H	0.662555	0.903380	0.788097
	H40	H	0.900747	0.217550	0.340000
	H41	H	0.095957	0.219274	0.665939
	H42	H	0.096398	0.789738	0.340034
	H43	H	0.901349	0.788915	0.666259
	H44	H	0.212716	0.339724	0.905108
	H45	H	0.212901	0.669806	0.099794
	H46	H	0.787848	0.339608	0.098934
	H47	H	0.786663	0.669316	0.905431
	H48	H	0.407160	0.124632	0.607964
	H49	H	0.596220	0.883588	0.600910
	H50	H	0.585206	0.120410	0.409162
	H51	H	0.400415	0.884726	0.410947
	H52	H	0.593596	0.410035	0.118193
	H53	H	0.595221	0.606041	0.883240
	H54	H	0.398558	0.594891	0.119821
	H55	H	0.397496	0.402562	0.882539
	H56	H	0.113627	0.593447	0.415100
	H57	H	0.882971	0.586031	0.604706
	H58	H	0.117530	0.413881	0.603819
	H59	H	0.882983	0.420824	0.399650
	H60	H	0.118246	0.404090	0.595873
	H61	H	0.878377	0.606801	0.600282
	H62	H	0.116946	0.592470	0.404396
	H63	H	0.878141	0.400514	0.405875
	H64	H	0.412163	0.590837	0.114317
	H65	H	0.601523	0.591139	0.886518
	H66	H	0.595905	0.411544	0.118675
	H67	H	0.403851	0.422253	0.889987
	H68	H	0.592301	0.119785	0.417481
	H69	H	0.584962	0.888272	0.599842
	H70	H	0.414955	0.117289	0.592308
	H71	H	0.411668	0.885592	0.403939
	H72	H	0.907201	0.619216	0.085208
	H73	H	0.091075	0.386092	0.099775
	H74	H	0.093146	0.624820	0.903393
	H75	H	0.902850	0.383309	0.901929
	H76	H	0.089277	0.907851	0.618594
	H77	H	0.092519	0.096416	0.387269
	H78	H	0.914376	0.099209	0.617031
	H79	H	0.901244	0.905970	0.385554
	H80	H	0.618871	0.102431	0.909136
	H81	H	0.383341	0.091171	0.104351
	H82	H	0.615819	0.918180	0.100558
	H83	H	0.383757	0.908075	0.915549
	H84	H	0.619505	0.906475	0.101293
	H85	H	0.379637	0.104336	0.100416
	H86	H	0.614831	0.093076	0.917207
	H87	H	0.384128	0.917913	0.909562
	H88	H	0.900805	0.106047	0.623202
	H89	H	0.093455	0.095732	0.388274
	H90	H	0.097112	0.906787	0.621077
	H91	H	0.902848	0.917400	0.389188
	H92	H	0.085679	0.619843	0.911536
	H93	H	0.089001	0.389670	0.092898
	H94	H	0.899538	0.625794	0.100271
	H95	H	0.915859	0.389254	0.907716
	H96	H	0.396848	0.123077	0.592478
	H97	H	0.592520	0.887327	0.590616
	H98	H	0.595948	0.123663	0.407804
	H99	H	0.410919	0.889808	0.416763
	H100	H	0.593562	0.412682	0.117414
	H101	H	0.585789	0.594622	0.889824
	H102	H	0.409970	0.605199	0.119349
	H103	H	0.418075	0.405300	0.888738
	H104	H	0.117998	0.602374	0.408855
	H105	H	0.885828	0.593909	0.585098
	H106	H	0.114289	0.415457	0.592001
	H107	H	0.887267	0.414447	0.420015
	H108	H	0.916965	0.620654	0.100826
	H109	H	0.096571	0.386507	0.094013
	H110	H	0.097335	0.622681	0.914245
	H111	H	0.903644	0.387809	0.916771
	H112	H	0.094830	0.913986	0.618551
	H113	H	0.092515	0.095937	0.388542
	H114	H	0.900461	0.089788	0.618291
	H115	H	0.912211	0.909167	0.389935
	H116	H	0.617356	0.090782	0.904444
	H117	H	0.385716	0.095691	0.091204
	H118	H	0.614566	0.911006	0.090731
	H119	H	0.380496	0.908348	0.905234
	C120	C	0.378258	0.012665	0.625647
	C121	C	0.620445	0.994984	0.625844
	C122	C	0.620109	0.012144	0.383242
	C123	C	0.377999	0.995206	0.382510
	C124	C	0.622315	0.382229	0.010727
	C125	C	0.622525	0.625978	0.994206
	C126	C	0.378393	0.625500	0.010658
	C127	C	0.377966	0.381917	0.994258
	C128	C	0.007936	0.625304	0.381001
	C129	C	0.990680	0.624944	0.624480
	C130	C	0.008091	0.382889	0.624618
	C131	C	0.991237	0.382592	0.380419
	C132	C	0.879352	0.513141	0.123585
	C133	C	0.121305	0.496248	0.124294
	C134	C	0.120727	0.513319	0.881824
	C135	C	0.878886	0.495959	0.880978
	C136	C	0.121908	0.881152	0.511572
	C137	C	0.120934	0.125381	0.495580
	C138	C	0.876466	0.126299	0.511983
	C139	C	0.877212	0.882206	0.495643
	C140	C	0.508807	0.124812	0.882563
	C141	C	0.491106	0.125884	0.126474
	C142	C	0.508402	0.882610	0.125657
	C143	C	0.491186	0.882993	0.882207
	C144	C	0.380300	0.888959	0.680901
	C145	C	0.618716	0.118724	0.680792
	C146	C	0.619217	0.888702	0.327560
	C147	C	0.379457	0.118987	0.327932
	C148	C	0.677018	0.384580	0.887990
	C149	C	0.678102	0.623899	0.116281
	C150	C	0.323357	0.622742	0.888057
	C151	C	0.321790	0.384231	0.116262
	C152	C	0.884007	0.679716	0.384623
	C153	C	0.114331	0.679597	0.620309
	C154	C	0.883994	0.329755	0.619891
	C155	C	0.114555	0.327411	0.384387
	C156	C	0.885336	0.384481	0.680238
	C157	C	0.114097	0.623841	0.679075
	C158	C	0.885181	0.624979	0.324711
	C159	C	0.114205	0.383808	0.325605
	C160	C	0.381914	0.680014	0.887886
	C161	C	0.619635	0.680952	0.116957
	C162	C	0.618678	0.326750	0.888380
	C163	C	0.380966	0.328040	0.117358
	C164	C	0.675198	0.888073	0.386356
	C165	C	0.675453	0.118858	0.623142
	C166	C	0.324072	0.888586	0.622482
	C167	C	0.323168	0.119266	0.386328
	C168	C	0.880749	0.389665	0.178825
	C169	C	0.119510	0.620063	0.179384
	C170	C	0.118797	0.389272	0.826837
	C171	C	0.880739	0.619780	0.826493
	C172	C	0.177489	0.883385	0.389538
	C173	C	0.175253	0.122951	0.618004
	C174	C	0.820829	0.123483	0.389761
	C175	C	0.822339	0.884230	0.618089
	C176	C	0.384685	0.179062	0.886458
	C177	C	0.614913	0.180373	0.122824
	C178	C	0.384955	0.827640	0.122119
	C179	C	0.615175	0.828530	0.885682
	C180	C	0.385556	0.884019	0.181270
	C181	C	0.614353	0.124288	0.181787
	C182	C	0.385578	0.123970	0.826817
	C183	C	0.614192	0.883715	0.826409
	C184	C	0.879910	0.180132	0.388871
	C185	C	0.117028	0.180645	0.617764
	C186	C	0.118005	0.826982	0.388854
	C187	C	0.880589	0.826968	0.617907
	C188	C	0.175413	0.389111	0.884509
	C189	C	0.175931	0.620327	0.121026
	C190	C	0.825055	0.388985	0.120137
	C191	C	0.824172	0.620048	0.884620
	C192	C	0.400024	0.099329	0.604108
	C193	C	0.597854	0.908604	0.603697
	C194	C	0.597734	0.098964	0.405029
	C195	C	0.400844	0.908924	0.404244
	C196	C	0.600740	0.404786	0.095950
	C197	C	0.600641	0.603854	0.908565
	C198	C	0.400372	0.603330	0.095867
	C199	C	0.399969	0.403608	0.909118
	C200	C	0.093976	0.602723	0.402872
	C201	C	0.904679	0.602428	0.603086
	C202	C	0.094479	0.404661	0.603478
	C203	C	0.905054	0.405381	0.401978
	C204	C	0.901432	0.599775	0.101925
	C205	C	0.098826	0.409864	0.102318
	C206	C	0.098514	0.599896	0.903433
	C207	C	0.901182	0.409112	0.902451
	C208	C	0.100201	0.903121	0.597140
	C209	C	0.099204	0.102754	0.410028
	C210	C	0.898609	0.104835	0.597483
	C211	C	0.899003	0.904192	0.410287
	C212	C	0.594612	0.102307	0.903886
	C213	C	0.405266	0.103597	0.105011
	C214	C	0.594360	0.905233	0.103933
	C215	C	0.405156	0.904896	0.903791
	Zn216	Zn	0.499619	0.003914	0.753941
	Zn217	Zn	0.499738	0.004240	0.254492
	Zn218	Zn	0.751671	0.504121	0.002319
	Zn219	Zn	0.248916	0.504240	0.002359
	Zn220	Zn	-0.001044	0.752226	0.502765
	Zn221	Zn	-0.000915	0.254751	0.502750
	Zn222	Zn	0.000041	0.504485	0.753457
	Zn223	Zn	-0.000220	0.504709	0.252134
	Zn224	Zn	0.500143	0.754553	0.002685
	Zn225	Zn	0.500181	0.253148	0.003537
	Zn226	Zn	0.747877	0.003663	0.504417
	Zn227	Zn	0.250264	0.003510	0.503844
	N228	N	0.413408	0.967286	0.683070
	N229	N	0.585349	0.040701	0.682687
	N230	N	0.585896	0.966890	0.325467
	N231	N	0.412866	0.040840	0.325411
	N232	N	0.679469	0.418524	0.965174
	N233	N	0.679813	0.590464	0.039070
	N234	N	0.321107	0.589680	0.965296
	N235	N	0.319711	0.417029	0.038846
	N236	N	0.961379	0.679963	0.418924
	N237	N	0.036700	0.680376	0.586920
	N238	N	0.961420	0.328479	0.586283
	N239	N	0.036966	0.326463	0.417743
	N240	N	0.963521	0.417101	0.683096
	N241	N	0.036331	0.590450	0.681815
	N242	N	0.963167	0.591728	0.322457
	N243	N	0.036448	0.417606	0.323122
	N244	N	0.415511	0.681778	0.964921
	N245	N	0.585777	0.682463	0.039984
	N246	N	0.585689	0.325055	0.965568
	N247	N	0.415199	0.326345	0.040638
	N248	N	0.675789	0.966002	0.420321
	N249	N	0.676542	0.040882	0.589541
	N250	N	0.322795	0.966352	0.588741
	N251	N	0.322315	0.041291	0.419681
	N252	N	0.913795	0.468004	0.181086
	N253	N	0.086462	0.541778	0.181725
	N254	N	0.085434	0.467519	0.824917
	N255	N	0.914076	0.541512	0.824311
	N256	N	0.179975	0.916215	0.467033
	N257	N	0.177595	0.089194	0.540891
	N258	N	0.818709	0.090543	0.467117
	N259	N	0.820252	0.918087	0.541201
	N260	N	0.462109	0.179651	0.920381
	N261	N	0.537431	0.181503	0.089193
	N262	N	0.462278	0.826733	0.088074
	N263	N	0.537996	0.828089	0.919826
	N264	N	0.463382	0.917087	0.183870
	N265	N	0.536366	0.091345	0.184458
	N266	N	0.463481	0.090812	0.824182
	N267	N	0.536279	0.917029	0.824236
	N268	N	0.913909	0.181952	0.465891
	N269	N	0.084012	0.182191	0.540565
	N270	N	0.084247	0.825279	0.465734
	N271	N	0.914223	0.825629	0.540820
	N272	N	0.176541	0.467018	0.918080
	N273	N	0.177191	0.542294	0.087382
	N274	N	0.824015	0.466706	0.086539
	N275	N	0.823218	0.542015	0.917971
	O276	O	0.475462	0.520568	0.470238
	H277	H	0.479792	0.517628	0.466841
	H278	H	0.475390	0.525780	0.461440
	O279	O	-0.000591	0.004552	0.025437
	H280	H	-0.000077	0.002656	0.022073
	H281	H	0.008179	0.006290	0.030729
	O282	O	0.487496	0.491776	0.389068
	H283	H	0.483972	0.491937	0.398206
	H284	H	0.472577	0.499855	0.382655
	O285	O	0.466757	0.550159	0.432846
	H286	H	0.465126	0.540202	0.443352
	H287	H	0.463839	0.552297	0.433745
	O288	O	1.012256	0.003709	0.058398
	H289	H	1.017845	0.001845	0.054053
	H290	H	1.015567	0.002308	0.064031
	O291	O	-0.485819	0.484724	-0.560980
	H292	H	-0.486184	0.480598	-0.565664
	H293	H	-0.483606	0.491008	-0.569448
	O294	O	0.485484	0.494835	0.426520
	H295	H	0.485435	0.496256	0.422741
	H296	H	0.483412	0.485011	0.424436
	O297	O	-0.138947	1.210605	0.188862
	H298	H	-0.141605	1.215499	0.187422
	H299	H	-0.135618	1.201612	0.187265
	O300	O	1.497883	-0.501004	0.480248
	H301	H	1.505217	-0.505343	0.478355
	H302	H	1.501845	-0.506770	0.473717
	O303	O	0.522488	0.469096	0.399998
	H304	H	0.516310	0.475893	0.394153
	H305	H	0.524589	0.478348	0.411258
	O306	O	0.027310	1.024647	1.053106
	H307	H	0.020306	1.027796	1.055172
	H308	H	0.029649	1.033946	1.049338
	O309	O	1.058617	1.013428	1.094884
	H310	H	1.058901	1.016102	1.085640
	H311	H	1.057124	1.006087	1.105453
