data_Molecule from HDF5

_cell_length_a		15.964355
_cell_length_b		16.205894
_cell_length_c		16.500378
_cell_angle_alpha	89.944422
_cell_angle_beta	90.320643
_cell_angle_gamma	89.937901
_symmetry_space_group_name_H-M	'P 1'
_symmetry_Int_Tables_number		1

loop_
	_symmetry_equiv_pos_as_xyz
	x,y,z

loop_
	_atom_site_label
	_atom_site_type_symbol
	_atom_site_fract_x
	_atom_site_fract_y
	_atom_site_fract_z
	H0	H	0.400996	0.841911	0.710541
	H1	H	0.609293	0.166928	0.713104
	H2	H	0.608468	0.841861	0.275698
	H3	H	0.398605	0.165812	0.274003
	H4	H	0.719047	0.407297	0.830001
	H5	H	0.721123	0.600356	0.155479
	H6	H	0.290666	0.601030	0.830411
	H7	H	0.292604	0.407004	0.156053
	H8	H	0.837262	0.714195	0.395064
	H9	H	0.171337	0.715922	0.590581
	H10	H	0.836902	0.295070	0.587980
	H11	H	0.171793	0.293883	0.399667
	H12	H	0.840052	0.402363	0.707774
	H13	H	0.170834	0.604586	0.708586
	H14	H	0.842302	0.608409	0.273801
	H15	H	0.170334	0.399944	0.278813
	H16	H	0.403322	0.721752	0.831453
	H17	H	0.607776	0.721648	0.154377
	H18	H	0.607166	0.284959	0.832522
	H19	H	0.405314	0.286526	0.154192
	H20	H	0.713392	0.838236	0.401235
	H21	H	0.714388	0.170472	0.588364
	H22	H	0.292770	0.839246	0.587831
	H23	H	0.293390	0.169965	0.398021
	H24	H	0.903134	0.341474	0.210377
	H25	H	0.110949	0.665148	0.213330
	H26	H	0.109339	0.340973	0.775916
	H27	H	0.900490	0.665819	0.774165
	H28	H	0.216704	0.908074	0.329752
	H29	H	0.219225	0.100867	0.655231
	H30	H	0.788885	0.100278	0.329924
	H31	H	0.791620	0.908320	0.656865
	H32	H	0.338609	0.216595	0.895300
	H33	H	0.671540	0.214676	0.091807
	H34	H	0.338059	0.792559	0.089235
	H35	H	0.671721	0.794029	0.898360
	H36	H	0.338134	0.903398	0.206563
	H37	H	0.668478	0.106982	0.210959
	H38	H	0.340330	0.108032	0.776829
	H39	H	0.669037	0.901518	0.778230
	H40	H	0.903253	0.221738	0.330988
	H41	H	0.104727	0.219827	0.655015
	H42	H	0.104501	0.786183	0.331535
	H43	H	0.904161	0.786519	0.654324
	H44	H	0.215750	0.337981	0.900579
	H45	H	0.216714	0.669946	0.088776
	H46	H	0.795417	0.338505	0.086776
	H47	H	0.795243	0.669449	0.897447
	H48	H	0.420381	0.119486	0.587610
	H49	H	0.596900	0.888734	0.582029
	H50	H	0.591548	0.121683	0.395715
	H51	H	0.414484	0.886048	0.397274
	H52	H	0.605712	0.414231	0.108341
	H53	H	0.589936	0.599742	0.879788
	H54	H	0.415098	0.597678	0.107339
	H55	H	0.416230	0.407928	0.878617
	H56	H	0.122166	0.592772	0.406405
	H57	H	0.884788	0.594220	0.589930
	H58	H	0.122787	0.415276	0.585072
	H59	H	0.887095	0.417467	0.399719
	H60	H	0.125257	0.412571	0.591627
	H61	H	0.885185	0.598103	0.583899
	H62	H	0.124397	0.592638	0.400250
	H63	H	0.884500	0.413316	0.394536
	H64	H	0.413707	0.601806	0.108713
	H65	H	0.600719	0.607726	0.874913
	H66	H	0.593090	0.411812	0.105458
	H67	H	0.408144	0.407639	0.876689
	H68	H	0.591182	0.120683	0.401988
	H69	H	0.599605	0.885325	0.593691
	H70	H	0.408964	0.121824	0.581720
	H71	H	0.411145	0.886688	0.399830
	H72	H	0.911850	0.622044	0.084705
	H73	H	0.097499	0.383309	0.099643
	H74	H	0.094282	0.620668	0.900278
	H75	H	0.919378	0.388517	0.901382
	H76	H	0.089764	0.904185	0.606874
	H77	H	0.087319	0.094310	0.382066
	H78	H	0.903597	0.104254	0.611218
	H79	H	0.904833	0.904783	0.376049
	H80	H	0.625159	0.092704	0.895271
	H81	H	0.385115	0.094168	0.085906
	H82	H	0.622125	0.916713	0.083871
	H83	H	0.381076	0.906650	0.894466
	H84	H	0.623930	0.916862	0.091472
	H85	H	0.384364	0.096780	0.086376
	H86	H	0.625198	0.099753	0.902696
	H87	H	0.387566	0.912383	0.910360
	H88	H	0.909941	0.093143	0.605786
	H89	H	0.094982	0.111087	0.375667
	H90	H	0.105701	0.906700	0.611252
	H91	H	0.905894	0.914980	0.378198
	H92	H	0.098422	0.622594	0.898402
	H93	H	0.087312	0.390800	0.083295
	H94	H	0.916133	0.622971	0.090899
	H95	H	0.907427	0.384814	0.900148
	H96	H	0.410679	0.125187	0.594515
	H97	H	0.587963	0.888385	0.591026
	H98	H	0.597580	0.122457	0.399529
	H99	H	0.410896	0.885383	0.395178
	H100	H	0.601243	0.402198	0.109894
	H101	H	0.603896	0.593550	0.877741
	H102	H	0.410910	0.598597	0.108798
	H103	H	0.411080	0.415204	0.879256
	H104	H	0.124994	0.597188	0.403238
	H105	H	0.887151	0.590933	0.583822
	H106	H	0.125813	0.408424	0.585343
	H107	H	0.884802	0.410970	0.400885
	H108	H	0.919370	0.619375	0.085015
	H109	H	0.106882	0.384796	0.081623
	H110	H	0.094892	0.621631	0.895709
	H111	H	0.915427	0.384414	0.890530
	H112	H	0.097500	0.918445	0.604162
	H113	H	0.105968	0.094983	0.375956
	H114	H	0.917669	0.105203	0.607710
	H115	H	0.914414	0.908055	0.380292
	H116	H	0.622497	0.090325	0.905351
	H117	H	0.385834	0.095862	0.084843
	H118	H	0.624314	0.909289	0.087380
	H119	H	0.386021	0.923260	0.895891
	C120	C	0.383587	0.013483	0.615167
	C121	C	0.624715	0.995841	0.616601
	C122	C	0.623658	0.013035	0.371949
	C123	C	0.382788	0.994927	0.370129
	C124	C	0.628669	0.380905	0.001166
	C125	C	0.628258	0.627864	0.984538
	C126	C	0.383278	0.627164	0.001151
	C127	C	0.383561	0.381799	0.985077
	C128	C	0.014247	0.624208	0.372885
	C129	C	0.995788	0.624325	0.614666
	C130	C	0.014170	0.383113	0.614601
	C131	C	0.995674	0.384168	0.371737
	C132	C	0.885780	0.513056	0.114842
	C133	C	0.127772	0.494750	0.116326
	C134	C	0.125838	0.512750	0.871215
	C135	C	0.884652	0.494786	0.869858
	C136	C	0.126285	0.881174	0.500775
	C137	C	0.126020	0.127756	0.484908
	C138	C	0.881053	0.128263	0.501081
	C139	C	0.880891	0.881438	0.485403
	C140	C	0.514416	0.124486	0.872032
	C141	C	0.495245	0.124896	0.114868
	C142	C	0.513604	0.884054	0.115080
	C143	C	0.495137	0.884586	0.872795
	C144	C	0.382781	0.890403	0.671229
	C145	C	0.626479	0.118747	0.673171
	C146	C	0.625531	0.890098	0.315692
	C147	C	0.381372	0.117711	0.313734
	C148	C	0.682099	0.385230	0.878803
	C149	C	0.684011	0.622833	0.106622
	C150	C	0.328017	0.622908	0.878885
	C151	C	0.329453	0.385607	0.107115
	C152	C	0.888203	0.678288	0.374438
	C153	C	0.121317	0.679273	0.611874
	C154	C	0.887714	0.330443	0.609666
	C155	C	0.121529	0.329486	0.377040
	C156	C	0.889142	0.383973	0.669194
	C157	C	0.121121	0.623588	0.670146
	C158	C	0.890754	0.625611	0.314023
	C159	C	0.121074	0.383001	0.317590
	C160	C	0.383995	0.683039	0.879494
	C161	C	0.627622	0.683289	0.106114
	C162	C	0.626595	0.324423	0.880212
	C163	C	0.385847	0.325779	0.106273
	C164	C	0.677532	0.888043	0.378061
	C165	C	0.678927	0.120485	0.611497
	C166	C	0.329371	0.888908	0.610131
	C167	C	0.328881	0.119770	0.375319
	C168	C	0.885037	0.389812	0.171040
	C169	C	0.128886	0.617330	0.173383
	C170	C	0.126956	0.389436	0.815438
	C171	C	0.883403	0.617625	0.813696
	C172	C	0.179744	0.886176	0.378405
	C173	C	0.181269	0.122701	0.606842
	C174	C	0.825896	0.123158	0.378884
	C175	C	0.828071	0.886295	0.607931
	C176	C	0.388950	0.179944	0.874539
	C177	C	0.621058	0.178487	0.112456
	C178	C	0.388039	0.829122	0.110995
	C179	C	0.621323	0.830479	0.877006
	C180	C	0.388032	0.884466	0.169056
	C181	C	0.619416	0.124752	0.171974
	C182	C	0.389954	0.126155	0.815317
	C183	C	0.619922	0.883660	0.817117
	C184	C	0.882580	0.183530	0.379341
	C185	C	0.124178	0.181722	0.606687
	C186	C	0.123993	0.825311	0.379549
	C187	C	0.884130	0.825760	0.606682
	C188	C	0.179756	0.387685	0.877468
	C189	C	0.181426	0.619565	0.111372
	C190	C	0.831487	0.388436	0.109641
	C191	C	0.830944	0.619486	0.874958
	C192	C	0.406582	0.099740	0.594047
	C193	C	0.601579	0.909760	0.595268
	C194	C	0.600397	0.099156	0.393104
	C195	C	0.405550	0.908270	0.391403
	C196	C	0.606672	0.402973	0.086016
	C197	C	0.605051	0.606643	0.899452
	C198	C	0.406469	0.605648	0.086084
	C199	C	0.405463	0.403710	0.900078
	C200	C	0.101430	0.601069	0.396596
	C201	C	0.908267	0.601333	0.592356
	C202	C	0.101945	0.405350	0.593647
	C203	C	0.908046	0.407390	0.392250
	C204	C	0.909027	0.599088	0.093331
	C205	C	0.104063	0.408641	0.094748
	C206	C	0.102684	0.599050	0.892072
	C207	C	0.907277	0.408428	0.891154
	C208	C	0.104202	0.903195	0.585497
	C209	C	0.103017	0.106363	0.399810
	C210	C	0.903906	0.107023	0.586315
	C211	C	0.902147	0.902799	0.400257
	C212	C	0.601836	0.100971	0.894587
	C213	C	0.407632	0.102311	0.092121
	C214	C	0.600918	0.907419	0.093930
	C215	C	0.407610	0.907408	0.894049
	Zn216	Zn	0.504324	0.004253	0.744956
	Zn217	Zn	0.503707	0.004075	0.242311
	Zn218	Zn	0.757696	0.504163	-0.007973
	Zn219	Zn	0.253882	0.504407	-0.006686
	Zn220	Zn	0.003922	0.751047	0.492639
	Zn221	Zn	0.004553	0.257974	0.492765
	Zn222	Zn	0.004827	0.503302	0.742019
	Zn223	Zn	0.006527	0.503949	0.244913
	Zn224	Zn	0.504828	0.757875	-0.006617
	Zn225	Zn	0.505600	0.251045	-0.006816
	Zn226	Zn	0.751218	0.004454	0.494194
	Zn227	Zn	0.255718	0.004590	0.492548
	N228	N	0.415777	0.968743	0.674528
	N229	N	0.593453	0.040411	0.676451
	N230	N	0.592421	0.968547	0.311919
	N231	N	0.413615	0.039008	0.309942
	N232	N	0.683555	0.419620	0.955077
	N233	N	0.684503	0.589077	0.030053
	N234	N	0.327283	0.589103	0.955313
	N235	N	0.327814	0.419584	0.030614
	N236	N	0.966148	0.677384	0.410277
	N237	N	0.042373	0.679863	0.578066
	N238	N	0.966662	0.329712	0.576425
	N239	N	0.042587	0.330104	0.410021
	N240	N	0.968740	0.416108	0.672263
	N241	N	0.041996	0.590000	0.671994
	N242	N	0.970187	0.592366	0.313057
	N243	N	0.041650	0.416153	0.314182
	N244	N	0.417675	0.685984	0.956699
	N245	N	0.593489	0.686332	0.029389
	N246	N	0.593907	0.321771	0.957236
	N247	N	0.418715	0.323228	0.029477
	N248	N	0.676750	0.965527	0.412290
	N249	N	0.678049	0.043199	0.576898
	N250	N	0.329539	0.966405	0.575745
	N251	N	0.329555	0.042340	0.409721
	N252	N	0.917958	0.468287	0.174652
	N253	N	0.096128	0.538808	0.176457
	N254	N	0.094122	0.468050	0.811485
	N255	N	0.915978	0.539082	0.810393
	N256	N	0.181341	0.920362	0.454816
	N257	N	0.182626	0.089835	0.530145
	N258	N	0.824545	0.089689	0.455555
	N259	N	0.826105	0.920457	0.531518
	N260	N	0.467587	0.179267	0.909220
	N261	N	0.542567	0.178851	0.077697
	N262	N	0.466951	0.828811	0.078082
	N263	N	0.542871	0.831015	0.910877
	N264	N	0.467199	0.918002	0.171600
	N265	N	0.540025	0.091854	0.173274
	N266	N	0.469034	0.092461	0.813520
	N267	N	0.540407	0.916692	0.814264
	N268	N	0.916089	0.186729	0.456426
	N269	N	0.090487	0.184833	0.529698
	N270	N	0.091672	0.822158	0.456631
	N271	N	0.916345	0.822848	0.529618
	N272	N	0.179507	0.465339	0.911458
	N273	N	0.180892	0.542348	0.076681
	N274	N	0.831635	0.465819	0.075365
	N275	N	0.831249	0.542005	0.909119
	O276	O	-0.051076	0.023293	0.020788
	H277	H	-0.047410	0.013848	0.021277
	H278	H	-0.052107	0.024688	0.018151
	O279	O	0.436772	0.621863	0.367596
	H280	H	0.446482	0.618549	0.353004
	H281	H	0.438557	0.618991	0.368313
	O282	O	0.640085	0.413836	0.371943
	H283	H	0.643874	0.413056	0.381093
	H284	H	0.634491	0.408395	0.360593
	O285	O	1.067957	0.040122	1.004284
	H286	H	1.065339	0.034468	1.007843
	H287	H	1.076029	0.037817	1.010131
	O288	O	1.010673	-0.011040	-0.092241
	H289	H	1.014282	-0.011982	-0.102913
	H290	H	1.008316	-0.012413	-0.084574
	O291	O	0.523545	0.519647	0.618313
	H292	H	0.524299	0.534392	0.621573
	H293	H	0.520846	0.516226	0.619592
	O294	O	0.999823	-0.063523	0.969693
	H295	H	1.005796	-0.073380	0.966996
	H296	H	0.989117	-0.062082	0.967376
	O297	O	-0.007576	0.043670	-0.057901
	H298	H	-0.007088	0.042082	-0.059068
	H299	H	-0.014525	0.044641	-0.054242
	O300	O	0.467263	0.455650	0.418344
	H301	H	0.462299	0.449785	0.426054
	H302	H	0.473306	0.461996	0.408898
	O303	O	0.525090	0.457551	0.497621
	H304	H	0.513783	0.447699	0.501275
	H305	H	0.528800	0.462006	0.509862
	O306	O	0.998124	0.005586	0.008002
	H307	H	1.002371	0.002839	0.010845
	H308	H	0.996798	-0.006734	0.012076
	O309	O	0.045138	-0.056482	1.007564
	H310	H	0.046448	-0.056986	1.013933
	H311	H	0.050268	-0.059782	1.013496
	O312	O	1.424953	0.524392	1.536993
	H313	H	1.425497	0.527968	1.531681
	H314	H	1.419219	0.524839	1.538235
	O315	O	0.448405	0.477064	0.539685
	H316	H	0.454095	0.483106	0.542313
	H317	H	0.448409	0.485972	0.538838
	O318	O	0.538336	0.542860	0.484247
	H319	H	0.531376	0.534329	0.492139
	H320	H	0.545038	0.529859	0.468003
	O321	O	-0.026908	1.066730	0.949321
	H322	H	-0.035658	1.085520	0.940722
	H323	H	-0.030529	1.074876	0.935687
	O324	O	0.560579	0.446236	0.335666
	H325	H	0.555791	0.450126	0.339266
	H326	H	0.549328	0.439339	0.329676
	O327	O	0.620591	0.568770	0.485614
	H328	H	0.631876	0.561237	0.486677
	H329	H	0.626470	0.584150	0.493387
	O330	O	0.551714	0.508318	0.552241
	H331	H	0.556708	0.518313	0.554023
	H332	H	0.541847	0.512864	0.552979
	O333	O	0.479190	0.521994	0.467130
	H334	H	0.476990	0.525606	0.478935
	H335	H	0.489962	0.518524	0.480990
	O336	O	0.445310	0.516075	0.553994
	H337	H	0.436710	0.508502	0.549969
	H338	H	0.446307	0.522418	0.542201
	O339	O	0.975488	1.071125	0.005788
	H340	H	0.982674	1.082029	0.011396
	H341	H	0.979964	1.073264	0.008226
	O342	O	0.608268	0.483104	0.489201
	H343	H	0.611795	0.473349	0.488933
	H344	H	0.607169	0.490428	0.487362
	O345	O	0.496549	0.410902	0.515745
	H346	H	0.506331	0.403523	0.513964
	H347	H	0.492762	0.397522	0.523053
	O348	O	-0.627275	0.559832	0.405556
	H349	H	-0.628040	0.572737	0.402734
	H350	H	-0.621361	0.554213	0.387671
	O351	O	-0.029775	0.958830	0.987068
	H352	H	-0.024071	0.960835	0.979746
	H353	H	-0.031566	0.959244	0.981704
	O354	O	0.524295	0.523908	0.525826
	H355	H	0.527772	0.526120	0.524526
	H356	H	0.518101	0.531385	0.522620
	O357	O	-0.013323	1.043830	1.012412
	H358	H	-0.022408	1.056255	1.008485
	H359	H	-0.012933	1.045873	1.010774
