data_Molecule from HDF5

_cell_length_a		16.266930
_cell_length_b		16.298782
_cell_length_c		16.281945
_cell_angle_alpha	90.079779
_cell_angle_beta	90.190721
_cell_angle_gamma	90.039625
_symmetry_space_group_name_H-M	'P 1'
_symmetry_Int_Tables_number		1

loop_
	_symmetry_equiv_pos_as_xyz
	x,y,z

loop_
	_atom_site_label
	_atom_site_type_symbol
	_atom_site_fract_x
	_atom_site_fract_y
	_atom_site_fract_z
	H0	H	0.395318	0.827529	0.708310
	H1	H	0.589158	0.156074	0.709965
	H2	H	0.588734	0.828910	0.281582
	H3	H	0.392999	0.156317	0.281992
	H4	H	0.704792	0.394201	0.831354
	H5	H	0.706433	0.590683	0.158816
	H6	H	0.277023	0.588548	0.831497
	H7	H	0.277169	0.393676	0.159780
	H8	H	0.828361	0.706426	0.395736
	H9	H	0.154633	0.706209	0.594497
	H10	H	0.826758	0.278529	0.591820
	H11	H	0.154896	0.277111	0.397292
	H12	H	0.827298	0.393200	0.709213
	H13	H	0.154190	0.590319	0.710262
	H14	H	0.828750	0.590835	0.279764
	H15	H	0.155348	0.393573	0.282193
	H16	H	0.392397	0.705643	0.831291
	H17	H	0.589069	0.706374	0.159210
	H18	H	0.588416	0.277546	0.832435
	H19	H	0.393987	0.278516	0.160213
	H20	H	0.704268	0.828428	0.398138
	H21	H	0.706518	0.155787	0.594183
	H22	H	0.277815	0.828350	0.593071
	H23	H	0.277375	0.156148	0.399061
	H24	H	0.893780	0.328607	0.209948
	H25	H	0.090496	0.655337	0.211284
	H26	H	0.087928	0.328382	0.781228
	H27	H	0.891830	0.656202	0.779691
	H28	H	0.204455	0.894147	0.332131
	H29	H	0.205355	0.089592	0.659339
	H30	H	0.775810	0.090382	0.331095
	H31	H	0.778291	0.894135	0.658720
	H32	H	0.327010	0.205488	0.897376
	H33	H	0.654776	0.206872	0.095464
	H34	H	0.326727	0.778274	0.092542
	H35	H	0.655060	0.777473	0.897331
	H36	H	0.327041	0.894174	0.208801
	H37	H	0.654753	0.090108	0.210265
	H38	H	0.327623	0.089935	0.780884
	H39	H	0.655817	0.894722	0.783448
	H40	H	0.892675	0.206270	0.331305
	H41	H	0.090435	0.206961	0.659184
	H42	H	0.090211	0.776037	0.332816
	H43	H	0.893153	0.777567	0.658635
	H44	H	0.204507	0.328551	0.897699
	H45	H	0.205197	0.656504	0.093856
	H46	H	0.777148	0.328307	0.092754
	H47	H	0.776505	0.656322	0.896702
	H48	H	0.408664	0.107765	0.596511
	H49	H	0.584317	0.876467	0.587632
	H50	H	0.588563	0.110501	0.399787
	H51	H	0.392713	0.874694	0.402975
	H52	H	0.580949	0.396319	0.111789
	H53	H	0.586071	0.587151	0.877379
	H54	H	0.397467	0.581594	0.110990
	H55	H	0.400873	0.400578	0.881777
	H56	H	0.111309	0.586431	0.396321
	H57	H	0.872541	0.584096	0.592607
	H58	H	0.108584	0.397585	0.591086
	H59	H	0.875663	0.394670	0.409346
	H60	H	0.108133	0.397576	0.587287
	H61	H	0.872891	0.589736	0.585134
	H62	H	0.107536	0.590356	0.409950
	H63	H	0.876032	0.406202	0.401078
	H64	H	0.402482	0.588833	0.111898
	H65	H	0.584546	0.583019	0.878988
	H66	H	0.588874	0.397445	0.114299
	H67	H	0.398243	0.394716	0.878186
	H68	H	0.578361	0.107803	0.401502
	H69	H	0.588090	0.875286	0.589961
	H70	H	0.398481	0.104801	0.577501
	H71	H	0.398950	0.874905	0.396974
	H72	H	0.897871	0.608563	0.088225
	H73	H	0.094278	0.374647	0.084682
	H74	H	0.077616	0.606312	0.903770
	H75	H	0.899593	0.377863	0.906268
	H76	H	0.087626	0.906168	0.611757
	H77	H	0.082616	0.085832	0.379412
	H78	H	0.901094	0.088475	0.611571
	H79	H	0.894427	0.903655	0.378801
	H80	H	0.608193	0.081863	0.899028
	H81	H	0.375820	0.079645	0.088056
	H82	H	0.606685	0.899784	0.085514
	H83	H	0.372664	0.897810	0.895662
	H84	H	0.607527	0.901779	0.091464
	H85	H	0.371745	0.088351	0.094964
	H86	H	0.609313	0.090965	0.902791
	H87	H	0.373984	0.893350	0.904632
	H88	H	0.895569	0.085761	0.612464
	H89	H	0.086084	0.086343	0.378070
	H90	H	0.076910	0.897946	0.610208
	H91	H	0.903335	0.898361	0.380481
	H92	H	0.089467	0.608857	0.907177
	H93	H	0.084148	0.374009	0.098847
	H94	H	0.899967	0.608480	0.089573
	H95	H	0.893818	0.375268	0.900802
	H96	H	0.387883	0.113160	0.594163
	H97	H	0.583446	0.874791	0.592214
	H98	H	0.585218	0.106899	0.409089
	H99	H	0.400870	0.877879	0.405317
	H100	H	0.584572	0.404421	0.111000
	H101	H	0.581970	0.586743	0.878855
	H102	H	0.394063	0.589019	0.114041
	H103	H	0.393882	0.401170	0.879120
	H104	H	0.105384	0.576598	0.405721
	H105	H	0.876374	0.580974	0.584501
	H106	H	0.106975	0.400517	0.589527
	H107	H	0.871871	0.394298	0.395450
	H108	H	0.899548	0.607659	0.087407
	H109	H	0.077404	0.379475	0.083704
	H110	H	0.085331	0.611430	0.895718
	H111	H	0.901005	0.376459	0.898679
	H112	H	0.088965	0.893209	0.614994
	H113	H	0.084716	0.083415	0.379112
	H114	H	0.900129	0.082754	0.609559
	H115	H	0.895616	0.893611	0.375885
	H116	H	0.605086	0.083126	0.908711
	H117	H	0.374119	0.090679	0.083402
	H118	H	0.608085	0.895710	0.089948
	H119	H	0.376454	0.903414	0.903647
	C120	C	0.370237	0.000196	0.617393
	C121	C	0.613436	0.983802	0.618087
	C122	C	0.612660	0.000782	0.374615
	C123	C	0.369224	0.984072	0.373972
	C124	C	0.612585	0.370527	0.003998
	C125	C	0.612464	0.613557	0.987028
	C126	C	0.369325	0.614018	0.003919
	C127	C	0.369199	0.370493	0.987893
	C128	C	0.000088	0.613121	0.374578
	C129	C	0.982225	0.613709	0.616639
	C130	C	-0.000530	0.370515	0.616649
	C131	C	0.982917	0.370246	0.373831
	C132	C	0.870715	0.500334	0.116543
	C133	C	0.113311	0.484119	0.117643
	C134	C	0.112504	0.500643	0.873818
	C135	C	0.869324	0.484462	0.873236
	C136	C	0.112915	0.870284	0.504327
	C137	C	0.112966	0.113924	0.487092
	C138	C	0.869719	0.113810	0.503183
	C139	C	0.870152	0.870565	0.486833
	C140	C	0.499551	0.113845	0.874375
	C141	C	0.482567	0.114322	0.117463
	C142	C	0.499174	0.870556	0.117197
	C143	C	0.482825	0.870398	0.873805
	C144	C	0.374081	0.876805	0.671189
	C145	C	0.610226	0.107187	0.672211
	C146	C	0.609808	0.877571	0.319305
	C147	C	0.371994	0.107369	0.319569
	C148	C	0.667168	0.373276	0.880422
	C149	C	0.668256	0.611412	0.110176
	C150	C	0.314529	0.610084	0.880379
	C151	C	0.314806	0.373347	0.110968
	C152	C	0.877052	0.668412	0.375607
	C153	C	0.105721	0.668565	0.615000
	C154	C	0.875829	0.315792	0.612975
	C155	C	0.106263	0.315567	0.376987
	C156	C	0.875955	0.373066	0.670957
	C157	C	0.105403	0.610953	0.672457
	C158	C	0.877031	0.610725	0.318494
	C159	C	0.106439	0.373140	0.319561
	C160	C	0.371797	0.667991	0.880217
	C161	C	0.610027	0.668860	0.110320
	C162	C	0.609751	0.315225	0.880989
	C163	C	0.372735	0.315824	0.111126
	C164	C	0.667169	0.877430	0.377160
	C165	C	0.668419	0.106973	0.614690
	C166	C	0.315653	0.876964	0.614108
	C167	C	0.314466	0.107207	0.377605
	C168	C	0.873361	0.377330	0.171692
	C169	C	0.110743	0.607013	0.172991
	C170	C	0.109116	0.377422	0.818912
	C171	C	0.871493	0.607449	0.817892
	C172	C	0.167124	0.873195	0.381101
	C173	C	0.167499	0.110811	0.610682
	C174	C	0.814071	0.110946	0.379979
	C175	C	0.815791	0.873625	0.609901
	C176	C	0.376118	0.168283	0.876529
	C177	C	0.605755	0.169080	0.115424
	C178	C	0.375772	0.815978	0.113504
	C179	C	0.606379	0.815752	0.877119
	C180	C	0.375947	0.873443	0.171484
	C181	C	0.605792	0.111241	0.172608
	C182	C	0.376310	0.110679	0.818991
	C183	C	0.606662	0.873780	0.820333
	C184	C	0.872271	0.168311	0.379946
	C185	C	0.110478	0.168975	0.610386
	C186	C	0.110423	0.814602	0.381402
	C187	C	0.872893	0.815576	0.609848
	C188	C	0.166875	0.377425	0.876975
	C189	C	0.167737	0.607505	0.114894
	C190	C	0.814857	0.377251	0.114108
	C191	C	0.814270	0.607514	0.875965
	C192	C	0.391916	0.086424	0.595647
	C193	C	0.591652	0.897742	0.596320
	C194	C	0.590520	0.086451	0.396824
	C195	C	0.391117	0.898058	0.395376
	C196	C	0.590923	0.392694	0.090056
	C197	C	0.590606	0.592090	0.900690
	C198	C	0.391469	0.592729	0.090038
	C199	C	0.391113	0.392346	0.901814
	C200	C	0.085926	0.590845	0.397131
	C201	C	0.896191	0.591599	0.593929
	C202	C	0.085622	0.392134	0.595603
	C203	C	0.896724	0.392060	0.395372
	C204	C	0.892735	0.586236	0.094756
	C205	C	0.091730	0.398230	0.095650
	C206	C	0.090564	0.586592	0.895819
	C207	C	0.891692	0.398619	0.895185
	C208	C	0.090938	0.892505	0.590212
	C209	C	0.091004	0.091803	0.401157
	C210	C	0.892153	0.091960	0.589177
	C211	C	0.891526	0.892202	0.400630
	C212	C	0.585387	0.091939	0.896913
	C213	C	0.396149	0.092563	0.095337
	C214	C	0.585383	0.892685	0.095520
	C215	C	0.396584	0.891905	0.895077
	Zn216	Zn	0.491735	-0.007684	0.746325
	Zn217	Zn	0.491130	-0.007423	0.245782
	Zn218	Zn	0.741088	0.492235	-0.005011
	Zn219	Zn	0.240919	0.492502	-0.003947
	Zn220	Zn	-0.008767	0.741558	0.495216
	Zn221	Zn	-0.008710	0.242105	0.495200
	Zn222	Zn	-0.009364	0.492571	0.745221
	Zn223	Zn	-0.007867	0.492145	0.246433
	Zn224	Zn	0.490835	0.742172	-0.004933
	Zn225	Zn	0.490598	0.242150	-0.004175
	Zn226	Zn	0.741786	-0.008113	0.495201
	Zn227	Zn	0.241160	-0.007840	0.496136
	N228	N	0.407265	0.954460	0.673306
	N229	N	0.577051	0.029593	0.674491
	N230	N	0.576579	0.955284	0.317518
	N231	N	0.405250	0.029862	0.317204
	N232	N	0.668928	0.407149	0.957990
	N233	N	0.669771	0.577887	0.032538
	N234	N	0.312970	0.577209	0.958246
	N235	N	0.312602	0.406581	0.033377
	N236	N	0.954270	0.669631	0.410162
	N237	N	0.028112	0.670165	0.580865
	N238	N	0.953636	0.313894	0.580015
	N239	N	0.028495	0.313503	0.409709
	N240	N	0.953591	0.406357	0.673507
	N241	N	0.027674	0.577637	0.673546
	N242	N	0.954664	0.577143	0.317693
	N243	N	0.028719	0.406445	0.317559
	N244	N	0.405274	0.670354	0.957983
	N245	N	0.576003	0.670201	0.032802
	N246	N	0.576692	0.313517	0.958719
	N247	N	0.405563	0.313785	0.033349
	N248	N	0.668891	0.954784	0.410909
	N249	N	0.670543	0.029142	0.581762
	N250	N	0.313291	0.954690	0.581262
	N251	N	0.312750	0.029437	0.410688
	N252	N	0.907223	0.454801	0.173330
	N253	N	0.077635	0.529440	0.174848
	N254	N	0.076098	0.455126	0.816726
	N255	N	0.905194	0.529950	0.816408
	N256	N	0.168953	0.907109	0.458612
	N257	N	0.169118	0.077212	0.533221
	N258	N	0.812365	0.078016	0.457686
	N259	N	0.814080	0.907134	0.532359
	N260	N	0.453727	0.170144	0.910351
	N261	N	0.528070	0.170757	0.081509
	N262	N	0.453469	0.814051	0.080525
	N263	N	0.528526	0.813620	0.909888
	N264	N	0.453716	0.906860	0.173628
	N265	N	0.528086	0.077920	0.173909
	N266	N	0.453993	0.077567	0.817503
	N267	N	0.528955	0.907168	0.818260
	N268	N	0.906203	0.170041	0.457479
	N269	N	0.077183	0.170833	0.532528
	N270	N	0.077161	0.812939	0.458889
	N271	N	0.905918	0.813452	0.532138
	N272	N	0.168719	0.454912	0.910575
	N273	N	0.169443	0.530088	0.081150
	N274	N	0.813218	0.454630	0.080387
	N275	N	0.812829	0.530157	0.909642
	O276	O	0.981049	0.024054	0.937382
	H277	H	0.976703	0.023475	0.936711
	H278	H	0.974921	0.029705	0.931884
	O279	O	0.947315	1.044141	0.964373
	H280	H	0.950883	1.047234	0.964341
	H281	H	0.956633	1.044596	0.962887
	O282	O	0.930618	1.028406	-0.041397
	H283	H	0.923299	1.038541	-0.041089
	H284	H	0.931495	1.026231	-0.038691
	O285	O	0.983482	1.040663	0.956763
	H286	H	0.981910	1.033854	0.957800
	H287	H	0.986015	1.035523	0.957813
