data_Molecule from HDF5

_cell_length_a		16.155323
_cell_length_b		16.224774
_cell_length_c		16.331012
_cell_angle_alpha	90.101996
_cell_angle_beta	90.063858
_cell_angle_gamma	89.891758
_symmetry_space_group_name_H-M	'P 1'
_symmetry_Int_Tables_number		1

loop_
	_symmetry_equiv_pos_as_xyz
	x,y,z

loop_
	_atom_site_label
	_atom_site_type_symbol
	_atom_site_fract_x
	_atom_site_fract_y
	_atom_site_fract_z
	H0	H	0.399064	0.841860	0.709881
	H1	H	0.598293	0.169605	0.712571
	H2	H	0.600302	0.842849	0.279435
	H3	H	0.397420	0.169980	0.280506
	H4	H	0.714639	0.407207	0.830598
	H5	H	0.715120	0.605923	0.157291
	H6	H	0.285522	0.603707	0.830379
	H7	H	0.283554	0.407294	0.156682
	H8	H	0.834143	0.719492	0.396453
	H9	H	0.164862	0.719055	0.592720
	H10	H	0.834256	0.294785	0.591847
	H11	H	0.164153	0.292046	0.396619
	H12	H	0.835397	0.407427	0.709429
	H13	H	0.163535	0.606482	0.710367
	H14	H	0.834751	0.605801	0.279905
	H15	H	0.163538	0.404704	0.279704
	H16	H	0.399370	0.721493	0.832061
	H17	H	0.599755	0.722807	0.157497
	H18	H	0.598555	0.289926	0.830743
	H19	H	0.398457	0.291203	0.156747
	H20	H	0.711555	0.841330	0.399027
	H21	H	0.711877	0.170538	0.594517
	H22	H	0.285753	0.841661	0.592621
	H23	H	0.285375	0.171194	0.398715
	H24	H	0.899789	0.342647	0.208335
	H25	H	0.099925	0.669266	0.211714
	H26	H	0.101518	0.343483	0.778058
	H27	H	0.898634	0.669673	0.779338
	H28	H	0.214513	0.907039	0.332172
	H29	H	0.213819	0.106048	0.658892
	H30	H	0.782629	0.105276	0.332281
	H31	H	0.787381	0.909718	0.659439
	H32	H	0.333489	0.218750	0.896948
	H33	H	0.663633	0.221410	0.094126
	H34	H	0.333096	0.793187	0.092258
	H35	H	0.664210	0.793655	0.899138
	H36	H	0.333941	0.906586	0.210870
	H37	H	0.663496	0.105987	0.211212
	H38	H	0.335016	0.105463	0.780298
	H39	H	0.662831	0.904108	0.780986
	H40	H	0.898061	0.222230	0.331881
	H41	H	0.098395	0.222560	0.658223
	H42	H	0.099940	0.789992	0.332579
	H43	H	0.901344	0.791828	0.658055
	H44	H	0.212597	0.342150	0.896946
	H45	H	0.211788	0.670756	0.093253
	H46	H	0.785050	0.342611	0.093003
	H47	H	0.786503	0.670960	0.896822
	H48	H	0.406161	0.121407	0.583246
	H49	H	0.587410	0.889260	0.591714
	H50	H	0.595729	0.125264	0.401951
	H51	H	0.406770	0.890763	0.406955
	H52	H	0.594359	0.417066	0.110141
	H53	H	0.590428	0.607729	0.876498
	H54	H	0.404965	0.599583	0.111553
	H55	H	0.397600	0.410935	0.875068
	H56	H	0.114794	0.600220	0.411033
	H57	H	0.880129	0.605311	0.586765
	H58	H	0.117714	0.410348	0.582968
	H59	H	0.880433	0.410895	0.398173
	H60	H	0.115253	0.420500	0.587742
	H61	H	0.884716	0.595420	0.582504
	H62	H	0.114751	0.589611	0.399966
	H63	H	0.882704	0.413528	0.405327
	H64	H	0.405684	0.599297	0.110708
	H65	H	0.599968	0.596333	0.876973
	H66	H	0.587660	0.416797	0.107908
	H67	H	0.407796	0.418510	0.879941
	H68	H	0.586806	0.122725	0.399390
	H69	H	0.594323	0.889332	0.584664
	H70	H	0.402185	0.125808	0.593035
	H71	H	0.403740	0.887643	0.400785
	H72	H	0.892817	0.627137	0.084367
	H73	H	0.090499	0.388640	0.089509
	H74	H	0.092251	0.624333	0.899203
	H75	H	0.904687	0.386454	0.895513
	H76	H	0.092027	0.913649	0.611378
	H77	H	0.089118	0.094568	0.381115
	H78	H	0.905945	0.094689	0.610389
	H79	H	0.910215	0.911009	0.379799
	H80	H	0.618714	0.108502	0.905409
	H81	H	0.385620	0.093986	0.081418
	H82	H	0.613198	0.918749	0.085627
	H83	H	0.381085	0.916858	0.897932
	H84	H	0.617301	0.914810	0.094808
	H85	H	0.380963	0.093848	0.097844
	H86	H	0.612779	0.090847	0.910853
	H87	H	0.379449	0.909048	0.902175
	H88	H	0.911818	0.104861	0.610361
	H89	H	0.089436	0.103397	0.378606
	H90	H	0.091612	0.912349	0.611582
	H91	H	0.902213	0.908636	0.376769
	H92	H	0.088645	0.623126	0.901640
	H93	H	0.090578	0.390513	0.085437
	H94	H	0.911286	0.626193	0.102614
	H95	H	0.913927	0.390287	0.899771
	H96	H	0.413131	0.122273	0.593166
	H97	H	0.595850	0.886369	0.593385
	H98	H	0.589465	0.121441	0.408738
	H99	H	0.410322	0.890399	0.400195
	H100	H	0.591029	0.410449	0.109602
	H101	H	0.586050	0.594807	0.881468
	H102	H	0.405716	0.600054	0.110648
	H103	H	0.409936	0.405381	0.876213
	H104	H	0.120697	0.602977	0.396921
	H105	H	0.880556	0.596411	0.593855
	H106	H	0.119688	0.412353	0.592525
	H107	H	0.882240	0.418540	0.399641
	H108	H	0.916624	0.618245	0.078143
	H109	H	0.093433	0.388435	0.087187
	H110	H	0.092256	0.623855	0.903883
	H111	H	0.905021	0.390120	0.906494
	H112	H	0.092627	0.912437	0.611932
	H113	H	0.097272	0.097984	0.378102
	H114	H	0.901295	0.103872	0.613696
	H115	H	0.903692	0.917481	0.379678
	H116	H	0.619208	0.094131	0.892788
	H117	H	0.379158	0.107820	0.088397
	H118	H	0.616811	0.907840	0.086198
	H119	H	0.382517	0.916400	0.906673
	C120	C	0.377634	0.014698	0.617817
	C121	C	0.621239	0.997112	0.618797
	C122	C	0.620108	0.014608	0.374739
	C123	C	0.377172	0.998045	0.373856
	C124	C	0.620851	0.384548	0.001933
	C125	C	0.621211	0.628390	0.986142
	C126	C	0.376718	0.628366	0.003028
	C127	C	0.376468	0.383704	0.985272
	C128	C	0.007734	0.627098	0.373325
	C129	C	0.990821	0.627660	0.616413
	C130	C	0.008329	0.385726	0.615810
	C131	C	0.990674	0.384774	0.372848
	C132	C	0.877846	0.515082	0.116181
	C133	C	0.120824	0.497503	0.116586
	C134	C	0.120469	0.515527	0.872969
	C135	C	0.878547	0.497568	0.872641
	C136	C	0.121326	0.883872	0.503953
	C137	C	0.120542	0.127990	0.487134
	C138	C	0.877020	0.129004	0.503631
	C139	C	0.877751	0.884543	0.486806
	C140	C	0.507739	0.126903	0.874008
	C141	C	0.490457	0.128153	0.117666
	C142	C	0.506989	0.884830	0.117360
	C143	C	0.490121	0.884967	0.874455
	C144	C	0.379257	0.891113	0.672353
	C145	C	0.618594	0.120605	0.674089
	C146	C	0.619065	0.891501	0.318578
	C147	C	0.378085	0.121221	0.318570
	C148	C	0.676656	0.386409	0.879298
	C149	C	0.677028	0.626349	0.108742
	C150	C	0.322446	0.624920	0.879696
	C151	C	0.321667	0.387123	0.108008
	C152	C	0.883743	0.681955	0.376120
	C153	C	0.115401	0.681572	0.613136
	C154	C	0.883691	0.331651	0.612451
	C155	C	0.114666	0.329200	0.375600
	C156	C	0.884473	0.387288	0.671213
	C157	C	0.114683	0.625971	0.671925
	C158	C	0.884115	0.625629	0.317695
	C159	C	0.114493	0.385501	0.317509
	C160	C	0.379148	0.683282	0.880326
	C161	C	0.619582	0.684266	0.108866
	C162	C	0.618967	0.328105	0.879588
	C163	C	0.378477	0.328973	0.107874
	C164	C	0.674667	0.890877	0.377938
	C165	C	0.675032	0.121207	0.615605
	C166	C	0.322745	0.891043	0.614133
	C167	C	0.322184	0.121744	0.377211
	C168	C	0.879628	0.391782	0.171124
	C169	C	0.119283	0.620590	0.172825
	C170	C	0.120079	0.392215	0.816980
	C171	C	0.879476	0.621039	0.817786
	C172	C	0.176876	0.886439	0.381175
	C173	C	0.175848	0.126144	0.610187
	C174	C	0.820926	0.125946	0.380819
	C175	C	0.824110	0.888495	0.610281
	C176	C	0.383082	0.181339	0.876567
	C177	C	0.614470	0.183361	0.114806
	C178	C	0.382575	0.830207	0.113651
	C179	C	0.614622	0.830064	0.877697
	C180	C	0.383149	0.886469	0.172705
	C181	C	0.614539	0.126188	0.173041
	C182	C	0.383891	0.125110	0.818626
	C183	C	0.614019	0.885727	0.819512
	C184	C	0.878138	0.184057	0.380583
	C185	C	0.118751	0.184166	0.609732
	C186	C	0.119882	0.828274	0.381278
	C187	C	0.881003	0.830155	0.609789
	C188	C	0.175316	0.391554	0.876056
	C189	C	0.175085	0.621337	0.113888
	C190	C	0.822842	0.391793	0.113481
	C191	C	0.823508	0.621415	0.876294
	C192	C	0.400260	0.100965	0.595992
	C193	C	0.599142	0.910734	0.596463
	C194	C	0.597370	0.100850	0.396943
	C195	C	0.400263	0.911797	0.395942
	C196	C	0.597796	0.407833	0.087193
	C197	C	0.598777	0.606204	0.900613
	C198	C	0.398870	0.606270	0.088827
	C199	C	0.398561	0.405221	0.899257
	C200	C	0.094403	0.604311	0.395933
	C201	C	0.904372	0.605660	0.594281
	C202	C	0.095066	0.407799	0.594182
	C203	C	0.904265	0.407710	0.394639
	C204	C	0.900265	0.601641	0.094692
	C205	C	0.098229	0.411475	0.094186
	C206	C	0.097597	0.601451	0.894946
	C207	C	0.901193	0.411231	0.894246
	C208	C	0.098670	0.906187	0.589458
	C209	C	0.098339	0.105215	0.401569
	C210	C	0.899733	0.107522	0.589204
	C211	C	0.899033	0.905846	0.400833
	C212	C	0.594498	0.104509	0.896469
	C213	C	0.404266	0.105341	0.095521
	C214	C	0.593302	0.907128	0.095539
	C215	C	0.403525	0.907437	0.895944
	Zn216	Zn	0.498951	0.005419	0.746544
	Zn217	Zn	0.498690	0.006596	0.246255
	Zn218	Zn	0.750497	0.506140	-0.005867
	Zn219	Zn	0.248349	0.506546	-0.005947
	Zn220	Zn	-0.000645	0.755242	0.494913
	Zn221	Zn	-0.000308	0.257335	0.494684
	Zn222	Zn	-0.000385	0.506739	0.744110
	Zn223	Zn	-0.000974	0.505513	0.244724
	Zn224	Zn	0.498861	0.756749	-0.004958
	Zn225	Zn	0.498339	0.255549	-0.005971
	Zn226	Zn	0.748794	0.006448	0.496140
	Zn227	Zn	0.249578	0.006780	0.495653
	N228	N	0.412694	0.969045	0.674730
	N229	N	0.585840	0.042383	0.676241
	N230	N	0.585741	0.969633	0.316533
	N231	N	0.411645	0.043181	0.316656
	N232	N	0.678140	0.420600	0.956505
	N233	N	0.678130	0.592107	0.031647
	N234	N	0.320877	0.591526	0.957078
	N235	N	0.320218	0.420421	0.030632
	N236	N	0.961809	0.683041	0.409865
	N237	N	0.037380	0.682932	0.579497
	N238	N	0.961796	0.330562	0.578638
	N239	N	0.036761	0.328587	0.409338
	N240	N	0.962887	0.420055	0.673588
	N241	N	0.036165	0.593066	0.674170
	N242	N	0.962451	0.592239	0.315851
	N243	N	0.036226	0.419238	0.315580
	N244	N	0.412160	0.685556	0.958080
	N245	N	0.585494	0.685660	0.031670
	N246	N	0.584957	0.327140	0.956786
	N247	N	0.411871	0.326868	0.030406
	N248	N	0.675399	0.968462	0.412175
	N249	N	0.676681	0.043402	0.581938
	N250	N	0.321668	0.968944	0.580893
	N251	N	0.321551	0.044116	0.410990
	N252	N	0.913080	0.469786	0.172877
	N253	N	0.086316	0.542476	0.174724
	N254	N	0.086451	0.470319	0.814958
	N255	N	0.912800	0.542915	0.815244
	N256	N	0.178022	0.920596	0.458504
	N257	N	0.176996	0.091906	0.533097
	N258	N	0.819923	0.092612	0.458236
	N259	N	0.821951	0.921641	0.532826
	N260	N	0.461202	0.182507	0.910305
	N261	N	0.536202	0.184924	0.081276
	N262	N	0.460659	0.828959	0.080076
	N263	N	0.536598	0.829415	0.911441
	N264	N	0.461283	0.919850	0.174967
	N265	N	0.536380	0.092866	0.175178
	N266	N	0.462403	0.092005	0.816938
	N267	N	0.535708	0.919074	0.817324
	N268	N	0.912425	0.186050	0.457855
	N269	N	0.085066	0.185489	0.532381
	N270	N	0.086204	0.826552	0.458461
	N271	N	0.913429	0.827451	0.532011
	N272	N	0.175573	0.468873	0.910390
	N273	N	0.176143	0.543915	0.079598
	N274	N	0.821699	0.469432	0.080089
	N275	N	0.823030	0.543779	0.909924
	O276	O	0.999248	1.079356	-0.031637
	H277	H	0.998045	1.084550	-0.021757
	H278	H	1.008698	1.074536	-0.034938
	O279	O	1.037707	-1.003063	0.984480
	H280	H	1.026947	-1.008739	0.990872
	H281	H	1.041537	-0.999312	0.974279
	O282	O	0.025483	-0.055522	0.058440
	H283	H	0.022158	-0.056532	0.060398
	H284	H	0.018475	-0.053964	0.051892
	O285	O	0.504421	0.492004	0.430191
	H286	H	0.503918	0.485881	0.437106
	H287	H	0.497761	0.495385	0.425328
	O288	O	0.039061	0.031638	0.012181
	H289	H	0.045528	0.032376	0.010120
	H290	H	0.046642	0.030750	0.019283
	O291	O	-0.452189	0.427981	0.407489
	H292	H	-0.454230	0.420581	0.408487
	H293	H	-0.435328	0.429990	0.414696
	O294	O	0.006144	1.081265	0.067483
	H295	H	0.005363	1.078491	0.070558
	H296	H	0.005533	1.084246	0.065018
	O297	O	0.491297	0.485953	0.433630
	H298	H	0.485177	0.489796	0.424272
	H299	H	0.494074	0.491536	0.431552
	O300	O	0.489182	0.523504	0.477126
	H301	H	0.504715	0.523329	0.473469
	H302	H	0.497867	0.524506	0.480774
	O303	O	1.042515	0.045168	0.977835
	H304	H	1.049375	0.053351	0.980522
	H305	H	1.039210	0.045191	0.982275
	O306	O	-0.046757	1.007056	1.035676
	H307	H	-0.049166	1.016871	1.040121
	H308	H	-0.039671	1.003988	1.028318
	O309	O	-0.002088	1.019741	0.956306
	H310	H	-0.001645	1.015818	0.957716
	H311	H	0.002572	1.027929	0.960127
	O312	O	0.486813	-0.502069	1.421867
	H313	H	0.498508	-0.510095	1.420225
	H314	H	0.485510	-0.504294	1.415093
	O315	O	0.487055	0.538555	0.448851
	H316	H	0.484132	0.528886	0.451312
	H317	H	0.476779	0.544413	0.438320
	O318	O	-0.016755	0.061587	1.030465
	H319	H	-0.014258	0.064975	1.023204
	H320	H	-0.018144	0.069524	1.024349
	O321	O	-0.023188	0.981127	0.044331
	H322	H	-0.026758	0.988865	0.044964
	H323	H	-0.027101	0.967455	0.048984
	O324	O	1.027256	-0.003103	1.001106
	H325	H	1.031344	-0.005664	0.996273
	H326	H	1.034197	-0.005870	0.995576
	O327	O	0.994043	0.994183	0.968324
	H328	H	0.993100	0.987070	0.971324
	H329	H	0.989952	0.996106	0.962431
	O330	O	0.458677	0.480171	0.458126
	H331	H	0.447647	0.474598	0.457491
	H332	H	0.453744	0.480149	0.458381
	O333	O	0.534385	0.570298	0.362717
	H334	H	0.526092	0.568024	0.362624
	H335	H	0.526365	0.579828	0.355003
	O336	O	0.577207	0.454598	0.452344
	H337	H	0.572995	0.460272	0.457729
	H338	H	0.584976	0.449325	0.455985
	O339	O	0.470656	0.513175	0.404751
	H340	H	0.473272	0.505611	0.403519
	H341	H	0.478722	0.526341	0.404421
	O342	O	0.479953	0.525261	0.484060
	H343	H	0.476683	0.528758	0.485944
	H344	H	0.483255	0.527083	0.476302
	O345	O	0.545311	0.462780	0.453164
	H346	H	0.558712	0.456481	0.451784
	H347	H	0.540371	0.458085	0.449155
