data_Molecule from HDF5

_cell_length_a		16.592097
_cell_length_b		16.318005
_cell_length_c		16.386382
_cell_angle_alpha	90.085663
_cell_angle_beta	90.063462
_cell_angle_gamma	89.874990
_symmetry_space_group_name_H-M	'P 1'
_symmetry_Int_Tables_number		1

loop_
	_symmetry_equiv_pos_as_xyz
	x,y,z

loop_
	_atom_site_label
	_atom_site_type_symbol
	_atom_site_fract_x
	_atom_site_fract_y
	_atom_site_fract_z
	H0	H	0.396291	0.825998	0.722533
	H1	H	0.603019	0.144682	0.718627
	H2	H	0.609748	0.827021	0.278115
	H3	H	0.392158	0.142811	0.278368
	H4	H	0.726633	0.376498	0.846152
	H5	H	0.729711	0.597176	0.158465
	H6	H	0.279205	0.593665	0.845974
	H7	H	0.275863	0.371979	0.157539
	H8	H	0.845638	0.708530	0.393802
	H9	H	0.157262	0.710962	0.610543
	H10	H	0.845287	0.263398	0.608210
	H11	H	0.157895	0.259172	0.393512
	H12	H	0.845933	0.380614	0.724618
	H13	H	0.157161	0.595338	0.727941
	H14	H	0.849423	0.596332	0.273374
	H15	H	0.158950	0.375179	0.276983
	H16	H	0.398492	0.704493	0.843173
	H17	H	0.612338	0.710907	0.158443
	H18	H	0.605289	0.266093	0.843168
	H19	H	0.397514	0.261947	0.160312
	H20	H	0.727950	0.828942	0.390140
	H21	H	0.722177	0.143598	0.606456
	H22	H	0.276856	0.828436	0.612167
	H23	H	0.275207	0.141232	0.390651
	H24	H	0.900343	0.324958	0.221634
	H25	H	0.112711	0.642719	0.226239
	H26	H	0.106772	0.326592	0.781284
	H27	H	0.897197	0.644749	0.783505
	H28	H	0.228191	0.874247	0.345530
	H29	H	0.225531	0.094824	0.658220
	H30	H	0.775479	0.097471	0.344479
	H31	H	0.781664	0.881873	0.659040
	H32	H	0.345625	0.206956	0.897810
	H33	H	0.659771	0.206235	0.108873
	H34	H	0.346685	0.759332	0.110428
	H35	H	0.659204	0.762930	0.896576
	H36	H	0.345770	0.877022	0.225976
	H37	H	0.657757	0.093878	0.228206
	H38	H	0.344724	0.089836	0.781525
	H39	H	0.659235	0.880492	0.781154
	H40	H	0.894187	0.209548	0.342360
	H41	H	0.104862	0.205704	0.660867
	H42	H	0.109895	0.761620	0.343994
	H43	H	0.899029	0.767935	0.659998
	H44	H	0.223754	0.327095	0.894913
	H45	H	0.228811	0.641627	0.112401
	H46	H	0.781588	0.326584	0.110788
	H47	H	0.778982	0.641722	0.895118
	H48	H	0.418179	0.096409	0.589151
	H49	H	0.596525	0.869552	0.586126
	H50	H	0.591466	0.101885	0.407757
	H51	H	0.413891	0.872331	0.416732
	H52	H	0.593276	0.399473	0.115961
	H53	H	0.587350	0.571027	0.891434
	H54	H	0.417674	0.576092	0.116280
	H55	H	0.410777	0.396196	0.888038
	H56	H	0.114838	0.576441	0.415689
	H57	H	0.890787	0.573939	0.591646
	H58	H	0.113801	0.397897	0.591999
	H59	H	0.892800	0.401849	0.411872
	H60	H	0.114685	0.396819	0.591406
	H61	H	0.889370	0.576709	0.594102
	H62	H	0.111534	0.570934	0.419013
	H63	H	0.889769	0.397245	0.409823
	H64	H	0.410215	0.567466	0.115256
	H65	H	0.594157	0.574759	0.887259
	H66	H	0.590207	0.395041	0.117066
	H67	H	0.413470	0.400947	0.889720
	H68	H	0.579842	0.094321	0.416941
	H69	H	0.594068	0.867526	0.594857
	H70	H	0.407433	0.098541	0.585448
	H71	H	0.417145	0.872765	0.414682
	H72	H	0.917573	0.597183	0.086835
	H73	H	0.093837	0.371236	0.086861
	H74	H	0.091643	0.600560	0.913813
	H75	H	0.912275	0.371694	0.921732
	H76	H	0.096609	0.906996	0.613915
	H77	H	0.094280	0.071052	0.387374
	H78	H	0.909616	0.082867	0.617519
	H79	H	0.916864	0.894953	0.386097
	H80	H	0.616115	0.077157	0.909050
	H81	H	0.394320	0.064994	0.090699
	H82	H	0.613225	0.900773	0.094881
	H83	H	0.388318	0.895919	0.906505
	H84	H	0.613616	0.892722	0.088250
	H85	H	0.388156	0.076361	0.095743
	H86	H	0.615410	0.074821	0.911584
	H87	H	0.388547	0.890767	0.914215
	H88	H	0.904958	0.068092	0.614038
	H89	H	0.087545	0.066220	0.391255
	H90	H	0.081383	0.901987	0.609865
	H91	H	0.907928	0.898058	0.385360
	H92	H	0.091056	0.599067	0.916667
	H93	H	0.090407	0.371554	0.090179
	H94	H	0.914248	0.598052	0.086090
	H95	H	0.908369	0.366856	0.908915
	H96	H	0.410628	0.101518	0.596634
	H97	H	0.587756	0.871094	0.588868
	H98	H	0.595120	0.097350	0.423468
	H99	H	0.417033	0.873837	0.418050
	H100	H	0.595359	0.394734	0.118197
	H101	H	0.595070	0.566385	0.890589
	H102	H	0.421060	0.565686	0.110995
	H103	H	0.415951	0.395946	0.889768
	H104	H	0.113832	0.569827	0.411971
	H105	H	0.890039	0.577529	0.590676
	H106	H	0.113293	0.396937	0.590241
	H107	H	0.892563	0.396590	0.414825
	H108	H	0.916153	0.598214	0.089236
	H109	H	0.089124	0.373708	0.086575
	H110	H	0.093993	0.600954	0.915939
	H111	H	0.921505	0.371659	0.910528
	H112	H	0.092079	0.891133	0.617247
	H113	H	0.086389	0.075298	0.388760
	H114	H	0.919364	0.072270	0.610450
	H115	H	0.914417	0.903383	0.389482
	H116	H	0.615854	0.073743	0.908228
	H117	H	0.392472	0.076174	0.082896
	H118	H	0.610054	0.902282	0.084902
	H119	H	0.391538	0.899541	0.914114
	C120	C	0.379694	-0.005806	0.623480
	C121	C	0.623149	0.975445	0.621694
	C122	C	0.623034	-0.005970	0.380590
	C123	C	0.381243	0.976969	0.381777
	C124	C	0.624450	0.363704	0.012032
	C125	C	0.625209	0.605707	0.993654
	C126	C	0.382427	0.604576	0.010692
	C127	C	0.381021	0.363519	0.993594
	C128	C	0.011067	0.607243	0.380252
	C129	C	0.993094	0.609180	0.625312
	C130	C	0.010503	0.364818	0.623412
	C131	C	0.994551	0.363899	0.379531
	C132	C	0.883243	0.493409	0.122092
	C133	C	0.125568	0.476046	0.122974
	C134	C	0.123970	0.494799	0.881617
	C135	C	0.881327	0.475435	0.881485
	C136	C	0.124097	0.864543	0.510238
	C137	C	0.122609	0.105388	0.493232
	C138	C	0.878869	0.108171	0.509410
	C139	C	0.881358	0.866367	0.492090
	C140	C	0.511334	0.106989	0.879039
	C141	C	0.494193	0.106655	0.124268
	C142	C	0.510192	0.863551	0.123764
	C143	C	0.493347	0.862795	0.879409
	C144	C	0.377532	0.874197	0.683444
	C145	C	0.622847	0.096365	0.680167
	C146	C	0.627142	0.874949	0.318324
	C147	C	0.375728	0.095326	0.318984
	C148	C	0.685551	0.359564	0.893254
	C149	C	0.688055	0.612660	0.111346
	C150	C	0.320279	0.609741	0.892674
	C151	C	0.318532	0.357178	0.111293
	C152	C	0.893580	0.669187	0.375814
	C153	C	0.110317	0.670396	0.628290
	C154	C	0.892635	0.304139	0.626125
	C155	C	0.111437	0.300606	0.376053
	C156	C	0.892838	0.362346	0.684338
	C157	C	0.110192	0.612767	0.687097
	C158	C	0.895203	0.612750	0.315954
	C159	C	0.112068	0.358714	0.318081
	C160	C	0.379584	0.665307	0.891560
	C161	C	0.629598	0.669780	0.111298
	C162	C	0.625322	0.304576	0.891670
	C163	C	0.378797	0.301995	0.112439
	C164	C	0.686152	0.875842	0.374150
	C165	C	0.682079	0.095784	0.624277
	C166	C	0.317981	0.875560	0.628233
	C167	C	0.317078	0.094374	0.374993
	C168	C	0.881238	0.373457	0.182758
	C169	C	0.130287	0.594588	0.186102
	C170	C	0.125446	0.374611	0.821093
	C171	C	0.879060	0.596437	0.822744
	C172	C	0.187239	0.857910	0.392566
	C173	C	0.184351	0.111125	0.611343
	C174	C	0.816870	0.113417	0.391401
	C175	C	0.821610	0.863564	0.611476
	C176	C	0.392805	0.166794	0.878862
	C177	C	0.612087	0.167144	0.127476
	C178	C	0.393540	0.800204	0.127978
	C179	C	0.611829	0.802940	0.877978
	C180	C	0.392957	0.859086	0.185549
	C181	C	0.611093	0.110708	0.186819
	C182	C	0.392456	0.108670	0.820547
	C183	C	0.611736	0.861373	0.820091
	C184	C	0.876225	0.169513	0.390355
	C185	C	0.124388	0.166625	0.612503
	C186	C	0.128053	0.801692	0.391788
	C187	C	0.880094	0.806736	0.611884
	C188	C	0.183918	0.374834	0.877399
	C189	C	0.187984	0.594286	0.129038
	C190	C	0.822059	0.374227	0.127522
	C191	C	0.820184	0.594879	0.878423
	C192	C	0.404833	0.077354	0.597714
	C193	C	0.599652	0.891355	0.597198
	C194	C	0.596385	0.076383	0.408019
	C195	C	0.408334	0.894601	0.408914
	C196	C	0.599933	0.389056	0.095200
	C197	C	0.599334	0.578356	0.911289
	C198	C	0.408717	0.577472	0.092999
	C199	C	0.406121	0.390018	0.910818
	C200	C	0.092171	0.580196	0.407700
	C201	C	0.911284	0.583236	0.599553
	C202	C	0.092455	0.389729	0.598446
	C203	C	0.912998	0.390853	0.404956
	C204	C	0.908712	0.576004	0.095350
	C205	C	0.099048	0.393590	0.095627
	C206	C	0.099319	0.578222	0.907883
	C207	C	0.906697	0.392070	0.906366
	C208	C	0.097584	0.892118	0.592256
	C209	C	0.096941	0.078502	0.410635
	C210	C	0.904049	0.081869	0.592400
	C211	C	0.906093	0.891564	0.408864
	C212	C	0.594284	0.082384	0.902761
	C213	C	0.412908	0.080210	0.097513
	C214	C	0.591224	0.890615	0.097040
	C215	C	0.411034	0.888139	0.904462
	Zn216	Zn	0.501834	-0.015675	0.749876
	Zn217	Zn	0.501521	-0.014915	0.253277
	Zn218	Zn	0.754039	0.484364	0.002925
	Zn219	Zn	0.252685	0.485042	0.002001
	Zn220	Zn	0.001944	0.737233	0.501361
	Zn221	Zn	0.001552	0.234520	0.501026
	Zn222	Zn	0.002411	0.486201	0.754351
	Zn223	Zn	0.003803	0.485358	0.250198
	Zn224	Zn	0.502370	0.733524	0.001526
	Zn225	Zn	0.503127	0.235412	0.002556
	Zn226	Zn	0.751340	-0.014226	0.500503
	Zn227	Zn	0.252420	-0.014829	0.501818
	N228	N	0.415167	0.949002	0.680703
	N229	N	0.587068	0.020533	0.678876
	N230	N	0.588498	0.949474	0.322343
	N231	N	0.415012	0.021225	0.323035
	N232	N	0.685383	0.395482	0.969153
	N233	N	0.685242	0.573292	0.037205
	N234	N	0.321954	0.572530	0.967970
	N235	N	0.319646	0.394633	0.036248
	N236	N	0.966900	0.665860	0.415094
	N237	N	0.036507	0.668331	0.590670
	N238	N	0.966747	0.305464	0.588848
	N239	N	0.037429	0.303748	0.413579
	N240	N	0.967071	0.399587	0.682749
	N241	N	0.036223	0.575409	0.685350
	N242	N	0.969204	0.575053	0.318446
	N243	N	0.038480	0.397333	0.320130
	N244	N	0.417700	0.662005	0.965921
	N245	N	0.591327	0.665804	0.037044
	N246	N	0.588144	0.306866	0.966534
	N247	N	0.417292	0.306151	0.038345
	N248	N	0.683811	0.950956	0.411963
	N249	N	0.682329	0.019552	0.588605
	N250	N	0.319254	0.951203	0.591699
	N251	N	0.320382	0.019706	0.413392
	N252	N	0.918665	0.448595	0.179617
	N253	N	0.092166	0.519906	0.182704
	N254	N	0.089055	0.450241	0.823446
	N255	N	0.916383	0.521115	0.824419
	N256	N	0.184953	0.896159	0.467382
	N257	N	0.183477	0.074055	0.536009
	N258	N	0.818382	0.076110	0.466565
	N259	N	0.821997	0.899548	0.535841
	N260	N	0.467867	0.166201	0.914177
	N261	N	0.538465	0.164736	0.089123
	N262	N	0.467710	0.802681	0.090323
	N263	N	0.537307	0.803872	0.914146
	N264	N	0.466436	0.897484	0.183061
	N265	N	0.536691	0.074040	0.185042
	N266	N	0.467115	0.072140	0.820701
	N267	N	0.536886	0.897653	0.820813
	N268	N	0.914173	0.166351	0.464813
	N269	N	0.086737	0.163315	0.537887
	N270	N	0.089624	0.805646	0.465774
	N271	N	0.916457	0.808311	0.536518
	N272	N	0.183262	0.450677	0.914191
	N273	N	0.185185	0.519318	0.090794
	N274	N	0.822929	0.449842	0.090784
	N275	N	0.821373	0.518736	0.914107
	O276	O	0.725760	0.465431	0.280116
	H277	H	0.763144	0.458743	0.239567
	H278	H	0.712056	0.411648	0.295085
	O279	O	1.098703	0.060260	0.933107
	H280	H	1.084658	0.073923	0.951206
	H281	H	1.092244	0.058509	0.935098
	O282	O	0.526819	0.272628	0.291246
	H283	H	0.504317	0.289487	0.300488
	H284	H	0.522083	0.246820	0.265098
	O285	O	0.482991	0.522312	0.528163
	H286	H	0.479872	0.526960	0.532335
	H287	H	0.469049	0.512087	0.525108
	O288	O	1.190417	0.876170	-0.191326
	H289	H	1.204675	0.870685	-0.175033
	H290	H	1.191349	0.922771	-0.192689
	O291	O	0.717365	0.551753	0.431567
	H292	H	0.713667	0.526389	0.434061
	H293	H	0.730098	0.522280	0.412565
	O294	O	0.010469	0.185356	1.153978
	H295	H	0.025229	0.195538	1.166130
	H296	H	0.029571	0.188787	1.153200
	O297	O	0.713966	0.497696	1.711555
	H298	H	0.727292	0.501126	1.739710
	H299	H	0.706133	0.546851	1.708336
	O300	O	0.324740	0.661690	0.327936
	H301	H	0.377259	0.673154	0.313888
	H302	H	0.314116	0.608729	0.311494
	O303	O	0.308490	0.296342	0.686641
	H304	H	0.300156	0.338808	0.687011
	H305	H	0.352720	0.288006	0.690519
	O306	O	0.555750	0.700434	0.446730
	H307	H	0.571608	0.696121	0.448268
	H308	H	0.547468	0.696087	0.436520
	O309	O	0.705756	0.683648	0.696426
	H310	H	0.672481	0.691494	0.701403
	H311	H	0.707827	0.690961	0.648650
	O312	O	0.046869	0.939939	1.211818
	H313	H	0.029713	0.938347	1.201407
	H314	H	0.033172	0.905261	1.206096
	O315	O	0.415823	0.525730	0.698635
	H316	H	0.399103	0.532977	0.701473
	H317	H	0.405368	0.541196	0.698620
	O318	O	0.792641	-0.038166	-0.152892
	H319	H	0.789068	-0.053778	-0.161510
	H320	H	0.801572	-0.051733	-0.166272
	O321	O	0.185228	0.163820	0.175322
	H322	H	0.194879	0.163464	0.133339
	H323	H	0.179180	0.130285	0.187031
	O324	O	0.827257	0.802164	0.178254
	H325	H	0.816441	0.807249	0.138563
	H326	H	0.813712	0.841431	0.174848
	O327	O	0.686641	0.309771	0.322461
	H328	H	0.696252	0.297041	0.376110
	H329	H	0.633974	0.295486	0.312003
	O330	O	-0.199975	0.899765	-0.036137
	H331	H	-0.189372	0.918545	-0.044866
	H332	H	-0.208812	0.916359	-0.039981
	O333	O	0.290751	0.500850	0.284167
	H334	H	0.297814	0.473817	0.312643
	H335	H	0.251726	0.503419	0.250021
	O336	O	0.196669	-0.046594	0.042822
	H337	H	0.194770	-0.058079	0.042377
	H338	H	0.194888	-0.047605	0.057909
	O339	O	-0.018380	1.189536	0.795148
	H340	H	-0.034484	1.195197	0.796079
	H341	H	-0.020280	1.194695	0.785958
	O342	O	0.278705	1.267307	0.525125
	H343	H	0.258306	1.247708	0.521910
	H344	H	0.279711	1.262240	0.556851
	O345	O	1.125216	1.161181	0.053996
	H346	H	1.118923	1.149453	0.036751
	H347	H	1.128341	1.157669	0.047659
	O348	O	0.542505	0.429747	0.714303
	H349	H	0.540534	0.447767	0.709931
	H350	H	0.543136	0.445209	0.706798
	O351	O	0.393219	1.695188	1.540320
	H352	H	0.393873	1.695698	1.502381
	H353	H	0.368498	1.700114	1.532070
	O354	O	0.092381	0.783104	-0.203460
	H355	H	0.126412	0.804836	-0.190549
	H356	H	0.099643	0.767920	-0.213184
	O357	O	-0.094975	-0.223020	0.926835
	H358	H	-0.106408	-0.245557	0.914541
	H359	H	-0.081869	-0.199607	0.909517
	O360	O	0.469836	0.277699	0.710470
	H361	H	0.486953	0.281050	0.720964
	H362	H	0.475548	0.281736	0.726442
	O363	O	-0.192502	0.156994	0.807606
	H364	H	-0.195799	0.181967	0.782692
	H365	H	-0.203267	0.112143	0.799497
	O366	O	0.481989	0.695192	0.287695
	H367	H	0.508415	0.681645	0.293758
	H368	H	0.488738	0.713190	0.254755
	O369	O	0.707912	0.695505	-0.476021
	H370	H	0.723708	0.674195	-0.499410
	H371	H	0.712327	0.706482	-0.493901
	O372	O	0.962914	0.087066	1.211990
	H373	H	0.975447	0.111822	1.229232
	H374	H	0.963381	0.079837	1.191151
	O375	O	0.203401	1.001753	1.206743
	H376	H	0.214651	0.999435	1.222769
	H377	H	0.174774	0.986098	1.219140
	O378	O	0.983562	0.769517	1.219511
	H379	H	0.960514	0.749090	1.237563
	H380	H	0.947955	0.762277	1.222421
	O381	O	0.700125	0.292132	0.480974
	H382	H	0.693783	0.309882	0.501656
	H383	H	0.713754	0.284274	0.488986
	O384	O	-0.204203	0.991435	1.182999
	H385	H	-0.193641	1.009948	1.195031
	H386	H	-0.204690	1.005432	1.187989
	O387	O	-0.104935	-0.210779	0.897353
	H388	H	-0.106210	-0.220529	0.863043
	H389	H	-0.119057	-0.192765	0.895165
	O390	O	0.193721	0.003163	-0.124644
	H391	H	0.203789	-0.001904	-0.106431
	H392	H	0.193617	0.003152	-0.134811
	O393	O	0.809302	1.192523	0.988644
	H394	H	0.798009	1.215919	0.978129
	H395	H	0.812127	1.188160	0.958539
	O396	O	0.526518	0.524600	0.394860
	H397	H	0.547418	0.531357	0.394429
	H398	H	0.520942	0.512734	0.407532
	O399	O	0.556781	0.289723	0.550023
	H400	H	0.540013	0.275683	0.526958
	H401	H	0.552010	0.301983	0.566240
	O402	O	0.977120	1.104686	0.997118
	H403	H	0.969326	1.098065	0.978981
	H404	H	0.977284	1.109662	0.998328
	O405	O	0.562173	0.528389	-0.657153
	H406	H	0.570251	0.510401	-0.662482
	H407	H	0.584430	0.534489	-0.659199
	O408	O	0.914011	-0.037982	-0.175023
	H409	H	0.934850	-0.035165	-0.164738
	H410	H	0.940559	-0.044973	-0.173001
	O411	O	1.094556	1.189577	-0.045554
	H412	H	1.105545	1.206065	-0.039399
	H413	H	1.083564	1.193425	-0.036693
	O414	O	0.286614	0.416506	0.437507
	H415	H	0.282916	0.394300	0.450143
	H416	H	0.302096	0.426989	0.450192
	O417	O	0.287241	1.474521	-0.317277
	H418	H	0.266121	1.477118	-0.305407
	H419	H	0.274773	1.494553	-0.329426
	O420	O	0.082725	-0.213795	0.082248
	H421	H	0.051565	-0.219309	0.099672
	H422	H	0.057162	-0.209428	0.080079
	O423	O	0.306341	0.516984	0.554055
	H424	H	0.296661	0.540622	0.534527
	H425	H	0.317256	0.518857	0.545445
	O426	O	0.060112	1.012563	0.790725
	H427	H	0.045877	1.023024	0.798601
	H428	H	0.082100	1.013945	0.786362
	O429	O	0.709094	0.344843	0.633548
	H430	H	0.702370	0.354371	0.630790
	H431	H	0.697558	0.359618	0.634975
	O432	O	0.673964	0.507821	0.595548
	H433	H	0.677183	0.521918	0.603186
	H434	H	0.644183	0.518618	0.599647
	O435	O	0.453277	0.272295	0.469435
	H436	H	0.421768	0.272432	0.480802
	H437	H	0.459511	0.270915	0.448714
	O438	O	-0.218745	0.008150	0.077528
	H439	H	-0.211323	0.029964	0.073967
	H440	H	-0.227917	0.019204	0.094475
	O441	O	1.204291	-0.217961	-0.017502
	H442	H	1.184173	-0.217845	0.000268
	H443	H	1.206770	-0.239483	0.002859
	O444	O	1.012025	-0.104953	0.996200
	H445	H	1.002502	-0.107862	0.989419
	H446	H	1.020838	-0.114708	0.990842
	O447	O	0.287749	0.687208	0.541652
	H448	H	0.255770	0.726079	0.542710
	H449	H	0.312388	0.678368	0.504526
	O450	O	0.512128	0.685253	0.708363
	H451	H	0.512802	0.693811	0.719305
	H452	H	0.496287	0.698939	0.685848
	O453	O	0.443059	0.422048	0.286882
	H454	H	0.445567	0.442957	0.284246
	H455	H	0.436344	0.418847	0.297916
