data_Molecule from HDF5

_cell_length_a		16.571847
_cell_length_b		16.261449
_cell_length_c		16.256767
_cell_angle_alpha	90.124379
_cell_angle_beta	89.912903
_cell_angle_gamma	89.859590
_symmetry_space_group_name_H-M	'P 1'
_symmetry_Int_Tables_number		1

loop_
	_symmetry_equiv_pos_as_xyz
	x,y,z

loop_
	_atom_site_label
	_atom_site_type_symbol
	_atom_site_fract_x
	_atom_site_fract_y
	_atom_site_fract_z
	H0	H	0.391308	0.841700	0.705889
	H1	H	0.591911	0.166301	0.702914
	H2	H	0.594840	0.842582	0.268416
	H3	H	0.391734	0.166533	0.272872
	H4	H	0.715957	0.397352	0.829352
	H5	H	0.714316	0.612324	0.148028
	H6	H	0.272304	0.611210	0.828241
	H7	H	0.273859	0.399538	0.148712
	H8	H	0.835958	0.724162	0.384317
	H9	H	0.152548	0.724014	0.593181
	H10	H	0.836135	0.283048	0.593528
	H11	H	0.152765	0.281002	0.382981
	H12	H	0.836941	0.398441	0.711109
	H13	H	0.152994	0.607494	0.709350
	H14	H	0.835913	0.607524	0.268363
	H15	H	0.153259	0.398871	0.267578
	H16	H	0.392383	0.720791	0.825267
	H17	H	0.593518	0.722379	0.149653
	H18	H	0.596432	0.286476	0.826813
	H19	H	0.392258	0.287323	0.150448
	H20	H	0.715439	0.843935	0.379409
	H21	H	0.714257	0.162739	0.594901
	H22	H	0.274768	0.842188	0.592936
	H23	H	0.270787	0.162241	0.381609
	H24	H	0.892080	0.342302	0.206229
	H25	H	0.095182	0.665130	0.208019
	H26	H	0.101903	0.342827	0.766978
	H27	H	0.893897	0.664656	0.771762
	H28	H	0.216387	0.894121	0.328211
	H29	H	0.215087	0.108954	0.648151
	H30	H	0.770017	0.113102	0.329982
	H31	H	0.770580	0.893643	0.646922
	H32	H	0.335371	0.227580	0.882254
	H33	H	0.650705	0.226165	0.093380
	H34	H	0.335115	0.783897	0.092626
	H35	H	0.651177	0.783087	0.881589
	H36	H	0.334186	0.900978	0.208025
	H37	H	0.648575	0.110937	0.211587
	H38	H	0.334128	0.108456	0.767592
	H39	H	0.651385	0.900615	0.766778
	H40	H	0.891481	0.221660	0.327572
	H41	H	0.098414	0.222647	0.648915
	H42	H	0.094599	0.785118	0.326003
	H43	H	0.893421	0.786863	0.650050
	H44	H	0.220967	0.345884	0.878281
	H45	H	0.215529	0.664690	0.097456
	H46	H	0.770257	0.346026	0.097870
	H47	H	0.771926	0.661939	0.879869
	H48	H	0.394744	0.120987	0.575848
	H49	H	0.581226	0.889520	0.575486
	H50	H	0.585273	0.117611	0.402619
	H51	H	0.406579	0.887880	0.395173
	H52	H	0.582245	0.414404	0.103396
	H53	H	0.582024	0.599186	0.871948
	H54	H	0.405478	0.596777	0.104025
	H55	H	0.406483	0.417814	0.874664
	H56	H	0.103571	0.592687	0.408161
	H57	H	0.885222	0.587330	0.576030
	H58	H	0.106439	0.412548	0.575257
	H59	H	0.879756	0.412422	0.392890
	H60	H	0.105936	0.415118	0.578057
	H61	H	0.879944	0.592002	0.585882
	H62	H	0.106579	0.584674	0.391975
	H63	H	0.881673	0.407544	0.400991
	H64	H	0.400913	0.593474	0.103639
	H65	H	0.591417	0.591393	0.871009
	H66	H	0.586808	0.416839	0.104771
	H67	H	0.405131	0.416654	0.873839
	H68	H	0.582989	0.119265	0.399439
	H69	H	0.584930	0.887765	0.574199
	H70	H	0.405815	0.119067	0.582984
	H71	H	0.405070	0.890124	0.402143
	H72	H	0.902397	0.618170	0.074440
	H73	H	0.087411	0.391073	0.069490
	H74	H	0.078773	0.616850	0.897451
	H75	H	0.906942	0.387625	0.896093
	H76	H	0.085010	0.921325	0.600302
	H77	H	0.082303	0.086789	0.376309
	H78	H	0.904741	0.096225	0.604154
	H79	H	0.902656	0.917877	0.373901
	H80	H	0.604781	0.095882	0.899964
	H81	H	0.380238	0.096440	0.079755
	H82	H	0.602903	0.915971	0.071181
	H83	H	0.382377	0.919091	0.899594
	H84	H	0.604114	0.919990	0.081449
	H85	H	0.380166	0.096560	0.076641
	H86	H	0.605265	0.091251	0.895671
	H87	H	0.378268	0.913723	0.889975
	H88	H	0.897630	0.088124	0.603377
	H89	H	0.082005	0.090219	0.374269
	H90	H	0.079148	0.908365	0.603505
	H91	H	0.906332	0.914128	0.374294
	H92	H	0.084699	0.615759	0.906928
	H93	H	0.089298	0.387480	0.079750
	H94	H	0.902332	0.619571	0.079428
	H95	H	0.909878	0.391724	0.906060
	H96	H	0.404780	0.115195	0.570093
	H97	H	0.583751	0.887425	0.578493
	H98	H	0.581144	0.116732	0.402543
	H99	H	0.400288	0.887030	0.397786
	H100	H	0.582458	0.419575	0.102386
	H101	H	0.581105	0.587100	0.876526
	H102	H	0.405394	0.591730	0.100679
	H103	H	0.404270	0.418623	0.874391
	H104	H	0.111330	0.602513	0.394323
	H105	H	0.881269	0.598774	0.576159
	H106	H	0.107457	0.411824	0.578351
	H107	H	0.884084	0.416690	0.400219
	H108	H	0.907331	0.617977	0.077099
	H109	H	0.079655	0.390870	0.077817
	H110	H	0.089240	0.620440	0.897236
	H111	H	0.899519	0.387447	0.904914
	H112	H	0.092993	0.911094	0.606378
	H113	H	0.085021	0.088624	0.373326
	H114	H	0.907447	0.086712	0.600206
	H115	H	0.901929	0.913157	0.371400
	H116	H	0.607238	0.097044	0.893855
	H117	H	0.381077	0.094183	0.077998
	H118	H	0.607532	0.909864	0.079316
	H119	H	0.378829	0.907580	0.900516
	C120	C	0.371294	0.011899	0.608840
	C121	C	0.613843	0.994721	0.608041
	C122	C	0.615000	0.012163	0.367346
	C123	C	0.372017	0.994644	0.367106
	C124	C	0.615490	0.383719	-0.002611
	C125	C	0.615410	0.625909	0.979264
	C126	C	0.372396	0.625981	-0.003581
	C127	C	0.373311	0.384859	0.980024
	C128	C	0.002344	0.624720	0.367048
	C129	C	0.986498	0.624783	0.610938
	C130	C	0.002617	0.380895	0.610680
	C131	C	0.986457	0.380160	0.365802
	C132	C	0.872408	0.512639	0.109778
	C133	C	0.116109	0.495677	0.109463
	C134	C	0.117223	0.512323	0.867373
	C135	C	0.873866	0.494475	0.868972
	C136	C	0.116384	0.881293	0.497196
	C137	C	0.114796	0.122025	0.480122
	C138	C	0.872097	0.123685	0.496808
	C139	C	0.871829	0.882032	0.479104
	C140	C	0.501110	0.126560	0.865586
	C141	C	0.484137	0.127385	0.110345
	C142	C	0.500682	0.883637	0.109341
	C143	C	0.484567	0.881802	0.864777
	C144	C	0.371739	0.890259	0.667462
	C145	C	0.612650	0.117156	0.665229
	C146	C	0.614718	0.891176	0.307221
	C147	C	0.371900	0.117072	0.310452
	C148	C	0.675666	0.379816	0.877188
	C149	C	0.674496	0.629559	0.099814
	C150	C	0.312722	0.628711	0.876042
	C151	C	0.313723	0.381688	0.100873
	C152	C	0.883245	0.684336	0.365589
	C153	C	0.105080	0.684559	0.612108
	C154	C	0.883886	0.322041	0.612499
	C155	C	0.105082	0.320641	0.364240
	C156	C	0.884278	0.379816	0.671035
	C157	C	0.105332	0.626302	0.670061
	C158	C	0.883269	0.626310	0.307807
	C159	C	0.105447	0.379467	0.306799
	C160	C	0.372700	0.683170	0.874439
	C161	C	0.614576	0.684732	0.100738
	C162	C	0.616134	0.324518	0.875876
	C163	C	0.372348	0.325509	0.101343
	C164	C	0.674695	0.891645	0.362590
	C165	C	0.673311	0.115275	0.611222
	C166	C	0.313635	0.890620	0.611105
	C167	C	0.311593	0.114892	0.364610
	C168	C	0.872372	0.391282	0.168099
	C169	C	0.115466	0.616976	0.169161
	C170	C	0.120149	0.391613	0.806468
	C171	C	0.873671	0.615687	0.809605
	C172	C	0.175850	0.877450	0.376245
	C173	C	0.174981	0.126125	0.600355
	C174	C	0.811460	0.128309	0.377142
	C175	C	0.811441	0.877636	0.599071
	C176	C	0.382414	0.187015	0.864041
	C177	C	0.603150	0.186727	0.112058
	C178	C	0.382256	0.823846	0.111106
	C179	C	0.603744	0.822776	0.863361
	C180	C	0.381961	0.881994	0.169039
	C181	C	0.602177	0.129518	0.170843
	C182	C	0.381859	0.127456	0.807048
	C183	C	0.603890	0.881357	0.806112
	C184	C	0.871449	0.183414	0.376430
	C185	C	0.116691	0.182658	0.600791
	C186	C	0.115456	0.822893	0.375000
	C187	C	0.872535	0.823907	0.600927
	C188	C	0.179292	0.392992	0.862297
	C189	C	0.175211	0.616436	0.113952
	C190	C	0.811721	0.393134	0.113872
	C191	C	0.813517	0.614657	0.864123
	C192	C	0.394956	0.096410	0.583700
	C193	C	0.590383	0.910321	0.583314
	C194	C	0.590260	0.096073	0.393909
	C195	C	0.396748	0.910119	0.391372
	C196	C	0.591030	0.409557	0.081709
	C197	C	0.591694	0.600080	0.895007
	C198	C	0.396803	0.601148	0.080814
	C199	C	0.398238	0.410319	0.896221
	C200	C	0.085200	0.600196	0.391277
	C201	C	0.903679	0.599928	0.586322
	C202	C	0.085237	0.405828	0.584796
	C203	C	0.903458	0.405228	0.390626
	C204	C	0.896932	0.596856	0.084276
	C205	C	0.092166	0.411633	0.083267
	C206	C	0.091752	0.595928	0.893172
	C207	C	0.898262	0.410695	0.895055
	C208	C	0.092518	0.906222	0.581355
	C209	C	0.090202	0.096202	0.396397
	C210	C	0.896373	0.097709	0.580829
	C211	C	0.896299	0.907543	0.395208
	C212	C	0.583931	0.101864	0.889613
	C213	C	0.402017	0.102976	0.085350
	C214	C	0.583296	0.908329	0.084469
	C215	C	0.401466	0.906400	0.889601
	Zn216	Zn	0.492674	0.003964	0.735673
	Zn217	Zn	0.492615	0.004994	0.239458
	Zn218	Zn	0.743978	0.504610	-0.011234
	Zn219	Zn	0.244897	0.505054	-0.011088
	Zn220	Zn	-0.005916	0.754515	0.488437
	Zn221	Zn	-0.005589	0.251225	0.488890
	Zn222	Zn	-0.005126	0.502874	0.740632
	Zn223	Zn	-0.005491	0.503779	0.237312
	Zn224	Zn	0.493748	0.753377	-0.012493
	Zn225	Zn	0.493810	0.256220	-0.012244
	Zn226	Zn	0.743400	0.002822	0.488317
	Zn227	Zn	0.244337	0.002493	0.487964
	N228	N	0.406878	0.966846	0.666208
	N229	N	0.576398	0.041197	0.663525
	N230	N	0.578829	0.967553	0.309798
	N231	N	0.408636	0.041126	0.311763
	N232	N	0.675697	0.415478	0.954007
	N233	N	0.675166	0.593633	0.023155
	N234	N	0.312400	0.593949	0.953077
	N235	N	0.313940	0.417455	0.024437
	N236	N	0.958068	0.683502	0.401680
	N237	N	0.030008	0.683786	0.576031
	N238	N	0.958670	0.322756	0.575835
	N239	N	0.029861	0.320830	0.400006
	N240	N	0.959497	0.415242	0.670371
	N241	N	0.030558	0.589870	0.669438
	N242	N	0.958267	0.589954	0.308477
	N243	N	0.030421	0.415578	0.307375
	N244	N	0.409096	0.681645	0.950437
	N245	N	0.578706	0.682633	0.024629
	N246	N	0.579342	0.326935	0.951697
	N247	N	0.408564	0.327248	0.025085
	N248	N	0.675026	0.967857	0.399129
	N249	N	0.674126	0.038085	0.576481
	N250	N	0.313285	0.967193	0.575591
	N251	N	0.311674	0.037666	0.399018
	N252	N	0.909529	0.466724	0.165638
	N253	N	0.079418	0.540955	0.166560
	N254	N	0.081811	0.466686	0.809635
	N255	N	0.910742	0.539943	0.812458
	N256	N	0.176639	0.912902	0.453031
	N257	N	0.174008	0.089069	0.524359
	N258	N	0.811473	0.092096	0.453468
	N259	N	0.810803	0.912861	0.522285
	N260	N	0.457473	0.186546	0.899806
	N261	N	0.528911	0.185462	0.074931
	N262	N	0.457084	0.824614	0.074368
	N263	N	0.528505	0.822982	0.898988
	N264	N	0.456637	0.918430	0.167955
	N265	N	0.527523	0.093345	0.169989
	N266	N	0.456668	0.090562	0.807696
	N267	N	0.528659	0.917191	0.806624
	N268	N	0.908555	0.180424	0.451777
	N269	N	0.079898	0.180149	0.525086
	N270	N	0.079380	0.824825	0.451314
	N271	N	0.909491	0.826440	0.525282
	N272	N	0.177426	0.468833	0.899516
	N273	N	0.175652	0.539970	0.077426
	N274	N	0.811582	0.469891	0.078555
	N275	N	0.813335	0.538309	0.900153
	O276	O	0.417045	0.421916	0.545299
	H277	H	0.421927	0.420197	0.536789
	H278	H	0.421054	0.431199	0.540866
	O279	O	0.647040	0.609088	0.635115
	H280	H	0.656093	0.614467	0.644813
	H281	H	0.652683	0.602699	0.642526
	O282	O	0.468677	0.456603	0.509754
	H283	H	0.473714	0.456312	0.510159
	H284	H	0.457352	0.461691	0.517186
	O285	O	0.465290	-0.648680	-0.594835
	H286	H	0.474940	-0.640300	-0.605717
	H287	H	0.463892	-0.644291	-0.581022
	O288	O	0.372024	-0.498337	0.475356
	H289	H	0.370617	-0.489100	0.478329
	H290	H	0.369825	-0.499095	0.492205
	O291	O	0.609799	0.628508	0.519426
	H292	H	0.612872	0.641085	0.525404
	H293	H	0.619486	0.613558	0.536932
	O294	O	0.702053	0.622680	0.420421
	H295	H	0.710738	0.610641	0.422253
	H296	H	0.715355	0.622137	0.428880
	O297	O	1.018805	1.120581	0.805181
	H298	H	1.031517	1.136699	0.803347
	H299	H	1.020817	1.126256	0.819186
	O300	O	-0.514218	0.421446	0.411664
	H301	H	-0.505383	0.409441	0.405639
	H302	H	-0.523815	0.430020	0.428075
	O303	O	0.881960	0.825444	0.878361
	H304	H	0.866492	0.827672	0.883263
	H305	H	0.877667	0.837729	0.864267
	O306	O	0.929967	0.157607	0.106133
	H307	H	0.928741	0.142908	0.113486
	H308	H	0.916634	0.154663	0.106709
	O309	O	1.169986	0.944662	-0.195484
	H310	H	1.180837	0.953962	-0.219064
	H311	H	1.167547	0.952108	-0.178953
	O312	O	0.300959	0.441894	-0.356529
	H313	H	0.287972	0.438390	-0.349172
	H314	H	0.300012	0.440074	-0.358431
	O315	O	0.320949	0.596813	0.438141
	H316	H	0.310480	0.608421	0.430802
	H317	H	0.311945	0.605398	0.432263
	O318	O	0.454441	0.396815	0.621807
	H319	H	0.475270	0.377898	0.616096
	H320	H	0.459770	0.406180	0.619188
	O321	O	1.144324	-0.140828	0.817889
	H322	H	1.150364	-0.107079	0.808635
	H323	H	1.116350	-0.135640	0.812189
	O324	O	-0.043874	-0.155224	1.124280
	H325	H	-0.040353	-0.173027	1.141835
	H326	H	-0.026101	-0.162658	1.104260
	O327	O	0.755998	0.283802	0.214429
	H328	H	0.764728	0.277170	0.225026
	H329	H	0.728921	0.280916	0.208453
	O330	O	0.531707	0.445585	0.373228
	H331	H	0.554505	0.443068	0.370460
	H332	H	0.543738	0.453307	0.387141
	O333	O	0.862721	0.811050	0.979811
	H334	H	0.861328	0.799389	0.980624
	H335	H	0.863584	0.813926	0.991582
	O336	O	0.202561	1.033301	0.977022
	H337	H	0.194427	1.023628	0.985857
	H338	H	0.199103	1.041212	0.984346
	O339	O	1.422456	-0.385126	1.349319
	H340	H	1.424166	-0.378879	1.349207
	H341	H	1.432003	-0.375247	1.353746
	O342	O	-0.074666	1.176842	0.833125
	H343	H	-0.057364	1.184766	0.840113
	H344	H	-0.060999	1.188508	0.856389
	O345	O	0.255343	0.517480	1.343874
	H346	H	0.240960	0.514795	1.325225
	H347	H	0.258807	0.508945	1.349907
	O348	O	0.881777	1.008185	0.954573
	H349	H	0.889804	1.013729	0.952290
	H350	H	0.877201	0.996255	0.949926
	O351	O	0.093153	-0.069728	0.133643
	H352	H	0.120657	-0.065380	0.146605
	H353	H	0.084649	-0.050607	0.115954
	O354	O	0.939149	1.048320	0.190868
	H355	H	0.903808	1.037449	0.205464
	H356	H	0.948280	1.019860	0.187048
	O357	O	0.086506	1.216622	0.133139
	H358	H	0.064325	1.188953	0.149021
	H359	H	0.099547	1.247960	0.156004
	O360	O	0.462678	0.521064	0.393118
	H361	H	0.465345	0.537194	0.385554
	H362	H	0.458267	0.526778	0.392839
	O363	O	0.623285	0.470486	0.591927
	H364	H	0.633125	0.454565	0.578501
	H365	H	0.625693	0.464614	0.604012
	O366	O	0.997139	1.178707	0.958600
	H367	H	1.012160	1.172733	0.973954
	H368	H	0.992735	1.188319	0.972397
	O369	O	0.035663	-0.055211	1.049156
	H370	H	0.031975	-0.060327	1.035846
	H371	H	0.033054	-0.059648	1.045377
	O372	O	0.147024	1.161239	0.000567
	H373	H	0.168169	1.171809	0.003877
	H374	H	0.147029	1.134787	0.008241
	O375	O	0.611988	0.492682	0.634339
	H376	H	0.605603	0.505193	0.630184
	H377	H	0.615735	0.487129	0.627570
	O378	O	0.610488	0.413348	0.495050
	H379	H	0.607901	0.399600	0.477243
	H380	H	0.607710	0.435959	0.480330
	O381	O	0.622519	0.492777	0.444786
	H382	H	0.618743	0.500754	0.439710
	H383	H	0.624078	0.494009	0.442388
	O384	O	-0.191491	0.907216	1.163318
	H385	H	-0.165148	0.888447	1.171353
	H386	H	-0.196527	0.909395	1.146230
	O387	O	0.785909	1.207374	-0.034851
	H388	H	0.769661	1.217342	-0.030969
	H389	H	0.787159	1.200119	-0.016970
	O390	O	0.919414	-1.007517	1.086765
	H391	H	0.919019	-1.016887	1.091174
	H392	H	0.923243	-1.012683	1.083716
	O393	O	1.591503	0.430777	1.426583
	H394	H	1.577944	0.425954	1.416801
	H395	H	1.585877	0.440797	1.428000
	O396	O	0.189053	0.832125	0.996201
	H397	H	0.176101	0.846947	0.962717
	H398	H	0.218608	0.816030	0.993142
	O399	O	0.534141	0.701710	0.579449
	H400	H	0.556595	0.703046	0.598394
	H401	H	0.535787	0.710409	0.580397
	O402	O	1.031618	-0.095974	0.988357
	H403	H	1.024293	-0.108243	0.988724
	H404	H	1.041741	-0.102797	0.976703
	O405	O	0.166670	0.050931	0.127934
	H406	H	0.173473	0.066911	0.113084
	H407	H	0.147707	0.042579	0.121581
	O408	O	0.921904	1.160613	0.791144
	H409	H	0.926435	1.172163	0.809098
	H410	H	0.945633	1.173915	0.792988
	O411	O	0.937201	0.952763	-0.171001
	H412	H	0.920490	0.971395	-0.177395
	H413	H	0.935702	0.970412	-0.170173
	O414	O	-0.037981	-0.030952	1.060730
	H415	H	-0.029371	-0.034518	1.061797
	H416	H	-0.035204	-0.028767	1.064899
	O417	O	0.423918	0.532780	0.329282
	H418	H	0.424642	0.541432	0.343439
	H419	H	0.417808	0.519616	0.317803
	O420	O	-0.214451	1.061713	-0.219992
	H421	H	-0.224715	1.085010	-0.223059
	H422	H	-0.210458	1.089883	-0.225586
	O423	O	0.894970	-0.002341	0.056387
	H424	H	0.877046	-0.010059	0.045599
	H425	H	0.908191	-0.013515	0.055352
	O426	O	-0.532911	-0.420934	0.654137
	H427	H	-0.534664	-0.432936	0.662523
	H428	H	-0.538988	-0.401801	0.649442
	O429	O	0.449377	0.575732	0.481906
	H430	H	0.446296	0.571543	0.472684
	H431	H	0.467391	0.584785	0.486234
