data_Molecule from HDF5

_cell_length_a		16.231563
_cell_length_b		16.312453
_cell_length_c		16.287281
_cell_angle_alpha	90.112035
_cell_angle_beta	89.949827
_cell_angle_gamma	90.057458
_symmetry_space_group_name_H-M	'P 1'
_symmetry_Int_Tables_number		1

loop_
	_symmetry_equiv_pos_as_xyz
	x,y,z

loop_
	_atom_site_label
	_atom_site_type_symbol
	_atom_site_fract_x
	_atom_site_fract_y
	_atom_site_fract_z
	H0	H	0.407454	0.841072	0.715382
	H1	H	0.604763	0.167920	0.714595
	H2	H	0.605756	0.840751	0.285513
	H3	H	0.408408	0.167514	0.286553
	H4	H	0.721676	0.406130	0.836808
	H5	H	0.720621	0.603731	0.164059
	H6	H	0.293165	0.601617	0.836695
	H7	H	0.294225	0.409565	0.165150
	H8	H	0.841497	0.717547	0.404755
	H9	H	0.171087	0.718996	0.598736
	H10	H	0.842217	0.291689	0.598784
	H11	H	0.171264	0.289581	0.400866
	H12	H	0.841981	0.407372	0.714295
	H13	H	0.170893	0.603534	0.715897
	H14	H	0.843043	0.603247	0.286734
	H15	H	0.172126	0.406772	0.286346
	H16	H	0.407957	0.719180	0.837040
	H17	H	0.605781	0.720637	0.163615
	H18	H	0.606005	0.289545	0.837372
	H19	H	0.406463	0.290151	0.164565
	H20	H	0.720900	0.840870	0.402789
	H21	H	0.720642	0.168063	0.598765
	H22	H	0.291611	0.840786	0.598716
	H23	H	0.293438	0.168187	0.403067
	H24	H	0.908969	0.340882	0.215159
	H25	H	0.104813	0.668909	0.214647
	H26	H	0.105601	0.341526	0.785379
	H27	H	0.908489	0.668153	0.787501
	H28	H	0.218552	0.908185	0.336724
	H29	H	0.221479	0.103461	0.664513
	H30	H	0.793744	0.101307	0.336549
	H31	H	0.792855	0.907613	0.664968
	H32	H	0.342281	0.218063	0.903070
	H33	H	0.670752	0.220147	0.099917
	H34	H	0.342789	0.790445	0.099133
	H35	H	0.671082	0.790512	0.901316
	H36	H	0.342445	0.907631	0.214053
	H37	H	0.671253	0.103041	0.215013
	H38	H	0.342817	0.102240	0.786999
	H39	H	0.671446	0.907401	0.786762
	H40	H	0.907692	0.220086	0.337602
	H41	H	0.104782	0.219633	0.665048
	H42	H	0.105368	0.789637	0.338028
	H43	H	0.907658	0.790762	0.665021
	H44	H	0.220616	0.340498	0.903049
	H45	H	0.220532	0.668546	0.097820
	H46	H	0.790418	0.341602	0.100581
	H47	H	0.793380	0.668342	0.903888
	H48	H	0.415564	0.120548	0.594704
	H49	H	0.611976	0.884267	0.593043
	H50	H	0.603351	0.119250	0.413908
	H51	H	0.403523	0.886808	0.414047
	H52	H	0.590060	0.412267	0.113995
	H53	H	0.603694	0.594393	0.884054
	H54	H	0.422029	0.593084	0.112599
	H55	H	0.418948	0.400931	0.882979
	H56	H	0.122077	0.595109	0.408794
	H57	H	0.887990	0.600010	0.598282
	H58	H	0.123303	0.415492	0.596789
	H59	H	0.892664	0.408302	0.415341
	H60	H	0.124673	0.408757	0.593216
	H61	H	0.889760	0.599849	0.591639
	H62	H	0.125408	0.600086	0.405069
	H63	H	0.893385	0.420525	0.407824
	H64	H	0.416226	0.609473	0.119320
	H65	H	0.595789	0.597891	0.885568
	H66	H	0.601849	0.406475	0.120014
	H67	H	0.403424	0.411873	0.881492
	H68	H	0.602612	0.123071	0.402164
	H69	H	0.593159	0.886687	0.604233
	H70	H	0.413681	0.119998	0.593340
	H71	H	0.411228	0.883747	0.395344
	H72	H	0.918483	0.617299	0.087916
	H73	H	0.103274	0.389956	0.084201
	H74	H	0.092965	0.616889	0.915511
	H75	H	0.913665	0.388996	0.909399
	H76	H	0.100601	0.913155	0.618195
	H77	H	0.106074	0.100564	0.382329
	H78	H	0.916385	0.105105	0.618501
	H79	H	0.906594	0.915315	0.384051
	H80	H	0.622257	0.090536	0.903964
	H81	H	0.389155	0.099319	0.096648
	H82	H	0.622825	0.913188	0.093727
	H83	H	0.389068	0.909839	0.906411
	H84	H	0.624892	0.911089	0.094353
	H85	H	0.389805	0.099267	0.092006
	H86	H	0.627123	0.104500	0.902511
	H87	H	0.390937	0.911666	0.910934
	H88	H	0.907251	0.098305	0.619485
	H89	H	0.099222	0.092323	0.386604
	H90	H	0.097331	0.912434	0.616720
	H91	H	0.920667	0.914031	0.387587
	H92	H	0.111675	0.622967	0.910865
	H93	H	0.108807	0.384476	0.101639
	H94	H	0.904478	0.622443	0.093665
	H95	H	0.911709	0.387331	0.906122
	H96	H	0.413475	0.120770	0.595182
	H97	H	0.594371	0.892676	0.583266
	H98	H	0.592339	0.118466	0.407359
	H99	H	0.423014	0.891600	0.410164
	H100	H	0.601963	0.420292	0.115301
	H101	H	0.601939	0.603154	0.881866
	H102	H	0.404665	0.595248	0.118625
	H103	H	0.419463	0.419330	0.888270
	H104	H	0.123675	0.600919	0.411598
	H105	H	0.891616	0.594066	0.595907
	H106	H	0.121955	0.414782	0.589014
	H107	H	0.887696	0.408281	0.401941
	H108	H	0.917673	0.622006	0.102907
	H109	H	0.090292	0.390333	0.098986
	H110	H	0.096833	0.623321	0.896692
	H111	H	0.915561	0.387984	0.906152
	H112	H	0.099550	0.909760	0.618907
	H113	H	0.095330	0.102087	0.384470
	H114	H	0.916890	0.094141	0.614800
	H115	H	0.913850	0.901967	0.381819
	H116	H	0.621971	0.099495	0.916117
	H117	H	0.390899	0.095460	0.094879
	H118	H	0.624491	0.911308	0.092326
	H119	H	0.390547	0.914268	0.906620
	C120	C	0.384973	0.012476	0.622635
	C121	C	0.628357	0.995865	0.622252
	C122	C	0.628286	0.012670	0.379140
	C123	C	0.384552	0.995744	0.378638
	C124	C	0.627817	0.383560	0.008720
	C125	C	0.628766	0.626998	0.991851
	C126	C	0.385765	0.626686	0.008687
	C127	C	0.385246	0.382927	0.992723
	C128	C	0.015093	0.626558	0.380366
	C129	C	0.998403	0.626186	0.622908
	C130	C	0.014673	0.384344	0.621387
	C131	C	0.999490	0.383520	0.379375
	C132	C	0.884653	0.512770	0.123406
	C133	C	0.128601	0.496615	0.122625
	C134	C	0.128641	0.512903	0.879200
	C135	C	0.885038	0.496518	0.879378
	C136	C	0.127822	0.883171	0.509531
	C137	C	0.128648	0.127048	0.492595
	C138	C	0.885120	0.126787	0.509250
	C139	C	0.884977	0.882896	0.492880
	C140	C	0.514966	0.125906	0.879356
	C141	C	0.498389	0.126716	0.123043
	C142	C	0.515412	0.883547	0.122045
	C143	C	0.498694	0.883459	0.879317
	C144	C	0.386533	0.889805	0.677891
	C145	C	0.625297	0.119113	0.676929
	C146	C	0.626243	0.889498	0.323576
	C147	C	0.387698	0.118783	0.324096
	C148	C	0.683563	0.385830	0.885586
	C149	C	0.683269	0.624638	0.115108
	C150	C	0.330843	0.622908	0.885562
	C151	C	0.331023	0.387354	0.115971
	C152	C	0.890949	0.680588	0.383254
	C153	C	0.122042	0.681212	0.619897
	C154	C	0.891476	0.329214	0.619074
	C155	C	0.122383	0.327796	0.380732
	C156	C	0.891095	0.386832	0.676577
	C157	C	0.122097	0.623746	0.677750
	C158	C	0.891698	0.623610	0.325010
	C159	C	0.122881	0.386068	0.323892
	C160	C	0.387608	0.681441	0.885719
	C161	C	0.626225	0.682611	0.114860
	C162	C	0.626343	0.327765	0.886053
	C163	C	0.387032	0.328205	0.115569
	C164	C	0.683561	0.889594	0.381524
	C165	C	0.683021	0.119203	0.619344
	C166	C	0.329233	0.889614	0.619722
	C167	C	0.330209	0.118812	0.381953
	C168	C	0.887592	0.389800	0.177995
	C169	C	0.125767	0.619898	0.177067
	C170	C	0.125902	0.389897	0.823995
	C171	C	0.888393	0.619504	0.825318
	C172	C	0.181721	0.886998	0.386078
	C173	C	0.183393	0.124254	0.615948
	C174	C	0.830834	0.122857	0.385697
	C175	C	0.830591	0.886597	0.616165
	C176	C	0.391238	0.180195	0.882726
	C177	C	0.621750	0.181711	0.120069
	C178	C	0.391845	0.828420	0.119533
	C179	C	0.622239	0.828623	0.881397
	C180	C	0.391660	0.886407	0.176736
	C181	C	0.622093	0.123715	0.177202
	C182	C	0.391513	0.123044	0.824561
	C183	C	0.622369	0.886432	0.824335
	C184	C	0.887339	0.181916	0.386283
	C185	C	0.125468	0.181912	0.616038
	C186	C	0.125586	0.827869	0.386643
	C187	C	0.887422	0.828388	0.616105
	C188	C	0.183369	0.389537	0.881991
	C189	C	0.183274	0.619743	0.119121
	C190	C	0.828978	0.390032	0.120867
	C191	C	0.831147	0.619618	0.883273
	C192	C	0.407622	0.098196	0.600708
	C193	C	0.606329	0.910132	0.600091
	C194	C	0.606044	0.098054	0.401242
	C195	C	0.406102	0.909690	0.400272
	C196	C	0.604903	0.406480	0.094211
	C197	C	0.607015	0.604799	0.906122
	C198	C	0.407793	0.605465	0.094697
	C199	C	0.407539	0.404458	0.906446
	C200	C	0.101231	0.604995	0.402030
	C201	C	0.912238	0.604470	0.601520
	C202	C	0.101084	0.406565	0.599489
	C203	C	0.913341	0.405843	0.401755
	C204	C	0.907001	0.598415	0.101358
	C205	C	0.107119	0.410496	0.101214
	C206	C	0.107006	0.598865	0.901387
	C207	C	0.907044	0.410322	0.901024
	C208	C	0.105576	0.905272	0.595802
	C209	C	0.106659	0.104894	0.406722
	C210	C	0.906858	0.105399	0.595254
	C211	C	0.907266	0.904204	0.406612
	C212	C	0.601353	0.104369	0.901017
	C213	C	0.412092	0.104508	0.101020
	C214	C	0.601836	0.905632	0.099805
	C215	C	0.412454	0.905427	0.901555
	Zn216	Zn	0.506717	0.004048	0.750898
	Zn217	Zn	0.506992	0.004348	0.250835
	Zn218	Zn	0.756706	0.504803	0.000579
	Zn219	Zn	0.257280	0.504650	0.000376
	Zn220	Zn	0.005875	0.755006	0.501594
	Zn221	Zn	0.007357	0.255326	0.500578
	Zn222	Zn	0.006589	0.504373	0.751241
	Zn223	Zn	0.007347	0.504844	0.251707
	Zn224	Zn	0.507069	0.755241	0.000135
	Zn225	Zn	0.506754	0.254392	0.000966
	Zn226	Zn	0.756894	0.004342	0.500361
	Zn227	Zn	0.256500	0.004560	0.500939
	N228	N	0.420248	0.967199	0.679927
	N229	N	0.592095	0.041428	0.679089
	N230	N	0.592563	0.966909	0.321984
	N231	N	0.420793	0.041222	0.321849
	N232	N	0.684551	0.419941	0.963116
	N233	N	0.684852	0.590585	0.037843
	N234	N	0.329613	0.589411	0.963001
	N235	N	0.329742	0.420593	0.038494
	N236	N	0.968529	0.682466	0.417001
	N237	N	0.044234	0.682886	0.586523
	N238	N	0.969391	0.327617	0.585596
	N239	N	0.044636	0.326164	0.414353
	N240	N	0.968931	0.420325	0.678282
	N241	N	0.044248	0.590302	0.679881
	N242	N	0.969752	0.590850	0.322954
	N243	N	0.045318	0.420129	0.323033
	N244	N	0.420890	0.683925	0.963248
	N245	N	0.593140	0.684411	0.037214
	N246	N	0.592449	0.326247	0.963439
	N247	N	0.420079	0.325456	0.037602
	N248	N	0.684910	0.966867	0.415494
	N249	N	0.684824	0.041847	0.585852
	N250	N	0.328420	0.966943	0.585910
	N251	N	0.328485	0.041370	0.415345
	N252	N	0.921486	0.467078	0.179654
	N253	N	0.092583	0.542374	0.179370
	N254	N	0.092806	0.467519	0.822204
	N255	N	0.921075	0.541564	0.822718
	N256	N	0.183238	0.920580	0.463730
	N257	N	0.185427	0.090951	0.538353
	N258	N	0.829258	0.089303	0.463284
	N259	N	0.828931	0.919506	0.538516
	N260	N	0.469177	0.181982	0.916060
	N261	N	0.543837	0.183539	0.087079
	N262	N	0.469886	0.826449	0.086187
	N263	N	0.544419	0.826902	0.914785
	N264	N	0.469429	0.919876	0.178288
	N265	N	0.544340	0.090077	0.179032
	N266	N	0.469318	0.089866	0.822557
	N267	N	0.544609	0.920092	0.823117
	N268	N	0.920297	0.184491	0.463836
	N269	N	0.092328	0.183785	0.538235
	N270	N	0.092610	0.825575	0.464468
	N271	N	0.920573	0.826132	0.538259
	N272	N	0.185188	0.467116	0.915553
	N273	N	0.185161	0.542186	0.085802
	N274	N	0.826935	0.467612	0.087839
	N275	N	0.829295	0.542130	0.916183
	O276	O	0.027512	-0.030310	0.992783
	H277	H	0.025712	-0.032428	0.990921
	H278	H	0.032555	-0.033561	0.992903
	O279	O	0.508556	0.486863	0.450301
	H280	H	0.501659	0.493957	0.448957
	H281	H	0.502896	0.487011	0.455645
	O282	O	0.522710	0.379652	0.471187
	H283	H	0.528834	0.375272	0.469948
	H284	H	0.544724	0.381269	0.468884
	O285	O	0.486019	0.464711	0.427217
	H286	H	0.487467	0.455389	0.415746
	H287	H	0.481997	0.464583	0.432206
	O288	O	0.492727	0.441045	0.480620
	H289	H	0.485456	0.433732	0.479723
	H290	H	0.486912	0.437918	0.484441
	O291	O	-0.466920	1.405618	0.418499
	H292	H	-0.464465	1.414207	0.411013
	H293	H	-0.450805	1.398761	0.432136
	O294	O	0.540888	0.450122	0.458183
	H295	H	0.538421	0.446800	0.450787
	H296	H	0.546102	0.456032	0.462761
	O297	O	0.522510	-0.510582	0.466241
	H298	H	0.515238	-0.517839	0.463326
	H299	H	0.519349	-0.505273	0.465055
