data_Molecule from HDF5

_cell_length_a		16.512091
_cell_length_b		16.398147
_cell_length_c		16.546885
_cell_angle_alpha	90.024731
_cell_angle_beta	90.082428
_cell_angle_gamma	90.086080
_symmetry_space_group_name_H-M	'P 1'
_symmetry_Int_Tables_number		1

loop_
	_symmetry_equiv_pos_as_xyz
	x,y,z

loop_
	_atom_site_label
	_atom_site_type_symbol
	_atom_site_fract_x
	_atom_site_fract_y
	_atom_site_fract_z
	H0	H	0.390635	0.845519	0.740576
	H1	H	0.604796	0.161216	0.744321
	H2	H	0.601941	0.846124	0.298781
	H3	H	0.391981	0.162729	0.298915
	H4	H	0.717613	0.398813	0.862221
	H5	H	0.717447	0.610503	0.176306
	H6	H	0.271438	0.613980	0.863150
	H7	H	0.275265	0.400199	0.176081
	H8	H	0.838161	0.725456	0.417644
	H9	H	0.153701	0.728485	0.626134
	H10	H	0.838914	0.284507	0.624084
	H11	H	0.154644	0.286603	0.417078
	H12	H	0.838626	0.400011	0.741086
	H13	H	0.151468	0.616670	0.746083
	H14	H	0.838086	0.610110	0.299821
	H15	H	0.152436	0.400215	0.297732
	H16	H	0.389034	0.727841	0.862132
	H17	H	0.598650	0.724481	0.177621
	H18	H	0.600414	0.283472	0.861420
	H19	H	0.391966	0.283821	0.176315
	H20	H	0.717888	0.845812	0.415341
	H21	H	0.718859	0.162136	0.626525
	H22	H	0.273721	0.846571	0.626319
	H23	H	0.276548	0.163775	0.416182
	H24	H	0.889248	0.347837	0.240655
	H25	H	0.100283	0.664160	0.240954
	H26	H	0.101528	0.348519	0.797215
	H27	H	0.891423	0.664937	0.800379
	H28	H	0.217643	0.900170	0.363416
	H29	H	0.217695	0.110640	0.677986
	H30	H	0.774987	0.110120	0.363855
	H31	H	0.772972	0.897713	0.675448
	H32	H	0.336544	0.223526	0.914840
	H33	H	0.653922	0.224147	0.121089
	H34	H	0.337318	0.785281	0.122235
	H35	H	0.653108	0.784541	0.917125
	H36	H	0.338624	0.898891	0.240855
	H37	H	0.653210	0.110298	0.240454
	H38	H	0.337964	0.108489	0.797488
	H39	H	0.652566	0.899131	0.799309
	H40	H	0.893656	0.225130	0.362967
	H41	H	0.101161	0.226904	0.677770
	H42	H	0.100403	0.785247	0.362999
	H43	H	0.893510	0.785260	0.678063
	H44	H	0.216295	0.347512	0.914040
	H45	H	0.217272	0.663715	0.124392
	H46	H	0.774617	0.347558	0.124237
	H47	H	0.774815	0.663856	0.915193
	H48	H	0.408379	0.117794	0.610735
	H49	H	0.587216	0.889427	0.610445
	H50	H	0.585893	0.117846	0.430693
	H51	H	0.408012	0.892364	0.430706
	H52	H	0.588418	0.416703	0.131742
	H53	H	0.587335	0.595497	0.905509
	H54	H	0.402510	0.594921	0.132699
	H55	H	0.404073	0.415370	0.905462
	H56	H	0.109403	0.595350	0.429137
	H57	H	0.881654	0.593543	0.615761
	H58	H	0.108743	0.418014	0.609558
	H59	H	0.884841	0.416395	0.435701
	H60	H	0.106642	0.419258	0.606562
	H61	H	0.883244	0.600681	0.606534
	H62	H	0.108256	0.594649	0.430955
	H63	H	0.884002	0.420829	0.427405
	H64	H	0.407212	0.589887	0.129496
	H65	H	0.586050	0.590922	0.908676
	H66	H	0.583134	0.417764	0.129580
	H67	H	0.404819	0.417788	0.907542
	H68	H	0.585926	0.117465	0.430261
	H69	H	0.580099	0.893490	0.609282
	H70	H	0.411787	0.116013	0.607584
	H71	H	0.404374	0.891481	0.431803
	H72	H	0.906527	0.620433	0.111292
	H73	H	0.090010	0.393693	0.101170
	H74	H	0.089805	0.620112	0.933762
	H75	H	0.901360	0.390202	0.929137
	H76	H	0.086547	0.916426	0.633718
	H77	H	0.089369	0.101296	0.405260
	H78	H	0.901028	0.099324	0.636745
	H79	H	0.908722	0.915724	0.407924
	H80	H	0.604742	0.088779	0.935380
	H81	H	0.382597	0.091763	0.110762
	H82	H	0.606186	0.920287	0.107899
	H83	H	0.384631	0.916091	0.934714
	H84	H	0.611022	0.914903	0.115379
	H85	H	0.383140	0.094657	0.109053
	H86	H	0.608858	0.090581	0.924595
	H87	H	0.382924	0.920900	0.927634
	H88	H	0.905753	0.085287	0.631290
	H89	H	0.090990	0.091095	0.407945
	H90	H	0.087185	0.920615	0.632436
	H91	H	0.905179	0.917230	0.407338
	H92	H	0.080739	0.620299	0.926462
	H93	H	0.088059	0.388386	0.117929
	H94	H	0.909226	0.618062	0.107361
	H95	H	0.911717	0.392648	0.925442
	H96	H	0.406709	0.116791	0.606301
	H97	H	0.585334	0.893138	0.603603
	H98	H	0.585933	0.117927	0.430478
	H99	H	0.406562	0.889812	0.428254
	H100	H	0.584758	0.412403	0.131700
	H101	H	0.582092	0.594556	0.907805
	H102	H	0.409180	0.596859	0.131350
	H103	H	0.407141	0.415587	0.906467
	H104	H	0.108515	0.592900	0.429559
	H105	H	0.886884	0.589725	0.606167
	H106	H	0.107306	0.421248	0.609807
	H107	H	0.881196	0.411677	0.428161
	H108	H	0.904194	0.618896	0.107137
	H109	H	0.075165	0.395228	0.109015
	H110	H	0.079848	0.615311	0.936898
	H111	H	0.908790	0.394747	0.935897
	H112	H	0.083725	0.918176	0.631388
	H113	H	0.081857	0.095713	0.409451
	H114	H	0.915319	0.097728	0.631358
	H115	H	0.907669	0.919193	0.408786
	H116	H	0.608965	0.099907	0.932290
	H117	H	0.383850	0.092024	0.108061
	H118	H	0.609510	0.910409	0.106482
	H119	H	0.380789	0.912450	0.927551
	C120	C	0.375808	0.012532	0.640926
	C121	C	0.617434	0.996082	0.641016
	C122	C	0.618188	0.012951	0.398485
	C123	C	0.374774	0.996199	0.398471
	C124	C	0.617501	0.383247	0.027343
	C125	C	0.617016	0.626247	1.011201
	C126	C	0.373633	0.626950	0.027565
	C127	C	0.374219	0.383822	1.010590
	C128	C	0.004416	0.626730	0.398875
	C129	C	0.987923	0.627805	0.642108
	C130	C	0.004231	0.385804	0.641126
	C131	C	0.987513	0.384158	0.398074
	C132	C	0.874568	0.514252	0.140335
	C133	C	0.116987	0.497000	0.141530
	C134	C	0.116511	0.514385	0.898720
	C135	C	0.874894	0.497260	0.898858
	C136	C	0.117887	0.885129	0.528939
	C137	C	0.118477	0.127962	0.511899
	C138	C	0.875123	0.126511	0.529167
	C139	C	0.875250	0.884479	0.511840
	C140	C	0.503615	0.125581	0.897864
	C141	C	0.487496	0.125571	0.140749
	C142	C	0.504412	0.883213	0.141281
	C143	C	0.486797	0.883533	0.898149
	C144	C	0.372479	0.893427	0.700891
	C145	C	0.621879	0.114069	0.703218
	C146	C	0.620411	0.893695	0.338671
	C147	C	0.373471	0.115441	0.339016
	C148	C	0.677423	0.380873	0.909221
	C149	C	0.676965	0.628602	0.129343
	C150	C	0.312265	0.631029	0.910070
	C151	C	0.315067	0.381606	0.128973
	C152	C	0.885624	0.686046	0.398220
	C153	C	0.106200	0.688660	0.644602
	C154	C	0.885938	0.324951	0.642635
	C155	C	0.106678	0.325546	0.397630
	C156	C	0.885787	0.382520	0.700742
	C157	C	0.105113	0.632853	0.704274
	C158	C	0.885584	0.628577	0.339861
	C159	C	0.105709	0.382092	0.338255
	C160	C	0.371270	0.687669	0.909638
	C161	C	0.617929	0.685393	0.130072
	C162	C	0.618971	0.323324	0.908955
	C163	C	0.373163	0.323906	0.129028
	C164	C	0.678007	0.893500	0.396750
	C165	C	0.678902	0.114616	0.644790
	C166	C	0.314457	0.893890	0.643658
	C167	C	0.316086	0.115922	0.397288
	C168	C	0.871464	0.395334	0.200666
	C169	C	0.119256	0.616463	0.201176
	C170	C	0.119587	0.395947	0.837316
	C171	C	0.872740	0.617032	0.839872
	C172	C	0.177710	0.882204	0.410673
	C173	C	0.178053	0.129599	0.630552
	C174	C	0.815635	0.128517	0.410723
	C175	C	0.814426	0.880773	0.629511
	C176	C	0.384462	0.184531	0.896130
	C177	C	0.606447	0.184890	0.141025
	C178	C	0.385128	0.824211	0.141852
	C179	C	0.605688	0.823780	0.897363
	C180	C	0.385752	0.880946	0.200779
	C181	C	0.605934	0.128237	0.200152
	C182	C	0.385282	0.127361	0.837426
	C183	C	0.605627	0.880751	0.839125
	C184	C	0.874394	0.185820	0.410465
	C185	C	0.120014	0.187267	0.630598
	C186	C	0.119290	0.825003	0.410370
	C187	C	0.873851	0.824582	0.630458
	C188	C	0.176486	0.395324	0.895826
	C189	C	0.177357	0.616213	0.143430
	C190	C	0.814507	0.394980	0.142557
	C191	C	0.814815	0.616649	0.897093
	C192	C	0.401733	0.095559	0.615495
	C193	C	0.591487	0.913599	0.615092
	C194	C	0.593160	0.096027	0.423366
	C195	C	0.399240	0.912854	0.423185
	C196	C	0.592565	0.408331	0.109717
	C197	C	0.592211	0.600926	0.928746
	C198	C	0.399003	0.601202	0.109838
	C199	C	0.398394	0.409022	0.927925
	C200	C	0.087231	0.601618	0.423130
	C201	C	0.905614	0.601802	0.616698
	C202	C	0.086338	0.412136	0.616006
	C203	C	0.904829	0.409222	0.423072
	C204	C	0.899624	0.597347	0.115744
	C205	C	0.091640	0.414030	0.116493
	C206	C	0.090853	0.597129	0.924892
	C207	C	0.900033	0.414144	0.923233
	C208	C	0.093153	0.910871	0.611150
	C209	C	0.094191	0.103313	0.429201
	C210	C	0.900057	0.101395	0.611652
	C211	C	0.900166	0.909902	0.429693
	C212	C	0.586235	0.100342	0.923430
	C213	C	0.404716	0.100190	0.116246
	C214	C	0.587278	0.908117	0.117009
	C215	C	0.404443	0.909105	0.922948
	Zn216	Zn	0.496328	0.004013	0.769338
	Zn217	Zn	0.496655	0.004447	0.270340
	Zn218	Zn	0.746244	0.505117	0.019247
	Zn219	Zn	0.244962	0.505454	0.019372
	Zn220	Zn	-0.003361	0.755848	0.520410
	Zn221	Zn	-0.003358	0.256159	0.520668
	Zn222	Zn	-0.004590	0.506715	0.770437
	Zn223	Zn	-0.004721	0.506072	0.269166
	Zn224	Zn	0.495841	0.755238	0.019627
	Zn225	Zn	0.495402	0.254428	0.018914
	Zn226	Zn	0.746247	0.004686	0.520263
	Zn227	Zn	0.247138	0.005646	0.520955
	N228	N	0.410116	0.968148	0.699071
	N229	N	0.584551	0.039231	0.701111
	N230	N	0.583837	0.968898	0.339776
	N231	N	0.409255	0.039889	0.339636
	N232	N	0.676757	0.417333	0.984046
	N233	N	0.676492	0.592681	0.054492
	N234	N	0.313487	0.593966	0.984559
	N235	N	0.315511	0.417970	0.054203
	N236	N	0.960653	0.685072	0.434009
	N237	N	0.032340	0.685499	0.606586
	N238	N	0.960591	0.326882	0.606227
	N239	N	0.032019	0.326563	0.434016
	N240	N	0.960493	0.419714	0.699989
	N241	N	0.030454	0.595790	0.702833
	N242	N	0.960606	0.592550	0.340040
	N243	N	0.030405	0.417593	0.338406
	N244	N	0.408666	0.685288	0.983824
	N245	N	0.581432	0.684146	0.055464
	N246	N	0.582365	0.324726	0.983322
	N247	N	0.408970	0.324997	0.054186
	N248	N	0.676687	0.968775	0.433244
	N249	N	0.676341	0.040161	0.606787
	N250	N	0.316425	0.969154	0.607082
	N251	N	0.316630	0.040660	0.433462
	N252	N	0.908253	0.470468	0.199369
	N253	N	0.082642	0.541320	0.200140
	N254	N	0.083400	0.471336	0.838761
	N255	N	0.909418	0.541897	0.840747
	N256	N	0.177203	0.918465	0.485374
	N257	N	0.177383	0.093389	0.555562
	N258	N	0.815776	0.092691	0.485602
	N259	N	0.815076	0.917143	0.554675
	N260	N	0.459209	0.183584	0.932723
	N261	N	0.531637	0.183231	0.104768
	N262	N	0.459836	0.825539	0.105662
	N263	N	0.530857	0.825236	0.933227
	N264	N	0.461184	0.916742	0.200763
	N265	N	0.530924	0.092051	0.200088
	N266	N	0.460680	0.091680	0.838223
	N267	N	0.530723	0.916976	0.839426
	N268	N	0.910729	0.184687	0.485273
	N269	N	0.083820	0.186435	0.555875
	N270	N	0.082765	0.826618	0.484952
	N271	N	0.910835	0.826727	0.556392
	N272	N	0.174673	0.470037	0.933165
	N273	N	0.176154	0.540816	0.107147
	N274	N	0.816229	0.469937	0.105790
	N275	N	0.815913	0.541071	0.932800
	O276	O	0.422471	0.585342	0.500394
	H277	H	0.442501	0.581128	0.503344
	H278	H	0.423649	0.585904	0.487358
	O279	O	0.686525	0.398154	0.597948
	H280	H	0.683496	0.393394	0.592853
	H281	H	0.690784	0.385911	0.615866
	O282	O	1.068298	0.820154	-0.094936
	H283	H	1.071311	0.848966	-0.085909
	H284	H	1.076999	0.807632	-0.069608
	O285	O	0.411367	0.684303	0.427320
	H286	H	0.423718	0.676063	0.423596
	H287	H	0.394272	0.689342	0.430195
	O288	O	0.184537	-0.062179	-0.005409
	H289	H	0.176891	-0.058457	-0.018729
	H290	H	0.175510	-0.079093	-0.009892
	O291	O	0.306630	0.310371	0.706749
	H292	H	0.296380	0.324775	0.683526
	H293	H	0.293625	0.333074	0.718032
	O294	O	0.200849	1.208163	0.172913
	H295	H	0.202216	1.217265	0.189756
	H296	H	0.214570	1.172472	0.177787
	O297	O	0.737947	0.263709	0.217766
	H298	H	0.724639	0.280123	0.228866
	H299	H	0.740917	0.286195	0.233161
	O300	O	0.583979	0.625560	0.326115
	H301	H	0.571656	0.621659	0.352264
	H302	H	0.577155	0.598674	0.326196
	O303	O	0.962164	0.835663	0.141862
	H304	H	0.944558	0.834643	0.140639
	H305	H	0.956290	0.837669	0.143710
	O306	O	0.531666	0.546038	1.439309
	H307	H	0.540045	0.551105	1.439152
	H308	H	0.534093	0.535669	1.442416
	O309	O	0.443894	0.379305	0.500280
	H310	H	0.449323	0.389508	0.509774
	H311	H	0.437534	0.372133	0.526310
	O312	O	0.376577	0.307803	0.399369
	H313	H	0.380026	0.314083	0.405646
	H314	H	0.378895	0.315209	0.409977
	O315	O	0.174788	0.188235	1.002328
	H316	H	0.183454	0.196178	1.013561
	H317	H	0.191389	0.185477	1.020200
	O318	O	0.050288	1.177246	0.000857
	H319	H	0.066858	1.174570	0.009767
	H320	H	0.066307	1.168782	-0.004143
	O321	O	0.280073	0.475548	0.735692
	H322	H	0.259499	0.489419	0.738178
	H323	H	0.260182	0.493229	0.719188
	O324	O	0.834997	0.002275	0.832071
	H325	H	0.826468	0.021133	0.827577
	H326	H	0.820697	0.021202	0.828599
	O327	O	0.801774	-0.106295	1.210633
	H328	H	0.785830	-0.091093	1.222540
	H329	H	0.799365	-0.102070	1.200235
	O330	O	0.640332	0.723451	-0.487770
	H331	H	0.652431	0.733448	-0.477482
	H332	H	0.646043	0.720699	-0.465266
	O333	O	0.841144	1.001404	1.034275
	H334	H	0.833781	1.004066	1.053258
	H335	H	0.853349	1.007292	1.035091
	O336	O	1.189334	-0.192174	1.093454
	H337	H	1.169720	-0.188139	1.098277
	H338	H	1.187435	-0.207241	1.100352
	O339	O	0.071123	0.213880	0.222293
	H340	H	0.078205	0.200343	0.225899
	H341	H	0.075258	0.236288	0.232914
	O342	O	0.571374	0.380881	0.314475
	H343	H	0.573063	0.370671	0.323308
	H344	H	0.567427	0.367625	0.315938
	O345	O	0.205898	0.038991	0.231080
	H346	H	0.210225	0.033848	0.222751
	H347	H	0.209662	0.026251	0.248025
	O348	O	1.063996	-0.100226	0.814624
	H349	H	1.045565	-0.117413	0.803013
	H350	H	1.053128	-0.109231	0.826601
	O351	O	0.814618	0.850458	-0.153021
	H352	H	0.817073	0.863330	-0.144558
	H353	H	0.823713	0.867650	-0.141557
	O354	O	0.434034	0.604250	0.712136
	H355	H	0.453185	0.578440	0.700156
	H356	H	0.416857	0.585853	0.714052
	O357	O	1.070005	1.117865	0.824856
	H358	H	1.078099	1.113115	0.816815
	H359	H	1.085747	1.120696	0.836222
	O360	O	0.821700	0.173701	0.180188
	H361	H	0.817476	0.193017	0.202782
	H362	H	0.826012	0.178318	0.169800
	O363	O	1.003500	0.011073	0.963153
	H364	H	0.996336	0.008018	0.976235
	H365	H	1.005101	0.021559	0.965120
	O366	O	1.489186	0.539472	0.377131
	H367	H	1.500530	0.538430	0.378789
	H368	H	1.489239	0.550502	0.381822
	O369	O	0.296274	0.300488	0.542307
	H370	H	0.275145	0.299622	0.534921
	H371	H	0.298568	0.302589	0.552470
	O372	O	0.563194	0.546127	0.610664
	H373	H	0.552369	0.540678	0.611910
	H374	H	0.560889	0.545386	0.616911
	O375	O	-0.038701	0.894561	1.051278
	H376	H	-0.041964	0.911085	1.043583
	H377	H	-0.050484	0.889244	1.049438
	O378	O	0.919931	0.130125	0.009457
	H379	H	0.923858	0.135085	0.022861
	H380	H	0.924309	0.136800	0.015017
	O381	O	0.795048	0.204500	-0.174189
	H382	H	0.815099	0.209386	-0.165194
	H383	H	0.810801	0.203459	-0.150126
	O384	O	0.041918	-0.204664	0.911623
	H385	H	0.056458	-0.198986	0.926622
	H386	H	0.053065	-0.220619	0.894944
	O387	O	-0.404442	1.444504	0.588073
	H388	H	-0.410036	1.433912	0.586748
	H389	H	-0.401415	1.432669	0.595327
	O390	O	-0.120095	-0.208476	1.232707
	H391	H	-0.135920	-0.193446	1.223308
	H392	H	-0.140210	-0.243118	1.266529
	O393	O	1.097773	0.984209	0.147833
	H394	H	1.093626	0.981391	0.150223
	H395	H	1.090642	0.983491	0.155524
	O396	O	0.283060	0.713867	0.489311
	H397	H	0.297183	0.719372	0.482481
	H398	H	0.273827	0.738065	0.486756
	O399	O	-0.214111	-0.136200	0.118136
	H400	H	-0.217642	-0.119136	0.110114
	H401	H	-0.238187	-0.140378	0.145441
	O402	O	-0.084178	0.085007	1.083553
	H403	H	-0.083253	0.074368	1.090165
	H404	H	-0.085429	0.096308	1.086660
	O405	O	0.294257	-0.374814	0.342706
	H406	H	0.307351	-0.356325	0.361369
	H407	H	0.300134	-0.370673	0.337185
	O408	O	0.509704	0.315818	0.730680
	H409	H	0.486564	0.305256	0.739304
	H410	H	0.493734	0.303691	0.745650
	O411	O	0.308830	0.508430	0.370798
	H412	H	0.315576	0.520819	0.371507
	H413	H	0.298373	0.510763	0.350931
	O414	O	0.613414	0.344485	0.384615
	H415	H	0.580277	0.346660	0.393953
	H416	H	0.616528	0.339166	0.385239
	O417	O	0.429155	0.642104	0.666083
	H418	H	0.437695	0.634481	0.666100
	H419	H	0.437901	0.641967	0.659261
	O420	O	0.697840	0.703847	0.722447
	H421	H	0.649915	0.710480	0.730723
	H422	H	0.716059	0.720875	0.741669
	O423	O	-0.098402	1.034117	0.135144
	H424	H	-0.090181	1.044597	0.130590
	H425	H	-0.097176	1.035039	0.125011
	O426	O	0.505914	1.610484	0.648726
	H427	H	0.488666	1.590605	0.665173
	H428	H	0.500180	1.618208	0.667795
	O429	O	0.284407	0.553640	-0.413801
	H430	H	0.292333	0.551025	-0.432373
	H431	H	0.287611	0.576665	-0.433522
	O432	O	0.437193	0.462525	0.380462
	H433	H	0.443728	0.472248	0.366517
	H434	H	0.436135	0.464823	0.378645
	O435	O	0.098691	0.044711	0.004423
	H436	H	0.109108	0.052892	-0.000604
	H437	H	0.085247	0.036470	0.006502
	O438	O	0.879418	0.126428	-0.179228
	H439	H	0.881524	0.133321	-0.169320
	H440	H	0.894904	0.136395	-0.184743
	O441	O	0.690002	0.581088	0.456837
	H442	H	0.694916	0.587459	0.465027
	H443	H	0.695995	0.580672	0.474638
	O444	O	0.099304	0.950847	0.931019
	H445	H	0.100006	0.944647	0.936851
	H446	H	0.087197	0.945271	0.926508
	O447	O	0.624857	0.307882	-0.448768
	H448	H	0.633466	0.292031	-0.444341
	H449	H	0.623037	0.321368	-0.450068
	O450	O	0.665383	0.513734	0.731106
	H451	H	0.671791	0.520799	0.743837
	H452	H	0.669832	0.533059	0.732497
	O453	O	0.605404	0.293346	0.537315
	H454	H	0.607120	0.291333	0.559034
	H455	H	0.615472	0.291221	0.552791
	O456	O	1.096359	1.075747	-0.133237
	H457	H	1.097965	1.069316	-0.112645
	H458	H	1.085925	1.062302	-0.141432
	O459	O	0.462022	0.709136	0.312000
	H460	H	0.481271	0.711164	0.307089
	H461	H	0.464544	0.714977	0.305717
	O462	O	0.633308	0.534149	0.568949
	H463	H	0.635729	0.539317	0.573146
	H464	H	0.640422	0.532546	0.584543
	O465	O	1.073778	-0.031614	0.186100
	H466	H	1.074175	-0.036319	0.181763
	H467	H	1.062173	-0.023980	0.186230
