data_Molecule from HDF5

_cell_length_a		16.256959
_cell_length_b		16.357175
_cell_length_c		16.216847
_cell_angle_alpha	89.971351
_cell_angle_beta	89.803943
_cell_angle_gamma	90.019066
_symmetry_space_group_name_H-M	'P 1'
_symmetry_Int_Tables_number		1

loop_
	_symmetry_equiv_pos_as_xyz
	x,y,z

loop_
	_atom_site_label
	_atom_site_type_symbol
	_atom_site_fract_x
	_atom_site_fract_y
	_atom_site_fract_z
	H0	H	0.411108	0.837711	0.711502
	H1	H	0.609319	0.164328	0.709711
	H2	H	0.609596	0.837466	0.279855
	H3	H	0.412949	0.164085	0.280445
	H4	H	0.724761	0.404150	0.831427
	H5	H	0.724572	0.599324	0.160221
	H6	H	0.297678	0.600392	0.832132
	H7	H	0.295813	0.401845	0.159896
	H8	H	0.847158	0.715665	0.396654
	H9	H	0.174811	0.715629	0.594053
	H10	H	0.847939	0.284584	0.597384
	H11	H	0.174528	0.286051	0.395515
	H12	H	0.847073	0.403536	0.709390
	H13	H	0.176374	0.597991	0.707725
	H14	H	0.847320	0.598980	0.282254
	H15	H	0.175060	0.403174	0.280818
	H16	H	0.412083	0.716907	0.832736
	H17	H	0.610891	0.717042	0.159028
	H18	H	0.611761	0.286694	0.831719
	H19	H	0.411817	0.286134	0.159812
	H20	H	0.726776	0.837733	0.396202
	H21	H	0.728165	0.162567	0.596599
	H22	H	0.295466	0.837889	0.594451
	H23	H	0.295797	0.163709	0.396696
	H24	H	0.912681	0.337657	0.210127
	H25	H	0.108719	0.664715	0.209497
	H26	H	0.110576	0.337161	0.780966
	H27	H	0.914675	0.664340	0.782005
	H28	H	0.224683	0.903958	0.330701
	H29	H	0.223552	0.098157	0.660278
	H30	H	0.796566	0.099812	0.331405
	H31	H	0.795923	0.902402	0.659717
	H32	H	0.347963	0.217614	0.895437
	H33	H	0.674935	0.216300	0.094233
	H34	H	0.348337	0.784940	0.097288
	H35	H	0.674416	0.785561	0.895451
	H36	H	0.346919	0.904136	0.209443
	H37	H	0.675196	0.098803	0.208751
	H38	H	0.346715	0.097700	0.783223
	H39	H	0.674959	0.903691	0.781295
	H40	H	0.912036	0.216353	0.332330
	H41	H	0.108956	0.216028	0.659540
	H42	H	0.110183	0.786309	0.331771
	H43	H	0.910909	0.785163	0.659576
	H44	H	0.227370	0.338555	0.897372
	H45	H	0.226756	0.664197	0.094405
	H46	H	0.795833	0.338596	0.094543
	H47	H	0.797172	0.664740	0.897812
	H48	H	0.424331	0.114779	0.590330
	H49	H	0.602373	0.886753	0.584152
	H50	H	0.599316	0.112538	0.409083
	H51	H	0.421557	0.887259	0.405830
	H52	H	0.600658	0.408599	0.111596
	H53	H	0.602174	0.597164	0.878058
	H54	H	0.412416	0.599896	0.116022
	H55	H	0.431803	0.417931	0.885551
	H56	H	0.127869	0.596454	0.405500
	H57	H	0.897929	0.594245	0.578589
	H58	H	0.124710	0.411108	0.581684
	H59	H	0.898248	0.413497	0.409527
	H60	H	0.128931	0.410835	0.594403
	H61	H	0.895941	0.584486	0.594359
	H62	H	0.126764	0.591426	0.402624
	H63	H	0.893092	0.410760	0.396052
	H64	H	0.415658	0.583626	0.111123
	H65	H	0.608799	0.595329	0.877764
	H66	H	0.603672	0.405679	0.113884
	H67	H	0.422724	0.392748	0.875487
	H68	H	0.612822	0.117944	0.404455
	H69	H	0.606878	0.883499	0.589030
	H70	H	0.414874	0.115055	0.581910
	H71	H	0.411093	0.884274	0.403877
	H72	H	0.917183	0.620961	0.101366
	H73	H	0.102758	0.388738	0.077341
	H74	H	0.109448	0.616120	0.906793
	H75	H	0.914534	0.384103	0.903382
	H76	H	0.108038	0.907854	0.613488
	H77	H	0.103203	0.096336	0.378636
	H78	H	0.910922	0.093473	0.614730
	H79	H	0.920734	0.903391	0.377085
	H80	H	0.627960	0.092213	0.899253
	H81	H	0.393994	0.092712	0.091110
	H82	H	0.625613	0.913110	0.084673
	H83	H	0.393855	0.902427	0.907834
	H84	H	0.629446	0.907660	0.091687
	H85	H	0.393427	0.098346	0.087840
	H86	H	0.629893	0.098603	0.900197
	H87	H	0.397200	0.913099	0.907318
	H88	H	0.920868	0.085776	0.609171
	H89	H	0.106333	0.093801	0.377837
	H90	H	0.101587	0.910957	0.611139
	H91	H	0.914220	0.907399	0.377336
	H92	H	0.107716	0.619164	0.896475
	H93	H	0.113883	0.381904	0.091433
	H94	H	0.928340	0.612998	0.084118
	H95	H	0.918251	0.384734	0.899582
	H96	H	0.413345	0.119752	0.594196
	H97	H	0.600164	0.885036	0.590989
	H98	H	0.601294	0.117613	0.394787
	H99	H	0.418788	0.883042	0.395582
	H100	H	0.604948	0.409694	0.113387
	H101	H	0.603983	0.590895	0.879830
	H102	H	0.428981	0.595243	0.110741
	H103	H	0.404432	0.414972	0.876431
	H104	H	0.128877	0.596033	0.400104
	H105	H	0.890787	0.602066	0.593894
	H106	H	0.130214	0.399685	0.586841
	H107	H	0.892715	0.400358	0.406440
	H108	H	0.907096	0.617938	0.082472
	H109	H	0.095328	0.386136	0.095617
	H110	H	0.099736	0.615487	0.902109
	H111	H	0.918893	0.385999	0.904623
	H112	H	0.101318	0.903439	0.614317
	H113	H	0.102951	0.092834	0.379627
	H114	H	0.923937	0.098956	0.612477
	H115	H	0.920634	0.910221	0.380987
	H116	H	0.627586	0.095261	0.905153
	H117	H	0.396287	0.092505	0.084121
	H118	H	0.627815	0.903910	0.083315
	H119	H	0.392842	0.907742	0.898155
	C120	C	0.388587	0.008996	0.617725
	C121	C	0.632336	0.992360	0.617153
	C122	C	0.633078	0.008543	0.373440
	C123	C	0.389445	0.992832	0.373783
	C124	C	0.632427	0.379727	0.004190
	C125	C	0.632880	0.622785	0.987133
	C126	C	0.390656	0.621989	0.004515
	C127	C	0.390184	0.379654	0.987522
	C128	C	0.019519	0.623024	0.374329
	C129	C	1.002962	0.622625	0.617540
	C130	C	0.019745	0.378755	0.617140
	C131	C	1.002649	0.379551	0.374499
	C132	C	0.888843	0.509571	0.118161
	C133	C	0.132495	0.493292	0.116733
	C134	C	0.134077	0.509307	0.873453
	C135	C	0.889597	0.493082	0.874233
	C136	C	0.132215	0.879439	0.504255
	C137	C	0.132464	0.122615	0.487131
	C138	C	0.889698	0.121980	0.503987
	C139	C	0.889417	0.878678	0.487025
	C140	C	0.519461	0.123134	0.873837
	C141	C	0.502840	0.123035	0.116530
	C142	C	0.519522	0.879501	0.116826
	C143	C	0.502779	0.879339	0.874599
	C144	C	0.390752	0.886544	0.673364
	C145	C	0.630003	0.115214	0.672292
	C146	C	0.630561	0.886279	0.317487
	C147	C	0.392200	0.115548	0.318432
	C148	C	0.687300	0.383419	0.880529
	C149	C	0.687287	0.620092	0.111099
	C150	C	0.335801	0.619967	0.880952
	C151	C	0.333922	0.381577	0.110701
	C152	C	0.896044	0.677618	0.376834
	C153	C	0.126090	0.677871	0.614624
	C154	C	0.896636	0.323311	0.616072
	C155	C	0.125583	0.323760	0.375334
	C156	C	0.896100	0.382043	0.672130
	C157	C	0.126867	0.619045	0.670781
	C158	C	0.896150	0.619723	0.319694
	C159	C	0.126243	0.382445	0.318880
	C160	C	0.392551	0.678007	0.881187
	C161	C	0.630707	0.678428	0.110482
	C162	C	0.630823	0.325113	0.880659
	C163	C	0.391278	0.323589	0.110575
	C164	C	0.688576	0.886275	0.375398
	C165	C	0.688947	0.114477	0.615629
	C166	C	0.333293	0.886486	0.615338
	C167	C	0.333984	0.115325	0.375996
	C168	C	0.891952	0.386719	0.172702
	C169	C	0.129900	0.616058	0.171798
	C170	C	0.131224	0.386228	0.818557
	C171	C	0.893411	0.615742	0.819527
	C172	C	0.187106	0.882841	0.379989
	C173	C	0.186636	0.119548	0.610936
	C174	C	0.834468	0.119815	0.380530
	C175	C	0.833813	0.881434	0.610750
	C176	C	0.396570	0.178830	0.875902
	C177	C	0.626155	0.178013	0.114521
	C178	C	0.396814	0.823765	0.116410
	C179	C	0.625845	0.824002	0.875658
	C180	C	0.396165	0.882891	0.172076
	C181	C	0.626184	0.120129	0.171576
	C182	C	0.395808	0.119458	0.820066
	C183	C	0.625984	0.882373	0.818857
	C184	C	0.891427	0.178081	0.380823
	C185	C	0.129569	0.177727	0.610701
	C186	C	0.130105	0.824589	0.380408
	C187	C	0.891183	0.823779	0.610845
	C188	C	0.189246	0.386685	0.876085
	C189	C	0.188389	0.615700	0.114525
	C190	C	0.833749	0.386986	0.115512
	C191	C	0.835101	0.616008	0.877231
	C192	C	0.410941	0.094249	0.595206
	C193	C	0.609696	0.907147	0.594633
	C194	C	0.611036	0.094024	0.396051
	C195	C	0.410955	0.907012	0.395304
	C196	C	0.609842	0.401583	0.090713
	C197	C	0.611380	0.600896	0.900980
	C198	C	0.412692	0.599515	0.090427
	C199	C	0.412876	0.402002	0.901176
	C200	C	0.105580	0.601045	0.396385
	C201	C	0.917027	0.600332	0.595390
	C202	C	0.105759	0.400674	0.594341
	C203	C	0.916751	0.401662	0.397377
	C204	C	0.911018	0.595188	0.095953
	C205	C	0.110395	0.407790	0.094663
	C206	C	0.112205	0.594753	0.895347
	C207	C	0.910850	0.407062	0.896141
	C208	C	0.110115	0.900904	0.590626
	C209	C	0.110549	0.100734	0.400870
	C210	C	0.911975	0.099316	0.589966
	C211	C	0.911911	0.900578	0.400719
	C212	C	0.606051	0.101718	0.895322
	C213	C	0.416845	0.101005	0.094252
	C214	C	0.605494	0.901698	0.093450
	C215	C	0.416777	0.901295	0.897524
	Zn216	Zn	0.510416	0.001006	0.746265
	Zn217	Zn	0.511311	0.001062	0.244472
	Zn218	Zn	0.760460	0.501280	-0.003923
	Zn219	Zn	0.262096	0.501131	-0.004238
	Zn220	Zn	0.010852	0.751155	0.495745
	Zn221	Zn	0.010727	0.250893	0.495228
	Zn222	Zn	0.011978	0.500354	0.744982
	Zn223	Zn	0.011236	0.501162	0.246389
	Zn224	Zn	0.511013	0.750634	-0.003995
	Zn225	Zn	0.511776	0.251419	-0.004532
	Zn226	Zn	0.761612	0.000491	0.495567
	Zn227	Zn	0.260452	0.000870	0.495324
	N228	N	0.424566	0.963750	0.674811
	N229	N	0.595312	0.038403	0.673196
	N230	N	0.596837	0.963374	0.316369
	N231	N	0.426020	0.038433	0.317081
	N232	N	0.688370	0.416819	0.958470
	N233	N	0.688741	0.586021	0.033508
	N234	N	0.334295	0.585968	0.958675
	N235	N	0.333281	0.415812	0.033142
	N236	N	0.973874	0.679794	0.409874
	N237	N	0.048011	0.680056	0.582039
	N238	N	0.974637	0.321073	0.582665
	N239	N	0.047868	0.321965	0.409280
	N240	N	0.973567	0.415898	0.672933
	N241	N	0.049280	0.585526	0.672989
	N242	N	0.973786	0.586318	0.318167
	N243	N	0.048801	0.416483	0.318302
	N244	N	0.426099	0.679152	0.958915
	N245	N	0.597601	0.680171	0.032572
	N246	N	0.597511	0.322746	0.958612
	N247	N	0.425726	0.322528	0.032879
	N248	N	0.690141	0.963177	0.409725
	N249	N	0.690377	0.037333	0.581952
	N250	N	0.331791	0.963409	0.581244
	N251	N	0.332349	0.038144	0.409862
	N252	N	0.925434	0.464021	0.174591
	N253	N	0.095688	0.539174	0.173123
	N254	N	0.097592	0.463463	0.816856
	N255	N	0.926621	0.538306	0.817710
	N256	N	0.188362	0.916522	0.457927
	N257	N	0.188784	0.086351	0.533089
	N258	N	0.833308	0.085632	0.458050
	N259	N	0.832822	0.914936	0.532894
	N260	N	0.474726	0.181080	0.908516
	N261	N	0.548365	0.180089	0.081357
	N262	N	0.474544	0.821649	0.082609
	N263	N	0.548303	0.822216	0.909769
	N264	N	0.473577	0.916798	0.172331
	N265	N	0.548622	0.086399	0.172653
	N266	N	0.473266	0.085878	0.818526
	N267	N	0.548656	0.916402	0.818454
	N268	N	0.925166	0.179410	0.458435
	N269	N	0.096802	0.179895	0.532534
	N270	N	0.097028	0.822270	0.458565
	N271	N	0.925265	0.822219	0.533010
	N272	N	0.191345	0.463985	0.909343
	N273	N	0.190142	0.538315	0.081119
	N274	N	0.831681	0.464208	0.082318
	N275	N	0.832817	0.538683	0.910639
	O276	O	-0.540177	0.459068	1.534278
	H277	H	-0.540963	0.457952	1.541688
	H278	H	-0.536156	0.463599	1.538678
	O279	O	0.442959	0.463315	0.525201
	H280	H	0.447463	0.464865	0.531695
	H281	H	0.434419	0.463114	0.524896
	O282	O	0.502402	0.458900	0.469306
	H283	H	0.504696	0.449292	0.470093
	H284	H	0.497033	0.464128	0.474688
	O285	O	0.575490	0.434536	0.447974
	H286	H	0.577725	0.432562	0.438398
	H287	H	0.577386	0.436243	0.445812
	O288	O	0.559843	0.456168	0.518848
	H289	H	0.564536	0.448093	0.511741
	H290	H	0.552048	0.451186	0.513328
	O291	O	-0.539872	1.463372	0.488334
	H292	H	-0.541270	1.458437	0.488018
	H293	H	-0.532161	1.467633	0.494358
	O294	O	0.478033	0.447759	0.505403
	H295	H	0.476234	0.441091	0.508282
	H296	H	0.474785	0.447610	0.500173
	O297	O	0.491609	-0.521307	0.469791
	H298	H	0.496490	-0.518835	0.473978
	H299	H	0.493531	-0.521683	0.472234
