data_Molecule from HDF5

_cell_length_a		16.389463
_cell_length_b		16.295931
_cell_length_c		16.375436
_cell_angle_alpha	89.944246
_cell_angle_beta	89.897170
_cell_angle_gamma	90.118136
_symmetry_space_group_name_H-M	'P 1'
_symmetry_Int_Tables_number		1

loop_
	_symmetry_equiv_pos_as_xyz
	x,y,z

loop_
	_atom_site_label
	_atom_site_type_symbol
	_atom_site_fract_x
	_atom_site_fract_y
	_atom_site_fract_z
	H0	H	0.394139	0.843154	0.711304
	H1	H	0.605060	0.163882	0.709938
	H2	H	0.605058	0.843796	0.268856
	H3	H	0.397551	0.165217	0.273021
	H4	H	0.723718	0.394404	0.833592
	H5	H	0.721310	0.610901	0.149204
	H6	H	0.276307	0.611787	0.831363
	H7	H	0.279052	0.400235	0.150349
	H8	H	0.838473	0.724099	0.385828
	H9	H	0.158443	0.723199	0.594158
	H10	H	0.838581	0.282634	0.594908
	H11	H	0.158998	0.286829	0.388602
	H12	H	0.839943	0.394262	0.714350
	H13	H	0.157276	0.610300	0.712119
	H14	H	0.837652	0.607643	0.271469
	H15	H	0.158796	0.401864	0.272446
	H16	H	0.394541	0.725981	0.830747
	H17	H	0.603385	0.724829	0.150066
	H18	H	0.604967	0.282994	0.831166
	H19	H	0.394076	0.282760	0.149705
	H20	H	0.720855	0.843896	0.383260
	H21	H	0.719519	0.163335	0.593716
	H22	H	0.277840	0.843269	0.596383
	H23	H	0.282032	0.165098	0.389438
	H24	H	0.892923	0.342401	0.210160
	H25	H	0.098745	0.665457	0.207948
	H26	H	0.103165	0.343029	0.771379
	H27	H	0.894179	0.664148	0.769414
	H28	H	0.218858	0.900406	0.329760
	H29	H	0.216892	0.105544	0.651846
	H30	H	0.780672	0.106500	0.330458
	H31	H	0.775447	0.895057	0.649442
	H32	H	0.340248	0.222584	0.887125
	H33	H	0.659519	0.224701	0.093052
	H34	H	0.339237	0.785148	0.094599
	H35	H	0.659770	0.784753	0.887423
	H36	H	0.340071	0.900608	0.210581
	H37	H	0.659701	0.110382	0.210287
	H38	H	0.341338	0.108610	0.769943
	H39	H	0.658058	0.897106	0.768375
	H40	H	0.896388	0.222556	0.330897
	H41	H	0.100416	0.222403	0.651644
	H42	H	0.101676	0.785072	0.328715
	H43	H	0.895820	0.783078	0.650571
	H44	H	0.219331	0.344205	0.886757
	H45	H	0.216339	0.665576	0.094312
	H46	H	0.776673	0.342910	0.095283
	H47	H	0.777686	0.663584	0.884703
	H48	H	0.406835	0.118732	0.578988
	H49	H	0.587265	0.890551	0.575784
	H50	H	0.590444	0.115036	0.409595
	H51	H	0.404364	0.888678	0.404829
	H52	H	0.595288	0.418791	0.105738
	H53	H	0.581755	0.590815	0.879650
	H54	H	0.404996	0.596632	0.105647
	H55	H	0.413251	0.416970	0.878331
	H56	H	0.114354	0.601377	0.400644
	H57	H	0.883633	0.596590	0.577935
	H58	H	0.112708	0.414362	0.583534
	H59	H	0.884509	0.420117	0.393177
	H60	H	0.112676	0.410633	0.577210
	H61	H	0.887571	0.588292	0.575520
	H62	H	0.108562	0.588765	0.404611
	H63	H	0.879871	0.403723	0.397091
	H64	H	0.406964	0.590093	0.103496
	H65	H	0.588790	0.599476	0.874558
	H66	H	0.580393	0.422200	0.099785
	H67	H	0.408436	0.408910	0.875198
	H68	H	0.597248	0.122370	0.397214
	H69	H	0.588452	0.888110	0.580214
	H70	H	0.408562	0.119571	0.583009
	H71	H	0.408140	0.886844	0.394625
	H72	H	0.907020	0.620523	0.085864
	H73	H	0.087027	0.391736	0.072553
	H74	H	0.083976	0.618084	0.898184
	H75	H	0.907510	0.388910	0.902569
	H76	H	0.088112	0.904208	0.606353
	H77	H	0.090456	0.089511	0.378558
	H78	H	0.920850	0.086417	0.599395
	H79	H	0.905511	0.912269	0.375671
	H80	H	0.614252	0.095452	0.901873
	H81	H	0.390007	0.086356	0.075848
	H82	H	0.613413	0.912190	0.077619
	H83	H	0.386294	0.914149	0.903375
	H84	H	0.612728	0.918237	0.080576
	H85	H	0.384632	0.090924	0.088989
	H86	H	0.613486	0.091157	0.901046
	H87	H	0.386653	0.917633	0.901555
	H88	H	0.908240	0.104789	0.609066
	H89	H	0.086804	0.096314	0.376534
	H90	H	0.096204	0.917520	0.604278
	H91	H	0.909150	0.918604	0.378418
	H92	H	0.086114	0.616666	0.905370
	H93	H	0.097089	0.385987	0.082816
	H94	H	0.914205	0.615192	0.079907
	H95	H	0.914469	0.391382	0.900846
	H96	H	0.410903	0.117048	0.580084
	H97	H	0.583913	0.890351	0.579561
	H98	H	0.581807	0.116982	0.396020
	H99	H	0.414776	0.891470	0.402299
	H100	H	0.583801	0.407047	0.105601
	H101	H	0.593083	0.588378	0.876584
	H102	H	0.411994	0.595661	0.103034
	H103	H	0.403818	0.417410	0.875134
	H104	H	0.114007	0.590757	0.391280
	H105	H	0.885131	0.589103	0.584524
	H106	H	0.109224	0.418281	0.577802
	H107	H	0.886805	0.413841	0.409688
	H108	H	0.904339	0.617795	0.075578
	H109	H	0.082516	0.388921	0.088048
	H110	H	0.090950	0.619530	0.900002
	H111	H	0.911607	0.391987	0.907445
	H112	H	0.081464	0.917508	0.599811
	H113	H	0.094738	0.095060	0.374527
	H114	H	0.897103	0.082979	0.606568
	H115	H	0.913273	0.911438	0.376944
	H116	H	0.615118	0.093457	0.898095
	H117	H	0.383614	0.100472	0.077814
	H118	H	0.615668	0.913252	0.083326
	H119	H	0.385188	0.914779	0.899705
	C120	C	0.376842	0.012302	0.613218
	C121	C	0.619480	0.994845	0.610778
	C122	C	0.621449	0.012707	0.368460
	C123	C	0.378461	0.995393	0.369752
	C124	C	0.619656	0.382913	-0.000938
	C125	C	0.620289	0.625385	0.981833
	C126	C	0.376316	0.626671	-0.001144
	C127	C	0.376948	0.382467	0.981923
	C128	C	0.006581	0.625340	0.368025
	C129	C	0.990528	0.623964	0.611479
	C130	C	0.006622	0.381315	0.612352
	C131	C	0.989500	0.381733	0.369211
	C132	C	0.876207	0.511775	0.112326
	C133	C	0.118801	0.495669	0.111459
	C134	C	0.119689	0.512630	0.869414
	C135	C	0.877877	0.495791	0.869903
	C136	C	0.120421	0.881558	0.497904
	C137	C	0.120640	0.124797	0.482845
	C138	C	0.877664	0.123833	0.499460
	C139	C	0.876626	0.881044	0.482084
	C140	C	0.508811	0.125121	0.868942
	C141	C	0.491743	0.125371	0.111816
	C142	C	0.508617	0.882706	0.112365
	C143	C	0.490906	0.882867	0.869031
	C144	C	0.375691	0.891378	0.672029
	C145	C	0.622540	0.115897	0.669976
	C146	C	0.623336	0.892026	0.308260
	C147	C	0.378380	0.116699	0.311977
	C148	C	0.682495	0.378152	0.880489
	C149	C	0.680478	0.628258	0.101739
	C150	C	0.316300	0.629537	0.879235
	C151	C	0.318180	0.381009	0.102190
	C152	C	0.886332	0.684464	0.367274
	C153	C	0.110288	0.684024	0.612804
	C154	C	0.886567	0.321751	0.614001
	C155	C	0.110696	0.324894	0.369296
	C156	C	0.887355	0.377750	0.673368
	C157	C	0.109757	0.627635	0.671821
	C158	C	0.885954	0.626589	0.309861
	C159	C	0.110497	0.382004	0.311205
	C160	C	0.375491	0.686206	0.878585
	C161	C	0.622080	0.685372	0.102175
	C162	C	0.623177	0.322520	0.879296
	C163	C	0.375675	0.322788	0.101817
	C164	C	0.681119	0.891916	0.365298
	C165	C	0.679555	0.115629	0.612044
	C166	C	0.317868	0.891414	0.614566
	C167	C	0.320677	0.116800	0.369710
	C168	C	0.874335	0.390811	0.171068
	C169	C	0.118507	0.617026	0.169431
	C170	C	0.121999	0.391581	0.810466
	C171	C	0.875925	0.616032	0.809268
	C172	C	0.179728	0.880971	0.377883
	C173	C	0.178071	0.125284	0.603670
	C174	C	0.819357	0.125375	0.378794
	C175	C	0.816463	0.878092	0.601954
	C176	C	0.388414	0.183575	0.868024
	C177	C	0.611633	0.185218	0.112386
	C178	C	0.387842	0.823883	0.113669
	C179	C	0.611531	0.823758	0.868114
	C180	C	0.388194	0.881380	0.171464
	C181	C	0.611772	0.128074	0.170745
	C182	C	0.388987	0.127024	0.809550
	C183	C	0.610680	0.879610	0.808797
	C184	C	0.876958	0.183249	0.378920
	C185	C	0.119886	0.183177	0.603624
	C186	C	0.120916	0.823876	0.377197
	C187	C	0.875954	0.822075	0.602658
	C188	C	0.179684	0.392070	0.867975
	C189	C	0.177140	0.617078	0.112654
	C190	C	0.816752	0.391032	0.113438
	C191	C	0.817994	0.615842	0.866864
	C192	C	0.401586	0.096337	0.588054
	C193	C	0.593886	0.911486	0.585878
	C194	C	0.596997	0.096291	0.393665
	C195	C	0.402163	0.910841	0.393737
	C196	C	0.593777	0.408654	0.081921
	C197	C	0.595062	0.600295	0.898716
	C198	C	0.400985	0.601377	0.082290
	C199	C	0.401479	0.407342	0.898098
	C200	C	0.090344	0.600731	0.391904
	C201	C	0.907000	0.598543	0.586518
	C202	C	0.089862	0.407006	0.586802
	C203	C	0.905587	0.405495	0.393049
	C204	C	0.901346	0.595941	0.087596
	C205	C	0.095496	0.411098	0.087903
	C206	C	0.094501	0.596277	0.894163
	C207	C	0.903777	0.412316	0.895899
	C208	C	0.095690	0.905912	0.581877
	C209	C	0.097324	0.100671	0.398500
	C210	C	0.901861	0.098753	0.583140
	C211	C	0.901743	0.906561	0.398693
	C212	C	0.592393	0.100408	0.893413
	C213	C	0.407945	0.099805	0.087748
	C214	C	0.592169	0.907336	0.087711
	C215	C	0.407778	0.908231	0.894201
	Zn216	Zn	0.500047	0.003755	0.740239
	Zn217	Zn	0.500225	0.004247	0.240936
	Zn218	Zn	0.748392	0.503900	-0.009552
	Zn219	Zn	0.248042	0.504611	-0.008906
	Zn220	Zn	-0.001404	0.752774	0.489959
	Zn221	Zn	-0.001551	0.252707	0.490977
	Zn222	Zn	-0.001468	0.502730	0.740621
	Zn223	Zn	-0.002199	0.502853	0.240586
	Zn224	Zn	0.499379	0.754585	-0.009991
	Zn225	Zn	0.499614	0.254003	-0.009774
	Zn226	Zn	0.748532	0.002999	0.490447
	Zn227	Zn	0.249715	0.003677	0.490837
	N228	N	0.411822	0.967663	0.671141
	N229	N	0.585844	0.039993	0.669362
	N230	N	0.587003	0.968001	0.309968
	N231	N	0.413425	0.040168	0.311731
	N232	N	0.680395	0.415192	0.955820
	N233	N	0.679671	0.591890	0.026022
	N234	N	0.316739	0.593246	0.955088
	N235	N	0.318795	0.417542	0.026592
	N236	N	0.962370	0.684101	0.402528
	N237	N	0.034877	0.681909	0.575957
	N238	N	0.961690	0.323950	0.576636
	N239	N	0.034599	0.324514	0.404590
	N240	N	0.963229	0.413910	0.672566
	N241	N	0.034549	0.590669	0.670797
	N242	N	0.961687	0.590429	0.310151
	N243	N	0.034059	0.416537	0.310719
	N244	N	0.412113	0.684552	0.953948
	N245	N	0.585275	0.683839	0.026721
	N246	N	0.584929	0.325229	0.953938
	N247	N	0.411154	0.323280	0.025751
	N248	N	0.680231	0.967629	0.401975
	N249	N	0.678078	0.039385	0.576128
	N250	N	0.318538	0.967601	0.578613
	N251	N	0.320576	0.040188	0.404942
	N252	N	0.910413	0.467115	0.170741
	N253	N	0.082831	0.540569	0.168779
	N254	N	0.085569	0.467373	0.811013
	N255	N	0.912163	0.539979	0.811136
	N256	N	0.179732	0.915900	0.454205
	N257	N	0.178648	0.089912	0.527462
	N258	N	0.819709	0.089061	0.454668
	N259	N	0.816645	0.913806	0.525864
	N260	N	0.463928	0.182639	0.904146
	N261	N	0.535900	0.183535	0.076583
	N262	N	0.463760	0.824333	0.077658
	N263	N	0.536068	0.825515	0.904682
	N264	N	0.464286	0.916930	0.171145
	N265	N	0.536007	0.091648	0.170580
	N266	N	0.465037	0.091599	0.809722
	N267	N	0.534748	0.915578	0.809218
	N268	N	0.912521	0.182255	0.454880
	N269	N	0.085041	0.182978	0.527208
	N270	N	0.084655	0.824308	0.452919
	N271	N	0.912603	0.823642	0.527069
	N272	N	0.178740	0.468491	0.903585
	N273	N	0.177507	0.540600	0.077367
	N274	N	0.817596	0.467541	0.077971
	N275	N	0.819119	0.540162	0.903958
	O276	O	0.578757	0.523051	0.522456
	H277	H	0.573282	0.526807	0.532849
	H278	H	0.580797	0.539068	0.523440
	O279	O	0.409727	0.443574	0.702877
	H280	H	0.413734	0.432475	0.727217
	H281	H	0.422229	0.456531	0.686078
	O282	O	0.302016	0.512872	0.303705
	H283	H	0.292991	0.522174	0.292140
	H284	H	0.301728	0.549890	0.319209
	O285	O	0.609974	-0.493784	-0.604692
	H286	H	0.607633	-0.504679	-0.618003
	H287	H	0.601588	-0.476459	-0.594393
	O288	O	0.472614	-0.687023	0.487400
	H289	H	0.476876	-0.702737	0.472570
	H290	H	0.466735	-0.678469	0.487270
	O291	O	0.711357	0.588429	0.668752
	H292	H	0.696125	0.620155	0.662841
	H293	H	0.737458	0.601906	0.690942
	O294	O	0.615184	0.678783	0.668417
	H295	H	0.575051	0.685542	0.664763
	H296	H	0.613197	0.683771	0.650691
	O297	O	1.022610	0.858918	0.845221
	H298	H	1.006914	0.873846	0.850049
	H299	H	1.022521	0.862878	0.841287
	O300	O	-0.509804	0.502180	0.342194
	H301	H	-0.532616	0.501105	0.336625
	H302	H	-0.479480	0.490622	0.330913
	O303	O	0.438437	0.657078	0.595133
	H304	H	0.418106	0.641477	0.600953
	H305	H	0.464511	0.658220	0.580917
	O306	O	1.107288	-0.111750	-0.065641
	H307	H	1.096713	-0.098146	-0.071397
	H308	H	1.110008	-0.131556	-0.060264
	O309	O	0.884183	0.892596	0.070016
	H310	H	0.876071	0.898111	0.076127
	H311	H	0.894968	0.888539	0.060989
	O312	O	0.569875	0.498456	-0.380652
	H313	H	0.579561	0.502465	-0.374727
	H314	H	0.569353	0.475259	-0.369580
	O315	O	0.469656	0.710291	0.286155
	H316	H	0.473068	0.716777	0.261210
	H317	H	0.460806	0.710525	0.281793
	O318	O	0.593597	0.311496	0.444634
	H319	H	0.595343	0.309175	0.473854
	H320	H	0.599137	0.331978	0.452467
	O321	O	1.014765	-0.035262	1.061688
	H322	H	1.017974	-0.039053	1.059317
	H323	H	1.003172	-0.024670	1.069929
	O324	O	0.192779	0.152053	1.185395
	H325	H	0.213091	0.137074	1.197893
	H326	H	0.205198	0.145247	1.167282
	O327	O	0.529659	0.698932	0.463844
	H328	H	0.531720	0.699195	0.443453
	H329	H	0.529866	0.677845	0.454437
	O330	O	0.290653	0.696745	0.466397
	H331	H	0.268038	0.706589	0.478206
	H332	H	0.312030	0.702712	0.480039
	O333	O	0.984201	1.133899	0.926718
	H334	H	1.004749	1.131588	0.939375
	H335	H	0.984232	1.138460	0.936098
	O336	O	0.521277	0.603700	0.696928
	H337	H	0.517503	0.601747	0.690053
	H338	H	0.521761	0.609730	0.706537
	O339	O	1.308868	-0.321409	1.310955
	H340	H	1.317151	-0.315577	1.304054
	H341	H	1.305420	-0.310714	1.346704
	O342	O	-0.020924	1.008974	0.858381
	H343	H	-0.027027	1.012050	0.845533
	H344	H	-0.021067	1.033903	0.873141
	O345	O	-0.165756	1.113179	0.837375
	H346	H	-0.143953	1.123058	0.841118
	H347	H	-0.173484	1.118009	0.847833
	O348	O	0.941368	0.835652	1.025554
	H349	H	0.929276	0.833397	1.023117
	H350	H	0.943741	0.827687	1.020477
	O351	O	-0.070713	-0.006263	0.057096
	H352	H	-0.078734	-0.000444	0.060672
	H353	H	-0.060790	0.013479	0.042585
	O354	O	0.821152	0.890535	0.133239
	H355	H	0.835620	0.868114	0.137553
	H356	H	0.811312	0.889100	0.129301
	O357	O	-0.093047	1.124571	-0.035408
	H358	H	-0.096115	1.132400	-0.023186
	H359	H	-0.102000	1.131480	-0.022813
	O360	O	0.303129	0.379697	0.689080
	H361	H	0.319559	0.375090	0.706906
	H362	H	0.313108	0.393578	0.674962
	O363	O	0.701237	0.472050	0.302949
	H364	H	0.689565	0.463217	0.319622
	H365	H	0.733538	0.470294	0.274099
	O366	O	0.968510	0.935957	0.845658
	H367	H	0.966277	0.947608	0.846114
	H368	H	0.960863	0.933350	0.853231
	O369	O	0.022341	-0.106221	1.131900
	H370	H	0.018560	-0.114400	1.145820
	H371	H	0.010682	-0.091817	1.119567
	O372	O	-0.074870	1.172168	-0.131352
	H373	H	-0.055570	1.184168	-0.129664
	H374	H	-0.076195	1.175358	-0.119144
	O375	O	0.568848	0.550771	0.448395
	H376	H	0.562525	0.533599	0.471256
	H377	H	0.572346	0.569387	0.447699
	O378	O	0.611916	0.311254	0.307895
	H379	H	0.618295	0.307012	0.300761
	H380	H	0.616533	0.309911	0.329895
	O381	O	0.298913	0.534757	0.528661
	H382	H	0.304113	0.529625	0.536882
	H383	H	0.296370	0.538982	0.533883
	O384	O	0.047988	1.215612	1.201010
	H385	H	0.064475	1.241381	1.214808
	H386	H	0.082467	1.205691	1.204455
	O387	O	1.132582	0.928668	-0.034044
	H388	H	1.117267	0.931193	-0.029280
	H389	H	1.130929	0.910795	-0.040024
	O390	O	0.648334	-0.301814	1.494983
	H391	H	0.671315	-0.277904	1.487425
	H392	H	0.636367	-0.304858	1.495103
	O393	O	1.610986	0.426675	1.528310
	H394	H	1.612672	0.436409	1.533155
	H395	H	1.611465	0.435738	1.525362
	O396	O	0.192078	1.015572	0.799797
	H397	H	0.212017	1.008779	0.801748
	H398	H	0.168818	0.995319	0.804601
	O399	O	0.502089	0.305803	0.643978
	H400	H	0.483648	0.301599	0.640710
	H401	H	0.501914	0.292707	0.645664
	O402	O	1.175583	-0.084395	1.069139
	H403	H	1.157818	-0.080743	1.073778
	H404	H	1.170974	-0.094005	1.064047
	O405	O	-0.114982	-0.027032	-0.024611
	H406	H	-0.112848	-0.013190	-0.017705
	H407	H	-0.123550	-0.021985	-0.023328
	O408	O	1.206101	1.203082	1.023356
	H409	H	1.230579	1.212461	1.021272
	H410	H	1.210827	1.194815	1.012949
	O411	O	1.037636	1.050584	0.152801
	H412	H	1.048076	1.055082	0.147894
	H413	H	1.030848	1.046232	0.163376
	O414	O	0.079491	0.147497	0.880965
	H415	H	0.080830	0.137282	0.867417
	H416	H	0.098101	0.152118	0.876763
	O417	O	0.328308	0.394349	0.452365
	H418	H	0.311681	0.412240	0.462757
	H419	H	0.354498	0.376004	0.443394
	O420	O	0.026319	0.863666	0.020551
	H421	H	0.016590	0.867987	0.023859
	H422	H	0.018119	0.854011	0.006311
	O423	O	0.891069	-0.013556	0.026967
	H424	H	0.892462	0.007146	0.013988
	H425	H	0.884386	-0.022659	0.034852
	O426	O	-0.672856	-0.683613	0.573204
	H427	H	-0.678472	-0.672768	0.571859
	H428	H	-0.682205	-0.690655	0.552764
	O429	O	0.503761	0.356685	0.374038
	H430	H	0.502074	0.356028	0.366326
	H431	H	0.520485	0.361630	0.390470
