data_Molecule from HDF5

_cell_length_a		16.374124
_cell_length_b		16.037192
_cell_length_c		16.348146
_cell_angle_alpha	89.790900
_cell_angle_beta	90.009939
_cell_angle_gamma	90.140260
_symmetry_space_group_name_H-M	'P 1'
_symmetry_Int_Tables_number		1

loop_
	_symmetry_equiv_pos_as_xyz
	x,y,z

loop_
	_atom_site_label
	_atom_site_type_symbol
	_atom_site_fract_x
	_atom_site_fract_y
	_atom_site_fract_z
	H0	H	0.388559	0.837444	0.718416
	H1	H	0.589700	0.167309	0.715244
	H2	H	0.587528	0.837284	0.289365
	H3	H	0.388011	0.166398	0.285536
	H4	H	0.710369	0.399359	0.839306
	H5	H	0.713785	0.606374	0.161628
	H6	H	0.274272	0.607156	0.839339
	H7	H	0.273481	0.397554	0.160869
	H8	H	0.826658	0.714809	0.400978
	H9	H	0.153864	0.716716	0.594501
	H10	H	0.826560	0.288071	0.596940
	H11	H	0.153414	0.286547	0.401651
	H12	H	0.830404	0.397693	0.720759
	H13	H	0.152788	0.606031	0.716207
	H14	H	0.830562	0.604189	0.278458
	H15	H	0.153550	0.400178	0.282384
	H16	H	0.397477	0.715444	0.837145
	H17	H	0.590448	0.716002	0.165199
	H18	H	0.591403	0.287009	0.838408
	H19	H	0.396260	0.289710	0.164136
	H20	H	0.702423	0.837219	0.401162
	H21	H	0.707043	0.165373	0.603520
	H22	H	0.274893	0.836746	0.602190
	H23	H	0.275972	0.167076	0.401305
	H24	H	0.892666	0.337137	0.213847
	H25	H	0.093248	0.666911	0.213096
	H26	H	0.092219	0.337245	0.785243
	H27	H	0.893481	0.667830	0.785276
	H28	H	0.208960	0.898938	0.339784
	H29	H	0.209000	0.106712	0.661703
	H30	H	0.769014	0.105579	0.340049
	H31	H	0.769444	0.895300	0.661512
	H32	H	0.327936	0.217474	0.904975
	H33	H	0.654514	0.216828	0.099330
	H34	H	0.328344	0.784926	0.099653
	H35	H	0.654631	0.791587	0.907438
	H36	H	0.327621	0.898435	0.219252
	H37	H	0.651526	0.104454	0.221291
	H38	H	0.329041	0.106130	0.784208
	H39	H	0.650297	0.897967	0.781769
	H40	H	0.891371	0.216379	0.336546
	H41	H	0.087250	0.216397	0.663808
	H42	H	0.085246	0.791987	0.335719
	H43	H	0.892772	0.785594	0.662903
	H44	H	0.206345	0.336602	0.901149
	H45	H	0.207205	0.666677	0.100146
	H46	H	0.777052	0.338208	0.101452
	H47	H	0.777390	0.666707	0.897911
	H48	H	0.397163	0.119971	0.591535
	H49	H	0.580305	0.884929	0.588795
	H50	H	0.581158	0.121190	0.410960
	H51	H	0.395407	0.884561	0.414435
	H52	H	0.588682	0.415852	0.115362
	H53	H	0.582239	0.593874	0.887671
	H54	H	0.404746	0.575981	0.109169
	H55	H	0.402784	0.411656	0.885307
	H56	H	0.105204	0.594248	0.407735
	H57	H	0.876667	0.590122	0.590021
	H58	H	0.108271	0.405642	0.594934
	H59	H	0.874890	0.406616	0.406277
	H60	H	0.105062	0.410070	0.587678
	H61	H	0.875890	0.590248	0.596444
	H62	H	0.107347	0.594354	0.401047
	H63	H	0.878155	0.414632	0.408210
	H64	H	0.410220	0.606512	0.118452
	H65	H	0.586674	0.600246	0.883729
	H66	H	0.582336	0.410857	0.115100
	H67	H	0.398067	0.408389	0.883206
	H68	H	0.579377	0.120206	0.409904
	H69	H	0.580918	0.882609	0.595167
	H70	H	0.396948	0.120584	0.594512
	H71	H	0.393493	0.882228	0.407189
	H72	H	0.907079	0.619600	0.092287
	H73	H	0.084305	0.383831	0.091728
	H74	H	0.083120	0.618960	0.909799
	H75	H	0.897918	0.385367	0.913222
	H76	H	0.080724	0.905520	0.617064
	H77	H	0.084276	0.095226	0.384930
	H78	H	0.900254	0.097684	0.616053
	H79	H	0.900752	0.911295	0.386928
	H80	H	0.604877	0.092788	0.911126
	H81	H	0.378393	0.092708	0.087562
	H82	H	0.603018	0.920712	0.095816
	H83	H	0.377901	0.912359	0.919466
	H84	H	0.608869	0.908990	0.104757
	H85	H	0.375167	0.087854	0.100231
	H86	H	0.605875	0.089914	0.905686
	H87	H	0.375447	0.918052	0.902611
	H88	H	0.890853	0.091673	0.617724
	H89	H	0.085060	0.092752	0.384166
	H90	H	0.088582	0.911519	0.617169
	H91	H	0.890938	0.905745	0.381428
	H92	H	0.089409	0.621508	0.908271
	H93	H	0.084327	0.383586	0.092213
	H94	H	0.902777	0.618691	0.084765
	H95	H	0.900474	0.383090	0.906311
	H96	H	0.399856	0.119747	0.593283
	H97	H	0.575138	0.885745	0.593117
	H98	H	0.579737	0.120353	0.412253
	H99	H	0.401391	0.883964	0.408315
	H100	H	0.588720	0.407781	0.118412
	H101	H	0.590592	0.592782	0.885679
	H102	H	0.381371	0.593510	0.122387
	H103	H	0.396722	0.414739	0.884444
	H104	H	0.107625	0.600519	0.405297
	H105	H	0.874315	0.595411	0.592636
	H106	H	0.104850	0.413845	0.595832
	H107	H	0.874830	0.413106	0.400598
	H108	H	0.898710	0.622607	0.090947
	H109	H	0.083223	0.382852	0.091940
	H110	H	0.084231	0.621658	0.903255
	H111	H	0.905117	0.386167	0.911027
	H112	H	0.080128	0.914519	0.613851
	H113	H	0.083273	0.092612	0.385364
	H114	H	0.900409	0.086212	0.612865
	H115	H	0.890365	0.917389	0.385183
	H116	H	0.607193	0.097135	0.906096
	H117	H	0.372925	0.101284	0.097181
	H118	H	0.605400	0.905887	0.090711
	H119	H	0.371222	0.901518	0.906545
	C120	C	0.368181	0.010763	0.622822
	C121	C	0.609626	0.993043	0.622342
	C122	C	0.609036	0.011214	0.381752
	C123	C	0.368024	0.992836	0.380468
	C124	C	0.615309	0.381147	0.009175
	C125	C	0.615882	0.625166	0.992853
	C126	C	0.370219	0.623267	0.009439
	C127	C	0.370453	0.381365	0.991743
	C128	C	-0.000336	0.625140	0.375626
	C129	C	0.982842	0.623160	0.620979
	C130	C	-0.001034	0.379723	0.622304
	C131	C	0.983108	0.381086	0.377019
	C132	C	0.872478	0.511405	0.119878
	C133	C	0.113723	0.492808	0.121075
	C134	C	0.114211	0.510896	0.878379
	C135	C	0.872008	0.493811	0.879354
	C136	C	0.111482	0.881381	0.508646
	C137	C	0.112487	0.123540	0.492236
	C138	C	0.867233	0.122769	0.508545
	C139	C	0.865797	0.879626	0.491527
	C140	C	0.498962	0.123857	0.879093
	C141	C	0.482419	0.124157	0.124279
	C142	C	0.498657	0.880275	0.125559
	C143	C	0.481947	0.881098	0.880197
	C144	C	0.369121	0.886605	0.679601
	C145	C	0.609387	0.117317	0.678204
	C146	C	0.607468	0.886812	0.326285
	C147	C	0.368846	0.117157	0.323923
	C148	C	0.671589	0.381003	0.887666
	C149	C	0.673459	0.624774	0.113998
	C150	C	0.313740	0.624771	0.887697
	C151	C	0.313258	0.379573	0.113035
	C152	C	0.876340	0.678628	0.379129
	C153	C	0.105035	0.679379	0.616332
	C154	C	0.876058	0.324564	0.618986
	C155	C	0.105099	0.324675	0.380728
	C156	C	0.877987	0.379197	0.680485
	C157	C	0.104473	0.624558	0.677201
	C158	C	0.878211	0.623779	0.318246
	C159	C	0.105116	0.381282	0.321356
	C160	C	0.374717	0.679177	0.886467
	C161	C	0.612313	0.679444	0.115900
	C162	C	0.612265	0.324887	0.887005
	C163	C	0.374449	0.326038	0.114541
	C164	C	0.664244	0.886582	0.382453
	C165	C	0.667498	0.116610	0.622236
	C166	C	0.312353	0.886436	0.622083
	C167	C	0.313098	0.117443	0.381351
	C168	C	0.873145	0.386791	0.175997
	C169	C	0.112789	0.617315	0.175926
	C170	C	0.112108	0.386467	0.823123
	C171	C	0.873375	0.618181	0.822811
	C172	C	0.168805	0.881194	0.387413
	C173	C	0.169711	0.124858	0.613479
	C174	C	0.809063	0.123962	0.387532
	C175	C	0.809350	0.877894	0.613499
	C176	C	0.376516	0.179828	0.883138
	C177	C	0.605291	0.179599	0.120887
	C178	C	0.376771	0.822961	0.121654
	C179	C	0.605151	0.827243	0.884432
	C180	C	0.376314	0.879915	0.180781
	C181	C	0.603800	0.123495	0.181381
	C182	C	0.377197	0.124460	0.823038
	C183	C	0.603063	0.880641	0.822520
	C184	C	0.869779	0.179166	0.385829
	C185	C	0.109013	0.179339	0.614654
	C186	C	0.107208	0.827774	0.385423
	C187	C	0.870369	0.823013	0.614075
	C188	C	0.168881	0.386177	0.880873
	C189	C	0.169648	0.616996	0.119670
	C190	C	0.815552	0.387358	0.120156
	C191	C	0.816114	0.617787	0.879310
	C192	C	0.391168	0.097609	0.599940
	C193	C	0.585769	0.906736	0.599059
	C194	C	0.586740	0.097897	0.404478
	C195	C	0.390212	0.906056	0.403377
	C196	C	0.593232	0.404797	0.094315
	C197	C	0.593164	0.602373	0.907749
	C198	C	0.392293	0.599028	0.094551
	C199	C	0.392568	0.404884	0.906495
	C200	C	0.084794	0.602835	0.397967
	C201	C	0.897672	0.599015	0.599492
	C202	C	0.083927	0.403080	0.599465
	C203	C	0.897995	0.404624	0.398652
	C204	C	0.896014	0.598023	0.096314
	C205	C	0.090651	0.405909	0.098668
	C206	C	0.092082	0.598036	0.900462
	C207	C	0.894719	0.407450	0.902866
	C208	C	0.089578	0.904033	0.594091
	C209	C	0.090540	0.100271	0.406949
	C210	C	0.890324	0.098860	0.593351
	C211	C	0.887452	0.904337	0.406479
	C212	C	0.583899	0.100234	0.901237
	C213	C	0.397612	0.100962	0.101522
	C214	C	0.583625	0.904564	0.103626
	C215	C	0.396963	0.904033	0.902853
	Zn216	Zn	0.489478	0.002388	0.750157
	Zn217	Zn	0.489490	0.002382	0.254392
	Zn218	Zn	0.744737	0.502808	0.000296
	Zn219	Zn	0.240843	0.501949	0.000657
	Zn220	Zn	-0.010182	0.752496	0.499136
	Zn221	Zn	-0.010150	0.251275	0.499318
	Zn222	Zn	-0.007835	0.502441	0.751381
	Zn223	Zn	-0.007028	0.502569	0.247145
	Zn224	Zn	0.492065	0.752326	0.001974
	Zn225	Zn	0.492131	0.253301	0.000611
	Zn226	Zn	0.736572	0.001721	0.501073
	Zn227	Zn	0.241643	0.001958	0.501109
	N228	N	0.402855	0.965038	0.680255
	N229	N	0.574099	0.039380	0.678332
	N230	N	0.573819	0.965231	0.325838
	N231	N	0.402316	0.038624	0.323104
	N232	N	0.673454	0.415275	0.964711
	N233	N	0.675673	0.591778	0.036510
	N234	N	0.310916	0.590724	0.965110
	N235	N	0.310595	0.413342	0.035585
	N236	N	0.952720	0.679552	0.414065
	N237	N	0.028208	0.678704	0.582344
	N238	N	0.952288	0.324599	0.583584
	N239	N	0.028163	0.324394	0.414620
	N240	N	0.955504	0.412492	0.682899
	N241	N	0.027394	0.590194	0.680051
	N242	N	0.955911	0.591237	0.315882
	N243	N	0.028289	0.415655	0.319020
	N244	N	0.409232	0.678328	0.963177
	N245	N	0.577327	0.679884	0.039470
	N246	N	0.578157	0.324581	0.963856
	N247	N	0.409370	0.326988	0.038080
	N248	N	0.665587	0.965111	0.416008
	N249	N	0.668158	0.038155	0.588641
	N250	N	0.311767	0.964730	0.587446
	N251	N	0.312603	0.039088	0.415984
	N252	N	0.907971	0.464964	0.175994
	N253	N	0.078742	0.538946	0.176905
	N254	N	0.078908	0.465180	0.821447
	N255	N	0.907389	0.539997	0.822645
	N256	N	0.171547	0.913882	0.465050
	N257	N	0.171948	0.090855	0.536280
	N258	N	0.807236	0.089822	0.464840
	N259	N	0.806705	0.912598	0.536321
	N260	N	0.453275	0.179793	0.917224
	N261	N	0.528754	0.180297	0.086165
	N262	N	0.453706	0.823201	0.087980
	N263	N	0.528900	0.827411	0.919760
	N264	N	0.453322	0.914824	0.183265
	N265	N	0.526579	0.089705	0.183455
	N266	N	0.454165	0.090403	0.820587
	N267	N	0.525513	0.913471	0.819797
	N268	N	0.905444	0.178364	0.462001
	N269	N	0.073869	0.178500	0.538357
	N270	N	0.072070	0.827799	0.461823
	N271	N	0.904632	0.823979	0.537317
	N272	N	0.170376	0.464834	0.914239
	N273	N	0.170366	0.538444	0.086228
	N274	N	0.814870	0.465883	0.086152
	N275	N	0.815026	0.539580	0.913777
	O276	O	0.950428	0.008410	1.015813
	H277	H	0.946567	0.004934	1.018698
	H278	H	0.952474	-0.001986	1.009614
	O279	O	0.588730	0.551501	0.518069
	H280	H	0.577826	0.552520	0.512448
	H281	H	0.583148	0.550566	0.515344
	O282	O	0.496115	0.533433	0.500210
	H283	H	0.511018	0.532833	0.481867
	H284	H	0.488337	0.528962	0.489218
	O285	O	0.576874	0.551025	0.683786
	H286	H	0.574118	0.541895	0.687688
	H287	H	0.566594	0.558726	0.691786
	O288	O	0.629603	0.481611	0.513033
	H289	H	0.636790	0.490262	0.507551
	H290	H	0.624642	0.488114	0.519563
	O291	O	0.021861	-0.102480	1.043795
	H292	H	0.013129	-0.101435	1.028057
	H293	H	0.018388	-0.097241	1.048191
	O294	O	1.000067	1.024598	-0.031940
	H295	H	1.005501	1.028217	-0.029870
	H296	H	1.000361	1.030159	-0.029894
	O297	O	0.926991	1.009261	-0.027978
	H298	H	0.923308	1.009582	-0.032175
	H299	H	0.918648	0.994252	-0.026840
	O300	O	0.574832	0.579622	0.443752
	H301	H	0.585862	0.579779	0.445457
	H302	H	0.558818	0.586151	0.439751
	O303	O	1.085583	-0.098295	0.856182
	H304	H	1.090067	-0.093356	0.856915
	H305	H	1.083438	-0.100526	0.844646
	O306	O	0.380659	0.547768	0.557101
	H307	H	0.380738	0.550717	0.571648
	H308	H	0.379885	0.547596	0.559610
	O309	O	0.418052	0.472643	0.516310
	H310	H	0.414528	0.462462	0.512930
	H311	H	0.412061	0.459292	0.529089
	O312	O	0.521411	1.479893	0.602372
	H313	H	0.516042	1.469779	0.589174
	H314	H	0.523332	1.480183	0.605770
	O315	O	1.477204	0.519337	0.409369
	H316	H	1.476807	0.523080	0.406862
	H317	H	1.476276	0.519773	0.421703
	O318	O	0.512315	0.456541	0.399409
	H319	H	0.510853	0.468954	0.387308
	H320	H	0.510534	0.451914	0.401982
	O321	O	0.459150	0.546068	0.387195
	H322	H	0.460352	0.550765	0.375324
	H323	H	0.448741	0.548417	0.390747
	O324	O	0.018693	1.017750	1.054125
	H325	H	0.033470	1.018939	1.050722
	H326	H	0.027976	1.014967	1.050643
	O327	O	-0.026962	1.057877	0.904509
	H328	H	-0.024637	1.062096	0.908802
	H329	H	-0.019548	1.062863	0.898310
	O330	O	-0.110799	0.020954	0.015239
	H331	H	-0.127463	0.011348	0.015845
	H332	H	-0.105336	0.021579	0.025899
	O333	O	0.322810	0.458739	0.588949
	H334	H	0.321863	0.449868	0.586213
	H335	H	0.330118	0.461352	0.598463
	O336	O	0.047012	-0.062561	-0.074124
	H337	H	0.050956	-0.062111	-0.080840
	H338	H	0.036448	-0.064619	-0.074012
	O339	O	0.101366	0.007676	0.037786
	H340	H	0.104179	0.000617	0.031981
	H341	H	0.113358	0.014096	0.049802
	O342	O	0.481262	0.560466	0.449780
	H343	H	0.487350	0.565005	0.446208
	H344	H	0.467604	0.558766	0.452004
	O345	O	-0.102142	1.108889	1.114700
	H346	H	-0.112336	1.112860	1.114268
	H347	H	-0.098345	1.105010	1.121476
	O348	O	0.440628	0.512103	0.399370
	H349	H	0.439131	0.500788	0.400192
	H350	H	0.443685	0.510134	0.414141
	O351	O	0.614575	0.399547	0.417937
	H352	H	0.617808	0.398417	0.397527
	H353	H	0.618446	0.392935	0.419789
	O354	O	0.030523	0.952564	-0.005102
	H355	H	0.026061	0.950685	-0.010105
	H356	H	0.028604	0.950006	0.001728
	O357	O	0.358542	0.473485	0.559604
	H358	H	0.363915	0.469922	0.559832
	H359	H	0.368213	0.467633	0.569084
	O360	O	1.061568	0.011721	0.909999
	H361	H	1.064362	0.000805	0.918121
	H362	H	1.052540	0.012357	0.897348
	O363	O	0.462789	0.489759	0.509683
	H364	H	0.455282	0.484677	0.518603
	H365	H	0.464966	0.485727	0.508517
	O366	O	0.927424	1.030753	-0.044420
	H367	H	0.930114	1.031744	-0.047876
	H368	H	0.932498	1.029648	-0.038296
	O369	O	0.908835	-0.021128	0.099576
	H370	H	0.894376	-0.023677	0.088387
	H371	H	0.922918	-0.024763	0.094298
	O372	O	0.472639	0.553840	0.389876
	H373	H	0.471110	0.555979	0.381380
	H374	H	0.467289	0.566660	0.388035
	O375	O	0.926284	-0.104176	1.050981
	H376	H	0.926559	-0.113004	1.045898
	H377	H	0.929958	-0.100602	1.052938
	O378	O	0.026799	1.101783	0.050508
	H379	H	0.033178	1.100557	0.062927
	H380	H	0.020941	1.110371	0.063444
	O381	O	0.557289	0.518423	0.593753
	H382	H	0.557412	0.525099	0.587446
	H383	H	0.561617	0.515999	0.598867
	O384	O	0.884060	0.924550	-0.141065
	H385	H	0.887619	0.935472	-0.135903
	H386	H	0.873190	0.921610	-0.141371
	O387	O	1.116979	-0.011279	1.101637
	H388	H	1.107511	-0.023802	1.106994
	H389	H	1.111251	-0.010946	1.102043
	O390	O	0.912154	1.110953	-0.046302
	H391	H	0.910661	1.123327	-0.060491
	H392	H	0.907036	1.112727	-0.044069
	O393	O	0.483486	0.383265	0.626134
	H394	H	0.482453	0.384030	0.634683
	H395	H	0.494739	0.387987	0.613468
