data_Molecule from HDF5

_cell_length_a		16.178095
_cell_length_b		16.338492
_cell_length_c		16.177355
_cell_angle_alpha	90.397787
_cell_angle_beta	89.497467
_cell_angle_gamma	90.431930
_symmetry_space_group_name_H-M	'P 1'
_symmetry_Int_Tables_number		1

loop_
	_symmetry_equiv_pos_as_xyz
	x,y,z

loop_
	_atom_site_label
	_atom_site_type_symbol
	_atom_site_fract_x
	_atom_site_fract_y
	_atom_site_fract_z
	H0	H	0.403304	0.834696	0.706856
	H1	H	0.600888	0.161655	0.708926
	H2	H	0.600991	0.835740	0.277646
	H3	H	0.404307	0.161856	0.280452
	H4	H	0.719168	0.402270	0.828800
	H5	H	0.715507	0.597916	0.159046
	H6	H	0.294369	0.595717	0.828767
	H7	H	0.287700	0.400070	0.156530
	H8	H	0.838828	0.711791	0.395914
	H9	H	0.166811	0.719590	0.594133
	H10	H	0.839622	0.282512	0.595533
	H11	H	0.167573	0.284708	0.390854
	H12	H	0.838894	0.402309	0.708962
	H13	H	0.169663	0.599667	0.704242
	H14	H	0.837993	0.592537	0.284261
	H15	H	0.168098	0.401565	0.277176
	H16	H	0.407392	0.711963	0.828934
	H17	H	0.606392	0.717718	0.156149
	H18	H	0.606396	0.283088	0.829744
	H19	H	0.402299	0.285113	0.157763
	H20	H	0.717731	0.836371	0.393305
	H21	H	0.718457	0.162167	0.593057
	H22	H	0.284928	0.836630	0.593075
	H23	H	0.292574	0.163256	0.399327
	H24	H	0.903805	0.335123	0.205300
	H25	H	0.104769	0.662153	0.208664
	H26	H	0.104533	0.337804	0.773437
	H27	H	0.908466	0.663938	0.782298
	H28	H	0.217327	0.902106	0.329618
	H29	H	0.214094	0.099355	0.659688
	H30	H	0.792981	0.095604	0.329011
	H31	H	0.787344	0.902571	0.657553
	H32	H	0.339664	0.212292	0.895795
	H33	H	0.667844	0.216242	0.093600
	H34	H	0.341517	0.780463	0.095402
	H35	H	0.669380	0.785952	0.891821
	H36	H	0.338519	0.900161	0.207759
	H37	H	0.668644	0.099410	0.207555
	H38	H	0.337264	0.091344	0.785316
	H39	H	0.667876	0.901823	0.777501
	H40	H	0.905420	0.210955	0.329322
	H41	H	0.102496	0.217873	0.657293
	H42	H	0.104535	0.783890	0.330443
	H43	H	0.900195	0.784974	0.657451
	H44	H	0.219322	0.336468	0.890513
	H45	H	0.221051	0.661810	0.092433
	H46	H	0.785649	0.337674	0.094003
	H47	H	0.793065	0.663567	0.898189
	H48	H	0.414047	0.116303	0.597468
	H49	H	0.600988	0.880388	0.584957
	H50	H	0.590429	0.114710	0.396294
	H51	H	0.403979	0.880961	0.400782
	H52	H	0.590249	0.402021	0.110774
	H53	H	0.595521	0.581659	0.880590
	H54	H	0.415954	0.583290	0.107515
	H55	H	0.412261	0.407390	0.876726
	H56	H	0.122421	0.600219	0.403904
	H57	H	0.889572	0.587073	0.582120
	H58	H	0.121756	0.402514	0.580708
	H59	H	0.885255	0.399376	0.406522
	H60	H	0.117454	0.411472	0.576872
	H61	H	0.884921	0.590150	0.596063
	H62	H	0.118104	0.588076	0.404531
	H63	H	0.888209	0.409450	0.401286
	H64	H	0.420255	0.597786	0.110694
	H65	H	0.592344	0.603611	0.874359
	H66	H	0.601489	0.406865	0.112983
	H67	H	0.418231	0.402456	0.875712
	H68	H	0.598130	0.112755	0.409333
	H69	H	0.593183	0.881912	0.590544
	H70	H	0.412843	0.113279	0.584224
	H71	H	0.412091	0.881798	0.395404
	H72	H	0.914711	0.615110	0.089268
	H73	H	0.091200	0.383786	0.086346
	H74	H	0.104604	0.617946	0.898214
	H75	H	0.913248	0.383064	0.896025
	H76	H	0.088428	0.909123	0.610153
	H77	H	0.095449	0.106724	0.371833
	H78	H	0.907578	0.086571	0.611205
	H79	H	0.913065	0.903466	0.376111
	H80	H	0.622183	0.092768	0.898709
	H81	H	0.386502	0.086457	0.090760
	H82	H	0.624790	0.895196	0.081594
	H83	H	0.387902	0.904297	0.907788
	H84	H	0.615945	0.916433	0.075399
	H85	H	0.383853	0.097249	0.090901
	H86	H	0.620882	0.093370	0.902200
	H87	H	0.386226	0.905342	0.898465
	H88	H	0.916967	0.095062	0.609620
	H89	H	0.112836	0.087061	0.374655
	H90	H	0.093665	0.904456	0.612820
	H91	H	0.911214	0.902700	0.374722
	H92	H	0.098132	0.616161	0.897206
	H93	H	0.097351	0.384547	0.079373
	H94	H	0.908210	0.616332	0.087757
	H95	H	0.916246	0.385597	0.903231
	H96	H	0.401824	0.118476	0.591727
	H97	H	0.592933	0.884218	0.581183
	H98	H	0.605546	0.119418	0.397348
	H99	H	0.412069	0.884779	0.405758
	H100	H	0.592429	0.413055	0.108534
	H101	H	0.612884	0.593143	0.870715
	H102	H	0.405319	0.593797	0.113490
	H103	H	0.411944	0.400672	0.873927
	H104	H	0.122777	0.591796	0.393465
	H105	H	0.884224	0.600655	0.586091
	H106	H	0.120810	0.410754	0.588264
	H107	H	0.882588	0.401095	0.395168
	H108	H	0.911178	0.618009	0.093742
	H109	H	0.100090	0.381048	0.087063
	H110	H	0.101502	0.615529	0.903285
	H111	H	0.908162	0.383458	0.902705
	H112	H	0.095719	0.912080	0.611137
	H113	H	0.087627	0.083516	0.381645
	H114	H	0.906468	0.098543	0.614734
	H115	H	0.911375	0.905538	0.375041
	H116	H	0.621228	0.089928	0.901475
	H117	H	0.387767	0.092049	0.081786
	H118	H	0.624129	0.912534	0.097763
	H119	H	0.384671	0.896944	0.902109
	C120	C	0.380413	0.007635	0.617695
	C121	C	0.624528	0.990053	0.615078
	C122	C	0.626031	0.007790	0.371296
	C123	C	0.381628	0.990642	0.373133
	C124	C	0.625774	0.378135	0.002305
	C125	C	0.627732	0.621764	0.984184
	C126	C	0.385695	0.619331	0.002041
	C127	C	0.383584	0.376546	0.984405
	C128	C	0.012107	0.620442	0.373094
	C129	C	0.995117	0.622385	0.615807
	C130	C	0.011796	0.378922	0.613743
	C131	C	0.994320	0.376018	0.371007
	C132	C	0.881592	0.508187	0.117000
	C133	C	0.126024	0.490923	0.114131
	C134	C	0.128797	0.508641	0.869547
	C135	C	0.884471	0.491999	0.873122
	C136	C	0.123259	0.879250	0.503094
	C137	C	0.125816	0.122082	0.485167
	C138	C	0.883236	0.120158	0.502519
	C139	C	0.881363	0.876717	0.484206
	C140	C	0.512299	0.119220	0.873479
	C141	C	0.495130	0.121036	0.116184
	C142	C	0.513057	0.878009	0.114727
	C143	C	0.495255	0.875733	0.872447
	C144	C	0.382421	0.883962	0.670475
	C145	C	0.622082	0.113039	0.670977
	C146	C	0.622250	0.884852	0.315531
	C147	C	0.384447	0.113431	0.318636
	C148	C	0.681597	0.381054	0.878296
	C149	C	0.679816	0.618875	0.109130
	C150	C	0.331646	0.616115	0.877829
	C151	C	0.326201	0.379799	0.107617
	C152	C	0.888117	0.674146	0.376001
	C153	C	0.118230	0.679872	0.613625
	C154	C	0.888289	0.322243	0.614192
	C155	C	0.118288	0.322194	0.371412
	C156	C	0.888159	0.381560	0.670571
	C157	C	0.119712	0.620424	0.668499
	C158	C	0.887335	0.614772	0.320571
	C159	C	0.118477	0.380008	0.314502
	C160	C	0.388093	0.673845	0.878027
	C161	C	0.625816	0.678655	0.107704
	C162	C	0.625742	0.321578	0.878767
	C163	C	0.382981	0.322608	0.108293
	C164	C	0.680234	0.885172	0.372838
	C165	C	0.680182	0.113167	0.613288
	C166	C	0.323689	0.884995	0.613914
	C167	C	0.328686	0.113853	0.377755
	C168	C	0.883641	0.384658	0.169529
	C169	C	0.124827	0.613246	0.170592
	C170	C	0.124737	0.386112	0.812809
	C171	C	0.887431	0.614986	0.819122
	C172	C	0.179904	0.881283	0.378998
	C173	C	0.178485	0.120210	0.609688
	C174	C	0.829943	0.116173	0.378168
	C175	C	0.825073	0.881075	0.608462
	C176	C	0.388457	0.173945	0.876063
	C177	C	0.618797	0.177673	0.113774
	C178	C	0.389898	0.820123	0.114422
	C179	C	0.619819	0.822946	0.872526
	C180	C	0.388338	0.879646	0.170176
	C181	C	0.619208	0.119348	0.170370
	C182	C	0.387115	0.114075	0.821070
	C183	C	0.619117	0.880457	0.815745
	C184	C	0.885701	0.173965	0.378606
	C185	C	0.122944	0.179033	0.608491
	C186	C	0.123320	0.822987	0.379334
	C187	C	0.880986	0.822581	0.608330
	C188	C	0.182273	0.385627	0.870569
	C189	C	0.182566	0.613212	0.112546
	C190	C	0.824630	0.385947	0.114006
	C191	C	0.830078	0.614794	0.876857
	C192	C	0.402786	0.093642	0.597125
	C193	C	0.602229	0.904238	0.592207
	C194	C	0.604423	0.093548	0.394230
	C195	C	0.403120	0.904750	0.394313
	C196	C	0.601719	0.400739	0.088512
	C197	C	0.606605	0.599310	0.897656
	C198	C	0.407269	0.597880	0.088243
	C199	C	0.407248	0.397361	0.897729
	C200	C	0.098687	0.599598	0.394243
	C201	C	0.908586	0.599317	0.594458
	C202	C	0.097711	0.401726	0.589146
	C203	C	0.907917	0.397061	0.394176
	C204	C	0.904538	0.594306	0.096260
	C205	C	0.102830	0.405311	0.091084
	C206	C	0.107683	0.594290	0.892665
	C207	C	0.906136	0.406253	0.894277
	C208	C	0.099618	0.902038	0.589167
	C209	C	0.104826	0.099263	0.398495
	C210	C	0.904131	0.099592	0.589353
	C211	C	0.904826	0.897691	0.397840
	C212	C	0.599010	0.098294	0.894396
	C213	C	0.408710	0.098496	0.094292
	C214	C	0.599319	0.901401	0.091609
	C215	C	0.408661	0.895994	0.895902
	Zn216	Zn	0.502795	-0.002290	0.745394
	Zn217	Zn	0.503142	-0.000469	0.243645
	Zn218	Zn	0.754712	0.500486	-0.005835
	Zn219	Zn	0.256501	0.498774	-0.007473
	Zn220	Zn	0.003036	0.749585	0.493861
	Zn221	Zn	0.003011	0.248953	0.493009
	Zn222	Zn	0.004835	0.500459	0.743152
	Zn223	Zn	0.003634	0.499008	0.244518
	Zn224	Zn	0.505784	0.748086	-0.006840
	Zn225	Zn	0.503774	0.249060	-0.006370
	Zn226	Zn	0.754914	-0.000362	0.493049
	Zn227	Zn	0.252964	0.000015	0.494963
	N228	N	0.417100	0.961162	0.672846
	N229	N	0.588100	0.035660	0.672180
	N230	N	0.589217	0.962360	0.314530
	N231	N	0.416899	0.035742	0.315791
	N232	N	0.681685	0.415520	0.956114
	N233	N	0.681244	0.584075	0.031358
	N234	N	0.330162	0.582655	0.955679
	N235	N	0.326180	0.412339	0.029450
	N236	N	0.966818	0.677595	0.407912
	N237	N	0.039720	0.681302	0.581592
	N238	N	0.966183	0.320594	0.579374
	N239	N	0.040115	0.319453	0.405665
	N240	N	0.966060	0.416026	0.670334
	N241	N	0.042105	0.585231	0.669989
	N242	N	0.965503	0.582181	0.318414
	N243	N	0.040437	0.412810	0.314098
	N244	N	0.421073	0.675879	0.956123
	N245	N	0.594339	0.680581	0.029173
	N246	N	0.591867	0.319509	0.957090
	N247	N	0.418323	0.320851	0.030616
	N248	N	0.682557	0.962476	0.406879
	N249	N	0.681764	0.035580	0.579146
	N250	N	0.322123	0.962856	0.582266
	N251	N	0.326662	0.036542	0.410851
	N252	N	0.918412	0.461802	0.171652
	N253	N	0.090345	0.536057	0.171612
	N254	N	0.092314	0.463635	0.812029
	N255	N	0.920375	0.537616	0.816717
	N256	N	0.179841	0.915950	0.456802
	N257	N	0.180267	0.085363	0.532111
	N258	N	0.828238	0.083332	0.456237
	N259	N	0.825034	0.914073	0.530438
	N260	N	0.467170	0.177427	0.907847
	N261	N	0.540568	0.179131	0.080796
	N262	N	0.468403	0.818757	0.080757
	N263	N	0.541887	0.820190	0.907356
	N264	N	0.465864	0.914966	0.170458
	N265	N	0.541347	0.084959	0.171870
	N266	N	0.465086	0.080808	0.819391
	N267	N	0.540738	0.912532	0.815480
	N268	N	0.918160	0.176595	0.456938
	N269	N	0.090960	0.180397	0.529885
	N270	N	0.088939	0.821627	0.457368
	N271	N	0.915156	0.819825	0.530142
	N272	N	0.184809	0.462745	0.905278
	N273	N	0.183427	0.536057	0.078125
	N274	N	0.823262	0.463772	0.082119
	N275	N	0.828271	0.537333	0.909969
	O276	O	1.022892	0.993861	0.022611
	H277	H	1.025042	1.008609	0.024671
	H278	H	1.021902	0.982183	0.029600
	O279	O	0.057253	0.037311	1.048608
	H280	H	0.053418	0.032297	1.046076
	H281	H	0.044252	0.038630	1.055062
	O282	O	-0.046358	-0.037439	-0.055809
	H283	H	-0.052157	-0.032707	-0.059841
	H284	H	-0.050814	-0.037488	-0.058881
	O285	O	0.502859	0.455082	0.518443
	H286	H	0.509450	0.460458	0.512099
	H287	H	0.502379	0.472617	0.515657
	O288	O	0.020933	-0.018415	-0.054052
	H289	H	0.015597	-0.024342	-0.058963
	H290	H	0.027250	-0.019542	-0.051814
	O291	O	-0.024023	1.048678	0.066656
	H292	H	-0.025463	1.050307	0.075625
	H293	H	-0.022965	1.041097	0.062405
	O294	O	0.012408	1.044364	-0.027592
	H295	H	0.015374	1.056943	-0.021898
	H296	H	0.020893	1.034050	-0.031557
	O297	O	0.463271	0.455228	0.514979
	H298	H	0.465250	0.445456	0.515965
	H299	H	0.454224	0.455524	0.512398
	O300	O	0.442417	0.433408	0.493192
	H301	H	0.444242	0.431158	0.487610
	H302	H	0.437548	0.439347	0.493923
	O303	O	0.999782	-0.022793	0.988770
	H304	H	0.997306	-0.035790	0.986734
	H305	H	1.011868	-0.017809	0.994473
	O306	O	-0.022876	0.964482	1.037503
	H307	H	-0.030274	0.962295	1.031741
	H308	H	-0.019694	0.960984	1.043302
	O309	O	0.024651	0.983352	1.018005
	H310	H	0.020584	0.987438	1.027849
	H311	H	0.030088	0.991628	1.010767
	O312	O	0.000283	-0.057291	1.031264
	H313	H	-0.004164	-0.052785	1.027691
	H314	H	0.001467	-0.069211	1.021728
	O315	O	0.548012	0.485536	0.468844
	H316	H	0.544636	0.491085	0.464875
	H317	H	0.549786	0.484617	0.475597
	O318	O	0.003192	0.034032	1.012015
	H319	H	0.015566	0.046724	1.015727
	H320	H	-0.001617	0.042796	1.002785
	O321	O	0.483309	0.440661	0.576626
	H322	H	0.485389	0.440131	0.583667
	H323	H	0.486600	0.431184	0.574307
	O324	O	1.000269	0.027451	0.987825
	H325	H	1.001498	0.026236	0.987070
	H326	H	0.994106	0.028162	0.989429
	O327	O	1.002831	1.040236	0.983912
	H328	H	1.008018	1.046229	0.979711
	H329	H	0.998318	1.042332	0.993417
	O330	O	0.437616	0.541543	0.485084
	H331	H	0.430756	0.531794	0.499413
	H332	H	0.430273	0.536778	0.479892
	O333	O	0.498200	0.498223	0.488342
	H334	H	0.503552	0.501401	0.484631
	H335	H	0.495886	0.496173	0.488347
	O336	O	0.425391	0.437248	0.475437
	H337	H	0.422599	0.437100	0.465956
	H338	H	0.416599	0.433216	0.476843
	O339	O	0.514811	0.484729	0.449199
	H340	H	0.517340	0.474389	0.446787
	H341	H	0.513588	0.485044	0.442133
	O342	O	0.551030	0.532132	0.510002
	H343	H	0.551474	0.532856	0.523409
	H344	H	0.553108	0.537133	0.516237
	O345	O	0.493027	0.473643	0.506677
	H346	H	0.502713	0.475885	0.503875
	H347	H	0.498152	0.476013	0.507175
