data_Molecule from HDF5

_cell_length_a		16.242932
_cell_length_b		16.301583
_cell_length_c		16.239513
_cell_angle_alpha	89.977014
_cell_angle_beta	90.020747
_cell_angle_gamma	90.118377
_symmetry_space_group_name_H-M	'P 1'
_symmetry_Int_Tables_number		1

loop_
	_symmetry_equiv_pos_as_xyz
	x,y,z

loop_
	_atom_site_label
	_atom_site_type_symbol
	_atom_site_fract_x
	_atom_site_fract_y
	_atom_site_fract_z
	H0	H	0.407923	0.826520	0.713781
	H1	H	0.606172	0.153455	0.714245
	H2	H	0.604513	0.826641	0.284623
	H3	H	0.408252	0.153532	0.283708
	H4	H	0.719725	0.391868	0.835294
	H5	H	0.721070	0.588308	0.163667
	H6	H	0.292927	0.587858	0.834678
	H7	H	0.292390	0.391210	0.163385
	H8	H	0.842759	0.703760	0.398304
	H9	H	0.171243	0.703588	0.596103
	H10	H	0.842810	0.275560	0.597529
	H11	H	0.170792	0.275251	0.400138
	H12	H	0.842771	0.391267	0.713002
	H13	H	0.171461	0.587234	0.711672
	H14	H	0.842726	0.586434	0.284745
	H15	H	0.171731	0.392879	0.286003
	H16	H	0.406865	0.705059	0.835800
	H17	H	0.607323	0.705958	0.162710
	H18	H	0.605113	0.275757	0.835555
	H19	H	0.408024	0.275322	0.163514
	H20	H	0.720837	0.825423	0.400916
	H21	H	0.723637	0.152638	0.599344
	H22	H	0.291215	0.826177	0.598391
	H23	H	0.292198	0.153772	0.400897
	H24	H	0.908160	0.325901	0.213335
	H25	H	0.104520	0.653834	0.212314
	H26	H	0.104898	0.325881	0.784755
	H27	H	0.910010	0.653693	0.785208
	H28	H	0.220823	0.891336	0.334498
	H29	H	0.220141	0.086653	0.662780
	H30	H	0.793951	0.086969	0.335143
	H31	H	0.791841	0.889082	0.662429
	H32	H	0.342340	0.202850	0.901894
	H33	H	0.670372	0.205262	0.098831
	H34	H	0.342238	0.774290	0.098649
	H35	H	0.670423	0.775460	0.899483
	H36	H	0.342512	0.890776	0.214170
	H37	H	0.671122	0.088955	0.213582
	H38	H	0.342481	0.087494	0.785664
	H39	H	0.670410	0.892108	0.784766
	H40	H	0.907315	0.204143	0.335972
	H41	H	0.107063	0.204505	0.662218
	H42	H	0.105549	0.775573	0.334012
	H43	H	0.908257	0.774355	0.662274
	H44	H	0.219500	0.325272	0.901730
	H45	H	0.222094	0.653677	0.097351
	H46	H	0.792610	0.325705	0.096935
	H47	H	0.792757	0.653519	0.899978
	H48	H	0.406530	0.107834	0.590562
	H49	H	0.590736	0.876948	0.589088
	H50	H	0.604432	0.105726	0.411639
	H51	H	0.418742	0.876763	0.413517
	H52	H	0.595127	0.398504	0.114613
	H53	H	0.597649	0.574209	0.886221
	H54	H	0.404582	0.582432	0.119064
	H55	H	0.413542	0.386220	0.879485
	H56	H	0.123683	0.586861	0.410672
	H57	H	0.887412	0.582640	0.599820
	H58	H	0.126605	0.388198	0.593182
	H59	H	0.886978	0.394022	0.395182
	H60	H	0.120752	0.398521	0.583176
	H61	H	0.889633	0.588797	0.585348
	H62	H	0.122286	0.577346	0.405192
	H63	H	0.889820	0.388674	0.413126
	H64	H	0.418565	0.573055	0.112213
	H65	H	0.592594	0.590322	0.882088
	H66	H	0.599532	0.392486	0.117623
	H67	H	0.404428	0.400746	0.880923
	H68	H	0.604126	0.108910	0.400836
	H69	H	0.606864	0.873648	0.585853
	H70	H	0.415537	0.107887	0.598865
	H71	H	0.405045	0.872054	0.407689
	H72	H	0.911495	0.608370	0.096504
	H73	H	0.097523	0.370104	0.104390
	H74	H	0.115827	0.610976	0.903957
	H75	H	0.907409	0.372702	0.909321
	H76	H	0.096682	0.898828	0.613379
	H77	H	0.093935	0.082792	0.383215
	H78	H	0.924163	0.080968	0.613093
	H79	H	0.911295	0.905396	0.383622
	H80	H	0.627140	0.092707	0.903373
	H81	H	0.390381	0.086139	0.087703
	H82	H	0.620335	0.896235	0.080918
	H83	H	0.389025	0.904371	0.899399
	H84	H	0.621616	0.906061	0.096596
	H85	H	0.391927	0.077360	0.090681
	H86	H	0.621363	0.082764	0.915623
	H87	H	0.386621	0.886779	0.904906
	H88	H	0.911729	0.090409	0.619425
	H89	H	0.101804	0.088819	0.379619
	H90	H	0.097566	0.890912	0.615607
	H91	H	0.922780	0.892257	0.382862
	H92	H	0.090868	0.606832	0.892220
	H93	H	0.091431	0.377558	0.084161
	H94	H	0.919255	0.604080	0.092745
	H95	H	0.913231	0.371524	0.898531
	H96	H	0.417418	0.103337	0.587642
	H97	H	0.600741	0.871550	0.600547
	H98	H	0.595648	0.104045	0.405622
	H99	H	0.417768	0.872670	0.397663
	H100	H	0.603706	0.399544	0.117028
	H101	H	0.609218	0.584918	0.879034
	H102	H	0.420789	0.590247	0.116089
	H103	H	0.421026	0.400696	0.885968
	H104	H	0.126243	0.586756	0.399706
	H105	H	0.893492	0.574086	0.588145
	H106	H	0.124527	0.403102	0.597991
	H107	H	0.893527	0.405918	0.408252
	H108	H	0.911715	0.605593	0.087101
	H109	H	0.112528	0.371654	0.087968
	H110	H	0.094891	0.600359	0.919743
	H111	H	0.918620	0.375673	0.909047
	H112	H	0.104323	0.896168	0.616735
	H113	H	0.103108	0.078546	0.381570
	H114	H	0.908521	0.073939	0.616520
	H115	H	0.906413	0.889746	0.377558
	H116	H	0.623414	0.076144	0.899944
	H117	H	0.388106	0.083983	0.097233
	H118	H	0.627017	0.887999	0.096628
	H119	H	0.393420	0.898605	0.916851
	C120	C	0.384486	-0.001800	0.620902
	C121	C	0.628663	0.981540	0.620834
	C122	C	0.629120	-0.001884	0.377611
	C123	C	0.385069	0.982063	0.377450
	C124	C	0.627935	0.368091	0.008051
	C125	C	0.628584	0.611876	0.991077
	C126	C	0.385916	0.610827	0.007463
	C127	C	0.384898	0.367852	0.990687
	C128	C	0.015215	0.611217	0.376632
	C129	C	0.998821	0.610590	0.619525
	C130	C	0.015499	0.367919	0.620218
	C131	C	0.998539	0.368072	0.377414
	C132	C	0.885448	0.497715	0.120431
	C133	C	0.128937	0.481546	0.120578
	C134	C	0.128746	0.497936	0.877006
	C135	C	0.884829	0.481627	0.877102
	C136	C	0.128332	0.867343	0.506959
	C137	C	0.127984	0.111409	0.490121
	C138	C	0.885678	0.110377	0.508100
	C139	C	0.885028	0.867274	0.489881
	C140	C	0.515134	0.111680	0.878157
	C141	C	0.498506	0.111318	0.120670
	C142	C	0.514623	0.867690	0.120551
	C143	C	0.498093	0.868096	0.877854
	C144	C	0.387048	0.875315	0.676047
	C145	C	0.626641	0.104594	0.676277
	C146	C	0.625894	0.875104	0.322344
	C147	C	0.387983	0.104799	0.322184
	C148	C	0.682402	0.371021	0.884317
	C149	C	0.683822	0.609069	0.114439
	C150	C	0.330692	0.608405	0.883878
	C151	C	0.330522	0.371105	0.114452
	C152	C	0.891787	0.665895	0.378504
	C153	C	0.122221	0.665829	0.616629
	C154	C	0.891703	0.313191	0.617592
	C155	C	0.121951	0.313102	0.379801
	C156	C	0.891748	0.370718	0.675043
	C157	C	0.122377	0.607968	0.674135
	C158	C	0.891543	0.607694	0.322257
	C159	C	0.122567	0.371574	0.323124
	C160	C	0.387010	0.666718	0.884427
	C161	C	0.627141	0.667531	0.114038
	C162	C	0.625490	0.313285	0.884650
	C163	C	0.387422	0.313089	0.114426
	C164	C	0.683451	0.874677	0.380270
	C165	C	0.684660	0.104385	0.618924
	C166	C	0.329275	0.875092	0.618403
	C167	C	0.330301	0.104946	0.380299
	C168	C	0.887953	0.374640	0.175303
	C169	C	0.125636	0.605040	0.174863
	C170	C	0.125683	0.374686	0.822289
	C171	C	0.888265	0.604532	0.821979
	C172	C	0.183170	0.870532	0.383406
	C173	C	0.182956	0.108107	0.613637
	C174	C	0.830854	0.108037	0.384432
	C175	C	0.830006	0.869323	0.613532
	C176	C	0.391554	0.165798	0.881054
	C177	C	0.621836	0.166985	0.118822
	C178	C	0.391273	0.812409	0.119032
	C179	C	0.621351	0.813109	0.879666
	C180	C	0.391429	0.870294	0.176253
	C181	C	0.622161	0.109071	0.175592
	C182	C	0.391366	0.108131	0.823665
	C183	C	0.621575	0.871163	0.822616
	C184	C	0.887401	0.165959	0.384835
	C185	C	0.126822	0.166629	0.613324
	C186	C	0.126044	0.813001	0.383243
	C187	C	0.887716	0.812108	0.613404
	C188	C	0.183008	0.374675	0.880054
	C189	C	0.183840	0.604838	0.117743
	C190	C	0.830463	0.374625	0.117425
	C191	C	0.830244	0.604546	0.879412
	C192	C	0.406573	0.084314	0.598890
	C193	C	0.606023	0.896175	0.598541
	C194	C	0.607744	0.083999	0.399633
	C195	C	0.407338	0.895976	0.399745
	C196	C	0.605755	0.390105	0.094150
	C197	C	0.606358	0.589769	0.904819
	C198	C	0.408192	0.588696	0.093562
	C199	C	0.406611	0.389441	0.904289
	C200	C	0.101563	0.589895	0.398583
	C201	C	0.912470	0.588355	0.597552
	C202	C	0.101584	0.390011	0.598071
	C203	C	0.912577	0.389766	0.399097
	C204	C	0.907705	0.583650	0.098627
	C205	C	0.106854	0.395516	0.098839
	C206	C	0.106863	0.583979	0.898799
	C207	C	0.906694	0.395524	0.899160
	C208	C	0.106048	0.888844	0.593153
	C209	C	0.106089	0.089853	0.403795
	C210	C	0.908037	0.088124	0.594050
	C211	C	0.906999	0.889430	0.403780
	C212	C	0.601590	0.090231	0.899876
	C213	C	0.412522	0.089074	0.098540
	C214	C	0.600722	0.890093	0.098171
	C215	C	0.412043	0.890114	0.900287
	Zn216	Zn	0.506685	-0.010036	0.749554
	Zn217	Zn	0.507319	-0.010113	0.248786
	Zn218	Zn	0.756156	0.489749	-0.001090
	Zn219	Zn	0.257151	0.489963	-0.001394
	Zn220	Zn	0.006863	0.739221	0.497729
	Zn221	Zn	0.006738	0.239352	0.499364
	Zn222	Zn	0.007170	0.489447	0.748468
	Zn223	Zn	0.007295	0.489843	0.249011
	Zn224	Zn	0.506307	0.739346	-0.000685
	Zn225	Zn	0.506784	0.240003	-0.000406
	Zn226	Zn	0.757447	-0.010548	0.499413
	Zn227	Zn	0.255722	-0.010582	0.498556
	N228	N	0.420573	0.952842	0.677795
	N229	N	0.592476	0.027283	0.677679
	N230	N	0.592796	0.952754	0.320647
	N231	N	0.421624	0.027480	0.320803
	N232	N	0.684175	0.404394	0.961983
	N233	N	0.684771	0.575192	0.036818
	N234	N	0.329888	0.574208	0.961365
	N235	N	0.328780	0.404361	0.036469
	N236	N	0.969624	0.667983	0.411871
	N237	N	0.044214	0.667532	0.583367
	N238	N	0.969612	0.311351	0.584284
	N239	N	0.043949	0.310690	0.412666
	N240	N	0.969461	0.404127	0.676717
	N241	N	0.044697	0.574326	0.675883
	N242	N	0.969282	0.574440	0.320836
	N243	N	0.044867	0.404962	0.321273
	N244	N	0.420721	0.668142	0.962139
	N245	N	0.593682	0.669365	0.036208
	N246	N	0.592274	0.311633	0.962477
	N247	N	0.420815	0.311222	0.036638
	N248	N	0.685606	0.952152	0.413848
	N249	N	0.686138	0.026962	0.585276
	N250	N	0.327638	0.952615	0.584749
	N251	N	0.328425	0.027306	0.413819
	N252	N	0.921526	0.452160	0.177229
	N253	N	0.092208	0.527310	0.176827
	N254	N	0.092679	0.452469	0.820310
	N255	N	0.921352	0.526894	0.820442
	N256	N	0.184568	0.903811	0.461199
	N257	N	0.183934	0.074703	0.535945
	N258	N	0.829826	0.073804	0.461959
	N259	N	0.828158	0.902882	0.535728
	N260	N	0.469587	0.167957	0.914208
	N261	N	0.544054	0.168373	0.085054
	N262	N	0.468813	0.810626	0.085186
	N263	N	0.543529	0.811135	0.913158
	N264	N	0.469295	0.904124	0.177332
	N265	N	0.544567	0.075118	0.176858
	N266	N	0.469112	0.075121	0.821730
	N267	N	0.543984	0.904572	0.821261
	N268	N	0.920776	0.167450	0.462638
	N269	N	0.093130	0.168658	0.535631
	N270	N	0.092732	0.810829	0.461047
	N271	N	0.921110	0.810629	0.535544
	N272	N	0.185053	0.452201	0.913392
	N273	N	0.186076	0.527095	0.084837
	N274	N	0.828673	0.452179	0.084165
	N275	N	0.827930	0.527040	0.912866
	O276	O	0.986633	0.979074	0.035520
	H277	H	0.989241	0.976466	0.044389
	H278	H	0.990471	0.989794	0.033592
	O279	O	0.010955	-0.022671	-0.024636
	H280	H	0.010573	-0.022999	-0.023837
	H281	H	0.011425	-0.015203	-0.016885
	O282	O	0.050912	0.024180	0.998647
	H283	H	0.043252	0.024356	0.988262
	H284	H	0.052811	0.030818	0.998282
	O285	O	-0.038106	0.972295	-0.006977
	H286	H	-0.035744	0.969143	-0.021123
	H287	H	-0.036187	0.965688	-0.007165
	O288	O	0.493554	0.518079	0.481231
	H289	H	0.499207	0.519577	0.480838
	H290	H	0.486193	0.519048	0.476820
	O291	O	0.454560	0.563316	0.509150
	H292	H	0.455490	0.552464	0.510994
	H293	H	0.443509	0.564896	0.511056
	O294	O	-0.445374	0.561978	0.508828
	H295	H	-0.446618	0.558624	0.507346
	H296	H	-0.446205	0.560199	0.512614
	O297	O	0.516395	0.564212	0.487035
	H298	H	0.513583	0.558770	0.476050
	H299	H	0.521105	0.567911	0.482572
	O300	O	0.026647	0.935061	0.951535
	H301	H	0.027267	0.933415	0.955739
	H302	H	0.026891	0.929739	0.955863
	O303	O	0.506372	0.540921	0.499755
	H304	H	0.505151	0.549604	0.501907
	H305	H	0.510444	0.546746	0.512201
	O306	O	0.547371	-0.448795	1.541603
	H307	H	0.552624	-0.442317	1.546691
	H308	H	0.544415	-0.445701	1.540978
	O309	O	0.952417	1.009392	1.035962
	H310	H	0.947672	1.000565	1.033227
	H311	H	0.951097	1.001274	1.037823
	O312	O	0.041782	0.978792	0.020356
	H313	H	0.034702	0.981858	0.021288
	H314	H	0.037963	0.980426	0.028626
	O315	O	0.499168	0.547216	0.561615
	H316	H	0.506380	0.536444	0.564257
	H317	H	0.494500	0.555498	0.570201
	O318	O	0.009060	1.015717	0.004980
	H319	H	0.012465	1.017843	0.006196
	H320	H	0.008549	1.022426	0.012090
	O321	O	1.013713	0.979029	0.001896
	H322	H	1.022473	0.971919	-0.000544
	H323	H	1.007436	0.973395	0.001691
