data_Molecule from HDF5

_cell_length_a		16.251501
_cell_length_b		16.303741
_cell_length_c		16.258579
_cell_angle_alpha	89.936103
_cell_angle_beta	90.067036
_cell_angle_gamma	89.992647
_symmetry_space_group_name_H-M	'P 1'
_symmetry_Int_Tables_number		1

loop_
	_symmetry_equiv_pos_as_xyz
	x,y,z

loop_
	_atom_site_label
	_atom_site_type_symbol
	_atom_site_fract_x
	_atom_site_fract_y
	_atom_site_fract_z
	H0	H	0.407832	0.843921	0.720615
	H1	H	0.605634	0.170759	0.720788
	H2	H	0.606900	0.844579	0.290398
	H3	H	0.408006	0.171947	0.292518
	H4	H	0.719267	0.410370	0.841509
	H5	H	0.719722	0.605756	0.169881
	H6	H	0.291128	0.605531	0.841387
	H7	H	0.292336	0.409498	0.169656
	H8	H	0.841480	0.722121	0.407615
	H9	H	0.168539	0.721912	0.605929
	H10	H	0.842741	0.292230	0.604224
	H11	H	0.170027	0.293177	0.407412
	H12	H	0.841776	0.408164	0.719333
	H13	H	0.168885	0.605442	0.720731
	H14	H	0.841267	0.605837	0.291889
	H15	H	0.169158	0.409298	0.292226
	H16	H	0.406057	0.723111	0.841753
	H17	H	0.604576	0.721849	0.169992
	H18	H	0.604469	0.292690	0.842440
	H19	H	0.407520	0.292767	0.169419
	H20	H	0.720593	0.844332	0.408227
	H21	H	0.721064	0.170720	0.605237
	H22	H	0.291197	0.844285	0.606405
	H23	H	0.290577	0.170603	0.406672
	H24	H	0.906713	0.343375	0.220024
	H25	H	0.105155	0.670392	0.221887
	H26	H	0.103248	0.343863	0.792974
	H27	H	0.905819	0.670024	0.790477
	H28	H	0.220859	0.909391	0.342314
	H29	H	0.220261	0.104797	0.669925
	H30	H	0.792654	0.105660	0.342792
	H31	H	0.792545	0.908506	0.670002
	H32	H	0.342022	0.222970	0.906091
	H33	H	0.668846	0.222512	0.104047
	H34	H	0.341559	0.792248	0.105766
	H35	H	0.668926	0.792413	0.907483
	H36	H	0.341948	0.909062	0.221529
	H37	H	0.670520	0.106601	0.219005
	H38	H	0.342495	0.106157	0.791134
	H39	H	0.670301	0.909650	0.792876
	H40	H	0.907804	0.221638	0.342362
	H41	H	0.105446	0.222056	0.669814
	H42	H	0.104888	0.792227	0.342208
	H43	H	0.907105	0.791664	0.669552
	H44	H	0.219219	0.344262	0.908982
	H45	H	0.219449	0.671489	0.103343
	H46	H	0.791651	0.344039	0.103264
	H47	H	0.791156	0.670751	0.906995
	H48	H	0.408377	0.127895	0.608237
	H49	H	0.600230	0.891960	0.596424
	H50	H	0.599609	0.127697	0.399830
	H51	H	0.416962	0.892776	0.414106
	H52	H	0.596805	0.415947	0.121891
	H53	H	0.600112	0.602930	0.888170
	H54	H	0.403284	0.597988	0.124197
	H55	H	0.411113	0.404771	0.885299
	H56	H	0.119873	0.594189	0.411723
	H57	H	0.888587	0.601242	0.596139
	H58	H	0.122992	0.413207	0.598485
	H59	H	0.888656	0.411504	0.416215
	H60	H	0.121822	0.416260	0.599223
	H61	H	0.889359	0.596967	0.597759
	H62	H	0.124530	0.603908	0.408147
	H63	H	0.889208	0.416378	0.411606
	H64	H	0.419242	0.594460	0.118178
	H65	H	0.599066	0.598234	0.889198
	H66	H	0.598048	0.413635	0.123223
	H67	H	0.404347	0.419959	0.887730
	H68	H	0.590304	0.119677	0.418580
	H69	H	0.602890	0.889522	0.602036
	H70	H	0.424355	0.120658	0.598921
	H71	H	0.414084	0.892445	0.415944
	H72	H	0.912900	0.623394	0.098401
	H73	H	0.093693	0.392920	0.098558
	H74	H	0.100967	0.624753	0.913348
	H75	H	0.911807	0.390663	0.913473
	H76	H	0.095377	0.912783	0.621646
	H77	H	0.088162	0.099359	0.392709
	H78	H	0.919076	0.107392	0.623917
	H79	H	0.914448	0.917609	0.390896
	H80	H	0.618618	0.094239	0.918233
	H81	H	0.390074	0.095735	0.099959
	H82	H	0.623949	0.911900	0.101555
	H83	H	0.391214	0.914090	0.920953
	H84	H	0.620435	0.913870	0.094125
	H85	H	0.386697	0.103718	0.103069
	H86	H	0.624695	0.099266	0.903890
	H87	H	0.390210	0.922260	0.909758
	H88	H	0.906476	0.101913	0.625863
	H89	H	0.102287	0.110289	0.385655
	H90	H	0.100348	0.910699	0.623943
	H91	H	0.915711	0.911753	0.389331
	H92	H	0.096937	0.624842	0.909537
	H93	H	0.103696	0.390826	0.095088
	H94	H	0.912544	0.624448	0.099819
	H95	H	0.910802	0.390090	0.912519
	H96	H	0.407445	0.122790	0.588913
	H97	H	0.596242	0.891155	0.602068
	H98	H	0.611679	0.126065	0.418774
	H99	H	0.413621	0.891469	0.412370
	H100	H	0.600270	0.415904	0.122298
	H101	H	0.595447	0.601716	0.889653
	H102	H	0.416240	0.609673	0.123521
	H103	H	0.420487	0.417167	0.892239
	H104	H	0.120921	0.602807	0.419507
	H105	H	0.888100	0.599733	0.600611
	H106	H	0.123334	0.414875	0.600883
	H107	H	0.887010	0.410543	0.410131
	H108	H	0.914870	0.623191	0.099041
	H109	H	0.100900	0.389789	0.105339
	H110	H	0.095746	0.621980	0.914399
	H111	H	0.912139	0.390426	0.911743
	H112	H	0.100521	0.916176	0.622983
	H113	H	0.106121	0.091555	0.389483
	H114	H	0.917184	0.094141	0.620606
	H115	H	0.910279	0.914494	0.388419
	H116	H	0.624497	0.109645	0.917181
	H117	H	0.389146	0.103101	0.094981
	H118	H	0.620373	0.919112	0.099592
	H119	H	0.385985	0.909453	0.908846
	C120	C	0.384834	0.015748	0.627805
	C121	C	0.628317	0.998848	0.628332
	C122	C	0.628575	0.016147	0.383728
	C123	C	0.385442	0.999961	0.385123
	C124	C	0.626994	0.386678	0.014326
	C125	C	0.627100	0.629871	0.997346
	C126	C	0.384152	0.629139	0.013613
	C127	C	0.383907	0.385915	0.997016
	C128	C	0.013302	0.628834	0.384635
	C129	C	0.996666	0.628251	0.627643
	C130	C	0.014536	0.385750	0.627713
	C131	C	0.997159	0.385391	0.384665
	C132	C	0.884265	0.515690	0.127485
	C133	C	0.128014	0.499139	0.128370
	C134	C	0.126608	0.516104	0.884420
	C135	C	0.883636	0.498666	0.884397
	C136	C	0.127660	0.885052	0.514762
	C137	C	0.127616	0.129008	0.497627
	C138	C	0.885430	0.129411	0.514734
	C139	C	0.885075	0.885995	0.497702
	C140	C	0.514337	0.129735	0.884043
	C141	C	0.497201	0.129514	0.127806
	C142	C	0.513995	0.885951	0.127754
	C143	C	0.497059	0.886468	0.884387
	C144	C	0.387223	0.892862	0.683155
	C145	C	0.625508	0.122049	0.682692
	C146	C	0.626599	0.893533	0.328345
	C147	C	0.387511	0.122952	0.330062
	C148	C	0.681560	0.389855	0.890553
	C149	C	0.682340	0.626823	0.120742
	C150	C	0.328717	0.626586	0.890577
	C151	C	0.329756	0.388875	0.120734
	C152	C	0.890342	0.684470	0.386765
	C153	C	0.119677	0.683838	0.625773
	C154	C	0.891430	0.330260	0.624847
	C155	C	0.120838	0.331158	0.387353
	C156	C	0.890856	0.388035	0.681822
	C157	C	0.119896	0.626131	0.683047
	C158	C	0.890231	0.626351	0.329569
	C159	C	0.120390	0.388749	0.330137
	C160	C	0.386332	0.684514	0.890583
	C161	C	0.624778	0.684329	0.120796
	C162	C	0.624524	0.331393	0.890961
	C163	C	0.387100	0.331091	0.120725
	C164	C	0.683133	0.893178	0.387131
	C165	C	0.683568	0.121872	0.625727
	C166	C	0.329342	0.893019	0.626160
	C167	C	0.329102	0.122140	0.386921
	C168	C	0.886798	0.392383	0.181901
	C169	C	0.125444	0.621712	0.183641
	C170	C	0.124234	0.392829	0.830062
	C171	C	0.885668	0.621528	0.828499
	C172	C	0.182994	0.888367	0.391256
	C173	C	0.182525	0.125589	0.621107
	C174	C	0.830362	0.126327	0.391537
	C175	C	0.830244	0.888057	0.621070
	C176	C	0.391063	0.184970	0.886163
	C177	C	0.620415	0.184548	0.124858
	C178	C	0.390448	0.830543	0.125900
	C179	C	0.620534	0.831005	0.887072
	C180	C	0.390602	0.888595	0.183309
	C181	C	0.621020	0.126730	0.181897
	C182	C	0.391426	0.127280	0.828610
	C183	C	0.621167	0.889191	0.830402
	C184	C	0.887641	0.184049	0.391439
	C185	C	0.126227	0.184469	0.620726
	C186	C	0.125519	0.830165	0.391104
	C187	C	0.887120	0.830043	0.620858
	C188	C	0.181460	0.392912	0.888094
	C189	C	0.182571	0.622275	0.124967
	C190	C	0.829291	0.392694	0.124218
	C191	C	0.828669	0.621834	0.886482
	C192	C	0.407091	0.101480	0.605390
	C193	C	0.606291	0.913036	0.606403
	C194	C	0.606758	0.102385	0.405847
	C195	C	0.408382	0.914407	0.407542
	C196	C	0.604813	0.408656	0.100152
	C197	C	0.604668	0.607663	0.911242
	C198	C	0.406480	0.607242	0.099818
	C199	C	0.405445	0.407652	0.910795
	C200	C	0.099603	0.606781	0.406772
	C201	C	0.910943	0.605895	0.604800
	C202	C	0.100632	0.408041	0.605888
	C203	C	0.910501	0.406683	0.406281
	C204	C	0.906782	0.601550	0.105663
	C205	C	0.106022	0.413281	0.106180
	C206	C	0.104536	0.601855	0.906142
	C207	C	0.905159	0.412747	0.906160
	C208	C	0.105282	0.906667	0.600618
	C209	C	0.105402	0.106904	0.411433
	C210	C	0.907651	0.107400	0.601037
	C211	C	0.907026	0.908142	0.411939
	C212	C	0.600521	0.107684	0.906511
	C213	C	0.410846	0.107173	0.105886
	C214	C	0.599432	0.908281	0.105097
	C215	C	0.411401	0.908873	0.906507
	Zn216	Zn	0.506254	0.007579	0.756205
	Zn217	Zn	0.506347	0.008018	0.255742
	Zn218	Zn	0.755434	0.508079	0.006035
	Zn219	Zn	0.256037	0.507500	0.005362
	Zn220	Zn	0.005281	0.757184	0.505972
	Zn221	Zn	0.006537	0.257849	0.506091
	Zn222	Zn	0.005063	0.506814	0.755938
	Zn223	Zn	0.005019	0.507068	0.256414
	Zn224	Zn	0.505485	0.758109	0.005711
	Zn225	Zn	0.505679	0.257505	0.005984
	Zn226	Zn	0.756725	0.007856	0.506296
	Zn227	Zn	0.256136	0.007312	0.506338
	N228	N	0.420961	0.970243	0.684329
	N229	N	0.591887	0.044537	0.684493
	N230	N	0.593481	0.971186	0.326266
	N231	N	0.421918	0.045928	0.328800
	N232	N	0.683232	0.423413	0.968173
	N233	N	0.683827	0.593500	0.042961
	N234	N	0.327355	0.592949	0.968108
	N235	N	0.327692	0.422075	0.042891
	N236	N	0.968085	0.686077	0.420194
	N237	N	0.042167	0.685240	0.591705
	N238	N	0.969280	0.328868	0.591851
	N239	N	0.042996	0.329080	0.420487
	N240	N	0.968330	0.421899	0.683724
	N241	N	0.042484	0.592194	0.684135
	N242	N	0.967810	0.592615	0.328216
	N243	N	0.042466	0.421792	0.328487
	N244	N	0.420083	0.686057	0.968330
	N245	N	0.591335	0.686449	0.043019
	N246	N	0.591342	0.329233	0.968740
	N247	N	0.420055	0.328925	0.042836
	N248	N	0.684435	0.970557	0.420776
	N249	N	0.685156	0.044433	0.592327
	N250	N	0.327662	0.970344	0.592384
	N251	N	0.327707	0.044554	0.420432
	N252	N	0.920226	0.469837	0.183973
	N253	N	0.092239	0.544092	0.185851
	N254	N	0.090683	0.470321	0.827884
	N255	N	0.919298	0.544036	0.827215
	N256	N	0.184475	0.921488	0.469039
	N257	N	0.183594	0.091969	0.543493
	N258	N	0.828920	0.092854	0.469327
	N259	N	0.828874	0.922264	0.543804
	N260	N	0.468778	0.186463	0.919954
	N261	N	0.542571	0.186162	0.091656
	N262	N	0.468090	0.828887	0.092110
	N263	N	0.542698	0.829309	0.919902
	N264	N	0.468122	0.922343	0.184553
	N265	N	0.543170	0.093253	0.183717
	N266	N	0.468916	0.093475	0.827526
	N267	N	0.543468	0.923057	0.828495
	N268	N	0.921172	0.185887	0.469079
	N269	N	0.092719	0.186547	0.542890
	N270	N	0.091901	0.827801	0.468681
	N271	N	0.920294	0.828465	0.542997
	N272	N	0.182928	0.470459	0.921183
	N273	N	0.184130	0.544901	0.091307
	N274	N	0.827593	0.470387	0.091076
	N275	N	0.827306	0.544601	0.920524
	O276	O	0.490634	0.584791	0.515024
	H277	H	0.481771	0.587361	0.517408
	H278	H	0.497362	0.583164	0.509169
	O279	O	-0.099642	-0.042345	0.036462
	H280	H	-0.086024	-0.050963	0.042224
	H281	H	-0.110121	-0.049383	0.028400
	O282	O	0.511867	0.550139	0.494431
	H283	H	0.508366	0.540279	0.494940
	H284	H	0.514162	0.550721	0.492596
	O285	O	0.470093	0.601328	0.394303
	H286	H	0.470682	0.610861	0.389598
	H287	H	0.470244	0.604016	0.398024
	O288	O	0.922538	-0.088728	0.046357
	H289	H	0.916655	-0.092411	0.046139
	H290	H	0.929133	-0.091796	0.052759
	O291	O	-0.534393	0.577392	-0.565091
	H292	H	-0.540559	0.586551	-0.576935
	H293	H	-0.536160	0.579560	-0.573372
	O294	O	0.467211	0.556963	0.471945
	H295	H	0.467734	0.554952	0.475026
	H296	H	0.448171	0.556899	0.469978
	O297	O	-0.098965	0.940052	0.047470
	H298	H	-0.100706	0.950228	0.047124
	H299	H	-0.102361	0.942523	0.047819
	O300	O	1.470520	-0.466310	0.561582
	H301	H	1.474096	-0.465423	0.563757
	H302	H	1.467965	-0.462065	0.561764
	O303	O	0.489935	0.564712	0.466087
	H304	H	0.491687	0.564392	0.472510
	H305	H	0.498942	0.561944	0.475096
	O306	O	-0.083036	0.959993	1.075191
	H307	H	-0.090727	0.960414	1.073289
	H308	H	-0.084840	0.960624	1.081526
	O309	O	0.463115	0.491156	0.498579
	H310	H	0.459591	0.485661	0.495934
	H311	H	0.466828	0.491336	0.493218
