data_Molecule from HDF5

_cell_length_a		16.175582
_cell_length_b		16.100789
_cell_length_c		16.496050
_cell_angle_alpha	89.550330
_cell_angle_beta	89.854784
_cell_angle_gamma	90.110160
_symmetry_space_group_name_H-M	'P 1'
_symmetry_Int_Tables_number		1

loop_
	_symmetry_equiv_pos_as_xyz
	x,y,z

loop_
	_atom_site_label
	_atom_site_type_symbol
	_atom_site_fract_x
	_atom_site_fract_y
	_atom_site_fract_z
	H0	H	0.393006	0.838890	0.721168
	H1	H	0.598423	0.166783	0.714974
	H2	H	0.600401	0.838541	0.284061
	H3	H	0.394209	0.165606	0.284250
	H4	H	0.712781	0.401509	0.839100
	H5	H	0.713579	0.603035	0.160868
	H6	H	0.279547	0.602939	0.838867
	H7	H	0.277681	0.400739	0.161729
	H8	H	0.831044	0.714051	0.403940
	H9	H	0.161207	0.712401	0.595775
	H10	H	0.831033	0.286628	0.597690
	H11	H	0.161584	0.289287	0.403158
	H12	H	0.833207	0.394437	0.719676
	H13	H	0.157798	0.604321	0.717924
	H14	H	0.834148	0.606716	0.280971
	H15	H	0.158882	0.398504	0.281628
	H16	H	0.396891	0.720360	0.839125
	H17	H	0.596237	0.718047	0.161585
	H18	H	0.592605	0.288830	0.837496
	H19	H	0.394010	0.284253	0.161828
	H20	H	0.707775	0.835590	0.405343
	H21	H	0.710305	0.166924	0.596228
	H22	H	0.284389	0.835563	0.601069
	H23	H	0.284297	0.166051	0.404052
	H24	H	0.889179	0.338927	0.221527
	H25	H	0.098001	0.664907	0.214794
	H26	H	0.097360	0.337770	0.784929
	H27	H	0.891153	0.663745	0.781083
	H28	H	0.214788	0.900107	0.340716
	H29	H	0.213699	0.100110	0.662735
	H30	H	0.780089	0.103856	0.339615
	H31	H	0.778434	0.899353	0.661640
	H32	H	0.328861	0.212405	0.904262
	H33	H	0.660523	0.214651	0.093395
	H34	H	0.330724	0.787602	0.100843
	H35	H	0.660161	0.790270	0.903936
	H36	H	0.334655	0.896452	0.221871
	H37	H	0.658837	0.106757	0.217020
	H38	H	0.333181	0.107076	0.780944
	H39	H	0.657938	0.898889	0.782403
	H40	H	0.897905	0.219369	0.339327
	H41	H	0.097173	0.217727	0.662372
	H42	H	0.094888	0.788203	0.338483
	H43	H	0.896248	0.783464	0.662703
	H44	H	0.207317	0.336607	0.903660
	H45	H	0.206362	0.667318	0.095397
	H46	H	0.779421	0.336341	0.100686
	H47	H	0.783440	0.666725	0.901489
	H48	H	0.413807	0.117737	0.597365
	H49	H	0.602306	0.878805	0.598314
	H50	H	0.583774	0.118833	0.406477
	H51	H	0.403419	0.882482	0.410969
	H52	H	0.584992	0.411469	0.113017
	H53	H	0.588428	0.596551	0.885938
	H54	H	0.400418	0.597768	0.115986
	H55	H	0.402922	0.412174	0.886865
	H56	H	0.110160	0.588904	0.409821
	H57	H	0.874448	0.594503	0.601264
	H58	H	0.111809	0.413193	0.593486
	H59	H	0.877772	0.409377	0.405114
	H60	H	0.113634	0.411377	0.596586
	H61	H	0.879175	0.596560	0.584515
	H62	H	0.114916	0.589757	0.399681
	H63	H	0.880853	0.409107	0.414837
	H64	H	0.398775	0.592596	0.116072
	H65	H	0.589320	0.596212	0.885673
	H66	H	0.584273	0.407122	0.114000
	H67	H	0.402193	0.404059	0.884260
	H68	H	0.588937	0.119242	0.409132
	H69	H	0.574313	0.884590	0.607532
	H70	H	0.406976	0.116325	0.583664
	H71	H	0.406790	0.882857	0.405424
	H72	H	0.898748	0.619583	0.088599
	H73	H	0.088013	0.380447	0.101196
	H74	H	0.083504	0.618443	0.908343
	H75	H	0.896528	0.382207	0.911822
	H76	H	0.090745	0.913130	0.614033
	H77	H	0.091012	0.094780	0.386235
	H78	H	0.908313	0.099252	0.616299
	H79	H	0.902775	0.917279	0.388419
	H80	H	0.615680	0.098181	0.899184
	H81	H	0.378693	0.088543	0.096727
	H82	H	0.618771	0.898031	0.101187
	H83	H	0.379864	0.911212	0.914433
	H84	H	0.608136	0.911358	0.079271
	H85	H	0.376557	0.095202	0.097342
	H86	H	0.611801	0.099138	0.912809
	H87	H	0.381557	0.920119	0.909449
	H88	H	0.894145	0.092729	0.617543
	H89	H	0.089814	0.092186	0.388878
	H90	H	0.082037	0.903515	0.615275
	H91	H	0.910049	0.901630	0.385795
	H92	H	0.089122	0.620830	0.906399
	H93	H	0.076126	0.386835	0.092913
	H94	H	0.905889	0.620172	0.098592
	H95	H	0.907567	0.382364	0.902293
	H96	H	0.398763	0.122487	0.595262
	H97	H	0.581238	0.889978	0.579327
	H98	H	0.589416	0.120983	0.403242
	H99	H	0.409645	0.885323	0.411355
	H100	H	0.589095	0.409193	0.114329
	H101	H	0.588456	0.595659	0.886274
	H102	H	0.403755	0.593295	0.114518
	H103	H	0.395397	0.410378	0.883920
	H104	H	0.114717	0.599434	0.407331
	H105	H	0.881429	0.581270	0.592728
	H106	H	0.112677	0.409069	0.593009
	H107	H	0.881613	0.417366	0.408337
	H108	H	0.910899	0.615563	0.087870
	H109	H	0.090798	0.383670	0.085649
	H110	H	0.084216	0.620043	0.901595
	H111	H	0.909936	0.386846	0.915356
	H112	H	0.095080	0.902338	0.618675
	H113	H	0.088205	0.095382	0.387197
	H114	H	0.907514	0.084720	0.611604
	H115	H	0.892829	0.904286	0.382613
	H116	H	0.610316	0.086335	0.905855
	H117	H	0.378476	0.093034	0.091200
	H118	H	0.611569	0.925107	0.102977
	H119	H	0.376374	0.911336	0.904973
	C120	C	0.375715	0.010300	0.622829
	C121	C	0.616654	0.993369	0.622405
	C122	C	0.617681	0.010633	0.378316
	C123	C	0.376473	0.992402	0.380048
	C124	C	0.616295	0.380196	0.007697
	C125	C	0.618030	0.624813	0.992245
	C126	C	0.372234	0.624801	0.008993
	C127	C	0.371245	0.379355	0.991665
	C128	C	0.004862	0.622858	0.377477
	C129	C	0.987009	0.621193	0.621261
	C130	C	0.004607	0.379642	0.623381
	C131	C	0.988040	0.381564	0.379199
	C132	C	0.873709	0.510176	0.122211
	C133	C	0.115177	0.492564	0.121037
	C134	C	0.115825	0.510576	0.878022
	C135	C	0.874669	0.492520	0.879598
	C136	C	0.118960	0.878039	0.509381
	C137	C	0.119302	0.123255	0.493464
	C138	C	0.874426	0.123289	0.508971
	C139	C	0.873104	0.877938	0.492305
	C140	C	0.504045	0.123840	0.877649
	C141	C	0.486672	0.122593	0.121886
	C142	C	0.504590	0.880870	0.123793
	C143	C	0.486945	0.883016	0.879926
	C144	C	0.374504	0.887443	0.681535
	C145	C	0.617236	0.117434	0.676902
	C146	C	0.617961	0.887091	0.323209
	C147	C	0.375645	0.116150	0.323100
	C148	C	0.673601	0.382037	0.886918
	C149	C	0.674889	0.622763	0.112855
	C150	C	0.317384	0.623165	0.887219
	C151	C	0.315709	0.380652	0.113440
	C152	C	0.880885	0.678080	0.381458
	C153	C	0.111448	0.675826	0.617354
	C154	C	0.880771	0.323356	0.619623
	C155	C	0.111934	0.326286	0.382140
	C156	C	0.881776	0.377197	0.680184
	C157	C	0.109590	0.621881	0.678166
	C158	C	0.882459	0.624264	0.320553
	C159	C	0.110391	0.380092	0.321229
	C160	C	0.375791	0.681558	0.887309
	C161	C	0.616107	0.679982	0.113420
	C162	C	0.613953	0.325756	0.886118
	C163	C	0.373463	0.322594	0.113349
	C164	C	0.671378	0.885658	0.383511
	C165	C	0.672751	0.117660	0.617865
	C166	C	0.320727	0.885671	0.621607
	C167	C	0.320887	0.116529	0.382746
	C168	C	0.871491	0.387375	0.181241
	C169	C	0.115994	0.616061	0.176474
	C170	C	0.116070	0.386946	0.823131
	C171	C	0.873389	0.615143	0.820937
	C172	C	0.175683	0.880439	0.388395
	C173	C	0.175874	0.120670	0.614426
	C174	C	0.818509	0.123249	0.387782
	C175	C	0.817059	0.879357	0.613671
	C176	C	0.379248	0.177358	0.882085
	C177	C	0.611012	0.178057	0.116104
	C178	C	0.380797	0.824746	0.121486
	C179	C	0.610799	0.827135	0.882709
	C180	C	0.382408	0.879432	0.181662
	C181	C	0.610356	0.124066	0.177250
	C182	C	0.381380	0.124659	0.820640
	C183	C	0.609666	0.881476	0.822564
	C184	C	0.877382	0.180500	0.387488
	C185	C	0.117526	0.178987	0.614563
	C186	C	0.116382	0.824265	0.387495
	C187	C	0.875449	0.821501	0.614071
	C188	C	0.170865	0.386283	0.882124
	C189	C	0.170243	0.617314	0.117495
	C190	C	0.816633	0.386319	0.121319
	C191	C	0.820020	0.616878	0.881038
	C192	C	0.399441	0.096512	0.599061
	C193	C	0.592848	0.906989	0.601341
	C194	C	0.594466	0.097241	0.399971
	C195	C	0.399821	0.905825	0.402470
	C196	C	0.592861	0.402630	0.091978
	C197	C	0.595373	0.602678	0.907685
	C198	C	0.394326	0.601417	0.093570
	C199	C	0.393406	0.402257	0.907096
	C200	C	0.090969	0.599570	0.399256
	C201	C	0.900767	0.597881	0.599195
	C202	C	0.090608	0.404085	0.600988
	C203	C	0.902248	0.405098	0.402505
	C204	C	0.898043	0.596164	0.098622
	C205	C	0.091787	0.406108	0.099505
	C206	C	0.092392	0.597334	0.899264
	C207	C	0.897976	0.406012	0.903089
	C208	C	0.096076	0.899921	0.593866
	C209	C	0.096400	0.100726	0.409321
	C210	C	0.896788	0.099306	0.593247
	C211	C	0.895345	0.901065	0.407599
	C212	C	0.590252	0.101123	0.899569
	C213	C	0.400382	0.098939	0.101303
	C214	C	0.590616	0.904513	0.101065
	C215	C	0.401524	0.907087	0.902825
	Zn216	Zn	0.495778	0.002894	0.750577
	Zn217	Zn	0.496873	0.001748	0.251479
	Zn218	Zn	0.746841	0.501781	-0.000173
	Zn219	Zn	0.241887	0.502005	0.000490
	Zn220	Zn	-0.003597	0.749452	0.500333
	Zn221	Zn	-0.002885	0.253107	0.500914
	Zn222	Zn	-0.005466	0.500605	0.750829
	Zn223	Zn	-0.003934	0.501324	0.249467
	Zn224	Zn	0.495531	0.754830	0.000951
	Zn225	Zn	0.494028	0.250662	-0.000381
	Zn226	Zn	0.744057	0.001373	0.500311
	Zn227	Zn	0.248982	-0.000135	0.501685
	N228	N	0.407832	0.965994	0.682487
	N229	N	0.583284	0.039091	0.679873
	N230	N	0.585434	0.965988	0.319765
	N231	N	0.409659	0.037752	0.321377
	N232	N	0.675322	0.415058	0.963708
	N233	N	0.676284	0.589250	0.036394
	N234	N	0.314947	0.588758	0.963857
	N235	N	0.314077	0.415312	0.036907
	N236	N	0.958155	0.677508	0.416162
	N237	N	0.034259	0.675312	0.582457
	N238	N	0.958455	0.324425	0.585116
	N239	N	0.034733	0.326871	0.417364
	N240	N	0.959646	0.411483	0.682457
	N241	N	0.031198	0.588547	0.680738
	N242	N	0.960501	0.590584	0.318226
	N243	N	0.032156	0.413558	0.319316
	N244	N	0.409115	0.682822	0.963935
	N245	N	0.581506	0.681336	0.037351
	N246	N	0.579005	0.324572	0.962089
	N247	N	0.407185	0.321433	0.036803
	N248	N	0.671386	0.963683	0.417024
	N249	N	0.672548	0.039552	0.584521
	N250	N	0.321354	0.963106	0.585775
	N251	N	0.321413	0.038573	0.417555
	N252	N	0.906116	0.465486	0.182035
	N253	N	0.082612	0.537305	0.178985
	N254	N	0.082363	0.465323	0.820506
	N255	N	0.906726	0.536621	0.819892
	N256	N	0.177821	0.912738	0.465267
	N257	N	0.176958	0.086683	0.538126
	N258	N	0.816586	0.088229	0.464203
	N259	N	0.815484	0.913902	0.537048
	N260	N	0.456592	0.177120	0.916811
	N261	N	0.533328	0.177318	0.082386
	N262	N	0.457884	0.825565	0.086257
	N263	N	0.533633	0.828045	0.917899
	N264	N	0.460487	0.913453	0.183201
	N265	N	0.532161	0.090264	0.181061
	N266	N	0.459960	0.092201	0.817847
	N267	N	0.531728	0.915412	0.820633
	N268	N	0.911513	0.180806	0.463784
	N269	N	0.083285	0.180931	0.538502
	N270	N	0.081653	0.822673	0.463613
	N271	N	0.909545	0.820488	0.537704
	N272	N	0.170991	0.464259	0.915501
	N273	N	0.169941	0.539663	0.083833
	N274	N	0.817811	0.463728	0.085391
	N275	N	0.820795	0.539550	0.916897
	O276	O	1.051778	-0.157895	0.933957
	H277	H	1.053242	-0.164239	0.925823
	H278	H	1.045348	-0.155639	0.928852
	O279	O	0.579441	0.586202	0.545726
	H280	H	0.573400	0.575825	0.549575
	H281	H	0.574879	0.585113	0.536656
	O282	O	0.398780	0.506249	0.538812
	H283	H	0.392690	0.510092	0.539012
	H284	H	0.401131	0.510556	0.537520
	O285	O	0.451464	0.478277	0.456130
	H286	H	0.457662	0.475906	0.453665
	H287	H	0.455973	0.479190	0.449093
	O288	O	0.521264	0.488473	0.470946
	H289	H	0.525346	0.498457	0.477238
	H290	H	0.519023	0.490822	0.466364
	O291	O	0.075294	0.074044	1.085488
	H292	H	0.084152	0.066618	1.095732
	H293	H	0.080610	0.084702	1.096473
	O294	O	1.009344	1.065686	0.012038
	H295	H	1.006497	1.062562	0.000161
	H296	H	1.014268	1.058394	0.007716
	O297	O	0.920589	1.087251	-0.050710
	H298	H	0.928236	1.079129	-0.038822
	H299	H	0.923989	1.088727	-0.045207
	O300	O	0.564387	0.515420	0.557997
	H301	H	0.571960	0.513157	0.559313
	H302	H	0.567258	0.523584	0.555896
	O303	O	0.995125	-0.064365	1.047195
	H304	H	1.008675	-0.072554	1.033823
	H305	H	0.981912	-0.078433	1.053655
	O306	O	0.573739	0.405198	0.463858
	H307	H	0.565610	0.406427	0.469296
	H308	H	0.583370	0.405560	0.456423
	O309	O	0.410542	0.613901	0.407467
	H310	H	0.409094	0.604172	0.406934
	H311	H	0.410196	0.608743	0.407217
	O312	O	0.420151	1.558279	0.491861
	H313	H	0.420514	1.558987	0.491755
	H314	H	0.420299	1.550686	0.482302
	O315	O	1.079945	0.900232	0.038418
	H316	H	1.075001	0.889629	0.032934
	H317	H	1.083819	0.913725	0.039971
	O318	O	0.496174	0.573323	0.373353
	H319	H	0.508144	0.567853	0.382338
	H320	H	0.492572	0.585687	0.361699
	O321	O	0.526503	0.497651	0.556905
	H322	H	0.511993	0.511311	0.555258
	H323	H	0.519298	0.494560	0.559835
	O324	O	-0.052879	1.047563	0.896036
	H325	H	-0.057572	1.054707	0.892894
	H326	H	-0.054071	1.039471	0.892679
	O327	O	-0.036287	1.066233	0.943779
	H328	H	-0.042797	1.049987	0.950191
	H329	H	-0.028012	1.065529	0.933351
	O330	O	0.013150	-0.101409	0.006378
	H331	H	0.004112	-0.097374	0.008173
	H332	H	0.011108	-0.106502	0.009370
	O333	O	0.451096	0.472028	0.510318
	H334	H	0.454159	0.465259	0.512565
	H335	H	0.450449	0.462737	0.506749
	O336	O	-0.072398	0.044631	0.092380
	H337	H	-0.074985	0.043321	0.091372
	H338	H	-0.068860	0.049443	0.092400
	O339	O	-0.059920	0.063773	-0.130374
	H340	H	-0.061712	0.072258	-0.144686
	H341	H	-0.066025	0.064938	-0.127347
	O342	O	0.488284	0.507682	0.540031
	H343	H	0.490902	0.508889	0.544539
	H344	H	0.490712	0.507309	0.530089
	O345	O	0.119438	0.916392	1.012843
	H346	H	0.115358	0.916038	1.011830
	H347	H	0.116835	0.930958	1.001021
	O348	O	0.478579	0.368610	0.464311
	H349	H	0.480558	0.366603	0.467012
	H350	H	0.459773	0.373537	0.466021
	O351	O	0.452982	0.501535	0.354734
	H352	H	0.459808	0.511581	0.365270
	H353	H	0.449752	0.495074	0.353643
	O354	O	-0.108020	1.070436	0.054027
	H355	H	-0.122423	1.071110	0.043890
	H356	H	-0.108976	1.081589	0.051897
	O357	O	0.542860	0.544953	0.623756
	H358	H	0.551313	0.555712	0.619601
	H359	H	0.546778	0.549133	0.622744
	O360	O	0.934520	-0.072019	0.980302
	H361	H	0.924614	-0.051555	0.989880
	H362	H	0.932511	-0.078410	0.985127
	O363	O	0.421835	0.376850	0.564088
	H364	H	0.414613	0.369308	0.553043
	H365	H	0.425084	0.365880	0.577627
	O366	O	0.520965	0.484005	0.608773
	H367	H	0.515392	0.491761	0.611950
	H368	H	0.522812	0.494099	0.609048
	O369	O	1.087692	-0.018280	-0.117937
	H370	H	1.074467	-0.012308	-0.114334
	H371	H	1.085051	-0.009494	-0.126079
	O372	O	0.489273	0.585267	0.635683
	H373	H	0.488613	0.584486	0.629565
	H374	H	0.474074	0.581503	0.640370
	O375	O	0.898532	0.114924	0.958488
	H376	H	0.908504	0.126060	0.961090
	H377	H	0.905576	0.108369	0.955264
	O378	O	0.054697	1.117869	0.055790
	H379	H	0.060529	1.107266	0.073629
	H380	H	0.064466	1.126096	0.051747
	O381	O	0.555354	0.494489	0.406325
	H382	H	0.552408	0.489679	0.400678
	H383	H	0.559756	0.495817	0.398686
	O384	O	1.109832	1.086254	0.142994
	H385	H	1.114035	1.077078	0.151524
	H386	H	1.095237	1.076526	0.134288
	O387	O	0.911524	-0.113658	1.008607
	H388	H	0.915077	-0.107407	1.015555
	H389	H	0.911002	-0.117397	1.012400
	O390	O	0.908253	0.963140	0.059716
	H391	H	0.912222	0.956559	0.055087
	H392	H	0.900139	0.946215	0.053514
	O393	O	0.633739	0.498106	0.360005
	H394	H	0.628793	0.473262	0.361477
	H395	H	0.632320	0.503391	0.363676
