data_Molecule from HDF5

_cell_length_a		16.471738
_cell_length_b		16.391517
_cell_length_c		16.454499
_cell_angle_alpha	90.092013
_cell_angle_beta	89.930501
_cell_angle_gamma	89.936224
_symmetry_space_group_name_H-M	'P 1'
_symmetry_Int_Tables_number		1

loop_
	_symmetry_equiv_pos_as_xyz
	x,y,z

loop_
	_atom_site_label
	_atom_site_type_symbol
	_atom_site_fract_x
	_atom_site_fract_y
	_atom_site_fract_z
	H0	H	0.392430	0.829514	0.729100
	H1	H	0.614493	0.141056	0.728986
	H2	H	0.608614	0.827896	0.279029
	H3	H	0.391608	0.142334	0.277879
	H4	H	0.727722	0.376232	0.845424
	H5	H	0.727232	0.594618	0.159199
	H6	H	0.276266	0.597692	0.846331
	H7	H	0.275030	0.373675	0.156311
	H8	H	0.846306	0.708908	0.393178
	H9	H	0.158870	0.709159	0.609243
	H10	H	0.845810	0.260090	0.611105
	H11	H	0.157668	0.257041	0.391985
	H12	H	0.847390	0.374359	0.728649
	H13	H	0.158733	0.594607	0.727045
	H14	H	0.847168	0.593873	0.276650
	H15	H	0.157655	0.370719	0.274481
	H16	H	0.395079	0.710828	0.845666
	H17	H	0.613321	0.712325	0.157884
	H18	H	0.611279	0.260186	0.845239
	H19	H	0.393312	0.261258	0.158810
	H20	H	0.725184	0.827613	0.393808
	H21	H	0.729895	0.140129	0.613164
	H22	H	0.277310	0.828785	0.613086
	H23	H	0.277527	0.141871	0.394312
	H24	H	0.894909	0.326865	0.224937
	H25	H	0.114851	0.640191	0.229752
	H26	H	0.111536	0.327763	0.777599
	H27	H	0.894613	0.642493	0.779091
	H28	H	0.227985	0.875150	0.345721
	H29	H	0.226844	0.094323	0.658827
	H30	H	0.778264	0.093143	0.344940
	H31	H	0.775423	0.873755	0.656504
	H32	H	0.345361	0.207932	0.897505
	H33	H	0.660131	0.208817	0.111044
	H34	H	0.346569	0.760378	0.110587
	H35	H	0.658834	0.759843	0.891708
	H36	H	0.345048	0.877350	0.225683
	H37	H	0.659659	0.092509	0.226121
	H38	H	0.346568	0.096260	0.777584
	H39	H	0.658405	0.876193	0.776286
	H40	H	0.893232	0.208841	0.345279
	H41	H	0.109935	0.209453	0.659240
	H42	H	0.109837	0.761240	0.344812
	H43	H	0.893899	0.760284	0.658321
	H44	H	0.228440	0.329027	0.891309
	H45	H	0.227717	0.641215	0.111675
	H46	H	0.777998	0.328002	0.111139
	H47	H	0.779607	0.642729	0.894707
	H48	H	0.414266	0.095993	0.585154
	H49	H	0.585066	0.875203	0.588246
	H50	H	0.588655	0.097937	0.414913
	H51	H	0.412239	0.870360	0.412054
	H52	H	0.592852	0.397809	0.115174
	H53	H	0.587872	0.574071	0.890474
	H54	H	0.417637	0.572866	0.113624
	H55	H	0.416340	0.400542	0.891442
	H56	H	0.112719	0.570345	0.419600
	H57	H	0.891661	0.567191	0.590036
	H58	H	0.115345	0.395558	0.590177
	H59	H	0.889895	0.391419	0.417004
	H60	H	0.113417	0.397547	0.586581
	H61	H	0.888328	0.573640	0.594660
	H62	H	0.113771	0.567221	0.412872
	H63	H	0.893965	0.402531	0.417963
	H64	H	0.414131	0.570443	0.113583
	H65	H	0.594314	0.573401	0.888785
	H66	H	0.590015	0.400530	0.112737
	H67	H	0.418494	0.396396	0.890950
	H68	H	0.590195	0.097986	0.415460
	H69	H	0.589000	0.874482	0.585597
	H70	H	0.410971	0.099856	0.591380
	H71	H	0.420127	0.873602	0.413524
	H72	H	0.911104	0.599637	0.091820
	H73	H	0.085873	0.375851	0.082897
	H74	H	0.090048	0.598340	0.913647
	H75	H	0.918086	0.373405	0.915249
	H76	H	0.091522	0.896694	0.615046
	H77	H	0.090681	0.066955	0.391631
	H78	H	0.915286	0.074769	0.614961
	H79	H	0.913598	0.895672	0.388157
	H80	H	0.615476	0.072209	0.915612
	H81	H	0.386923	0.077040	0.096185
	H82	H	0.614242	0.903284	0.094199
	H83	H	0.394081	0.903479	0.919184
	H84	H	0.617429	0.894179	0.093298
	H85	H	0.391145	0.076884	0.084430
	H86	H	0.614907	0.071480	0.915023
	H87	H	0.389217	0.900015	0.910609
	H88	H	0.911901	0.068636	0.614113
	H89	H	0.085352	0.069632	0.392794
	H90	H	0.089084	0.899775	0.613583
	H91	H	0.913376	0.898671	0.389017
	H92	H	0.088224	0.596921	0.914575
	H93	H	0.094759	0.370857	0.086193
	H94	H	0.920490	0.596004	0.093457
	H95	H	0.914157	0.372458	0.917418
	H96	H	0.418629	0.096774	0.592086
	H97	H	0.588793	0.872689	0.589475
	H98	H	0.589850	0.098329	0.414121
	H99	H	0.414045	0.874764	0.419583
	H100	H	0.588270	0.396455	0.113966
	H101	H	0.591104	0.568558	0.892128
	H102	H	0.417763	0.569245	0.111429
	H103	H	0.414302	0.396766	0.888344
	H104	H	0.116165	0.574807	0.413963
	H105	H	0.890216	0.574817	0.586316
	H106	H	0.114244	0.399305	0.590434
	H107	H	0.888584	0.399137	0.407753
	H108	H	0.916551	0.595340	0.084112
	H109	H	0.086853	0.372063	0.092440
	H110	H	0.090049	0.598023	0.915915
	H111	H	0.914567	0.371048	0.913070
	H112	H	0.088012	0.896180	0.614301
	H113	H	0.090381	0.072813	0.389659
	H114	H	0.918784	0.069625	0.611968
	H115	H	0.915847	0.897694	0.390025
	H116	H	0.614798	0.071822	0.914571
	H117	H	0.392591	0.067045	0.091826
	H118	H	0.613345	0.898551	0.086113
	H119	H	0.390357	0.893414	0.919048
	C120	C	0.380439	-0.005937	0.624278
	C121	C	0.623503	0.976773	0.623349
	C122	C	0.623270	-0.005980	0.380848
	C123	C	0.380694	0.976659	0.381131
	C124	C	0.624862	0.363464	0.010729
	C125	C	0.625234	0.606902	0.993700
	C126	C	0.381471	0.606597	0.010205
	C127	C	0.381462	0.363428	0.993036
	C128	C	0.011257	0.605298	0.380888
	C129	C	0.993743	0.606466	0.623819
	C130	C	0.010786	0.363262	0.623316
	C131	C	0.993433	0.361985	0.379561
	C132	C	0.881676	0.493328	0.123595
	C133	C	0.124086	0.476215	0.122655
	C134	C	0.124060	0.493973	0.880077
	C135	C	0.881610	0.476174	0.881125
	C136	C	0.123755	0.863285	0.510685
	C137	C	0.123365	0.105398	0.494277
	C138	C	0.880466	0.106024	0.510554
	C139	C	0.880568	0.863316	0.492720
	C140	C	0.511459	0.106384	0.881360
	C141	C	0.494048	0.107237	0.124389
	C142	C	0.510941	0.864391	0.124012
	C143	C	0.494267	0.864327	0.881183
	C144	C	0.375083	0.876626	0.688009
	C145	C	0.630324	0.094031	0.687266
	C146	C	0.626663	0.875166	0.319476
	C147	C	0.375519	0.094910	0.319122
	C148	C	0.687046	0.358807	0.892606
	C149	C	0.686929	0.611837	0.111761
	C150	C	0.317886	0.613448	0.893167
	C151	C	0.316925	0.357775	0.109748
	C152	C	0.893493	0.668202	0.376057
	C153	C	0.111645	0.668624	0.627385
	C154	C	0.893048	0.300866	0.628325
	C155	C	0.110304	0.297828	0.374455
	C156	C	0.893911	0.357707	0.687042
	C157	C	0.111555	0.611392	0.685834
	C158	C	0.893971	0.610568	0.317996
	C159	C	0.110449	0.354869	0.315878
	C160	C	0.377199	0.669805	0.892748
	C161	C	0.630189	0.670701	0.110995
	C162	C	0.628980	0.300898	0.892533
	C163	C	0.376262	0.301596	0.111056
	C164	C	0.684693	0.875183	0.376669
	C165	C	0.688407	0.093282	0.629763
	C166	C	0.318012	0.876062	0.629822
	C167	C	0.318339	0.094886	0.377354
	C168	C	0.877723	0.374501	0.184673
	C169	C	0.130741	0.593185	0.187696
	C170	C	0.128879	0.375509	0.817909
	C171	C	0.877410	0.595039	0.819778
	C172	C	0.186827	0.858383	0.392880
	C173	C	0.185684	0.111233	0.611853
	C174	C	0.818279	0.110666	0.392721
	C175	C	0.817552	0.857771	0.610275
	C176	C	0.392731	0.167646	0.879121
	C177	C	0.612423	0.168707	0.128472
	C178	C	0.393427	0.801506	0.128087
	C179	C	0.611710	0.801313	0.875424
	C180	C	0.392667	0.859906	0.185511
	C181	C	0.612323	0.110600	0.185932
	C182	C	0.393515	0.112174	0.819098
	C183	C	0.611532	0.859507	0.817857
	C184	C	0.875802	0.168506	0.392742
	C185	C	0.127406	0.168571	0.612052
	C186	C	0.127774	0.801821	0.391982
	C187	C	0.876279	0.800754	0.610708
	C188	C	0.187440	0.376100	0.874538
	C189	C	0.187206	0.593878	0.128697
	C190	C	0.819032	0.375279	0.128028
	C191	C	0.819712	0.595074	0.877268
	C192	C	0.406871	0.076027	0.597429
	C193	C	0.595499	0.895360	0.595915
	C194	C	0.596991	0.076519	0.407385
	C195	C	0.407792	0.894487	0.407407
	C196	C	0.598067	0.390520	0.092522
	C197	C	0.598582	0.579828	0.911903
	C198	C	0.408734	0.578664	0.091504
	C199	C	0.408636	0.390213	0.911617
	C200	C	0.092980	0.578433	0.407790
	C201	C	0.911615	0.579621	0.597665
	C202	C	0.092790	0.389816	0.596640
	C203	C	0.912127	0.389893	0.406507
	C204	C	0.908515	0.575541	0.097212
	C205	C	0.096864	0.394410	0.095221
	C206	C	0.097192	0.576132	0.907003
	C207	C	0.908025	0.393800	0.907711
	C208	C	0.097398	0.889970	0.592639
	C209	C	0.096620	0.077784	0.412659
	C210	C	0.907605	0.078986	0.592286
	C211	C	0.906586	0.889753	0.410758
	C212	C	0.593598	0.079583	0.907544
	C213	C	0.411924	0.081177	0.098476
	C214	C	0.593276	0.890787	0.098296
	C215	C	0.412566	0.891317	0.908646
	Zn216	Zn	0.502606	-0.014228	0.752250
	Zn217	Zn	0.502091	-0.014519	0.252889
	Zn218	Zn	0.753532	0.485279	0.002510
	Zn219	Zn	0.252776	0.485427	0.001057
	Zn220	Zn	0.002475	0.734701	0.501465
	Zn221	Zn	0.001981	0.234171	0.502301
	Zn222	Zn	0.002384	0.485042	0.752157
	Zn223	Zn	0.003198	0.484344	0.251752
	Zn224	Zn	0.503010	0.735314	0.002273
	Zn225	Zn	0.503238	0.234993	0.002342
	Zn226	Zn	0.751839	-0.015258	0.501482
	Zn227	Zn	0.252136	-0.015440	0.502827
	N228	N	0.413325	0.951077	0.684780
	N229	N	0.590515	0.020599	0.683139
	N230	N	0.589104	0.949972	0.321856
	N231	N	0.413650	0.020336	0.321302
	N232	N	0.684859	0.396714	0.967093
	N233	N	0.683963	0.572958	0.037825
	N234	N	0.320338	0.575008	0.967221
	N235	N	0.319855	0.395599	0.035232
	N236	N	0.967643	0.665108	0.414128
	N237	N	0.037299	0.665978	0.589817
	N238	N	0.966708	0.304252	0.589259
	N239	N	0.036448	0.301875	0.413115
	N240	N	0.968185	0.395940	0.683897
	N241	N	0.037075	0.573663	0.683834
	N242	N	0.968247	0.572409	0.320671
	N243	N	0.036567	0.394070	0.318712
	N244	N	0.416056	0.665762	0.966522
	N245	N	0.592439	0.667926	0.036452
	N246	N	0.591267	0.303581	0.967152
	N247	N	0.415734	0.304927	0.037644
	N248	N	0.682710	0.950266	0.413939
	N249	N	0.684367	0.019261	0.590683
	N250	N	0.320885	0.950300	0.591199
	N251	N	0.321544	0.020419	0.415377
	N252	N	0.915818	0.449007	0.182240
	N253	N	0.092311	0.518763	0.184285
	N254	N	0.090412	0.449848	0.821007
	N255	N	0.915095	0.520186	0.821901
	N256	N	0.184484	0.895709	0.467883
	N257	N	0.183402	0.072949	0.537669
	N258	N	0.820917	0.072594	0.467080
	N259	N	0.819986	0.895777	0.536035
	N260	N	0.467074	0.164288	0.916783
	N261	N	0.537779	0.167098	0.091241
	N262	N	0.468145	0.803994	0.090801
	N263	N	0.537780	0.804217	0.914125
	N264	N	0.466720	0.898239	0.183167
	N265	N	0.537640	0.073387	0.183865
	N266	N	0.468443	0.074911	0.820163
	N267	N	0.537211	0.897673	0.821034
	N268	N	0.913572	0.165985	0.467206
	N269	N	0.089486	0.165304	0.537631
	N270	N	0.089363	0.804479	0.466058
	N271	N	0.914755	0.803806	0.536621
	N272	N	0.184671	0.450920	0.912364
	N273	N	0.183262	0.520200	0.089077
	N274	N	0.821385	0.450279	0.090947
	N275	N	0.822064	0.520067	0.914709
	O276	O	0.722602	0.464651	0.282208
	H277	H	0.719881	0.420693	0.287560
	H278	H	0.747692	0.455243	0.251404
	O279	O	0.982312	-0.006555	0.911035
	H280	H	1.003379	-0.007976	0.916443
	H281	H	0.988243	-0.010954	0.923914
	O282	O	0.522016	0.267608	0.286509
	H283	H	0.523862	0.239438	0.245529
	H284	H	0.506001	0.304847	0.281768
	O285	O	0.566488	0.330825	0.528545
	H286	H	0.554129	0.334995	0.517774
	H287	H	0.558212	0.345045	0.528951
	O288	O	1.176746	0.805079	-0.176248
	H289	H	1.193242	0.847121	-0.187233
	H290	H	1.190375	0.797455	-0.123488
	O291	O	0.308591	0.584494	0.583627
	H292	H	0.324124	0.593417	0.598276
	H293	H	0.313764	0.585009	0.600199
	O294	O	-0.049117	0.078626	1.028421
	H295	H	-0.063044	0.056171	1.023876
	H296	H	-0.022147	0.077265	1.008721
	O297	O	0.698499	0.502789	1.702220
	H298	H	0.669181	0.474319	1.707380
	H299	H	0.715171	0.497688	1.723904
	O300	O	0.329222	0.659356	0.320774
	H301	H	0.313965	0.673404	0.372406
	H302	H	0.338418	0.630512	0.310624
	O303	O	0.325425	0.313980	0.682060
	H304	H	0.334705	0.314953	0.652343
	H305	H	0.347223	0.298354	0.665576
	O306	O	0.560602	0.544761	0.284012
	H307	H	0.589357	0.535132	0.279715
	H308	H	0.552759	0.561303	0.286979
	O309	O	0.679878	0.668699	0.688810
	H310	H	0.691844	0.680783	0.634980
	H311	H	0.694512	0.615234	0.696739
	O312	O	0.168548	0.859503	1.004381
	H313	H	0.167090	0.833324	1.014490
	H314	H	0.171343	0.856567	1.014214
	O315	O	0.571143	0.409600	0.711030
	H316	H	0.555475	0.389485	0.708672
	H317	H	0.535888	0.417104	0.712403
	O318	O	1.002040	-0.226909	-0.000738
	H319	H	0.983352	-0.233899	-0.004479
	H320	H	0.970521	-0.227710	-0.011665
	O321	O	0.219892	0.071239	-0.012052
	H322	H	0.220438	0.069305	-0.010303
	H323	H	0.219085	0.088742	-0.011762
	O324	O	0.827485	0.801328	0.183778
	H325	H	0.816456	0.814293	0.153891
	H326	H	0.811795	0.832227	0.177010
	O327	O	0.682821	0.308588	0.323143
	H328	H	0.688586	0.296059	0.371783
	H329	H	0.640360	0.303038	0.320092
	O330	O	-0.167781	1.155054	-0.165098
	H331	H	-0.164217	1.131721	-0.171310
	H332	H	-0.148587	1.128625	-0.167364
	O333	O	0.288890	0.499904	0.285430
	H334	H	0.263143	0.497878	0.289273
	H335	H	0.276430	0.507797	0.286845
	O336	O	0.199409	-0.012621	-0.158799
	H337	H	0.203249	-0.004769	-0.141214
	H338	H	0.218978	-0.005273	-0.171953
	O339	O	0.082875	1.072464	0.787496
	H340	H	0.081308	1.061189	0.799546
	H341	H	0.087118	1.074140	0.779742
	O342	O	0.288957	1.272962	0.524076
	H343	H	0.266155	1.235714	0.521585
	H344	H	0.310987	1.285046	0.493245
	O345	O	1.184884	1.159585	0.178330
	H346	H	1.169092	1.170204	0.151932
	H347	H	1.157110	1.147708	0.188741
	O348	O	0.515854	0.686091	0.478681
	H349	H	0.517230	0.679152	0.477571
	H350	H	0.522951	0.689434	0.464860
	O351	O	0.440631	1.551975	1.532852
	H352	H	0.439412	1.566015	1.542753
	H353	H	0.465082	1.552817	1.544649
	O354	O	0.020218	0.768211	-0.216022
	H355	H	0.029445	0.730895	-0.252343
	H356	H	0.069450	0.781491	-0.199031
	O357	O	-0.141981	-0.223180	0.992061
	H358	H	-0.160568	-0.209136	0.971613
	H359	H	-0.167852	-0.222035	0.979011
	O360	O	0.454011	0.353559	0.607897
	H361	H	0.451367	0.339238	0.603230
	H362	H	0.463089	0.351078	0.619213
	O363	O	-0.150197	0.054693	0.788717
	H364	H	-0.124753	0.042293	0.778837
	H365	H	-0.160225	0.058604	0.775549
	O366	O	0.487659	0.694685	0.289830
	H367	H	0.460749	0.706157	0.273155
	H368	H	0.487521	0.691660	0.284889
	O369	O	0.712491	0.699298	-0.472378
	H370	H	0.716960	0.690185	-0.498910
	H371	H	0.733013	0.708334	-0.486478
	O372	O	1.023908	0.198999	1.212775
	H373	H	1.007851	0.197915	1.232361
	H374	H	1.007392	0.216185	1.210941
	O375	O	0.212033	0.999647	1.211068
	H376	H	0.215288	1.027376	1.198157
	H377	H	0.225691	0.990777	1.229020
	O378	O	0.986370	0.766559	1.218656
	H379	H	0.978463	0.730453	1.256582
	H380	H	0.936562	0.781852	1.205578
	O381	O	0.512730	0.426275	0.445037
	H382	H	0.505583	0.426149	0.441537
	H383	H	0.508866	0.426375	0.432602
	O384	O	-0.198387	0.977113	1.165296
	H385	H	-0.204763	0.985090	1.182893
	H386	H	-0.197039	0.997385	1.152047
	O387	O	0.133778	-0.223922	1.033979
	H388	H	0.098696	-0.231322	1.062289
	H389	H	0.127544	-0.246501	1.024145
	O390	O	0.032595	0.160916	-0.071712
	H391	H	0.044171	0.169693	-0.070938
	H392	H	0.031906	0.167270	-0.086020
	O393	O	0.805405	0.987304	1.022000
	H394	H	0.816225	0.998089	1.007965
	H395	H	0.814810	1.011475	1.016081
	O396	O	0.460764	0.426084	0.317464
	H397	H	0.466509	0.452115	0.332501
	H398	H	0.428146	0.448790	0.308540
	O399	O	0.463080	0.281656	0.441546
	H400	H	0.469895	0.280059	0.416454
	H401	H	0.469192	0.301383	0.425991
	O402	O	0.941955	1.049255	1.215122
	H403	H	0.940971	1.040820	1.207058
	H404	H	0.970834	1.038255	1.208919
	O405	O	0.473137	0.655331	-0.468929
	H406	H	0.491364	0.654058	-0.454760
	H407	H	0.487800	0.663400	-0.483212
	O408	O	0.897845	-0.055748	-0.211731
	H409	H	0.919157	-0.092727	-0.214674
	H410	H	0.909638	-0.047275	-0.211855
	O411	O	1.128669	1.199530	0.018148
	H412	H	1.119029	1.219215	0.021769
	H413	H	1.124090	1.193550	0.047245
	O414	O	0.704013	0.579401	0.420840
	H415	H	0.691758	0.561451	0.415913
	H416	H	0.699343	0.561886	0.399567
	O417	O	0.289498	1.474223	-0.281001
	H418	H	0.272159	1.462463	-0.258609
	H419	H	0.292966	1.437248	-0.282593
	O420	O	0.051683	-0.063478	0.203820
	H421	H	0.077271	-0.078522	0.210408
	H422	H	0.049249	-0.087565	0.197633
	O423	O	0.516876	0.299566	0.638401
	H424	H	0.520878	0.310005	0.622589
	H425	H	0.511878	0.287699	0.642442
	O426	O	0.070651	1.139358	0.862208
	H427	H	0.072544	1.115280	0.852915
	H428	H	0.068866	1.157177	0.877708
	O429	O	0.714860	0.294446	0.490241
	H430	H	0.750880	0.268552	0.491133
	H431	H	0.703732	0.317069	0.509495
	O432	O	0.446918	0.534482	0.724035
	H433	H	0.448294	0.567932	0.727222
	H434	H	0.420792	0.527319	0.732909
	O435	O	0.724050	0.439666	0.563779
	H436	H	0.727518	0.451159	0.569900
	H437	H	0.719153	0.447167	0.561384
	O438	O	-0.215316	-0.123785	-0.034654
	H439	H	-0.226219	-0.116784	-0.048754
	H440	H	-0.206457	-0.100924	-0.035738
	O441	O	1.079247	-0.048818	0.080307
	H442	H	1.081118	-0.038726	0.099219
	H443	H	1.087031	-0.066300	0.090931
	O444	O	0.787722	0.200652	0.985248
	H445	H	0.763822	0.225061	0.979821
	H446	H	0.797036	0.196745	0.946887
	O447	O	0.287808	0.698586	0.477458
	H448	H	0.269360	0.724399	0.486065
	H449	H	0.306524	0.700734	0.506578
	O450	O	0.519069	0.699725	0.719370
	H451	H	0.548141	0.709676	0.732966
	H452	H	0.546814	0.706478	0.726217
	O453	O	0.277100	0.416021	0.432017
	H454	H	0.278064	0.412507	0.429091
	H455	H	0.274459	0.438675	0.464377
