data_Molecule from HDF5

_cell_length_a		16.176139
_cell_length_b		16.427136
_cell_length_c		16.164469
_cell_angle_alpha	90.078877
_cell_angle_beta	89.963567
_cell_angle_gamma	90.053408
_symmetry_space_group_name_H-M	'P 1'
_symmetry_Int_Tables_number		1

loop_
	_symmetry_equiv_pos_as_xyz
	x,y,z

loop_
	_atom_site_label
	_atom_site_type_symbol
	_atom_site_fract_x
	_atom_site_fract_y
	_atom_site_fract_z
	H0	H	0.390349	0.835661	0.709676
	H1	H	0.586894	0.160698	0.709637
	H2	H	0.585626	0.835497	0.280504
	H3	H	0.389741	0.161106	0.279559
	H4	H	0.702349	0.401965	0.829088
	H5	H	0.700570	0.595570	0.159004
	H6	H	0.278736	0.593984	0.828341
	H7	H	0.276547	0.402491	0.159047
	H8	H	0.823628	0.713117	0.394615
	H9	H	0.150918	0.713964	0.594374
	H10	H	0.823453	0.283531	0.594153
	H11	H	0.150984	0.281444	0.390940
	H12	H	0.823596	0.401540	0.707701
	H13	H	0.153203	0.596313	0.705030
	H14	H	0.822586	0.594028	0.282298
	H15	H	0.153136	0.402100	0.281040
	H16	H	0.388535	0.714215	0.829608
	H17	H	0.590462	0.715583	0.156713
	H18	H	0.591460	0.282050	0.830728
	H19	H	0.385868	0.282334	0.157001
	H20	H	0.703444	0.835633	0.395898
	H21	H	0.704272	0.160861	0.593471
	H22	H	0.272080	0.835899	0.594065
	H23	H	0.272596	0.160689	0.394860
	H24	H	0.889183	0.336607	0.208633
	H25	H	0.087153	0.662043	0.208795
	H26	H	0.088699	0.337122	0.777424
	H27	H	0.891177	0.661704	0.779421
	H28	H	0.200114	0.901772	0.328976
	H29	H	0.200479	0.096004	0.659871
	H30	H	0.776811	0.093404	0.328849
	H31	H	0.776145	0.901741	0.659857
	H32	H	0.325170	0.214608	0.892363
	H33	H	0.652229	0.215999	0.096387
	H34	H	0.324919	0.783383	0.093297
	H35	H	0.653095	0.784783	0.894286
	H36	H	0.323124	0.902355	0.205087
	H37	H	0.654211	0.096121	0.207105
	H38	H	0.323498	0.094409	0.782170
	H39	H	0.654467	0.903262	0.782592
	H40	H	0.885261	0.213927	0.330609
	H41	H	0.089362	0.216669	0.657300
	H42	H	0.088443	0.782852	0.330614
	H43	H	0.887353	0.783184	0.658407
	H44	H	0.206235	0.337292	0.892977
	H45	H	0.204347	0.662530	0.091839
	H46	H	0.772153	0.337288	0.093103
	H47	H	0.774986	0.661920	0.896379
	H48	H	0.397126	0.112507	0.586661
	H49	H	0.594800	0.881286	0.579937
	H50	H	0.587062	0.115650	0.398951
	H51	H	0.401231	0.885508	0.402353
	H52	H	0.575138	0.404270	0.110623
	H53	H	0.576360	0.605965	0.873623
	H54	H	0.394316	0.595052	0.113486
	H55	H	0.408829	0.404290	0.879154
	H56	H	0.108323	0.592404	0.391590
	H57	H	0.871147	0.592515	0.582355
	H58	H	0.104611	0.402398	0.581242
	H59	H	0.868410	0.402038	0.393548
	H60	H	0.102886	0.409833	0.583092
	H61	H	0.870671	0.588020	0.588190
	H62	H	0.106251	0.600995	0.408366
	H63	H	0.870747	0.399816	0.407146
	H64	H	0.397588	0.588463	0.109817
	H65	H	0.594905	0.592012	0.871016
	H66	H	0.583790	0.401999	0.113021
	H67	H	0.392987	0.398069	0.872537
	H68	H	0.578046	0.113647	0.398206
	H69	H	0.582665	0.878350	0.602457
	H70	H	0.392805	0.113417	0.586245
	H71	H	0.387433	0.881901	0.404954
	H72	H	0.885280	0.617341	0.085279
	H73	H	0.086016	0.383133	0.086110
	H74	H	0.079367	0.612233	0.904889
	H75	H	0.900952	0.385841	0.902985
	H76	H	0.076439	0.905046	0.611012
	H77	H	0.076512	0.109100	0.372082
	H78	H	0.903891	0.094386	0.609255
	H79	H	0.888950	0.901106	0.373048
	H80	H	0.603249	0.085534	0.905087
	H81	H	0.372334	0.093523	0.083215
	H82	H	0.604410	0.904472	0.078331
	H83	H	0.370080	0.906478	0.898274
	H84	H	0.605782	0.912404	0.089786
	H85	H	0.372305	0.090113	0.086408
	H86	H	0.608190	0.093292	0.895222
	H87	H	0.370816	0.901731	0.903775
	H88	H	0.892767	0.097454	0.614218
	H89	H	0.097094	0.083044	0.374962
	H90	H	0.081112	0.900762	0.613723
	H91	H	0.897619	0.911672	0.379811
	H92	H	0.090807	0.617308	0.900875
	H93	H	0.080075	0.384296	0.090001
	H94	H	0.897162	0.616930	0.096674
	H95	H	0.890019	0.383295	0.903764
	H96	H	0.394713	0.114084	0.589948
	H97	H	0.570179	0.888751	0.582179
	H98	H	0.582551	0.111882	0.406752
	H99	H	0.393300	0.880071	0.392690
	H100	H	0.582040	0.411303	0.110875
	H101	H	0.574526	0.583503	0.879828
	H102	H	0.402085	0.594851	0.111691
	H103	H	0.393816	0.415734	0.878064
	H104	H	0.102166	0.582844	0.406408
	H105	H	0.868311	0.594784	0.589044
	H106	H	0.106187	0.405784	0.588074
	H107	H	0.872644	0.412459	0.402439
	H108	H	0.900857	0.611439	0.082020
	H109	H	0.081126	0.386373	0.082671
	H110	H	0.080816	0.615427	0.892064
	H111	H	0.895956	0.381357	0.894285
	H112	H	0.082964	0.907343	0.612493
	H113	H	0.064647	0.080040	0.384818
	H114	H	0.895002	0.086190	0.611905
	H115	H	0.903047	0.898252	0.377692
	H116	H	0.607226	0.098069	0.907688
	H117	H	0.371124	0.093204	0.087484
	H118	H	0.609140	0.898968	0.090918
	H119	H	0.373095	0.907795	0.904517
	C120	C	0.366221	0.006363	0.616604
	C121	C	0.610865	0.990120	0.616806
	C122	C	0.610913	0.006386	0.372330
	C123	C	0.365523	0.989712	0.371380
	C124	C	0.609808	0.377392	0.002663
	C125	C	0.610196	0.621071	0.984321
	C126	C	0.368646	0.620639	0.002568
	C127	C	0.368107	0.377540	0.985036
	C128	C	-0.003505	0.619930	0.373214
	C129	C	0.978997	0.619881	0.614903
	C130	C	-0.003832	0.377460	0.614365
	C131	C	0.979161	0.376396	0.371755
	C132	C	0.866244	0.507845	0.116162
	C133	C	0.111334	0.491696	0.115387
	C134	C	0.112293	0.507582	0.870767
	C135	C	0.867224	0.491015	0.871816
	C136	C	0.109282	0.876470	0.503255
	C137	C	0.109008	0.120141	0.485988
	C138	C	0.867681	0.119590	0.502733
	C139	C	0.867597	0.876622	0.485838
	C140	C	0.497418	0.120362	0.873044
	C141	C	0.480610	0.120697	0.115320
	C142	C	0.497431	0.877413	0.114830
	C143	C	0.480338	0.877339	0.873386
	C144	C	0.369299	0.883997	0.671690
	C145	C	0.608146	0.112337	0.671883
	C146	C	0.607454	0.884238	0.317392
	C147	C	0.368767	0.112277	0.316751
	C148	C	0.664978	0.380667	0.878543
	C149	C	0.664182	0.617188	0.109069
	C150	C	0.314615	0.616241	0.878042
	C151	C	0.313159	0.381221	0.109420
	C152	C	0.872744	0.674838	0.375016
	C153	C	0.102415	0.675307	0.613353
	C154	C	0.872599	0.321824	0.613587
	C155	C	0.102290	0.320241	0.372009
	C156	C	0.872575	0.380665	0.669882
	C157	C	0.103599	0.616746	0.668351
	C158	C	0.872266	0.616053	0.319080
	C159	C	0.103391	0.380161	0.317285
	C160	C	0.369222	0.675786	0.878678
	C161	C	0.609181	0.676479	0.108091
	C162	C	0.609720	0.321160	0.879485
	C163	C	0.367870	0.321563	0.108414
	C164	C	0.665603	0.884265	0.375264
	C165	C	0.666484	0.112223	0.614239
	C166	C	0.310690	0.884077	0.614267
	C167	C	0.310484	0.112195	0.374154
	C168	C	0.868810	0.385413	0.170989
	C169	C	0.108080	0.613702	0.170806
	C170	C	0.109342	0.385548	0.815429
	C171	C	0.870372	0.613220	0.817340
	C172	C	0.163190	0.880540	0.378612
	C173	C	0.163915	0.117554	0.609922
	C174	C	0.813031	0.115574	0.378530
	C175	C	0.813517	0.880967	0.610515
	C176	C	0.374066	0.176028	0.873632
	C177	C	0.603762	0.176688	0.114941
	C178	C	0.373776	0.821514	0.113289
	C179	C	0.604222	0.822755	0.874844
	C180	C	0.372896	0.880859	0.168711
	C181	C	0.604657	0.117184	0.170206
	C182	C	0.373162	0.116354	0.818622
	C183	C	0.604738	0.881554	0.819211
	C184	C	0.867406	0.175039	0.379178
	C185	C	0.108662	0.177413	0.608675
	C186	C	0.107705	0.821342	0.379426
	C187	C	0.868352	0.821699	0.609887
	C188	C	0.167755	0.385666	0.873000
	C189	C	0.166260	0.613866	0.112422
	C190	C	0.810675	0.385635	0.113440
	C191	C	0.812584	0.613356	0.875236
	C192	C	0.388274	0.091238	0.594139
	C193	C	0.589126	0.904890	0.594572
	C194	C	0.588894	0.091742	0.394673
	C195	C	0.387317	0.904536	0.393453
	C196	C	0.586986	0.399540	0.089160
	C197	C	0.588266	0.599906	0.897375
	C198	C	0.391283	0.599105	0.089166
	C199	C	0.391623	0.399600	0.899052
	C200	C	0.083322	0.598312	0.395493
	C201	C	0.892325	0.598051	0.592940
	C202	C	0.082249	0.399390	0.590852
	C203	C	0.892899	0.398178	0.394536
	C204	C	0.887976	0.593032	0.094359
	C205	C	0.089036	0.406654	0.092830
	C206	C	0.090281	0.593062	0.892888
	C207	C	0.889113	0.405639	0.893840
	C208	C	0.086818	0.898055	0.589948
	C209	C	0.086106	0.097490	0.399462
	C210	C	0.890633	0.098796	0.589327
	C211	C	0.890081	0.897381	0.399422
	C212	C	0.583828	0.098514	0.895973
	C213	C	0.394329	0.098772	0.092342
	C214	C	0.584082	0.898859	0.092846
	C215	C	0.393612	0.898832	0.895771
	Zn216	Zn	0.488332	-0.001513	0.745579
	Zn217	Zn	0.488707	-0.001513	0.243027
	Zn218	Zn	0.737251	0.499560	-0.006336
	Zn219	Zn	0.241378	0.499442	-0.006526
	Zn220	Zn	-0.012200	0.747671	0.494477
	Zn221	Zn	-0.012382	0.248356	0.493016
	Zn222	Zn	-0.011076	0.499600	0.742244
	Zn223	Zn	-0.011867	0.499039	0.244931
	Zn224	Zn	0.489021	0.748781	-0.006598
	Zn225	Zn	0.488890	0.249303	-0.005802
	Zn226	Zn	0.740600	-0.001825	0.494444
	Zn227	Zn	0.236835	-0.001562	0.494276
	N228	N	0.403090	0.960786	0.673250
	N229	N	0.574518	0.035463	0.673713
	N230	N	0.573852	0.961234	0.315827
	N231	N	0.401843	0.035074	0.314534
	N232	N	0.665214	0.414817	0.956215
	N233	N	0.664800	0.583293	0.031145
	N234	N	0.314334	0.582571	0.955794
	N235	N	0.312931	0.415007	0.031615
	N236	N	0.951238	0.677336	0.407871
	N237	N	0.023990	0.677349	0.580795
	N238	N	0.950496	0.319909	0.579540
	N239	N	0.024050	0.317819	0.405093
	N240	N	0.950429	0.414316	0.670626
	N241	N	0.025850	0.582695	0.669314
	N242	N	0.950187	0.582487	0.318136
	N243	N	0.025856	0.414444	0.317049
	N244	N	0.402255	0.678559	0.957207
	N245	N	0.576290	0.678922	0.029641
	N246	N	0.575859	0.319346	0.957637
	N247	N	0.401262	0.319161	0.030150
	N248	N	0.668115	0.961350	0.408345
	N249	N	0.668176	0.035263	0.580474
	N250	N	0.308495	0.961131	0.580791
	N251	N	0.308265	0.035220	0.407381
	N252	N	0.902703	0.462319	0.172705
	N253	N	0.074696	0.536642	0.173020
	N254	N	0.075477	0.462356	0.813947
	N255	N	0.903590	0.536187	0.815208
	N256	N	0.164423	0.913989	0.456671
	N257	N	0.163979	0.082389	0.532493
	N258	N	0.813268	0.081525	0.456250
	N259	N	0.812602	0.914143	0.532495
	N260	N	0.452357	0.178675	0.906906
	N261	N	0.525633	0.178905	0.081474
	N262	N	0.452227	0.819364	0.080264
	N263	N	0.525814	0.819954	0.907661
	N264	N	0.450632	0.914672	0.169809
	N265	N	0.526979	0.083124	0.170809
	N266	N	0.450857	0.082550	0.818186
	N267	N	0.526777	0.915023	0.818451
	N268	N	0.900596	0.177780	0.457398
	N269	N	0.075228	0.178907	0.530454
	N270	N	0.074930	0.818599	0.457925
	N271	N	0.901495	0.818862	0.531442
	N272	N	0.169590	0.462485	0.906622
	N273	N	0.168307	0.536940	0.078844
	N274	N	0.808868	0.462535	0.080054
	N275	N	0.810255	0.536189	0.908339
	O276	O	0.397448	0.455417	0.540874
	H277	H	0.400001	0.447376	0.539499
	H278	H	0.390798	0.453885	0.530228
	O279	O	0.465525	0.529580	0.464389
	H280	H	0.465945	0.527402	0.471320
	H281	H	0.479709	0.523407	0.451732
	O282	O	0.387047	0.461977	0.567203
	H283	H	0.379426	0.463036	0.561872
	H284	H	0.380985	0.454466	0.576610
	O285	O	0.437137	1.540275	0.444670
	H286	H	0.438069	1.540557	0.439487
	H287	H	0.434225	1.536932	0.442532
	O288	O	0.437356	0.388705	0.358646
	H289	H	0.446689	0.384831	0.363333
	H290	H	0.447617	0.389812	0.347951
	O291	O	-0.002594	0.007815	0.988468
	H292	H	-0.009848	0.012528	0.987500
	H293	H	-0.016329	0.008075	0.996934
	O294	O	1.091810	0.090356	1.040322
	H295	H	1.091173	0.097803	1.039714
	H296	H	1.096477	0.086412	1.038399
	O297	O	0.456365	0.380424	0.510373
	H298	H	0.458141	0.376360	0.508016
	H299	H	0.467392	0.388861	0.496890
	O300	O	0.434094	0.521075	0.562828
	H301	H	0.419227	0.536330	0.554344
	H302	H	0.440040	0.513704	0.573075
	O303	O	0.472807	0.450973	0.531017
	H304	H	0.471376	0.454180	0.530380
	H305	H	0.460650	0.445817	0.543370
	O306	O	1.059735	0.033326	1.056959
	H307	H	1.062517	0.030108	1.052409
	H308	H	1.065871	0.021904	1.063832
	O309	O	0.482717	0.509340	0.438702
	H310	H	0.478556	0.514773	0.432065
	H311	H	0.484223	0.511105	0.438024
	O312	O	0.530664	0.436343	0.468593
	H313	H	0.533843	0.445940	0.472989
	H314	H	0.533057	0.448395	0.477456
	O315	O	0.999342	0.078892	1.084790
	H316	H	1.000458	0.084420	1.088051
	H317	H	1.006255	0.086262	1.086284
	O318	O	0.068494	0.009571	0.005989
	H319	H	0.058508	0.005449	0.009209
	H320	H	0.070811	0.002780	-0.002937
	O321	O	1.020265	1.067433	1.051537
	H322	H	1.024759	1.072452	1.050410
	H323	H	1.018908	1.079030	1.062950
	O324	O	1.002584	0.069875	0.024762
	H325	H	1.007593	0.066088	0.018713
	H326	H	1.002071	0.080823	0.022842
	O327	O	1.018881	1.094325	0.045449
	H328	H	1.015632	1.094252	0.047234
	H329	H	1.025951	1.099039	0.053730
	O330	O	0.451008	0.484478	0.454578
	H331	H	0.438989	0.480593	0.456478
	H332	H	0.448020	0.479987	0.461492
	O333	O	0.576180	0.452009	0.531548
	H334	H	0.581172	0.444944	0.541041
	H335	H	0.560562	0.450494	0.537435
