data_Molecule from HDF5

_cell_length_a		16.496927
_cell_length_b		16.577174
_cell_length_c		16.533988
_cell_angle_alpha	89.979448
_cell_angle_beta	89.935978
_cell_angle_gamma	89.844596
_symmetry_space_group_name_H-M	'P 1'
_symmetry_Int_Tables_number		1

loop_
	_symmetry_equiv_pos_as_xyz
	x,y,z

loop_
	_atom_site_label
	_atom_site_type_symbol
	_atom_site_fract_x
	_atom_site_fract_y
	_atom_site_fract_z
	H0	H	0.392724	0.854407	0.720407
	H1	H	0.604709	0.164319	0.717714
	H2	H	0.604652	0.851138	0.274182
	H3	H	0.394128	0.164308	0.273975
	H4	H	0.718957	0.405827	0.838952
	H5	H	0.718098	0.611504	0.154141
	H6	H	0.278927	0.612951	0.838016
	H7	H	0.277821	0.402520	0.153998
	H8	H	0.843630	0.729512	0.391519
	H9	H	0.157912	0.727353	0.600229
	H10	H	0.841626	0.288787	0.599524
	H11	H	0.156723	0.283626	0.388912
	H12	H	0.841291	0.405411	0.714672
	H13	H	0.157612	0.609993	0.715388
	H14	H	0.842666	0.610814	0.277192
	H15	H	0.157139	0.400433	0.274003
	H16	H	0.393926	0.729657	0.839120
	H17	H	0.602190	0.729037	0.152862
	H18	H	0.604726	0.287036	0.840377
	H19	H	0.393240	0.285496	0.152675
	H20	H	0.720497	0.851154	0.391309
	H21	H	0.718656	0.165362	0.598387
	H22	H	0.277632	0.852752	0.603091
	H23	H	0.277604	0.164522	0.390773
	H24	H	0.893779	0.350479	0.218423
	H25	H	0.104566	0.664189	0.218639
	H26	H	0.103073	0.349054	0.777795
	H27	H	0.893957	0.663718	0.774212
	H28	H	0.223611	0.901272	0.339853
	H29	H	0.222619	0.113748	0.652323
	H30	H	0.776861	0.114593	0.338410
	H31	H	0.781043	0.905327	0.653119
	H32	H	0.343069	0.232208	0.888480
	H33	H	0.657150	0.228856	0.101814
	H34	H	0.342076	0.785429	0.102521
	H35	H	0.656016	0.785132	0.889356
	H36	H	0.341854	0.901323	0.218564
	H37	H	0.657260	0.110815	0.215824
	H38	H	0.344304	0.117071	0.771823
	H39	H	0.656740	0.902619	0.773698
	H40	H	0.893183	0.230859	0.338828
	H41	H	0.104548	0.228608	0.653123
	H42	H	0.109274	0.783648	0.340405
	H43	H	0.896275	0.787710	0.652393
	H44	H	0.220241	0.349691	0.893240
	H45	H	0.220585	0.664797	0.101247
	H46	H	0.776870	0.351373	0.103671
	H47	H	0.779142	0.665290	0.892741
	H48	H	0.411634	0.123675	0.593211
	H49	H	0.591583	0.895805	0.582833
	H50	H	0.587057	0.121149	0.402014
	H51	H	0.410153	0.895705	0.408082
	H52	H	0.590162	0.410733	0.112384
	H53	H	0.590489	0.590331	0.885254
	H54	H	0.407734	0.596601	0.109099
	H55	H	0.416396	0.422956	0.887448
	H56	H	0.116600	0.600816	0.401466
	H57	H	0.887661	0.598908	0.583221
	H58	H	0.111803	0.414949	0.581976
	H59	H	0.888795	0.417314	0.411821
	H60	H	0.111764	0.420435	0.586201
	H61	H	0.887747	0.595941	0.584938
	H62	H	0.110767	0.598392	0.416596
	H63	H	0.890809	0.423260	0.408094
	H64	H	0.413078	0.594601	0.106289
	H65	H	0.582596	0.601055	0.883798
	H66	H	0.594131	0.423145	0.110609
	H67	H	0.413146	0.414351	0.883928
	H68	H	0.585360	0.117888	0.407970
	H69	H	0.590346	0.894544	0.588399
	H70	H	0.421080	0.115562	0.578649
	H71	H	0.412133	0.896133	0.405607
	H72	H	0.911805	0.618217	0.084439
	H73	H	0.091637	0.397080	0.080329
	H74	H	0.087261	0.618797	0.905720
	H75	H	0.907373	0.395090	0.907316
	H76	H	0.085651	0.914753	0.608664
	H77	H	0.086447	0.093772	0.385375
	H78	H	0.910127	0.098150	0.606748
	H79	H	0.913379	0.915671	0.382393
	H80	H	0.612281	0.096830	0.906865
	H81	H	0.387622	0.095780	0.086198
	H82	H	0.610876	0.913302	0.079600
	H83	H	0.388497	0.925023	0.906416
	H84	H	0.607935	0.925052	0.082100
	H85	H	0.385900	0.099804	0.085366
	H86	H	0.612311	0.098874	0.907475
	H87	H	0.386336	0.917834	0.906939
	H88	H	0.908775	0.098557	0.607943
	H89	H	0.085603	0.096024	0.384356
	H90	H	0.093010	0.917137	0.609808
	H91	H	0.907181	0.917172	0.381040
	H92	H	0.091115	0.619601	0.907759
	H93	H	0.091142	0.394238	0.089021
	H94	H	0.909216	0.618777	0.085487
	H95	H	0.911342	0.395361	0.904368
	H96	H	0.403064	0.120688	0.576890
	H97	H	0.586004	0.897038	0.584835
	H98	H	0.591238	0.120837	0.406594
	H99	H	0.413202	0.897670	0.408521
	H100	H	0.582275	0.419902	0.107471
	H101	H	0.595508	0.601266	0.879722
	H102	H	0.412335	0.600726	0.108136
	H103	H	0.407418	0.422412	0.883684
	H104	H	0.110946	0.586121	0.405835
	H105	H	0.886637	0.598532	0.586425
	H106	H	0.114091	0.414604	0.588840
	H107	H	0.886637	0.418052	0.404834
	H108	H	0.911614	0.619471	0.086714
	H109	H	0.083936	0.398085	0.084987
	H110	H	0.090567	0.620961	0.903582
	H111	H	0.911646	0.396826	0.908580
	H112	H	0.087521	0.921728	0.606423
	H113	H	0.088118	0.095321	0.384746
	H114	H	0.909294	0.096560	0.607577
	H115	H	0.910678	0.922030	0.384206
	H116	H	0.611078	0.097177	0.908813
	H117	H	0.388041	0.097802	0.081895
	H118	H	0.613276	0.917906	0.090816
	H119	H	0.390462	0.920716	0.912230
	C120	C	0.378763	0.017280	0.617066
	C121	C	0.620935	0.999642	0.616917
	C122	C	0.620744	0.016430	0.373675
	C123	C	0.378436	0.999730	0.374411
	C124	C	0.620906	0.386754	0.005541
	C125	C	0.620255	0.628869	0.987511
	C126	C	0.378216	0.629451	0.004136
	C127	C	0.378998	0.387278	0.988390
	C128	C	0.009159	0.628344	0.375154
	C129	C	0.991477	0.629073	0.616998
	C130	C	0.008159	0.385979	0.617000
	C131	C	0.991926	0.385872	0.374879
	C132	C	0.878017	0.515566	0.118437
	C133	C	0.121119	0.499754	0.117273
	C134	C	0.121393	0.515379	0.874591
	C135	C	0.878156	0.499358	0.874765
	C136	C	0.122118	0.885764	0.504886
	C137	C	0.119784	0.128064	0.488247
	C138	C	0.877087	0.130035	0.503975
	C139	C	0.878639	0.886944	0.486650
	C140	C	0.508386	0.130584	0.874554
	C141	C	0.491094	0.129206	0.116883
	C142	C	0.506840	0.886492	0.116972
	C143	C	0.491498	0.887752	0.875058
	C144	C	0.375025	0.900733	0.679433
	C145	C	0.623246	0.117576	0.677055
	C146	C	0.623166	0.898203	0.314211
	C147	C	0.375785	0.117417	0.314251
	C148	C	0.679486	0.386378	0.886564
	C149	C	0.678875	0.630335	0.106588
	C150	C	0.318435	0.631379	0.885771
	C151	C	0.318123	0.384398	0.106472
	C152	C	0.890734	0.689013	0.372817
	C153	C	0.110205	0.687849	0.618733
	C154	C	0.889036	0.327970	0.618126
	C155	C	0.109631	0.324209	0.371354
	C156	C	0.889013	0.386031	0.675451
	C157	C	0.110340	0.629486	0.676122
	C158	C	0.890295	0.630240	0.315905
	C159	C	0.109958	0.382477	0.314141
	C160	C	0.375788	0.689385	0.885959
	C161	C	0.621319	0.688727	0.105873
	C162	C	0.622698	0.327588	0.886968
	C163	C	0.375734	0.326291	0.106118
	C164	C	0.680762	0.898303	0.372289
	C165	C	0.679649	0.118119	0.617746
	C166	C	0.317963	0.899902	0.621076
	C167	C	0.317825	0.117522	0.372289
	C168	C	0.875438	0.397770	0.178910
	C169	C	0.123213	0.617309	0.178160
	C170	C	0.122443	0.396756	0.816603
	C171	C	0.875652	0.616923	0.814519
	C172	C	0.183339	0.883149	0.386774
	C173	C	0.181474	0.131360	0.605662
	C174	C	0.816973	0.132620	0.385707
	C175	C	0.820198	0.886356	0.605678
	C176	C	0.390704	0.192183	0.870737
	C177	C	0.609572	0.189009	0.119939
	C178	C	0.388986	0.825907	0.120227
	C179	C	0.609135	0.826098	0.871415
	C180	C	0.388989	0.883705	0.178056
	C181	C	0.609957	0.130012	0.176368
	C182	C	0.391103	0.134694	0.812678
	C183	C	0.609639	0.884659	0.814295
	C184	C	0.874714	0.190567	0.385885
	C185	C	0.122895	0.188646	0.605864
	C186	C	0.126376	0.824710	0.386996
	C187	C	0.877482	0.827773	0.605267
	C188	C	0.180543	0.397032	0.874342
	C189	C	0.180519	0.617878	0.119575
	C190	C	0.817202	0.398393	0.121575
	C191	C	0.818687	0.617819	0.873605
	C192	C	0.404568	0.098549	0.590397
	C193	C	0.596042	0.917301	0.592436
	C194	C	0.595019	0.098598	0.398419
	C195	C	0.404321	0.917788	0.400151
	C196	C	0.596112	0.410926	0.088585
	C197	C	0.596532	0.604582	0.904653
	C198	C	0.403676	0.604388	0.086214
	C199	C	0.404851	0.412696	0.906474
	C200	C	0.091356	0.602715	0.400677
	C201	C	0.908941	0.604721	0.592100
	C202	C	0.091062	0.409781	0.592670
	C203	C	0.910066	0.412087	0.400785
	C204	C	0.903546	0.597548	0.092857
	C205	C	0.096150	0.417762	0.092139
	C206	C	0.096630	0.598333	0.898628
	C207	C	0.902925	0.417217	0.899693
	C208	C	0.096264	0.910832	0.586803
	C209	C	0.094031	0.102255	0.406285
	C210	C	0.902294	0.104710	0.586172
	C211	C	0.903366	0.911201	0.403909
	C212	C	0.590637	0.105049	0.900402
	C213	C	0.408701	0.104812	0.091840
	C214	C	0.589295	0.911574	0.091420
	C215	C	0.409745	0.913812	0.901203
	Zn216	Zn	0.499829	0.008655	0.746129
	Zn217	Zn	0.499370	0.007652	0.245018
	Zn218	Zn	0.749639	0.507730	-0.003226
	Zn219	Zn	0.249969	0.508264	-0.003736
	Zn220	Zn	0.000495	0.757940	0.495579
	Zn221	Zn	-0.000585	0.257469	0.495958
	Zn222	Zn	-0.000315	0.507175	0.745754
	Zn223	Zn	-0.000081	0.506915	0.246288
	Zn224	Zn	0.498764	0.758171	-0.004627
	Zn225	Zn	0.499682	0.258175	-0.003255
	Zn226	Zn	0.749094	0.008052	0.495339
	Zn227	Zn	0.249585	0.007671	0.496120
	N228	N	0.412129	0.974657	0.677024
	N229	N	0.587532	0.042847	0.676798
	N230	N	0.586628	0.972633	0.314877
	N231	N	0.412475	0.042964	0.315315
	N232	N	0.678592	0.422175	0.961389
	N233	N	0.678474	0.594093	0.031970
	N234	N	0.319878	0.594633	0.960168
	N235	N	0.320088	0.421684	0.032315
	N236	N	0.965785	0.688531	0.408551
	N237	N	0.035323	0.687793	0.582797
	N238	N	0.964191	0.327790	0.582472
	N239	N	0.035051	0.326247	0.408546
	N240	N	0.964226	0.421117	0.675269
	N241	N	0.035394	0.593637	0.675500
	N242	N	0.964892	0.593387	0.317191
	N243	N	0.035867	0.420306	0.316319
	N244	N	0.412418	0.688292	0.960504
	N245	N	0.585918	0.688265	0.030607
	N246	N	0.587100	0.327645	0.962125
	N247	N	0.412812	0.327789	0.031764
	N248	N	0.679461	0.972925	0.408368
	N249	N	0.678349	0.043814	0.581250
	N250	N	0.319972	0.973430	0.582950
	N251	N	0.319369	0.043143	0.408926
	N252	N	0.912602	0.471845	0.176973
	N253	N	0.087293	0.542724	0.177108
	N254	N	0.086606	0.471584	0.816463
	N255	N	0.911840	0.542205	0.815108
	N256	N	0.180828	0.920424	0.460932
	N257	N	0.179582	0.094337	0.531434
	N258	N	0.818347	0.095753	0.460152
	N259	N	0.820669	0.922256	0.530780
	N260	N	0.464963	0.189911	0.908434
	N261	N	0.534666	0.188694	0.083695
	N262	N	0.463335	0.827659	0.082747
	N263	N	0.534632	0.827985	0.908497
	N264	N	0.463486	0.920592	0.176129
	N265	N	0.535281	0.093553	0.174763
	N266	N	0.465270	0.096933	0.815070
	N267	N	0.535468	0.922230	0.816336
	N268	N	0.911334	0.189188	0.460413
	N269	N	0.085315	0.186613	0.531805
	N270	N	0.089064	0.826058	0.461318
	N271	N	0.913078	0.827861	0.530144
	N272	N	0.180207	0.472253	0.909440
	N273	N	0.179543	0.543824	0.082587
	N274	N	0.818452	0.472824	0.084836
	N275	N	0.819994	0.543640	0.910347
	O276	O	1.161821	1.030202	-0.180482
	H277	H	1.142105	1.017613	-0.172801
	H278	H	1.176802	1.017212	-0.197351
	O279	O	-0.006252	-0.027227	1.036166
	H280	H	-0.019450	-0.020211	1.033031
	H281	H	0.000693	-0.002677	1.040459
	O282	O	0.707329	0.687336	0.703587
	H283	H	0.713921	0.681203	0.713457
	H284	H	0.715905	0.697630	0.719223
	O285	O	0.291384	0.485700	0.485038
	H286	H	0.289026	0.486125	0.489393
	H287	H	0.285118	0.499308	0.476397
	O288	O	1.307232	-0.301139	1.303098
	H289	H	1.343305	-0.284649	1.289975
	H290	H	1.294494	-0.284138	1.334014
	O291	O	0.555770	0.723505	0.478363
	H292	H	0.568650	0.719726	0.490236
	H293	H	0.558605	0.714882	0.487549
	O294	O	-0.184510	-0.005142	0.011043
	H295	H	-0.181304	-0.010332	0.016695
	H296	H	-0.184914	0.002850	0.012110
	O297	O	0.829532	0.046566	0.200867
	H298	H	0.820377	0.029247	0.209344
	H299	H	0.825786	0.031775	0.190479
	O300	O	0.215211	-0.119458	0.019663
	H301	H	0.224563	-0.115897	0.036597
	H302	H	0.201154	-0.137744	0.021050
	O303	O	-0.209473	-0.202330	0.190621
	H304	H	-0.224384	-0.206296	0.217372
	H305	H	-0.189866	-0.217485	0.206972
	O306	O	1.003493	0.119924	-0.019300
	H307	H	0.996516	0.126835	-0.021493
	H308	H	0.997417	0.110071	-0.013065
	O309	O	0.659795	0.314672	0.303915
	H310	H	0.647807	0.315346	0.295966
	H311	H	0.654078	0.335360	0.312460
	O312	O	0.452566	0.608446	0.656998
	H313	H	0.446302	0.607250	0.658711
	H314	H	0.448006	0.609744	0.649229
	O315	O	0.335258	0.320942	0.481415
	H316	H	0.327519	0.331669	0.482338
	H317	H	0.343807	0.315598	0.468202
	O318	O	0.882464	1.012211	-0.191525
	H319	H	0.875899	1.009315	-0.185221
	H320	H	0.883943	1.022558	-0.194708
	O321	O	-0.034980	0.932206	1.219742
	H322	H	-0.027803	0.959173	1.214608
	H323	H	-0.037185	0.956429	1.227609
	O324	O	0.784608	-0.109566	1.038838
	H325	H	0.782919	-0.098797	1.057555
	H326	H	0.767186	-0.135439	1.039925
	O327	O	1.216685	0.794205	0.780866
	H328	H	1.198664	0.795258	0.810396
	H329	H	1.195780	0.807208	0.789273
	O330	O	0.713417	0.514355	0.411009
	H331	H	0.698582	0.506852	0.402047
	H332	H	0.707825	0.520873	0.416918
	O333	O	0.405024	0.309223	0.689214
	H334	H	0.398487	0.309002	0.690637
	H335	H	0.398279	0.313718	0.682252
	O336	O	0.704959	0.705302	0.520079
	H337	H	0.709517	0.709517	0.537078
	H338	H	0.721359	0.711718	0.530526
	O339	O	0.293759	0.718218	0.466090
	H340	H	0.274736	0.728786	0.471545
	H341	H	0.292055	0.714540	0.475268
	O342	O	-0.001102	1.012609	-0.167670
	H343	H	-0.004647	1.020565	-0.159814
	H344	H	0.001326	1.030211	-0.163678
	O345	O	0.200431	0.208258	0.108833
	H346	H	0.180427	0.219740	0.104842
	H347	H	0.203847	0.205957	0.069972
	O348	O	0.392150	0.511082	0.520305
	H349	H	0.405237	0.517025	0.512548
	H350	H	0.388292	0.515556	0.532717
	O351	O	0.217919	0.036481	1.215777
	H352	H	0.228155	0.062466	1.223902
	H353	H	0.231572	0.063978	1.231058
	O354	O	1.028636	0.226722	1.090912
	H355	H	1.033793	0.219630	1.078606
	H356	H	1.031686	0.236900	1.100159
	O357	O	0.350397	0.662769	0.583128
	H358	H	0.336676	0.659522	0.602050
	H359	H	0.347400	0.666600	0.567480
	O360	O	0.283883	0.538426	0.276220
	H361	H	0.287746	0.582897	0.281121
	H362	H	0.252488	0.548398	0.251205
	O363	O	0.656960	0.295686	0.488096
	H364	H	0.679398	0.292654	0.496081
	H365	H	0.654647	0.288198	0.491077
	O366	O	0.783988	0.230662	0.964680
	H367	H	0.770819	0.245174	0.938957
	H368	H	0.775374	0.239501	0.939420
	O369	O	0.164019	-0.007663	1.045899
	H370	H	0.164389	-0.008085	1.035617
	H371	H	0.164697	-0.015072	1.038240
	O372	O	0.032593	0.814456	0.786595
	H373	H	0.024722	0.805693	0.786496
	H374	H	0.013320	0.824856	0.787225
	O375	O	1.064655	0.216048	0.148412
	H376	H	1.060848	0.222181	0.113531
	H377	H	1.057144	0.227802	0.139445
	O378	O	0.221435	0.266095	0.772861
	H379	H	0.219295	0.257622	0.781340
	H380	H	0.213770	0.252605	0.745246
	O381	O	-0.037165	0.794414	0.208113
	H382	H	-0.039260	0.795204	0.228013
	H383	H	-0.030921	0.803781	0.220852
	O384	O	0.510227	0.521530	0.280297
	H385	H	0.499594	0.511067	0.281872
	H386	H	0.485867	0.520074	0.285205
	O387	O	0.212886	0.981207	1.035274
	H388	H	0.213014	0.969277	1.023108
	H389	H	0.205620	0.981912	1.034980
	O390	O	0.047453	1.146478	0.876612
	H391	H	0.037133	1.142824	0.891474
	H392	H	0.046814	1.152214	0.874597
	O393	O	1.170491	0.142283	0.032650
	H394	H	1.169201	0.161988	0.022941
	H395	H	1.183700	0.136057	0.031239
	O396	O	0.417134	0.449947	0.446458
	H397	H	0.411111	0.456289	0.429523
	H398	H	0.416262	0.468242	0.457549
	O399	O	0.457153	0.394878	0.295147
	H400	H	0.439495	0.397455	0.299506
	H401	H	0.440691	0.390363	0.289789
	O402	O	0.792996	0.218409	0.790887
	H403	H	0.778810	0.192056	0.773656
	H404	H	0.767684	0.220495	0.765155
	O405	O	0.527868	0.289664	0.608609
	H406	H	0.522296	0.280730	0.605015
	H407	H	0.506404	0.293776	0.622840
	O408	O	0.968465	1.227905	0.780400
	H409	H	0.949303	1.245795	0.758324
	H410	H	0.937360	1.229328	0.780978
	O411	O	0.778421	0.895108	-0.043021
	H412	H	0.774581	0.894101	-0.007621
	H413	H	0.776885	0.886520	-0.024964
	O414	O	0.057517	-0.213238	0.050889
	H415	H	0.040423	-0.206597	0.057169
	H416	H	0.042857	-0.211248	0.066731
	O417	O	0.545752	0.309515	0.353438
	H418	H	0.560372	0.298532	0.353860
	H419	H	0.554403	0.312815	0.337320
	O420	O	0.972301	-0.069477	0.917580
	H421	H	0.981582	-0.072335	0.931969
	H422	H	0.970654	-0.057758	0.920621
	O423	O	0.840745	0.824589	-0.192349
	H424	H	0.857062	0.832079	-0.176510
	H425	H	0.864931	0.845445	-0.177778
	O426	O	0.617135	0.522522	0.480915
	H427	H	0.605406	0.526503	0.488333
	H428	H	0.611304	0.519663	0.482306
	O429	O	0.425238	0.509115	0.580314
	H430	H	0.411922	0.521776	0.580808
	H431	H	0.418350	0.516865	0.584176
	O432	O	0.891155	0.156945	1.170616
	H433	H	0.876724	0.162290	1.170643
	H434	H	0.896459	0.145399	1.163035
	O435	O	0.503212	0.678424	0.325839
	H436	H	0.514663	0.680310	0.337533
	H437	H	0.510193	0.683407	0.314357
	O438	O	0.570207	0.536719	0.602073
	H439	H	0.556003	0.531573	0.605243
	H440	H	0.554949	0.534773	0.600246
	O441	O	0.680281	0.698842	0.316732
	H442	H	0.666529	0.677841	0.333083
	H443	H	0.660239	0.687005	0.332177
	O444	O	0.655467	0.517549	0.289207
	H445	H	0.641426	0.514815	0.291546
	H446	H	0.660134	0.507393	0.283763
	O447	O	0.687717	0.316051	0.686392
	H448	H	0.670959	0.334921	0.673860
	H449	H	0.662629	0.336672	0.676254
	O450	O	1.089028	-0.026527	-0.056362
	H451	H	1.062926	-0.020054	-0.054181
	H452	H	1.099945	-0.031879	-0.035678
	O453	O	0.281136	0.472394	0.717683
	H454	H	0.259733	0.472051	0.737887
	H455	H	0.279699	0.437283	0.722800
	O456	O	0.090641	0.793982	0.953909
	H457	H	0.071661	0.792131	0.966688
	H458	H	0.090743	0.780095	0.955961
	O459	O	0.698530	0.564082	0.699037
	H460	H	0.709864	0.572073	0.709199
	H461	H	0.688967	0.562224	0.698222
	O462	O	0.679855	0.437961	0.563542
	H463	H	0.671984	0.444744	0.550273
	H464	H	0.686835	0.454619	0.566595
	O465	O	0.422058	0.583729	0.550420
	H466	H	0.426272	0.574180	0.564817
	H467	H	0.407878	0.594641	0.567890
	O468	O	-0.009907	1.043586	0.159695
	H469	H	-0.006575	1.043441	0.148137
	H470	H	-0.015726	1.041284	0.163688
	O471	O	0.505297	0.727514	0.667742
	H472	H	0.499027	0.741419	0.676588
	H473	H	0.514472	0.726419	0.665016
	O474	O	0.833187	0.985013	-0.154567
	H475	H	0.826240	0.976352	-0.130025
	H476	H	0.816503	0.971385	-0.163538
	O477	O	0.385185	0.300026	0.493320
	H478	H	0.394272	0.295957	0.493659
	H479	H	0.384898	0.303943	0.466821
