data_Molecule from HDF5

_cell_length_a		16.476470
_cell_length_b		16.618122
_cell_length_c		16.344610
_cell_angle_alpha	90.142248
_cell_angle_beta	89.821314
_cell_angle_gamma	89.944327
_symmetry_space_group_name_H-M	'P 1'
_symmetry_Int_Tables_number		1

loop_
	_symmetry_equiv_pos_as_xyz
	x,y,z

loop_
	_atom_site_label
	_atom_site_type_symbol
	_atom_site_fract_x
	_atom_site_fract_y
	_atom_site_fract_z
	H0	H	0.397836	0.844772	0.725730
	H1	H	0.604500	0.158757	0.723915
	H2	H	0.604534	0.844989	0.283741
	H3	H	0.397646	0.160062	0.283764
	H4	H	0.724297	0.395945	0.845492
	H5	H	0.718166	0.602761	0.163877
	H6	H	0.279287	0.607734	0.847707
	H7	H	0.280427	0.396009	0.164662
	H8	H	0.849982	0.726409	0.394738
	H9	H	0.160573	0.726387	0.612985
	H10	H	0.847420	0.278583	0.611917
	H11	H	0.161258	0.275978	0.393906
	H12	H	0.846394	0.396866	0.726161
	H13	H	0.161217	0.607841	0.727590
	H14	H	0.845377	0.601665	0.288010
	H15	H	0.163374	0.396888	0.282498
	H16	H	0.390746	0.726409	0.848350
	H17	H	0.605253	0.722431	0.161886
	H18	H	0.609270	0.279013	0.846405
	H19	H	0.395254	0.279825	0.164056
	H20	H	0.724587	0.846053	0.397751
	H21	H	0.723020	0.157862	0.609075
	H22	H	0.279537	0.846068	0.611193
	H23	H	0.280032	0.158855	0.399097
	H24	H	0.902955	0.343760	0.222056
	H25	H	0.106340	0.659407	0.225549
	H26	H	0.111251	0.346661	0.780468
	H27	H	0.897060	0.658222	0.781775
	H28	H	0.225769	0.896474	0.344282
	H29	H	0.222891	0.105628	0.663163
	H30	H	0.785898	0.102847	0.345417
	H31	H	0.782274	0.896178	0.663491
	H32	H	0.347148	0.225477	0.895799
	H33	H	0.658668	0.222831	0.108977
	H34	H	0.345684	0.778049	0.113532
	H35	H	0.657739	0.775485	0.893502
	H36	H	0.344443	0.897895	0.226449
	H37	H	0.661213	0.102963	0.220442
	H38	H	0.344689	0.105097	0.783966
	H39	H	0.661091	0.895966	0.782818
	H40	H	0.900519	0.220574	0.346088
	H41	H	0.111566	0.225125	0.660766
	H42	H	0.112606	0.778194	0.345372
	H43	H	0.896441	0.778875	0.662590
	H44	H	0.226829	0.346428	0.898349
	H45	H	0.227308	0.657593	0.115212
	H46	H	0.782278	0.344851	0.107755
	H47	H	0.780621	0.658766	0.898652
	H48	H	0.411771	0.113078	0.589390
	H49	H	0.589218	0.890580	0.592601
	H50	H	0.591112	0.113950	0.411428
	H51	H	0.413055	0.890503	0.414096
	H52	H	0.592597	0.409594	0.119142
	H53	H	0.585191	0.593580	0.890263
	H54	H	0.416582	0.590850	0.117342
	H55	H	0.416326	0.411755	0.893207
	H56	H	0.118156	0.591141	0.417384
	H57	H	0.894117	0.587439	0.589965
	H58	H	0.117072	0.416750	0.596202
	H59	H	0.889117	0.409147	0.407473
	H60	H	0.117817	0.405966	0.588974
	H61	H	0.891355	0.591272	0.594807
	H62	H	0.116590	0.588972	0.417709
	H63	H	0.891505	0.403436	0.419420
	H64	H	0.416545	0.590087	0.117730
	H65	H	0.595965	0.591825	0.886954
	H66	H	0.591844	0.414583	0.117540
	H67	H	0.414161	0.413936	0.892368
	H68	H	0.596024	0.114078	0.418183
	H69	H	0.595819	0.889115	0.590212
	H70	H	0.411131	0.114947	0.596549
	H71	H	0.417537	0.892146	0.414738
	H72	H	0.909867	0.614418	0.094551
	H73	H	0.088473	0.390602	0.096462
	H74	H	0.090272	0.611031	0.921088
	H75	H	0.914271	0.390668	0.915446
	H76	H	0.091054	0.908910	0.617848
	H77	H	0.092643	0.092251	0.388621
	H78	H	0.917219	0.087338	0.617181
	H79	H	0.918533	0.910838	0.391330
	H80	H	0.616922	0.095621	0.917144
	H81	H	0.385326	0.100670	0.093170
	H82	H	0.615812	0.911424	0.093947
	H83	H	0.392267	0.917421	0.915200
	H84	H	0.613600	0.910088	0.087458
	H85	H	0.392168	0.088613	0.085018
	H86	H	0.613526	0.087947	0.919211
	H87	H	0.388244	0.909576	0.913444
	H88	H	0.917314	0.095242	0.619241
	H89	H	0.094694	0.085516	0.390881
	H90	H	0.094065	0.915411	0.616569
	H91	H	0.913581	0.911557	0.390613
	H92	H	0.093179	0.613665	0.917575
	H93	H	0.091441	0.392402	0.087481
	H94	H	0.908167	0.616259	0.097529
	H95	H	0.914048	0.391154	0.915983
	H96	H	0.417430	0.111832	0.594243
	H97	H	0.594211	0.886792	0.596865
	H98	H	0.598648	0.117123	0.410964
	H99	H	0.414311	0.892405	0.418662
	H100	H	0.588175	0.411189	0.117496
	H101	H	0.589688	0.583470	0.891737
	H102	H	0.416842	0.590149	0.117792
	H103	H	0.417032	0.415103	0.894400
	H104	H	0.118135	0.589660	0.415167
	H105	H	0.892833	0.593557	0.588285
	H106	H	0.112373	0.417087	0.583459
	H107	H	0.895512	0.415777	0.417617
	H108	H	0.911184	0.615048	0.097648
	H109	H	0.097346	0.388116	0.093801
	H110	H	0.087960	0.613218	0.916440
	H111	H	0.913603	0.390622	0.916034
	H112	H	0.087190	0.913967	0.614095
	H113	H	0.087684	0.087865	0.392176
	H114	H	0.910562	0.091079	0.620724
	H115	H	0.916748	0.914865	0.392486
	H116	H	0.616406	0.089365	0.911009
	H117	H	0.388174	0.086862	0.100094
	H118	H	0.612362	0.915907	0.090717
	H119	H	0.391387	0.911050	0.921525
	C120	C	0.380779	0.009992	0.626057
	C121	C	0.624451	0.992573	0.625703
	C122	C	0.625407	0.011099	0.381972
	C123	C	0.381967	0.994770	0.383316
	C124	C	0.623692	0.380061	0.012941
	C125	C	0.622212	0.621875	0.994804
	C126	C	0.381722	0.623054	0.013547
	C127	C	0.382066	0.380858	0.997699
	C128	C	0.013343	0.621672	0.384220
	C129	C	0.995928	0.623340	0.625364
	C130	C	0.012336	0.380649	0.624069
	C131	C	0.996090	0.377674	0.381416
	C132	C	0.880155	0.510616	0.126719
	C133	C	0.125058	0.493498	0.126451
	C134	C	0.124891	0.510306	0.884033
	C135	C	0.881219	0.493819	0.882603
	C136	C	0.125127	0.879947	0.511758
	C137	C	0.124508	0.121915	0.495120
	C138	C	0.883496	0.122150	0.513636
	C139	C	0.882929	0.879887	0.495940
	C140	C	0.511437	0.123020	0.883066
	C141	C	0.492982	0.123166	0.125040
	C142	C	0.510295	0.880713	0.124509
	C143	C	0.493973	0.879057	0.882268
	C144	C	0.378863	0.892050	0.686124
	C145	C	0.624438	0.111367	0.684702
	C146	C	0.624882	0.892515	0.322905
	C147	C	0.379295	0.112786	0.323255
	C148	C	0.684378	0.377605	0.893273
	C149	C	0.679913	0.622603	0.115553
	C150	C	0.319393	0.625936	0.895149
	C151	C	0.321064	0.378280	0.116977
	C152	C	0.895853	0.683633	0.379147
	C153	C	0.113860	0.684831	0.629859
	C154	C	0.894358	0.319571	0.628610
	C155	C	0.114117	0.316738	0.376834
	C156	C	0.893713	0.378554	0.685536
	C157	C	0.114247	0.626023	0.687039
	C158	C	0.893584	0.621868	0.325927
	C159	C	0.115298	0.377040	0.321368
	C160	C	0.375145	0.684876	0.895433
	C161	C	0.624062	0.682019	0.114490
	C162	C	0.626982	0.319713	0.893561
	C163	C	0.377924	0.319813	0.116440
	C164	C	0.684252	0.892785	0.379896
	C165	C	0.683355	0.110816	0.627802
	C166	C	0.319926	0.892715	0.629076
	C167	C	0.321073	0.112356	0.381043
	C168	C	0.881796	0.391527	0.184157
	C169	C	0.126459	0.611799	0.186829
	C170	C	0.129137	0.393544	0.821274
	C171	C	0.878858	0.611394	0.822095
	C172	C	0.186180	0.877642	0.392462
	C173	C	0.184054	0.124599	0.615032
	C174	C	0.824916	0.122559	0.393521
	C175	C	0.822084	0.877405	0.615493
	C176	C	0.393661	0.184281	0.878968
	C177	C	0.611810	0.182562	0.127014
	C178	C	0.392365	0.819495	0.129662
	C179	C	0.611261	0.817063	0.877125
	C180	C	0.391897	0.878798	0.186402
	C181	C	0.612921	0.123068	0.182616
	C182	C	0.392619	0.124465	0.823222
	C183	C	0.612851	0.876809	0.821567
	C184	C	0.882097	0.180835	0.393643
	C185	C	0.128660	0.184073	0.613753
	C186	C	0.129908	0.818772	0.392902
	C187	C	0.879312	0.819279	0.615074
	C188	C	0.186638	0.393337	0.879856
	C189	C	0.186307	0.610892	0.131484
	C190	C	0.822476	0.391813	0.126907
	C191	C	0.820670	0.611413	0.880138
	C192	C	0.406105	0.092065	0.600776
	C193	C	0.600120	0.910280	0.600452
	C194	C	0.601891	0.093676	0.406498
	C195	C	0.407644	0.912976	0.408777
	C196	C	0.598037	0.404757	0.096365
	C197	C	0.597401	0.596856	0.911469
	C198	C	0.408862	0.597599	0.095937
	C199	C	0.408341	0.406368	0.914899
	C200	C	0.096151	0.596968	0.409673
	C201	C	0.914292	0.597762	0.598803
	C202	C	0.094430	0.406215	0.597383
	C203	C	0.913361	0.402515	0.407488
	C204	C	0.903239	0.593733	0.103385
	C205	C	0.099815	0.411813	0.100269
	C206	C	0.098247	0.591421	0.910678
	C207	C	0.906777	0.412094	0.908234
	C208	C	0.098631	0.905378	0.594580
	C209	C	0.098999	0.095893	0.412137
	C210	C	0.907952	0.098155	0.597207
	C211	C	0.908982	0.905110	0.413012
	C212	C	0.594186	0.098134	0.908478
	C213	C	0.410135	0.098815	0.100106
	C214	C	0.592366	0.905399	0.098047
	C215	C	0.411992	0.905191	0.908942
	Zn216	Zn	0.502783	0.001050	0.754783
	Zn217	Zn	0.502390	0.002690	0.253308
	Zn218	Zn	0.751369	0.501560	0.003958
	Zn219	Zn	0.253936	0.502242	0.006100
	Zn220	Zn	0.004577	0.751740	0.503553
	Zn221	Zn	0.004657	0.250504	0.504079
	Zn222	Zn	0.003845	0.501950	0.753824
	Zn223	Zn	0.004254	0.501440	0.254903
	Zn224	Zn	0.501901	0.750858	0.003686
	Zn225	Zn	0.502153	0.251694	0.004374
	Zn226	Zn	0.754609	0.001257	0.504867
	Zn227	Zn	0.252372	0.001767	0.503617
	N228	N	0.415657	0.966098	0.684644
	N229	N	0.588801	0.036725	0.683834
	N230	N	0.589274	0.967087	0.323846
	N231	N	0.416594	0.038699	0.324641
	N232	N	0.682220	0.414621	0.968429
	N233	N	0.679154	0.586029	0.040052
	N234	N	0.323445	0.588045	0.969639
	N235	N	0.323445	0.415416	0.042075
	N236	N	0.971384	0.683620	0.414568
	N237	N	0.039250	0.683640	0.592387
	N238	N	0.969070	0.320833	0.591185
	N239	N	0.038895	0.317019	0.413318
	N240	N	0.968105	0.415915	0.682960
	N241	N	0.039963	0.588842	0.684570
	N242	N	0.967634	0.584039	0.328908
	N243	N	0.040865	0.414490	0.324170
	N244	N	0.413079	0.683238	0.970114
	N245	N	0.589149	0.681754	0.038303
	N246	N	0.589947	0.321069	0.968969
	N247	N	0.415257	0.321297	0.041145
	N248	N	0.684992	0.967556	0.415776
	N249	N	0.683674	0.035802	0.592124
	N250	N	0.320873	0.967143	0.592715
	N251	N	0.322682	0.038047	0.417551
	N252	N	0.916784	0.466546	0.184354
	N253	N	0.089270	0.537780	0.184105
	N254	N	0.091599	0.467402	0.823461
	N255	N	0.915880	0.537244	0.823409
	N256	N	0.183378	0.914838	0.467602
	N257	N	0.181604	0.086494	0.540385
	N258	N	0.825590	0.087009	0.469245
	N259	N	0.824032	0.914214	0.540426
	N260	N	0.468651	0.183526	0.915302
	N261	N	0.536088	0.183101	0.092183
	N262	N	0.466906	0.820637	0.091595
	N263	N	0.536302	0.818197	0.913992
	N264	N	0.465976	0.916431	0.183098
	N265	N	0.537914	0.087145	0.181528
	N266	N	0.466906	0.086919	0.825588
	N267	N	0.538770	0.914914	0.824628
	N268	N	0.917611	0.180951	0.469448
	N269	N	0.092519	0.182498	0.538185
	N270	N	0.092763	0.819862	0.468303
	N271	N	0.916512	0.820516	0.539514
	N272	N	0.184445	0.467098	0.917722
	N273	N	0.185603	0.536368	0.094739
	N274	N	0.821240	0.466921	0.092205
	N275	N	0.822052	0.537215	0.916936
	O276	O	0.481251	0.714522	0.536129
	H277	H	0.452454	0.708465	0.545768
	H278	H	0.478491	0.724884	0.558416
	O279	O	0.292498	0.524024	0.292960
	H280	H	0.272240	0.530163	0.268764
	H281	H	0.305222	0.555318	0.288743
	O282	O	1.163912	1.080778	0.175214
	H283	H	1.147563	1.088213	0.174577
	H284	H	1.162476	1.057923	0.160910
	O285	O	0.329516	0.321686	0.466283
	H286	H	0.319626	0.342055	0.460392
	H287	H	0.328167	0.321362	0.465802
	O288	O	0.048437	-0.133332	0.055166
	H289	H	0.037447	-0.129221	0.064446
	H290	H	0.045235	-0.139732	0.064539
	O291	O	0.540783	0.378414	0.707754
	H292	H	0.549070	0.373741	0.695802
	H293	H	0.554760	0.368018	0.710995
	O294	O	0.058075	1.174755	-0.094496
	H295	H	0.053144	1.180305	-0.094109
	H296	H	0.047849	1.168973	-0.094997
	O297	O	0.428230	0.301094	0.580334
	H298	H	0.409430	0.296039	0.573264
	H299	H	0.427386	0.296388	0.569359
	O300	O	0.722760	0.471224	0.420412
	H301	H	0.727278	0.445587	0.406715
	H302	H	0.737073	0.490095	0.406560
	O303	O	0.444631	0.545821	0.707761
	H304	H	0.428498	0.524396	0.708198
	H305	H	0.454450	0.516670	0.709730
	O306	O	-0.061610	1.052797	1.209898
	H307	H	-0.045787	1.029087	1.194628
	H308	H	-0.090436	1.027451	1.221274
	O309	O	0.323862	0.686282	0.314472
	H310	H	0.355126	0.688162	0.319126
	H311	H	0.333643	0.694961	0.346448
	O312	O	0.525532	0.684943	0.715368
	H313	H	0.515392	0.678315	0.738456
	H314	H	0.520021	0.678873	0.729909
	O315	O	-0.012512	-0.081075	0.992522
	H316	H	0.011074	-0.082451	1.001550
	H317	H	-0.026581	-0.093829	0.991088
	O318	O	-0.029002	0.790077	0.177174
	H319	H	-0.041954	0.792941	0.182943
	H320	H	-0.038237	0.785855	0.182362
	O321	O	0.704266	0.421969	0.673731
	H322	H	0.711464	0.429130	0.659851
	H323	H	0.699732	0.417202	0.651104
	O324	O	0.810748	0.191342	1.190010
	H325	H	0.829990	0.180298	1.169375
	H326	H	0.825600	0.165799	1.170759
	O327	O	1.186174	0.005543	0.971273
	H328	H	1.179451	0.012702	0.979939
	H329	H	1.192236	0.017064	0.968466
	O330	O	0.787882	0.077342	-0.206525
	H331	H	0.780238	0.087472	-0.203609
	H332	H	0.775621	0.087782	-0.216039
	O333	O	0.955674	0.959501	0.808423
	H334	H	0.941213	0.949721	0.811683
	H335	H	0.944277	0.946733	0.800788
	O336	O	0.835198	0.027396	1.040806
	H337	H	0.841380	0.016229	1.054028
	H338	H	0.826040	0.035325	1.031102
	O339	O	0.708300	0.293504	0.299439
	H340	H	0.701675	0.270603	0.278114
	H341	H	0.708869	0.275622	0.298197
	O342	O	0.725168	0.721608	0.524018
	H343	H	0.725175	0.731950	0.545307
	H344	H	0.739091	0.733039	0.554887
	O345	O	0.117441	0.201441	0.200743
	H346	H	0.093075	0.186367	0.208846
	H347	H	0.111639	0.200294	0.215729
	O348	O	1.049231	-0.054885	1.202972
	H349	H	1.061059	-0.061928	1.200255
	H350	H	1.055203	-0.057735	1.202430
	O351	O	0.971906	1.203638	0.098380
	H352	H	0.973898	1.204251	0.098239
	H353	H	0.971989	1.179533	0.113462
	O354	O	0.684735	0.694296	0.325659
	H355	H	0.674835	0.678225	0.346194
	H356	H	0.656116	0.691094	0.346933
	O357	O	0.806884	1.178414	0.872667
	H358	H	0.812563	1.185863	0.873795
	H359	H	0.800072	1.162189	0.882690
	O360	O	0.288375	0.474772	0.721562
	H361	H	0.252195	0.466397	0.756555
	H362	H	0.301441	0.429034	0.707985
	O363	O	0.287337	0.716232	0.474862
	H364	H	0.265001	0.726434	0.476394
	H365	H	0.267770	0.701531	0.489264
	O366	O	1.138033	0.064072	1.037103
	H367	H	1.139907	0.079773	1.019284
	H368	H	1.128484	0.036818	1.027274
	O369	O	0.514104	0.528791	0.325261
	H370	H	0.493557	0.521878	0.320016
	H371	H	0.529515	0.521959	0.337535
	O372	O	0.490984	0.697954	0.305502
	H373	H	0.500358	0.699308	0.312795
	H374	H	0.503249	0.686224	0.316887
	O375	O	-0.209645	0.952728	0.900783
	H376	H	-0.202557	0.973840	0.909281
	H377	H	-0.215860	0.971117	0.877800
	O378	O	0.989702	0.118968	-0.075406
	H379	H	1.004434	0.103790	-0.060305
	H380	H	0.982854	0.109129	-0.092202
	O381	O	1.146253	-0.070838	0.139695
	H382	H	1.151116	-0.072312	0.142633
	H383	H	1.169286	-0.071249	0.141383
	O384	O	0.177254	-0.031904	1.033726
	H385	H	0.183287	-0.031090	1.037338
	H386	H	0.185822	-0.029433	1.018506
	O387	O	-0.015543	1.210366	0.798793
	H388	H	-0.026062	1.223387	0.792909
	H389	H	-0.028743	1.209197	0.802059
	O390	O	0.194112	-0.191665	0.815418
	H391	H	0.197716	-0.203983	0.822770
	H392	H	0.204127	-0.148737	0.816599
	O393	O	0.989460	0.780892	-0.212342
	H394	H	1.015250	0.775794	-0.217146
	H395	H	0.990184	0.757409	-0.220415
	O396	O	0.610643	0.364045	0.527044
	H397	H	0.616663	0.372655	0.513248
	H398	H	0.610156	0.364620	0.501564
	O399	O	0.471209	0.521048	0.501579
	H400	H	0.479874	0.543555	0.511067
	H401	H	0.465736	0.506194	0.499218
	O402	O	-0.100175	-0.153020	0.873103
	H403	H	-0.096873	-0.175938	0.855553
	H404	H	-0.086923	-0.143885	0.897845
	O405	O	-0.210924	-0.032905	0.219760
	H406	H	-0.220920	-0.056560	0.217579
	H407	H	-0.229300	-0.059282	0.237842
	O408	O	0.625654	0.508461	0.686642
	H409	H	0.620273	0.511457	0.667226
	H410	H	0.627644	0.481566	0.686400
	O411	O	0.643610	0.592143	0.415731
	H412	H	0.627620	0.602303	0.416469
	H413	H	0.664161	0.598113	0.414816
	O414	O	0.545239	0.497958	0.510147
	H415	H	0.539589	0.512943	0.503435
	H416	H	0.562672	0.495639	0.515900
	O417	O	0.648944	0.396386	0.295094
	H418	H	0.645259	0.375874	0.280162
	H419	H	0.649114	0.389713	0.292521
	O420	O	0.465243	0.444213	0.343956
	H421	H	0.465181	0.452001	0.339053
	H422	H	0.466305	0.445370	0.362166
	O423	O	-0.197071	0.797035	0.210245
	H424	H	-0.206613	0.783801	0.174508
	H425	H	-0.213598	0.768900	0.230690
	O426	O	0.675424	1.421771	0.650898
	H427	H	0.675742	1.429581	0.642189
	H428	H	0.660842	1.414683	0.636864
	O429	O	0.216347	0.969897	-0.206869
	H430	H	0.241994	0.970173	-0.233208
	H431	H	0.196402	0.991469	-0.206062
	O432	O	0.318198	0.318575	0.686655
	H433	H	0.346892	0.316975	0.665024
	H434	H	0.298106	0.286851	0.692941
	O435	O	-0.200498	0.158394	-0.008379
	H436	H	-0.208589	0.166925	-0.030372
	H437	H	-0.183126	0.153344	-0.007011
	O438	O	1.120076	0.106156	-0.167805
	H439	H	1.114513	0.096091	-0.156576
	H440	H	1.098428	0.092430	-0.165875
	O441	O	0.509214	0.288796	0.376829
	H442	H	0.525082	0.268549	0.366861
	H443	H	0.493313	0.305705	0.377736
	O444	O	0.210571	0.792991	0.983668
	H445	H	0.227290	0.773350	0.971706
	H446	H	0.202834	0.791913	0.995227
	O447	O	0.720912	0.285692	0.474761
	H448	H	0.742252	0.265527	0.458852
	H449	H	0.718602	0.290319	0.463926
	O450	O	0.299135	0.425367	0.440880
	H451	H	0.293251	0.431188	0.410397
	H452	H	0.310339	0.448191	0.452701
	O453	O	0.349495	0.672622	0.636815
	H454	H	0.349171	0.666437	0.639064
	H455	H	0.350440	0.649182	0.640259
	O456	O	1.207329	0.197950	-0.011377
	H457	H	1.209807	0.205567	0.009211
	H458	H	1.205404	0.203999	0.001868
	O459	O	0.288460	0.544310	0.549016
	H460	H	0.306280	0.532550	0.551518
	H461	H	0.282182	0.530223	0.566870
	O462	O	0.650896	0.688129	0.634215
	H463	H	0.612829	0.692677	0.647610
	H464	H	0.647449	0.650178	0.640669
	O465	O	0.785359	-0.210714	0.038739
	H466	H	0.787724	-0.203483	0.025556
	H467	H	0.773076	-0.219451	0.030554
