data_Molecule from HDF5

_cell_length_a		16.208943
_cell_length_b		16.281369
_cell_length_c		16.211881
_cell_angle_alpha	89.828236
_cell_angle_beta	89.676952
_cell_angle_gamma	89.865447
_symmetry_space_group_name_H-M	'P 1'
_symmetry_Int_Tables_number		1

loop_
	_symmetry_equiv_pos_as_xyz
	x,y,z

loop_
	_atom_site_label
	_atom_site_type_symbol
	_atom_site_fract_x
	_atom_site_fract_y
	_atom_site_fract_z
	H0	H	0.404414	0.842403	0.707617
	H1	H	0.600670	0.169991	0.703944
	H2	H	0.604377	0.841984	0.276040
	H3	H	0.404780	0.169251	0.275420
	H4	H	0.723156	0.407577	0.827145
	H5	H	0.718876	0.602110	0.156077
	H6	H	0.294253	0.606527	0.827080
	H7	H	0.293544	0.407457	0.155303
	H8	H	0.840589	0.721062	0.392100
	H9	H	0.168816	0.722679	0.589251
	H10	H	0.841002	0.292609	0.592856
	H11	H	0.169195	0.290409	0.389930
	H12	H	0.843146	0.408607	0.708441
	H13	H	0.171636	0.604567	0.700975
	H14	H	0.841694	0.605382	0.276639
	H15	H	0.171231	0.408500	0.277611
	H16	H	0.408775	0.720492	0.827735
	H17	H	0.606989	0.721290	0.155408
	H18	H	0.607315	0.291593	0.826912
	H19	H	0.406140	0.291319	0.155270
	H20	H	0.722505	0.843115	0.391024
	H21	H	0.717475	0.170273	0.588666
	H22	H	0.289457	0.842620	0.592010
	H23	H	0.290328	0.169891	0.393351
	H24	H	0.908805	0.342692	0.207300
	H25	H	0.104935	0.670779	0.204318
	H26	H	0.108461	0.343130	0.774662
	H27	H	0.911200	0.671349	0.778676
	H28	H	0.220330	0.908752	0.327548
	H29	H	0.218127	0.104459	0.656504
	H30	H	0.791851	0.106620	0.326273
	H31	H	0.791188	0.908630	0.655344
	H32	H	0.342207	0.222633	0.892723
	H33	H	0.670532	0.219360	0.089614
	H34	H	0.342428	0.789310	0.092832
	H35	H	0.670202	0.793302	0.891569
	H36	H	0.340778	0.907070	0.206314
	H37	H	0.669666	0.103003	0.204422
	H38	H	0.339935	0.104331	0.779835
	H39	H	0.669188	0.908348	0.775722
	H40	H	0.906885	0.222026	0.327681
	H41	H	0.102923	0.221016	0.655947
	H42	H	0.104536	0.793358	0.327313
	H43	H	0.903735	0.791275	0.654312
	H44	H	0.223356	0.342107	0.893093
	H45	H	0.220825	0.670589	0.087720
	H46	H	0.791864	0.342779	0.092422
	H47	H	0.793236	0.670345	0.892415
	H48	H	0.414482	0.123522	0.590854
	H49	H	0.598433	0.887953	0.587216
	H50	H	0.598154	0.123227	0.393036
	H51	H	0.407524	0.889400	0.402878
	H52	H	0.604642	0.421402	0.107347
	H53	H	0.600944	0.601857	0.871807
	H54	H	0.416107	0.599934	0.108638
	H55	H	0.427842	0.412019	0.877239
	H56	H	0.122810	0.602562	0.399595
	H57	H	0.887326	0.593979	0.591169
	H58	H	0.125791	0.409439	0.584837
	H59	H	0.886832	0.414874	0.391013
	H60	H	0.121639	0.411653	0.575996
	H61	H	0.885270	0.608155	0.586288
	H62	H	0.121727	0.599139	0.398190
	H63	H	0.887420	0.407968	0.405040
	H64	H	0.412004	0.599417	0.109825
	H65	H	0.602641	0.598794	0.874327
	H66	H	0.588793	0.411716	0.105439
	H67	H	0.410179	0.405433	0.869230
	H68	H	0.594049	0.121996	0.397175
	H69	H	0.595790	0.890661	0.582628
	H70	H	0.412422	0.120274	0.579319
	H71	H	0.412263	0.887398	0.393210
	H72	H	0.916985	0.623731	0.087728
	H73	H	0.102670	0.388801	0.089156
	H74	H	0.117554	0.627532	0.899608
	H75	H	0.928680	0.395626	0.904618
	H76	H	0.093732	0.910534	0.608516
	H77	H	0.092398	0.103652	0.375429
	H78	H	0.913185	0.108460	0.610010
	H79	H	0.915223	0.922322	0.376573
	H80	H	0.623978	0.102174	0.897681
	H81	H	0.390208	0.094685	0.082836
	H82	H	0.622452	0.909698	0.080546
	H83	H	0.385374	0.914506	0.888732
	H84	H	0.620768	0.917562	0.080839
	H85	H	0.385268	0.101473	0.088229
	H86	H	0.621944	0.096707	0.898491
	H87	H	0.386266	0.902054	0.903559
	H88	H	0.901537	0.098017	0.610369
	H89	H	0.103927	0.101301	0.372820
	H90	H	0.099706	0.912340	0.609231
	H91	H	0.919866	0.907820	0.373120
	H92	H	0.095871	0.625406	0.881498
	H93	H	0.096217	0.392129	0.084715
	H94	H	0.912656	0.620970	0.080141
	H95	H	0.904251	0.389694	0.909112
	H96	H	0.404375	0.125581	0.585877
	H97	H	0.600776	0.888762	0.582137
	H98	H	0.599922	0.122537	0.399527
	H99	H	0.417632	0.891363	0.401393
	H100	H	0.604381	0.402621	0.112240
	H101	H	0.598312	0.598741	0.875114
	H102	H	0.414475	0.595413	0.107641
	H103	H	0.411366	0.424526	0.875579
	H104	H	0.124119	0.601465	0.395339
	H105	H	0.891757	0.597140	0.577193
	H106	H	0.121326	0.418213	0.583267
	H107	H	0.892880	0.422518	0.403261
	H108	H	0.908298	0.625197	0.086373
	H109	H	0.103311	0.390005	0.081864
	H110	H	0.092808	0.616765	0.908738
	H111	H	0.913463	0.385044	0.885410
	H112	H	0.095148	0.916636	0.607783
	H113	H	0.097189	0.092583	0.377055
	H114	H	0.916043	0.094066	0.605817
	H115	H	0.903635	0.911854	0.369888
	H116	H	0.623424	0.098410	0.893226
	H117	H	0.388898	0.102983	0.079020
	H118	H	0.623066	0.913157	0.087070
	H119	H	0.392171	0.919924	0.906520
	C120	C	0.382213	0.014718	0.614004
	C121	C	0.625837	0.997424	0.612002
	C122	C	0.627029	0.014531	0.368392
	C123	C	0.383179	0.997501	0.369876
	C124	C	0.628710	0.383961	-0.000327
	C125	C	0.628729	0.627756	0.982616
	C126	C	0.386166	0.627526	0.000175
	C127	C	0.386241	0.384872	0.982324
	C128	C	0.014163	0.629179	0.369440
	C129	C	0.997200	0.628386	0.612345
	C130	C	0.014583	0.384607	0.612309
	C131	C	0.997439	0.385627	0.370273
	C132	C	0.884704	0.514870	0.113996
	C133	C	0.129094	0.498337	0.112880
	C134	C	0.131220	0.515073	0.868228
	C135	C	0.886935	0.498448	0.870520
	C136	C	0.126105	0.884810	0.500274
	C137	C	0.126537	0.128174	0.483469
	C138	C	0.882622	0.128967	0.499856
	C139	C	0.883532	0.885493	0.482058
	C140	C	0.514219	0.128352	0.868884
	C141	C	0.497019	0.127374	0.112023
	C142	C	0.513989	0.884381	0.112630
	C143	C	0.496598	0.884274	0.869745
	C144	C	0.384298	0.891377	0.669643
	C145	C	0.622087	0.120900	0.666500
	C146	C	0.625174	0.890966	0.313661
	C147	C	0.384788	0.120480	0.313614
	C148	C	0.684882	0.386934	0.876071
	C149	C	0.682138	0.623809	0.106930
	C150	C	0.331612	0.625952	0.876333
	C151	C	0.330676	0.387155	0.106083
	C152	C	0.890025	0.683691	0.371557
	C153	C	0.120216	0.684232	0.609177
	C154	C	0.890603	0.330164	0.612236
	C155	C	0.120616	0.329024	0.370799
	C156	C	0.891714	0.387700	0.669889
	C157	C	0.121566	0.625548	0.665074
	C158	C	0.890570	0.625787	0.314508
	C159	C	0.121533	0.387921	0.314902
	C160	C	0.388711	0.682814	0.876536
	C161	C	0.626312	0.682847	0.106389
	C162	C	0.627740	0.328956	0.876150
	C163	C	0.386893	0.329295	0.106129
	C164	C	0.683856	0.891644	0.370706
	C165	C	0.680017	0.121197	0.609093
	C166	C	0.326930	0.891426	0.612294
	C167	C	0.327801	0.120812	0.372353
	C168	C	0.887755	0.391702	0.169729
	C169	C	0.125701	0.621625	0.166836
	C170	C	0.128642	0.391547	0.813270
	C171	C	0.889893	0.621897	0.815681
	C172	C	0.182054	0.888079	0.376565
	C173	C	0.180863	0.125584	0.607113
	C174	C	0.828833	0.126879	0.375898
	C175	C	0.828290	0.887748	0.605943
	C176	C	0.390968	0.184458	0.872202
	C177	C	0.620956	0.181859	0.109840
	C178	C	0.391064	0.827722	0.112516
	C179	C	0.620685	0.830097	0.871119
	C180	C	0.390170	0.886408	0.168676
	C181	C	0.620790	0.123747	0.166537
	C182	C	0.389804	0.125761	0.816070
	C183	C	0.620191	0.887445	0.813625
	C184	C	0.885916	0.184374	0.376592
	C185	C	0.123645	0.183576	0.606756
	C186	C	0.124597	0.830766	0.376418
	C187	C	0.884327	0.829565	0.605409
	C188	C	0.185957	0.391266	0.871745
	C189	C	0.183125	0.621681	0.108697
	C190	C	0.829734	0.391680	0.112325
	C191	C	0.831265	0.621468	0.872520
	C192	C	0.403922	0.100695	0.591939
	C193	C	0.604550	0.911361	0.590446
	C194	C	0.604264	0.100214	0.390232
	C195	C	0.405796	0.911532	0.392614
	C196	C	0.606046	0.405621	0.086020
	C197	C	0.607110	0.606170	0.896155
	C198	C	0.407752	0.604912	0.086369
	C199	C	0.409674	0.407410	0.896220
	C200	C	0.100503	0.607618	0.391500
	C201	C	0.910631	0.606309	0.591201
	C202	C	0.100612	0.406517	0.588209
	C203	C	0.911345	0.408353	0.393090
	C204	C	0.906396	0.600931	0.091395
	C205	C	0.107244	0.412391	0.091451
	C206	C	0.108813	0.600918	0.890017
	C207	C	0.909263	0.412358	0.893010
	C208	C	0.103096	0.906716	0.586406
	C209	C	0.104267	0.105744	0.397214
	C210	C	0.904091	0.106606	0.586644
	C211	C	0.906370	0.907666	0.395440
	C212	C	0.600847	0.105630	0.889982
	C213	C	0.410596	0.106010	0.089934
	C214	C	0.599964	0.906931	0.089402
	C215	C	0.410311	0.905941	0.892811
	Zn216	Zn	0.504393	0.005866	0.741532
	Zn217	Zn	0.504693	0.005939	0.240355
	Zn218	Zn	0.756837	0.506126	-0.008590
	Zn219	Zn	0.258930	0.506044	-0.008963
	Zn220	Zn	0.004130	0.757000	0.490979
	Zn221	Zn	0.004922	0.256608	0.491232
	Zn222	Zn	0.008045	0.506956	0.740552
	Zn223	Zn	0.006844	0.507064	0.241897
	Zn224	Zn	0.506345	0.755986	-0.008570
	Zn225	Zn	0.506640	0.256296	-0.008928
	Zn226	Zn	0.755312	0.006504	0.490895
	Zn227	Zn	0.254747	0.006030	0.492368
	N228	N	0.417648	0.968941	0.671084
	N229	N	0.588883	0.043126	0.668385
	N230	N	0.590626	0.968338	0.312046
	N231	N	0.418434	0.042836	0.312228
	N232	N	0.685735	0.420328	0.954048
	N233	N	0.683776	0.590303	0.029195
	N234	N	0.329789	0.592357	0.954278
	N235	N	0.330173	0.420891	0.028168
	N236	N	0.967773	0.685640	0.405201
	N237	N	0.041807	0.686039	0.576923
	N238	N	0.968148	0.328058	0.577241
	N239	N	0.042496	0.327439	0.404535
	N240	N	0.969771	0.420841	0.670085
	N241	N	0.044176	0.591201	0.666794
	N242	N	0.968807	0.592889	0.312895
	N243	N	0.043936	0.422276	0.314300
	N244	N	0.421725	0.684137	0.954502
	N245	N	0.593718	0.685416	0.028040
	N246	N	0.593844	0.326834	0.954050
	N247	N	0.420701	0.327837	0.028205
	N248	N	0.685114	0.969308	0.404058
	N249	N	0.682561	0.043456	0.576027
	N250	N	0.325508	0.969122	0.578367
	N251	N	0.326900	0.043229	0.406715
	N252	N	0.921114	0.469277	0.170764
	N253	N	0.092794	0.543903	0.169654
	N254	N	0.095380	0.469361	0.810946
	N255	N	0.923751	0.544371	0.814558
	N256	N	0.183272	0.920878	0.454681
	N257	N	0.182759	0.091862	0.529403
	N258	N	0.826650	0.093106	0.453840
	N259	N	0.827476	0.921596	0.528104
	N260	N	0.469394	0.186136	0.904389
	N261	N	0.542892	0.184355	0.076749
	N262	N	0.468937	0.826448	0.078280
	N263	N	0.542804	0.827951	0.905233
	N264	N	0.467693	0.920709	0.169014
	N265	N	0.542770	0.090660	0.168032
	N266	N	0.467429	0.091587	0.813998
	N267	N	0.541970	0.920426	0.812713
	N268	N	0.918354	0.185838	0.454861
	N269	N	0.090595	0.185045	0.528800
	N270	N	0.090313	0.828741	0.454193
	N271	N	0.917823	0.828034	0.527248
	N272	N	0.187780	0.468919	0.904966
	N273	N	0.185313	0.543916	0.075808
	N274	N	0.827908	0.469205	0.078141
	N275	N	0.829375	0.543595	0.906168
	O276	O	-0.044577	-0.012328	-0.031592
	H277	H	-0.041145	-0.008902	-0.039156
	H278	H	-0.052283	-0.011526	-0.029037
	O279	O	0.443856	0.592367	0.417943
	H280	H	0.440110	0.596783	0.425137
	H281	H	0.442380	0.595101	0.411183
	O282	O	0.540518	0.489653	0.385565
	H283	H	0.547348	0.495134	0.384224
	H284	H	0.540093	0.496902	0.375011
	O285	O	1.057072	0.023052	1.003768
	H286	H	1.054562	0.028795	1.009306
	H287	H	1.042423	0.026003	1.001549
	O288	O	1.019133	-0.021832	0.042698
	H289	H	1.025993	-0.024074	0.043892
	H290	H	1.023707	-0.029680	0.043758
	O291	O	0.417079	0.561036	0.548605
	H292	H	0.403125	0.551411	0.545165
	H293	H	0.420108	0.547148	0.552374
	O294	O	0.981250	-0.034393	0.984233
	H295	H	0.988142	-0.037684	0.984635
	H296	H	0.985464	-0.044843	0.983354
	O297	O	-0.050155	0.001973	0.047225
	H298	H	-0.037931	-0.001269	0.041054
	H299	H	-0.052233	-0.001984	0.046600
	O300	O	0.454967	0.396991	0.502529
	H301	H	0.457457	0.389060	0.508820
	H302	H	0.457060	0.393161	0.504867
	O303	O	0.510819	0.510650	0.523843
	H304	H	0.508599	0.523547	0.510851
	H305	H	0.514763	0.507409	0.520501
	O306	O	0.974319	-0.023204	-0.038077
	H307	H	0.977008	-0.020034	-0.036305
	H308	H	0.974105	-0.023722	-0.034080
	O309	O	-0.041529	0.054221	1.030896
	H310	H	-0.035256	0.058814	1.032777
	H311	H	-0.040789	0.067317	1.025014
	O312	O	1.437486	0.523297	1.463324
	H313	H	1.439245	0.523170	1.452149
	H314	H	1.453197	0.525198	1.455620
	O315	O	0.452097	0.521430	0.541354
	H316	H	0.448281	0.517019	0.543300
	H317	H	0.439312	0.527174	0.540743
	O318	O	0.503385	0.366752	0.534778
	H319	H	0.512174	0.366246	0.537159
	H320	H	0.506839	0.365079	0.524503
	O321	O	-0.054072	0.993235	1.036056
	H322	H	-0.061009	1.001431	1.037184
	H323	H	-0.051795	0.989285	1.033593
	O324	O	0.577414	0.410676	0.467959
	H325	H	0.589535	0.413701	0.457593
	H326	H	0.579298	0.417522	0.466994
	O327	O	0.541183	0.412479	0.553375
	H328	H	0.549289	0.413477	0.544604
	H329	H	0.543254	0.418041	0.554210
	O330	O	0.563264	0.571712	0.454934
	H331	H	0.556587	0.573130	0.470388
	H332	H	0.563793	0.571057	0.466678
	O333	O	0.536514	0.474705	0.403124
	H334	H	0.549862	0.482669	0.410883
	H335	H	0.535662	0.475877	0.413220
	O336	O	0.487245	0.415637	0.491802
	H337	H	0.493195	0.418397	0.489112
	H338	H	0.497706	0.409712	0.495772
	O339	O	1.008160	1.068632	0.053636
	H340	H	1.006097	1.074614	0.061603
	H341	H	1.007110	1.068108	0.047473
	O342	O	0.596014	0.506978	0.469472
	H343	H	0.585653	0.513991	0.475289
	H344	H	0.584621	0.512009	0.470377
	O345	O	0.487978	0.631413	0.380914
	H346	H	0.475415	0.629061	0.383487
	H347	H	0.492529	0.626958	0.377845
	O348	O	-0.596240	0.454533	0.536934
	H349	H	-0.606643	0.459877	0.539400
	H350	H	-0.585775	0.442538	0.527311
	O351	O	0.058834	0.978333	0.966527
	H352	H	0.064179	0.982993	0.978574
	H353	H	0.058692	0.984311	0.956125
	O354	O	0.541705	0.515776	0.581752
	H355	H	0.548449	0.510259	0.589083
	H356	H	0.526834	0.516600	0.588701
	O357	O	0.044376	0.964909	0.933018
	H358	H	0.049227	0.961735	0.935815
	H359	H	0.047732	0.955897	0.941971
