data_Molecule from HDF5

_cell_length_a		16.347087
_cell_length_b		16.252793
_cell_length_c		16.239075
_cell_angle_alpha	89.954406
_cell_angle_beta	89.871087
_cell_angle_gamma	89.976504
_symmetry_space_group_name_H-M	'P 1'
_symmetry_Int_Tables_number		1

loop_
	_symmetry_equiv_pos_as_xyz
	x,y,z

loop_
	_atom_site_label
	_atom_site_type_symbol
	_atom_site_fract_x
	_atom_site_fract_y
	_atom_site_fract_z
	H0	H	0.394557	0.830737	0.706911
	H1	H	0.588249	0.159570	0.705544
	H2	H	0.589210	0.830060	0.279210
	H3	H	0.395894	0.159839	0.281009
	H4	H	0.705319	0.397420	0.829092
	H5	H	0.706090	0.593928	0.157009
	H6	H	0.277659	0.593302	0.829149
	H7	H	0.276068	0.395640	0.157205
	H8	H	0.827877	0.709166	0.394795
	H9	H	0.155572	0.708295	0.589441
	H10	H	0.828004	0.281643	0.589722
	H11	H	0.155604	0.280607	0.394831
	H12	H	0.829060	0.396143	0.708066
	H13	H	0.155266	0.592447	0.706603
	H14	H	0.827702	0.591328	0.279020
	H15	H	0.155039	0.398061	0.278833
	H16	H	0.394894	0.707699	0.828650
	H17	H	0.587741	0.707808	0.158221
	H18	H	0.588595	0.281989	0.829201
	H19	H	0.394345	0.282072	0.157643
	H20	H	0.707151	0.830542	0.394200
	H21	H	0.704567	0.159365	0.589841
	H22	H	0.276574	0.831450	0.592938
	H23	H	0.277237	0.158307	0.394719
	H24	H	0.894130	0.329999	0.205965
	H25	H	0.087816	0.658695	0.204659
	H26	H	0.089417	0.330241	0.779523
	H27	H	0.896070	0.659042	0.779149
	H28	H	0.206051	0.896246	0.329331
	H29	H	0.206544	0.093528	0.656581
	H30	H	0.777552	0.093972	0.329299
	H31	H	0.777319	0.896267	0.657862
	H32	H	0.327784	0.209123	0.895504
	H33	H	0.654575	0.209783	0.091098
	H34	H	0.327130	0.780194	0.091986
	H35	H	0.654398	0.779751	0.893822
	H36	H	0.327542	0.897510	0.208124
	H37	H	0.655138	0.092219	0.205774
	H38	H	0.328221	0.092757	0.779442
	H39	H	0.654802	0.897963	0.778601
	H40	H	0.894253	0.208482	0.328855
	H41	H	0.087783	0.206845	0.657955
	H42	H	0.088580	0.782318	0.328151
	H43	H	0.893662	0.780424	0.657195
	H44	H	0.206908	0.330900	0.893091
	H45	H	0.205885	0.657604	0.091278
	H46	H	0.776051	0.330712	0.092654
	H47	H	0.778450	0.659010	0.894580
	H48	H	0.398596	0.112507	0.586452
	H49	H	0.594469	0.875710	0.585462
	H50	H	0.599739	0.113712	0.403248
	H51	H	0.395754	0.876796	0.399254
	H52	H	0.592244	0.401868	0.113375
	H53	H	0.592360	0.593560	0.873148
	H54	H	0.395734	0.589003	0.111036
	H55	H	0.395753	0.402892	0.875618
	H56	H	0.104804	0.582482	0.402120
	H57	H	0.876159	0.584920	0.590426
	H58	H	0.110809	0.403057	0.598242
	H59	H	0.871899	0.390407	0.397755
	H60	H	0.111014	0.388598	0.583049
	H61	H	0.874678	0.592685	0.586685
	H62	H	0.109307	0.587743	0.390926
	H63	H	0.879805	0.403348	0.409804
	H64	H	0.396548	0.585033	0.109886
	H65	H	0.588151	0.579758	0.878298
	H66	H	0.581378	0.409791	0.106855
	H67	H	0.399722	0.405367	0.877742
	H68	H	0.582713	0.114099	0.385721
	H69	H	0.579607	0.876823	0.594203
	H70	H	0.398783	0.111270	0.584480
	H71	H	0.400520	0.877346	0.398635
	H72	H	0.891187	0.614628	0.092019
	H73	H	0.085701	0.376751	0.086483
	H74	H	0.095463	0.610960	0.911317
	H75	H	0.903982	0.380126	0.901651
	H76	H	0.093756	0.911551	0.609251
	H77	H	0.086111	0.082729	0.377409
	H78	H	0.888444	0.084995	0.612149
	H79	H	0.890391	0.900922	0.373289
	H80	H	0.607490	0.089271	0.899219
	H81	H	0.374727	0.091463	0.087303
	H82	H	0.602196	0.905949	0.078549
	H83	H	0.376014	0.899679	0.903681
	H84	H	0.607802	0.905490	0.094403
	H85	H	0.376555	0.086698	0.084588
	H86	H	0.607622	0.088706	0.899197
	H87	H	0.375603	0.904518	0.899384
	H88	H	0.903861	0.081638	0.606383
	H89	H	0.081419	0.089841	0.376524
	H90	H	0.072543	0.902834	0.606715
	H91	H	0.901147	0.909924	0.380218
	H92	H	0.089328	0.616713	0.886175
	H93	H	0.083770	0.376862	0.085325
	H94	H	0.906967	0.609147	0.088272
	H95	H	0.893318	0.377988	0.905384
	H96	H	0.396720	0.111812	0.585105
	H97	H	0.580803	0.882473	0.577211
	H98	H	0.577181	0.106402	0.408091
	H99	H	0.398306	0.877987	0.403095
	H100	H	0.579341	0.395109	0.111475
	H101	H	0.577947	0.591432	0.877767
	H102	H	0.399185	0.587877	0.110406
	H103	H	0.400637	0.400228	0.876021
	H104	H	0.108161	0.595096	0.401677
	H105	H	0.877852	0.586088	0.581861
	H106	H	0.103489	0.407756	0.578679
	H107	H	0.875661	0.407870	0.391326
	H108	H	0.894609	0.609526	0.076619
	H109	H	0.085761	0.376744	0.084095
	H110	H	0.070834	0.606437	0.902676
	H111	H	0.896011	0.375071	0.894288
	H112	H	0.089468	0.889847	0.615026
	H113	H	0.090251	0.089863	0.374407
	H114	H	0.900083	0.096638	0.612247
	H115	H	0.904201	0.895612	0.376196
	H116	H	0.607423	0.088789	0.899081
	H117	H	0.374669	0.086911	0.089277
	H118	H	0.609528	0.891955	0.084832
	H119	H	0.373460	0.898421	0.897564
	C120	C	0.369876	0.003566	0.614534
	C121	C	0.613029	0.986880	0.614081
	C122	C	0.614230	0.002581	0.371094
	C123	C	0.370381	0.986109	0.372057
	C124	C	0.612303	0.374178	0.001796
	C125	C	0.613768	0.616716	0.984976
	C126	C	0.369637	0.615803	0.001762
	C127	C	0.370196	0.373954	0.985232
	C128	C	-0.000412	0.616562	0.370295
	C129	C	0.984026	0.616174	0.614262
	C130	C	0.000429	0.372159	0.614966
	C131	C	0.983461	0.372695	0.371199
	C132	C	0.869739	0.502706	0.114318
	C133	C	0.112947	0.485557	0.113745
	C134	C	0.113595	0.502795	0.871355
	C135	C	0.870534	0.486382	0.871764
	C136	C	0.113414	0.873115	0.501667
	C137	C	0.113540	0.115820	0.484660
	C138	C	0.869734	0.116173	0.501609
	C139	C	0.869844	0.873329	0.485125
	C140	C	0.499611	0.117166	0.871018
	C141	C	0.483387	0.116550	0.114866
	C142	C	0.498771	0.872713	0.114922
	C143	C	0.483126	0.873262	0.871726
	C144	C	0.373291	0.879709	0.669350
	C145	C	0.609382	0.110400	0.668214
	C146	C	0.610459	0.879154	0.316672
	C147	C	0.374171	0.110457	0.318013
	C148	C	0.667538	0.376842	0.878105
	C149	C	0.668214	0.614399	0.108491
	C150	C	0.315443	0.613456	0.877980
	C151	C	0.314664	0.376016	0.108558
	C152	C	0.876529	0.671063	0.374032
	C153	C	0.106787	0.670675	0.610476
	C154	C	0.876999	0.318657	0.611188
	C155	C	0.106700	0.318054	0.373934
	C156	C	0.877464	0.375628	0.669839
	C157	C	0.106603	0.613256	0.668870
	C158	C	0.876467	0.613051	0.316274
	C159	C	0.106472	0.376280	0.316444
	C160	C	0.373821	0.670012	0.877763
	C161	C	0.609266	0.670623	0.109063
	C162	C	0.609794	0.319507	0.878145
	C163	C	0.372836	0.318988	0.108661
	C164	C	0.668875	0.879228	0.373789
	C165	C	0.667322	0.110223	0.610921
	C166	C	0.315027	0.880079	0.612708
	C167	C	0.315264	0.109565	0.374363
	C168	C	0.872584	0.379295	0.169314
	C169	C	0.109175	0.609298	0.167901
	C170	C	0.110311	0.379276	0.816784
	C171	C	0.874642	0.610058	0.816957
	C172	C	0.168209	0.875644	0.378092
	C173	C	0.168383	0.113726	0.607994
	C174	C	0.815452	0.113913	0.378106
	C175	C	0.815020	0.875811	0.608675
	C176	C	0.376695	0.171635	0.874657
	C177	C	0.605941	0.171637	0.111757
	C178	C	0.376080	0.817788	0.112448
	C179	C	0.606027	0.818510	0.874056
	C180	C	0.376081	0.875964	0.170171
	C181	C	0.606233	0.113459	0.168956
	C182	C	0.376647	0.113606	0.817239
	C183	C	0.606070	0.876773	0.816524
	C184	C	0.873304	0.170799	0.377935
	C185	C	0.109368	0.169756	0.608753
	C186	C	0.109860	0.818824	0.377648
	C187	C	0.872894	0.818527	0.608622
	C188	C	0.168928	0.379640	0.873051
	C189	C	0.167498	0.608935	0.111416
	C190	C	0.814467	0.379400	0.112468
	C191	C	0.816135	0.609946	0.873942
	C192	C	0.391627	0.089547	0.592138
	C193	C	0.591232	0.900426	0.592203
	C194	C	0.592826	0.089234	0.392692
	C195	C	0.391991	0.899765	0.393710
	C196	C	0.590630	0.395779	0.088190
	C197	C	0.592421	0.594847	0.898755
	C198	C	0.390926	0.593866	0.088156
	C199	C	0.392287	0.396222	0.898784
	C200	C	0.085322	0.594734	0.391573
	C201	C	0.898117	0.594396	0.592593
	C202	C	0.086330	0.393511	0.593127
	C203	C	0.897961	0.394173	0.393279
	C204	C	0.891383	0.588816	0.092335
	C205	C	0.091502	0.399137	0.091779
	C206	C	0.091741	0.589093	0.893679
	C207	C	0.891592	0.400013	0.893796
	C208	C	0.091684	0.894840	0.588192
	C209	C	0.092439	0.093780	0.398492
	C210	C	0.891135	0.094294	0.587765
	C211	C	0.892071	0.895649	0.398956
	C212	C	0.585532	0.095454	0.892839
	C213	C	0.397445	0.094750	0.093436
	C214	C	0.584302	0.894603	0.092531
	C215	C	0.397184	0.894690	0.893612
	Zn216	Zn	0.491317	-0.004852	0.742644
	Zn217	Zn	0.491510	-0.005195	0.243627
	Zn218	Zn	0.741400	0.494910	-0.006757
	Zn219	Zn	0.241463	0.494529	-0.007158
	Zn220	Zn	-0.008402	0.745678	0.492720
	Zn221	Zn	-0.007908	0.243566	0.492914
	Zn222	Zn	-0.007681	0.494221	0.743170
	Zn223	Zn	-0.008333	0.494199	0.241885
	Zn224	Zn	0.491166	0.743912	-0.006828
	Zn225	Zn	0.491084	0.245550	-0.006758
	Zn226	Zn	0.741943	-0.005402	0.493191
	Zn227	Zn	0.241709	-0.005624	0.493188
	N228	N	0.406834	0.957347	0.670672
	N229	N	0.576119	0.032605	0.670083
	N230	N	0.577044	0.956907	0.315156
	N231	N	0.407722	0.032721	0.316451
	N232	N	0.669260	0.410073	0.956035
	N233	N	0.671004	0.581654	0.030462
	N234	N	0.312721	0.580499	0.956062
	N235	N	0.313029	0.409358	0.030603
	N236	N	0.954072	0.673431	0.406929
	N237	N	0.029336	0.672583	0.577410
	N238	N	0.954551	0.316143	0.577970
	N239	N	0.029213	0.315648	0.407266
	N240	N	0.955106	0.408308	0.672063
	N241	N	0.029309	0.579913	0.671097
	N242	N	0.953853	0.579804	0.313881
	N243	N	0.029143	0.409410	0.314573
	N244	N	0.406739	0.671580	0.955695
	N245	N	0.576068	0.672117	0.031206
	N246	N	0.576168	0.317747	0.955865
	N247	N	0.406724	0.317915	0.030960
	N248	N	0.671242	0.957121	0.406714
	N249	N	0.669501	0.032298	0.577918
	N250	N	0.312773	0.957915	0.579406
	N251	N	0.312850	0.031381	0.407159
	N252	N	0.906209	0.456970	0.170474
	N253	N	0.075860	0.531635	0.169221
	N254	N	0.076642	0.456895	0.815780
	N255	N	0.907830	0.532364	0.815634
	N256	N	0.170462	0.908648	0.456187
	N257	N	0.170956	0.080903	0.529916
	N258	N	0.813058	0.080676	0.455926
	N259	N	0.813065	0.909177	0.530660
	N260	N	0.454373	0.173971	0.907411
	N261	N	0.528488	0.173665	0.078885
	N262	N	0.453418	0.815807	0.078769
	N263	N	0.528528	0.815896	0.907432
	N264	N	0.453345	0.909404	0.171931
	N265	N	0.528935	0.079860	0.171021
	N266	N	0.454009	0.080445	0.814836
	N267	N	0.528642	0.910241	0.815053
	N268	N	0.906578	0.172243	0.455687
	N269	N	0.075997	0.171300	0.531065
	N270	N	0.076363	0.817433	0.455429
	N271	N	0.906156	0.816879	0.530824
	N272	N	0.171287	0.457573	0.906123
	N273	N	0.169875	0.530990	0.078361
	N274	N	0.812537	0.457062	0.078936
	N275	N	0.813530	0.532009	0.907459
	O276	O	0.955581	-0.046205	1.052017
	H277	H	0.969207	-0.045457	1.049333
	H278	H	0.955232	-0.048145	1.047371
	O279	O	0.953160	0.947994	1.057165
	H280	H	0.958150	0.952295	1.061706
	H281	H	0.944945	0.943604	1.059165
	O282	O	0.912477	0.923730	0.045936
	H283	H	0.905471	0.920615	0.043950
	H284	H	0.915463	0.924885	0.049576
	O285	O	0.963187	0.930254	1.050428
	H286	H	0.958274	0.923762	1.045912
	H287	H	0.957308	0.929279	1.057272
