data_Molecule from HDF5

_cell_length_a		16.331173
_cell_length_b		16.237755
_cell_length_c		16.240069
_cell_angle_alpha	90.056859
_cell_angle_beta	89.970411
_cell_angle_gamma	90.049915
_symmetry_space_group_name_H-M	'P 1'
_symmetry_Int_Tables_number		1

loop_
	_symmetry_equiv_pos_as_xyz
	x,y,z

loop_
	_atom_site_label
	_atom_site_type_symbol
	_atom_site_fract_x
	_atom_site_fract_y
	_atom_site_fract_z
	H0	H	0.407213	0.835728	0.712054
	H1	H	0.601889	0.164735	0.713516
	H2	H	0.600311	0.835799	0.286846
	H3	H	0.406640	0.165710	0.285818
	H4	H	0.719232	0.399524	0.835789
	H5	H	0.719219	0.600031	0.163316
	H6	H	0.289232	0.598597	0.835539
	H7	H	0.289143	0.401426	0.163783
	H8	H	0.840282	0.713416	0.401476
	H9	H	0.168176	0.714030	0.595588
	H10	H	0.840769	0.285963	0.598748
	H11	H	0.167161	0.286072	0.400710
	H12	H	0.840711	0.402558	0.714070
	H13	H	0.167292	0.600326	0.714696
	H14	H	0.840668	0.597428	0.285597
	H15	H	0.166843	0.401980	0.284106
	H16	H	0.405473	0.714045	0.835151
	H17	H	0.601320	0.713486	0.164170
	H18	H	0.600855	0.286790	0.834972
	H19	H	0.406452	0.286991	0.164195
	H20	H	0.717988	0.836651	0.400595
	H21	H	0.720193	0.164077	0.600293
	H22	H	0.290245	0.835860	0.597160
	H23	H	0.290050	0.165438	0.401461
	H24	H	0.906528	0.336504	0.212787
	H25	H	0.102592	0.664774	0.212844
	H26	H	0.100325	0.336097	0.785914
	H27	H	0.907099	0.665357	0.787083
	H28	H	0.218431	0.901829	0.334658
	H29	H	0.218003	0.099634	0.663541
	H30	H	0.788861	0.100009	0.335699
	H31	H	0.788988	0.901322	0.662948
	H32	H	0.340484	0.213806	0.902266
	H33	H	0.667630	0.214483	0.097366
	H34	H	0.340376	0.786499	0.097741
	H35	H	0.667435	0.785180	0.899790
	H36	H	0.340976	0.902833	0.213177
	H37	H	0.667485	0.099125	0.213748
	H38	H	0.340584	0.098566	0.785650
	H39	H	0.667010	0.902016	0.783717
	H40	H	0.906174	0.214258	0.335184
	H41	H	0.100135	0.214236	0.663382
	H42	H	0.101206	0.786943	0.334391
	H43	H	0.906967	0.787314	0.664065
	H44	H	0.217249	0.335480	0.901526
	H45	H	0.220041	0.663147	0.100222
	H46	H	0.789968	0.336041	0.097896
	H47	H	0.788098	0.663983	0.900085
	H48	H	0.417940	0.113439	0.586052
	H49	H	0.589870	0.883684	0.600507
	H50	H	0.597107	0.119975	0.397473
	H51	H	0.407197	0.880567	0.396550
	H52	H	0.609192	0.411399	0.118563
	H53	H	0.604163	0.587413	0.882293
	H54	H	0.409905	0.595601	0.117349
	H55	H	0.409416	0.410998	0.884463
	H56	H	0.119282	0.588244	0.405367
	H57	H	0.887419	0.591212	0.597575
	H58	H	0.118675	0.401811	0.580932
	H59	H	0.884712	0.403777	0.402554
	H60	H	0.117210	0.420248	0.593968
	H61	H	0.886339	0.599366	0.593535
	H62	H	0.122930	0.597034	0.399709
	H63	H	0.888881	0.406006	0.411559
	H64	H	0.408926	0.590551	0.116283
	H65	H	0.589501	0.588641	0.886702
	H66	H	0.588964	0.415152	0.111529
	H67	H	0.413760	0.404356	0.883521
	H68	H	0.589131	0.113541	0.412339
	H69	H	0.593200	0.887955	0.580957
	H70	H	0.398851	0.119977	0.588890
	H71	H	0.421246	0.887746	0.407962
	H72	H	0.906087	0.616359	0.085035
	H73	H	0.097700	0.384247	0.090035
	H74	H	0.102399	0.616986	0.912135
	H75	H	0.923049	0.387375	0.906352
	H76	H	0.101836	0.906926	0.617022
	H77	H	0.099680	0.089696	0.382388
	H78	H	0.907918	0.091026	0.616216
	H79	H	0.908463	0.912102	0.382830
	H80	H	0.621943	0.098554	0.905306
	H81	H	0.386590	0.099645	0.092035
	H82	H	0.620471	0.904815	0.088618
	H83	H	0.390870	0.913091	0.908680
	H84	H	0.619669	0.910537	0.093925
	H85	H	0.389206	0.090732	0.089094
	H86	H	0.618487	0.092148	0.911056
	H87	H	0.385590	0.906187	0.899047
	H88	H	0.914237	0.092620	0.615256
	H89	H	0.093764	0.094276	0.383376
	H90	H	0.096591	0.912618	0.613418
	H91	H	0.915636	0.905336	0.383382
	H92	H	0.099676	0.619158	0.901535
	H93	H	0.099874	0.381691	0.093920
	H94	H	0.906860	0.620608	0.098443
	H95	H	0.903879	0.384690	0.917234
	H96	H	0.411908	0.120085	0.604322
	H97	H	0.608422	0.880724	0.592472
	H98	H	0.606103	0.118738	0.412510
	H99	H	0.403258	0.884348	0.415136
	H100	H	0.594454	0.395582	0.119176
	H101	H	0.596292	0.600279	0.880746
	H102	H	0.413770	0.592707	0.115527
	H103	H	0.406563	0.404499	0.880422
	H104	H	0.120395	0.598630	0.410616
	H105	H	0.889635	0.592040	0.588814
	H106	H	0.124411	0.400629	0.601999
	H107	H	0.889023	0.412737	0.403620
	H108	H	0.917825	0.615615	0.091686
	H109	H	0.094973	0.383233	0.094760
	H110	H	0.091557	0.615069	0.908315
	H111	H	0.905121	0.378398	0.895683
	H112	H	0.093622	0.904830	0.615877
	H113	H	0.100040	0.097434	0.380407
	H114	H	0.909748	0.096517	0.617563
	H115	H	0.906563	0.903320	0.380404
	H116	H	0.620246	0.089935	0.902010
	H117	H	0.386840	0.091567	0.098285
	H118	H	0.622086	0.903420	0.096529
	H119	H	0.387754	0.900924	0.910201
	C120	C	0.382104	0.008774	0.620683
	C121	C	0.625671	0.992274	0.620545
	C122	C	0.625940	0.009170	0.378026
	C123	C	0.382542	0.993030	0.378057
	C124	C	0.625539	0.378844	0.007811
	C125	C	0.625369	0.621223	0.991591
	C126	C	0.382222	0.621430	0.007859
	C127	C	0.382150	0.378432	0.991347
	C128	C	0.012587	0.622506	0.377198
	C129	C	0.995985	0.622586	0.621019
	C130	C	0.012320	0.379219	0.620805
	C131	C	0.995723	0.379272	0.377716
	C132	C	0.882322	0.508882	0.120478
	C133	C	0.125553	0.491994	0.120986
	C134	C	0.125441	0.508401	0.878850
	C135	C	0.881993	0.492015	0.878112
	C136	C	0.125418	0.879240	0.506976
	C137	C	0.125893	0.122306	0.490777
	C138	C	0.882462	0.121723	0.508023
	C139	C	0.882283	0.878622	0.490722
	C140	C	0.512353	0.122036	0.878081
	C141	C	0.495695	0.122257	0.121358
	C142	C	0.512569	0.878425	0.121221
	C143	C	0.495625	0.877859	0.876864
	C144	C	0.385754	0.884914	0.674988
	C145	C	0.622332	0.115908	0.675550
	C146	C	0.622066	0.885407	0.323480
	C147	C	0.385876	0.116649	0.323521
	C148	C	0.680717	0.380441	0.884521
	C149	C	0.680870	0.619899	0.114586
	C150	C	0.327130	0.618692	0.884373
	C151	C	0.327024	0.381072	0.114871
	C152	C	0.889214	0.676153	0.380730
	C153	C	0.119017	0.677178	0.617421
	C154	C	0.889414	0.324186	0.618818
	C155	C	0.118569	0.324265	0.380695
	C156	C	0.889514	0.382011	0.676062
	C157	C	0.118676	0.620338	0.676193
	C158	C	0.889439	0.618996	0.322827
	C159	C	0.118452	0.381988	0.322750
	C160	C	0.385017	0.676135	0.884065
	C161	C	0.622276	0.676278	0.115007
	C162	C	0.622236	0.323963	0.884048
	C163	C	0.385524	0.324525	0.115376
	C164	C	0.680416	0.885656	0.380067
	C165	C	0.681382	0.115530	0.619455
	C166	C	0.327782	0.885040	0.617943
	C167	C	0.327772	0.116538	0.380727
	C168	C	0.885385	0.385454	0.175528
	C169	C	0.122539	0.615605	0.175185
	C170	C	0.121845	0.384987	0.823490
	C171	C	0.885500	0.616047	0.823984
	C172	C	0.180344	0.881655	0.383656
	C173	C	0.179989	0.119761	0.614453
	C174	C	0.827337	0.119619	0.384322
	C175	C	0.827323	0.881119	0.614371
	C176	C	0.389246	0.176520	0.881061
	C177	C	0.618695	0.177227	0.118421
	C178	C	0.389367	0.824252	0.118216
	C179	C	0.618758	0.823071	0.879354
	C180	C	0.389775	0.881394	0.176259
	C181	C	0.618693	0.119470	0.175813
	C182	C	0.389344	0.118904	0.823226
	C183	C	0.618504	0.880851	0.821583
	C184	C	0.885636	0.176308	0.384151
	C185	C	0.121866	0.176923	0.614466
	C186	C	0.122077	0.824536	0.383441
	C187	C	0.885634	0.824306	0.614701
	C188	C	0.179725	0.384578	0.880887
	C189	C	0.181212	0.614766	0.119281
	C190	C	0.827671	0.385190	0.118373
	C191	C	0.826686	0.615454	0.880287
	C192	C	0.403389	0.095412	0.599580
	C193	C	0.603810	0.906271	0.597939
	C194	C	0.603951	0.095289	0.400746
	C195	C	0.404285	0.906531	0.400076
	C196	C	0.603977	0.400803	0.094152
	C197	C	0.603200	0.598641	0.905479
	C198	C	0.404313	0.599500	0.094039
	C199	C	0.403596	0.400128	0.905144
	C200	C	0.098558	0.601095	0.398850
	C201	C	0.909991	0.600753	0.599603
	C202	C	0.097949	0.401038	0.598634
	C203	C	0.909685	0.401113	0.399541
	C204	C	0.903964	0.595215	0.098266
	C205	C	0.103742	0.405378	0.099233
	C206	C	0.104247	0.594834	0.900798
	C207	C	0.903842	0.405767	0.900107
	C208	C	0.103631	0.901581	0.593233
	C209	C	0.104281	0.100478	0.404308
	C210	C	0.904053	0.099695	0.594007
	C211	C	0.903811	0.900560	0.404496
	C212	C	0.598015	0.099968	0.899852
	C213	C	0.409743	0.100445	0.099542
	C214	C	0.598562	0.900099	0.099420
	C215	C	0.410141	0.900068	0.899283
	Zn216	Zn	0.503919	0.000336	0.748925
	Zn217	Zn	0.504475	0.000428	0.249596
	Zn218	Zn	0.754076	0.500215	-0.000422
	Zn219	Zn	0.253909	0.499829	-0.000166
	Zn220	Zn	0.004038	0.750653	0.498958
	Zn221	Zn	0.003802	0.250384	0.499271
	Zn222	Zn	0.004293	0.500884	0.750007
	Zn223	Zn	0.004006	0.500995	0.248900
	Zn224	Zn	0.504065	0.749765	-0.000850
	Zn225	Zn	0.503870	0.250699	-0.000550
	Zn226	Zn	0.754285	0.000595	0.499406
	Zn227	Zn	0.254095	0.000665	0.499223
	N228	N	0.418993	0.962877	0.676759
	N229	N	0.588536	0.038307	0.676363
	N230	N	0.588928	0.963233	0.322212
	N231	N	0.419454	0.038783	0.321951
	N232	N	0.682669	0.413949	0.962363
	N233	N	0.682872	0.586388	0.036775
	N234	N	0.325379	0.585549	0.962392
	N235	N	0.324900	0.413912	0.036793
	N236	N	0.966786	0.678365	0.413797
	N237	N	0.041648	0.678464	0.583960
	N238	N	0.966639	0.322432	0.584868
	N239	N	0.041040	0.322632	0.414079
	N240	N	0.966844	0.415626	0.677484
	N241	N	0.041086	0.587262	0.678638
	N242	N	0.967175	0.586519	0.320346
	N243	N	0.041070	0.415304	0.320820
	N244	N	0.418677	0.677927	0.961843
	N245	N	0.588360	0.677209	0.037376
	N246	N	0.588162	0.323092	0.961555
	N247	N	0.419029	0.322616	0.037661
	N248	N	0.683039	0.963668	0.413259
	N249	N	0.683562	0.037703	0.585893
	N250	N	0.325463	0.962920	0.584926
	N251	N	0.325631	0.038605	0.413794
	N252	N	0.918689	0.463394	0.176845
	N253	N	0.088680	0.537945	0.176440
	N254	N	0.088617	0.462811	0.822305
	N255	N	0.919140	0.538306	0.822191
	N256	N	0.182340	0.914956	0.461549
	N257	N	0.182589	0.086675	0.536468
	N258	N	0.825420	0.086159	0.462159
	N259	N	0.825135	0.914238	0.536413
	N260	N	0.466588	0.178437	0.914290
	N261	N	0.541181	0.178843	0.085086
	N262	N	0.466791	0.822154	0.084663
	N263	N	0.541486	0.821190	0.913087
	N264	N	0.467228	0.914692	0.177966
	N265	N	0.541284	0.086176	0.177779
	N266	N	0.466927	0.085764	0.821092
	N267	N	0.541169	0.914314	0.820115
	N268	N	0.918892	0.178049	0.461810
	N269	N	0.088713	0.178372	0.536674
	N270	N	0.088681	0.823027	0.461237
	N271	N	0.918802	0.822470	0.536796
	N272	N	0.181949	0.462430	0.914527
	N273	N	0.182885	0.536849	0.086181
	N274	N	0.825649	0.462895	0.084958
	N275	N	0.824578	0.537359	0.913047
	O276	O	0.010455	-0.042776	1.008009
	H277	H	0.011051	-0.045528	1.005100
	H278	H	0.011701	-0.046709	1.008031
	O279	O	0.531404	0.493704	0.535114
	H280	H	0.524126	0.496782	0.537737
	H281	H	0.522597	0.493520	0.538815
	O282	O	0.582003	0.518952	0.554375
	H283	H	0.584080	0.530893	0.554749
	H284	H	0.588279	0.508334	0.554848
	O285	O	0.557201	0.498303	0.493804
	H286	H	0.562860	0.507329	0.484292
	H287	H	0.550328	0.499849	0.490090
	O288	O	0.552842	0.499079	0.520990
	H289	H	0.551761	0.493714	0.522847
	H290	H	0.560277	0.498181	0.526501
	O291	O	-0.472905	1.533118	0.490271
	H292	H	-0.474525	1.533632	0.488428
	H293	H	-0.465594	1.522095	0.485091
	O294	O	0.549862	0.533510	0.507822
	H295	H	0.553005	0.523744	0.512692
	H296	H	0.556011	0.534920	0.522822
	O297	O	0.748079	-0.287210	0.277906
	H298	H	0.742486	-0.283825	0.275276
	H299	H	0.751153	-0.289720	0.274096
