data_Molecule from HDF5

_cell_length_a		16.261330
_cell_length_b		16.304507
_cell_length_c		16.302469
_cell_angle_alpha	90.158619
_cell_angle_beta	90.053413
_cell_angle_gamma	89.971880
_symmetry_space_group_name_H-M	'P 1'
_symmetry_Int_Tables_number		1

loop_
	_symmetry_equiv_pos_as_xyz
	x,y,z

loop_
	_atom_site_label
	_atom_site_type_symbol
	_atom_site_fract_x
	_atom_site_fract_y
	_atom_site_fract_z
	H0	H	0.390979	0.831657	0.710891
	H1	H	0.587475	0.158465	0.711689
	H2	H	0.587872	0.831248	0.281864
	H3	H	0.391893	0.158612	0.283111
	H4	H	0.703628	0.397087	0.832889
	H5	H	0.702949	0.592424	0.160290
	H6	H	0.274497	0.592076	0.833105
	H7	H	0.276752	0.398307	0.160804
	H8	H	0.826166	0.708669	0.399616
	H9	H	0.154376	0.709146	0.594889
	H10	H	0.825948	0.281699	0.593705
	H11	H	0.153777	0.281726	0.398800
	H12	H	0.825607	0.397306	0.709717
	H13	H	0.153582	0.594240	0.712682
	H14	H	0.825465	0.592944	0.283305
	H15	H	0.154126	0.398667	0.283782
	H16	H	0.391840	0.708066	0.832352
	H17	H	0.588846	0.710464	0.159574
	H18	H	0.587246	0.280584	0.832858
	H19	H	0.391043	0.281498	0.159843
	H20	H	0.703926	0.831759	0.398473
	H21	H	0.703720	0.159303	0.595229
	H22	H	0.275225	0.831234	0.594438
	H23	H	0.275849	0.159060	0.399779
	H24	H	0.891147	0.331913	0.211124
	H25	H	0.086240	0.658534	0.210117
	H26	H	0.089227	0.331646	0.780914
	H27	H	0.890244	0.657984	0.782474
	H28	H	0.204063	0.897150	0.333199
	H29	H	0.203715	0.093633	0.660619
	H30	H	0.776082	0.092188	0.333051
	H31	H	0.775120	0.896981	0.660008
	H32	H	0.325673	0.209356	0.896837
	H33	H	0.653038	0.209306	0.094632
	H34	H	0.326492	0.781263	0.093785
	H35	H	0.653476	0.778978	0.896093
	H36	H	0.325993	0.897019	0.210138
	H37	H	0.653001	0.092862	0.209615
	H38	H	0.325651	0.091407	0.783029
	H39	H	0.653943	0.896610	0.782067
	H40	H	0.891957	0.209033	0.332898
	H41	H	0.088689	0.211681	0.659379
	H42	H	0.089225	0.779562	0.333344
	H43	H	0.891556	0.781308	0.660203
	H44	H	0.204564	0.330568	0.898097
	H45	H	0.203039	0.657897	0.094401
	H46	H	0.775767	0.330962	0.093469
	H47	H	0.776484	0.658912	0.900737
	H48	H	0.399631	0.110471	0.590535
	H49	H	0.589274	0.875769	0.593952
	H50	H	0.589366	0.111574	0.409806
	H51	H	0.388570	0.875812	0.399209
	H52	H	0.587828	0.399254	0.115409
	H53	H	0.583185	0.585350	0.880305
	H54	H	0.397178	0.597257	0.114932
	H55	H	0.393815	0.400546	0.878707
	H56	H	0.106592	0.579715	0.394248
	H57	H	0.873830	0.586917	0.589378
	H58	H	0.101484	0.411625	0.581716
	H59	H	0.872633	0.403743	0.401193
	H60	H	0.108914	0.405890	0.600364
	H61	H	0.872699	0.589200	0.592909
	H62	H	0.110976	0.599198	0.401928
	H63	H	0.870808	0.398717	0.401292
	H64	H	0.388551	0.586246	0.114102
	H65	H	0.581023	0.588812	0.880147
	H66	H	0.582572	0.406411	0.111406
	H67	H	0.396694	0.404910	0.880272
	H68	H	0.586240	0.115201	0.394836
	H69	H	0.574852	0.880195	0.592677
	H70	H	0.393344	0.111542	0.588168
	H71	H	0.404144	0.879813	0.398058
	H72	H	0.900954	0.609607	0.089179
	H73	H	0.090278	0.375100	0.093709
	H74	H	0.080648	0.605711	0.917404
	H75	H	0.892708	0.379928	0.915146
	H76	H	0.080681	0.894425	0.614770
	H77	H	0.079360	0.091156	0.380753
	H78	H	0.898652	0.081705	0.610901
	H79	H	0.900067	0.896991	0.379970
	H80	H	0.604974	0.085347	0.906210
	H81	H	0.369667	0.095890	0.091314
	H82	H	0.606513	0.903564	0.088787
	H83	H	0.375676	0.902135	0.908555
	H84	H	0.607568	0.901775	0.090631
	H85	H	0.374686	0.087417	0.082692
	H86	H	0.606937	0.087026	0.900463
	H87	H	0.374344	0.906414	0.901582
	H88	H	0.902193	0.094633	0.613465
	H89	H	0.086554	0.089968	0.378855
	H90	H	0.090811	0.905401	0.614475
	H91	H	0.891965	0.901347	0.378485
	H92	H	0.093103	0.614795	0.900660
	H93	H	0.077697	0.377177	0.095442
	H94	H	0.892068	0.611908	0.086830
	H95	H	0.886976	0.373554	0.894242
	H96	H	0.394524	0.112878	0.594380
	H97	H	0.584883	0.880728	0.580659
	H98	H	0.574646	0.108425	0.403602
	H99	H	0.396535	0.881551	0.412314
	H100	H	0.578512	0.398128	0.112935
	H101	H	0.584913	0.589016	0.879183
	H102	H	0.402363	0.584708	0.110530
	H103	H	0.398650	0.399448	0.880861
	H104	H	0.102000	0.584169	0.414344
	H105	H	0.872536	0.591333	0.589214
	H106	H	0.107501	0.392163	0.585045
	H107	H	0.873477	0.400819	0.405489
	H108	H	0.894923	0.613337	0.095787
	H109	H	0.083342	0.379893	0.084036
	H110	H	0.071536	0.609696	0.897200
	H111	H	0.908442	0.380422	0.898036
	H112	H	0.076533	0.908386	0.609336
	H113	H	0.082422	0.085138	0.381492
	H114	H	0.889159	0.090671	0.615618
	H115	H	0.899286	0.906498	0.382367
	H116	H	0.606556	0.091826	0.904602
	H117	H	0.371821	0.083764	0.094994
	H118	H	0.606469	0.900706	0.088948
	H119	H	0.372385	0.898077	0.902007
	C120	C	0.367783	0.003260	0.618640
	C121	C	0.611463	0.986922	0.618328
	C122	C	0.611667	0.003644	0.374318
	C123	C	0.368104	0.987036	0.375191
	C124	C	0.611053	0.373003	0.005008
	C125	C	0.611274	0.616275	0.988026
	C126	C	0.367379	0.617075	0.004964
	C127	C	0.368357	0.373836	0.988439
	C128	C	-0.001834	0.615970	0.375644
	C129	C	0.981643	0.617093	0.618756
	C130	C	-0.002059	0.374472	0.617326
	C131	C	0.980982	0.372980	0.374494
	C132	C	0.868051	0.503283	0.118293
	C133	C	0.111287	0.485994	0.118839
	C134	C	0.111006	0.502366	0.875681
	C135	C	0.867872	0.486372	0.875112
	C136	C	0.111113	0.873958	0.504694
	C137	C	0.111381	0.117409	0.488385
	C138	C	0.868280	0.117104	0.505019
	C139	C	0.868359	0.873427	0.488075
	C140	C	0.497990	0.116522	0.874980
	C141	C	0.480709	0.116693	0.117698
	C142	C	0.498700	0.874347	0.117426
	C143	C	0.481703	0.873345	0.874812
	C144	C	0.370628	0.880210	0.672854
	C145	C	0.608249	0.109816	0.673686
	C146	C	0.608785	0.880490	0.319224
	C147	C	0.370764	0.109899	0.320819
	C148	C	0.665386	0.376391	0.881625
	C149	C	0.665773	0.613731	0.111417
	C150	C	0.312837	0.613148	0.881658
	C151	C	0.314069	0.377473	0.111638
	C152	C	0.874754	0.670669	0.378754
	C153	C	0.105251	0.671588	0.615858
	C154	C	0.874559	0.319507	0.614337
	C155	C	0.104625	0.318919	0.377841
	C156	C	0.874513	0.376717	0.671934
	C157	C	0.104751	0.614690	0.674359
	C158	C	0.874517	0.613202	0.320931
	C159	C	0.104831	0.376838	0.320574
	C160	C	0.370632	0.671073	0.881584
	C161	C	0.608732	0.671758	0.111092
	C162	C	0.608252	0.317958	0.881812
	C163	C	0.370653	0.319065	0.111064
	C164	C	0.666524	0.880552	0.377149
	C165	C	0.666009	0.110070	0.615871
	C166	C	0.312798	0.880179	0.615286
	C167	C	0.313339	0.110145	0.378805
	C168	C	0.870657	0.380207	0.172908
	C169	C	0.107251	0.609569	0.172703
	C170	C	0.109232	0.379970	0.819619
	C171	C	0.870160	0.609283	0.820523
	C172	C	0.166412	0.876190	0.381864
	C173	C	0.166137	0.114567	0.611545
	C174	C	0.813874	0.113342	0.381775
	C175	C	0.813079	0.876610	0.611197
	C176	C	0.374629	0.171302	0.877142
	C177	C	0.604086	0.171496	0.115041
	C178	C	0.375186	0.819225	0.114813
	C179	C	0.604873	0.817570	0.876367
	C180	C	0.374923	0.876775	0.172300
	C181	C	0.604167	0.113471	0.171940
	C182	C	0.374613	0.112853	0.820378
	C183	C	0.605035	0.875536	0.819357
	C184	C	0.871447	0.171213	0.381704
	C185	C	0.109235	0.173209	0.611155
	C186	C	0.109356	0.817868	0.381998
	C187	C	0.870600	0.818863	0.611258
	C188	C	0.166331	0.379522	0.878041
	C189	C	0.165431	0.609213	0.115573
	C190	C	0.813326	0.379863	0.114635
	C191	C	0.813385	0.609639	0.879017
	C192	C	0.389591	0.089484	0.597484
	C193	C	0.589374	0.900903	0.595894
	C194	C	0.589813	0.089601	0.396199
	C195	C	0.390014	0.901192	0.396771
	C196	C	0.589317	0.395016	0.090967
	C197	C	0.589545	0.594272	0.902068
	C198	C	0.389506	0.595712	0.090945
	C199	C	0.389907	0.395305	0.902111
	C200	C	0.084393	0.594187	0.397108
	C201	C	0.895267	0.595529	0.596975
	C202	C	0.083833	0.396801	0.595552
	C203	C	0.894722	0.394461	0.396135
	C204	C	0.889572	0.589284	0.096860
	C205	C	0.090061	0.399607	0.097456
	C206	C	0.088390	0.588069	0.898397
	C207	C	0.889651	0.400223	0.896197
	C208	C	0.089107	0.896182	0.590520
	C209	C	0.089277	0.095134	0.402403
	C210	C	0.890204	0.095426	0.591050
	C211	C	0.890675	0.895124	0.402488
	C212	C	0.584034	0.094488	0.897230
	C213	C	0.394337	0.095244	0.095823
	C214	C	0.584552	0.895766	0.095830
	C215	C	0.396315	0.895813	0.897295
	Zn216	Zn	0.489864	-0.005396	0.746905
	Zn217	Zn	0.489252	-0.004554	0.246118
	Zn218	Zn	0.739577	0.494576	-0.002986
	Zn219	Zn	0.239470	0.494638	-0.003206
	Zn220	Zn	-0.010105	0.745155	0.496815
	Zn221	Zn	-0.010331	0.245631	0.496789
	Zn222	Zn	-0.010307	0.494841	0.746839
	Zn223	Zn	-0.010528	0.494959	0.246806
	Zn224	Zn	0.490138	0.745282	-0.003906
	Zn225	Zn	0.489085	0.244919	-0.003489
	Zn226	Zn	0.739908	-0.004846	0.496388
	Zn227	Zn	0.239598	-0.004993	0.496953
	N228	N	0.404154	0.957770	0.674997
	N229	N	0.575051	0.032012	0.675191
	N230	N	0.575478	0.958126	0.317195
	N231	N	0.404155	0.032477	0.318554
	N232	N	0.667543	0.409605	0.959194
	N233	N	0.667358	0.579684	0.034103
	N234	N	0.310536	0.580484	0.959305
	N235	N	0.312611	0.410945	0.034144
	N236	N	0.952537	0.672744	0.411772
	N237	N	0.027692	0.673242	0.581973
	N238	N	0.952383	0.317806	0.581148
	N239	N	0.026770	0.316579	0.410755
	N240	N	0.952059	0.410418	0.673685
	N241	N	0.026962	0.581554	0.676223
	N242	N	0.952324	0.579886	0.318939
	N243	N	0.026891	0.409639	0.318289
	N244	N	0.403821	0.673634	0.959388
	N245	N	0.575500	0.673454	0.033456
	N246	N	0.574830	0.316164	0.959521
	N247	N	0.403801	0.316923	0.033489
	N248	N	0.668079	0.958023	0.410920
	N249	N	0.668159	0.032641	0.582283
	N250	N	0.310806	0.957799	0.582573
	N251	N	0.311856	0.032660	0.412175
	N252	N	0.903719	0.457769	0.175411
	N253	N	0.074402	0.531919	0.174639
	N254	N	0.075490	0.457366	0.818230
	N255	N	0.903292	0.531600	0.817917
	N256	N	0.167490	0.910400	0.459012
	N257	N	0.167757	0.080540	0.534170
	N258	N	0.811715	0.080376	0.459450
	N259	N	0.811564	0.909975	0.533675
	N260	N	0.452455	0.173622	0.910462
	N261	N	0.526278	0.173398	0.081819
	N262	N	0.452798	0.817487	0.081240
	N263	N	0.527288	0.815925	0.910005
	N264	N	0.452530	0.910594	0.174003
	N265	N	0.526515	0.080135	0.173715
	N266	N	0.452323	0.079465	0.818957
	N267	N	0.527738	0.909786	0.818435
	N268	N	0.904494	0.173638	0.459311
	N269	N	0.075925	0.175029	0.533597
	N270	N	0.075597	0.816433	0.459415
	N271	N	0.904309	0.816778	0.533949
	N272	N	0.167763	0.456963	0.911887
	N273	N	0.167895	0.531427	0.082544
	N274	N	0.811760	0.457325	0.081418
	N275	N	0.812100	0.532138	0.912394
	O276	O	1.009256	-0.073647	0.909153
	H277	H	1.002064	-0.079270	0.901687
	H278	H	1.006957	-0.079524	0.915648
	O279	O	1.024812	0.922844	0.909511
	H280	H	1.023735	0.922129	0.906881
	H281	H	1.032854	0.920160	0.904832
	O282	O	1.032378	0.933070	-0.085178
	H283	H	1.037160	0.937009	-0.084722
	H284	H	1.026083	0.936051	-0.084123
	O285	O	1.011476	0.916860	0.928977
	H286	H	1.014885	0.906892	0.920968
	H287	H	1.020568	0.923789	0.930438
