data_Molecule from HDF5

_cell_length_a		16.322376
_cell_length_b		16.250299
_cell_length_c		16.284557
_cell_angle_alpha	89.898602
_cell_angle_beta	89.996418
_cell_angle_gamma	90.022517
_symmetry_space_group_name_H-M	'P 1'
_symmetry_Int_Tables_number		1

loop_
	_symmetry_equiv_pos_as_xyz
	x,y,z

loop_
	_atom_site_label
	_atom_site_type_symbol
	_atom_site_fract_x
	_atom_site_fract_y
	_atom_site_fract_z
	H0	H	0.402172	0.835312	0.713963
	H1	H	0.597257	0.164424	0.713476
	H2	H	0.597806	0.835424	0.286687
	H3	H	0.401120	0.163614	0.285228
	H4	H	0.714275	0.401431	0.836164
	H5	H	0.716007	0.599719	0.162644
	H6	H	0.285008	0.599417	0.836857
	H7	H	0.284651	0.401547	0.163329
	H8	H	0.836368	0.713388	0.402851
	H9	H	0.163795	0.713643	0.596785
	H10	H	0.836325	0.286190	0.597406
	H11	H	0.164016	0.285656	0.401364
	H12	H	0.836781	0.401939	0.714287
	H13	H	0.163763	0.598331	0.713942
	H14	H	0.837280	0.599251	0.284575
	H15	H	0.163457	0.402169	0.285162
	H16	H	0.402678	0.713197	0.836074
	H17	H	0.598492	0.714174	0.163422
	H18	H	0.597773	0.286017	0.835862
	H19	H	0.403085	0.286575	0.164111
	H20	H	0.714528	0.835983	0.401688
	H21	H	0.713263	0.164550	0.597244
	H22	H	0.285682	0.836158	0.598942
	H23	H	0.286049	0.164370	0.401916
	H24	H	0.901108	0.337071	0.215142
	H25	H	0.097308	0.664595	0.212826
	H26	H	0.097504	0.335871	0.786306
	H27	H	0.903552	0.664311	0.787347
	H28	H	0.214718	0.902095	0.336343
	H29	H	0.213725	0.098297	0.664045
	H30	H	0.785620	0.098101	0.335784
	H31	H	0.785934	0.903203	0.664236
	H32	H	0.336219	0.214007	0.901925
	H33	H	0.663780	0.213565	0.098065
	H34	H	0.337002	0.784675	0.099005
	H35	H	0.663748	0.785301	0.901801
	H36	H	0.336298	0.900410	0.215701
	H37	H	0.663410	0.097221	0.214672
	H38	H	0.337036	0.098484	0.785187
	H39	H	0.663345	0.901934	0.785411
	H40	H	0.902842	0.213852	0.334906
	H41	H	0.096500	0.213281	0.663792
	H42	H	0.096813	0.787200	0.335358
	H43	H	0.902641	0.786614	0.664141
	H44	H	0.214273	0.336152	0.901847
	H45	H	0.213781	0.664162	0.097453
	H46	H	0.785455	0.336252	0.099129
	H47	H	0.785267	0.663306	0.900673
	H48	H	0.400247	0.119830	0.597661
	H49	H	0.600640	0.880420	0.593860
	H50	H	0.595344	0.114657	0.414857
	H51	H	0.406327	0.885753	0.416053
	H52	H	0.584600	0.412634	0.112034
	H53	H	0.601204	0.588469	0.881959
	H54	H	0.401710	0.587069	0.116875
	H55	H	0.410222	0.402074	0.882841
	H56	H	0.116531	0.591587	0.405359
	H57	H	0.883365	0.592748	0.594673
	H58	H	0.117988	0.407930	0.600469
	H59	H	0.883443	0.404378	0.406508
	H60	H	0.118212	0.400829	0.590243
	H61	H	0.883067	0.594691	0.596191
	H62	H	0.117699	0.596109	0.404307
	H63	H	0.884899	0.407764	0.408689
	H64	H	0.412904	0.591831	0.114531
	H65	H	0.585253	0.587227	0.887372
	H66	H	0.592307	0.395536	0.119046
	H67	H	0.401645	0.407491	0.882250
	H68	H	0.598134	0.119261	0.401846
	H69	H	0.589135	0.882494	0.599252
	H70	H	0.413399	0.115638	0.596467
	H71	H	0.399663	0.880915	0.404117
	H72	H	0.905341	0.619951	0.101707
	H73	H	0.099250	0.382262	0.090921
	H74	H	0.091694	0.619424	0.896386
	H75	H	0.908777	0.381557	0.898842
	H76	H	0.100119	0.914459	0.616731
	H77	H	0.097304	0.103115	0.379583
	H78	H	0.908361	0.097827	0.616845
	H79	H	0.895768	0.909397	0.381613
	H80	H	0.613855	0.084904	0.905835
	H81	H	0.382522	0.089298	0.103450
	H82	H	0.617022	0.907127	0.096513
	H83	H	0.384598	0.905409	0.909049
	H84	H	0.615989	0.904649	0.093240
	H85	H	0.381124	0.103078	0.091782
	H86	H	0.619772	0.097012	0.899507
	H87	H	0.384023	0.908596	0.905801
	H88	H	0.901684	0.094149	0.617463
	H89	H	0.100324	0.084268	0.383768
	H90	H	0.083489	0.908905	0.612506
	H91	H	0.912165	0.914719	0.387095
	H92	H	0.086966	0.612752	0.912083
	H93	H	0.090575	0.382064	0.100054
	H94	H	0.917196	0.613545	0.088851
	H95	H	0.912393	0.385303	0.912245
	H96	H	0.404890	0.114800	0.585454
	H97	H	0.591000	0.885849	0.586598
	H98	H	0.585166	0.114557	0.405037
	H99	H	0.413984	0.884161	0.403855
	H100	H	0.603998	0.412454	0.117350
	H101	H	0.591458	0.601959	0.881297
	H102	H	0.404389	0.599006	0.119603
	H103	H	0.409916	0.412038	0.885903
	H104	H	0.116705	0.595281	0.408793
	H105	H	0.883441	0.594543	0.593796
	H106	H	0.113830	0.411544	0.589984
	H107	H	0.884229	0.408343	0.404507
	H108	H	0.899640	0.616916	0.084351
	H109	H	0.088148	0.385883	0.088229
	H110	H	0.103154	0.618802	0.909276
	H111	H	0.898393	0.381194	0.909468
	H112	H	0.095140	0.896932	0.620054
	H113	H	0.082718	0.092396	0.386979
	H114	H	0.907389	0.089976	0.614943
	H115	H	0.909959	0.897167	0.381290
	H116	H	0.615334	0.097030	0.913706
	H117	H	0.387149	0.087104	0.085794
	H118	H	0.615549	0.908604	0.092760
	H119	H	0.382648	0.904382	0.905554
	C120	C	0.378318	0.008173	0.621686
	C121	C	0.621477	0.991607	0.621194
	C122	C	0.621349	0.007933	0.378637
	C123	C	0.378366	0.991808	0.379006
	C124	C	0.621924	0.378371	0.008389
	C125	C	0.621492	0.621263	0.991656
	C126	C	0.378469	0.621153	0.008438
	C127	C	0.378165	0.378253	0.991608
	C128	C	0.008682	0.622207	0.377893
	C129	C	0.991651	0.621807	0.622068
	C130	C	0.008487	0.378173	0.621916
	C131	C	0.992146	0.378637	0.378315
	C132	C	0.878844	0.508486	0.120805
	C133	C	0.121220	0.491581	0.121263
	C134	C	0.121807	0.508367	0.878212
	C135	C	0.878182	0.491391	0.878412
	C136	C	0.121773	0.878304	0.508177
	C137	C	0.121387	0.121512	0.491778
	C138	C	0.877698	0.122282	0.508081
	C139	C	0.878292	0.879020	0.491836
	C140	C	0.508309	0.121686	0.877888
	C141	C	0.491893	0.121262	0.122017
	C142	C	0.508036	0.877909	0.122514
	C143	C	0.491711	0.878001	0.878333
	C144	C	0.381261	0.884536	0.676609
	C145	C	0.618290	0.115472	0.675776
	C146	C	0.618409	0.884426	0.324069
	C147	C	0.381050	0.114967	0.323640
	C148	C	0.676521	0.380886	0.884926
	C149	C	0.677166	0.619258	0.114174
	C150	C	0.323402	0.619173	0.885351
	C151	C	0.322966	0.380802	0.114707
	C152	C	0.885337	0.676183	0.381580
	C153	C	0.114892	0.676189	0.617942
	C154	C	0.885415	0.323833	0.618437
	C155	C	0.115365	0.323932	0.381089
	C156	C	0.885465	0.381176	0.676558
	C157	C	0.114983	0.618705	0.675841
	C158	C	0.885715	0.619263	0.323053
	C159	C	0.115182	0.381640	0.323247
	C160	C	0.381517	0.676144	0.885289
	C161	C	0.618624	0.676028	0.114746
	C162	C	0.618579	0.323752	0.884845
	C163	C	0.381271	0.323308	0.114891
	C164	C	0.676326	0.884645	0.381293
	C165	C	0.676106	0.115389	0.618381
	C166	C	0.323304	0.884977	0.619472
	C167	C	0.323454	0.115228	0.381143
	C168	C	0.880998	0.385351	0.176678
	C169	C	0.118445	0.615489	0.175490
	C170	C	0.118484	0.384685	0.823947
	C171	C	0.881923	0.615048	0.824350
	C172	C	0.176378	0.881673	0.384797
	C173	C	0.176296	0.119071	0.615060
	C174	C	0.823266	0.119056	0.384505
	C175	C	0.823687	0.882161	0.615378
	C176	C	0.385332	0.176120	0.881220
	C177	C	0.614916	0.176011	0.118922
	C178	C	0.385187	0.822877	0.119508
	C179	C	0.614991	0.823341	0.881142
	C180	C	0.385242	0.880474	0.177249
	C181	C	0.614652	0.118208	0.177007
	C182	C	0.385330	0.118616	0.823321
	C183	C	0.614896	0.881309	0.823469
	C184	C	0.881586	0.176298	0.384129
	C185	C	0.118069	0.176000	0.615037
	C186	C	0.118216	0.824293	0.384474
	C187	C	0.881188	0.824094	0.615238
	C188	C	0.176182	0.384773	0.881257
	C189	C	0.176318	0.615230	0.118298
	C190	C	0.823405	0.385416	0.119073
	C191	C	0.823302	0.614538	0.880715
	C192	C	0.400153	0.094495	0.599669
	C193	C	0.599875	0.905310	0.599619
	C194	C	0.599334	0.093971	0.400844
	C195	C	0.400207	0.905713	0.401303
	C196	C	0.600119	0.400401	0.094085
	C197	C	0.599197	0.599058	0.905688
	C198	C	0.400052	0.599130	0.094800
	C199	C	0.400534	0.400698	0.905898
	C200	C	0.094825	0.600675	0.399654
	C201	C	0.905561	0.600397	0.601012
	C202	C	0.094424	0.400247	0.600134
	C203	C	0.906367	0.400335	0.400067
	C204	C	0.900957	0.594739	0.098527
	C205	C	0.099145	0.405672	0.099575
	C206	C	0.100332	0.594679	0.899753
	C207	C	0.900044	0.404779	0.900384
	C208	C	0.099748	0.900285	0.594195
	C209	C	0.099840	0.099618	0.405714
	C210	C	0.899443	0.100457	0.594110
	C211	C	0.899730	0.900841	0.405626
	C212	C	0.594285	0.099554	0.899813
	C213	C	0.405734	0.099544	0.100052
	C214	C	0.594005	0.900101	0.100427
	C215	C	0.405869	0.899691	0.900132
	Zn216	Zn	0.500127	-0.000148	0.749450
	Zn217	Zn	0.499904	-0.000510	0.250623
	Zn218	Zn	0.750099	0.499741	-0.000201
	Zn219	Zn	0.249694	0.499858	-0.000072
	Zn220	Zn	-0.000282	0.750419	0.500038
	Zn221	Zn	0.000314	0.249953	0.499828
	Zn222	Zn	0.000283	0.499870	0.750407
	Zn223	Zn	0.000068	0.500421	0.249584
	Zn224	Zn	0.499933	0.749728	0.000603
	Zn225	Zn	0.500503	0.249757	-0.000172
	Zn226	Zn	0.749751	0.000404	0.499873
	Zn227	Zn	0.249943	0.000557	0.500454
	N228	N	0.414478	0.962349	0.678213
	N229	N	0.584978	0.037639	0.677642
	N230	N	0.584959	0.961986	0.322440
	N231	N	0.414330	0.037284	0.322228
	N232	N	0.678602	0.414306	0.962405
	N233	N	0.678815	0.586018	0.036701
	N234	N	0.321240	0.585747	0.963126
	N235	N	0.320671	0.413943	0.036897
	N236	N	0.962700	0.678068	0.414952
	N237	N	0.037208	0.678148	0.585129
	N238	N	0.962931	0.322121	0.585039
	N239	N	0.038122	0.322321	0.414765
	N240	N	0.962962	0.414539	0.678593
	N241	N	0.037497	0.585566	0.678500
	N242	N	0.963394	0.586403	0.320802
	N243	N	0.037685	0.414825	0.321457
	N244	N	0.415117	0.677307	0.962801
	N245	N	0.584854	0.677444	0.037287
	N246	N	0.585533	0.321784	0.962618
	N247	N	0.415067	0.321948	0.037537
	N248	N	0.678264	0.962402	0.414509
	N249	N	0.678167	0.037461	0.585282
	N250	N	0.321424	0.962723	0.585951
	N251	N	0.321705	0.037628	0.415132
	N252	N	0.914733	0.462869	0.177903
	N253	N	0.084916	0.537877	0.177353
	N254	N	0.085420	0.462546	0.822087
	N255	N	0.915393	0.537325	0.822748
	N256	N	0.178874	0.914346	0.462759
	N257	N	0.178243	0.085735	0.537446
	N258	N	0.820667	0.086403	0.462419
	N259	N	0.821896	0.915492	0.537677
	N260	N	0.462771	0.177947	0.914537
	N261	N	0.537582	0.177760	0.085346
	N262	N	0.462732	0.821144	0.086236
	N263	N	0.537553	0.821382	0.914764
	N264	N	0.462721	0.913807	0.179136
	N265	N	0.537061	0.085061	0.178915
	N266	N	0.462940	0.085565	0.821116
	N267	N	0.537309	0.914538	0.821682
	N268	N	0.914829	0.178421	0.461919
	N269	N	0.084671	0.177383	0.537545
	N270	N	0.084747	0.822383	0.461985
	N271	N	0.914512	0.822148	0.537559
	N272	N	0.178534	0.462616	0.914140
	N273	N	0.178051	0.537380	0.085137
	N274	N	0.822020	0.463138	0.085290
	N275	N	0.821243	0.536529	0.913684
