data_Molecule from HDF5

_cell_length_a		16.292082
_cell_length_b		16.288886
_cell_length_c		16.262804
_cell_angle_alpha	90.041923
_cell_angle_beta	90.101268
_cell_angle_gamma	89.956567
_symmetry_space_group_name_H-M	'P 1'
_symmetry_Int_Tables_number		1

loop_
	_symmetry_equiv_pos_as_xyz
	x,y,z

loop_
	_atom_site_label
	_atom_site_type_symbol
	_atom_site_fract_x
	_atom_site_fract_y
	_atom_site_fract_z
	H0	H	0.391325	0.830528	0.708966
	H1	H	0.587937	0.157304	0.708907
	H2	H	0.586237	0.829945	0.279435
	H3	H	0.390987	0.157761	0.279665
	H4	H	0.703436	0.395026	0.829180
	H5	H	0.704307	0.592631	0.156366
	H6	H	0.273674	0.592751	0.829155
	H7	H	0.273780	0.394873	0.156935
	H8	H	0.826108	0.708698	0.394386
	H9	H	0.152709	0.707611	0.592047
	H10	H	0.824804	0.280756	0.590880
	H11	H	0.152408	0.277871	0.394399
	H12	H	0.825233	0.397031	0.706480
	H13	H	0.152549	0.592527	0.707962
	H14	H	0.825856	0.592699	0.278808
	H15	H	0.153405	0.395856	0.279213
	H16	H	0.389800	0.709287	0.829451
	H17	H	0.586316	0.706439	0.157883
	H18	H	0.586938	0.279484	0.830127
	H19	H	0.390433	0.279913	0.157513
	H20	H	0.703686	0.829883	0.395526
	H21	H	0.704121	0.157524	0.593549
	H22	H	0.275072	0.829968	0.592211
	H23	H	0.274148	0.157814	0.396028
	H24	H	0.891274	0.330493	0.206893
	H25	H	0.088551	0.657832	0.209615
	H26	H	0.087296	0.329982	0.778560
	H27	H	0.890806	0.657678	0.778716
	H28	H	0.203562	0.894167	0.329879
	H29	H	0.203560	0.093009	0.658047
	H30	H	0.775210	0.090353	0.330182
	H31	H	0.775720	0.896888	0.658557
	H32	H	0.325850	0.209899	0.893873
	H33	H	0.652155	0.209742	0.093635
	H34	H	0.325143	0.779040	0.092384
	H35	H	0.652692	0.779342	0.895295
	H36	H	0.324938	0.896882	0.207174
	H37	H	0.652567	0.092524	0.208785
	H38	H	0.325321	0.092726	0.779269
	H39	H	0.653186	0.896425	0.779839
	H40	H	0.889932	0.207438	0.330043
	H41	H	0.086783	0.208466	0.657756
	H42	H	0.086586	0.779321	0.330129
	H43	H	0.891389	0.779633	0.657992
	H44	H	0.203272	0.329939	0.895036
	H45	H	0.203837	0.657708	0.092930
	H46	H	0.774575	0.330651	0.091333
	H47	H	0.774495	0.657586	0.894211
	H48	H	0.401782	0.106369	0.580570
	H49	H	0.584776	0.878180	0.582509
	H50	H	0.582849	0.112881	0.393388
	H51	H	0.394247	0.880054	0.408608
	H52	H	0.577075	0.399715	0.109377
	H53	H	0.578989	0.590996	0.875984
	H54	H	0.387370	0.580967	0.110327
	H55	H	0.394920	0.405272	0.878261
	H56	H	0.107265	0.587843	0.397408
	H57	H	0.876579	0.579294	0.580158
	H58	H	0.103396	0.410006	0.588489
	H59	H	0.875567	0.406468	0.400644
	H60	H	0.108964	0.395082	0.593526
	H61	H	0.869900	0.585491	0.596801
	H62	H	0.106526	0.589680	0.402708
	H63	H	0.870520	0.398200	0.393535
	H64	H	0.405250	0.583272	0.105866
	H65	H	0.586209	0.586805	0.874809
	H66	H	0.586917	0.398698	0.111947
	H67	H	0.399383	0.400631	0.877890
	H68	H	0.574949	0.106771	0.404204
	H69	H	0.585730	0.875586	0.591311
	H70	H	0.387530	0.111921	0.584039
	H71	H	0.389933	0.875135	0.396585
	H72	H	0.897518	0.610386	0.085858
	H73	H	0.074792	0.380523	0.087734
	H74	H	0.084628	0.609349	0.905900
	H75	H	0.890011	0.378392	0.909856
	H76	H	0.087190	0.900738	0.611901
	H77	H	0.079037	0.085225	0.378984
	H78	H	0.903049	0.092992	0.610675
	H79	H	0.901737	0.898809	0.378452
	H80	H	0.606619	0.091415	0.902548
	H81	H	0.370427	0.092675	0.087852
	H82	H	0.606827	0.902260	0.093684
	H83	H	0.373672	0.897422	0.905736
	H84	H	0.606573	0.894250	0.085682
	H85	H	0.374737	0.086971	0.080936
	H86	H	0.603329	0.083763	0.905581
	H87	H	0.375079	0.907954	0.902184
	H88	H	0.888544	0.091257	0.614509
	H89	H	0.081852	0.088500	0.376764
	H90	H	0.079899	0.905753	0.608054
	H91	H	0.891605	0.898074	0.375495
	H92	H	0.084295	0.612274	0.896432
	H93	H	0.085188	0.379550	0.079524
	H94	H	0.895935	0.610041	0.084858
	H95	H	0.890314	0.373112	0.889553
	H96	H	0.398849	0.111138	0.594917
	H97	H	0.577225	0.878192	0.588540
	H98	H	0.588837	0.110334	0.406512
	H99	H	0.403104	0.878850	0.398212
	H100	H	0.582968	0.406770	0.108264
	H101	H	0.579408	0.583074	0.878455
	H102	H	0.395176	0.597278	0.113038
	H103	H	0.393685	0.399585	0.875463
	H104	H	0.105675	0.583682	0.401810
	H105	H	0.871491	0.597429	0.581616
	H106	H	0.103547	0.397050	0.577304
	H107	H	0.872964	0.395880	0.403941
	H108	H	0.895391	0.610640	0.086760
	H109	H	0.085815	0.374814	0.091833
	H110	H	0.076152	0.608281	0.900224
	H111	H	0.907150	0.380583	0.898851
	H112	H	0.078665	0.896420	0.610635
	H113	H	0.083556	0.084678	0.377216
	H114	H	0.896466	0.079550	0.608122
	H115	H	0.895358	0.906921	0.379955
	H116	H	0.605226	0.084876	0.897323
	H117	H	0.372781	0.083150	0.090058
	H118	H	0.603104	0.904937	0.082625
	H119	H	0.371137	0.899968	0.895150
	C120	C	0.367433	0.001957	0.615660
	C121	C	0.610944	0.985761	0.615940
	C122	C	0.610450	0.001951	0.372729
	C123	C	0.366969	0.985945	0.372062
	C124	C	0.610781	0.372690	0.001725
	C125	C	0.610119	0.615356	0.985008
	C126	C	0.366878	0.616128	0.001400
	C127	C	0.367647	0.372984	0.985437
	C128	C	-0.002315	0.615209	0.372194
	C129	C	0.980754	0.615603	0.615219
	C130	C	-0.002985	0.372729	0.614416
	C131	C	0.980919	0.371553	0.370925
	C132	C	0.868025	0.502183	0.114261
	C133	C	0.110637	0.486357	0.114977
	C134	C	0.110435	0.501884	0.872051
	C135	C	0.867510	0.485509	0.871309
	C136	C	0.110543	0.872454	0.502049
	C137	C	0.110206	0.115228	0.485813
	C138	C	0.867154	0.115729	0.502882
	C139	C	0.867472	0.872317	0.485954
	C140	C	0.497382	0.115817	0.872694
	C141	C	0.480792	0.115733	0.115392
	C142	C	0.497109	0.872460	0.115513
	C143	C	0.481206	0.872696	0.872377
	C144	C	0.370431	0.879062	0.671043
	C145	C	0.608529	0.108782	0.671092
	C146	C	0.607297	0.878630	0.317614
	C147	C	0.369823	0.108972	0.317338
	C148	C	0.665468	0.374950	0.878276
	C149	C	0.665886	0.613214	0.107958
	C150	C	0.311093	0.613793	0.878349
	C151	C	0.312189	0.374976	0.108420
	C152	C	0.874818	0.670609	0.374194
	C153	C	0.103813	0.670307	0.612874
	C154	C	0.873861	0.318402	0.611401
	C155	C	0.103890	0.316430	0.373932
	C156	C	0.873883	0.375883	0.668959
	C157	C	0.103789	0.613041	0.670410
	C158	C	0.874764	0.612841	0.316814
	C159	C	0.104348	0.374630	0.316515
	C160	C	0.368983	0.671409	0.878349
	C161	C	0.607389	0.669928	0.108419
	C162	C	0.607748	0.317382	0.878721
	C163	C	0.369850	0.317795	0.108585
	C164	C	0.665407	0.878647	0.375305
	C165	C	0.666395	0.108584	0.613761
	C166	C	0.312590	0.878969	0.613374
	C167	C	0.311896	0.108942	0.375142
	C168	C	0.870716	0.379221	0.169115
	C169	C	0.108733	0.609195	0.171132
	C170	C	0.107821	0.378883	0.816446
	C171	C	0.870227	0.608885	0.816583
	C172	C	0.165518	0.874366	0.378758
	C173	C	0.165615	0.113138	0.609078
	C174	C	0.812245	0.112076	0.379290
	C175	C	0.813052	0.875420	0.609578
	C176	C	0.374444	0.171837	0.873695
	C177	C	0.603482	0.171610	0.113952
	C178	C	0.373919	0.817272	0.112886
	C179	C	0.603980	0.817170	0.874584
	C180	C	0.373687	0.875799	0.169821
	C181	C	0.603663	0.113446	0.171055
	C182	C	0.374297	0.113529	0.816830
	C183	C	0.604291	0.875343	0.817469
	C184	C	0.869350	0.170151	0.379306
	C185	C	0.107272	0.170449	0.609086
	C186	C	0.107504	0.817161	0.378783
	C187	C	0.870245	0.817147	0.609125
	C188	C	0.165485	0.378745	0.874277
	C189	C	0.166110	0.609032	0.113299
	C190	C	0.813175	0.379179	0.111433
	C191	C	0.812501	0.608856	0.873890
	C192	C	0.389303	0.087741	0.593061
	C193	C	0.588844	0.899584	0.593950
	C194	C	0.588617	0.087860	0.394964
	C195	C	0.389281	0.900127	0.394437
	C196	C	0.588835	0.395233	0.087666
	C197	C	0.588111	0.593443	0.898746
	C198	C	0.389286	0.593810	0.087515
	C199	C	0.389612	0.395173	0.899499
	C200	C	0.084104	0.593415	0.394286
	C201	C	0.894823	0.593773	0.592766
	C202	C	0.083110	0.394419	0.592942
	C203	C	0.895131	0.393769	0.392732
	C204	C	0.889801	0.588285	0.092151
	C205	C	0.088386	0.400381	0.092772
	C206	C	0.088320	0.587704	0.894349
	C207	C	0.889353	0.399498	0.893048
	C208	C	0.088429	0.894460	0.587950
	C209	C	0.087975	0.092699	0.399762
	C210	C	0.889416	0.094184	0.588907
	C211	C	0.889596	0.894651	0.400194
	C212	C	0.582867	0.093288	0.895464
	C213	C	0.395053	0.093953	0.092874
	C214	C	0.583109	0.894192	0.093800
	C215	C	0.395610	0.895169	0.894528
	Zn216	Zn	0.489568	-0.005500	0.744235
	Zn217	Zn	0.488955	-0.006026	0.243836
	Zn218	Zn	0.739120	0.494147	-0.007130
	Zn219	Zn	0.238943	0.493840	-0.006728
	Zn220	Zn	-0.010654	0.743566	0.493957
	Zn221	Zn	-0.011061	0.243580	0.493462
	Zn222	Zn	-0.010976	0.494268	0.743293
	Zn223	Zn	-0.010672	0.494152	0.243020
	Zn224	Zn	0.489052	0.744056	-0.006455
	Zn225	Zn	0.488735	0.244297	-0.005960
	Zn226	Zn	0.739088	-0.006461	0.494406
	Zn227	Zn	0.238560	-0.006592	0.494115
	N228	N	0.404171	0.956551	0.672382
	N229	N	0.574436	0.031524	0.672217
	N230	N	0.573734	0.956153	0.316117
	N231	N	0.403179	0.031497	0.315466
	N232	N	0.667257	0.408846	0.955816
	N233	N	0.667587	0.579906	0.030271
	N234	N	0.309881	0.579919	0.955951
	N235	N	0.310747	0.408720	0.030825
	N236	N	0.952346	0.672310	0.407738
	N237	N	0.026292	0.672036	0.579269
	N238	N	0.951370	0.316508	0.578166
	N239	N	0.026394	0.314366	0.406810
	N240	N	0.951497	0.409231	0.670962
	N241	N	0.026232	0.579628	0.671756
	N242	N	0.952247	0.578880	0.315650
	N243	N	0.026890	0.408234	0.314575
	N244	N	0.402652	0.672993	0.955847
	N245	N	0.573547	0.671272	0.030920
	N246	N	0.574539	0.315812	0.956355
	N247	N	0.403657	0.316505	0.031129
	N248	N	0.667548	0.956371	0.408667
	N249	N	0.667698	0.031066	0.580220
	N250	N	0.310768	0.956359	0.579626
	N251	N	0.310004	0.031312	0.408397
	N252	N	0.904372	0.456713	0.170751
	N253	N	0.074863	0.531833	0.172078
	N254	N	0.074405	0.456519	0.814791
	N255	N	0.903688	0.531342	0.814936
	N256	N	0.167341	0.908078	0.456436
	N257	N	0.167524	0.079463	0.531314
	N258	N	0.810976	0.078646	0.456924
	N259	N	0.811378	0.908956	0.532086
	N260	N	0.451797	0.173357	0.907817
	N261	N	0.526088	0.173152	0.079856
	N262	N	0.451496	0.815366	0.079620
	N263	N	0.526420	0.815386	0.907857
	N264	N	0.451333	0.909325	0.171592
	N265	N	0.526544	0.079343	0.171928
	N266	N	0.451624	0.079546	0.815986
	N267	N	0.526995	0.909468	0.816181
	N268	N	0.902713	0.172534	0.457021
	N269	N	0.073738	0.171750	0.531423
	N270	N	0.073989	0.815804	0.456406
	N271	N	0.903483	0.815020	0.531372
	N272	N	0.167109	0.456179	0.907982
	N273	N	0.167429	0.531849	0.079075
	N274	N	0.811511	0.456797	0.078042
	N275	N	0.810480	0.531183	0.907124
	O276	O	1.022864	-0.058684	1.014028
	H277	H	1.021582	-0.061112	1.016786
	H278	H	1.025260	-0.057506	1.020783
	O279	O	1.073985	0.981611	1.041580
	H280	H	1.075330	0.977907	1.033252
	H281	H	1.075867	0.982198	1.042034
	O282	O	1.058344	0.963438	0.009508
	H283	H	1.061449	0.954803	0.002277
	H284	H	1.049355	0.968191	0.011755
	O285	O	1.019927	0.972094	1.042146
	H286	H	1.023868	0.977212	1.053605
	H287	H	1.027194	0.972809	1.040643
