data_Molecule from HDF5

_cell_length_a		16.287650
_cell_length_b		16.262735
_cell_length_c		16.308538
_cell_angle_alpha	90.197585
_cell_angle_beta	89.898540
_cell_angle_gamma	90.078423
_symmetry_space_group_name_H-M	'P 1'
_symmetry_Int_Tables_number		1

loop_
	_symmetry_equiv_pos_as_xyz
	x,y,z

loop_
	_atom_site_label
	_atom_site_type_symbol
	_atom_site_fract_x
	_atom_site_fract_y
	_atom_site_fract_z
	H0	H	0.387694	0.828171	0.708582
	H1	H	0.584778	0.155140	0.707855
	H2	H	0.586030	0.828383	0.278604
	H3	H	0.391224	0.156708	0.282075
	H4	H	0.700625	0.394197	0.830096
	H5	H	0.701797	0.591423	0.156812
	H6	H	0.273617	0.589697	0.830736
	H7	H	0.272122	0.394085	0.157614
	H8	H	0.822785	0.704735	0.397583
	H9	H	0.151215	0.705080	0.589651
	H10	H	0.822866	0.279161	0.590958
	H11	H	0.150802	0.276835	0.394515
	H12	H	0.823664	0.393815	0.707861
	H13	H	0.150967	0.589465	0.706876
	H14	H	0.822657	0.589642	0.280453
	H15	H	0.150474	0.392524	0.277207
	H16	H	0.389465	0.705691	0.830289
	H17	H	0.585067	0.706927	0.156647
	H18	H	0.584120	0.278218	0.829930
	H19	H	0.389194	0.278578	0.158237
	H20	H	0.701150	0.827642	0.394807
	H21	H	0.701573	0.155107	0.592847
	H22	H	0.273137	0.827314	0.590541
	H23	H	0.273577	0.156134	0.397541
	H24	H	0.887697	0.328383	0.207285
	H25	H	0.084941	0.656229	0.207498
	H26	H	0.087431	0.328195	0.777207
	H27	H	0.891557	0.656689	0.781677
	H28	H	0.200938	0.893164	0.330450
	H29	H	0.202054	0.092375	0.657948
	H30	H	0.773130	0.089284	0.329901
	H31	H	0.772651	0.894507	0.657449
	H32	H	0.323118	0.205329	0.897986
	H33	H	0.652180	0.206124	0.092425
	H34	H	0.325012	0.776963	0.092655
	H35	H	0.651004	0.777085	0.894034
	H36	H	0.324465	0.893012	0.209029
	H37	H	0.651240	0.090602	0.208601
	H38	H	0.323520	0.090337	0.780150
	H39	H	0.651016	0.892299	0.777547
	H40	H	0.888497	0.206022	0.330211
	H41	H	0.085129	0.207584	0.657323
	H42	H	0.083778	0.778688	0.329996
	H43	H	0.889089	0.779351	0.657542
	H44	H	0.203066	0.328244	0.893945
	H45	H	0.201046	0.656426	0.091458
	H46	H	0.772821	0.328392	0.090923
	H47	H	0.773454	0.656189	0.895976
	H48	H	0.390251	0.107644	0.581885
	H49	H	0.578638	0.873933	0.592294
	H50	H	0.584831	0.110532	0.397959
	H51	H	0.390666	0.874435	0.400823
	H52	H	0.578841	0.395357	0.111389
	H53	H	0.579066	0.581459	0.878829
	H54	H	0.395883	0.578764	0.107665
	H55	H	0.399674	0.401453	0.879894
	H56	H	0.104231	0.587357	0.399481
	H57	H	0.869289	0.585931	0.590217
	H58	H	0.103340	0.396053	0.580698
	H59	H	0.870156	0.394093	0.401816
	H60	H	0.101113	0.406552	0.586300
	H61	H	0.869893	0.587400	0.587549
	H62	H	0.101954	0.584029	0.402135
	H63	H	0.872169	0.401771	0.402137
	H64	H	0.399618	0.590208	0.110237
	H65	H	0.579969	0.588593	0.876775
	H66	H	0.586143	0.399827	0.111254
	H67	H	0.395187	0.392000	0.876892
	H68	H	0.575418	0.107529	0.399629
	H69	H	0.577059	0.876972	0.582502
	H70	H	0.391667	0.110702	0.593612
	H71	H	0.395257	0.874740	0.396616
	H72	H	0.900265	0.606702	0.084158
	H73	H	0.074832	0.375683	0.089810
	H74	H	0.087703	0.607695	0.909740
	H75	H	0.895014	0.372925	0.890838
	H76	H	0.086121	0.899834	0.611765
	H77	H	0.073665	0.087437	0.379928
	H78	H	0.888820	0.089225	0.612535
	H79	H	0.889976	0.899617	0.376423
	H80	H	0.603907	0.080272	0.896637
	H81	H	0.368554	0.093509	0.088541
	H82	H	0.601435	0.905213	0.082575
	H83	H	0.369413	0.895029	0.896893
	H84	H	0.606129	0.901779	0.093560
	H85	H	0.374733	0.082227	0.080544
	H86	H	0.606343	0.090336	0.898021
	H87	H	0.372782	0.896606	0.906499
	H88	H	0.892745	0.079112	0.607868
	H89	H	0.086579	0.088262	0.374935
	H90	H	0.077897	0.902328	0.608678
	H91	H	0.895952	0.900500	0.378440
	H92	H	0.085531	0.612516	0.889965
	H93	H	0.077908	0.378017	0.079434
	H94	H	0.887318	0.610359	0.083681
	H95	H	0.901123	0.378791	0.905613
	H96	H	0.400963	0.106290	0.587387
	H97	H	0.585730	0.873045	0.585103
	H98	H	0.582152	0.107113	0.407420
	H99	H	0.395704	0.876837	0.402342
	H100	H	0.578277	0.403302	0.108986
	H101	H	0.585465	0.583697	0.875869
	H102	H	0.388006	0.586849	0.111865
	H103	H	0.388912	0.400807	0.877391
	H104	H	0.103547	0.583264	0.397373
	H105	H	0.870312	0.584797	0.587924
	H106	H	0.106340	0.396960	0.592362
	H107	H	0.868985	0.398424	0.395590
	H108	H	0.894126	0.610687	0.094822
	H109	H	0.085632	0.373704	0.086997
	H110	H	0.069904	0.605222	0.900151
	H111	H	0.885397	0.373376	0.904098
	H112	H	0.079192	0.894357	0.611870
	H113	H	0.081013	0.076356	0.380519
	H114	H	0.900394	0.087893	0.608602
	H115	H	0.894059	0.894273	0.376192
	H116	H	0.602076	0.085130	0.905888
	H117	H	0.370565	0.079994	0.095309
	H118	H	0.605529	0.893366	0.084120
	H119	H	0.372383	0.904283	0.899712
	C120	C	0.365241	0.000161	0.615682
	C121	C	0.608850	0.982729	0.615340
	C122	C	0.609144	0.000285	0.372414
	C123	C	0.365513	0.983402	0.372146
	C124	C	0.609188	0.370414	0.002393
	C125	C	0.609463	0.613461	0.985281
	C126	C	0.366033	0.613570	0.002018
	C127	C	0.365709	0.370037	0.986106
	C128	C	-0.004849	0.613416	0.371844
	C129	C	0.978654	0.613837	0.615592
	C130	C	-0.004449	0.371097	0.614893
	C131	C	0.978428	0.369454	0.371009
	C132	C	0.865630	0.500502	0.115027
	C133	C	0.108168	0.483806	0.114722
	C134	C	0.109567	0.500028	0.871473
	C135	C	0.866174	0.483853	0.872427
	C136	C	0.108845	0.870408	0.502339
	C137	C	0.108820	0.113372	0.486341
	C138	C	0.865665	0.113196	0.501620
	C139	C	0.865356	0.870402	0.485454
	C140	C	0.495681	0.113412	0.872584
	C141	C	0.479652	0.114074	0.116428
	C142	C	0.496577	0.871047	0.115177
	C143	C	0.479392	0.870017	0.872013
	C144	C	0.367920	0.876531	0.669991
	C145	C	0.605912	0.106309	0.670238
	C146	C	0.606060	0.876940	0.316992
	C147	C	0.369629	0.107712	0.319028
	C148	C	0.663260	0.373156	0.878835
	C149	C	0.664018	0.611862	0.108150
	C150	C	0.311243	0.610480	0.879349
	C151	C	0.310408	0.373406	0.109001
	C152	C	0.871634	0.667381	0.376040
	C153	C	0.102149	0.667841	0.611400
	C154	C	0.872006	0.316650	0.611571
	C155	C	0.101944	0.314613	0.373647
	C156	C	0.871998	0.373828	0.669273
	C157	C	0.102084	0.610317	0.669309
	C158	C	0.871725	0.610281	0.317944
	C159	C	0.101725	0.372053	0.315507
	C160	C	0.369181	0.667832	0.879090
	C161	C	0.606488	0.669432	0.107754
	C162	C	0.605651	0.315508	0.879063
	C163	C	0.368667	0.316097	0.109279
	C164	C	0.663088	0.876447	0.375089
	C165	C	0.663672	0.106325	0.612799
	C166	C	0.310576	0.876398	0.611974
	C167	C	0.311341	0.107371	0.376233
	C168	C	0.867874	0.377323	0.169387
	C169	C	0.105829	0.607329	0.169899
	C170	C	0.107311	0.376852	0.815839
	C171	C	0.870054	0.607618	0.818764
	C172	C	0.162971	0.873130	0.379091
	C173	C	0.163892	0.111804	0.609046
	C174	C	0.810472	0.110376	0.378823
	C175	C	0.810277	0.873778	0.608581
	C176	C	0.372227	0.167799	0.876668
	C177	C	0.602885	0.168909	0.113292
	C178	C	0.373520	0.815485	0.112924
	C179	C	0.602450	0.815289	0.874115
	C180	C	0.373337	0.873065	0.170749
	C181	C	0.602615	0.111628	0.171210
	C182	C	0.372430	0.110797	0.818147
	C183	C	0.602339	0.872426	0.816090
	C184	C	0.867985	0.168303	0.378975
	C185	C	0.105842	0.169320	0.608833
	C186	C	0.105129	0.815697	0.379016
	C187	C	0.868258	0.816568	0.608643
	C188	C	0.165037	0.377010	0.873661
	C189	C	0.163270	0.607554	0.112022
	C190	C	0.810627	0.377093	0.111672
	C191	C	0.812010	0.607505	0.876054
	C192	C	0.387550	0.085930	0.594135
	C193	C	0.586865	0.896802	0.593251
	C194	C	0.587261	0.086408	0.395025
	C195	C	0.387330	0.897517	0.393521
	C196	C	0.587354	0.392921	0.088161
	C197	C	0.587819	0.591031	0.899281
	C198	C	0.388014	0.591680	0.087876
	C199	C	0.387997	0.391723	0.900233
	C200	C	0.081194	0.591490	0.393417
	C201	C	0.891986	0.592397	0.594775
	C202	C	0.081541	0.393368	0.593006
	C203	C	0.892611	0.391602	0.393286
	C204	C	0.887470	0.586857	0.093821
	C205	C	0.085990	0.398118	0.092065
	C206	C	0.087598	0.586161	0.893491
	C207	C	0.887671	0.397292	0.893793
	C208	C	0.087298	0.892443	0.588517
	C209	C	0.086997	0.090528	0.400452
	C210	C	0.887581	0.091748	0.587584
	C211	C	0.887045	0.891776	0.399232
	C212	C	0.581938	0.091482	0.893763
	C213	C	0.393483	0.091804	0.094627
	C214	C	0.582233	0.893493	0.093123
	C215	C	0.393623	0.892141	0.894454
	Zn216	Zn	0.487494	-0.008495	0.744124
	Zn217	Zn	0.487872	-0.007596	0.244387
	Zn218	Zn	0.737671	0.492205	-0.006486
	Zn219	Zn	0.237504	0.492205	-0.005989
	Zn220	Zn	-0.013341	0.741910	0.493613
	Zn221	Zn	-0.013067	0.242314	0.493653
	Zn222	Zn	-0.013301	0.491541	0.743609
	Zn223	Zn	-0.012826	0.492045	0.243337
	Zn224	Zn	0.487964	0.741952	-0.006702
	Zn225	Zn	0.487878	0.241661	-0.005320
	Zn226	Zn	0.736972	-0.008561	0.493529
	Zn227	Zn	0.237139	-0.008451	0.494225
	N228	N	0.400990	0.954419	0.672721
	N229	N	0.572111	0.028768	0.671466
	N230	N	0.573256	0.954881	0.315546
	N231	N	0.402577	0.029853	0.316269
	N232	N	0.665735	0.406562	0.956529
	N233	N	0.665900	0.577773	0.030933
	N234	N	0.309450	0.577259	0.956874
	N235	N	0.308558	0.406160	0.031373
	N236	N	0.949356	0.669349	0.409136
	N237	N	0.024326	0.670051	0.578813
	N238	N	0.949752	0.315167	0.578270
	N239	N	0.024587	0.312980	0.407510
	N240	N	0.949741	0.406907	0.671620
	N241	N	0.024161	0.577505	0.672108
	N242	N	0.949420	0.577240	0.315540
	N243	N	0.023939	0.405173	0.313550
	N244	N	0.402323	0.669999	0.956548
	N245	N	0.573095	0.670341	0.030325
	N246	N	0.572740	0.313721	0.956719
	N247	N	0.402401	0.314057	0.031775
	N248	N	0.665013	0.954102	0.408850
	N249	N	0.665707	0.028505	0.579370
	N250	N	0.309141	0.954052	0.578813
	N251	N	0.308652	0.029336	0.408372
	N252	N	0.901180	0.455136	0.171737
	N253	N	0.072566	0.529511	0.171841
	N254	N	0.073439	0.454354	0.814382
	N255	N	0.903047	0.529719	0.816556
	N256	N	0.165342	0.906450	0.456805
	N257	N	0.165531	0.077575	0.531703
	N258	N	0.809027	0.076732	0.456257
	N259	N	0.808188	0.906249	0.530839
	N260	N	0.449919	0.169580	0.909699
	N261	N	0.525367	0.170282	0.079874
	N262	N	0.450940	0.813913	0.079257
	N263	N	0.525194	0.813868	0.908236
	N264	N	0.450816	0.907182	0.172193
	N265	N	0.524902	0.078362	0.173229
	N266	N	0.450233	0.077805	0.815493
	N267	N	0.524724	0.905830	0.814851
	N268	N	0.901326	0.170327	0.456324
	N269	N	0.072130	0.170267	0.531552
	N270	N	0.072106	0.814127	0.456727
	N271	N	0.901593	0.814260	0.531000
	N272	N	0.166355	0.454569	0.907690
	N273	N	0.164744	0.529848	0.078270
	N274	N	0.809241	0.454742	0.078455
	N275	N	0.809424	0.529490	0.908485
	O276	O	1.134763	0.054760	0.981337
	H277	H	1.131754	0.053759	0.991957
	H278	H	1.145126	0.046054	0.982087
	O279	O	1.083667	1.053345	1.053887
	H280	H	1.084853	1.056914	1.058622
	H281	H	1.091737	1.056250	1.061559
	O282	O	1.082161	1.034394	0.048406
	H283	H	1.086374	1.037997	0.043008
	H284	H	1.075747	1.046544	0.043063
	O285	O	1.131291	1.026822	1.005578
	H286	H	1.129404	1.027033	1.006503
	H287	H	1.139363	1.024237	0.999910
