data_Molecule from HDF5

_cell_length_a		16.335557
_cell_length_b		16.391857
_cell_length_c		16.392743
_cell_angle_alpha	89.805344
_cell_angle_beta	89.924420
_cell_angle_gamma	90.166889
_symmetry_space_group_name_H-M	'P 1'
_symmetry_Int_Tables_number		1

loop_
	_symmetry_equiv_pos_as_xyz
	x,y,z

loop_
	_atom_site_label
	_atom_site_type_symbol
	_atom_site_fract_x
	_atom_site_fract_y
	_atom_site_fract_z
	H0	H	0.391505	0.835450	0.710958
	H1	H	0.603845	0.153333	0.706643
	H2	H	0.602259	0.832545	0.269002
	H3	H	0.396949	0.153003	0.266113
	H4	H	0.718858	0.392596	0.827314
	H5	H	0.718086	0.596654	0.147675
	H6	H	0.282848	0.596316	0.827033
	H7	H	0.282168	0.389873	0.148012
	H8	H	0.838418	0.710991	0.385583
	H9	H	0.158717	0.713813	0.592098
	H10	H	0.839103	0.272560	0.594484
	H11	H	0.159161	0.274297	0.385197
	H12	H	0.840422	0.387354	0.710546
	H13	H	0.161352	0.594768	0.704386
	H14	H	0.840700	0.598813	0.267022
	H15	H	0.159680	0.390112	0.268720
	H16	H	0.397342	0.713086	0.827535
	H17	H	0.603403	0.712881	0.147081
	H18	H	0.603555	0.276042	0.826784
	H19	H	0.395582	0.272223	0.146439
	H20	H	0.717999	0.832960	0.384936
	H21	H	0.718689	0.153526	0.588746
	H22	H	0.279468	0.833637	0.591285
	H23	H	0.280101	0.153080	0.382154
	H24	H	0.890952	0.335102	0.213456
	H25	H	0.106419	0.653001	0.209486
	H26	H	0.107089	0.334714	0.766234
	H27	H	0.896389	0.652661	0.766433
	H28	H	0.219907	0.887709	0.329592
	H29	H	0.223624	0.101774	0.645721
	H30	H	0.779859	0.098327	0.327846
	H31	H	0.775610	0.886743	0.646308
	H32	H	0.340979	0.216820	0.878926
	H33	H	0.659908	0.214489	0.091481
	H34	H	0.341025	0.772181	0.091302
	H35	H	0.659310	0.773466	0.879060
	H36	H	0.340971	0.886114	0.208776
	H37	H	0.659764	0.099079	0.207725
	H38	H	0.340767	0.101593	0.763732
	H39	H	0.658419	0.890031	0.764705
	H40	H	0.892133	0.217532	0.330447
	H41	H	0.107674	0.216680	0.646679
	H42	H	0.103964	0.772215	0.330095
	H43	H	0.891016	0.770871	0.647126
	H44	H	0.222412	0.333860	0.882471
	H45	H	0.222693	0.652565	0.092417
	H46	H	0.776852	0.333868	0.094600
	H47	H	0.781245	0.653280	0.883345
	H48	H	0.414255	0.106952	0.577770
	H49	H	0.582730	0.881742	0.574694
	H50	H	0.591524	0.111603	0.385116
	H51	H	0.411544	0.880261	0.399154
	H52	H	0.592557	0.396550	0.104456
	H53	H	0.593064	0.584223	0.872574
	H54	H	0.413134	0.580519	0.099983
	H55	H	0.423249	0.403127	0.877479
	H56	H	0.113798	0.582258	0.397270
	H57	H	0.883807	0.581653	0.581411
	H58	H	0.112544	0.399999	0.570934
	H59	H	0.885740	0.402728	0.403411
	H60	H	0.111520	0.411289	0.577674
	H61	H	0.884435	0.584618	0.577090
	H62	H	0.115192	0.585721	0.398832
	H63	H	0.887826	0.408976	0.402051
	H64	H	0.414063	0.583175	0.100785
	H65	H	0.589944	0.582215	0.873033
	H66	H	0.591824	0.411146	0.099789
	H67	H	0.404840	0.395147	0.868019
	H68	H	0.579106	0.103060	0.398736
	H69	H	0.588353	0.880538	0.574060
	H70	H	0.413038	0.104830	0.571195
	H71	H	0.406288	0.879372	0.398297
	H72	H	0.913160	0.606781	0.082089
	H73	H	0.088884	0.380664	0.077114
	H74	H	0.088598	0.608308	0.892929
	H75	H	0.907905	0.379435	0.899876
	H76	H	0.084988	0.903218	0.601330
	H77	H	0.087930	0.083679	0.375042
	H78	H	0.909445	0.086924	0.603175
	H79	H	0.902484	0.893850	0.369134
	H80	H	0.613183	0.082873	0.899532
	H81	H	0.387512	0.075656	0.078090
	H82	H	0.615341	0.905351	0.078903
	H83	H	0.385209	0.908880	0.894604
	H84	H	0.615692	0.901550	0.077444
	H85	H	0.383470	0.086551	0.080691
	H86	H	0.612687	0.080763	0.897202
	H87	H	0.382884	0.897820	0.897668
	H88	H	0.904493	0.077554	0.602210
	H89	H	0.087720	0.082716	0.376129
	H90	H	0.089926	0.903689	0.602982
	H91	H	0.903900	0.912460	0.376445
	H92	H	0.088588	0.604149	0.901832
	H93	H	0.089424	0.380690	0.078269
	H94	H	0.913424	0.603818	0.073137
	H95	H	0.911398	0.378899	0.896893
	H96	H	0.408232	0.108138	0.575083
	H97	H	0.586289	0.879455	0.578725
	H98	H	0.598475	0.107627	0.403602
	H99	H	0.410030	0.878244	0.394705
	H100	H	0.579498	0.401814	0.099065
	H101	H	0.589834	0.586248	0.872644
	H102	H	0.411278	0.582110	0.101098
	H103	H	0.405701	0.415676	0.875276
	H104	H	0.112811	0.583417	0.401060
	H105	H	0.885836	0.579619	0.577667
	H106	H	0.116310	0.400897	0.582929
	H107	H	0.884449	0.405502	0.397436
	H108	H	0.905361	0.607714	0.076826
	H109	H	0.087747	0.380749	0.078457
	H110	H	0.096686	0.608885	0.898418
	H111	H	0.912252	0.380392	0.901134
	H112	H	0.087748	0.907282	0.600403
	H113	H	0.086734	0.083721	0.375879
	H114	H	0.914485	0.079282	0.598988
	H115	H	0.920218	0.900661	0.377134
	H116	H	0.613359	0.084297	0.896379
	H117	H	0.388323	0.084515	0.070229
	H118	H	0.614381	0.904893	0.075550
	H119	H	0.388604	0.904912	0.905113
	C120	C	0.377887	0.002161	0.608413
	C121	C	0.619226	0.985522	0.607630
	C122	C	0.620908	0.001453	0.365253
	C123	C	0.378211	0.984747	0.365260
	C124	C	0.620536	0.372364	-0.004644
	C125	C	0.621926	0.615787	0.978357
	C126	C	0.380492	0.613924	-0.004298
	C127	C	0.378797	0.371929	0.978738
	C128	C	0.008380	0.615266	0.367140
	C129	C	0.990776	0.613857	0.609438
	C130	C	0.008228	0.371219	0.610184
	C131	C	0.991241	0.373201	0.368405
	C132	C	0.877365	0.501531	0.110589
	C133	C	0.121632	0.485633	0.109622
	C134	C	0.123147	0.501886	0.866067
	C135	C	0.879100	0.484928	0.866786
	C136	C	0.119559	0.872350	0.496527
	C137	C	0.121306	0.116169	0.479775
	C138	C	0.877857	0.114450	0.496394
	C139	C	0.876036	0.870202	0.479357
	C140	C	0.508013	0.115448	0.864997
	C141	C	0.491959	0.114496	0.107996
	C142	C	0.509015	0.871653	0.108759
	C143	C	0.490974	0.872424	0.865602
	C144	C	0.374159	0.882829	0.669852
	C145	C	0.621664	0.105592	0.666741
	C146	C	0.621428	0.880662	0.307964
	C147	C	0.377643	0.105067	0.305745
	C148	C	0.679663	0.372706	0.875144
	C149	C	0.679479	0.615830	0.099454
	C150	C	0.321763	0.614999	0.875079
	C151	C	0.320431	0.370621	0.099484
	C152	C	0.887249	0.672802	0.366142
	C153	C	0.111403	0.673554	0.610543
	C154	C	0.887523	0.311634	0.612878
	C155	C	0.111396	0.313803	0.366469
	C156	C	0.888039	0.369215	0.670408
	C157	C	0.112506	0.614270	0.666342
	C158	C	0.888074	0.616896	0.307278
	C159	C	0.111556	0.371573	0.308653
	C160	C	0.378703	0.673305	0.875370
	C161	C	0.622393	0.673973	0.098795
	C162	C	0.622182	0.314905	0.874962
	C163	C	0.377042	0.312092	0.098714
	C164	C	0.678845	0.880954	0.365841
	C165	C	0.678876	0.105687	0.607942
	C166	C	0.318001	0.882124	0.610585
	C167	C	0.319655	0.105119	0.363654
	C168	C	0.873785	0.382297	0.172019
	C169	C	0.124477	0.605063	0.169615
	C170	C	0.124926	0.381996	0.806604
	C171	C	0.877971	0.604892	0.806502
	C172	C	0.179878	0.869881	0.377327
	C173	C	0.183222	0.119222	0.598449
	C174	C	0.819092	0.116803	0.376177
	C175	C	0.815794	0.868616	0.598984
	C176	C	0.388655	0.176402	0.861558
	C177	C	0.611846	0.174847	0.109834
	C178	C	0.388890	0.811485	0.110562
	C179	C	0.611278	0.813320	0.861975
	C180	C	0.388916	0.868611	0.168700
	C181	C	0.611886	0.117392	0.167934
	C182	C	0.388551	0.119113	0.803876
	C183	C	0.610581	0.870857	0.804465
	C184	C	0.874968	0.176375	0.377490
	C185	C	0.125304	0.176653	0.598754
	C186	C	0.121965	0.812299	0.377532
	C187	C	0.872958	0.810432	0.599130
	C188	C	0.182838	0.381924	0.864426
	C189	C	0.182394	0.605081	0.111316
	C190	C	0.816563	0.381888	0.113226
	C191	C	0.820372	0.605223	0.864631
	C192	C	0.404190	0.084948	0.582440
	C193	C	0.593381	0.902209	0.583088
	C194	C	0.596658	0.085725	0.388950
	C195	C	0.402136	0.901244	0.389965
	C196	C	0.595541	0.396302	0.079312
	C197	C	0.598085	0.591289	0.894517
	C198	C	0.405470	0.589283	0.078907
	C199	C	0.403751	0.397231	0.895142
	C200	C	0.092027	0.590843	0.391972
	C201	C	0.906569	0.589245	0.585598
	C202	C	0.091772	0.396436	0.584519
	C203	C	0.907656	0.398337	0.393645
	C204	C	0.903281	0.584412	0.084766
	C205	C	0.095959	0.402388	0.084766
	C206	C	0.098455	0.585226	0.890619
	C207	C	0.903503	0.401454	0.891925
	C208	C	0.094406	0.897501	0.579889
	C209	C	0.095095	0.090636	0.397183
	C210	C	0.902643	0.088778	0.579696
	C211	C	0.901702	0.895074	0.395859
	C212	C	0.591185	0.089886	0.890545
	C213	C	0.408429	0.089361	0.083385
	C214	C	0.593245	0.896889	0.084309
	C215	C	0.407397	0.896848	0.891580
	Zn216	Zn	0.498851	-0.006333	0.737410
	Zn217	Zn	0.500422	-0.007185	0.236694
	Zn218	Zn	0.749568	0.493406	-0.012105
	Zn219	Zn	0.251195	0.493692	-0.011970
	Zn220	Zn	-0.001397	0.742756	0.488990
	Zn221	Zn	-0.001291	0.243610	0.488985
	Zn222	Zn	0.000421	0.492978	0.737960
	Zn223	Zn	-0.000586	0.493933	0.238914
	Zn224	Zn	0.500667	0.743994	-0.013256
	Zn225	Zn	0.499869	0.243353	-0.013407
	Zn226	Zn	0.748977	-0.007115	0.487148
	Zn227	Zn	0.249034	-0.006240	0.487363
	N228	N	0.410367	0.958581	0.668862
	N229	N	0.585303	0.029713	0.666613
	N230	N	0.586185	0.956773	0.307530
	N231	N	0.412925	0.028934	0.306344
	N232	N	0.678729	0.407684	0.951292
	N233	N	0.679701	0.580642	0.023444
	N234	N	0.322633	0.578919	0.950911
	N235	N	0.321259	0.406815	0.023749
	N236	N	0.962907	0.671860	0.402685
	N237	N	0.034639	0.673576	0.576105
	N238	N	0.963330	0.312979	0.576242
	N239	N	0.035455	0.314592	0.402844
	N240	N	0.964174	0.405157	0.669206
	N241	N	0.036505	0.578132	0.665924
	N242	N	0.964426	0.582138	0.307411
	N243	N	0.035542	0.407306	0.309572
	N244	N	0.414650	0.672695	0.951050
	N245	N	0.587769	0.674206	0.022405
	N246	N	0.586281	0.314683	0.950792
	N247	N	0.412210	0.312431	0.022351
	N248	N	0.678712	0.957258	0.400588
	N249	N	0.677270	0.030033	0.571994
	N250	N	0.320157	0.957381	0.573103
	N251	N	0.319479	0.029354	0.399637
	N252	N	0.910963	0.457529	0.170423
	N253	N	0.087267	0.529711	0.168698
	N254	N	0.088179	0.457341	0.807577
	N255	N	0.913599	0.529017	0.807554
	N256	N	0.178147	0.906906	0.452287
	N257	N	0.180887	0.082142	0.523373
	N258	N	0.820731	0.078817	0.451001
	N259	N	0.817607	0.905002	0.523359
	N260	N	0.463983	0.174532	0.898864
	N261	N	0.536319	0.173203	0.073148
	N262	N	0.464741	0.813427	0.073938
	N263	N	0.535881	0.814089	0.899256
	N264	N	0.464732	0.905238	0.167592
	N265	N	0.536316	0.080537	0.167063
	N266	N	0.463546	0.081698	0.806030
	N267	N	0.534729	0.906869	0.806537
	N268	N	0.911009	0.174777	0.453228
	N269	N	0.087257	0.174768	0.524192
	N270	N	0.085034	0.813721	0.452858
	N271	N	0.909858	0.811491	0.523759
	N272	N	0.181545	0.457361	0.900883
	N273	N	0.180609	0.529849	0.074715
	N274	N	0.818830	0.457020	0.075610
	N275	N	0.820961	0.529785	0.901609
	O276	O	0.452085	0.356463	0.453640
	H277	H	0.439255	0.370315	0.451181
	H278	H	0.442909	0.355399	0.449702
	O279	O	0.568740	0.581800	0.574181
	H280	H	0.566425	0.568545	0.585373
	H281	H	0.591249	0.597462	0.570683
	O282	O	0.686558	0.461103	0.376009
	H283	H	0.684767	0.441287	0.379294
	H284	H	0.693534	0.448522	0.363517
	O285	O	1.052618	0.207666	-0.070723
	H286	H	1.049174	0.208233	-0.094802
	H287	H	1.038653	0.209469	-0.056197
	O288	O	-0.178487	-0.192240	1.177471
	H289	H	-0.188282	-0.151758	1.180757
	H290	H	-0.191401	-0.197246	1.142053
	O291	O	0.576851	0.628602	0.374964
	H292	H	0.578038	0.628737	0.376899
	H293	H	0.576264	0.621418	0.373854
	O294	O	0.471611	0.429138	0.562632
	H295	H	0.476478	0.438185	0.558204
	H296	H	0.478064	0.427020	0.569074
	O297	O	1.179826	1.176305	1.173540
	H298	H	1.189265	1.130502	1.179936
	H299	H	1.193588	1.188769	1.121137
	O300	O	-0.595136	0.603352	0.454432
	H301	H	-0.602544	0.609768	0.446725
	H302	H	-0.582398	0.595992	0.456822
	O303	O	0.413187	0.634879	0.499875
	H304	H	0.431170	0.640422	0.507896
	H305	H	0.426724	0.626573	0.483313
	O306	O	1.020966	0.210969	0.204874
	H307	H	1.043726	0.210219	0.211880
	H308	H	1.052453	0.227533	0.219876
	O309	O	0.377975	0.394514	0.639337
	H310	H	0.396709	0.411391	0.646191
	H311	H	0.375456	0.410220	0.638351
	O312	O	0.813450	1.172193	-0.201751
	H313	H	0.830416	1.162188	-0.213521
	H314	H	0.804663	1.182370	-0.147860
	O315	O	0.473428	0.387750	0.512491
	H316	H	0.466739	0.391168	0.506856
	H317	H	0.456401	0.390195	0.520517
	O318	O	0.331959	0.598351	0.462528
	H319	H	0.333681	0.600502	0.465780
	H320	H	0.333719	0.602122	0.467080
	O321	O	1.184511	-0.138764	1.035523
	H322	H	1.185623	-0.136485	1.012156
	H323	H	1.181303	-0.155298	1.033904
	O324	O	0.189337	-0.201482	0.909458
	H325	H	0.187642	-0.181136	0.893274
	H326	H	0.169959	-0.218515	0.901627
	O327	O	0.459835	0.607826	0.313936
	H328	H	0.462796	0.611394	0.310281
	H329	H	0.458198	0.598865	0.317690
	O330	O	0.672843	0.479008	0.393820
	H331	H	0.673862	0.483114	0.375779
	H332	H	0.675393	0.469197	0.385130
	O333	O	0.921928	0.786971	0.951414
	H334	H	0.923414	0.783580	0.943062
	H335	H	0.922716	0.788543	0.959219
	O336	O	0.383194	0.467920	0.481236
	H337	H	0.381997	0.475720	0.484668
	H338	H	0.388054	0.479507	0.478514
	O339	O	1.213028	0.205710	1.014510
	H340	H	1.204117	0.208938	0.992628
	H341	H	1.238131	0.210760	1.003372
	O342	O	-0.006719	0.782049	1.178971
	H343	H	-0.029078	0.761398	1.186695
	H344	H	-0.033699	0.779691	1.178298
	O345	O	0.063290	1.004830	0.938597
	H346	H	0.055676	0.996873	0.919159
	H347	H	0.077533	0.992176	0.944004
	O348	O	0.958357	0.870401	1.036484
	H349	H	0.965108	0.864979	1.043033
	H350	H	0.953619	0.861407	1.061660
	O351	O	0.195593	-0.128502	-0.211563
	H352	H	0.185415	-0.090249	-0.220767
	H353	H	0.197585	-0.135344	-0.215469
	O354	O	0.976523	1.006094	0.064462
	H355	H	0.996137	1.016428	0.073479
	H356	H	0.993862	0.990041	0.066993
	O357	O	-0.205369	0.916793	-0.057883
	H358	H	-0.210357	0.920207	-0.074168
	H359	H	-0.182305	0.924692	-0.042691
	O360	O	0.519339	0.511774	0.602251
	H361	H	0.518823	0.504387	0.586915
	H362	H	0.528109	0.516210	0.610202
	O363	O	0.590902	0.629187	0.486871
	H364	H	0.601745	0.617836	0.484886
	H365	H	0.592848	0.643541	0.494438
	O366	O	1.147218	1.003076	0.770813
	H367	H	1.139825	1.030686	0.780993
	H368	H	1.150935	1.003764	0.764123
	O369	O	0.388520	0.468782	0.516201
	H370	H	0.388423	0.481955	0.511501
	H371	H	0.382334	0.481627	0.516262
	O372	O	0.472316	0.661936	0.489889
	H373	H	0.477914	0.668479	0.486734
	H374	H	0.460699	0.658938	0.474553
	O375	O	0.446593	0.297334	0.422185
	H376	H	0.442289	0.295410	0.450202
	H377	H	0.424443	0.277341	0.426951
	O378	O	0.629169	0.439549	0.555091
	H379	H	0.623402	0.425420	0.555959
	H380	H	0.638204	0.437207	0.564149
	O381	O	0.584136	0.372910	0.404374
	H382	H	0.571692	0.367742	0.409819
	H383	H	0.579571	0.366409	0.419449
	O384	O	-0.021451	1.206700	0.772006
	H385	H	-0.040458	1.203569	0.767996
	H386	H	-0.018909	1.226145	0.754809
	O387	O	0.799963	0.988215	0.139077
	H388	H	0.787169	0.993410	0.154798
	H389	H	0.817217	1.002628	0.134237
	O390	O	-0.025219	0.110462	1.094575
	H391	H	-0.018120	0.121387	1.100207
	H392	H	-0.011075	0.108947	1.111787
	O393	O	1.206746	0.014787	1.196908
	H394	H	1.212552	0.002798	1.212966
	H395	H	1.201675	0.006645	1.207612
	O396	O	0.086782	1.024769	1.009951
	H397	H	0.094285	1.010899	1.019401
	H398	H	0.087572	1.028761	1.013437
	O399	O	0.550500	0.452838	0.385278
	H400	H	0.551952	0.450857	0.383994
	H401	H	0.540732	0.455453	0.380234
	O402	O	1.054591	-0.064322	1.181269
	H403	H	1.030749	-0.095713	1.190603
	H404	H	1.053322	-0.063503	1.170535
	O405	O	0.022522	-0.211089	-0.222165
	H406	H	0.026486	-0.239684	-0.255326
	H407	H	0.016150	-0.187977	-0.219867
	O408	O	0.963560	0.944739	0.776939
	H409	H	0.951525	0.953400	0.771336
	H410	H	0.969680	0.940718	0.794833
	O411	O	0.795297	0.835779	0.063941
	H412	H	0.792694	0.826728	0.055540
	H413	H	0.787792	0.850385	0.053704
	O414	O	-0.217867	0.138300	0.993236
	H415	H	-0.209078	0.135571	1.013778
	H416	H	-0.234494	0.148615	0.988857
	O417	O	0.562281	0.382076	0.628022
	H418	H	0.556873	0.377149	0.631150
	H419	H	0.554467	0.383251	0.637741
	O420	O	-0.202446	1.008180	-0.218167
	H421	H	-0.203964	1.021469	-0.207460
	H422	H	-0.212929	1.017075	-0.230383
	O423	O	0.880351	0.193762	0.018253
	H424	H	0.880642	0.199573	0.019473
	H425	H	0.902417	0.202406	0.040464
	O426	O	0.163911	0.009351	0.922754
	H427	H	0.152985	0.014191	0.941037
	H428	H	0.167934	0.007669	0.934452
	O429	O	0.359273	0.654210	0.392584
	H430	H	0.350619	0.661507	0.399387
	H431	H	0.351175	0.664366	0.364939
