data_Molecule from HDF5

_cell_length_a		16.390347
_cell_length_b		16.360004
_cell_length_c		16.558574
_cell_angle_alpha	89.965570
_cell_angle_beta	90.180487
_cell_angle_gamma	89.959983
_symmetry_space_group_name_H-M	'P 1'
_symmetry_Int_Tables_number		1

loop_
	_symmetry_equiv_pos_as_xyz
	x,y,z

loop_
	_atom_site_label
	_atom_site_type_symbol
	_atom_site_fract_x
	_atom_site_fract_y
	_atom_site_fract_z
	H0	H	0.395059	0.831284	0.715834
	H1	H	0.610766	0.147372	0.716558
	H2	H	0.614299	0.833826	0.267180
	H3	H	0.395474	0.148025	0.269824
	H4	H	0.724577	0.383009	0.837676
	H5	H	0.727086	0.598122	0.150235
	H6	H	0.277686	0.596328	0.837508
	H7	H	0.278436	0.382012	0.151469
	H8	H	0.845472	0.712759	0.386380
	H9	H	0.161315	0.709528	0.600011
	H10	H	0.844343	0.266998	0.599422
	H11	H	0.162197	0.270007	0.392355
	H12	H	0.844085	0.382594	0.715574
	H13	H	0.159363	0.597570	0.718856
	H14	H	0.845694	0.597351	0.269487
	H15	H	0.159748	0.377601	0.270046
	H16	H	0.394565	0.712378	0.836751
	H17	H	0.608856	0.713220	0.149942
	H18	H	0.605562	0.270725	0.835945
	H19	H	0.394520	0.264329	0.150655
	H20	H	0.724123	0.830869	0.388077
	H21	H	0.723513	0.148123	0.599333
	H22	H	0.282507	0.829904	0.596908
	H23	H	0.282290	0.149762	0.387809
	H24	H	0.892261	0.332124	0.218153
	H25	H	0.113668	0.645067	0.221750
	H26	H	0.108069	0.331963	0.773750
	H27	H	0.888718	0.644537	0.766513
	H28	H	0.225408	0.881101	0.335979
	H29	H	0.227906	0.097387	0.647996
	H30	H	0.778591	0.095846	0.335856
	H31	H	0.776567	0.879555	0.649029
	H32	H	0.344291	0.210917	0.890598
	H33	H	0.661530	0.213086	0.100039
	H34	H	0.344141	0.768176	0.098555
	H35	H	0.660343	0.767912	0.887804
	H36	H	0.346246	0.880319	0.218172
	H37	H	0.659172	0.101852	0.219879
	H38	H	0.345374	0.097586	0.770182
	H39	H	0.659518	0.882218	0.770828
	H40	H	0.894759	0.213620	0.336582
	H41	H	0.109200	0.210925	0.649442
	H42	H	0.108780	0.764675	0.337272
	H43	H	0.892210	0.761541	0.648224
	H44	H	0.221216	0.331273	0.893299
	H45	H	0.222974	0.648848	0.101346
	H46	H	0.780201	0.331813	0.099950
	H47	H	0.778969	0.647042	0.885909
	H48	H	0.414822	0.103460	0.581218
	H49	H	0.583085	0.877608	0.583281
	H50	H	0.580348	0.100510	0.403082
	H51	H	0.411652	0.874873	0.401624
	H52	H	0.591544	0.398370	0.106922
	H53	H	0.596705	0.571228	0.881321
	H54	H	0.415233	0.579694	0.105147
	H55	H	0.411634	0.394419	0.880812
	H56	H	0.113721	0.571680	0.407279
	H57	H	0.889552	0.577284	0.582143
	H58	H	0.116768	0.404292	0.590101
	H59	H	0.889141	0.397477	0.407972
	H60	H	0.118917	0.394766	0.584732
	H61	H	0.890665	0.574594	0.578258
	H62	H	0.116916	0.575459	0.403718
	H63	H	0.891932	0.407789	0.407054
	H64	H	0.411775	0.580737	0.106534
	H65	H	0.582879	0.575818	0.885303
	H66	H	0.594948	0.403798	0.107069
	H67	H	0.406248	0.408514	0.883243
	H68	H	0.591314	0.099746	0.413827
	H69	H	0.591058	0.877887	0.576396
	H70	H	0.414929	0.102829	0.581909
	H71	H	0.420779	0.877401	0.402061
	H72	H	0.914503	0.603558	0.084805
	H73	H	0.085873	0.380034	0.077384
	H74	H	0.093910	0.607075	0.900390
	H75	H	0.918561	0.376853	0.903859
	H76	H	0.086805	0.903304	0.602255
	H77	H	0.095461	0.076751	0.379447
	H78	H	0.915799	0.079317	0.604612
	H79	H	0.915243	0.898432	0.382004
	H80	H	0.615728	0.078681	0.907243
	H81	H	0.393473	0.075795	0.075014
	H82	H	0.613387	0.904796	0.077338
	H83	H	0.389444	0.908275	0.898826
	H84	H	0.615061	0.905939	0.084288
	H85	H	0.392215	0.071053	0.084363
	H86	H	0.616993	0.075616	0.901257
	H87	H	0.385696	0.895994	0.901213
	H88	H	0.911403	0.079146	0.606095
	H89	H	0.086785	0.076231	0.381676
	H90	H	0.092100	0.896284	0.607183
	H91	H	0.911597	0.905055	0.383628
	H92	H	0.081363	0.602918	0.902589
	H93	H	0.097812	0.373947	0.082087
	H94	H	0.921841	0.600703	0.082403
	H95	H	0.915421	0.377567	0.909058
	H96	H	0.415441	0.102256	0.581489
	H97	H	0.592542	0.873884	0.586353
	H98	H	0.594019	0.106798	0.400317
	H99	H	0.415417	0.878387	0.409435
	H100	H	0.589276	0.403537	0.105052
	H101	H	0.591848	0.585507	0.878967
	H102	H	0.413212	0.577182	0.105159
	H103	H	0.419967	0.405136	0.887365
	H104	H	0.115532	0.577456	0.408941
	H105	H	0.889591	0.572532	0.582061
	H106	H	0.113262	0.403041	0.579612
	H107	H	0.887929	0.402693	0.398891
	H108	H	0.915411	0.600955	0.077491
	H109	H	0.086384	0.374837	0.090040
	H110	H	0.090000	0.602623	0.912663
	H111	H	0.913076	0.375107	0.903453
	H112	H	0.096196	0.904687	0.604851
	H113	H	0.090389	0.083632	0.377867
	H114	H	0.912738	0.075652	0.603547
	H115	H	0.918428	0.903996	0.384663
	H116	H	0.617955	0.082638	0.902435
	H117	H	0.388368	0.080961	0.082460
	H118	H	0.616446	0.899700	0.081513
	H119	H	0.391170	0.903045	0.910637
	C120	C	0.381565	-0.001871	0.614097
	C121	C	0.622956	0.981134	0.614590
	C122	C	0.623561	-0.001532	0.371645
	C123	C	0.382155	0.981377	0.371286
	C124	C	0.624012	0.368868	0.002534
	C125	C	0.624422	0.611407	0.985426
	C126	C	0.379645	0.612302	0.002437
	C127	C	0.380131	0.368689	0.987023
	C128	C	0.011669	0.609648	0.372608
	C129	C	0.993986	0.609364	0.614905
	C130	C	0.011635	0.367427	0.616300
	C131	C	0.994063	0.368533	0.372712
	C132	C	0.882548	0.497669	0.114593
	C133	C	0.124360	0.480311	0.117431
	C134	C	0.121949	0.499286	0.873446
	C135	C	0.880940	0.480437	0.871896
	C136	C	0.124509	0.867468	0.501561
	C137	C	0.124386	0.111177	0.483581
	C138	C	0.879983	0.111563	0.501348
	C139	C	0.880408	0.867484	0.485420
	C140	C	0.511786	0.111561	0.871647
	C141	C	0.495047	0.111007	0.114758
	C142	C	0.511082	0.869420	0.114674
	C143	C	0.493338	0.869088	0.871542
	C144	C	0.377772	0.878786	0.675356
	C145	C	0.627373	0.099951	0.675561
	C146	C	0.629996	0.880649	0.308765
	C147	C	0.378186	0.100823	0.310639
	C148	C	0.684423	0.365405	0.884706
	C149	C	0.686013	0.615437	0.103000
	C150	C	0.317850	0.615109	0.884715
	C151	C	0.319135	0.364255	0.104491
	C152	C	0.892740	0.671933	0.368528
	C153	C	0.113467	0.669871	0.617937
	C154	C	0.892074	0.306818	0.618152
	C155	C	0.113893	0.308137	0.372000
	C156	C	0.891929	0.364446	0.675951
	C157	C	0.112376	0.614088	0.677338
	C158	C	0.893107	0.614489	0.310391
	C159	C	0.112595	0.362302	0.311358
	C160	C	0.376337	0.672691	0.884209
	C161	C	0.627069	0.672843	0.103051
	C162	C	0.625207	0.309342	0.883875
	C163	C	0.377320	0.305842	0.104228
	C164	C	0.684860	0.879140	0.369094
	C165	C	0.683808	0.100267	0.617236
	C166	C	0.321592	0.878215	0.616026
	C167	C	0.321693	0.101392	0.369138
	C168	C	0.876386	0.379373	0.176889
	C169	C	0.129369	0.598345	0.179977
	C170	C	0.125494	0.379560	0.814198
	C171	C	0.874268	0.598200	0.808688
	C172	C	0.185080	0.863674	0.383281
	C173	C	0.186419	0.114391	0.601215
	C174	C	0.819141	0.114180	0.383198
	C175	C	0.818126	0.862620	0.602533
	C176	C	0.391929	0.171421	0.870815
	C177	C	0.613710	0.173294	0.118654
	C178	C	0.391885	0.808048	0.117326
	C179	C	0.612602	0.807909	0.869446
	C180	C	0.393035	0.863993	0.176950
	C181	C	0.612543	0.117577	0.178229
	C182	C	0.392429	0.114947	0.811348
	C183	C	0.612257	0.864677	0.811040
	C184	C	0.876901	0.172965	0.383446
	C185	C	0.127275	0.171332	0.602008
	C186	C	0.127096	0.805310	0.384023
	C187	C	0.875451	0.803593	0.601951
	C188	C	0.181948	0.379286	0.873174
	C189	C	0.184235	0.600183	0.120112
	C190	C	0.820347	0.379218	0.117908
	C191	C	0.818997	0.599198	0.868081
	C192	C	0.407682	0.080945	0.588878
	C193	C	0.596392	0.898016	0.589280
	C194	C	0.596287	0.080767	0.397984
	C195	C	0.408264	0.898714	0.396803
	C196	C	0.599127	0.394468	0.084872
	C197	C	0.598082	0.585111	0.903438
	C198	C	0.405885	0.586536	0.084302
	C199	C	0.405339	0.395233	0.905213
	C200	C	0.093717	0.582690	0.399099
	C201	C	0.911432	0.582722	0.588310
	C202	C	0.094544	0.393175	0.591782
	C203	C	0.911285	0.395112	0.397501
	C204	C	0.909503	0.580074	0.088887
	C205	C	0.097691	0.397637	0.090828
	C206	C	0.095975	0.582520	0.898074
	C207	C	0.907957	0.398106	0.897937
	C208	C	0.099013	0.893858	0.583305
	C209	C	0.098450	0.085932	0.401086
	C210	C	0.905954	0.085594	0.583399
	C211	C	0.907276	0.894758	0.404623
	C212	C	0.595150	0.086247	0.896339
	C213	C	0.412838	0.083697	0.088206
	C214	C	0.593293	0.895878	0.088704
	C215	C	0.410412	0.894906	0.896579
	Zn216	Zn	0.502617	-0.010369	0.743102
	Zn217	Zn	0.503316	-0.009725	0.243223
	Zn218	Zn	0.753778	0.489566	-0.006492
	Zn219	Zn	0.250548	0.490716	-0.005103
	Zn220	Zn	0.003153	0.738085	0.494134
	Zn221	Zn	0.002424	0.240690	0.493290
	Zn222	Zn	0.001844	0.489753	0.744015
	Zn223	Zn	0.002812	0.488334	0.243965
	Zn224	Zn	0.502083	0.740861	-0.007026
	Zn225	Zn	0.502924	0.239773	-0.005797
	Zn226	Zn	0.750771	-0.010544	0.493839
	Zn227	Zn	0.253530	-0.010880	0.491908
	N228	N	0.413955	0.954716	0.674681
	N229	N	0.590482	0.024544	0.674255
	N230	N	0.592658	0.955899	0.310461
	N231	N	0.414821	0.025245	0.311587
	N232	N	0.683885	0.401758	0.959686
	N233	N	0.684640	0.578193	0.028586
	N234	N	0.319654	0.578395	0.959318
	N235	N	0.320824	0.402778	0.030795
	N236	N	0.967499	0.669346	0.406295
	N237	N	0.038767	0.667130	0.579880
	N238	N	0.967394	0.308387	0.581956
	N239	N	0.039148	0.311861	0.409249
	N240	N	0.967338	0.401355	0.675119
	N241	N	0.036881	0.577659	0.675850
	N242	N	0.967987	0.576591	0.312713
	N243	N	0.036962	0.399003	0.311495
	N244	N	0.413887	0.671196	0.958440
	N245	N	0.589606	0.670529	0.028798
	N246	N	0.588380	0.311306	0.958187
	N247	N	0.414647	0.308579	0.030082
	N248	N	0.680836	0.953404	0.407549
	N249	N	0.681206	0.025179	0.580093
	N250	N	0.323534	0.953313	0.579014
	N251	N	0.323990	0.026121	0.406236
	N252	N	0.914400	0.454069	0.174988
	N253	N	0.093081	0.522586	0.178478
	N254	N	0.089135	0.455286	0.814056
	N255	N	0.912303	0.523390	0.810958
	N256	N	0.183866	0.901386	0.457557
	N257	N	0.184729	0.077921	0.526449
	N258	N	0.820811	0.077026	0.457491
	N259	N	0.821112	0.901770	0.529154
	N260	N	0.467286	0.169553	0.907329
	N261	N	0.539533	0.169580	0.079953
	N262	N	0.466216	0.811162	0.079262
	N263	N	0.537777	0.810627	0.906466
	N264	N	0.468163	0.901267	0.175461
	N265	N	0.537765	0.079390	0.175590
	N266	N	0.468020	0.078577	0.811804
	N267	N	0.537192	0.902063	0.812425
	N268	N	0.913995	0.171543	0.458095
	N269	N	0.089096	0.169284	0.527970
	N270	N	0.090257	0.807644	0.458329
	N271	N	0.913485	0.806413	0.528284
	N272	N	0.179710	0.454788	0.909321
	N273	N	0.181267	0.525550	0.081995
	N274	N	0.823870	0.453794	0.079839
	N275	N	0.823050	0.525090	0.906794
	O276	O	0.303835	0.601044	0.296870
	H277	H	0.294654	0.610469	0.283372
	H278	H	0.293575	0.560691	0.310293
	O279	O	0.791195	0.190624	0.980588
	H280	H	0.824449	0.192240	1.004379
	H281	H	0.763163	0.225252	0.975591
	O282	O	0.616647	0.578932	0.362625
	H283	H	0.631153	0.582710	0.366953
	H284	H	0.626435	0.580275	0.375165
	O285	O	0.480524	0.703642	0.280790
	H286	H	0.491755	0.707665	0.298091
	H287	H	0.470590	0.732125	0.263130
	O288	O	0.978634	0.777571	0.207862
	H289	H	0.990306	0.785879	0.225934
	H290	H	0.969552	0.765255	0.219792
	O291	O	0.508121	0.639281	0.488344
	H292	H	0.511620	0.624253	0.488072
	H293	H	0.491794	0.637754	0.496562
	O294	O	0.220404	0.012149	1.213250
	H295	H	0.245236	0.022847	1.236451
	H296	H	0.224405	0.022448	1.199745
	O297	O	1.048878	0.983182	0.967336
	H298	H	1.039448	0.992825	0.970324
	H299	H	1.044160	0.972249	0.929935
	O300	O	0.636512	0.695182	0.495437
	H301	H	0.644195	0.676451	0.472444
	H302	H	0.650907	0.711248	0.496063
	O303	O	0.450778	0.445905	0.365099
	H304	H	0.432235	0.470676	0.364302
	H305	H	0.451261	0.442015	0.367180
	O306	O	0.510553	0.285747	0.389117
	H307	H	0.517742	0.284931	0.390573
	H308	H	0.496902	0.272532	0.385922
	O309	O	0.562532	0.456242	0.548922
	H310	H	0.547030	0.440709	0.549239
	H311	H	0.569291	0.447479	0.550953
	O312	O	0.044415	0.996231	1.136127
	H313	H	0.059496	1.001911	1.138827
	H314	H	0.040857	1.010751	1.147701
	O315	O	0.618671	0.480728	0.691870
	H316	H	0.631939	0.492090	0.703654
	H317	H	0.619442	0.470514	0.691654
	O318	O	1.106130	0.120110	0.170709
	H319	H	1.121407	0.123955	0.132096
	H320	H	1.077312	0.110084	0.178848
	O321	O	0.203616	-0.023519	0.002293
	H322	H	0.199177	-0.036692	0.000009
	H323	H	0.194330	-0.032516	-0.021954
	O324	O	0.657765	0.490522	0.377368
	H325	H	0.631390	0.507009	0.382748
	H326	H	0.672752	0.471956	0.355574
	O327	O	0.368682	0.477245	0.701705
	H328	H	0.363817	0.479695	0.710401
	H329	H	0.373062	0.478118	0.701334
	O330	O	0.018599	1.200981	0.204726
	H331	H	0.040236	1.211534	0.219281
	H332	H	0.012759	1.206736	0.207944
	O333	O	0.707358	0.274572	0.478376
	H334	H	0.705267	0.283413	0.448464
	H335	H	0.729294	0.249612	0.472447
	O336	O	0.209290	-0.216659	-0.032472
	H337	H	0.210380	-0.219245	-0.011979
	H338	H	0.218766	-0.219904	-0.017371
	O339	O	0.037255	1.189000	0.983166
	H340	H	0.035543	1.174534	0.980429
	H341	H	0.038616	1.187930	0.965274
	O342	O	0.162959	1.175406	0.853303
	H343	H	0.146213	1.159516	0.853940
	H344	H	0.154140	1.163177	0.861494
	O345	O	0.998274	1.044503	0.201257
	H346	H	1.004272	1.043287	0.208445
	H347	H	0.986247	1.036252	0.191642
	O348	O	0.348534	0.650756	0.420145
	H349	H	0.337436	0.631550	0.400892
	H350	H	0.375137	0.654840	0.414548
	O351	O	0.357247	1.424440	1.356232
	H352	H	0.373088	1.415190	1.371146
	H353	H	0.357370	1.425294	1.379917
	O354	O	0.018274	0.786557	0.018105
	H355	H	0.018723	0.802470	0.021795
	H356	H	0.012547	0.797117	0.021055
	O357	O	-0.033950	0.026593	0.990197
	H358	H	-0.041228	0.036081	1.004695
	H359	H	-0.031613	0.019831	0.980109
	O360	O	0.525025	0.504688	0.585311
	H361	H	0.536899	0.510256	0.585555
	H362	H	0.542842	0.506808	0.603740
	O363	O	0.157739	-0.141172	1.072282
	H364	H	0.146700	-0.129797	1.097783
	H365	H	0.134653	-0.131239	1.070285
	O366	O	0.710846	0.541727	0.447791
	H367	H	0.707807	0.536470	0.454765
	H368	H	0.713377	0.528772	0.447719
	O369	O	0.817066	0.803646	0.179967
	H370	H	0.806051	0.840123	0.187483
	H371	H	0.844959	0.795071	0.176102
	O372	O	0.793621	-0.005285	1.029585
	H373	H	0.795469	0.025484	1.007189
	H374	H	0.793392	-0.013863	1.022664
	O375	O	0.185999	0.808782	0.805642
	H376	H	0.170337	0.793003	0.822925
	H377	H	0.166232	0.795352	0.828483
	O378	O	0.656902	0.678125	0.681693
	H379	H	0.635493	0.656855	0.687935
	H380	H	0.650335	0.684326	0.642753
	O381	O	0.488633	0.325356	0.495826
	H382	H	0.503246	0.311446	0.504834
	H383	H	0.498032	0.326220	0.500314
	O384	O	-0.090035	0.784452	0.884477
	H385	H	-0.097881	0.795195	0.895636
	H386	H	-0.104638	0.778303	0.904685
	O387	O	0.075191	0.067304	0.772257
	H388	H	0.064647	0.030654	0.766182
	H389	H	0.088088	0.040450	0.770650
	O390	O	-0.119263	0.144988	0.099579
	H391	H	-0.104971	0.142524	0.107325
	H392	H	-0.108107	0.131845	0.078428
	O393	O	0.786459	1.003570	0.777507
	H394	H	0.777032	1.027910	0.780821
	H395	H	0.768326	1.025345	0.768872
	O396	O	0.683065	0.320026	0.313209
	H397	H	0.649762	0.317698	0.305701
	H398	H	0.686256	0.352158	0.308961
	O399	O	0.966663	0.200643	0.783432
	H400	H	0.991421	0.165029	0.773016
	H401	H	0.972282	0.227737	0.752158
	O402	O	1.201821	1.144073	1.011173
	H403	H	1.211403	1.128572	0.998382
	H404	H	1.178166	1.145773	0.996632
	O405	O	0.786409	0.769611	0.014658
	H406	H	0.776568	0.769841	0.027330
	H407	H	0.771691	0.754505	0.030217
	O408	O	0.954552	-0.059210	-0.234686
	H409	H	0.948332	-0.089386	-0.241465
	H410	H	0.916301	-0.067484	-0.240276
	O411	O	0.816409	1.166815	-0.178894
	H412	H	0.861837	1.179827	-0.185997
	H413	H	0.807677	1.172767	-0.141819
	O414	O	0.297772	0.500154	0.496928
	H415	H	0.306133	0.511970	0.488782
	H416	H	0.301166	0.503203	0.505607
	O417	O	0.603410	0.381249	0.581012
	H418	H	0.575087	0.381675	0.584375
	H419	H	0.601823	0.354469	0.579530
	O420	O	-0.108527	-0.060122	-0.062291
	H421	H	-0.105308	-0.051672	-0.085124
	H422	H	-0.110864	-0.088097	-0.071381
	O423	O	0.471989	0.459426	0.693628
	H424	H	0.487331	0.446483	0.695891
	H425	H	0.485444	0.463369	0.693324
	O426	O	0.404791	0.290278	0.680073
	H427	H	0.386176	0.300904	0.692229
	H428	H	0.386138	0.279885	0.665664
	O429	O	0.584603	0.604889	0.399007
	H430	H	0.580706	0.625905	0.398133
	H431	H	0.559960	0.591628	0.396288
	O432	O	0.363543	0.674123	0.570027
	H433	H	0.359803	0.671381	0.557214
	H434	H	0.346130	0.684871	0.552109
	O435	O	0.303649	0.350994	0.547142
	H436	H	0.313130	0.343448	0.560138
	H437	H	0.289361	0.331298	0.547642
	O438	O	0.022145	-0.225866	-0.225454
	H439	H	0.007306	-0.245930	-0.219854
	H440	H	0.012697	-0.252153	-0.222932
	O441	O	0.839358	-0.028367	0.204115
	H442	H	0.828492	-0.022925	0.217009
	H443	H	0.831243	-0.001827	0.186266
	O444	O	0.218021	0.967737	0.772494
	H445	H	0.236587	0.949052	0.754533
	H446	H	0.220070	0.927336	0.770375
	O447	O	0.361955	0.476477	0.277356
	H448	H	0.332186	0.473580	0.255515
	H449	H	0.363344	0.472511	0.290179
	O450	O	0.684875	0.569220	0.579453
	H451	H	0.690110	0.579948	0.577124
	H452	H	0.666955	0.558924	0.579332
	O453	O	0.296251	0.369500	0.698284
	H454	H	0.283299	0.405253	0.701904
	H455	H	0.271627	0.358534	0.715626
