data_Molecule from HDF5

_cell_length_a		16.398324
_cell_length_b		16.277494
_cell_length_c		16.504802
_cell_angle_alpha	89.865834
_cell_angle_beta	90.044134
_cell_angle_gamma	89.973658
_symmetry_space_group_name_H-M	'P 1'
_symmetry_Int_Tables_number		1

loop_
	_symmetry_equiv_pos_as_xyz
	x,y,z

loop_
	_atom_site_label
	_atom_site_type_symbol
	_atom_site_fract_x
	_atom_site_fract_y
	_atom_site_fract_z
	H0	H	0.383678	0.822217	0.728246
	H1	H	0.599301	0.141351	0.724123
	H2	H	0.601202	0.822759	0.279147
	H3	H	0.386057	0.140459	0.281985
	H4	H	0.714392	0.374875	0.846397
	H5	H	0.712616	0.586262	0.162569
	H6	H	0.267318	0.589117	0.847396
	H7	H	0.270704	0.374639	0.162813
	H8	H	0.834423	0.701931	0.399905
	H9	H	0.152452	0.700429	0.609909
	H10	H	0.832360	0.261283	0.607322
	H11	H	0.153088	0.260829	0.402774
	H12	H	0.833240	0.374005	0.726818
	H13	H	0.149562	0.589640	0.729817
	H14	H	0.834597	0.587230	0.283214
	H15	H	0.149869	0.370418	0.281412
	H16	H	0.384173	0.704671	0.846112
	H17	H	0.595362	0.701472	0.162565
	H18	H	0.593769	0.263501	0.844037
	H19	H	0.388925	0.259917	0.162902
	H20	H	0.715088	0.820538	0.396383
	H21	H	0.712121	0.141703	0.605394
	H22	H	0.271186	0.820934	0.610480
	H23	H	0.271629	0.140546	0.398489
	H24	H	0.889956	0.319881	0.224183
	H25	H	0.098603	0.640984	0.226928
	H26	H	0.095131	0.321224	0.786953
	H27	H	0.885655	0.641351	0.783945
	H28	H	0.213932	0.876435	0.345566
	H29	H	0.215058	0.084992	0.662021
	H30	H	0.774592	0.083135	0.344200
	H31	H	0.770478	0.874222	0.662229
	H32	H	0.331188	0.199547	0.900970
	H33	H	0.653260	0.196408	0.101615
	H34	H	0.331723	0.763055	0.105282
	H35	H	0.651863	0.760956	0.900612
	H36	H	0.333564	0.875175	0.224810
	H37	H	0.650436	0.087358	0.224025
	H38	H	0.333168	0.086940	0.781642
	H39	H	0.652009	0.876771	0.783656
	H40	H	0.891819	0.199208	0.345515
	H41	H	0.096611	0.198617	0.664592
	H42	H	0.098349	0.759141	0.345929
	H43	H	0.892012	0.762239	0.664736
	H44	H	0.209597	0.320914	0.903680
	H45	H	0.212860	0.642002	0.110542
	H46	H	0.776209	0.318810	0.105050
	H47	H	0.772778	0.642185	0.901224
	H48	H	0.408191	0.095568	0.599113
	H49	H	0.579705	0.866164	0.597775
	H50	H	0.582021	0.094691	0.412176
	H51	H	0.402596	0.867634	0.418229
	H52	H	0.586801	0.390946	0.118528
	H53	H	0.586309	0.566918	0.890888
	H54	H	0.403959	0.566183	0.114833
	H55	H	0.403242	0.382382	0.889043
	H56	H	0.104760	0.564718	0.416967
	H57	H	0.878768	0.571328	0.595189
	H58	H	0.108119	0.388587	0.600792
	H59	H	0.880018	0.391986	0.417511
	H60	H	0.105443	0.389220	0.593168
	H61	H	0.880536	0.568211	0.593165
	H62	H	0.107380	0.567666	0.413776
	H63	H	0.879128	0.394151	0.413449
	H64	H	0.405115	0.574063	0.116969
	H65	H	0.577954	0.567347	0.893487
	H66	H	0.581717	0.391976	0.115715
	H67	H	0.390754	0.396454	0.890008
	H68	H	0.580988	0.094486	0.414647
	H69	H	0.576341	0.869702	0.590313
	H70	H	0.407552	0.091104	0.586627
	H71	H	0.405064	0.865690	0.411347
	H72	H	0.904037	0.596162	0.094334
	H73	H	0.089400	0.364066	0.096247
	H74	H	0.083136	0.599638	0.910078
	H75	H	0.899375	0.364047	0.909804
	H76	H	0.087255	0.891805	0.618222
	H77	H	0.071831	0.075117	0.393732
	H78	H	0.904883	0.070290	0.617416
	H79	H	0.906723	0.900977	0.396191
	H80	H	0.605507	0.075018	0.918467
	H81	H	0.377810	0.072162	0.090177
	H82	H	0.603586	0.896921	0.093282
	H83	H	0.378823	0.894766	0.914153
	H84	H	0.607958	0.890599	0.095715
	H85	H	0.378822	0.066023	0.093676
	H86	H	0.604925	0.064705	0.910768
	H87	H	0.378933	0.893988	0.914015
	H88	H	0.898675	0.072537	0.619409
	H89	H	0.090414	0.076681	0.387138
	H90	H	0.080095	0.894906	0.614482
	H91	H	0.910897	0.883685	0.391665
	H92	H	0.069806	0.593022	0.915939
	H93	H	0.074842	0.366474	0.101014
	H94	H	0.902452	0.595603	0.095304
	H95	H	0.907984	0.368457	0.915489
	H96	H	0.397007	0.096811	0.592208
	H97	H	0.584713	0.866173	0.590432
	H98	H	0.583413	0.094645	0.413949
	H99	H	0.409325	0.868520	0.416166
	H100	H	0.582431	0.387317	0.118656
	H101	H	0.582029	0.574579	0.890057
	H102	H	0.397834	0.570445	0.118222
	H103	H	0.408601	0.399117	0.895755
	H104	H	0.106034	0.569764	0.418203
	H105	H	0.878715	0.567986	0.596658
	H106	H	0.104199	0.395173	0.598272
	H107	H	0.879139	0.389615	0.414250
	H108	H	0.903724	0.595671	0.096385
	H109	H	0.078870	0.370957	0.087633
	H110	H	0.082495	0.594598	0.925329
	H111	H	0.897854	0.366387	0.920722
	H112	H	0.080462	0.887002	0.617648
	H113	H	0.084279	0.059745	0.394944
	H114	H	0.899635	0.066015	0.617400
	H115	H	0.893958	0.890250	0.388641
	H116	H	0.609231	0.076587	0.906769
	H117	H	0.376226	0.071585	0.097080
	H118	H	0.604576	0.890780	0.088478
	H119	H	0.379424	0.894714	0.914813
	C120	C	0.371288	-0.010974	0.625108
	C121	C	0.613003	0.972710	0.624340
	C122	C	0.614884	-0.010642	0.380896
	C123	C	0.372308	0.972710	0.382789
	C124	C	0.614217	0.359305	0.012271
	C125	C	0.613533	0.602345	0.995793
	C126	C	0.369043	0.603470	0.012607
	C127	C	0.370450	0.360261	0.996548
	C128	C	0.001587	0.601011	0.383850
	C129	C	0.984278	0.601776	0.627105
	C130	C	0.000474	0.359063	0.627769
	C131	C	0.984323	0.358776	0.383512
	C132	C	0.872261	0.489317	0.125826
	C133	C	0.114127	0.472738	0.127383
	C134	C	0.111010	0.489849	0.885499
	C135	C	0.869967	0.472249	0.883502
	C136	C	0.114772	0.859059	0.512530
	C137	C	0.114762	0.101984	0.496241
	C138	C	0.870936	0.101617	0.512862
	C139	C	0.871265	0.858544	0.496397
	C140	C	0.500689	0.103418	0.880905
	C141	C	0.483160	0.101721	0.124416
	C142	C	0.500426	0.860292	0.124634
	C143	C	0.484138	0.860390	0.882215
	C144	C	0.367218	0.869395	0.686889
	C145	C	0.616463	0.093160	0.684028
	C146	C	0.618423	0.869917	0.320031
	C147	C	0.368738	0.092674	0.322210
	C148	C	0.673811	0.357371	0.893439
	C149	C	0.673046	0.604670	0.114862
	C150	C	0.307869	0.606901	0.894298
	C151	C	0.310920	0.356888	0.115331
	C152	C	0.882063	0.661969	0.381530
	C153	C	0.104046	0.661266	0.628816
	C154	C	0.880442	0.300148	0.627388
	C155	C	0.104509	0.299520	0.383190
	C156	C	0.880871	0.356513	0.686585
	C157	C	0.102608	0.605974	0.688796
	C158	C	0.882450	0.604906	0.323415
	C159	C	0.103124	0.354228	0.322709
	C160	C	0.366193	0.664504	0.893873
	C161	C	0.614435	0.661826	0.115057
	C162	C	0.614003	0.301417	0.892508
	C163	C	0.369557	0.299673	0.115454
	C164	C	0.675227	0.868947	0.378519
	C165	C	0.673071	0.093480	0.625210
	C166	C	0.310821	0.868944	0.628267
	C167	C	0.311690	0.092585	0.380216
	C168	C	0.871266	0.367937	0.184376
	C169	C	0.116593	0.592989	0.187098
	C170	C	0.113086	0.368954	0.826724
	C171	C	0.867683	0.593116	0.823763
	C172	C	0.174412	0.857459	0.393103
	C173	C	0.174707	0.103454	0.615026
	C174	C	0.813430	0.102419	0.392471
	C175	C	0.811265	0.856499	0.615258
	C176	C	0.379729	0.161297	0.881000
	C177	C	0.604615	0.158919	0.122703
	C178	C	0.380090	0.801408	0.125513
	C179	C	0.603948	0.800355	0.881312
	C180	C	0.381156	0.857333	0.184884
	C181	C	0.603230	0.104495	0.183393
	C182	C	0.380741	0.105129	0.821672
	C183	C	0.603968	0.858089	0.823214
	C184	C	0.871702	0.160058	0.392969
	C185	C	0.115778	0.160110	0.616305
	C186	C	0.116903	0.799010	0.393482
	C187	C	0.871644	0.800581	0.616431
	C188	C	0.170015	0.368866	0.884802
	C189	C	0.173925	0.593260	0.129303
	C190	C	0.814457	0.367608	0.125423
	C191	C	0.811416	0.593691	0.882157
	C192	C	0.396810	0.072620	0.599941
	C193	C	0.587700	0.889243	0.599940
	C194	C	0.589390	0.072809	0.406299
	C195	C	0.398342	0.889082	0.408174
	C196	C	0.590205	0.383299	0.095938
	C197	C	0.589012	0.577190	0.912933
	C198	C	0.394878	0.577712	0.095095
	C199	C	0.394244	0.385472	0.913168
	C200	C	0.084531	0.574847	0.409050
	C201	C	0.900909	0.576559	0.602038
	C202	C	0.084164	0.383888	0.604148
	C203	C	0.901060	0.384630	0.408058
	C204	C	0.896464	0.573889	0.102229
	C205	C	0.088433	0.389056	0.102432
	C206	C	0.085825	0.573822	0.910010
	C207	C	0.894746	0.388275	0.908121
	C208	C	0.089930	0.884125	0.595127
	C209	C	0.089578	0.077508	0.413456
	C210	C	0.894395	0.076804	0.596215
	C211	C	0.896386	0.884205	0.413632
	C212	C	0.584672	0.079116	0.904864
	C213	C	0.399527	0.076949	0.100727
	C214	C	0.583594	0.885428	0.099796
	C215	C	0.400824	0.886488	0.907244
	Zn216	Zn	0.492302	-0.018730	0.753214
	Zn217	Zn	0.492279	-0.018920	0.253409
	Zn218	Zn	0.742979	0.481181	0.004550
	Zn219	Zn	0.240485	0.481700	0.004990
	Zn220	Zn	-0.006289	0.729789	0.504869
	Zn221	Zn	-0.007108	0.230775	0.505674
	Zn222	Zn	-0.008497	0.481042	0.756327
	Zn223	Zn	-0.007161	0.480360	0.255425
	Zn224	Zn	0.491663	0.731454	0.003833
	Zn225	Zn	0.491549	0.230636	0.003508
	Zn226	Zn	0.741846	-0.020120	0.503563
	Zn227	Zn	0.243599	-0.019596	0.503468
	N228	N	0.404450	0.944883	0.684739
	N229	N	0.579954	0.017148	0.683829
	N230	N	0.581628	0.945690	0.321355
	N231	N	0.405748	0.016960	0.323678
	N232	N	0.673970	0.392730	0.969030
	N233	N	0.672876	0.568662	0.039492
	N234	N	0.309491	0.569898	0.969177
	N235	N	0.311239	0.393730	0.040312
	N236	N	0.957223	0.659741	0.418564
	N237	N	0.029407	0.658627	0.590963
	N238	N	0.956037	0.301589	0.591569
	N239	N	0.029700	0.302347	0.420448
	N240	N	0.956678	0.392211	0.687115
	N241	N	0.026992	0.569488	0.687693
	N242	N	0.957789	0.567922	0.324625
	N243	N	0.027374	0.390491	0.322860
	N244	N	0.403518	0.662527	0.968470
	N245	N	0.578186	0.660609	0.040010
	N246	N	0.577507	0.302489	0.967466
	N247	N	0.406011	0.301630	0.040575
	N248	N	0.673181	0.944396	0.415727
	N249	N	0.671063	0.017774	0.588596
	N250	N	0.313228	0.944217	0.590340
	N251	N	0.313921	0.016954	0.417230
	N252	N	0.906293	0.444731	0.184984
	N253	N	0.080465	0.516822	0.186318
	N254	N	0.077359	0.445276	0.826975
	N255	N	0.903355	0.516528	0.824452
	N256	N	0.173346	0.893677	0.468189
	N257	N	0.174374	0.068375	0.539414
	N258	N	0.812629	0.067008	0.468189
	N259	N	0.810802	0.891497	0.539293
	N260	N	0.455385	0.160509	0.917089
	N261	N	0.528985	0.157376	0.086772
	N262	N	0.455234	0.802972	0.088805
	N263	N	0.528119	0.801496	0.917006
	N264	N	0.457171	0.892963	0.184453
	N265	N	0.526892	0.069749	0.184698
	N266	N	0.457014	0.070139	0.821470
	N267	N	0.528457	0.894383	0.823746
	N268	N	0.906566	0.159789	0.468796
	N269	N	0.079185	0.159477	0.541405
	N270	N	0.080693	0.799733	0.468588
	N271	N	0.907825	0.801550	0.541324
	N272	N	0.168955	0.445066	0.920382
	N273	N	0.172267	0.517409	0.092845
	N274	N	0.814864	0.444133	0.090046
	N275	N	0.812598	0.517644	0.918413
	O276	O	0.515684	0.699210	0.724266
	H277	H	0.525806	0.730099	0.759808
	H278	H	0.531610	0.673703	0.725499
	O279	O	0.662809	0.564236	0.432715
	H280	H	0.658153	0.565812	0.428784
	H281	H	0.658502	0.559231	0.435455
	O282	O	0.663269	0.432458	0.548014
	H283	H	0.671242	0.448099	0.546091
	H284	H	0.666100	0.435474	0.540531
	O285	O	1.025921	0.856355	-0.163908
	H286	H	1.040179	0.869223	-0.163154
	H287	H	1.016522	0.856740	-0.171618
	O288	O	0.594891	0.442281	0.336108
	H289	H	0.595105	0.445265	0.335030
	H290	H	0.591082	0.432960	0.344408
	O291	O	0.605451	0.483972	0.671775
	H292	H	0.621428	0.480953	0.682230
	H293	H	0.584582	0.467427	0.675376
	O294	O	1.170201	1.145055	1.157091
	H295	H	1.175591	1.147571	1.159104
	H296	H	1.157177	1.147827	1.137836
	O297	O	0.470576	0.284974	0.711933
	H298	H	0.470324	0.265750	0.721484
	H299	H	0.443317	0.285235	0.709364
	O300	O	0.388093	0.498857	0.299863
	H301	H	0.378481	0.504222	0.279489
	H302	H	0.402565	0.486506	0.313586
	O303	O	0.460198	0.460186	0.503397
	H304	H	0.461842	0.456512	0.512138
	H305	H	0.458965	0.468812	0.490617
	O306	O	-0.028974	-0.165733	1.007616
	H307	H	-0.022610	-0.164403	1.005532
	H308	H	-0.040134	-0.163039	1.007331
	O309	O	1.092626	-0.074938	-0.050490
	H310	H	1.093159	-0.092374	-0.052946
	H311	H	1.086534	-0.085803	-0.043497
	O312	O	-0.082566	1.055787	1.151565
	H313	H	-0.078884	1.062038	1.148225
	H314	H	-0.081223	1.057208	1.151391
	O315	O	0.814121	1.108089	-0.132598
	H316	H	0.812151	1.106720	-0.141424
	H317	H	0.818135	1.105169	-0.127609
	O318	O	0.034255	0.034420	-0.130683
	H319	H	0.034309	0.034456	-0.130159
	H320	H	0.038292	0.042698	-0.131219
	O321	O	0.284552	0.687022	0.474510
	H322	H	0.292461	0.680859	0.498903
	H323	H	0.269867	0.706893	0.477321
	O324	O	1.010779	-0.193745	0.934908
	H325	H	0.996515	-0.189798	0.954481
	H326	H	1.011000	-0.199029	0.918576
	O327	O	0.277069	0.457045	0.718649
	H328	H	0.248657	0.459690	0.745988
	H329	H	0.292606	0.471404	0.699514
	O330	O	-0.013722	0.840398	0.952830
	H331	H	-0.005358	0.829875	0.956708
	H332	H	-0.011663	0.849435	0.963599
	O333	O	0.130411	1.076717	0.140148
	H334	H	0.141390	1.081229	0.136804
	H335	H	0.129139	1.085580	0.128507
	O336	O	1.010215	0.829983	0.199984
	H337	H	1.020978	0.837174	0.208180
	H338	H	1.011022	0.826723	0.200876
	O339	O	-0.203116	1.089703	0.870061
	H340	H	-0.213315	1.093181	0.866745
	H341	H	-0.203850	1.089283	0.865254
	O342	O	0.511415	0.592558	0.434834
	H343	H	0.511276	0.603677	0.422375
	H344	H	0.485467	0.595015	0.425889
	O345	O	0.002946	0.169541	0.855430
	H346	H	-0.015284	0.164341	0.859851
	H347	H	0.011131	0.179153	0.840747
	O348	O	0.608691	0.378036	0.688990
	H349	H	0.603016	0.369414	0.674480
	H350	H	0.596341	0.381872	0.681123
	O351	O	0.975301	1.064900	0.151763
	H352	H	0.976582	1.069921	0.147952
	H353	H	0.983278	1.066047	0.157118
	O354	O	0.846466	1.003573	1.044437
	H355	H	0.854790	0.994729	1.056439
	H356	H	0.848946	0.993489	1.052897
	O357	O	-0.569020	0.583018	-0.340121
	H358	H	-0.548944	0.594837	-0.332489
	H359	H	-0.556422	0.559760	-0.342736
	O360	O	0.687461	0.286455	0.325526
	H361	H	0.676898	0.284820	0.341206
	H362	H	0.704891	0.274491	0.304727
	O363	O	0.863651	-0.199207	0.093841
	H364	H	0.858792	-0.202094	0.083497
	H365	H	0.852037	-0.206612	0.101556
	O366	O	-0.052650	0.038438	0.966414
	H367	H	-0.039959	0.034607	0.954149
	H368	H	-0.057119	0.027909	0.968517
	O369	O	1.330738	0.319945	0.679536
	H370	H	1.326797	0.336566	0.670155
	H371	H	1.339780	0.325095	0.664275
	O372	O	0.468590	0.678040	0.299114
	H373	H	0.439055	0.684473	0.291460
	H374	H	0.449581	0.692117	0.283613
	O375	O	-0.206057	-0.023219	1.069936
	H376	H	-0.226219	-0.037426	1.084678
	H377	H	-0.200660	-0.052745	1.057820
	O378	O	0.281880	0.526796	0.433499
	H379	H	0.301374	0.525536	0.430458
	H380	H	0.278799	0.515919	0.426106
	O381	O	0.032410	0.892932	0.086159
	H382	H	0.037329	0.897623	0.082383
	H383	H	0.036669	0.878096	0.086343
	O384	O	0.479391	0.334765	0.363119
	H385	H	0.482632	0.323259	0.371737
	H386	H	0.480442	0.342562	0.362133
	O387	O	0.632558	0.496610	0.621487
	H388	H	0.658107	0.494882	0.625338
	H389	H	0.612613	0.482901	0.602842
	O390	O	0.943472	0.864685	-0.100445
	H391	H	0.939981	0.867790	-0.086974
	H392	H	0.939609	0.864076	-0.103908
	O393	O	1.084448	0.010748	1.003695
	H394	H	1.083762	0.013267	1.010834
	H395	H	1.081869	0.015293	0.991223
	O396	O	0.279214	0.356278	0.497390
	H397	H	0.290654	0.359528	0.498779
	H398	H	0.271684	0.341540	0.488307
	O399	O	0.707803	0.695677	0.530633
	H400	H	0.706689	0.694950	0.530265
	H401	H	0.714850	0.724096	0.519613
	O402	O	0.980676	1.133807	-0.159986
	H403	H	0.987469	1.129222	-0.150322
	H404	H	0.969822	1.126824	-0.176235
	O405	O	0.447666	0.383300	0.446294
	H406	H	0.467082	0.372841	0.459644
	H407	H	0.452464	0.405101	0.445725
	O408	O	0.317107	0.664967	0.318732
	H409	H	0.303316	0.645810	0.330129
	H410	H	0.305096	0.650249	0.344934
	O411	O	1.089996	1.111359	1.026210
	H412	H	1.091309	1.115940	1.004598
	H413	H	1.077529	1.132630	1.034000
	O414	O	0.352413	0.353751	0.411778
	H415	H	0.359828	0.350242	0.431394
	H416	H	0.359803	0.341763	0.412107
	O417	O	0.686360	1.292279	0.474685
	H418	H	0.701202	1.287179	0.472989
	H419	H	0.684823	1.293655	0.460406
	O420	O	0.081091	1.106955	1.016559
	H421	H	0.069498	1.092940	1.032449
	H422	H	0.097303	1.127750	1.004304
	O423	O	-0.129320	0.861067	0.182791
	H424	H	-0.115051	0.857742	0.181492
	H425	H	-0.121141	0.848781	0.194084
	O426	O	0.705169	0.458825	0.298240
	H427	H	0.699617	0.429543	0.295844
	H428	H	0.719804	0.454949	0.289654
	O429	O	0.480559	0.695145	0.524869
	H430	H	0.486856	0.701731	0.524658
	H431	H	0.469293	0.696382	0.539271
	O432	O	0.683044	0.671912	0.694569
	H433	H	0.684302	0.628825	0.703405
	H434	H	0.676322	0.681433	0.661061
	O435	O	0.409731	0.274166	0.542367
	H436	H	0.433214	0.286583	0.529692
	H437	H	0.404116	0.269438	0.537198
	O438	O	0.169332	0.980293	0.956821
	H439	H	0.165012	0.971299	0.935208
	H440	H	0.171987	0.982714	0.959398
	O441	O	0.468157	0.501574	0.424818
	H442	H	0.469279	0.503706	0.410598
	H443	H	0.466114	0.525213	0.428461
