data_Molecule from HDF5

_cell_length_a		16.528604
_cell_length_b		16.770327
_cell_length_c		16.439967
_cell_angle_alpha	90.084091
_cell_angle_beta	89.970410
_cell_angle_gamma	89.938825
_symmetry_space_group_name_H-M	'P 1'
_symmetry_Int_Tables_number		1

loop_
	_symmetry_equiv_pos_as_xyz
	x,y,z

loop_
	_atom_site_label
	_atom_site_type_symbol
	_atom_site_fract_x
	_atom_site_fract_y
	_atom_site_fract_z
	H0	H	0.389141	0.843994	0.713510
	H1	H	0.596224	0.154759	0.714264
	H2	H	0.594046	0.843377	0.272651
	H3	H	0.387450	0.154685	0.272681
	H4	H	0.708740	0.398297	0.834085
	H5	H	0.710665	0.602586	0.150790
	H6	H	0.272056	0.601867	0.835246
	H7	H	0.271739	0.397003	0.150343
	H8	H	0.835615	0.721748	0.387139
	H9	H	0.146192	0.720825	0.600899
	H10	H	0.835453	0.276718	0.598206
	H11	H	0.147770	0.277767	0.386033
	H12	H	0.834162	0.395743	0.711814
	H13	H	0.148930	0.599380	0.710871
	H14	H	0.831627	0.598644	0.278339
	H15	H	0.148784	0.398269	0.274465
	H16	H	0.386487	0.719451	0.835728
	H17	H	0.598141	0.722142	0.149560
	H18	H	0.597583	0.278504	0.835581
	H19	H	0.384855	0.277237	0.149037
	H20	H	0.711641	0.843540	0.389259
	H21	H	0.714030	0.153668	0.597039
	H22	H	0.269023	0.845749	0.599747
	H23	H	0.269705	0.154692	0.389236
	H24	H	0.885901	0.344220	0.214043
	H25	H	0.094050	0.654600	0.214109
	H26	H	0.098378	0.344581	0.769839
	H27	H	0.886801	0.653221	0.770493
	H28	H	0.212707	0.895517	0.336144
	H29	H	0.209780	0.101722	0.651858
	H30	H	0.772229	0.101528	0.334717
	H31	H	0.773046	0.895624	0.651293
	H32	H	0.334798	0.219587	0.888431
	H33	H	0.648336	0.219396	0.096905
	H34	H	0.336129	0.776676	0.101765
	H35	H	0.647990	0.777415	0.888114
	H36	H	0.333656	0.897571	0.212640
	H37	H	0.649465	0.099571	0.210530
	H38	H	0.333153	0.099762	0.776040
	H39	H	0.650307	0.898542	0.776964
	H40	H	0.886111	0.219270	0.335591
	H41	H	0.098290	0.221276	0.649588
	H42	H	0.099319	0.777217	0.336675
	H43	H	0.886085	0.777787	0.650452
	H44	H	0.215973	0.345781	0.885277
	H45	H	0.213473	0.653178	0.099834
	H46	H	0.769829	0.343885	0.096055
	H47	H	0.768896	0.653594	0.887247
	H48	H	0.401074	0.108253	0.576388
	H49	H	0.584659	0.888150	0.581519
	H50	H	0.587340	0.111324	0.404816
	H51	H	0.399438	0.889739	0.409735
	H52	H	0.577211	0.410657	0.105516
	H53	H	0.573703	0.595140	0.880040
	H54	H	0.406113	0.584932	0.103506
	H55	H	0.396907	0.409618	0.877254
	H56	H	0.104663	0.593317	0.408356
	H57	H	0.879374	0.587066	0.578483
	H58	H	0.103320	0.409912	0.580917
	H59	H	0.876069	0.404877	0.402077
	H60	H	0.103620	0.407914	0.579306
	H61	H	0.877866	0.588578	0.583094
	H62	H	0.101788	0.584867	0.405470
	H63	H	0.878521	0.405998	0.407817
	H64	H	0.406222	0.594349	0.106896
	H65	H	0.585455	0.591277	0.877162
	H66	H	0.579163	0.407478	0.106939
	H67	H	0.406252	0.416269	0.883706
	H68	H	0.581066	0.111471	0.398612
	H69	H	0.585110	0.886972	0.586793
	H70	H	0.396310	0.113552	0.587695
	H71	H	0.401097	0.886093	0.399395
	H72	H	0.906210	0.608251	0.082803
	H73	H	0.080042	0.387492	0.084802
	H74	H	0.083369	0.608200	0.908975
	H75	H	0.897226	0.388181	0.903994
	H76	H	0.080868	0.903578	0.608600
	H77	H	0.082780	0.088792	0.379237
	H78	H	0.908242	0.087626	0.604022
	H79	H	0.908163	0.902437	0.379061
	H80	H	0.604257	0.084857	0.901913
	H81	H	0.379829	0.087071	0.080235
	H82	H	0.606316	0.908625	0.088946
	H83	H	0.375831	0.905096	0.899605
	H84	H	0.603797	0.903142	0.074005
	H85	H	0.376858	0.091251	0.084979
	H86	H	0.607869	0.094897	0.900474
	H87	H	0.378816	0.905152	0.909069
	H88	H	0.903265	0.092977	0.607748
	H89	H	0.079880	0.085715	0.380806
	H90	H	0.084454	0.913806	0.606432
	H91	H	0.897469	0.908089	0.377340
	H92	H	0.083616	0.611767	0.898328
	H93	H	0.078464	0.390746	0.080301
	H94	H	0.894212	0.610501	0.079025
	H95	H	0.901573	0.387308	0.900428
	H96	H	0.409221	0.109207	0.587627
	H97	H	0.580274	0.888317	0.584830
	H98	H	0.579348	0.108013	0.406788
	H99	H	0.408518	0.891759	0.405186
	H100	H	0.580837	0.410742	0.106101
	H101	H	0.577820	0.583267	0.882724
	H102	H	0.397977	0.588324	0.107860
	H103	H	0.408742	0.403990	0.880286
	H104	H	0.106827	0.590471	0.399547
	H105	H	0.878496	0.591835	0.579622
	H106	H	0.102925	0.410723	0.578886
	H107	H	0.878661	0.409889	0.403629
	H108	H	0.897198	0.613757	0.091094
	H109	H	0.083817	0.388355	0.080775
	H110	H	0.074497	0.607709	0.902834
	H111	H	0.902664	0.389648	0.905592
	H112	H	0.074156	0.910699	0.603926
	H113	H	0.078453	0.089531	0.380018
	H114	H	0.900842	0.085673	0.605604
	H115	H	0.907021	0.913985	0.382311
	H116	H	0.603177	0.091924	0.909796
	H117	H	0.379309	0.093539	0.078750
	H118	H	0.599085	0.917927	0.077677
	H119	H	0.379575	0.913551	0.903641
	C120	C	0.370152	0.007864	0.615688
	C121	C	0.614907	0.990386	0.616011
	C122	C	0.613523	0.007372	0.371687
	C123	C	0.370492	0.991498	0.372576
	C124	C	0.611490	0.378600	0.001376
	C125	C	0.611599	0.620866	0.984265
	C126	C	0.371131	0.620372	0.001655
	C127	C	0.371112	0.378432	0.984217
	C128	C	-0.000110	0.620138	0.372772
	C129	C	0.982258	0.620322	0.613691
	C130	C	0.000071	0.377134	0.612986
	C131	C	0.982080	0.376704	0.371763
	C132	C	0.867963	0.507910	0.115203
	C133	C	0.112456	0.491038	0.114384
	C134	C	0.113460	0.507415	0.870788
	C135	C	0.868876	0.490770	0.870865
	C136	C	0.112504	0.877944	0.502208
	C137	C	0.112612	0.120009	0.484256
	C138	C	0.871330	0.119605	0.501423
	C139	C	0.871635	0.877102	0.484320
	C140	C	0.500525	0.120813	0.872463
	C141	C	0.482878	0.120946	0.113433
	C142	C	0.499618	0.878169	0.113692
	C143	C	0.482655	0.877460	0.872638
	C144	C	0.369485	0.890904	0.674579
	C145	C	0.615615	0.107806	0.674848
	C146	C	0.613527	0.890201	0.312441
	C147	C	0.368637	0.108406	0.312925
	C148	C	0.670073	0.378484	0.882037
	C149	C	0.671333	0.622116	0.103305
	C150	C	0.311690	0.621200	0.882728
	C151	C	0.311131	0.377004	0.103056
	C152	C	0.881886	0.680096	0.370252
	C153	C	0.099895	0.679805	0.617672
	C154	C	0.882255	0.317081	0.616076
	C155	C	0.100631	0.318135	0.368840
	C156	C	0.881650	0.376034	0.672658
	C157	C	0.101177	0.619605	0.672411
	C158	C	0.879907	0.619130	0.316052
	C159	C	0.101145	0.377928	0.313234
	C160	C	0.368409	0.679649	0.882990
	C161	C	0.615271	0.681211	0.102681
	C162	C	0.614496	0.319241	0.882543
	C163	C	0.367504	0.318161	0.102449
	C164	C	0.672022	0.890173	0.370343
	C165	C	0.673977	0.107304	0.616570
	C166	C	0.310016	0.891713	0.617714
	C167	C	0.310029	0.108195	0.370745
	C168	C	0.867164	0.390637	0.173970
	C169	C	0.113360	0.607748	0.174338
	C170	C	0.116248	0.391156	0.810233
	C171	C	0.867681	0.606943	0.810751
	C172	C	0.172962	0.876445	0.383556
	C173	C	0.171102	0.120994	0.603830
	C174	C	0.811779	0.120328	0.382308
	C175	C	0.812221	0.876687	0.603498
	C176	C	0.381869	0.179436	0.870284
	C177	C	0.601510	0.179130	0.115238
	C178	C	0.382438	0.817785	0.118335
	C179	C	0.601292	0.818390	0.870609
	C180	C	0.381183	0.877992	0.173327
	C181	C	0.601948	0.119979	0.171698
	C182	C	0.380972	0.119563	0.814749
	C183	C	0.602444	0.878141	0.814998
	C184	C	0.868234	0.178950	0.382671
	C185	C	0.115607	0.180567	0.602392
	C186	C	0.116616	0.817692	0.383917
	C187	C	0.868452	0.817817	0.603030
	C188	C	0.174834	0.391856	0.867818
	C189	C	0.172350	0.607233	0.116993
	C190	C	0.809262	0.390639	0.115557
	C191	C	0.809306	0.607271	0.868866
	C192	C	0.394915	0.089349	0.590772
	C193	C	0.590348	0.909020	0.591521
	C194	C	0.589535	0.089037	0.396388
	C195	C	0.395636	0.910397	0.397492
	C196	C	0.586167	0.402690	0.084568
	C197	C	0.586374	0.596572	0.901542
	C198	C	0.396332	0.596066	0.084587
	C199	C	0.396703	0.403102	0.901726
	C200	C	0.082693	0.596386	0.397279
	C201	C	0.899944	0.596163	0.587787
	C202	C	0.081977	0.402254	0.587036
	C203	C	0.899352	0.400192	0.397280
	C204	C	0.892220	0.589648	0.091064
	C205	C	0.087793	0.409890	0.089095
	C206	C	0.087874	0.588349	0.896171
	C207	C	0.893617	0.409468	0.896065
	C208	C	0.087026	0.902364	0.584702
	C209	C	0.087434	0.095136	0.401390
	C210	C	0.896921	0.095586	0.584226
	C211	C	0.896970	0.901229	0.401269
	C212	C	0.583616	0.097266	0.896953
	C213	C	0.400202	0.097489	0.088406
	C214	C	0.581737	0.902652	0.087565
	C215	C	0.399816	0.901042	0.897097
	Zn216	Zn	0.492078	-0.000825	0.744646
	Zn217	Zn	0.491323	-0.000605	0.242063
	Zn218	Zn	0.739460	0.499564	-0.007107
	Zn219	Zn	0.242976	0.499778	-0.006794
	Zn220	Zn	-0.007893	0.749005	0.493120
	Zn221	Zn	-0.008373	0.247951	0.492751
	Zn222	Zn	-0.008678	0.498439	0.741442
	Zn223	Zn	-0.009611	0.499343	0.243999
	Zn224	Zn	0.490899	0.749137	-0.006755
	Zn225	Zn	0.491705	0.250031	-0.007356
	Zn226	Zn	0.743865	-0.001342	0.492836
	Zn227	Zn	0.240677	-0.000973	0.493780
	N228	N	0.406130	0.964301	0.673399
	N229	N	0.579673	0.034037	0.674685
	N230	N	0.578050	0.964229	0.312953
	N231	N	0.405388	0.034933	0.313890
	N232	N	0.668376	0.414662	0.957012
	N233	N	0.669437	0.585501	0.028609
	N234	N	0.313179	0.585261	0.957710
	N235	N	0.313146	0.413731	0.028496
	N236	N	0.957669	0.681236	0.404488
	N237	N	0.024846	0.680536	0.582154
	N238	N	0.957099	0.317402	0.580004
	N239	N	0.025426	0.316950	0.404166
	N240	N	0.955888	0.412609	0.670900
	N241	N	0.026836	0.583201	0.670201
	N242	N	0.954262	0.582527	0.317543
	N243	N	0.026252	0.413399	0.314477
	N244	N	0.404474	0.679358	0.958177
	N245	N	0.579116	0.680859	0.027573
	N246	N	0.578831	0.319139	0.958066
	N247	N	0.404004	0.318860	0.027560
	N248	N	0.672411	0.964117	0.406162
	N249	N	0.673993	0.033253	0.581024
	N250	N	0.310145	0.965692	0.582120
	N251	N	0.310940	0.034482	0.407150
	N252	N	0.902824	0.464578	0.173989
	N253	N	0.076730	0.534363	0.172925
	N254	N	0.078519	0.463963	0.812032
	N255	N	0.903868	0.533404	0.811742
	N256	N	0.170840	0.913119	0.458177
	N257	N	0.169604	0.084207	0.529131
	N258	N	0.813742	0.084108	0.457136
	N259	N	0.813930	0.912672	0.528508
	N260	N	0.457360	0.180559	0.905143
	N261	N	0.526356	0.180006	0.079787
	N262	N	0.457082	0.817916	0.081848
	N263	N	0.525830	0.817877	0.905587
	N264	N	0.455213	0.915042	0.170491
	N265	N	0.527136	0.084775	0.170851
	N266	N	0.455902	0.083955	0.815802
	N267	N	0.527754	0.914214	0.816056
	N268	N	0.904608	0.178773	0.457719
	N269	N	0.080079	0.180203	0.526869
	N270	N	0.079871	0.818312	0.458721
	N271	N	0.904416	0.817660	0.527624
	N272	N	0.173283	0.465215	0.904831
	N273	N	0.171990	0.533712	0.080428
	N274	N	0.809472	0.464733	0.079943
	N275	N	0.809935	0.533868	0.905496
	O276	O	0.201145	0.788956	-0.215655
	H277	H	0.165743	0.795912	-0.214247
	H278	H	0.223105	0.775298	-0.239064
	O279	O	0.679758	0.592219	0.392124
	H280	H	0.667991	0.581802	0.399018
	H281	H	0.691513	0.594456	0.374892
	O282	O	1.163179	0.123720	0.976902
	H283	H	1.161801	0.130347	0.976298
	H284	H	1.170326	0.103204	0.992330
	O285	O	0.784921	0.206029	0.785171
	H286	H	0.792619	0.214632	0.826601
	H287	H	0.751187	0.240317	0.755786
	O288	O	0.460413	0.276317	0.713883
	H289	H	0.439649	0.270364	0.722931
	H290	H	0.460506	0.266467	0.726476
	O291	O	0.299127	0.687809	0.680006
	H292	H	0.304785	0.674570	0.677323
	H293	H	0.316240	0.691094	0.647185
	O294	O	0.973433	-0.043910	1.059947
	H295	H	0.970343	-0.046006	1.045658
	H296	H	0.968283	-0.053791	1.065110
	O297	O	0.482570	0.668456	0.498294
	H298	H	0.494376	0.664006	0.497166
	H299	H	0.483169	0.664159	0.498123
	O300	O	-0.040066	0.218072	0.774975
	H301	H	-0.045064	0.225271	0.752162
	H302	H	-0.063089	0.217718	0.766242
	O303	O	0.452226	0.576049	0.705783
	H304	H	0.444052	0.572473	0.710063
	H305	H	0.464805	0.584396	0.701283
	O306	O	0.481473	0.456186	0.453661
	H307	H	0.490655	0.451558	0.450462
	H308	H	0.477194	0.464383	0.450724
	O309	O	0.511751	0.481316	0.474836
	H310	H	0.515964	0.486398	0.469282
	H311	H	0.511625	0.488446	0.468734
	O312	O	0.511270	0.528386	0.326534
	H313	H	0.507983	0.518980	0.332800
	H314	H	0.507209	0.526740	0.323943
	O315	O	0.866652	0.753473	0.746132
	H316	H	0.872259	0.764059	0.747478
	H317	H	0.846236	0.744409	0.734995
	O318	O	0.306483	0.309743	0.305523
	H319	H	0.319469	0.330152	0.321853
	H320	H	0.326734	0.331757	0.323267
	O321	O	0.200908	0.966514	0.785761
	H322	H	0.215871	0.965562	0.766091
	H323	H	0.192759	0.949520	0.788062
	O324	O	0.994925	0.780709	0.137616
	H325	H	0.996125	0.786289	0.153377
	H326	H	1.009316	0.783484	0.146847
	O327	O	0.011877	0.219046	1.201799
	H328	H	0.046748	0.228862	1.213468
	H329	H	0.029323	0.235414	1.210581
	O330	O	0.706328	0.454399	0.452068
	H331	H	0.705077	0.457843	0.447897
	H332	H	0.705479	0.466441	0.445531
	O333	O	0.631008	0.273457	0.504327
	H334	H	0.614176	0.279412	0.519447
	H335	H	0.627167	0.262584	0.498260
	O336	O	0.780126	0.210104	0.200820
	H337	H	0.803790	0.215689	0.183914
	H338	H	0.792587	0.183855	0.173801
	O339	O	1.286195	0.288571	0.702709
	H340	H	1.296678	0.291376	0.678082
	H341	H	1.257882	0.259463	0.733684
	O342	O	0.015027	-0.220777	0.114319
	H343	H	0.022840	-0.219096	0.114987
	H344	H	0.010346	-0.215793	0.132463
	O345	O	0.184319	0.860480	1.183623
	H346	H	0.182336	0.866620	1.165557
	H347	H	0.154642	0.873060	1.182664
	O348	O	0.331511	0.332495	0.535389
	H349	H	0.326511	0.330633	0.539305
	H350	H	0.331005	0.331223	0.529908
	O351	O	0.478015	0.619404	0.426263
	H352	H	0.469573	0.614491	0.435804
	H353	H	0.472063	0.605552	0.433279
	O354	O	0.036477	-0.050310	0.896697
	H355	H	0.036167	-0.043114	0.899654
	H356	H	0.039144	-0.040500	0.909683
	O357	O	0.705743	0.460624	0.272980
	H358	H	0.731259	0.447260	0.252713
	H359	H	0.707853	0.439872	0.277088
	O360	O	0.468824	0.437495	0.691436
	H361	H	0.461006	0.431420	0.682923
	H362	H	0.463380	0.420356	0.699450
	O363	O	-0.202555	0.078394	0.073780
	H364	H	-0.214009	0.057748	0.096873
	H365	H	-0.204766	0.068939	0.046862
	O366	O	0.635783	0.720622	0.487044
	H367	H	0.644193	0.716557	0.484476
	H368	H	0.639690	0.731806	0.480320
	O369	O	0.773521	0.022251	-0.207348
	H370	H	0.770067	0.057905	-0.217916
	H371	H	0.754748	0.038309	-0.220509
	O372	O	0.778868	0.789230	0.019834
	H373	H	0.771188	0.778298	0.007003
	H374	H	0.790678	0.781764	0.013226
	O375	O	0.772117	-0.039519	0.210694
	H376	H	0.779518	-0.057617	0.213813
	H377	H	0.754905	-0.055754	0.237983
	O378	O	0.366573	0.486750	0.478907
	H379	H	0.362504	0.496236	0.493714
	H380	H	0.364891	0.495531	0.475785
	O381	O	-0.118096	0.888890	0.798130
	H382	H	-0.112788	0.902207	0.793964
	H383	H	-0.133186	0.885871	0.811571
	O384	O	1.211754	-0.026929	0.998601
	H385	H	1.215276	-0.023111	1.004856
	H386	H	1.209723	-0.037091	1.003742
	O387	O	1.019688	1.089370	-0.054893
	H388	H	1.006006	1.084554	-0.045328
	H389	H	1.025133	1.093579	-0.048956
	O390	O	0.519533	0.275747	0.273201
	H391	H	0.531996	0.245375	0.241772
	H392	H	0.561080	0.287204	0.282536
	O393	O	0.405865	0.428733	0.434575
	H394	H	0.409048	0.438443	0.432929
	H395	H	0.397963	0.415189	0.439232
	O396	O	-0.000425	1.000704	0.898974
	H397	H	0.007441	1.002484	0.909622
	H398	H	-0.000895	1.003667	0.900058
	O399	O	0.215534	-0.209736	0.975837
	H400	H	0.229447	-0.213983	0.957260
	H401	H	0.224782	-0.215792	0.949249
	O402	O	0.713079	0.719239	0.227953
	H403	H	0.725416	0.716452	0.233746
	H404	H	0.708155	0.721717	0.201799
	O405	O	0.991692	-0.216928	0.848578
	H406	H	0.992624	-0.203639	0.856302
	H407	H	0.986832	-0.225974	0.826046
	O408	O	0.202094	-0.027799	0.176264
	H409	H	0.218169	-0.020671	0.196726
	H410	H	0.204422	-0.012593	0.168266
	O411	O	0.690345	0.705242	0.627853
	H412	H	0.687383	0.697959	0.625356
	H413	H	0.702233	0.715515	0.630046
	O414	O	0.285688	0.483676	0.695019
	H415	H	0.286823	0.478081	0.705706
	H416	H	0.278377	0.463310	0.707969
	O417	O	0.681283	0.307387	0.682635
	H418	H	0.662050	0.325122	0.664773
	H419	H	0.661813	0.323467	0.661175
	O420	O	0.191488	1.161352	1.051136
	H421	H	0.175398	1.147526	1.037394
	H422	H	0.200369	1.171283	1.044768
	O423	O	0.174312	0.187103	0.810095
	H424	H	0.163018	0.169703	0.833788
	H425	H	0.149691	0.172105	0.822042
	O426	O	0.279018	0.550515	0.339546
	H427	H	0.282446	0.575796	0.349012
	H428	H	0.264651	0.552747	0.316733
	O429	O	0.908941	1.199338	1.075882
	H430	H	0.931406	1.196705	1.076827
	H431	H	0.927537	1.200958	1.067673
	O432	O	0.435903	0.330145	0.512906
	H433	H	0.417705	0.323567	0.523252
	H434	H	0.424012	0.339052	0.510588
	O435	O	0.041296	1.234127	-0.060342
	H436	H	0.033906	1.233549	-0.069849
	H437	H	0.034967	1.236256	-0.068344
	O438	O	0.199427	0.212354	0.203315
	H439	H	0.211977	0.210864	0.173878
	H440	H	0.231092	0.231538	0.224166
	O441	O	-0.044709	0.053978	0.213859
	H442	H	-0.068376	0.057302	0.207008
	H443	H	-0.035206	0.079376	0.219154
	O444	O	0.528740	0.386298	0.543443
	H445	H	0.519883	0.396580	0.543569
	H446	H	0.533457	0.389110	0.549547
	O447	O	0.060097	0.938996	1.202279
	H448	H	0.040362	0.948982	1.202075
	H449	H	0.073936	0.961374	1.200615
	O450	O	0.332056	0.709644	1.286138
	H451	H	0.329856	0.717080	1.267439
	H452	H	0.347771	0.714995	1.275190
	O453	O	0.662618	0.420216	0.583736
	H454	H	0.673646	0.445697	0.584624
	H455	H	0.655853	0.424414	0.568355
	O456	O	-0.061025	0.011747	0.834884
	H457	H	-0.072037	-0.003414	0.833296
	H458	H	-0.053681	0.002912	0.820113
	O459	O	0.879396	0.780966	0.043608
	H460	H	0.883776	0.779823	0.016136
	H461	H	0.892679	0.767754	0.045942
	O462	O	0.290974	0.604379	0.517163
	H463	H	0.298434	0.624424	0.512985
	H464	H	0.276759	0.604313	0.534031
	O465	O	0.784132	0.188557	-0.067975
	H466	H	0.783908	0.184827	-0.054296
	H467	H	0.775995	0.193948	-0.054676
	O468	O	0.455439	0.522301	0.299544
	H469	H	0.444731	0.497211	0.298261
	H470	H	0.466518	0.511304	0.299879
	O471	O	0.274242	0.716479	0.421747
	H472	H	0.255115	0.737134	0.414796
	H473	H	0.296119	0.700618	0.392558
	O474	O	0.479919	0.650315	0.294323
	H475	H	0.486113	0.636215	0.289398
	H476	H	0.482730	0.659374	0.288446
	O477	O	0.503943	0.721973	1.677149
	H478	H	0.511701	0.731595	1.677742
	H479	H	0.505738	0.720197	1.678448
	O480	O	0.673376	0.312624	0.307858
	H481	H	0.681788	0.310154	0.350352
	H482	H	0.704884	0.283109	0.289792
	O483	O	0.695100	0.512666	0.680061
	H484	H	0.692517	0.516716	0.684669
	H485	H	0.704472	0.522882	0.691373
	O486	O	0.856601	0.049339	1.013101
	H487	H	0.858063	0.064339	1.018267
	H488	H	0.864641	0.041909	1.009319
	O489	O	0.841506	0.890529	-0.098535
	H490	H	0.841518	0.898352	-0.092242
	H491	H	0.842159	0.888528	-0.091243
