data_Molecule from HDF5

_cell_length_a		16.212497
_cell_length_b		16.134455
_cell_length_c		16.331711
_cell_angle_alpha	89.930379
_cell_angle_beta	89.975182
_cell_angle_gamma	89.856450
_symmetry_space_group_name_H-M	'P 1'
_symmetry_Int_Tables_number		1

loop_
	_symmetry_equiv_pos_as_xyz
	x,y,z

loop_
	_atom_site_label
	_atom_site_type_symbol
	_atom_site_fract_x
	_atom_site_fract_y
	_atom_site_fract_z
	H0	H	0.405277	0.841264	0.713818
	H1	H	0.605045	0.169371	0.712584
	H2	H	0.604513	0.840801	0.282828
	H3	H	0.403516	0.170135	0.283414
	H4	H	0.720245	0.406775	0.834351
	H5	H	0.720792	0.603980	0.161715
	H6	H	0.290633	0.604740	0.834201
	H7	H	0.290714	0.404597	0.160594
	H8	H	0.841219	0.719338	0.399592
	H9	H	0.170575	0.716364	0.595717
	H10	H	0.840203	0.291627	0.596230
	H11	H	0.170380	0.291697	0.402359
	H12	H	0.841827	0.403471	0.715252
	H13	H	0.168832	0.604711	0.714387
	H14	H	0.842092	0.606785	0.282131
	H15	H	0.169027	0.403116	0.282509
	H16	H	0.406933	0.720545	0.835098
	H17	H	0.603773	0.718840	0.162147
	H18	H	0.605789	0.289573	0.834308
	H19	H	0.408925	0.291239	0.161816
	H20	H	0.718290	0.839139	0.400088
	H21	H	0.717847	0.169793	0.596574
	H22	H	0.291638	0.840640	0.598726
	H23	H	0.290919	0.170217	0.401232
	H24	H	0.905084	0.340310	0.213577
	H25	H	0.104769	0.669123	0.213016
	H26	H	0.106667	0.340074	0.783453
	H27	H	0.904711	0.668765	0.782863
	H28	H	0.222302	0.903564	0.336433
	H29	H	0.218273	0.101588	0.662400
	H30	H	0.789847	0.104397	0.334947
	H31	H	0.788696	0.903984	0.661493
	H32	H	0.340542	0.217560	0.901201
	H33	H	0.669904	0.216432	0.093918
	H34	H	0.340103	0.791451	0.096895
	H35	H	0.670645	0.791389	0.901929
	H36	H	0.340885	0.904938	0.215210
	H37	H	0.668005	0.106699	0.214168
	H38	H	0.341571	0.105529	0.782597
	H39	H	0.669020	0.903422	0.781291
	H40	H	0.907328	0.218437	0.334374
	H41	H	0.102486	0.218062	0.661542
	H42	H	0.104820	0.789966	0.335266
	H43	H	0.907687	0.789321	0.662151
	H44	H	0.218666	0.339295	0.901782
	H45	H	0.217061	0.670076	0.095556
	H46	H	0.792307	0.339335	0.097073
	H47	H	0.791100	0.669184	0.898739
	H48	H	0.408435	0.125668	0.594632
	H49	H	0.590646	0.889164	0.591295
	H50	H	0.587797	0.121643	0.400096
	H51	H	0.421751	0.890002	0.404703
	H52	H	0.602328	0.408047	0.115021
	H53	H	0.587631	0.597097	0.885122
	H54	H	0.412064	0.604005	0.115950
	H55	H	0.416089	0.412474	0.882258
	H56	H	0.116013	0.585668	0.415773
	H57	H	0.889457	0.587973	0.593881
	H58	H	0.121837	0.414676	0.591254
	H59	H	0.885966	0.412143	0.401096
	H60	H	0.123880	0.409955	0.594109
	H61	H	0.885644	0.602824	0.597918
	H62	H	0.125784	0.590111	0.389012
	H63	H	0.887498	0.409802	0.405732
	H64	H	0.404849	0.594472	0.115533
	H65	H	0.602218	0.607960	0.878545
	H66	H	0.600542	0.414687	0.113451
	H67	H	0.410508	0.406788	0.879784
	H68	H	0.598171	0.119548	0.416139
	H69	H	0.600820	0.887595	0.584966
	H70	H	0.414872	0.123188	0.593558
	H71	H	0.412235	0.889670	0.413903
	H72	H	0.919721	0.621023	0.092497
	H73	H	0.110645	0.383426	0.089054
	H74	H	0.089686	0.618008	0.912147
	H75	H	0.913267	0.386777	0.908052
	H76	H	0.106181	0.916475	0.615911
	H77	H	0.101663	0.100685	0.379872
	H78	H	0.912150	0.104308	0.615895
	H79	H	0.904625	0.913139	0.380097
	H80	H	0.623987	0.112485	0.917111
	H81	H	0.383375	0.105097	0.097984
	H82	H	0.620337	0.911781	0.089366
	H83	H	0.388387	0.911280	0.906916
	H84	H	0.620798	0.915931	0.091684
	H85	H	0.388967	0.099961	0.082436
	H86	H	0.615579	0.077950	0.909980
	H87	H	0.389094	0.916318	0.906420
	H88	H	0.904230	0.096311	0.616169
	H89	H	0.100476	0.093256	0.382523
	H90	H	0.090403	0.912869	0.611165
	H91	H	0.916434	0.918948	0.385385
	H92	H	0.107062	0.625345	0.907834
	H93	H	0.093889	0.384442	0.103102
	H94	H	0.911562	0.621531	0.084557
	H95	H	0.912072	0.386038	0.904373
	H96	H	0.410701	0.122869	0.587946
	H97	H	0.600883	0.884033	0.597225
	H98	H	0.606444	0.127265	0.399781
	H99	H	0.409005	0.885189	0.401457
	H100	H	0.596394	0.409223	0.114048
	H101	H	0.604369	0.588762	0.883979
	H102	H	0.415593	0.594128	0.111553
	H103	H	0.408992	0.414326	0.881054
	H104	H	0.126998	0.612442	0.407801
	H105	H	0.889473	0.599581	0.582690
	H106	H	0.122186	0.409918	0.588881
	H107	H	0.888572	0.414896	0.405234
	H108	H	0.908898	0.624658	0.095356
	H109	H	0.090177	0.391595	0.083253
	H110	H	0.093078	0.624379	0.894705
	H111	H	0.915955	0.386796	0.904941
	H112	H	0.099265	0.901510	0.618218
	H113	H	0.093934	0.098707	0.382841
	H114	H	0.915707	0.094102	0.613098
	H115	H	0.916086	0.905264	0.382092
	H116	H	0.628986	0.099128	0.883986
	H117	H	0.389278	0.088281	0.095911
	H118	H	0.622381	0.911595	0.093840
	H119	H	0.388245	0.914172	0.902065
	C120	C	0.383311	0.014452	0.620291
	C121	C	0.626259	0.996238	0.619318
	C122	C	0.626420	0.013774	0.376523
	C123	C	0.384483	0.996861	0.377920
	C124	C	0.628254	0.382256	0.006138
	C125	C	0.627117	0.626605	0.990233
	C126	C	0.382579	0.627187	0.006554
	C127	C	0.383569	0.382477	0.989224
	C128	C	0.014179	0.625814	0.376055
	C129	C	0.996942	0.625451	0.619491
	C130	C	0.013938	0.382810	0.620041
	C131	C	0.996429	0.383250	0.376153
	C132	C	0.884499	0.513192	0.119513
	C133	C	0.126799	0.495604	0.119880
	C134	C	0.126126	0.513437	0.877049
	C135	C	0.884168	0.495470	0.876503
	C136	C	0.128261	0.881750	0.507271
	C137	C	0.126945	0.126170	0.489737
	C138	C	0.882788	0.126778	0.506815
	C139	C	0.883370	0.882825	0.490317
	C140	C	0.514310	0.126084	0.875708
	C141	C	0.495904	0.126444	0.119823
	C142	C	0.512767	0.883997	0.120856
	C143	C	0.497179	0.884099	0.876311
	C144	C	0.385268	0.890456	0.675815
	C145	C	0.624519	0.120248	0.674540
	C146	C	0.624638	0.889751	0.320927
	C147	C	0.384327	0.120710	0.321352
	C148	C	0.683105	0.385359	0.883200
	C149	C	0.682730	0.624261	0.112846
	C150	C	0.327928	0.625208	0.883387
	C151	C	0.328865	0.384638	0.111935
	C152	C	0.890658	0.681871	0.378707
	C153	C	0.121041	0.679760	0.616607
	C154	C	0.889609	0.328885	0.616841
	C155	C	0.120759	0.328560	0.380486
	C156	C	0.890431	0.384548	0.676045
	C157	C	0.120197	0.623982	0.675398
	C158	C	0.891035	0.625738	0.320174
	C159	C	0.120255	0.384443	0.321301
	C160	C	0.385735	0.682808	0.883779
	C161	C	0.624531	0.681485	0.113207
	C162	C	0.625849	0.327484	0.883246
	C163	C	0.387535	0.328289	0.112463
	C164	C	0.681359	0.889102	0.379087
	C165	C	0.680527	0.120536	0.616430
	C166	C	0.329031	0.890174	0.618219
	C167	C	0.328436	0.120926	0.379947
	C168	C	0.885578	0.389408	0.175290
	C169	C	0.124503	0.619993	0.174985
	C170	C	0.125857	0.389216	0.821569
	C171	C	0.885014	0.619388	0.820580
	C172	C	0.184270	0.883716	0.385039
	C173	C	0.181062	0.122776	0.613126
	C174	C	0.828002	0.124228	0.383700
	C175	C	0.827774	0.884665	0.613082
	C176	C	0.390071	0.180735	0.879614
	C177	C	0.620527	0.179802	0.115355
	C178	C	0.389186	0.828907	0.117971
	C179	C	0.621123	0.828773	0.880238
	C180	C	0.389774	0.885143	0.176858
	C181	C	0.619254	0.125630	0.175531
	C182	C	0.390529	0.125245	0.820550
	C183	C	0.620231	0.884393	0.820241
	C184	C	0.886336	0.181026	0.383268
	C185	C	0.123327	0.180565	0.612801
	C186	C	0.125442	0.827382	0.384177
	C187	C	0.886377	0.827211	0.613275
	C188	C	0.181443	0.388754	0.880443
	C189	C	0.180596	0.620399	0.116726
	C190	C	0.829455	0.388973	0.117372
	C191	C	0.828762	0.619773	0.878571
	C192	C	0.404957	0.101409	0.598427
	C193	C	0.604088	0.909322	0.597493
	C194	C	0.603958	0.100388	0.398712
	C195	C	0.407539	0.910536	0.400170
	C196	C	0.606272	0.404375	0.091936
	C197	C	0.604597	0.604338	0.904638
	C198	C	0.404368	0.604442	0.092166
	C199	C	0.405358	0.404758	0.903250
	C200	C	0.100616	0.602910	0.397939
	C201	C	0.910390	0.603295	0.597822
	C202	C	0.100265	0.404875	0.597926
	C203	C	0.909805	0.405694	0.397630
	C204	C	0.906839	0.599909	0.097251
	C205	C	0.104801	0.409025	0.098135
	C206	C	0.103395	0.600002	0.898614
	C207	C	0.907067	0.408826	0.899185
	C208	C	0.105296	0.903828	0.592870
	C209	C	0.105033	0.104097	0.403945
	C210	C	0.904344	0.104781	0.592656
	C211	C	0.905847	0.905588	0.404679
	C212	C	0.600511	0.103241	0.897251
	C213	C	0.409561	0.104379	0.098420
	C214	C	0.598801	0.906532	0.098178
	C215	C	0.410949	0.907041	0.898619
	Zn216	Zn	0.505463	0.005371	0.747070
	Zn217	Zn	0.504585	0.005883	0.248888
	Zn218	Zn	0.756656	0.504724	-0.001595
	Zn219	Zn	0.254394	0.504856	-0.002182
	Zn220	Zn	0.005865	0.753625	0.498288
	Zn221	Zn	0.004514	0.255035	0.497908
	Zn222	Zn	0.005178	0.504373	0.748517
	Zn223	Zn	0.005221	0.504533	0.247606
	Zn224	Zn	0.505284	0.755562	-0.001088
	Zn225	Zn	0.505872	0.254021	-0.002331
	Zn226	Zn	0.754222	0.004598	0.498306
	Zn227	Zn	0.255903	0.004937	0.499001
	N228	N	0.418303	0.968751	0.677261
	N229	N	0.591029	0.041889	0.676158
	N230	N	0.591191	0.968249	0.319230
	N231	N	0.418686	0.042601	0.320175
	N232	N	0.684725	0.418736	0.960596
	N233	N	0.684605	0.590948	0.035364
	N234	N	0.325704	0.591516	0.960822
	N235	N	0.326342	0.417892	0.034267
	N236	N	0.968318	0.682164	0.412615
	N237	N	0.043333	0.680777	0.582426
	N238	N	0.967384	0.327574	0.582840
	N239	N	0.042803	0.327889	0.413946
	N240	N	0.968654	0.417287	0.678181
	N241	N	0.041963	0.591002	0.677446
	N242	N	0.968992	0.591628	0.318436
	N243	N	0.041827	0.417262	0.318231
	N244	N	0.418957	0.684308	0.961343
	N245	N	0.590772	0.683227	0.035929
	N246	N	0.592252	0.325417	0.960712
	N247	N	0.420671	0.326590	0.035024
	N248	N	0.682756	0.967293	0.412809
	N249	N	0.681644	0.042437	0.582954
	N250	N	0.327764	0.968313	0.584386
	N251	N	0.328219	0.043093	0.414461
	N252	N	0.919072	0.467615	0.176650
	N253	N	0.092162	0.541282	0.177394
	N254	N	0.092235	0.467562	0.819227
	N255	N	0.919028	0.541064	0.819476
	N256	N	0.186124	0.916755	0.462596
	N257	N	0.183611	0.089898	0.535507
	N258	N	0.825595	0.091249	0.461434
	N259	N	0.825713	0.918215	0.535529
	N260	N	0.467974	0.181634	0.913030
	N261	N	0.542914	0.180385	0.081205
	N262	N	0.466891	0.827849	0.083902
	N263	N	0.543442	0.828425	0.914492
	N264	N	0.467726	0.918478	0.178633
	N265	N	0.540965	0.093142	0.178420
	N266	N	0.468643	0.091701	0.818192
	N267	N	0.542229	0.917961	0.817799
	N268	N	0.919698	0.182861	0.460674
	N269	N	0.090475	0.182778	0.535070
	N270	N	0.091461	0.825887	0.461372
	N271	N	0.920275	0.825962	0.536003
	N272	N	0.181929	0.467005	0.914185
	N273	N	0.182447	0.542179	0.083254
	N274	N	0.828322	0.467195	0.083470
	N275	N	0.827976	0.541657	0.912483
	O276	O	0.053632	-0.041767	0.009145
	H277	H	0.058130	-0.034113	0.004194
	H278	H	0.059361	-0.041777	0.001055
	O279	O	0.506714	0.505635	0.464171
	H280	H	0.504128	0.503781	0.467311
	H281	H	0.504839	0.511394	0.460916
	O282	O	0.575265	0.544263	0.380684
	H283	H	0.587815	0.542901	0.379395
	H284	H	0.581860	0.526155	0.383215
	O285	O	0.956047	0.036290	0.922206
	H286	H	0.964960	0.034826	0.915059
	H287	H	0.945719	0.045319	0.918491
	O288	O	1.008962	0.062336	0.016900
	H289	H	1.017053	0.057410	0.014690
	H290	H	1.009498	0.049446	0.012168
	O291	O	0.534172	0.506177	0.538654
	H292	H	0.530867	0.515931	0.532781
	H293	H	0.519091	0.515423	0.545274
	O294	O	0.959605	0.035061	0.998577
	H295	H	0.949266	0.041754	0.999218
	H296	H	0.948204	0.034563	1.000534
	O297	O	-0.025370	-0.035470	0.087969
	H298	H	-0.035795	-0.039028	0.082320
	H299	H	-0.030907	-0.036809	0.094692
	O300	O	0.486657	0.529072	0.528316
	H301	H	0.481263	0.529898	0.527982
	H302	H	0.474331	0.524010	0.528364
	O303	O	0.535346	0.447685	0.478508
	H304	H	0.537521	0.453143	0.480552
	H305	H	0.544268	0.453996	0.461055
	O306	O	0.921211	-0.069024	0.016150
	H307	H	0.918082	-0.074002	0.016109
	H308	H	0.920008	-0.059208	0.010088
	O309	O	0.047101	-0.029234	0.991191
	H310	H	0.043147	-0.031895	0.992141
	H311	H	0.034319	-0.024580	1.012205
	O312	O	0.987593	1.059217	1.093086
	H313	H	0.986903	1.068922	1.082890
	H314	H	1.003340	1.064451	1.092721
	O315	O	0.460629	0.578924	0.450845
	H316	H	0.462319	0.574842	0.448655
	H317	H	0.455032	0.573404	0.451307
	O318	O	0.500426	0.560891	0.453807
	H319	H	0.506384	0.561075	0.457810
	H320	H	0.498818	0.564025	0.449185
	O321	O	-0.047157	1.001893	0.972948
	H322	H	-0.050107	0.994087	0.978640
	H323	H	-0.059766	0.997592	0.976680
	O324	O	0.471029	0.526660	0.454847
	H325	H	0.460125	0.538642	0.456190
	H326	H	0.481124	0.521224	0.457755
	O327	O	0.524681	0.530825	0.546772
	H328	H	0.531947	0.539857	0.543470
	H329	H	0.524202	0.529217	0.546023
	O330	O	0.554872	0.501965	0.543165
	H331	H	0.547370	0.492097	0.548668
	H332	H	0.557490	0.503394	0.556761
	O333	O	0.448752	0.569621	0.556711
	H334	H	0.441443	0.565161	0.553796
	H335	H	0.449525	0.575592	0.556335
	O336	O	0.533450	0.469728	0.388505
	H337	H	0.540265	0.474018	0.389323
	H338	H	0.534718	0.456646	0.391720
	O339	O	1.078259	0.934101	-0.038045
	H340	H	1.076038	0.940941	-0.036158
	H341	H	1.076361	0.929830	-0.043795
	O342	O	0.540938	0.408835	0.490083
	H343	H	0.542903	0.406304	0.477547
	H344	H	0.538224	0.415726	0.487575
	O345	O	0.445132	0.524162	0.433912
	H346	H	0.435934	0.523113	0.418273
	H347	H	0.449160	0.516233	0.432229
	O348	O	-0.063015	0.014477	0.002785
	H349	H	-0.049894	0.024960	0.000259
	H350	H	-0.058428	0.013287	0.012932
	O351	O	0.104005	0.965824	0.969935
	H352	H	0.107068	0.968336	0.973226
	H353	H	0.111551	0.970215	0.966584
	O354	O	0.456297	0.475062	0.497843
	H355	H	0.453365	0.480525	0.500779
	H356	H	0.450826	0.477370	0.499254
	O357	O	0.005343	0.989350	0.973518
	H358	H	0.008352	0.983605	0.965348
	H359	H	0.009637	0.976972	0.977841
