data_Molecule from HDF5

_cell_length_a		16.370875
_cell_length_b		16.315567
_cell_length_c		16.262631
_cell_angle_alpha	89.815999
_cell_angle_beta	90.162328
_cell_angle_gamma	89.725405
_symmetry_space_group_name_H-M	'P 1'
_symmetry_Int_Tables_number		1

loop_
	_symmetry_equiv_pos_as_xyz
	x,y,z

loop_
	_atom_site_label
	_atom_site_type_symbol
	_atom_site_fract_x
	_atom_site_fract_y
	_atom_site_fract_z
	H0	H	0.394178	0.822616	0.724242
	H1	H	0.591121	0.147733	0.720083
	H2	H	0.597212	0.821962	0.287373
	H3	H	0.390360	0.145185	0.285917
	H4	H	0.709688	0.383423	0.841404
	H5	H	0.714512	0.587673	0.164864
	H6	H	0.276316	0.587254	0.841802
	H7	H	0.274754	0.378175	0.165503
	H8	H	0.833182	0.702500	0.402157
	H9	H	0.153639	0.700378	0.610473
	H10	H	0.832303	0.264921	0.609665
	H11	H	0.153518	0.261962	0.402773
	H12	H	0.832232	0.382126	0.723461
	H13	H	0.154651	0.581692	0.721700
	H14	H	0.832679	0.585889	0.285626
	H15	H	0.153980	0.376182	0.284875
	H16	H	0.391900	0.703681	0.842711
	H17	H	0.596293	0.699897	0.166909
	H18	H	0.593710	0.268248	0.841914
	H19	H	0.393577	0.266523	0.166708
	H20	H	0.712547	0.821276	0.404730
	H21	H	0.712286	0.144807	0.608700
	H22	H	0.276051	0.822445	0.610431
	H23	H	0.272700	0.144170	0.400359
	H24	H	0.891240	0.322619	0.223853
	H25	H	0.096773	0.643727	0.224006
	H26	H	0.097813	0.321470	0.786221
	H27	H	0.893925	0.645700	0.787348
	H28	H	0.214117	0.878721	0.344263
	H29	H	0.212077	0.084716	0.667175
	H30	H	0.773838	0.085409	0.343946
	H31	H	0.774852	0.877906	0.667006
	H32	H	0.332929	0.204029	0.902832
	H33	H	0.654630	0.202168	0.109324
	H34	H	0.334667	0.764666	0.109092
	H35	H	0.654575	0.765048	0.902996
	H36	H	0.334256	0.880675	0.224420
	H37	H	0.654952	0.085713	0.224795
	H38	H	0.332385	0.087247	0.788192
	H39	H	0.655138	0.882165	0.789015
	H40	H	0.887086	0.203411	0.344606
	H41	H	0.095807	0.200509	0.667228
	H42	H	0.097746	0.763674	0.343927
	H43	H	0.894003	0.765241	0.668382
	H44	H	0.216174	0.322609	0.900488
	H45	H	0.212151	0.644950	0.107625
	H46	H	0.773842	0.324069	0.110127
	H47	H	0.774921	0.645318	0.899743
	H48	H	0.402643	0.096382	0.591288
	H49	H	0.589163	0.867087	0.598584
	H50	H	0.593861	0.100493	0.418756
	H51	H	0.405943	0.868102	0.409313
	H52	H	0.589393	0.399849	0.120154
	H53	H	0.582591	0.579942	0.888186
	H54	H	0.401190	0.567242	0.117723
	H55	H	0.409151	0.399961	0.892996
	H56	H	0.112850	0.579860	0.407652
	H57	H	0.875998	0.573433	0.601490
	H58	H	0.111419	0.386103	0.602616
	H59	H	0.880290	0.390805	0.420382
	H60	H	0.105848	0.386177	0.587872
	H61	H	0.876899	0.579929	0.592865
	H62	H	0.106194	0.576722	0.426436
	H63	H	0.882107	0.400974	0.414619
	H64	H	0.410675	0.575737	0.117779
	H65	H	0.589489	0.572890	0.887620
	H66	H	0.579733	0.392946	0.117500
	H67	H	0.406740	0.388295	0.887872
	H68	H	0.579592	0.099065	0.406243
	H69	H	0.583229	0.869114	0.601167
	H70	H	0.395532	0.101351	0.596354
	H71	H	0.408501	0.872813	0.419807
	H72	H	0.905623	0.599246	0.100329
	H73	H	0.084951	0.369633	0.091943
	H74	H	0.079763	0.592765	0.924152
	H75	H	0.903626	0.369375	0.915931
	H76	H	0.079482	0.888754	0.619961
	H77	H	0.087036	0.074078	0.389375
	H78	H	0.903974	0.079094	0.622441
	H79	H	0.903356	0.900688	0.392858
	H80	H	0.610177	0.078943	0.910995
	H81	H	0.378376	0.071894	0.103176
	H82	H	0.606403	0.894638	0.091126
	H83	H	0.376807	0.892728	0.909409
	H84	H	0.609414	0.895934	0.099423
	H85	H	0.377645	0.084689	0.094022
	H86	H	0.608831	0.078727	0.916691
	H87	H	0.379303	0.890153	0.919553
	H88	H	0.896450	0.070679	0.622128
	H89	H	0.082157	0.066304	0.393014
	H90	H	0.091178	0.887846	0.623825
	H91	H	0.910309	0.891267	0.392534
	H92	H	0.097721	0.601621	0.913719
	H93	H	0.088440	0.368080	0.094374
	H94	H	0.909211	0.595434	0.090020
	H95	H	0.901698	0.367971	0.915051
	H96	H	0.404496	0.099650	0.600812
	H97	H	0.583793	0.870089	0.594238
	H98	H	0.577327	0.092519	0.423873
	H99	H	0.397947	0.867448	0.418320
	H100	H	0.590174	0.388129	0.122303
	H101	H	0.580846	0.571094	0.890962
	H102	H	0.399260	0.578863	0.122378
	H103	H	0.397212	0.397442	0.888241
	H104	H	0.105456	0.562244	0.412334
	H105	H	0.880859	0.569689	0.592329
	H106	H	0.105423	0.399573	0.595976
	H107	H	0.877157	0.391592	0.409571
	H108	H	0.898328	0.599725	0.090713
	H109	H	0.083767	0.368621	0.096460
	H110	H	0.078295	0.599195	0.902808
	H111	H	0.903279	0.369098	0.913329
	H112	H	0.086905	0.898842	0.618314
	H113	H	0.077092	0.075148	0.392221
	H114	H	0.907198	0.069136	0.618345
	H115	H	0.898481	0.890173	0.388895
	H116	H	0.608556	0.073879	0.913512
	H117	H	0.383688	0.071686	0.088609
	H118	H	0.610203	0.888636	0.095638
	H119	H	0.381713	0.899825	0.916554
	C120	C	0.371818	-0.007684	0.627483
	C121	C	0.615249	0.975686	0.627960
	C122	C	0.614837	-0.008705	0.385248
	C123	C	0.372418	0.975681	0.383866
	C124	C	0.616421	0.362862	0.012921
	C125	C	0.615409	0.605554	0.995819
	C126	C	0.372757	0.605527	0.012587
	C127	C	0.373827	0.363513	0.996361
	C128	C	0.001945	0.604226	0.383958
	C129	C	0.984726	0.603827	0.626168
	C130	C	0.001472	0.360367	0.627381
	C131	C	0.985346	0.361564	0.383370
	C132	C	0.873216	0.491950	0.125339
	C133	C	0.116459	0.474909	0.125979
	C134	C	0.116181	0.491296	0.882951
	C135	C	0.872421	0.475237	0.882965
	C136	C	0.116437	0.860666	0.513852
	C137	C	0.113764	0.103399	0.497555
	C138	C	0.871422	0.104370	0.514053
	C139	C	0.873119	0.861955	0.497623
	C140	C	0.502254	0.107032	0.883658
	C141	C	0.485975	0.105995	0.126644
	C142	C	0.502937	0.862351	0.126880
	C143	C	0.485424	0.862912	0.884278
	C144	C	0.373677	0.870915	0.685485
	C145	C	0.612624	0.098532	0.683126
	C146	C	0.615878	0.869996	0.326925
	C147	C	0.371393	0.096797	0.325130
	C148	C	0.672357	0.363403	0.890478
	C149	C	0.674435	0.606005	0.116984
	C150	C	0.314990	0.606580	0.890728
	C151	C	0.315103	0.361147	0.117752
	C152	C	0.881071	0.663029	0.382996
	C153	C	0.105609	0.661286	0.627971
	C154	C	0.880513	0.303684	0.628337
	C155	C	0.105688	0.301501	0.383396
	C156	C	0.880489	0.361899	0.685075
	C157	C	0.106183	0.602310	0.683562
	C158	C	0.880987	0.605062	0.325016
	C159	C	0.106004	0.358733	0.324881
	C160	C	0.372682	0.664439	0.891058
	C161	C	0.615508	0.662061	0.117988
	C162	C	0.614082	0.306478	0.890664
	C163	C	0.374111	0.305343	0.118412
	C164	C	0.673381	0.869798	0.385104
	C165	C	0.672444	0.097282	0.627419
	C166	C	0.315075	0.870837	0.628560
	C167	C	0.312973	0.096384	0.382253
	C168	C	0.872332	0.371081	0.184465
	C169	C	0.116369	0.595723	0.184777
	C170	C	0.116740	0.369872	0.825436
	C171	C	0.873694	0.597123	0.825461
	C172	C	0.174772	0.859786	0.392705
	C173	C	0.172819	0.103931	0.618673
	C174	C	0.812892	0.104877	0.392354
	C175	C	0.814407	0.859755	0.618974
	C176	C	0.381211	0.165324	0.883336
	C177	C	0.606493	0.163763	0.128361
	C178	C	0.382366	0.804200	0.127767
	C179	C	0.606458	0.804294	0.883876
	C180	C	0.382179	0.861833	0.185278
	C181	C	0.606749	0.105244	0.185521
	C182	C	0.380848	0.106869	0.826480
	C183	C	0.606712	0.862873	0.827240
	C184	C	0.869541	0.163524	0.392806
	C185	C	0.114846	0.161545	0.618880
	C186	C	0.116662	0.802776	0.392517
	C187	C	0.873588	0.803634	0.619498
	C188	C	0.175617	0.370406	0.882149
	C189	C	0.173791	0.596340	0.126689
	C190	C	0.813977	0.371695	0.127422
	C191	C	0.814410	0.596820	0.881280
	C192	C	0.394248	0.077364	0.603202
	C193	C	0.592087	0.890860	0.604880
	C194	C	0.590524	0.075545	0.409437
	C195	C	0.397051	0.891322	0.408550
	C196	C	0.593189	0.386744	0.097890
	C197	C	0.591183	0.581693	0.910990
	C198	C	0.396874	0.581089	0.097170
	C199	C	0.397486	0.388070	0.911781
	C200	C	0.086005	0.579989	0.408256
	C201	C	0.900103	0.580917	0.602440
	C202	C	0.085763	0.383818	0.602708
	C203	C	0.901737	0.386936	0.407650
	C204	C	0.897479	0.576296	0.100678
	C205	C	0.092713	0.390677	0.101321
	C206	C	0.092197	0.575686	0.906512
	C207	C	0.896115	0.390690	0.907610
	C208	C	0.092569	0.884731	0.598620
	C209	C	0.089192	0.078928	0.413326
	C210	C	0.895501	0.080130	0.598950
	C211	C	0.897088	0.886898	0.413327
	C212	C	0.587208	0.083682	0.906836
	C213	C	0.401637	0.082761	0.102397
	C214	C	0.586825	0.886150	0.102571
	C215	C	0.401166	0.887113	0.908283
	Zn216	Zn	0.493851	-0.015033	0.756231
	Zn217	Zn	0.494160	-0.016206	0.255330
	Zn218	Zn	0.744054	0.484454	0.003932
	Zn219	Zn	0.245032	0.483695	0.004429
	Zn220	Zn	-0.005843	0.732811	0.505844
	Zn221	Zn	-0.007455	0.232499	0.505831
	Zn222	Zn	-0.006477	0.482946	0.754757
	Zn223	Zn	-0.005636	0.483129	0.254457
	Zn224	Zn	0.494383	0.734153	0.005272
	Zn225	Zn	0.494585	0.234862	0.005061
	Zn226	Zn	0.744111	-0.016891	0.506500
	Zn227	Zn	0.243712	-0.016889	0.504954
	N228	N	0.408501	0.947460	0.684572
	N229	N	0.577911	0.021984	0.683430
	N230	N	0.580398	0.946523	0.326726
	N231	N	0.407736	0.020558	0.325951
	N232	N	0.674124	0.397464	0.967759
	N233	N	0.674455	0.571594	0.040073
	N234	N	0.314998	0.570710	0.967236
	N235	N	0.314921	0.396674	0.041021
	N236	N	0.957076	0.662749	0.418985
	N237	N	0.029025	0.662333	0.593088
	N238	N	0.956839	0.302535	0.593427
	N239	N	0.029625	0.302885	0.418993
	N240	N	0.957112	0.396205	0.684767
	N241	N	0.030092	0.567234	0.682587
	N242	N	0.957269	0.569480	0.325433
	N243	N	0.030187	0.395233	0.324758
	N244	N	0.408016	0.663984	0.967929
	N245	N	0.579509	0.661868	0.041496
	N246	N	0.580451	0.305792	0.968079
	N247	N	0.410013	0.306679	0.042071
	N248	N	0.672900	0.946260	0.420608
	N249	N	0.674208	0.019998	0.593833
	N250	N	0.313753	0.947440	0.593129
	N251	N	0.313612	0.020047	0.418046
	N252	N	0.908528	0.446878	0.183003
	N253	N	0.081921	0.519094	0.184727
	N254	N	0.080225	0.445897	0.825927
	N255	N	0.909167	0.520465	0.826340
	N256	N	0.174752	0.894991	0.469191
	N257	N	0.172263	0.068417	0.542135
	N258	N	0.813826	0.069066	0.468744
	N259	N	0.814107	0.895479	0.542375
	N260	N	0.457821	0.165369	0.918340
	N261	N	0.530521	0.164183	0.092406
	N262	N	0.458324	0.804382	0.092239
	N263	N	0.530106	0.804378	0.918681
	N264	N	0.458137	0.897393	0.184805
	N265	N	0.530616	0.070255	0.184715
	N266	N	0.457053	0.071383	0.826717
	N267	N	0.530511	0.898855	0.827551
	N268	N	0.905125	0.163288	0.469593
	N269	N	0.078617	0.161147	0.542693
	N270	N	0.081399	0.802913	0.469173
	N271	N	0.909550	0.804930	0.543222
	N272	N	0.175330	0.446794	0.917267
	N273	N	0.174173	0.519961	0.091032
	N274	N	0.814209	0.448024	0.091332
	N275	N	0.813805	0.520247	0.916688
	O276	O	0.582199	0.550601	0.443206
	H277	H	0.568426	0.549940	0.455115
	H278	H	0.583703	0.572556	0.439865
	O279	O	0.464710	0.565591	0.318812
	H280	H	0.466954	0.575405	0.321643
	H281	H	0.437676	0.583806	0.308471
	O282	O	1.152355	-0.180720	1.025141
	H283	H	1.168865	-0.198784	1.009986
	H284	H	1.136457	-0.172229	1.032811
	O285	O	0.314114	0.644861	0.394205
	H286	H	0.331062	0.653242	0.401111
	H287	H	0.304405	0.629021	0.397548
	O288	O	1.051192	1.096724	1.076122
	H289	H	1.068179	1.085756	1.079066
	H290	H	1.060627	1.121620	1.085885
	O291	O	0.003024	1.000837	-0.178989
	H292	H	0.014998	1.016562	-0.179704
	H293	H	-0.008617	1.001515	-0.179570
	O294	O	0.538792	0.587933	0.633627
	H295	H	0.531602	0.589276	0.651568
	H296	H	0.543855	0.589442	0.629707
	O297	O	0.440103	0.415973	0.493552
	H298	H	0.434255	0.421541	0.500465
	H299	H	0.432963	0.411926	0.490920
	O300	O	0.541318	0.508588	0.461213
	H301	H	0.537781	0.508607	0.467740
	H302	H	0.536547	0.510623	0.452003
	O303	O	0.305736	0.527861	0.454575
	H304	H	0.301121	0.519772	0.452289
	H305	H	0.295020	0.521710	0.450696
	O306	O	0.611619	0.528906	0.524562
	H307	H	0.615731	0.520880	0.526934
	H308	H	0.606385	0.521523	0.527239
	O309	O	0.309685	0.480444	0.335753
	H310	H	0.326837	0.497416	0.343491
	H311	H	0.291687	0.486866	0.325746
	O312	O	0.011125	-0.025305	0.131643
	H313	H	-0.009371	-0.030672	0.144457
	H314	H	0.012942	-0.015677	0.124771
	O315	O	0.464285	0.559865	0.531646
	H316	H	0.466952	0.562977	0.539632
	H317	H	0.479453	0.550772	0.520647
	O318	O	0.618341	1.367691	1.365261
	H319	H	0.629653	1.379873	1.350947
	H320	H	0.591807	1.369233	1.347708
	O321	O	0.639894	0.617516	0.619638
	H322	H	0.638633	0.595990	0.628348
	H323	H	0.635693	0.606168	0.619218
	O324	O	-0.053992	0.790554	-0.044712
	H325	H	-0.054065	0.784475	-0.060908
	H326	H	-0.052052	0.794370	-0.037787
	O327	O	0.479268	0.318126	0.492550
	H328	H	0.494086	0.314088	0.469822
	H329	H	0.486956	0.304988	0.486816
	O330	O	-0.134133	0.079185	0.840597
	H331	H	-0.142090	0.071493	0.849254
	H332	H	-0.108517	0.089807	0.835733
	O333	O	-0.167607	-0.030079	1.000958
	H334	H	-0.171420	-0.045156	0.983904
	H335	H	-0.175887	-0.041280	1.003975
	O336	O	0.327095	0.591083	0.501282
	H337	H	0.321302	0.583852	0.517573
	H338	H	0.322077	0.602257	0.507469
	O339	O	1.150941	0.096485	0.015822
	H340	H	1.143827	0.096305	0.014159
	H341	H	1.147938	0.099240	0.021501
	O342	O	-0.182703	-0.043871	-0.154357
	H343	H	-0.184523	-0.024277	-0.149227
	H344	H	-0.192852	-0.048435	-0.169375
	O345	O	0.937792	-0.105526	1.011017
	H346	H	0.930906	-0.094049	0.993466
	H347	H	0.928175	-0.106859	1.017541
	O348	O	0.992504	1.144572	-0.117589
	H349	H	1.001241	1.153314	-0.127428
	H350	H	0.994965	1.131734	-0.118015
	O351	O	0.640555	0.401767	0.473875
	H352	H	0.657031	0.406310	0.469515
	H353	H	0.641229	0.394587	0.472756
	O354	O	1.135511	0.060546	0.893297
	H355	H	1.132202	0.055154	0.901592
	H356	H	1.146398	0.056203	0.884597
	O357	O	0.362467	0.535174	0.580707
	H358	H	0.363656	0.540026	0.582969
	H359	H	0.361933	0.531141	0.580688
	O360	O	0.399113	0.405230	0.457652
	H361	H	0.405012	0.414966	0.452847
	H362	H	0.393459	0.399534	0.451372
	O363	O	-0.062759	1.134727	1.082337
	H364	H	-0.048627	1.132629	1.075561
	H365	H	-0.061091	1.115984	1.092822
	O366	O	1.120969	1.004593	0.013369
	H367	H	1.113657	1.000139	0.004717
	H368	H	1.124815	0.997877	0.017748
	O369	O	-0.074968	0.945775	0.131271
	H370	H	-0.078854	0.946936	0.139436
	H371	H	-0.074445	0.944210	0.126902
	O372	O	0.526182	0.406475	0.649099
	H373	H	0.506088	0.406283	0.656231
	H374	H	0.540504	0.395595	0.633828
	O375	O	0.649033	0.409344	0.398895
	H376	H	0.642268	0.408623	0.395238
	H377	H	0.662021	0.422593	0.404150
	O378	O	1.134032	0.927547	-0.077207
	H379	H	1.139978	0.932977	-0.085268
	H380	H	1.129879	0.921405	-0.086637
	O381	O	0.795293	0.161965	-0.087236
	H382	H	0.783836	0.170536	-0.081161
	H383	H	0.798734	0.176250	-0.084321
	O384	O	1.119950	0.973270	-0.035393
	H385	H	1.121492	0.979651	-0.026581
	H386	H	1.120373	0.985155	-0.039437
	O387	O	0.093360	-0.070777	0.044372
	H388	H	0.087044	-0.087464	0.047469
	H389	H	0.080266	-0.077338	0.048393
	O390	O	0.069089	0.835665	0.062652
	H391	H	0.074399	0.842010	0.063692
	H392	H	0.049232	0.829424	0.079285
	O393	O	0.833421	0.989105	1.158531
	H394	H	0.839385	0.996355	1.140022
	H395	H	0.832192	0.995609	1.154643
	O396	O	0.426947	0.426136	0.668491
	H397	H	0.428222	0.405295	0.653594
	H398	H	0.423745	0.422219	0.673570
	O399	O	-0.124776	0.973002	1.005479
	H400	H	-0.114499	0.967935	1.015180
	H401	H	-0.135644	0.970714	1.018527
	O402	O	0.529815	0.633217	0.381569
	H403	H	0.540508	0.640461	0.383652
	H404	H	0.527481	0.640099	0.381100
	O405	O	1.007400	0.974441	0.065875
	H406	H	1.001069	0.983505	0.077083
	H407	H	1.002075	0.985443	0.062036
	O408	O	0.864449	0.808540	0.118238
	H409	H	0.862323	0.806454	0.117520
	H410	H	0.872446	0.808408	0.116468
	O411	O	1.108398	0.161894	1.134249
	H412	H	1.119844	0.171564	1.126900
	H413	H	1.108638	0.155603	1.130767
	O414	O	0.570895	0.405056	0.444530
	H415	H	0.573458	0.397938	0.453180
	H416	H	0.573106	0.397668	0.432294
	O417	O	0.555575	0.450774	0.599824
	H418	H	0.543765	0.458327	0.587216
	H419	H	0.558819	0.446324	0.602400
