data_Molecule from HDF5

_cell_length_a		16.769062
_cell_length_b		16.608493
_cell_length_c		16.543236
_cell_angle_alpha	89.994226
_cell_angle_beta	89.967947
_cell_angle_gamma	90.141535
_symmetry_space_group_name_H-M	'P 1'
_symmetry_Int_Tables_number		1

loop_
	_symmetry_equiv_pos_as_xyz
	x,y,z

loop_
	_atom_site_label
	_atom_site_type_symbol
	_atom_site_fract_x
	_atom_site_fract_y
	_atom_site_fract_z
	H0	H	0.409836	0.833901	0.731219
	H1	H	0.622096	0.144492	0.724476
	H2	H	0.625205	0.830713	0.285314
	H3	H	0.417048	0.142140	0.285031
	H4	H	0.740542	0.378868	0.848772
	H5	H	0.744449	0.595215	0.157672
	H6	H	0.296134	0.592763	0.850143
	H7	H	0.301146	0.383431	0.163795
	H8	H	0.864642	0.707863	0.400098
	H9	H	0.174213	0.707045	0.608173
	H10	H	0.865725	0.263102	0.610826
	H11	H	0.171202	0.261072	0.395666
	H12	H	0.866259	0.379346	0.727440
	H13	H	0.175295	0.588750	0.723243
	H14	H	0.864428	0.590101	0.284715
	H15	H	0.173549	0.381279	0.282632
	H16	H	0.412313	0.707721	0.849931
	H17	H	0.627470	0.709857	0.158404
	H18	H	0.622437	0.266269	0.848111
	H19	H	0.421022	0.271753	0.165218
	H20	H	0.741597	0.832087	0.399430
	H21	H	0.741491	0.142398	0.612673
	H22	H	0.291341	0.835271	0.617990
	H23	H	0.296879	0.139307	0.395817
	H24	H	0.915637	0.329892	0.225192
	H25	H	0.122640	0.642168	0.224885
	H26	H	0.124527	0.329469	0.783638
	H27	H	0.914944	0.640291	0.783009
	H28	H	0.242999	0.878724	0.351146
	H29	H	0.249148	0.102069	0.654576
	H30	H	0.797394	0.092288	0.350886
	H31	H	0.799057	0.881404	0.662547
	H32	H	0.364467	0.206413	0.902698
	H33	H	0.675207	0.207280	0.109404
	H34	H	0.368878	0.759339	0.116251
	H35	H	0.668182	0.757259	0.891284
	H36	H	0.368196	0.878231	0.230516
	H37	H	0.675873	0.089698	0.225310
	H38	H	0.365701	0.092009	0.783677
	H39	H	0.670278	0.877320	0.779209
	H40	H	0.915433	0.206195	0.349486
	H41	H	0.130290	0.212512	0.657668
	H42	H	0.125571	0.764387	0.350933
	H43	H	0.914923	0.766287	0.662211
	H44	H	0.239765	0.329772	0.899868
	H45	H	0.242018	0.640667	0.112085
	H46	H	0.798781	0.329890	0.109738
	H47	H	0.795770	0.638621	0.895201
	H48	H	0.432019	0.096963	0.587820
	H49	H	0.606381	0.877159	0.590183
	H50	H	0.613267	0.098694	0.420082
	H51	H	0.432622	0.874864	0.416115
	H52	H	0.617079	0.393103	0.120761
	H53	H	0.603718	0.573651	0.893247
	H54	H	0.429640	0.569558	0.116178
	H55	H	0.426688	0.393367	0.891759
	H56	H	0.131241	0.582147	0.416680
	H57	H	0.907933	0.580159	0.593719
	H58	H	0.127836	0.402133	0.591513
	H59	H	0.909668	0.394966	0.417526
	H60	H	0.131771	0.397234	0.595735
	H61	H	0.910234	0.574075	0.592000
	H62	H	0.127007	0.573883	0.419240
	H63	H	0.909263	0.397902	0.415959
	H64	H	0.434606	0.573344	0.115215
	H65	H	0.609737	0.570254	0.893948
	H66	H	0.611516	0.406001	0.114881
	H67	H	0.426547	0.397778	0.893072
	H68	H	0.611735	0.100735	0.413062
	H69	H	0.612369	0.875183	0.593074
	H70	H	0.432020	0.097386	0.593060
	H71	H	0.433023	0.875943	0.420200
	H72	H	0.932513	0.595512	0.090074
	H73	H	0.115388	0.371077	0.094510
	H74	H	0.109438	0.596280	0.918896
	H75	H	0.932366	0.374127	0.913439
	H76	H	0.104758	0.896883	0.617572
	H77	H	0.105958	0.068109	0.396359
	H78	H	0.935037	0.070215	0.615412
	H79	H	0.923335	0.901292	0.393995
	H80	H	0.629116	0.072181	0.915795
	H81	H	0.407869	0.082028	0.097781
	H82	H	0.629126	0.899115	0.092458
	H83	H	0.413260	0.901043	0.926165
	H84	H	0.630167	0.897481	0.092633
	H85	H	0.410177	0.076331	0.094449
	H86	H	0.632924	0.079197	0.911813
	H87	H	0.411047	0.904564	0.917010
	H88	H	0.932743	0.081377	0.620260
	H89	H	0.103548	0.074254	0.393893
	H90	H	0.110363	0.902647	0.616265
	H91	H	0.934260	0.900756	0.395212
	H92	H	0.112401	0.597403	0.915031
	H93	H	0.106333	0.373277	0.099352
	H94	H	0.927225	0.597836	0.091447
	H95	H	0.932860	0.375910	0.920866
	H96	H	0.435715	0.095299	0.589981
	H97	H	0.606655	0.875797	0.596963
	H98	H	0.606601	0.097464	0.417251
	H99	H	0.429200	0.874245	0.419095
	H100	H	0.602559	0.393689	0.116650
	H101	H	0.603098	0.567555	0.896012
	H102	H	0.429517	0.574891	0.118104
	H103	H	0.430461	0.395510	0.893269
	H104	H	0.130513	0.575234	0.410041
	H105	H	0.907683	0.575076	0.598432
	H106	H	0.129864	0.395379	0.588755
	H107	H	0.907651	0.395601	0.414551
	H108	H	0.932200	0.597189	0.095939
	H109	H	0.107508	0.376708	0.089213
	H110	H	0.106992	0.596717	0.914623
	H111	H	0.926094	0.373032	0.918065
	H112	H	0.103370	0.903990	0.614409
	H113	H	0.109964	0.072128	0.392047
	H114	H	0.923573	0.073122	0.619218
	H115	H	0.928467	0.892493	0.390758
	H116	H	0.629632	0.080112	0.920144
	H117	H	0.407562	0.075572	0.100550
	H118	H	0.629585	0.898409	0.091013
	H119	H	0.408395	0.895376	0.919686
	C120	C	0.397906	-0.004366	0.625988
	C121	C	0.640253	0.978705	0.626704
	C122	C	0.641833	-0.004289	0.385052
	C123	C	0.399302	0.977496	0.384471
	C124	C	0.641171	0.365196	0.013753
	C125	C	0.639849	0.605471	0.996034
	C126	C	0.398144	0.606056	0.013710
	C127	C	0.397907	0.365088	0.997436
	C128	C	0.027528	0.608902	0.383189
	C129	C	1.011357	0.607866	0.626092
	C130	C	0.028106	0.364771	0.625576
	C131	C	1.010800	0.364247	0.382900
	C132	C	0.898308	0.494081	0.125322
	C133	C	0.140704	0.477184	0.126449
	C134	C	0.141271	0.493841	0.884119
	C135	C	0.898278	0.476690	0.883385
	C136	C	0.139819	0.866915	0.513932
	C137	C	0.141256	0.107761	0.495263
	C138	C	0.898443	0.107324	0.514834
	C139	C	0.897543	0.865925	0.497268
	C140	C	0.528230	0.109084	0.884060
	C141	C	0.511533	0.108932	0.128195
	C142	C	0.529007	0.863964	0.126966
	C143	C	0.510278	0.865076	0.884295
	C144	C	0.392650	0.880191	0.689807
	C145	C	0.641501	0.096635	0.685947
	C146	C	0.643344	0.878054	0.325220
	C147	C	0.397643	0.094513	0.324009
	C148	C	0.700346	0.361851	0.895742
	C149	C	0.703098	0.611681	0.111567
	C150	C	0.336694	0.610309	0.896923
	C151	C	0.340487	0.364747	0.116521
	C152	C	0.911080	0.667869	0.381380
	C153	C	0.127948	0.667072	0.626783
	C154	C	0.912301	0.303533	0.628988
	C155	C	0.125774	0.302611	0.378530
	C156	C	0.912253	0.361726	0.686637
	C157	C	0.128466	0.608286	0.684024
	C158	C	0.910824	0.609167	0.324242
	C159	C	0.126739	0.362287	0.322338
	C160	C	0.394869	0.667241	0.896826
	C161	C	0.644847	0.668497	0.111946
	C162	C	0.641691	0.305589	0.895384
	C163	C	0.399821	0.308968	0.117068
	C164	C	0.701371	0.878598	0.382148
	C165	C	0.700700	0.095888	0.630006
	C166	C	0.333965	0.880857	0.633281
	C167	C	0.338035	0.093367	0.379413
	C168	C	0.897041	0.376739	0.185020
	C169	C	0.141951	0.595159	0.185459
	C170	C	0.142839	0.376449	0.824005
	C171	C	0.896323	0.593277	0.822656
	C172	C	0.201916	0.861739	0.397668
	C173	C	0.206367	0.116522	0.609363
	C174	C	0.837652	0.110617	0.397722
	C175	C	0.838799	0.863488	0.615440
	C176	C	0.411303	0.167556	0.883145
	C177	C	0.628596	0.167418	0.128435
	C178	C	0.414596	0.801028	0.132827
	C179	C	0.623254	0.800171	0.876090
	C180	C	0.414421	0.859869	0.189914
	C181	C	0.629019	0.109354	0.186229
	C182	C	0.411904	0.110765	0.824111
	C183	C	0.624131	0.859700	0.820016
	C184	C	0.896491	0.166922	0.396796
	C185	C	0.147481	0.172133	0.610648
	C186	C	0.143548	0.805010	0.397447
	C187	C	0.896259	0.806015	0.614992
	C188	C	0.200407	0.376598	0.881699
	C189	C	0.201034	0.594218	0.129325
	C190	C	0.838619	0.376781	0.128081
	C191	C	0.837267	0.592646	0.878668
	C192	C	0.425430	0.075713	0.598296
	C193	C	0.615370	0.897312	0.600875
	C194	C	0.617589	0.077793	0.410027
	C195	C	0.424362	0.896346	0.410885
	C196	C	0.616953	0.390222	0.095963
	C197	C	0.613111	0.578261	0.915272
	C198	C	0.423725	0.579894	0.095406
	C199	C	0.420979	0.388688	0.914394
	C200	C	0.108519	0.584369	0.408259
	C201	C	0.929957	0.583465	0.601865
	C202	C	0.108710	0.390811	0.599622
	C203	C	0.929873	0.389231	0.408560
	C204	C	0.923408	0.575713	0.099607
	C205	C	0.116297	0.395069	0.101614
	C206	C	0.116690	0.575465	0.908979
	C207	C	0.923491	0.395574	0.909793
	C208	C	0.113703	0.893661	0.594866
	C209	C	0.113817	0.079553	0.414996
	C210	C	0.923366	0.082177	0.596939
	C211	C	0.921660	0.891099	0.414831
	C212	C	0.609454	0.084195	0.908920
	C213	C	0.429832	0.084881	0.104549
	C214	C	0.608815	0.890698	0.099620
	C215	C	0.431371	0.892455	0.912910
	Zn216	Zn	0.518968	-0.012648	0.755069
	Zn217	Zn	0.521141	-0.013760	0.256169
	Zn218	Zn	0.769274	0.485658	0.004309
	Zn219	Zn	0.269539	0.485213	0.005402
	Zn220	Zn	0.018622	0.737974	0.505067
	Zn221	Zn	0.019818	0.235263	0.504551
	Zn222	Zn	0.020177	0.485526	0.755584
	Zn223	Zn	0.019055	0.486510	0.254689
	Zn224	Zn	0.519181	0.734811	0.004889
	Zn225	Zn	0.519536	0.237540	0.005789
	Zn226	Zn	0.769741	-0.013267	0.506796
	Zn227	Zn	0.269495	-0.012950	0.505077
	N228	N	0.431786	0.952722	0.685441
	N229	N	0.604660	0.022782	0.684049
	N230	N	0.606751	0.951914	0.326930
	N231	N	0.434885	0.021169	0.326690
	N232	N	0.700403	0.397977	0.970295
	N233	N	0.700085	0.572984	0.038348
	N234	N	0.338280	0.573142	0.971017
	N235	N	0.338693	0.398384	0.040714
	N236	N	0.984622	0.667855	0.417386
	N237	N	0.054019	0.667075	0.591708
	N238	N	0.985422	0.305206	0.591721
	N239	N	0.052529	0.303743	0.415533
	N240	N	0.985425	0.399010	0.684710
	N241	N	0.054730	0.572373	0.684258
	N242	N	0.984422	0.573340	0.324938
	N243	N	0.054103	0.399924	0.324963
	N244	N	0.431916	0.665181	0.970771
	N245	N	0.605994	0.664697	0.039087
	N246	N	0.605421	0.307422	0.969871
	N247	N	0.434539	0.308658	0.041908
	N248	N	0.700806	0.952935	0.418562
	N249	N	0.700354	0.021398	0.593947
	N250	N	0.336951	0.953701	0.594269
	N251	N	0.338727	0.019438	0.416403
	N252	N	0.933514	0.450721	0.183467
	N253	N	0.105317	0.521220	0.184058
	N254	N	0.106871	0.450534	0.825080
	N255	N	0.933647	0.520046	0.825415
	N256	N	0.199931	0.899524	0.471265
	N257	N	0.202782	0.077089	0.536511
	N258	N	0.838327	0.074586	0.472306
	N259	N	0.839233	0.900014	0.540930
	N260	N	0.484859	0.166912	0.919512
	N261	N	0.554454	0.167542	0.093386
	N262	N	0.487009	0.803325	0.094349
	N263	N	0.551451	0.803284	0.915529
	N264	N	0.486753	0.898470	0.186381
	N265	N	0.555063	0.073728	0.186466
	N266	N	0.485563	0.075024	0.824720
	N267	N	0.552781	0.899509	0.824816
	N268	N	0.933478	0.165135	0.470773
	N269	N	0.107470	0.166855	0.538546
	N270	N	0.105415	0.808042	0.470748
	N271	N	0.932140	0.807448	0.540375
	N272	N	0.199714	0.450765	0.918254
	N273	N	0.200648	0.519744	0.093544
	N274	N	0.839030	0.451111	0.091845
	N275	N	0.838188	0.519012	0.915836
	O276	O	0.181406	0.963909	-0.078010
	H277	H	0.165724	0.976644	-0.082538
	H278	H	0.180057	0.971114	-0.062902
	O279	O	-0.019895	0.769728	0.229471
	H280	H	-0.014260	0.774129	0.224919
	H281	H	-0.024175	0.752504	0.245915
	O282	O	0.972471	0.208373	1.073099
	H283	H	0.992201	0.214966	1.108405
	H284	H	0.970458	0.209953	1.066927
	O285	O	0.602210	0.508817	0.703129
	H286	H	0.612288	0.515473	0.703791
	H287	H	0.611636	0.518132	0.726285
	O288	O	0.437477	0.475253	0.476272
	H289	H	0.438005	0.483671	0.465138
	H290	H	0.441478	0.480727	0.471898
	O291	O	0.500437	0.387982	0.639329
	H292	H	0.506909	0.394763	0.631491
	H293	H	0.488605	0.387491	0.654945
	O294	O	1.214835	-0.188677	1.179564
	H295	H	1.246070	-0.210213	1.206082
	H296	H	1.204128	-0.178733	1.164111
	O297	O	0.045725	1.206680	0.224253
	H298	H	0.075491	1.210408	0.231538
	H299	H	0.068252	1.216906	0.242855
	O300	O	0.219815	0.180781	0.805577
	H301	H	0.226380	0.177380	0.809133
	H302	H	0.200171	0.154557	0.800435
	O303	O	0.739536	0.450494	0.285540
	H304	H	0.752356	0.437800	0.267666
	H305	H	0.729756	0.449493	0.276895
	O306	O	0.693859	0.520570	0.559710
	H307	H	0.703939	0.530812	0.555292
	H308	H	0.698846	0.526813	0.560568
	O309	O	0.080087	0.051034	-0.231868
	H310	H	0.089244	0.034404	-0.237824
	H311	H	0.058717	0.039910	-0.227555
	O312	O	0.534267	0.407440	0.605620
	H313	H	0.527865	0.414929	0.609342
	H314	H	0.534006	0.422074	0.607709
	O315	O	1.063289	1.007248	1.192213
	H316	H	1.074534	0.998452	1.192104
	H317	H	1.066492	1.011136	1.182064
	O318	O	0.538068	0.721298	0.493401
	H319	H	0.529654	0.718865	0.512077
	H320	H	0.556834	0.720427	0.501441
	O321	O	-0.205237	0.768765	1.077077
	H322	H	-0.227911	0.758642	1.099351
	H323	H	-0.225213	0.787843	1.067368
	O324	O	0.832392	1.166535	0.174158
	H325	H	0.826099	1.183388	0.174968
	H326	H	0.830880	1.157861	0.182201
	O327	O	-0.053982	0.004243	1.220706
	H328	H	-0.044967	0.014541	1.213210
	H329	H	-0.038152	0.005507	1.222341
	O330	O	0.312381	0.696473	0.301732
	H331	H	0.325942	0.672524	0.310730
	H332	H	0.316719	0.693773	0.332538
	O333	O	0.242044	0.770546	0.977747
	H334	H	0.213824	0.760513	0.995372
	H335	H	0.256945	0.748095	0.983255
	O336	O	0.472034	0.314648	0.658722
	H337	H	0.464118	0.294638	0.669743
	H338	H	0.477002	0.318411	0.674567
	O339	O	0.825016	0.038717	0.798187
	H340	H	0.835108	0.075967	0.814892
	H341	H	0.793303	0.038572	0.767141
	O342	O	-0.036885	-0.109986	-0.103831
	H343	H	-0.032837	-0.094126	-0.094270
	H344	H	-0.015929	-0.113066	-0.112851
	O345	O	-0.088273	0.755736	0.971430
	H346	H	-0.102744	0.751393	0.982785
	H347	H	-0.093267	0.755909	0.975611
	O348	O	-0.021447	-0.078377	0.086704
	H349	H	-0.026635	-0.067943	0.088002
	H350	H	-0.030447	-0.085566	0.082215
	O351	O	0.227400	0.196813	0.215635
	H352	H	0.235900	0.150657	0.213527
	H353	H	0.261279	0.225687	0.250135
	O354	O	0.240421	-0.042671	1.082778
	H355	H	0.235963	-0.047206	1.073442
	H356	H	0.238264	-0.038089	1.065366
	O357	O	0.327070	0.294238	0.319612
	H358	H	0.332057	0.308631	0.350862
	H359	H	0.357283	0.307822	0.333568
	O360	O	0.577776	0.419180	0.559448
	H361	H	0.570982	0.412274	0.558243
	H362	H	0.584289	0.429657	0.558169
	O363	O	0.533878	0.636906	0.653036
	H364	H	0.543398	0.639791	0.664452
	H365	H	0.539535	0.638824	0.656427
	O366	O	0.235303	-0.027701	-0.221124
	H367	H	0.238313	-0.031225	-0.217724
	H368	H	0.249858	-0.037794	-0.226863
	O369	O	0.448811	0.496904	0.505797
	H370	H	0.442112	0.499954	0.495493
	H371	H	0.453992	0.494340	0.508974
	O372	O	1.238370	1.020823	0.223370
	H373	H	1.243290	1.011779	0.227460
	H374	H	1.251087	1.009244	0.222654
	O375	O	1.113758	0.160541	-0.047801
	H376	H	1.111617	0.151726	-0.027230
	H377	H	1.114649	0.164998	-0.044127
	O378	O	0.068010	0.858781	1.182062
	H379	H	0.090141	0.856380	1.184500
	H380	H	0.069366	0.857551	1.176801
	O381	O	0.028820	0.947276	1.032084
	H382	H	0.029598	0.947337	1.028511
	H383	H	0.011906	0.965105	1.045981
	O384	O	0.236013	-0.225347	-0.203572
	H385	H	0.228794	-0.225124	-0.162989
	H386	H	0.219264	-0.193713	-0.200720
	O387	O	1.501978	1.317799	0.486287
	H388	H	1.504677	1.317481	0.478336
	H389	H	1.516612	1.322187	0.502633
	O390	O	0.297056	0.519712	0.288012
	H391	H	0.286947	0.508749	0.280934
	H392	H	0.294225	0.528545	0.276416
	O393	O	0.556589	0.264764	0.285532
	H394	H	0.564915	0.249286	0.270246
	H395	H	0.571171	0.259459	0.284921
	O396	O	-0.584224	0.712074	0.520496
	H397	H	-0.574703	0.706508	0.527358
	H398	H	-0.585109	0.715991	0.547034
	O399	O	0.168969	0.039217	0.930572
	H400	H	0.171489	0.049566	0.943170
	H401	H	0.171619	0.038536	0.913700
	O402	O	0.438980	0.331694	0.472101
	H403	H	0.451467	0.325211	0.479329
	H404	H	0.435543	0.331308	0.484228
	O405	O	1.057002	-0.237445	0.781052
	H406	H	1.064176	-0.227417	0.797886
	H407	H	1.061362	-0.272067	0.751625
	O408	O	-0.219887	-0.047023	-0.032613
	H409	H	-0.224941	-0.025650	-0.044883
	H410	H	-0.212573	-0.027149	-0.028508
	O411	O	0.289901	0.542726	0.550731
	H412	H	0.295078	0.558172	0.545592
	H413	H	0.288603	0.553722	0.547820
	O414	O	0.766305	0.745137	0.247943
	H415	H	0.751486	0.740855	0.252806
	H416	H	0.791052	0.746190	0.251979
	O417	O	0.381259	0.627366	0.470691
	H418	H	0.390821	0.628087	0.486945
	H419	H	0.366906	0.648942	0.475917
	O420	O	0.723887	0.691337	0.709487
	H421	H	0.743946	0.720654	0.733800
	H422	H	0.727034	0.686998	0.683594
	O423	O	-0.199370	-0.044978	1.217558
	H424	H	-0.192835	-0.050151	1.230014
	H425	H	-0.196152	-0.036983	1.237576
	O426	O	0.737188	0.703038	0.538282
	H427	H	0.743163	0.706056	0.532848
	H428	H	0.737864	0.709528	0.544429
	O429	O	1.337233	0.670548	0.682067
	H430	H	1.336153	0.668499	0.692038
	H431	H	1.328225	0.676921	0.701174
	O432	O	0.666526	0.326875	0.612620
	H433	H	0.662240	0.338578	0.597477
	H434	H	0.666177	0.325330	0.628920
	O435	O	-0.037632	0.952953	-0.207981
	H436	H	-0.058091	0.953114	-0.212162
	H437	H	-0.046584	0.952111	-0.183836
	O438	O	-0.200946	0.202993	-0.029022
	H439	H	-0.206763	0.205932	-0.015803
	H440	H	-0.196691	0.219987	-0.033716
	O441	O	0.249881	0.214860	0.042628
	H442	H	0.273887	0.245937	0.040069
	H443	H	0.245138	0.214647	0.083805
	O444	O	0.524751	0.701773	0.348039
	H445	H	0.525906	0.695274	0.347791
	H446	H	0.523858	0.717672	0.340312
	O447	O	-0.250768	0.484085	0.660897
	H448	H	-0.241893	0.497942	0.664616
	H449	H	-0.247952	0.483918	0.670666
	O450	O	0.322353	1.289839	0.706008
	H451	H	0.332159	1.287428	0.693680
	H452	H	0.311665	1.298648	0.716537
	O453	O	0.681182	0.640223	0.380056
	H454	H	0.680474	0.630711	0.384957
	H455	H	0.676085	0.646432	0.374310
	O456	O	0.972129	1.047732	0.956566
	H457	H	0.979484	1.047368	0.964542
	H458	H	0.972520	1.058574	0.954852
	O459	O	0.453606	0.548880	0.288774
	H460	H	0.439897	0.549068	0.303768
	H461	H	0.464241	0.557065	0.273686
	O462	O	0.300086	0.453862	0.723501
	H463	H	0.296806	0.446670	0.720828
	H464	H	0.281050	0.455578	0.736619
	O465	O	0.986935	0.202407	-0.216159
	H466	H	0.991038	0.227332	-0.236295
	H467	H	0.989215	0.185875	-0.212190
	O468	O	0.725281	0.513394	0.526876
	H469	H	0.717313	0.517916	0.524326
	H470	H	0.726565	0.525573	0.520588
	O471	O	0.466204	0.353990	0.363119
	H472	H	0.456957	0.352170	0.370131
	H473	H	0.474293	0.350759	0.372218
	O474	O	0.293232	0.345329	0.480913
	H475	H	0.295920	0.363846	0.492422
	H476	H	0.279792	0.320418	0.495163
	O477	O	0.044058	1.020832	2.019055
	H478	H	0.057937	1.036031	2.013304
	H479	H	0.033275	1.031307	2.028683
	O480	O	0.737801	0.272196	0.466374
	H481	H	0.757638	0.252948	0.477578
	H482	H	0.715229	0.272401	0.492501
	O483	O	0.538458	0.464828	0.731330
	H484	H	0.551605	0.468951	0.729831
	H485	H	0.533731	0.482400	0.730962
	O486	O	0.815158	0.188202	0.806186
	H487	H	0.806693	0.196542	0.833847
	H488	H	0.852997	0.181928	0.796060
	O489	O	0.742535	1.266130	0.286984
	H490	H	0.747862	1.283325	0.288896
	H491	H	0.734522	1.258089	0.318761
	O492	O	-0.214394	0.009514	0.029640
	H493	H	-0.207686	0.014804	0.049368
	H494	H	-0.213550	0.018086	0.048788
	O495	O	-0.184038	0.831728	0.807271
	H496	H	-0.170873	0.836211	0.832700
	H497	H	-0.178417	0.850065	0.820380
	O498	O	1.093806	0.773567	1.013914
	H499	H	1.072733	0.763660	1.013939
	H500	H	1.085817	0.793039	1.021082
	O501	O	0.580130	0.539334	0.273023
	H502	H	0.578887	0.546259	0.268209
	H503	H	0.569130	0.539980	0.278336
