data_Molecule from HDF5

_cell_length_a		16.378416
_cell_length_b		16.121082
_cell_length_c		16.322152
_cell_angle_alpha	89.928015
_cell_angle_beta	89.880182
_cell_angle_gamma	89.872871
_symmetry_space_group_name_H-M	'P 1'
_symmetry_Int_Tables_number		1

loop_
	_symmetry_equiv_pos_as_xyz
	x,y,z

loop_
	_atom_site_label
	_atom_site_type_symbol
	_atom_site_fract_x
	_atom_site_fract_y
	_atom_site_fract_z
	H0	H	0.408206	0.839279	0.717683
	H1	H	0.602795	0.170250	0.718801
	H2	H	0.604494	0.839487	0.293255
	H3	H	0.408081	0.169882	0.291908
	H4	H	0.723400	0.402879	0.843309
	H5	H	0.721437	0.605407	0.167639
	H6	H	0.288840	0.605521	0.842647
	H7	H	0.289354	0.403819	0.168334
	H8	H	0.841485	0.719211	0.410732
	H9	H	0.168753	0.718275	0.601534
	H10	H	0.841369	0.292113	0.603572
	H11	H	0.168906	0.291068	0.408896
	H12	H	0.842643	0.406916	0.722154
	H13	H	0.167683	0.604620	0.721338
	H14	H	0.842318	0.606756	0.290317
	H15	H	0.167136	0.404491	0.289873
	H16	H	0.409124	0.718405	0.841566
	H17	H	0.602190	0.718250	0.169338
	H18	H	0.601370	0.292736	0.840720
	H19	H	0.409264	0.291396	0.169810
	H20	H	0.721341	0.841133	0.406270
	H21	H	0.718100	0.170092	0.604159
	H22	H	0.290121	0.841122	0.605672
	H23	H	0.290781	0.170142	0.405229
	H24	H	0.907719	0.339907	0.220066
	H25	H	0.101562	0.670380	0.218786
	H26	H	0.103527	0.339556	0.792183
	H27	H	0.907072	0.670652	0.792850
	H28	H	0.222286	0.904858	0.343006
	H29	H	0.222142	0.106098	0.668199
	H30	H	0.789623	0.106721	0.342651
	H31	H	0.789133	0.906240	0.668750
	H32	H	0.341544	0.218897	0.908787
	H33	H	0.670139	0.216835	0.100741
	H34	H	0.342799	0.791246	0.103649
	H35	H	0.669613	0.792319	0.910129
	H36	H	0.343968	0.903937	0.223277
	H37	H	0.668232	0.103964	0.221011
	H38	H	0.342425	0.105089	0.788934
	H39	H	0.667288	0.903975	0.788908
	H40	H	0.909726	0.218870	0.341883
	H41	H	0.101468	0.217484	0.670558
	H42	H	0.102308	0.792044	0.341791
	H43	H	0.909616	0.794083	0.670379
	H44	H	0.218797	0.339454	0.907972
	H45	H	0.218930	0.669508	0.105454
	H46	H	0.791624	0.339457	0.104922
	H47	H	0.789884	0.669316	0.906381
	H48	H	0.421491	0.121925	0.604354
	H49	H	0.593222	0.887474	0.599806
	H50	H	0.591807	0.117258	0.425105
	H51	H	0.413654	0.889867	0.421066
	H52	H	0.593980	0.417106	0.118501
	H53	H	0.594896	0.596387	0.890055
	H54	H	0.404221	0.605062	0.125738
	H55	H	0.408697	0.418886	0.890566
	H56	H	0.116528	0.595473	0.422295
	H57	H	0.893739	0.583914	0.602745
	H58	H	0.120762	0.421965	0.608527
	H59	H	0.892115	0.416408	0.417940
	H60	H	0.125603	0.400019	0.603567
	H61	H	0.883503	0.606443	0.612434
	H62	H	0.120415	0.589217	0.402298
	H63	H	0.888377	0.415833	0.406577
	H64	H	0.406863	0.587642	0.120028
	H65	H	0.600582	0.599823	0.888083
	H66	H	0.597504	0.404700	0.124093
	H67	H	0.417987	0.410623	0.890881
	H68	H	0.611107	0.126966	0.413053
	H69	H	0.599210	0.889010	0.592319
	H70	H	0.415954	0.119450	0.586312
	H71	H	0.406897	0.884885	0.412468
	H72	H	0.920384	0.623971	0.110120
	H73	H	0.098100	0.388276	0.095147
	H74	H	0.099472	0.624053	0.910448
	H75	H	0.911498	0.387201	0.917336
	H76	H	0.094951	0.909371	0.621434
	H77	H	0.103013	0.105708	0.386460
	H78	H	0.917947	0.097354	0.619567
	H79	H	0.911726	0.915455	0.390481
	H80	H	0.624634	0.100188	0.901843
	H81	H	0.388068	0.104022	0.103115
	H82	H	0.623191	0.912462	0.105366
	H83	H	0.392793	0.915546	0.919076
	H84	H	0.623060	0.905615	0.098605
	H85	H	0.392400	0.097628	0.092222
	H86	H	0.620446	0.103682	0.918227
	H87	H	0.388140	0.917602	0.902510
	H88	H	0.907859	0.105062	0.625181
	H89	H	0.104762	0.088953	0.390537
	H90	H	0.104307	0.911278	0.623797
	H91	H	0.912847	0.912413	0.389919
	H92	H	0.094365	0.620989	0.914019
	H93	H	0.100038	0.385272	0.099439
	H94	H	0.917030	0.617105	0.086080
	H95	H	0.912616	0.386327	0.910417
	H96	H	0.403388	0.125866	0.599525
	H97	H	0.602868	0.885471	0.600331
	H98	H	0.589865	0.124471	0.401982
	H99	H	0.418185	0.888470	0.410685
	H100	H	0.606683	0.414639	0.122258
	H101	H	0.601209	0.593458	0.889317
	H102	H	0.420947	0.599247	0.119433
	H103	H	0.407009	0.407387	0.886631
	H104	H	0.125364	0.608979	0.407814
	H105	H	0.890844	0.605116	0.587350
	H106	H	0.116500	0.414110	0.587922
	H107	H	0.888067	0.406520	0.413251
	H108	H	0.898452	0.627217	0.099353
	H109	H	0.095492	0.388279	0.099487
	H110	H	0.100083	0.621796	0.917118
	H111	H	0.917260	0.388794	0.914810
	H112	H	0.098640	0.918580	0.619659
	H113	H	0.090048	0.096913	0.393168
	H114	H	0.905010	0.091186	0.621858
	H115	H	0.910153	0.913540	0.388835
	H116	H	0.617508	0.087753	0.912187
	H117	H	0.391278	0.090581	0.103220
	H118	H	0.619683	0.914977	0.096424
	H119	H	0.386680	0.902125	0.910967
	C120	C	0.384444	0.013373	0.626084
	C121	C	0.626653	0.996528	0.626568
	C122	C	0.626562	0.013751	0.384811
	C123	C	0.384238	0.996703	0.384821
	C124	C	0.627852	0.382951	0.013798
	C125	C	0.626725	0.625658	0.997149
	C126	C	0.382622	0.626642	0.013824
	C127	C	0.383452	0.383099	0.997284
	C128	C	0.012956	0.627179	0.383715
	C129	C	0.997060	0.627389	0.628612
	C130	C	0.013524	0.383520	0.628305
	C131	C	0.996805	0.383512	0.384406
	C132	C	0.883642	0.513422	0.127251
	C133	C	0.126296	0.496390	0.127123
	C134	C	0.126513	0.513167	0.884825
	C135	C	0.884980	0.496750	0.885708
	C136	C	0.127281	0.884334	0.513740
	C137	C	0.127430	0.126738	0.497941
	C138	C	0.882777	0.127048	0.514097
	C139	C	0.883061	0.884659	0.497723
	C140	C	0.513276	0.126626	0.882556
	C141	C	0.498008	0.126201	0.127322
	C142	C	0.514282	0.882762	0.128360
	C143	C	0.497021	0.883334	0.883353
	C144	C	0.387241	0.889101	0.680903
	C145	C	0.623419	0.120791	0.681456
	C146	C	0.624540	0.889062	0.330483
	C147	C	0.387375	0.120765	0.329652
	C148	C	0.684227	0.383751	0.891331
	C149	C	0.682743	0.624759	0.119318
	C150	C	0.327267	0.625344	0.891393
	C151	C	0.328078	0.384160	0.119956
	C152	C	0.890354	0.682218	0.388342
	C153	C	0.120005	0.681141	0.623586
	C154	C	0.890251	0.329337	0.624956
	C155	C	0.119943	0.328569	0.387841
	C156	C	0.890788	0.386358	0.683537
	C157	C	0.119189	0.625131	0.683520
	C158	C	0.890772	0.626014	0.328806
	C159	C	0.119087	0.384707	0.328380
	C160	C	0.386706	0.681549	0.890600
	C161	C	0.623038	0.680475	0.120341
	C162	C	0.623867	0.328756	0.890150
	C163	C	0.387742	0.328374	0.120519
	C164	C	0.682551	0.889913	0.386515
	C165	C	0.680735	0.120899	0.624339
	C166	C	0.328539	0.890031	0.625291
	C167	C	0.328915	0.120805	0.385951
	C168	C	0.886863	0.389030	0.182342
	C169	C	0.122721	0.620864	0.181663
	C170	C	0.124316	0.389099	0.829534
	C171	C	0.886877	0.621275	0.830543
	C172	C	0.183272	0.885543	0.391218
	C173	C	0.183339	0.125652	0.619937
	C174	C	0.827680	0.126139	0.391498
	C175	C	0.827554	0.886204	0.620469
	C176	C	0.390417	0.181719	0.886727
	C177	C	0.620892	0.180448	0.123056
	C178	C	0.391381	0.828968	0.124542
	C179	C	0.620294	0.828701	0.887857
	C180	C	0.392252	0.884596	0.184418
	C181	C	0.620190	0.123959	0.182376
	C182	C	0.390871	0.125008	0.827360
	C183	C	0.619358	0.884306	0.827869
	C184	C	0.887649	0.181609	0.390865
	C185	C	0.123297	0.180892	0.621114
	C186	C	0.123604	0.829679	0.390558
	C187	C	0.887610	0.830695	0.621279
	C188	C	0.181440	0.388916	0.887008
	C189	C	0.180765	0.620377	0.124958
	C190	C	0.829163	0.389003	0.125173
	C191	C	0.828730	0.620600	0.886976
	C192	C	0.406845	0.100084	0.603222
	C193	C	0.604944	0.909874	0.604110
	C194	C	0.604149	0.100350	0.406719
	C195	C	0.406496	0.910095	0.408032
	C196	C	0.605878	0.405501	0.099387
	C197	C	0.605201	0.603166	0.911164
	C198	C	0.404280	0.603996	0.099626
	C199	C	0.404811	0.405818	0.911463
	C200	C	0.098584	0.604463	0.404637
	C201	C	0.911314	0.605180	0.607188
	C202	C	0.098750	0.405499	0.606414
	C203	C	0.911798	0.406068	0.406160
	C204	C	0.905527	0.600245	0.105024
	C205	C	0.104384	0.409617	0.104628
	C206	C	0.104372	0.599816	0.907337
	C207	C	0.907284	0.410091	0.907759
	C208	C	0.105701	0.906631	0.599432
	C209	C	0.105647	0.104074	0.412206
	C210	C	0.903967	0.104403	0.599992
	C211	C	0.904911	0.906984	0.412040
	C212	C	0.598607	0.104003	0.904223
	C213	C	0.412606	0.103873	0.106021
	C214	C	0.599938	0.904688	0.106675
	C215	C	0.411395	0.905166	0.904885
	Zn216	Zn	0.505406	0.004567	0.753582
	Zn217	Zn	0.506049	0.004370	0.257174
	Zn218	Zn	0.756034	0.504520	0.005752
	Zn219	Zn	0.254443	0.504323	0.005883
	Zn220	Zn	0.005225	0.755907	0.505840
	Zn221	Zn	0.005451	0.254669	0.506241
	Zn222	Zn	0.005419	0.505386	0.757166
	Zn223	Zn	0.004787	0.505303	0.254859
	Zn224	Zn	0.505365	0.754556	0.005665
	Zn225	Zn	0.505877	0.255108	0.005331
	Zn226	Zn	0.753943	0.005841	0.505531
	Zn227	Zn	0.256352	0.005863	0.505742
	N228	N	0.421381	0.967030	0.681279
	N229	N	0.590531	0.042445	0.682778
	N230	N	0.590424	0.967092	0.329253
	N231	N	0.420910	0.042470	0.328724
	N232	N	0.686728	0.416663	0.969215
	N233	N	0.684854	0.591295	0.041862
	N234	N	0.324577	0.592032	0.969143
	N235	N	0.325590	0.417639	0.042547
	N236	N	0.967390	0.682866	0.421745
	N237	N	0.042904	0.682625	0.590166
	N238	N	0.967446	0.327326	0.591245
	N239	N	0.043110	0.327608	0.421926
	N240	N	0.968228	0.419158	0.685931
	N241	N	0.041664	0.592543	0.686534
	N242	N	0.968176	0.592492	0.325852
	N243	N	0.041898	0.418262	0.325964
	N244	N	0.420495	0.682356	0.967614
	N245	N	0.589161	0.681297	0.043227
	N246	N	0.589413	0.328241	0.967059
	N247	N	0.421490	0.327565	0.043138
	N248	N	0.683733	0.968187	0.419868
	N249	N	0.682902	0.042453	0.591073
	N250	N	0.326893	0.968262	0.591632
	N251	N	0.327020	0.042539	0.419617
	N252	N	0.919942	0.467475	0.183768
	N253	N	0.089507	0.542455	0.183186
	N254	N	0.090650	0.467402	0.828325
	N255	N	0.921167	0.543292	0.829624
	N256	N	0.185745	0.918777	0.468956
	N257	N	0.185955	0.092791	0.542197
	N258	N	0.824697	0.093005	0.469291
	N259	N	0.824842	0.919173	0.542804
	N260	N	0.467335	0.183000	0.920424
	N261	N	0.544013	0.181712	0.089207
	N262	N	0.468315	0.827370	0.090741
	N263	N	0.543213	0.828099	0.922041
	N264	N	0.469701	0.917440	0.186623
	N265	N	0.542769	0.091227	0.185249
	N266	N	0.468322	0.091571	0.824750
	N267	N	0.542125	0.917436	0.824903
	N268	N	0.921224	0.182258	0.467995
	N269	N	0.089261	0.181533	0.544182
	N270	N	0.089863	0.828533	0.467670
	N271	N	0.921562	0.829765	0.543930
	N272	N	0.182931	0.467090	0.920684
	N273	N	0.183240	0.541984	0.092066
	N274	N	0.827052	0.467298	0.091737
	N275	N	0.827372	0.542245	0.920519
	O276	O	0.498321	0.512230	0.417177
	H277	H	0.488520	0.514564	0.423947
	H278	H	0.503469	0.526299	0.403983
	O279	O	0.051798	0.003558	-0.017740
	H280	H	0.044746	0.010396	-0.021796
	H281	H	0.057496	-0.002928	-0.016620
	O282	O	0.440815	0.511370	0.418762
	H283	H	0.441823	0.508828	0.427135
	H284	H	0.435829	0.513608	0.406971
	O285	O	0.436664	0.482965	0.475006
	H286	H	0.432125	0.490896	0.479642
	H287	H	0.445484	0.476387	0.472616
	O288	O	1.054382	0.007054	-0.022880
	H289	H	1.056560	-0.000368	-0.020069
	H290	H	1.051172	0.007980	-0.025669
	O291	O	-0.534289	0.503885	-0.491099
	H292	H	-0.543480	0.508692	-0.482263
	H293	H	-0.533713	0.497883	-0.494998
	O294	O	0.480433	0.476711	0.480288
	H295	H	0.478174	0.482870	0.484842
	H296	H	0.485053	0.464804	0.475959
	O297	O	0.015845	1.011843	0.001247
	H298	H	0.010755	1.020068	0.006822
	H299	H	0.021002	1.010275	-0.006233
	O300	O	1.060180	0.093037	0.972831
	H301	H	1.064064	0.094772	0.970172
	H302	H	1.060503	0.089385	0.969792
	O303	O	0.469359	0.478811	0.445131
	H304	H	0.468253	0.468462	0.455466
	H305	H	0.462738	0.476521	0.446229
	O306	O	0.048905	1.031057	0.976973
	H307	H	0.051852	1.035152	0.974448
	H308	H	0.051881	1.029492	0.985225
	O309	O	0.526813	0.493933	0.426683
	H310	H	0.529298	0.499523	0.416375
	H311	H	0.534683	0.479369	0.425871
