data_Molecule from HDF5

_cell_length_a		16.517787
_cell_length_b		16.318984
_cell_length_c		16.335855
_cell_angle_alpha	90.084408
_cell_angle_beta	89.886807
_cell_angle_gamma	90.057565
_symmetry_space_group_name_H-M	'P 1'
_symmetry_Int_Tables_number		1

loop_
	_symmetry_equiv_pos_as_xyz
	x,y,z

loop_
	_atom_site_label
	_atom_site_type_symbol
	_atom_site_fract_x
	_atom_site_fract_y
	_atom_site_fract_z
	H0	H	0.391729	0.822880	0.725014
	H1	H	0.600076	0.142881	0.723288
	H2	H	0.602660	0.822453	0.282607
	H3	H	0.396377	0.143305	0.286934
	H4	H	0.716914	0.375786	0.843337
	H5	H	0.720292	0.590781	0.161692
	H6	H	0.274340	0.588806	0.844982
	H7	H	0.271832	0.372633	0.160561
	H8	H	0.839626	0.704329	0.397587
	H9	H	0.154227	0.705355	0.613279
	H10	H	0.837887	0.262518	0.606643
	H11	H	0.154854	0.261604	0.398672
	H12	H	0.838104	0.376091	0.724179
	H13	H	0.154519	0.586847	0.727241
	H14	H	0.839860	0.589190	0.280310
	H15	H	0.153065	0.372861	0.278476
	H16	H	0.391310	0.702764	0.844511
	H17	H	0.601474	0.703989	0.163061
	H18	H	0.599583	0.262389	0.842698
	H19	H	0.390881	0.260832	0.162962
	H20	H	0.721555	0.824654	0.394725
	H21	H	0.717521	0.142933	0.608498
	H22	H	0.273494	0.823980	0.612918
	H23	H	0.275137	0.141023	0.397138
	H24	H	0.889378	0.322552	0.224609
	H25	H	0.103827	0.639801	0.227259
	H26	H	0.099434	0.319846	0.784193
	H27	H	0.894132	0.640694	0.783660
	H28	H	0.221212	0.873328	0.346150
	H29	H	0.219597	0.092276	0.662482
	H30	H	0.775126	0.091204	0.345437
	H31	H	0.773866	0.876509	0.661898
	H32	H	0.338780	0.204781	0.896325
	H33	H	0.654855	0.202736	0.105822
	H34	H	0.339324	0.757364	0.113695
	H35	H	0.653611	0.760510	0.898446
	H36	H	0.339387	0.874373	0.228992
	H37	H	0.656168	0.087244	0.222647
	H38	H	0.339457	0.090880	0.779173
	H39	H	0.654052	0.877833	0.783226
	H40	H	0.893664	0.202994	0.344509
	H41	H	0.099014	0.201759	0.664540
	H42	H	0.103365	0.759003	0.345505
	H43	H	0.892385	0.762174	0.664601
	H44	H	0.221177	0.323370	0.892939
	H45	H	0.221872	0.638224	0.114000
	H46	H	0.775396	0.322503	0.107050
	H47	H	0.773462	0.639871	0.893843
	H48	H	0.414172	0.096465	0.596343
	H49	H	0.580786	0.870575	0.592233
	H50	H	0.593493	0.099012	0.414564
	H51	H	0.407816	0.869428	0.416574
	H52	H	0.586100	0.389581	0.118250
	H53	H	0.583968	0.580252	0.887345
	H54	H	0.405526	0.561398	0.114162
	H55	H	0.406228	0.391096	0.888039
	H56	H	0.107114	0.570866	0.419453
	H57	H	0.883822	0.572286	0.594785
	H58	H	0.111484	0.388810	0.592866
	H59	H	0.881533	0.387753	0.409229
	H60	H	0.109059	0.394316	0.592588
	H61	H	0.885751	0.570947	0.591993
	H62	H	0.106582	0.563981	0.416376
	H63	H	0.885498	0.390733	0.421776
	H64	H	0.413952	0.568660	0.114260
	H65	H	0.595081	0.565586	0.888875
	H66	H	0.590853	0.395266	0.117939
	H67	H	0.405627	0.396922	0.889995
	H68	H	0.584943	0.097771	0.409209
	H69	H	0.587528	0.869816	0.585761
	H70	H	0.408322	0.093592	0.584428
	H71	H	0.410407	0.869303	0.417707
	H72	H	0.908735	0.596662	0.096001
	H73	H	0.083553	0.367825	0.091393
	H74	H	0.087786	0.594251	0.920479
	H75	H	0.900558	0.363982	0.912216
	H76	H	0.088650	0.895569	0.618957
	H77	H	0.089731	0.068668	0.390043
	H78	H	0.906277	0.071775	0.618457
	H79	H	0.910755	0.896378	0.392644
	H80	H	0.606794	0.068564	0.916003
	H81	H	0.384674	0.070001	0.092689
	H82	H	0.606872	0.895105	0.090332
	H83	H	0.385201	0.898492	0.916001
	H84	H	0.609033	0.894720	0.094846
	H85	H	0.384042	0.069484	0.097347
	H86	H	0.609955	0.070884	0.909598
	H87	H	0.380624	0.891347	0.910051
	H88	H	0.906519	0.069844	0.617307
	H89	H	0.084499	0.068122	0.392200
	H90	H	0.083903	0.898408	0.615685
	H91	H	0.910855	0.891144	0.390418
	H92	H	0.084474	0.594462	0.912988
	H93	H	0.083092	0.369502	0.088386
	H94	H	0.912309	0.592764	0.087432
	H95	H	0.910581	0.367140	0.912040
	H96	H	0.401060	0.098907	0.594886
	H97	H	0.589254	0.866639	0.594397
	H98	H	0.585633	0.094559	0.418955
	H99	H	0.408949	0.868380	0.419267
	H100	H	0.583247	0.395672	0.115379
	H101	H	0.577375	0.564361	0.895064
	H102	H	0.403994	0.572067	0.120201
	H103	H	0.410690	0.394313	0.891728
	H104	H	0.109909	0.569767	0.412376
	H105	H	0.884776	0.569407	0.594665
	H106	H	0.110805	0.392074	0.598111
	H107	H	0.885118	0.399770	0.412607
	H108	H	0.903247	0.596096	0.088157
	H109	H	0.085747	0.367661	0.088933
	H110	H	0.080894	0.591782	0.918795
	H111	H	0.904809	0.369065	0.920804
	H112	H	0.083353	0.891872	0.616682
	H113	H	0.086232	0.073278	0.389470
	H114	H	0.908013	0.071316	0.617702
	H115	H	0.906211	0.894076	0.389111
	H116	H	0.609232	0.075782	0.915909
	H117	H	0.383143	0.073538	0.094748
	H118	H	0.608633	0.890504	0.091952
	H119	H	0.383755	0.889258	0.919683
	C120	C	0.375050	-0.008781	0.625346
	C121	C	0.617613	0.974596	0.623560
	C122	C	0.620708	-0.008096	0.381063
	C123	C	0.376712	0.974093	0.384325
	C124	C	0.617905	0.360681	0.011460
	C125	C	0.618122	0.603456	0.995245
	C126	C	0.374900	0.601964	0.011859
	C127	C	0.374614	0.360297	0.994745
	C128	C	0.004878	0.602418	0.382299
	C129	C	0.988770	0.603738	0.627158
	C130	C	0.005406	0.359838	0.625803
	C131	C	0.987909	0.359485	0.381226
	C132	C	0.875222	0.490352	0.123659
	C133	C	0.117968	0.472511	0.124428
	C134	C	0.117165	0.488812	0.883486
	C135	C	0.874234	0.471962	0.881771
	C136	C	0.118542	0.860938	0.512704
	C137	C	0.118700	0.103379	0.495833
	C138	C	0.875752	0.103540	0.512385
	C139	C	0.876378	0.861437	0.495754
	C140	C	0.504081	0.104090	0.881659
	C141	C	0.488589	0.103638	0.125646
	C142	C	0.504627	0.859759	0.126428
	C143	C	0.487429	0.860777	0.882511
	C144	C	0.372950	0.871080	0.685846
	C145	C	0.619236	0.094920	0.683715
	C146	C	0.621928	0.871239	0.321388
	C147	C	0.376356	0.094771	0.325369
	C148	C	0.677105	0.358202	0.891181
	C149	C	0.679251	0.607656	0.114372
	C150	C	0.314356	0.606036	0.892751
	C151	C	0.312763	0.355561	0.113573
	C152	C	0.887035	0.664120	0.379571
	C153	C	0.106946	0.664665	0.630484
	C154	C	0.885761	0.300870	0.626526
	C155	C	0.106790	0.299847	0.379055
	C156	C	0.885834	0.357609	0.684912
	C157	C	0.107039	0.605739	0.687601
	C158	C	0.886949	0.606694	0.320864
	C159	C	0.105795	0.355704	0.319266
	C160	C	0.372838	0.662725	0.892450
	C161	C	0.620088	0.664039	0.114985
	C162	C	0.618432	0.301685	0.890922
	C163	C	0.371928	0.299831	0.114530
	C164	C	0.681315	0.872305	0.377289
	C165	C	0.677459	0.094860	0.626331
	C166	C	0.314104	0.871604	0.629778
	C167	C	0.316109	0.093670	0.380392
	C168	C	0.871953	0.370448	0.184316
	C169	C	0.121572	0.591908	0.186479
	C170	C	0.118865	0.368410	0.823006
	C171	C	0.874156	0.592555	0.822336
	C172	C	0.180150	0.856455	0.393551
	C173	C	0.178954	0.108400	0.615083
	C174	C	0.815887	0.107246	0.392722
	C175	C	0.814961	0.858588	0.615045
	C176	C	0.385877	0.164390	0.879189
	C177	C	0.607456	0.163268	0.125458
	C178	C	0.386381	0.798100	0.130655
	C179	C	0.606449	0.800970	0.880424
	C180	C	0.386772	0.856169	0.188618
	C181	C	0.608145	0.105453	0.183570
	C182	C	0.386232	0.107604	0.820347
	C183	C	0.606339	0.858974	0.822441
	C184	C	0.874841	0.163206	0.392301
	C185	C	0.118828	0.163279	0.616051
	C186	C	0.121546	0.799289	0.393278
	C187	C	0.873779	0.801653	0.616131
	C188	C	0.179086	0.369873	0.877753
	C189	C	0.180647	0.591076	0.130197
	C190	C	0.815014	0.370288	0.125923
	C191	C	0.813912	0.591981	0.877081
	C192	C	0.400578	0.074460	0.599506
	C193	C	0.592925	0.890881	0.598119
	C194	C	0.595602	0.075376	0.406634
	C195	C	0.401749	0.890707	0.410316
	C196	C	0.593754	0.386145	0.095322
	C197	C	0.592694	0.577501	0.912030
	C198	C	0.400400	0.575238	0.094852
	C199	C	0.400229	0.386573	0.911689
	C200	C	0.086702	0.575662	0.408568
	C201	C	0.906179	0.578153	0.601246
	C202	C	0.088466	0.384608	0.601622
	C203	C	0.905531	0.385247	0.406968
	C204	C	0.900854	0.573353	0.098089
	C205	C	0.091703	0.389842	0.097558
	C206	C	0.091725	0.571948	0.909964
	C207	C	0.898353	0.388473	0.907580
	C208	C	0.092850	0.887698	0.595598
	C209	C	0.093930	0.077509	0.412366
	C210	C	0.899936	0.078276	0.595941
	C211	C	0.901924	0.886669	0.412337
	C212	C	0.587040	0.078845	0.906595
	C213	C	0.405731	0.078370	0.101759
	C214	C	0.586715	0.885839	0.099951
	C215	C	0.404771	0.885757	0.907963
	Zn216	Zn	0.496696	-0.017544	0.752808
	Zn217	Zn	0.497122	-0.017761	0.255427
	Zn218	Zn	0.746213	0.482103	0.003062
	Zn219	Zn	0.246020	0.480885	0.002849
	Zn220	Zn	-0.002626	0.731582	0.504840
	Zn221	Zn	-0.002954	0.231869	0.503931
	Zn222	Zn	-0.003019	0.479956	0.755029
	Zn223	Zn	-0.003608	0.481592	0.252507
	Zn224	Zn	0.495385	0.731272	0.003970
	Zn225	Zn	0.495787	0.233021	0.003186
	Zn226	Zn	0.747708	-0.017233	0.503985
	Zn227	Zn	0.247281	-0.017308	0.504719
	N228	N	0.409935	0.946607	0.683351
	N229	N	0.582622	0.019275	0.682119
	N230	N	0.585236	0.946664	0.323285
	N231	N	0.413130	0.019215	0.327366
	N232	N	0.676778	0.394337	0.967215
	N233	N	0.678247	0.570826	0.038700
	N234	N	0.315613	0.569039	0.968217
	N235	N	0.314173	0.392248	0.037964
	N236	N	0.961567	0.661649	0.416943
	N237	N	0.032309	0.663336	0.593536
	N238	N	0.961062	0.302047	0.590463
	N239	N	0.032468	0.301850	0.416718
	N240	N	0.961153	0.393351	0.684711
	N241	N	0.032378	0.568612	0.685636
	N242	N	0.961276	0.569100	0.322347
	N243	N	0.030743	0.391858	0.320287
	N244	N	0.409652	0.660568	0.967773
	N245	N	0.582770	0.661553	0.039918
	N246	N	0.582445	0.302928	0.966888
	N247	N	0.409607	0.302650	0.039640
	N248	N	0.680808	0.948442	0.413563
	N249	N	0.676425	0.018911	0.589615
	N250	N	0.315112	0.947251	0.593150
	N251	N	0.316121	0.017490	0.416092
	N252	N	0.908564	0.446123	0.183193
	N253	N	0.083416	0.517244	0.183022
	N254	N	0.080837	0.443139	0.826664
	N255	N	0.910712	0.517158	0.824981
	N256	N	0.178469	0.893952	0.468906
	N257	N	0.178860	0.071892	0.539330
	N258	N	0.816646	0.070578	0.468229
	N259	N	0.816335	0.894770	0.539179
	N260	N	0.460343	0.162239	0.916421
	N261	N	0.532043	0.162475	0.090231
	N262	N	0.460899	0.800038	0.092810
	N263	N	0.531454	0.801796	0.916952
	N264	N	0.461188	0.893764	0.186015
	N265	N	0.533185	0.069259	0.184000
	N266	N	0.460821	0.070554	0.821883
	N267	N	0.531242	0.895457	0.823643
	N268	N	0.911833	0.160741	0.467463
	N269	N	0.082090	0.160526	0.540565
	N270	N	0.084157	0.801767	0.468351
	N271	N	0.911081	0.803119	0.540784
	N272	N	0.178093	0.445741	0.914589
	N273	N	0.178622	0.515665	0.092386
	N274	N	0.816732	0.445724	0.088883
	N275	N	0.813590	0.515891	0.913234
	O276	O	0.211319	0.961575	-0.206921
	H277	H	0.212868	0.935693	-0.211280
	H278	H	0.230112	0.968729	-0.218996
	O279	O	0.677856	0.293769	0.352047
	H280	H	0.677157	0.310535	0.357887
	H281	H	0.685887	0.286580	0.375893
	O282	O	0.593944	0.512807	0.293564
	H283	H	0.578950	0.484921	0.307530
	H284	H	0.620488	0.507700	0.284239
	O285	O	1.207729	0.771169	-0.007738
	H286	H	1.212940	0.798516	-0.018438
	H287	H	1.239267	0.748796	-0.011736
	O288	O	0.316638	0.446752	0.695616
	H289	H	0.323579	0.463792	0.700012
	H290	H	0.312520	0.467359	0.683577
	O291	O	0.683724	0.617742	0.613254
	H292	H	0.681463	0.628582	0.588477
	H293	H	0.700148	0.610777	0.633313
	O294	O	1.019158	0.851901	1.212335
	H295	H	1.020599	0.823308	1.214091
	H296	H	1.018490	0.863041	1.199901
	O297	O	0.384271	0.384016	0.325666
	H298	H	0.383698	0.395197	0.324680
	H299	H	0.407788	0.352155	0.326510
	O300	O	0.346561	0.497991	0.299522
	H301	H	0.333384	0.497701	0.273170
	H302	H	0.358018	0.479230	0.320858
	O303	O	0.311790	0.663670	0.322409
	H304	H	0.312726	0.619218	0.311226
	H305	H	0.353775	0.674431	0.308063
	O306	O	-0.091354	-0.042955	1.195980
	H307	H	-0.078547	-0.046811	1.201131
	H308	H	-0.082121	-0.034667	1.218869
	O309	O	0.984029	0.051386	-0.188754
	H310	H	0.988280	0.060071	-0.186904
	H311	H	0.992124	0.037100	-0.198257
	O312	O	-0.003328	0.909914	1.141142
	H313	H	0.013883	0.915861	1.134536
	H314	H	-0.000144	0.918604	1.112721
	O315	O	1.050030	1.140718	-0.049568
	H316	H	1.066977	1.149006	-0.053089
	H317	H	1.068206	1.130794	-0.038761
	O318	O	0.213249	-0.058343	0.042840
	H319	H	0.196544	-0.046143	0.040960
	H320	H	0.212250	-0.046989	0.060052
	O321	O	0.453942	0.325520	0.478260
	H322	H	0.463222	0.325605	0.467448
	H323	H	0.454858	0.325613	0.497915
	O324	O	0.865742	0.136242	0.944474
	H325	H	0.874577	0.143637	0.928454
	H326	H	0.866313	0.134842	0.956241
	O327	O	-0.017138	1.185283	0.040306
	H328	H	-0.002630	1.184332	0.033469
	H329	H	-0.017566	1.189429	0.012441
	O330	O	-0.154599	0.885409	0.874532
	H331	H	-0.165914	0.887858	0.892518
	H332	H	-0.161916	0.892005	0.874223
	O333	O	-0.178625	1.146465	-0.116097
	H334	H	-0.173213	1.151846	-0.124856
	H335	H	-0.179761	1.147357	-0.102021
	O336	O	0.952156	0.903028	-0.009620
	H337	H	0.963507	0.892815	-0.014990
	H338	H	0.945698	0.933610	-0.017470
	O339	O	-0.204805	1.058004	1.014725
	H340	H	-0.208808	1.034431	1.021564
	H341	H	-0.213356	1.064919	1.019236
	O342	O	0.402866	0.473639	0.510372
	H343	H	0.395093	0.484464	0.494094
	H344	H	0.392186	0.456569	0.514896
	O345	O	0.158554	0.032272	0.902820
	H346	H	0.164543	0.032088	0.888045
	H347	H	0.161401	0.016900	0.900614
	O348	O	0.571146	0.370699	0.563702
	H349	H	0.575269	0.361993	0.584216
	H350	H	0.549574	0.356958	0.546291
	O351	O	1.168633	1.185923	0.060846
	H352	H	1.189056	1.195022	0.059562
	H353	H	1.172949	1.177128	0.065723
	O354	O	1.003130	0.854830	0.991417
	H355	H	0.979142	0.861644	0.987873
	H356	H	1.003668	0.853376	1.003488
	O357	O	-0.438295	0.679819	-0.295621
	H358	H	-0.425209	0.675557	-0.295747
	H359	H	-0.438341	0.701375	-0.301024
	O360	O	0.374469	0.561925	0.653758
	H361	H	0.383891	0.586916	0.650537
	H362	H	0.377825	0.556963	0.644928
	O363	O	0.610850	-0.562306	0.689900
	H364	H	0.605087	-0.550284	0.694730
	H365	H	0.604480	-0.557234	0.697686
	O366	O	0.181797	0.160035	1.188895
	H367	H	0.160470	0.147078	1.190691
	H368	H	0.165645	0.164199	1.182042
	O369	O	1.660822	0.353975	0.460367
	H370	H	1.648467	0.334729	0.472662
	H371	H	1.671920	0.362929	0.468443
	O372	O	0.310588	0.363621	0.439266
	H373	H	0.311926	0.362211	0.438216
	H374	H	0.312561	0.359467	0.416483
	O375	O	-0.190652	-0.109363	1.016287
	H376	H	-0.188251	-0.099362	1.033099
	H377	H	-0.187685	-0.075051	1.019001
	O378	O	0.279206	0.696668	0.482418
	H379	H	0.279255	0.697097	0.445646
	H380	H	0.254861	0.721157	0.463361
	O381	O	0.204090	0.995833	0.213704
	H382	H	0.208329	1.012178	0.207777
	H383	H	0.208711	0.987967	0.236807
	O384	O	0.602115	0.692219	0.514143
	H385	H	0.583714	0.698523	0.497724
	H386	H	0.609240	0.684935	0.494045
	O387	O	0.655828	0.580585	0.447404
	H388	H	0.631687	0.578962	0.460415
	H389	H	0.664633	0.586071	0.458917
	O390	O	1.177502	0.804489	-0.174568
	H391	H	1.140041	0.805358	-0.181830
	H392	H	1.173216	0.811760	-0.153885
	O393	O	0.898659	-0.219464	1.201308
	H394	H	0.933616	-0.227069	1.199822
	H395	H	0.889614	-0.210674	1.212833
	O396	O	0.577628	0.465244	0.603682
	H397	H	0.584536	0.464056	0.617934
	H398	H	0.576265	0.454634	0.608983
	O399	O	0.281177	0.486958	0.501721
	H400	H	0.297345	0.486379	0.495978
	H401	H	0.273649	0.502865	0.501573
	O402	O	0.974606	1.120831	0.212059
	H403	H	0.986766	1.140609	0.224548
	H404	H	0.975017	1.131923	0.187367
	O405	O	0.550071	0.592252	0.562432
	H406	H	0.549586	0.601080	0.571728
	H407	H	0.554997	0.595196	0.575152
	O408	O	0.534920	0.303865	0.652374
	H409	H	0.534481	0.303503	0.676490
	H410	H	0.497702	0.314265	0.655837
	O411	O	0.994313	0.786812	0.847231
	H412	H	0.986687	0.777317	0.854140
	H413	H	0.968083	0.786489	0.845558
	O414	O	0.476434	0.688221	0.302005
	H415	H	0.494142	0.681963	0.310420
	H416	H	0.487543	0.700198	0.275484
	O417	O	0.693597	1.396185	0.357403
	H418	H	0.685977	1.410969	0.368135
	H419	H	0.709169	1.385490	0.360533
	O420	O	-0.211456	0.768421	1.018124
	H421	H	-0.225899	0.752527	1.037455
	H422	H	-0.210753	0.761139	1.051539
	O423	O	-0.193895	1.023141	0.128394
	H424	H	-0.203544	1.012403	0.148156
	H425	H	-0.175722	1.031151	0.125687
	O426	O	0.564886	0.473884	0.679822
	H427	H	0.569526	0.479429	0.684997
	H428	H	0.563198	0.491845	0.683949
	O429	O	0.518140	0.301897	0.326196
	H430	H	0.526508	0.281848	0.318091
	H431	H	0.539347	0.317561	0.332803
	O432	O	1.013366	-0.001797	1.005570
	H433	H	0.989801	-0.007820	0.996469
	H434	H	1.009426	0.003418	1.016008
	O435	O	0.318467	0.307311	0.665758
	H436	H	0.310431	0.326741	0.651751
	H437	H	0.307433	0.323690	0.649716
	O438	O	-0.024391	1.052048	0.808704
	H439	H	-0.011818	1.045646	0.803125
	H440	H	-0.030610	1.043501	0.812675
	O441	O	0.547575	0.678441	0.502261
	H442	H	0.531259	0.674427	0.500703
	H443	H	0.543724	0.697317	0.498433
