data_Molecule from HDF5

_cell_length_a		16.017426
_cell_length_b		16.236707
_cell_length_c		16.486359
_cell_angle_alpha	89.508554
_cell_angle_beta	90.102375
_cell_angle_gamma	90.440908
_symmetry_space_group_name_H-M	'P 1'
_symmetry_Int_Tables_number		1

loop_
	_symmetry_equiv_pos_as_xyz
	x,y,z

loop_
	_atom_site_label
	_atom_site_type_symbol
	_atom_site_fract_x
	_atom_site_fract_y
	_atom_site_fract_z
	H0	H	0.386936	0.842060	0.719343
	H1	H	0.598701	0.166630	0.713734
	H2	H	0.598242	0.841598	0.280799
	H3	H	0.388545	0.163736	0.277120
	H4	H	0.704695	0.410433	0.833973
	H5	H	0.711349	0.603564	0.157996
	H6	H	0.280185	0.601481	0.834496
	H7	H	0.275874	0.403587	0.159016
	H8	H	0.827713	0.717535	0.394997
	H9	H	0.158870	0.716402	0.593628
	H10	H	0.827147	0.287109	0.595716
	H11	H	0.160383	0.293576	0.402429
	H12	H	0.827499	0.398169	0.713006
	H13	H	0.156486	0.604913	0.713786
	H14	H	0.828210	0.605270	0.278188
	H15	H	0.156647	0.400063	0.279759
	H16	H	0.391098	0.725190	0.838233
	H17	H	0.597081	0.720872	0.159183
	H18	H	0.592251	0.288239	0.836206
	H19	H	0.386978	0.282495	0.157991
	H20	H	0.702020	0.836899	0.404888
	H21	H	0.709058	0.166448	0.592829
	H22	H	0.278666	0.838687	0.596752
	H23	H	0.282862	0.167229	0.400302
	H24	H	0.884881	0.341850	0.216168
	H25	H	0.099072	0.664711	0.215399
	H26	H	0.094499	0.340528	0.781296
	H27	H	0.887038	0.663154	0.774070
	H28	H	0.210018	0.905641	0.335395
	H29	H	0.209631	0.100408	0.659401
	H30	H	0.779578	0.099838	0.335639
	H31	H	0.778434	0.900245	0.659836
	H32	H	0.325198	0.214938	0.898934
	H33	H	0.658193	0.220150	0.095805
	H34	H	0.328249	0.785787	0.100520
	H35	H	0.659134	0.794783	0.903082
	H36	H	0.330137	0.896523	0.218317
	H37	H	0.657511	0.108179	0.215747
	H38	H	0.328931	0.108118	0.778235
	H39	H	0.658122	0.905638	0.785140
	H40	H	0.891596	0.221615	0.337117
	H41	H	0.095729	0.219118	0.659857
	H42	H	0.097489	0.785223	0.336217
	H43	H	0.892159	0.780961	0.657500
	H44	H	0.204122	0.339715	0.900696
	H45	H	0.205483	0.668642	0.091119
	H46	H	0.777548	0.340176	0.093713
	H47	H	0.781817	0.668278	0.897539
	H48	H	0.402756	0.120881	0.590622
	H49	H	0.575602	0.886618	0.598057
	H50	H	0.579372	0.117026	0.408228
	H51	H	0.408464	0.885542	0.398833
	H52	H	0.581071	0.420633	0.106806
	H53	H	0.586991	0.610350	0.878755
	H54	H	0.398924	0.591514	0.111582
	H55	H	0.398528	0.401759	0.879593
	H56	H	0.111544	0.589442	0.395217
	H57	H	0.875187	0.588412	0.587874
	H58	H	0.112631	0.411899	0.595412
	H59	H	0.871135	0.405109	0.401463
	H60	H	0.112257	0.408213	0.591046
	H61	H	0.874478	0.591327	0.587537
	H62	H	0.112981	0.602104	0.406561
	H63	H	0.877545	0.411125	0.413932
	H64	H	0.404554	0.596375	0.111839
	H65	H	0.592518	0.594919	0.882909
	H66	H	0.574347	0.403575	0.110801
	H67	H	0.391108	0.413119	0.882002
	H68	H	0.591840	0.121179	0.408375
	H69	H	0.585487	0.886657	0.589224
	H70	H	0.405762	0.119677	0.590762
	H71	H	0.406612	0.889476	0.414295
	H72	H	0.898145	0.621411	0.085306
	H73	H	0.084255	0.385868	0.093067
	H74	H	0.078472	0.620399	0.897014
	H75	H	0.906851	0.387193	0.901420
	H76	H	0.080438	0.909915	0.610075
	H77	H	0.087186	0.097814	0.382841
	H78	H	0.902333	0.098413	0.612547
	H79	H	0.901453	0.895571	0.378792
	H80	H	0.609443	0.096250	0.908095
	H81	H	0.375325	0.090004	0.091604
	H82	H	0.609100	0.921787	0.089750
	H83	H	0.375835	0.917674	0.909240
	H84	H	0.613657	0.912815	0.098455
	H85	H	0.374819	0.092761	0.090253
	H86	H	0.610953	0.095529	0.903323
	H87	H	0.373832	0.914765	0.904519
	H88	H	0.899150	0.094060	0.613622
	H89	H	0.084929	0.099609	0.383274
	H90	H	0.085301	0.905165	0.612032
	H91	H	0.886783	0.914713	0.379934
	H92	H	0.082830	0.618836	0.908219
	H93	H	0.078288	0.387865	0.093465
	H94	H	0.905273	0.622072	0.095752
	H95	H	0.897625	0.387659	0.912732
	H96	H	0.403813	0.120096	0.588935
	H97	H	0.588160	0.882699	0.601187
	H98	H	0.585150	0.121559	0.397188
	H99	H	0.393889	0.883033	0.407148
	H100	H	0.592471	0.407894	0.115434
	H101	H	0.576559	0.599506	0.886882
	H102	H	0.397105	0.598349	0.114585
	H103	H	0.405107	0.413018	0.885382
	H104	H	0.106269	0.587343	0.411397
	H105	H	0.876166	0.590296	0.585005
	H106	H	0.110973	0.413910	0.590020
	H107	H	0.875241	0.419577	0.401487
	H108	H	0.909861	0.617401	0.085017
	H109	H	0.081552	0.387352	0.087208
	H110	H	0.089859	0.622311	0.899004
	H111	H	0.891896	0.383209	0.899616
	H112	H	0.086696	0.911292	0.610984
	H113	H	0.088301	0.100644	0.382656
	H114	H	0.904039	0.093034	0.611621
	H115	H	0.909397	0.916632	0.388298
	H116	H	0.611788	0.099825	0.904917
	H117	H	0.376129	0.090047	0.088964
	H118	H	0.611857	0.909083	0.086311
	H119	H	0.374090	0.911341	0.909879
	C120	C	0.372222	0.012286	0.620392
	C121	C	0.614760	0.993951	0.621876
	C122	C	0.614580	0.011566	0.377070
	C123	C	0.372606	0.993929	0.376646
	C124	C	0.612688	0.382833	0.004679
	C125	C	0.616231	0.628982	0.989125
	C126	C	0.371112	0.625603	0.006231
	C127	C	0.368182	0.379618	0.988936
	C128	C	0.001497	0.623716	0.374293
	C129	C	0.984145	0.621444	0.616698
	C130	C	0.002031	0.380657	0.619913
	C131	C	0.983985	0.382291	0.376739
	C132	C	0.871973	0.512537	0.118006
	C133	C	0.113175	0.494720	0.119174
	C134	C	0.113020	0.512107	0.874743
	C135	C	0.869996	0.493871	0.874200
	C136	C	0.115063	0.880635	0.504720
	C137	C	0.116233	0.126553	0.489772
	C138	C	0.871919	0.124572	0.505950
	C139	C	0.869968	0.878382	0.488947
	C140	C	0.501355	0.126126	0.875865
	C141	C	0.484408	0.123211	0.119312
	C142	C	0.502558	0.882530	0.121277
	C143	C	0.484101	0.885556	0.879426
	C144	C	0.369825	0.890060	0.678843
	C145	C	0.616469	0.117425	0.675377
	C146	C	0.615358	0.889414	0.320560
	C147	C	0.371263	0.115897	0.317686
	C148	C	0.667254	0.388291	0.882788
	C149	C	0.672956	0.624542	0.110154
	C150	C	0.316874	0.623336	0.883558
	C151	C	0.312635	0.382133	0.110352
	C152	C	0.877139	0.679780	0.375354
	C153	C	0.109086	0.678162	0.614364
	C154	C	0.876895	0.324273	0.616585
	C155	C	0.109550	0.329059	0.380418
	C156	C	0.877105	0.379449	0.674959
	C157	C	0.107723	0.622989	0.674337
	C158	C	0.877435	0.624002	0.317169
	C159	C	0.107896	0.382456	0.319698
	C160	C	0.371989	0.684594	0.885435
	C161	C	0.616077	0.683261	0.110646
	C162	C	0.611104	0.327727	0.883610
	C163	C	0.368255	0.321991	0.109801
	C164	C	0.667435	0.887190	0.382088
	C165	C	0.671541	0.117298	0.615389
	C166	C	0.315804	0.888458	0.617986
	C167	C	0.318570	0.117630	0.378788
	C168	C	0.868295	0.390186	0.176174
	C169	C	0.115971	0.616830	0.175586
	C170	C	0.112897	0.389111	0.819952
	C171	C	0.869162	0.615472	0.814599
	C172	C	0.172125	0.884418	0.383777
	C173	C	0.172006	0.122015	0.611131
	C174	C	0.816564	0.121434	0.384231
	C175	C	0.815645	0.879962	0.611062
	C176	C	0.375700	0.179385	0.878097
	C177	C	0.608574	0.181862	0.116705
	C178	C	0.378318	0.824157	0.120509
	C179	C	0.609286	0.831299	0.882442
	C180	C	0.379028	0.879370	0.179058
	C181	C	0.608531	0.125742	0.175966
	C182	C	0.377582	0.126093	0.818016
	C183	C	0.608521	0.886289	0.823271
	C184	C	0.872734	0.181718	0.384876
	C185	C	0.115300	0.181133	0.611303
	C186	C	0.115937	0.824565	0.384088
	C187	C	0.872457	0.820622	0.609880
	C188	C	0.167506	0.388796	0.879275
	C189	C	0.169176	0.618741	0.113967
	C190	C	0.814577	0.389420	0.115494
	C191	C	0.817088	0.618110	0.876140
	C192	C	0.396973	0.097840	0.597014
	C193	C	0.590219	0.907666	0.602017
	C194	C	0.592013	0.097560	0.398341
	C195	C	0.396151	0.908368	0.399938
	C196	C	0.589471	0.404252	0.089253
	C197	C	0.592397	0.607944	0.904753
	C198	C	0.393577	0.602370	0.090565
	C199	C	0.391424	0.402484	0.904197
	C200	C	0.087956	0.599875	0.397583
	C201	C	0.897663	0.597040	0.593601
	C202	C	0.089256	0.404538	0.598530
	C203	C	0.896946	0.405159	0.399121
	C204	C	0.897162	0.598170	0.095180
	C205	C	0.088555	0.409164	0.097703
	C206	C	0.090378	0.598071	0.895377
	C207	C	0.892332	0.408176	0.897676
	C208	C	0.091113	0.902327	0.589148
	C209	C	0.093471	0.105518	0.404902
	C210	C	0.894873	0.101589	0.590710
	C211	C	0.892547	0.901999	0.404328
	C212	C	0.588208	0.103781	0.898649
	C213	C	0.397838	0.098309	0.096758
	C214	C	0.589160	0.907307	0.098279
	C215	C	0.397099	0.908055	0.901313
	Zn216	Zn	0.492504	0.004611	0.749678
	Zn217	Zn	0.494032	0.002567	0.249204
	Zn218	Zn	0.743793	0.505140	-0.003422
	Zn219	Zn	0.240394	0.503903	-0.003245
	Zn220	Zn	-0.007023	0.749965	0.495429
	Zn221	Zn	-0.006027	0.255510	0.498275
	Zn222	Zn	-0.008133	0.501364	0.747216
	Zn223	Zn	-0.008031	0.502433	0.247620
	Zn224	Zn	0.493440	0.756512	-0.000656
	Zn225	Zn	0.491066	0.251263	-0.002713
	Zn226	Zn	0.741804	0.001589	0.498140
	Zn227	Zn	0.245309	0.003140	0.497026
	N228	N	0.403672	0.968160	0.680679
	N229	N	0.581988	0.039680	0.679585
	N230	N	0.583270	0.967787	0.317267
	N231	N	0.404234	0.037879	0.316289
	N232	N	0.668236	0.421914	0.959075
	N233	N	0.673181	0.591367	0.033636
	N234	N	0.315966	0.587327	0.959461
	N235	N	0.312538	0.417450	0.034262
	N236	N	0.955458	0.679826	0.409943
	N237	N	0.031239	0.677364	0.579421
	N238	N	0.955538	0.325001	0.583184
	N239	N	0.031490	0.329059	0.415155
	N240	N	0.955942	0.413791	0.677387
	N241	N	0.028933	0.588309	0.675861
	N242	N	0.955856	0.589854	0.316314
	N243	N	0.028569	0.414840	0.317186
	N244	N	0.405015	0.686086	0.962439
	N245	N	0.581286	0.685774	0.034464
	N246	N	0.577791	0.324208	0.960599
	N247	N	0.402300	0.320625	0.033165
	N248	N	0.667162	0.964130	0.416543
	N249	N	0.670809	0.039387	0.582928
	N250	N	0.317094	0.965494	0.582326
	N251	N	0.319356	0.040818	0.414638
	N252	N	0.903074	0.467898	0.177992
	N253	N	0.082025	0.538683	0.178877
	N254	N	0.079596	0.466862	0.817075
	N255	N	0.901200	0.537154	0.813077
	N256	N	0.171644	0.918598	0.459815
	N257	N	0.172787	0.088749	0.534593
	N258	N	0.816027	0.086594	0.460600
	N259	N	0.814209	0.915259	0.534948
	N260	N	0.453641	0.179534	0.913400
	N261	N	0.530385	0.180203	0.082087
	N262	N	0.456202	0.825959	0.085312
	N263	N	0.530872	0.830539	0.916597
	N264	N	0.457332	0.915033	0.179623
	N265	N	0.530249	0.090304	0.177952
	N266	N	0.456760	0.093768	0.816244
	N267	N	0.529659	0.919325	0.821424
	N268	N	0.906271	0.183826	0.461652
	N269	N	0.081323	0.184056	0.534800
	N270	N	0.081045	0.822137	0.460369
	N271	N	0.905322	0.819522	0.532800
	N272	N	0.167815	0.466269	0.912548
	N273	N	0.167689	0.541854	0.079465
	N274	N	0.816743	0.466490	0.080070
	N275	N	0.817199	0.541360	0.912380
	O276	O	0.998672	0.166946	0.871053
	H277	H	0.992871	0.162853	0.878504
	H278	H	0.983196	0.174047	0.861604
	O279	O	0.403785	0.508966	0.650309
	H280	H	0.396579	0.498003	0.651795
	H281	H	0.417951	0.501986	0.653289
	O282	O	0.412592	0.439842	0.588400
	H283	H	0.419501	0.444608	0.601101
	H284	H	0.397378	0.435603	0.593403
	O285	O	0.523260	0.593498	0.378174
	H286	H	0.519802	0.592657	0.369976
	H287	H	0.529912	0.607731	0.367895
	O288	O	0.593916	0.441601	0.520895
	H289	H	0.592965	0.444406	0.530978
	H290	H	0.607667	0.438365	0.524325
	O291	O	-0.006515	0.007720	0.860716
	H292	H	-0.004787	0.007390	0.846537
	H293	H	-0.000471	-0.000692	0.876140
	O294	O	1.042695	1.066593	-0.074287
	H295	H	1.041289	1.059134	-0.073956
	H296	H	1.022469	1.056073	-0.071985
	O297	O	1.024649	1.142039	0.076496
	H298	H	1.020381	1.135680	0.091193
	H299	H	1.030346	1.138409	0.069485
	O300	O	0.484306	0.451129	0.353498
	H301	H	0.484478	0.463616	0.342412
	H302	H	0.487006	0.465430	0.358763
	O303	O	0.971384	0.067463	1.070058
	H304	H	0.964791	0.047134	1.065376
	H305	H	0.979940	0.067110	1.074898
	O306	O	0.438019	0.596118	0.580585
	H307	H	0.430359	0.589800	0.576916
	H308	H	0.431034	0.588495	0.571964
	O309	O	0.532860	0.510489	0.403211
	H310	H	0.545521	0.510995	0.416637
	H311	H	0.539058	0.517611	0.399321
	O312	O	0.873347	1.040741	0.991617
	H313	H	0.867698	1.030068	0.993193
	H314	H	0.874156	1.035709	0.974769
	O315	O	1.062127	0.904999	-0.070335
	H316	H	1.059087	0.895124	-0.071451
	H317	H	1.068091	0.904337	-0.071218
	O318	O	0.589941	0.540061	0.638136
	H319	H	0.594308	0.542345	0.638051
	H320	H	0.585374	0.535944	0.637026
	O321	O	0.496400	0.469364	0.500506
	H322	H	0.492235	0.464192	0.505888
	H323	H	0.494322	0.472218	0.510104
	O324	O	0.070427	0.902571	0.909213
	H325	H	0.076714	0.915904	0.898723
	H326	H	0.065230	0.904651	0.914336
	O327	O	-0.057800	0.920655	1.126037
	H328	H	-0.066937	0.913313	1.117738
	H329	H	-0.050061	0.917147	1.133448
	O330	O	0.008097	0.000671	0.005828
	H331	H	0.003341	0.004079	-0.006019
	H332	H	0.012121	-0.001628	-0.007817
	O333	O	0.363100	0.490773	0.461101
	H334	H	0.356231	0.492375	0.449760
	H335	H	0.359128	0.485995	0.467591
	O336	O	0.133539	0.130759	0.087227
	H337	H	0.140580	0.138731	0.107046
	H338	H	0.129669	0.137388	0.093787
	O339	O	-0.038407	0.165005	0.013666
	H340	H	-0.047147	0.154886	0.022159
	H341	H	-0.039248	0.180444	0.008507
	O342	O	0.520411	0.543829	0.606365
	H343	H	0.498626	0.535532	0.605499
	H344	H	0.510251	0.543982	0.612978
	O345	O	-0.090433	0.915761	1.041466
	H346	H	-0.077833	0.919434	1.046251
	H347	H	-0.077152	0.924834	1.034426
	O348	O	0.492518	0.427706	0.370881
	H349	H	0.495678	0.426788	0.379405
	H350	H	0.506397	0.427847	0.355159
	O351	O	0.576278	0.428607	0.432641
	H352	H	0.578483	0.439745	0.433166
	H353	H	0.571360	0.429460	0.421450
	O354	O	-0.066673	0.897979	-0.003856
	H355	H	-0.072063	0.891285	0.003840
	H356	H	-0.055569	0.902532	0.008667
	O357	O	0.438094	0.536640	0.450274
	H358	H	0.445065	0.539977	0.451395
	H359	H	0.443420	0.530245	0.429567
	O360	O	0.953920	0.029033	1.012892
	H361	H	0.944219	0.026307	1.007251
	H362	H	0.958441	0.032200	1.014875
	O363	O	0.496147	0.491811	0.501082
	H364	H	0.484581	0.486378	0.496659
	H365	H	0.496145	0.495589	0.509887
	O366	O	0.450859	0.526977	0.527245
	H367	H	0.446505	0.535033	0.525143
	H368	H	0.463156	0.520674	0.532576
	O369	O	0.988302	0.135121	0.151408
	H370	H	0.993696	0.132313	0.161102
	H371	H	0.979693	0.125514	0.149788
	O372	O	0.565694	0.585509	0.472216
	H373	H	0.576400	0.593261	0.470653
	H374	H	0.550366	0.570320	0.464138
	O375	O	1.041926	-0.076122	0.991962
	H376	H	1.042894	-0.069788	0.988797
	H377	H	1.044972	-0.070000	0.986837
	O378	O	-0.060136	0.947286	0.039664
	H379	H	-0.062315	0.960732	0.033110
	H380	H	-0.040345	0.956053	0.033137
	O381	O	0.550099	0.652422	0.556073
	H382	H	0.540862	0.644665	0.569928
	H383	H	0.558763	0.667105	0.551922
	O384	O	1.039521	0.909517	-0.102744
	H385	H	1.031988	0.906007	-0.112186
	H386	H	1.053039	0.922009	-0.097056
	O387	O	0.957362	-0.010707	1.052216
	H388	H	0.945246	-0.016527	1.051879
	H389	H	0.961170	-0.023054	1.047571
	O390	O	0.953803	0.899947	-0.062976
	H391	H	0.953128	0.905732	-0.059170
	H392	H	0.961424	0.916628	-0.075068
	O393	O	0.522474	0.506710	0.425360
	H394	H	0.536618	0.500598	0.427654
	H395	H	0.507080	0.493870	0.420481
