data_Molecule from HDF5

_cell_length_a		16.212823
_cell_length_b		16.200002
_cell_length_c		16.297612
_cell_angle_alpha	90.310449
_cell_angle_beta	90.507654
_cell_angle_gamma	90.172469
_symmetry_space_group_name_H-M	'P 1'
_symmetry_Int_Tables_number		1

loop_
	_symmetry_equiv_pos_as_xyz
	x,y,z

loop_
	_atom_site_label
	_atom_site_type_symbol
	_atom_site_fract_x
	_atom_site_fract_y
	_atom_site_fract_z
	H0	H	0.399695	0.841997	0.705268
	H1	H	0.600087	0.170460	0.708477
	H2	H	0.596281	0.842328	0.277160
	H3	H	0.399566	0.170485	0.279746
	H4	H	0.706439	0.409470	0.827260
	H5	H	0.714695	0.606615	0.155206
	H6	H	0.280611	0.603858	0.829328
	H7	H	0.284536	0.407055	0.156040
	H8	H	0.832927	0.717628	0.394579
	H9	H	0.161477	0.720827	0.593799
	H10	H	0.832837	0.291385	0.587871
	H11	H	0.162111	0.292981	0.395183
	H12	H	0.832539	0.405268	0.704698
	H13	H	0.160585	0.605768	0.710751
	H14	H	0.833974	0.605804	0.275467
	H15	H	0.160895	0.404686	0.277066
	H16	H	0.395268	0.721364	0.829470
	H17	H	0.598259	0.721844	0.155993
	H18	H	0.594659	0.290567	0.829881
	H19	H	0.398794	0.291255	0.155911
	H20	H	0.709960	0.840506	0.395001
	H21	H	0.713482	0.170331	0.591576
	H22	H	0.284226	0.841507	0.588625
	H23	H	0.284909	0.170627	0.393758
	H24	H	0.899063	0.341013	0.203475
	H25	H	0.098869	0.668942	0.209659
	H26	H	0.094269	0.340877	0.778521
	H27	H	0.894749	0.668839	0.776020
	H28	H	0.209369	0.907072	0.326891
	H29	H	0.215428	0.106420	0.655063
	H30	H	0.780684	0.103659	0.329048
	H31	H	0.785438	0.907833	0.655998
	H32	H	0.333062	0.217471	0.894793
	H33	H	0.662001	0.222111	0.093052
	H34	H	0.333426	0.792168	0.089645
	H35	H	0.661898	0.791766	0.895090
	H36	H	0.333550	0.907026	0.204323
	H37	H	0.662184	0.106043	0.209737
	H38	H	0.335863	0.108060	0.773930
	H39	H	0.662120	0.906156	0.778894
	H40	H	0.898331	0.218412	0.327860
	H41	H	0.098451	0.221098	0.655578
	H42	H	0.094305	0.789628	0.328285
	H43	H	0.900836	0.792691	0.655885
	H44	H	0.208498	0.340215	0.894710
	H45	H	0.213427	0.669645	0.093246
	H46	H	0.783637	0.341795	0.087460
	H47	H	0.783610	0.670617	0.893985
	H48	H	0.400098	0.125829	0.585229
	H49	H	0.587306	0.888024	0.590702
	H50	H	0.591874	0.121871	0.405949
	H51	H	0.402957	0.887486	0.395661
	H52	H	0.588906	0.415053	0.108116
	H53	H	0.590438	0.595732	0.876757
	H54	H	0.398314	0.605031	0.112963
	H55	H	0.399396	0.407732	0.873467
	H56	H	0.114977	0.597135	0.401855
	H57	H	0.880029	0.591935	0.592548
	H58	H	0.114699	0.417882	0.591852
	H59	H	0.878935	0.406922	0.399254
	H60	H	0.116040	0.408719	0.587810
	H61	H	0.876535	0.608117	0.586991
	H62	H	0.114206	0.597167	0.401800
	H63	H	0.881382	0.416321	0.399675
	H64	H	0.405053	0.589063	0.105633
	H65	H	0.585441	0.600816	0.876912
	H66	H	0.592530	0.411117	0.110467
	H67	H	0.400371	0.417671	0.877455
	H68	H	0.592241	0.124643	0.397971
	H69	H	0.590270	0.890307	0.581065
	H70	H	0.412505	0.123961	0.590624
	H71	H	0.405262	0.888200	0.397659
	H72	H	0.903755	0.621571	0.075715
	H73	H	0.096077	0.386455	0.085586
	H74	H	0.087213	0.620401	0.906107
	H75	H	0.898257	0.386741	0.896416
	H76	H	0.092582	0.913694	0.608388
	H77	H	0.087101	0.107383	0.373884
	H78	H	0.907973	0.105532	0.610223
	H79	H	0.897920	0.913303	0.374547
	H80	H	0.618578	0.111523	0.905509
	H81	H	0.384653	0.085657	0.087324
	H82	H	0.615359	0.922793	0.095553
	H83	H	0.379439	0.913692	0.892162
	H84	H	0.618761	0.902751	0.088253
	H85	H	0.375609	0.106209	0.097382
	H86	H	0.610137	0.089619	0.909257
	H87	H	0.380676	0.910159	0.900996
	H88	H	0.900678	0.097179	0.610333
	H89	H	0.099053	0.097062	0.372785
	H90	H	0.092639	0.916108	0.607828
	H91	H	0.906765	0.914278	0.377011
	H92	H	0.092215	0.623450	0.901619
	H93	H	0.088376	0.387899	0.089722
	H94	H	0.900204	0.627138	0.091736
	H95	H	0.903615	0.387126	0.894454
	H96	H	0.409475	0.120461	0.577613
	H97	H	0.597436	0.886308	0.587916
	H98	H	0.585524	0.121653	0.400574
	H99	H	0.401860	0.888240	0.398350
	H100	H	0.594033	0.416848	0.109710
	H101	H	0.592316	0.602395	0.873261
	H102	H	0.416156	0.603607	0.106691
	H103	H	0.408574	0.410773	0.877461
	H104	H	0.114621	0.597759	0.401550
	H105	H	0.882673	0.596235	0.576178
	H106	H	0.112457	0.416033	0.582144
	H107	H	0.878407	0.412535	0.391269
	H108	H	0.915939	0.621162	0.087518
	H109	H	0.088386	0.388961	0.081635
	H110	H	0.085015	0.621879	0.898236
	H111	H	0.902408	0.388507	0.899657
	H112	H	0.090816	0.914070	0.607518
	H113	H	0.085752	0.092423	0.378122
	H114	H	0.911102	0.095625	0.605872
	H115	H	0.903833	0.906508	0.373616
	H116	H	0.618652	0.095660	0.888584
	H117	H	0.381904	0.106222	0.073410
	H118	H	0.610490	0.918623	0.076144
	H119	H	0.382607	0.919315	0.899946
	C120	C	0.377644	0.014873	0.612900
	C121	C	0.620931	0.997239	0.615264
	C122	C	0.618438	0.014156	0.372317
	C123	C	0.375648	0.996894	0.369550
	C124	C	0.618702	0.385022	0.001107
	C125	C	0.619643	0.629067	0.983565
	C126	C	0.375827	0.627844	0.001017
	C127	C	0.375172	0.383547	0.984137
	C128	C	0.005969	0.625994	0.371855
	C129	C	0.988493	0.627821	0.615333
	C130	C	0.005763	0.384502	0.613957
	C131	C	0.988477	0.383543	0.369639
	C132	C	0.877072	0.514661	0.112699
	C133	C	0.120161	0.496387	0.115172
	C134	C	0.117273	0.513650	0.872238
	C135	C	0.873570	0.496720	0.869406
	C136	C	0.119791	0.884320	0.500136
	C137	C	0.120346	0.128257	0.483245
	C138	C	0.876548	0.127442	0.500551
	C139	C	0.875975	0.883858	0.483407
	C140	C	0.507206	0.127505	0.871464
	C141	C	0.489169	0.128494	0.115511
	C142	C	0.506307	0.885313	0.113724
	C143	C	0.489473	0.885270	0.870436
	C144	C	0.379509	0.891105	0.667610
	C145	C	0.619618	0.121195	0.670626
	C146	C	0.616619	0.890787	0.315781
	C147	C	0.378501	0.121066	0.316046
	C148	C	0.671069	0.387990	0.877087
	C149	C	0.676467	0.627356	0.106380
	C150	C	0.318681	0.625051	0.878273
	C151	C	0.321362	0.386430	0.107180
	C152	C	0.882144	0.680653	0.373531
	C153	C	0.112256	0.683042	0.614144
	C154	C	0.882060	0.328659	0.609372
	C155	C	0.112730	0.329663	0.374118
	C156	C	0.881594	0.385748	0.667246
	C157	C	0.111718	0.625814	0.672102
	C158	C	0.882901	0.624780	0.314446
	C159	C	0.112142	0.385094	0.315364
	C160	C	0.376389	0.682948	0.878008
	C161	C	0.618239	0.684358	0.107019
	C162	C	0.614954	0.329329	0.878221
	C163	C	0.378727	0.329193	0.107196
	C164	C	0.672622	0.890001	0.374642
	C165	C	0.676390	0.121021	0.612642
	C166	C	0.322145	0.890783	0.609737
	C167	C	0.321789	0.121197	0.373225
	C168	C	0.878650	0.390619	0.166593
	C169	C	0.118909	0.620057	0.171468
	C170	C	0.114777	0.390043	0.816296
	C171	C	0.875662	0.620046	0.814379
	C172	C	0.172741	0.886341	0.376393
	C173	C	0.176978	0.126582	0.606118
	C174	C	0.819548	0.124222	0.377644
	C175	C	0.822725	0.887188	0.607118
	C176	C	0.382709	0.180916	0.873925
	C177	C	0.612988	0.184043	0.113480
	C178	C	0.382722	0.829777	0.110071
	C179	C	0.612990	0.829526	0.874136
	C180	C	0.382671	0.886846	0.167362
	C181	C	0.612957	0.126694	0.171611
	C182	C	0.384168	0.126376	0.813826
	C183	C	0.613071	0.886445	0.816413
	C184	C	0.878357	0.180839	0.376921
	C185	C	0.118704	0.183643	0.606389
	C186	C	0.115654	0.827796	0.377186
	C187	C	0.880013	0.829937	0.607015
	C188	C	0.171927	0.389897	0.874009
	C189	C	0.175851	0.620311	0.113520
	C190	C	0.821236	0.390812	0.108794
	C191	C	0.820387	0.621044	0.872983
	C192	C	0.400534	0.101028	0.590754
	C193	C	0.598226	0.910649	0.593094
	C194	C	0.596369	0.100252	0.394873
	C195	C	0.397098	0.910361	0.390766
	C196	C	0.598159	0.407746	0.087309
	C197	C	0.596215	0.606482	0.897758
	C198	C	0.399701	0.605791	0.086347
	C199	C	0.396649	0.405354	0.898177
	C200	C	0.092276	0.603870	0.394983
	C201	C	0.902075	0.605394	0.592107
	C202	C	0.092107	0.407480	0.593521
	C203	C	0.902020	0.405348	0.390493
	C204	C	0.899926	0.601113	0.091295
	C205	C	0.097587	0.410054	0.092293
	C206	C	0.094785	0.599713	0.895190
	C207	C	0.895124	0.409886	0.890597
	C208	C	0.098356	0.907502	0.585764
	C209	C	0.097457	0.105605	0.397157
	C210	C	0.899713	0.105969	0.586566
	C211	C	0.896685	0.905182	0.397382
	C212	C	0.593513	0.105440	0.894458
	C213	C	0.403004	0.106069	0.092779
	C214	C	0.592654	0.908003	0.092841
	C215	C	0.403290	0.907727	0.891511
	Zn216	Zn	0.499094	0.006737	0.742163
	Zn217	Zn	0.497193	0.006086	0.243034
	Zn218	Zn	0.747601	0.506287	-0.008403
	Zn219	Zn	0.247220	0.505069	-0.007268
	Zn220	Zn	-0.002546	0.755709	0.492355
	Zn221	Zn	-0.002248	0.256386	0.491849
	Zn222	Zn	-0.004000	0.505315	0.743329
	Zn223	Zn	-0.001804	0.505081	0.242549
	Zn224	Zn	0.497437	0.757224	-0.008116
	Zn225	Zn	0.497477	0.255710	-0.007172
	Zn226	Zn	0.747962	0.005611	0.492960
	Zn227	Zn	0.248736	0.006042	0.490993
	N228	N	0.413284	0.969180	0.669642
	N229	N	0.585945	0.043075	0.672410
	N230	N	0.583399	0.968812	0.314333
	N231	N	0.411318	0.042827	0.313717
	N232	N	0.673482	0.422092	0.954731
	N233	N	0.677319	0.593645	0.028717
	N234	N	0.318251	0.591609	0.955598
	N235	N	0.319408	0.419849	0.029765
	N236	N	0.959567	0.681394	0.408817
	N237	N	0.034618	0.684452	0.579445
	N238	N	0.960105	0.327847	0.577069
	N239	N	0.034993	0.328717	0.407259
	N240	N	0.959460	0.419870	0.670290
	N241	N	0.033539	0.592375	0.673154
	N242	N	0.961043	0.591624	0.313371
	N243	N	0.034039	0.418078	0.312485
	N244	N	0.411126	0.684985	0.955437
	N245	N	0.583615	0.685538	0.029541
	N246	N	0.582996	0.327471	0.956098
	N247	N	0.411588	0.327236	0.029715
	N248	N	0.673866	0.967772	0.409107
	N249	N	0.677400	0.042957	0.579133
	N250	N	0.320915	0.968661	0.576202
	N251	N	0.319785	0.043055	0.405757
	N252	N	0.912627	0.468554	0.169078
	N253	N	0.084934	0.542206	0.172356
	N254	N	0.081323	0.468036	0.815148
	N255	N	0.907881	0.541476	0.811935
	N256	N	0.175505	0.920767	0.453832
	N257	N	0.177998	0.092612	0.528501
	N258	N	0.818381	0.091604	0.455506
	N259	N	0.819911	0.919940	0.529401
	N260	N	0.460197	0.181851	0.908946
	N261	N	0.535138	0.185150	0.079353
	N262	N	0.460553	0.828839	0.077318
	N263	N	0.535059	0.828703	0.907163
	N264	N	0.460577	0.920798	0.169948
	N265	N	0.534886	0.093088	0.173087
	N266	N	0.462581	0.093936	0.812238
	N267	N	0.535507	0.920527	0.814013
	N268	N	0.912846	0.182877	0.454337
	N269	N	0.084314	0.184765	0.528959
	N270	N	0.083444	0.826625	0.455087
	N271	N	0.912346	0.827537	0.529189
	N272	N	0.173572	0.467801	0.908117
	N273	N	0.176866	0.542432	0.079304
	N274	N	0.819966	0.469019	0.076218
	N275	N	0.819057	0.543367	0.906489
	O276	O	0.976846	1.023572	-0.081663
	H277	H	0.975916	1.026618	-0.086701
	H278	H	0.985012	1.038202	-0.076847
	O279	O	0.938607	-0.970928	0.910598
	H280	H	0.928677	-0.979045	0.904590
	H281	H	0.942112	-0.969719	0.911976
	O282	O	0.234874	0.216883	0.231184
	H283	H	0.228035	0.211356	0.236858
	H284	H	0.234036	0.212941	0.219039
	O285	O	0.469545	0.447198	0.435447
	H286	H	0.469540	0.439231	0.438456
	H287	H	0.466743	0.445355	0.433267
	O288	O	0.017699	0.048997	0.015950
	H289	H	0.021336	0.051270	0.022424
	H290	H	0.029403	0.048741	0.011963
	O291	O	-0.568509	0.534069	0.528451
	H292	H	-0.564640	0.545738	0.532088
	H293	H	-0.571713	0.540014	0.527116
	O294	O	0.060213	1.002523	-0.028925
	H295	H	0.063854	1.003906	-0.026637
	H296	H	0.061917	1.006640	-0.025558
	O297	O	0.494322	0.446581	0.481855
	H298	H	0.504712	0.439901	0.478514
	H299	H	0.494649	0.442422	0.482930
	O300	O	0.497502	0.558247	0.563432
	H301	H	0.506025	0.566925	0.565572
	H302	H	0.507068	0.561130	0.558786
	O303	O	1.028026	0.016932	1.008203
	H304	H	1.021223	0.014467	1.004066
	H305	H	1.018233	0.016866	1.004774
	O306	O	0.004112	0.953587	0.889591
	H307	H	-0.003361	0.954822	0.884015
	H308	H	0.008185	0.946022	0.881867
	O309	O	0.015970	1.030984	0.988023
	H310	H	0.008675	1.025482	0.990772
	H311	H	0.006040	1.031947	0.988881
	O312	O	0.533633	-0.524958	1.545479
	H313	H	0.531547	-0.511049	1.545986
	H314	H	0.539425	-0.516819	1.544106
	O315	O	0.515264	0.605637	0.509734
	H316	H	0.520366	0.609733	0.520461
	H317	H	0.522967	0.610572	0.498185
	O318	O	0.043226	-0.027648	0.981335
	H319	H	0.039790	-0.027017	0.981865
	H320	H	0.048708	-0.033139	0.975074
	O321	O	0.071748	0.957979	-0.033999
	H322	H	0.073642	0.954201	-0.038469
	H323	H	0.068397	0.965360	-0.031054
	O324	O	1.082050	-0.007707	0.999599
	H325	H	1.077722	-0.013105	1.007989
	H326	H	1.083837	-0.007724	1.002531
	O327	O	1.008151	0.931658	0.963384
	H328	H	1.016054	0.935566	0.955343
	H329	H	1.006977	0.922087	0.958190
	O330	O	0.411466	0.579805	0.439806
	H331	H	0.407018	0.586691	0.433983
	H332	H	0.405095	0.580705	0.428904
	O333	O	0.523461	0.480596	0.500824
	H334	H	0.518378	0.471542	0.495431
	H335	H	0.523307	0.478001	0.501747
	O336	O	0.471675	0.489962	0.568567
	H337	H	0.462883	0.494217	0.566789
	H338	H	0.474564	0.490140	0.569046
	O339	O	0.506374	0.433045	0.427741
	H340	H	0.503746	0.434296	0.428309
	H341	H	0.497526	0.425947	0.430837
	O342	O	0.497316	0.474776	0.454520
	H343	H	0.491704	0.472620	0.449190
	H344	H	0.502446	0.462247	0.458923
	O345	O	0.548793	0.562018	0.451958
	H346	H	0.557723	0.566089	0.441737
	H347	H	0.542820	0.560283	0.455478
