data_Molecule from HDF5

_cell_length_a		16.245554
_cell_length_b		16.314178
_cell_length_c		16.159990
_cell_angle_alpha	89.911040
_cell_angle_beta	89.566722
_cell_angle_gamma	90.379966
_symmetry_space_group_name_H-M	'P 1'
_symmetry_Int_Tables_number		1

loop_
	_symmetry_equiv_pos_as_xyz
	x,y,z

loop_
	_atom_site_label
	_atom_site_type_symbol
	_atom_site_fract_x
	_atom_site_fract_y
	_atom_site_fract_z
	H0	H	0.402302	0.833725	0.709962
	H1	H	0.600428	0.160851	0.708608
	H2	H	0.599292	0.833023	0.281420
	H3	H	0.407780	0.161476	0.282386
	H4	H	0.717801	0.399885	0.830674
	H5	H	0.716388	0.596607	0.160063
	H6	H	0.293748	0.594631	0.829709
	H7	H	0.285782	0.397054	0.158280
	H8	H	0.837839	0.710588	0.396623
	H9	H	0.164998	0.714912	0.593381
	H10	H	0.840427	0.279870	0.597400
	H11	H	0.166262	0.282669	0.392224
	H12	H	0.839670	0.398671	0.710559
	H13	H	0.167791	0.596738	0.705348
	H14	H	0.837606	0.592618	0.282945
	H15	H	0.167555	0.401532	0.280446
	H16	H	0.405401	0.712038	0.830874
	H17	H	0.601842	0.711141	0.159960
	H18	H	0.604009	0.283368	0.831231
	H19	H	0.401086	0.281811	0.159467
	H20	H	0.716919	0.834198	0.396283
	H21	H	0.717987	0.160509	0.594591
	H22	H	0.283927	0.835474	0.596605
	H23	H	0.290950	0.162460	0.398045
	H24	H	0.901744	0.333964	0.210187
	H25	H	0.100742	0.661197	0.207199
	H26	H	0.101678	0.334547	0.779415
	H27	H	0.908443	0.661591	0.781423
	H28	H	0.217060	0.901432	0.330739
	H29	H	0.214706	0.097644	0.660630
	H30	H	0.791372	0.094251	0.330145
	H31	H	0.786713	0.897657	0.659615
	H32	H	0.339551	0.212101	0.896322
	H33	H	0.666066	0.214486	0.096051
	H34	H	0.339318	0.780130	0.097523
	H35	H	0.667229	0.784847	0.896047
	H36	H	0.338203	0.898884	0.209950
	H37	H	0.668048	0.093620	0.206057
	H38	H	0.338418	0.094124	0.783310
	H39	H	0.667020	0.899762	0.779452
	H40	H	0.904713	0.211118	0.330364
	H41	H	0.102467	0.214363	0.658516
	H42	H	0.100676	0.785392	0.330247
	H43	H	0.898847	0.780819	0.658908
	H44	H	0.218550	0.334138	0.892934
	H45	H	0.219176	0.660484	0.092154
	H46	H	0.786004	0.334704	0.095254
	H47	H	0.790494	0.661076	0.896314
	H48	H	0.409360	0.114747	0.589973
	H49	H	0.586785	0.883029	0.587853
	H50	H	0.607765	0.118857	0.393052
	H51	H	0.408622	0.882563	0.406536
	H52	H	0.592966	0.399614	0.114015
	H53	H	0.599526	0.596925	0.875538
	H54	H	0.407807	0.584009	0.112177
	H55	H	0.419436	0.395094	0.876902
	H56	H	0.118814	0.597616	0.406857
	H57	H	0.883520	0.594844	0.586757
	H58	H	0.117232	0.409193	0.582221
	H59	H	0.887096	0.403555	0.405930
	H60	H	0.121977	0.406049	0.591355
	H61	H	0.888434	0.585489	0.585467
	H62	H	0.117746	0.586729	0.401118
	H63	H	0.886235	0.404236	0.402107
	H64	H	0.415252	0.588442	0.110900
	H65	H	0.602294	0.587233	0.877525
	H66	H	0.599458	0.406232	0.114151
	H67	H	0.401866	0.402147	0.873264
	H68	H	0.586856	0.112389	0.396343
	H69	H	0.598728	0.881763	0.580943
	H70	H	0.408862	0.113946	0.589089
	H71	H	0.406050	0.880817	0.403322
	H72	H	0.916854	0.613056	0.092825
	H73	H	0.102595	0.378524	0.085278
	H74	H	0.102224	0.616990	0.896011
	H75	H	0.908603	0.377093	0.889591
	H76	H	0.100667	0.905012	0.615217
	H77	H	0.094790	0.096997	0.376737
	H78	H	0.911798	0.089006	0.612635
	H79	H	0.915897	0.901054	0.377995
	H80	H	0.620074	0.088920	0.899429
	H81	H	0.386505	0.088537	0.086463
	H82	H	0.622464	0.899716	0.091540
	H83	H	0.386265	0.897737	0.911203
	H84	H	0.618769	0.902335	0.082989
	H85	H	0.385523	0.087202	0.091989
	H86	H	0.621247	0.094663	0.901541
	H87	H	0.388146	0.910420	0.905134
	H88	H	0.909544	0.091151	0.613249
	H89	H	0.103257	0.089447	0.376099
	H90	H	0.088987	0.912538	0.609914
	H91	H	0.904490	0.898638	0.373884
	H92	H	0.094392	0.612735	0.900461
	H93	H	0.091327	0.379954	0.093773
	H94	H	0.908708	0.612158	0.081260
	H95	H	0.921000	0.386133	0.908105
	H96	H	0.408700	0.114927	0.590636
	H97	H	0.597925	0.877405	0.594591
	H98	H	0.600917	0.111658	0.413152
	H99	H	0.409735	0.881934	0.403112
	H100	H	0.590696	0.407860	0.111699
	H101	H	0.591980	0.590586	0.879265
	H102	H	0.408635	0.591993	0.115130
	H103	H	0.415722	0.413769	0.880677
	H104	H	0.121805	0.596440	0.393832
	H105	H	0.883773	0.588053	0.594385
	H106	H	0.121494	0.399983	0.583558
	H107	H	0.885366	0.401127	0.403804
	H108	H	0.903348	0.617557	0.093094
	H109	H	0.091080	0.384334	0.081062
	H110	H	0.102689	0.613491	0.904979
	H111	H	0.897989	0.380872	0.910638
	H112	H	0.087821	0.897480	0.614341
	H113	H	0.093504	0.086047	0.379608
	H114	H	0.907585	0.087942	0.611961
	H115	H	0.908029	0.909238	0.378642
	H116	H	0.618563	0.090508	0.905484
	H117	H	0.385364	0.091967	0.089905
	H118	H	0.620151	0.908705	0.089888
	H119	H	0.383390	0.899708	0.897657
	C120	C	0.379311	0.006512	0.618553
	C121	C	0.623738	0.988750	0.616616
	C122	C	0.625583	0.005985	0.372650
	C123	C	0.381380	0.989615	0.375305
	C124	C	0.624261	0.376109	0.004391
	C125	C	0.625445	0.619474	0.986536
	C126	C	0.383099	0.617384	0.003534
	C127	C	0.381743	0.374877	0.985839
	C128	C	0.010535	0.619975	0.372964
	C129	C	0.993738	0.619271	0.616623
	C130	C	0.012188	0.376025	0.615819
	C131	C	0.994482	0.375468	0.373431
	C132	C	0.880260	0.506254	0.117494
	C133	C	0.124240	0.489009	0.115254
	C134	C	0.126780	0.506154	0.871802
	C135	C	0.882041	0.489236	0.873906
	C136	C	0.122319	0.877151	0.504267
	C137	C	0.124670	0.119651	0.486461
	C138	C	0.882100	0.117989	0.503672
	C139	C	0.879783	0.874771	0.486135
	C140	C	0.511608	0.119149	0.873912
	C141	C	0.494504	0.118384	0.117241
	C142	C	0.511885	0.874863	0.117850
	C143	C	0.494690	0.875535	0.874881
	C144	C	0.381355	0.883043	0.673295
	C145	C	0.621244	0.111952	0.671456
	C146	C	0.620933	0.882142	0.318722
	C147	C	0.386088	0.112644	0.319981
	C148	C	0.680187	0.379039	0.880194
	C149	C	0.679132	0.616703	0.110733
	C150	C	0.330179	0.615317	0.879202
	C151	C	0.324701	0.377154	0.109448
	C152	C	0.886911	0.673071	0.376099
	C153	C	0.116697	0.676157	0.613604
	C154	C	0.889070	0.318821	0.616304
	C155	C	0.117670	0.320874	0.373378
	C156	C	0.888701	0.377819	0.672447
	C157	C	0.117994	0.617370	0.669307
	C158	C	0.886822	0.614279	0.319874
	C159	C	0.118210	0.379867	0.317640
	C160	C	0.385907	0.673581	0.879968
	C161	C	0.622499	0.673948	0.110632
	C162	C	0.623620	0.321005	0.880491
	C163	C	0.381998	0.319877	0.110050
	C164	C	0.679621	0.882786	0.375302
	C165	C	0.679462	0.111780	0.614495
	C166	C	0.322247	0.883971	0.617217
	C167	C	0.328077	0.113147	0.377482
	C168	C	0.881613	0.383216	0.172896
	C169	C	0.121675	0.612284	0.169791
	C170	C	0.122793	0.383315	0.816898
	C171	C	0.886715	0.612492	0.818791
	C172	C	0.179083	0.880221	0.380036
	C173	C	0.178106	0.117975	0.610847
	C174	C	0.828483	0.114962	0.379256
	C175	C	0.824304	0.877308	0.610290
	C176	C	0.388248	0.173722	0.876682
	C177	C	0.617502	0.175157	0.115049
	C178	C	0.388210	0.818812	0.116764
	C179	C	0.618328	0.822080	0.876018
	C180	C	0.387608	0.877759	0.172891
	C181	C	0.618622	0.115455	0.170029
	C182	C	0.387836	0.115499	0.820034
	C183	C	0.618195	0.879379	0.818130
	C184	C	0.884890	0.173054	0.379506
	C185	C	0.122157	0.175762	0.609863
	C186	C	0.121233	0.822730	0.379836
	C187	C	0.880294	0.819263	0.609982
	C188	C	0.180891	0.383085	0.873521
	C189	C	0.180440	0.611786	0.112587
	C190	C	0.824266	0.383440	0.115319
	C191	C	0.828307	0.612439	0.875971
	C192	C	0.402213	0.092272	0.596364
	C193	C	0.601306	0.903002	0.594295
	C194	C	0.604739	0.091942	0.394382
	C195	C	0.402002	0.903920	0.397808
	C196	C	0.601138	0.398057	0.090923
	C197	C	0.604379	0.597950	0.899748
	C198	C	0.404325	0.594799	0.090244
	C199	C	0.405384	0.397105	0.899251
	C200	C	0.097266	0.599601	0.394392
	C201	C	0.907470	0.596334	0.595266
	C202	C	0.097923	0.398526	0.592517
	C203	C	0.908348	0.396671	0.397030
	C204	C	0.902953	0.592238	0.095369
	C205	C	0.101655	0.403156	0.093282
	C206	C	0.105982	0.592079	0.893963
	C207	C	0.902936	0.403518	0.896072
	C208	C	0.099298	0.898699	0.590744
	C209	C	0.103440	0.097141	0.399898
	C210	C	0.903428	0.095824	0.590290
	C211	C	0.902707	0.896733	0.399386
	C212	C	0.597778	0.097594	0.895578
	C213	C	0.408110	0.095924	0.095759
	C214	C	0.598024	0.897081	0.094894
	C215	C	0.408346	0.896481	0.897900
	Zn216	Zn	0.502207	-0.003067	0.745754
	Zn217	Zn	0.502923	-0.002945	0.245450
	Zn218	Zn	0.752176	0.498137	-0.004389
	Zn219	Zn	0.254675	0.497002	-0.006292
	Zn220	Zn	0.001134	0.747682	0.495257
	Zn221	Zn	0.002992	0.246961	0.494730
	Zn222	Zn	0.004199	0.497542	0.744621
	Zn223	Zn	0.002480	0.497267	0.245420
	Zn224	Zn	0.503325	0.746303	-0.004022
	Zn225	Zn	0.503079	0.247309	-0.004273
	Zn226	Zn	0.753317	-0.002429	0.495240
	Zn227	Zn	0.251569	-0.001179	0.496430
	N228	N	0.416111	0.960278	0.674332
	N229	N	0.587400	0.034419	0.673108
	N230	N	0.588367	0.959790	0.316772
	N231	N	0.418440	0.034865	0.318360
	N232	N	0.680798	0.412601	0.958249
	N233	N	0.681157	0.583675	0.032514
	N234	N	0.328325	0.581060	0.956954
	N235	N	0.324353	0.410600	0.031171
	N236	N	0.965033	0.676682	0.408450
	N237	N	0.038389	0.677590	0.581791
	N238	N	0.966643	0.317700	0.581598
	N239	N	0.039840	0.318147	0.407445
	N240	N	0.966117	0.412621	0.672460
	N241	N	0.040568	0.582666	0.671290
	N242	N	0.964983	0.582178	0.317766
	N243	N	0.040502	0.413166	0.317635
	N244	N	0.418263	0.674931	0.958538
	N245	N	0.589562	0.675618	0.032466
	N246	N	0.589501	0.319300	0.958702
	N247	N	0.416509	0.318329	0.032076
	N248	N	0.682579	0.960502	0.408137
	N249	N	0.681182	0.034207	0.581138
	N250	N	0.320728	0.961667	0.584208
	N251	N	0.324989	0.035656	0.411225
	N252	N	0.915880	0.460631	0.174361
	N253	N	0.087387	0.534799	0.171654
	N254	N	0.089983	0.460741	0.815595
	N255	N	0.919376	0.534920	0.817348
	N256	N	0.179898	0.913528	0.458345
	N257	N	0.180144	0.084178	0.533025
	N258	N	0.826681	0.081429	0.457492
	N259	N	0.823788	0.911131	0.532256
	N260	N	0.466170	0.176111	0.909512
	N261	N	0.539143	0.177134	0.082904
	N262	N	0.466506	0.816589	0.083485
	N263	N	0.540744	0.819377	0.910413
	N264	N	0.465351	0.911795	0.173740
	N265	N	0.541213	0.080913	0.171541
	N266	N	0.465402	0.082015	0.818441
	N267	N	0.540179	0.911911	0.817350
	N268	N	0.917437	0.175131	0.457889
	N269	N	0.089511	0.177033	0.531516
	N270	N	0.086590	0.820750	0.457902
	N271	N	0.914184	0.817605	0.531649
	N272	N	0.183609	0.460551	0.906942
	N273	N	0.182275	0.534086	0.079561
	N274	N	0.823129	0.461090	0.081788
	N275	N	0.825176	0.534860	0.909484
	O276	O	0.968020	1.052138	0.041348
	H277	H	0.972485	1.054982	0.033232
	H278	H	0.971522	1.036776	0.043128
	O279	O	0.015968	-0.022990	0.949133
	H280	H	0.011965	-0.022179	0.944588
	H281	H	0.018027	-0.019526	0.960400
	O282	O	0.049350	-0.049938	-0.048087
	H283	H	0.046249	-0.048087	-0.037594
	H284	H	0.042927	-0.044346	-0.054231
	O285	O	0.503947	0.491842	0.491093
	H286	H	0.511298	0.497395	0.475077
	H287	H	0.490344	0.487030	0.500889
	O288	O	-0.003687	-0.011954	-0.091372
	H289	H	-0.005444	-0.018416	-0.099695
	H290	H	-0.005057	-0.015209	-0.085746
	O291	O	-0.033084	1.065700	-0.007196
	H292	H	-0.042825	1.075127	-0.002323
	H293	H	-0.034194	1.065552	-0.010434
	O294	O	-0.031827	0.993137	0.062340
	H295	H	-0.035612	0.989626	0.073597
	H296	H	-0.040518	0.997285	0.064631
	O297	O	0.537310	0.569547	0.515579
	H298	H	0.541483	0.567849	0.512588
	H299	H	0.529930	0.567585	0.518509
	O300	O	0.458854	0.475480	0.479545
	H301	H	0.455044	0.478968	0.478520
	H302	H	0.460050	0.469150	0.488694
	O303	O	1.007042	-0.036111	0.977602
	H304	H	1.013346	-0.039107	0.986187
	H305	H	1.002058	-0.029201	0.969131
	O306	O	0.016567	0.982495	0.987345
	H307	H	0.012708	0.987836	0.991100
	H308	H	0.014593	0.992330	0.991004
	O309	O	-0.031192	0.991723	1.056877
	H310	H	-0.021473	0.986371	1.051251
	H311	H	-0.032733	0.997718	1.065058
	O312	O	0.045711	0.019261	1.022053
	H313	H	0.055825	0.019137	1.022275
	H314	H	0.054203	0.007351	1.009574
	O315	O	0.523084	0.528855	0.494112
	H316	H	0.530336	0.536362	0.494160
	H317	H	0.520797	0.531071	0.491733
	O318	O	0.017004	0.013613	1.034855
	H319	H	0.015776	0.013332	1.037917
	H320	H	0.019647	0.016871	1.036130
	O321	O	0.530463	0.443732	0.499386
	H322	H	0.524657	0.429767	0.491143
	H323	H	0.533274	0.436303	0.502124
	O324	O	1.003666	-0.019797	0.953354
	H325	H	0.992001	-0.029029	0.949741
	H326	H	1.009886	-0.011061	0.944444
	O327	O	1.027976	1.045807	0.945022
	H328	H	1.018807	1.039222	0.943762
	H329	H	1.033092	1.039346	0.943184
	O330	O	0.475687	0.434809	0.492188
	H331	H	0.468158	0.435265	0.494884
	H332	H	0.479683	0.447529	0.496582
	O333	O	0.451932	0.477972	0.517717
	H334	H	0.446510	0.474643	0.508125
	H335	H	0.445705	0.480102	0.522988
	O336	O	0.476629	0.518169	0.445611
	H337	H	0.479913	0.525536	0.454966
	H338	H	0.469674	0.525298	0.449241
	O339	O	0.546082	0.543765	0.522087
	H340	H	0.540810	0.550708	0.522040
	H341	H	0.559919	0.548798	0.522961
	O342	O	0.506344	0.579408	0.450269
	H343	H	0.505944	0.560913	0.451079
	H344	H	0.519735	0.581103	0.444323
	O345	O	0.525976	0.469295	0.524778
	H346	H	0.516670	0.467026	0.525755
	H347	H	0.534916	0.473523	0.532941
