data_Molecule from HDF5

_cell_length_a		16.272850
_cell_length_b		16.264641
_cell_length_c		16.342140
_cell_angle_alpha	90.002056
_cell_angle_beta	89.935105
_cell_angle_gamma	89.956552
_symmetry_space_group_name_H-M	'P 1'
_symmetry_Int_Tables_number		1

loop_
	_symmetry_equiv_pos_as_xyz
	x,y,z

loop_
	_atom_site_label
	_atom_site_type_symbol
	_atom_site_fract_x
	_atom_site_fract_y
	_atom_site_fract_z
	H0	H	0.401650	0.836409	0.714798
	H1	H	0.598114	0.163760	0.714173
	H2	H	0.598493	0.836504	0.285196
	H3	H	0.402551	0.163926	0.285650
	H4	H	0.713629	0.402078	0.836174
	H5	H	0.713546	0.597584	0.163318
	H6	H	0.285152	0.597540	0.836548
	H7	H	0.286397	0.402246	0.163856
	H8	H	0.835832	0.714338	0.402813
	H9	H	0.164580	0.713745	0.597175
	H10	H	0.836212	0.286388	0.598223
	H11	H	0.164450	0.287449	0.402975
	H12	H	0.836209	0.402136	0.714668
	H13	H	0.163150	0.599081	0.715552
	H14	H	0.836295	0.599313	0.285264
	H15	H	0.163090	0.401153	0.285342
	H16	H	0.400769	0.714950	0.835865
	H17	H	0.596066	0.713614	0.163483
	H18	H	0.597683	0.285313	0.836683
	H19	H	0.400822	0.284474	0.162709
	H20	H	0.714369	0.835730	0.402305
	H21	H	0.712962	0.164715	0.596411
	H22	H	0.287544	0.835903	0.596131
	H23	H	0.288222	0.164814	0.403505
	H24	H	0.901306	0.335929	0.214645
	H25	H	0.097339	0.663986	0.214032
	H26	H	0.099238	0.335775	0.785104
	H27	H	0.901116	0.663130	0.785396
	H28	H	0.215377	0.901512	0.336746
	H29	H	0.213948	0.097370	0.663486
	H30	H	0.786802	0.097329	0.335840
	H31	H	0.785024	0.900798	0.663142
	H32	H	0.336035	0.213092	0.902125
	H33	H	0.663471	0.213298	0.096441
	H34	H	0.334910	0.788125	0.095998
	H35	H	0.663773	0.786147	0.902750
	H36	H	0.336677	0.901745	0.214955
	H37	H	0.663665	0.098504	0.213575
	H38	H	0.336922	0.098835	0.784990
	H39	H	0.663847	0.901026	0.785137
	H40	H	0.902626	0.214615	0.336416
	H41	H	0.097516	0.214220	0.663235
	H42	H	0.097223	0.786640	0.336646
	H43	H	0.903078	0.786955	0.663705
	H44	H	0.213713	0.335323	0.901931
	H45	H	0.212877	0.664471	0.096635
	H46	H	0.785599	0.335947	0.097432
	H47	H	0.785107	0.663436	0.901532
	H48	H	0.402958	0.119149	0.595340
	H49	H	0.594935	0.880375	0.602323
	H50	H	0.594265	0.114399	0.414863
	H51	H	0.400170	0.881173	0.406822
	H52	H	0.582124	0.406568	0.112553
	H53	H	0.586308	0.586883	0.887477
	H54	H	0.412047	0.598849	0.115346
	H55	H	0.408918	0.403551	0.883362
	H56	H	0.114607	0.587565	0.408396
	H57	H	0.884198	0.587621	0.599424
	H58	H	0.119867	0.403611	0.600575
	H59	H	0.883452	0.403556	0.411275
	H60	H	0.116445	0.402853	0.586614
	H61	H	0.881185	0.600300	0.595162
	H62	H	0.117820	0.593907	0.401314
	H63	H	0.884671	0.411551	0.407801
	H64	H	0.398819	0.597922	0.118995
	H65	H	0.590996	0.602129	0.881635
	H66	H	0.596898	0.397258	0.119679
	H67	H	0.402987	0.405031	0.881866
	H68	H	0.601723	0.120302	0.401516
	H69	H	0.583936	0.886448	0.590693
	H70	H	0.410336	0.116802	0.596912
	H71	H	0.410957	0.882602	0.400057
	H72	H	0.905125	0.617810	0.095407
	H73	H	0.103640	0.378374	0.099157
	H74	H	0.091125	0.613677	0.912156
	H75	H	0.906458	0.381349	0.902461
	H76	H	0.099729	0.904133	0.618426
	H77	H	0.093501	0.085247	0.386647
	H78	H	0.892207	0.093350	0.619871
	H79	H	0.902470	0.905929	0.381993
	H80	H	0.618311	0.100094	0.907614
	H81	H	0.377746	0.107542	0.096536
	H82	H	0.613946	0.909826	0.087239
	H83	H	0.383645	0.906832	0.910065
	H84	H	0.617301	0.909092	0.098689
	H85	H	0.388341	0.088343	0.079250
	H86	H	0.613657	0.088681	0.912427
	H87	H	0.383558	0.910522	0.904573
	H88	H	0.912662	0.082244	0.610962
	H89	H	0.086517	0.099306	0.383926
	H90	H	0.094884	0.913023	0.614854
	H91	H	0.907982	0.911608	0.385916
	H92	H	0.096750	0.617180	0.906588
	H93	H	0.082367	0.384206	0.101493
	H94	H	0.909175	0.615578	0.093238
	H95	H	0.910381	0.384364	0.908646
	H96	H	0.407539	0.115571	0.590075
	H97	H	0.599938	0.883104	0.586133
	H98	H	0.585669	0.115936	0.400894
	H99	H	0.410849	0.885929	0.412222
	H100	H	0.598755	0.415463	0.114739
	H101	H	0.602534	0.589739	0.882460
	H102	H	0.405319	0.587177	0.113246
	H103	H	0.406648	0.409241	0.885211
	H104	H	0.115782	0.597023	0.410285
	H105	H	0.886255	0.591861	0.586463
	H106	H	0.114742	0.414814	0.594374
	H107	H	0.881264	0.405154	0.402616
	H108	H	0.904766	0.615777	0.090758
	H109	H	0.093030	0.386912	0.081745
	H110	H	0.088551	0.615852	0.903802
	H111	H	0.903059	0.382895	0.909466
	H112	H	0.089354	0.903526	0.615437
	H113	H	0.102327	0.097436	0.379859
	H114	H	0.913059	0.106293	0.617300
	H115	H	0.910706	0.903888	0.383917
	H116	H	0.617469	0.089122	0.900261
	H117	H	0.383014	0.081981	0.105606
	H118	H	0.617774	0.899547	0.091842
	H119	H	0.382439	0.904362	0.903785
	C120	C	0.379041	0.008641	0.621721
	C121	C	0.621401	0.991617	0.621141
	C122	C	0.622085	0.008207	0.378103
	C123	C	0.379336	0.991884	0.378699
	C124	C	0.621303	0.378101	0.007917
	C125	C	0.621485	0.621756	0.991481
	C126	C	0.377435	0.622268	0.007635
	C127	C	0.378095	0.378138	0.992083
	C128	C	0.007950	0.621751	0.378492
	C129	C	0.991955	0.621830	0.621876
	C130	C	0.008504	0.378687	0.621947
	C131	C	0.991672	0.378865	0.379048
	C132	C	0.877865	0.508365	0.122027
	C133	C	0.121624	0.491712	0.122084
	C134	C	0.121087	0.507382	0.878901
	C135	C	0.878372	0.491197	0.878407
	C136	C	0.122608	0.878420	0.508303
	C137	C	0.122153	0.122029	0.491573
	C138	C	0.878104	0.122125	0.507929
	C139	C	0.878812	0.878906	0.492185
	C140	C	0.508191	0.121207	0.878541
	C141	C	0.491323	0.120989	0.121467
	C142	C	0.508207	0.878573	0.121062
	C143	C	0.491723	0.878449	0.878075
	C144	C	0.381579	0.885219	0.676560
	C145	C	0.618819	0.115193	0.676293
	C146	C	0.619344	0.885128	0.323110
	C147	C	0.382037	0.115130	0.323762
	C148	C	0.676191	0.380842	0.885210
	C149	C	0.675991	0.618749	0.114546
	C150	C	0.322976	0.618457	0.884826
	C151	C	0.323578	0.381250	0.114950
	C152	C	0.884765	0.676415	0.381766
	C153	C	0.115495	0.676080	0.618334
	C154	C	0.885034	0.323928	0.619137
	C155	C	0.115476	0.324919	0.382524
	C156	C	0.885172	0.381472	0.676782
	C157	C	0.114802	0.619435	0.677119
	C158	C	0.884814	0.619338	0.323532
	C159	C	0.114667	0.381414	0.323953
	C160	C	0.380356	0.676745	0.884636
	C161	C	0.617805	0.676339	0.114747
	C162	C	0.618475	0.322931	0.885423
	C163	C	0.380588	0.322863	0.114455
	C164	C	0.676422	0.884737	0.381504
	C165	C	0.675781	0.115472	0.617993
	C166	C	0.324560	0.884861	0.618093
	C167	C	0.325612	0.115735	0.382422
	C168	C	0.880419	0.384783	0.176835
	C169	C	0.118427	0.615171	0.176508
	C170	C	0.119091	0.384480	0.823386
	C171	C	0.880778	0.614306	0.823179
	C172	C	0.177129	0.881289	0.385199
	C173	C	0.176141	0.118278	0.614686
	C174	C	0.824267	0.118336	0.384750
	C175	C	0.823543	0.881099	0.614656
	C176	C	0.384902	0.175511	0.881419
	C177	C	0.614692	0.175952	0.117842
	C178	C	0.384123	0.825042	0.117534
	C179	C	0.615098	0.823628	0.881492
	C180	C	0.385077	0.881548	0.176311
	C181	C	0.614833	0.118437	0.175612
	C182	C	0.385436	0.118779	0.823260
	C183	C	0.615063	0.880598	0.823226
	C184	C	0.881741	0.176619	0.384970
	C185	C	0.118298	0.176117	0.614627
	C186	C	0.118825	0.824036	0.385442
	C187	C	0.881901	0.824242	0.614874
	C188	C	0.176272	0.384220	0.881383
	C189	C	0.175674	0.615198	0.118166
	C190	C	0.823132	0.384778	0.118880
	C191	C	0.823284	0.614544	0.880948
	C192	C	0.400551	0.094890	0.600345
	C193	C	0.599429	0.905701	0.599445
	C194	C	0.600270	0.094649	0.399488
	C195	C	0.400922	0.905502	0.400199
	C196	C	0.599214	0.399978	0.093697
	C197	C	0.599678	0.599490	0.906107
	C198	C	0.399073	0.600917	0.093613
	C199	C	0.399700	0.399713	0.905705
	C200	C	0.094058	0.599461	0.400274
	C201	C	0.905999	0.599790	0.600237
	C202	C	0.094537	0.400372	0.600208
	C203	C	0.905364	0.400390	0.400875
	C204	C	0.899913	0.594309	0.099950
	C205	C	0.099562	0.405425	0.100396
	C206	C	0.098666	0.593476	0.901085
	C207	C	0.900091	0.405102	0.900415
	C208	C	0.101129	0.900481	0.594134
	C209	C	0.100493	0.100403	0.405688
	C210	C	0.899558	0.100406	0.594007
	C211	C	0.900660	0.900620	0.406147
	C212	C	0.594233	0.099372	0.900435
	C213	C	0.405200	0.099196	0.100064
	C214	C	0.594257	0.899862	0.099120
	C215	C	0.405559	0.900535	0.899784
	Zn216	Zn	0.500572	0.000192	0.750238
	Zn217	Zn	0.500102	-0.000149	0.249986
	Zn218	Zn	0.750242	0.499479	0.000070
	Zn219	Zn	0.249597	0.499641	-0.000154
	Zn220	Zn	0.000186	0.750332	0.500229
	Zn221	Zn	0.000133	0.250537	0.500080
	Zn222	Zn	0.000341	0.499992	0.750472
	Zn223	Zn	-0.000755	0.499888	0.250361
	Zn224	Zn	0.499534	0.750283	-0.000517
	Zn225	Zn	0.499525	0.249390	0.000001
	Zn226	Zn	0.750185	-0.000109	0.500026
	Zn227	Zn	0.251132	0.000265	0.499581
	N228	N	0.414873	0.963102	0.678696
	N229	N	0.585882	0.037390	0.678597
	N230	N	0.586457	0.963038	0.320793
	N231	N	0.414676	0.037101	0.321421
	N232	N	0.677932	0.414451	0.962407
	N233	N	0.678424	0.585545	0.037106
	N234	N	0.321069	0.585337	0.962335
	N235	N	0.322125	0.414809	0.037678
	N236	N	0.962266	0.677973	0.415210
	N237	N	0.038085	0.677658	0.584737
	N238	N	0.962642	0.322009	0.585833
	N239	N	0.037764	0.323129	0.416082
	N240	N	0.962837	0.414997	0.678554
	N241	N	0.037100	0.586284	0.679334
	N242	N	0.962418	0.585695	0.321668
	N243	N	0.036823	0.414262	0.321795
	N244	N	0.413384	0.679291	0.962097
	N245	N	0.584427	0.678064	0.037448
	N246	N	0.585103	0.321002	0.962781
	N247	N	0.413791	0.320974	0.036987
	N248	N	0.678016	0.962294	0.415026
	N249	N	0.677537	0.037819	0.584454
	N250	N	0.322845	0.962510	0.584718
	N251	N	0.323773	0.037957	0.415812
	N252	N	0.913788	0.462453	0.178766
	N253	N	0.085268	0.537309	0.178935
	N254	N	0.085430	0.462070	0.821934
	N255	N	0.914474	0.536561	0.821684
	N256	N	0.179469	0.914483	0.462524
	N257	N	0.178401	0.085040	0.537218
	N258	N	0.821821	0.085518	0.462381
	N259	N	0.821714	0.914430	0.537231
	N260	N	0.462251	0.177063	0.915270
	N261	N	0.536955	0.177677	0.084891
	N262	N	0.461572	0.823122	0.083689
	N263	N	0.537299	0.822131	0.914797
	N264	N	0.463055	0.914032	0.178506
	N265	N	0.537293	0.084918	0.177661
	N266	N	0.463284	0.085835	0.821351
	N267	N	0.537462	0.914076	0.821062
	N268	N	0.914768	0.178898	0.462434
	N269	N	0.085553	0.178575	0.536983
	N270	N	0.085568	0.822373	0.462866
	N271	N	0.915579	0.822809	0.537610
	N272	N	0.177622	0.461686	0.915227
	N273	N	0.177614	0.537384	0.085106
	N274	N	0.821570	0.462362	0.085393
	N275	N	0.821715	0.537112	0.914651
