data_Molecule from HDF5

_cell_length_a		16.346544
_cell_length_b		16.241071
_cell_length_c		16.232996
_cell_angle_alpha	89.876667
_cell_angle_beta	90.090332
_cell_angle_gamma	89.923798
_symmetry_space_group_name_H-M	'P 1'
_symmetry_Int_Tables_number		1

loop_
	_symmetry_equiv_pos_as_xyz
	x,y,z

loop_
	_atom_site_label
	_atom_site_type_symbol
	_atom_site_fract_x
	_atom_site_fract_y
	_atom_site_fract_z
	H0	H	0.415534	0.833036	0.711839
	H1	H	0.610062	0.161813	0.710828
	H2	H	0.609663	0.832465	0.285562
	H3	H	0.415206	0.161146	0.284145
	H4	H	0.725926	0.397931	0.833747
	H5	H	0.727511	0.596065	0.161319
	H6	H	0.296898	0.596539	0.833250
	H7	H	0.297623	0.397126	0.160879
	H8	H	0.848849	0.712854	0.397518
	H9	H	0.175474	0.710759	0.596015
	H10	H	0.848990	0.283492	0.594339
	H11	H	0.176305	0.282339	0.398445
	H12	H	0.848813	0.398806	0.711053
	H13	H	0.175102	0.594633	0.712323
	H14	H	0.848674	0.595086	0.282098
	H15	H	0.175399	0.398252	0.282498
	H16	H	0.413201	0.711930	0.832945
	H17	H	0.610020	0.710004	0.162504
	H18	H	0.609583	0.283712	0.833412
	H19	H	0.415974	0.283262	0.161928
	H20	H	0.727102	0.833331	0.399533
	H21	H	0.727081	0.161467	0.596311
	H22	H	0.297261	0.833985	0.598958
	H23	H	0.297344	0.160457	0.397054
	H24	H	0.915784	0.332243	0.211261
	H25	H	0.109436	0.661859	0.209699
	H26	H	0.107945	0.332777	0.785458
	H27	H	0.914347	0.662151	0.784637
	H28	H	0.228551	0.897824	0.333411
	H29	H	0.228405	0.096285	0.661076
	H30	H	0.797232	0.096195	0.333192
	H31	H	0.797858	0.897414	0.661153
	H32	H	0.349480	0.211301	0.898760
	H33	H	0.675381	0.210973	0.096022
	H34	H	0.347849	0.783497	0.094381
	H35	H	0.675514	0.782344	0.900595
	H36	H	0.348985	0.898109	0.213310
	H37	H	0.675623	0.093784	0.211570
	H38	H	0.349342	0.094951	0.783147
	H39	H	0.676027	0.898726	0.784448
	H40	H	0.916143	0.209562	0.332148
	H41	H	0.110773	0.210672	0.661296
	H42	H	0.110271	0.783498	0.332607
	H43	H	0.916268	0.784109	0.662293
	H44	H	0.226536	0.333443	0.897849
	H45	H	0.226584	0.660912	0.095016
	H46	H	0.797508	0.332726	0.097215
	H47	H	0.796350	0.660065	0.898967
	H48	H	0.415895	0.114954	0.588367
	H49	H	0.612222	0.877363	0.595797
	H50	H	0.602503	0.112340	0.407308
	H51	H	0.419166	0.882560	0.415276
	H52	H	0.603121	0.401304	0.114480
	H53	H	0.600023	0.592610	0.881608
	H54	H	0.421527	0.596328	0.114735
	H55	H	0.416005	0.407924	0.879960
	H56	H	0.126809	0.587124	0.403512
	H57	H	0.896640	0.586109	0.590379
	H58	H	0.128069	0.404646	0.592208
	H59	H	0.898602	0.409563	0.405091
	H60	H	0.129588	0.402605	0.592465
	H61	H	0.894470	0.592981	0.593689
	H62	H	0.128773	0.591495	0.402886
	H63	H	0.893891	0.401902	0.399567
	H64	H	0.411709	0.587886	0.115452
	H65	H	0.609287	0.591130	0.878642
	H66	H	0.607754	0.402193	0.115806
	H67	H	0.422090	0.404459	0.882225
	H68	H	0.609692	0.114913	0.405552
	H69	H	0.599554	0.881697	0.595151
	H70	H	0.420118	0.114860	0.593151
	H71	H	0.412759	0.877155	0.401384
	H72	H	0.916709	0.613319	0.087913
	H73	H	0.113574	0.377310	0.092926
	H74	H	0.106992	0.610676	0.917049
	H75	H	0.918196	0.376485	0.894918
	H76	H	0.103877	0.908729	0.612494
	H77	H	0.105452	0.091960	0.380231
	H78	H	0.923322	0.094431	0.614381
	H79	H	0.917854	0.910627	0.382039
	H80	H	0.627573	0.092532	0.909666
	H81	H	0.396179	0.092018	0.088795
	H82	H	0.629220	0.900662	0.093279
	H83	H	0.397037	0.901017	0.909707
	H84	H	0.627575	0.902398	0.090582
	H85	H	0.396773	0.087882	0.090855
	H86	H	0.627564	0.085198	0.903339
	H87	H	0.398327	0.910670	0.905156
	H88	H	0.913397	0.091456	0.616503
	H89	H	0.108004	0.089507	0.380016
	H90	H	0.103660	0.899968	0.614475
	H91	H	0.922973	0.902835	0.380697
	H92	H	0.115594	0.619452	0.897162
	H93	H	0.100343	0.380174	0.095708
	H94	H	0.917962	0.614703	0.092814
	H95	H	0.926941	0.382964	0.908129
	H96	H	0.422365	0.112361	0.587643
	H97	H	0.607393	0.882575	0.583644
	H98	H	0.604413	0.114678	0.400590
	H99	H	0.428062	0.881117	0.402497
	H100	H	0.605246	0.406129	0.114244
	H101	H	0.603580	0.584011	0.882951
	H102	H	0.423375	0.583414	0.111523
	H103	H	0.417182	0.401146	0.879157
	H104	H	0.127210	0.590180	0.406838
	H105	H	0.896475	0.592471	0.585912
	H106	H	0.128311	0.403309	0.590258
	H107	H	0.896933	0.400202	0.409052
	H108	H	0.921660	0.612679	0.088934
	H109	H	0.105113	0.382084	0.082689
	H110	H	0.093577	0.612631	0.898352
	H111	H	0.910644	0.379324	0.909974
	H112	H	0.111504	0.904642	0.615528
	H113	H	0.105325	0.088907	0.380898
	H114	H	0.920326	0.083999	0.611679
	H115	H	0.914624	0.902924	0.378663
	H116	H	0.632097	0.094532	0.900221
	H117	H	0.394956	0.090689	0.093781
	H118	H	0.627866	0.903674	0.093942
	H119	H	0.394322	0.902546	0.898878
	C120	C	0.391686	0.005558	0.618712
	C121	C	0.634488	0.989135	0.619420
	C122	C	0.633777	0.005434	0.376777
	C123	C	0.391445	0.988427	0.376620
	C124	C	0.633250	0.375563	0.006058
	C125	C	0.632829	0.617766	0.989700
	C126	C	0.390107	0.618254	0.005682
	C127	C	0.390502	0.375400	0.988567
	C128	C	0.019946	0.618716	0.375338
	C129	C	1.003715	0.618769	0.618889
	C130	C	0.020712	0.375342	0.619310
	C131	C	1.004387	0.375273	0.375657
	C132	C	0.890513	0.505149	0.118788
	C133	C	0.134293	0.488430	0.118719
	C134	C	0.133543	0.505815	0.875644
	C135	C	0.890022	0.488398	0.875707
	C136	C	0.134621	0.875826	0.505360
	C137	C	0.134402	0.118420	0.488960
	C138	C	0.890689	0.119070	0.505724
	C139	C	0.890883	0.876189	0.489091
	C140	C	0.521115	0.119043	0.875399
	C141	C	0.504163	0.118187	0.119228
	C142	C	0.520215	0.874379	0.120203
	C143	C	0.504122	0.875921	0.876549
	C144	C	0.394336	0.882309	0.674459
	C145	C	0.631470	0.112677	0.673830
	C146	C	0.630781	0.881704	0.322536
	C147	C	0.394238	0.111957	0.321218
	C148	C	0.687897	0.378161	0.882608
	C149	C	0.689238	0.616209	0.112568
	C150	C	0.334788	0.616893	0.882048
	C151	C	0.335764	0.377162	0.112131
	C152	C	0.897479	0.674390	0.377388
	C153	C	0.126646	0.673225	0.616426
	C154	C	0.897780	0.320726	0.615622
	C155	C	0.127405	0.320518	0.378556
	C156	C	0.897545	0.378390	0.673294
	C157	C	0.126491	0.615538	0.674139
	C158	C	0.897426	0.616001	0.319891
	C159	C	0.126960	0.377933	0.320401
	C160	C	0.392661	0.674087	0.882012
	C161	C	0.630411	0.672601	0.113280
	C162	C	0.630048	0.321354	0.882298
	C163	C	0.394291	0.320406	0.112582
	C164	C	0.689064	0.882069	0.379018
	C165	C	0.689549	0.112440	0.617010
	C166	C	0.335753	0.882686	0.618057
	C167	C	0.336080	0.111811	0.377807
	C168	C	0.894088	0.381238	0.173732
	C169	C	0.130579	0.612491	0.172623
	C170	C	0.129180	0.381933	0.822399
	C171	C	0.893163	0.612588	0.821619
	C172	C	0.189956	0.878023	0.382095
	C173	C	0.189635	0.115960	0.612487
	C174	C	0.835645	0.116419	0.382034
	C175	C	0.836083	0.877589	0.612572
	C176	C	0.398159	0.173752	0.878173
	C177	C	0.626961	0.172627	0.116140
	C178	C	0.396821	0.820328	0.116387
	C179	C	0.627054	0.820251	0.879632
	C180	C	0.397315	0.877557	0.175037
	C181	C	0.626870	0.114535	0.173794
	C182	C	0.398185	0.116262	0.820457
	C183	C	0.627301	0.878022	0.821864
	C184	C	0.894415	0.172946	0.381558
	C185	C	0.131122	0.172592	0.612560
	C186	C	0.131216	0.821246	0.381645
	C187	C	0.895035	0.821699	0.613014
	C188	C	0.188219	0.382250	0.878080
	C189	C	0.188896	0.612041	0.115834
	C190	C	0.835753	0.381577	0.117023
	C191	C	0.834426	0.611597	0.878147
	C192	C	0.413135	0.091784	0.596331
	C193	C	0.612840	0.902794	0.597734
	C194	C	0.611982	0.091679	0.398068
	C195	C	0.413522	0.902597	0.399665
	C196	C	0.611722	0.397085	0.092624
	C197	C	0.610786	0.595608	0.903261
	C198	C	0.412242	0.595714	0.091568
	C199	C	0.411948	0.397936	0.902567
	C200	C	0.105546	0.596123	0.397761
	C201	C	0.918032	0.597006	0.596598
	C202	C	0.106506	0.397088	0.598059
	C203	C	0.918539	0.397409	0.397892
	C204	C	0.912231	0.591174	0.096458
	C205	C	0.112791	0.402245	0.096785
	C206	C	0.111839	0.592098	0.897578
	C207	C	0.911991	0.401910	0.897811
	C208	C	0.112906	0.897936	0.591761
	C209	C	0.112872	0.096462	0.402596
	C210	C	0.912616	0.096683	0.592029
	C211	C	0.912090	0.898596	0.402571
	C212	C	0.606965	0.097089	0.897709
	C213	C	0.418081	0.096632	0.097533
	C214	C	0.605935	0.895879	0.098905
	C215	C	0.418861	0.898284	0.898170
	Zn216	Zn	0.513236	-0.002516	0.747500
	Zn217	Zn	0.512366	-0.003162	0.248687
	Zn218	Zn	0.761723	0.496109	-0.002545
	Zn219	Zn	0.261953	0.496993	-0.003051
	Zn220	Zn	0.012428	0.747786	0.497011
	Zn221	Zn	0.012757	0.246556	0.497499
	Zn222	Zn	0.011815	0.497413	0.747814
	Zn223	Zn	0.012247	0.496992	0.246637
	Zn224	Zn	0.511726	0.746546	-0.002381
	Zn225	Zn	0.512339	0.247144	-0.002664
	Zn226	Zn	0.762530	-0.002789	0.498012
	Zn227	Zn	0.263165	-0.002750	0.497565
	N228	N	0.428674	0.959602	0.674706
	N229	N	0.598020	0.035012	0.675348
	N230	N	0.597121	0.959337	0.321083
	N231	N	0.427876	0.034318	0.320496
	N232	N	0.689855	0.411015	0.960626
	N233	N	0.690808	0.582825	0.034729
	N234	N	0.333315	0.582747	0.959807
	N235	N	0.333211	0.410593	0.034142
	N236	N	0.974877	0.676321	0.410923
	N237	N	0.049382	0.675405	0.582807
	N238	N	0.975215	0.318693	0.582555
	N239	N	0.050141	0.319001	0.412224
	N240	N	0.974964	0.411506	0.675859
	N241	N	0.049002	0.582597	0.675916
	N242	N	0.974605	0.581931	0.318757
	N243	N	0.049496	0.411342	0.318577
	N244	N	0.426194	0.675294	0.959764
	N245	N	0.595837	0.673621	0.035866
	N246	N	0.596659	0.319703	0.960216
	N247	N	0.427603	0.319107	0.034954
	N248	N	0.691055	0.959879	0.412241
	N249	N	0.691278	0.034591	0.583506
	N250	N	0.333835	0.960400	0.584232
	N251	N	0.334068	0.033982	0.411599
	N252	N	0.927553	0.458878	0.174922
	N253	N	0.097247	0.534701	0.174623
	N254	N	0.095709	0.459642	0.820996
	N255	N	0.926844	0.534846	0.819935
	N256	N	0.192109	0.911157	0.460111
	N257	N	0.191614	0.082902	0.534412
	N258	N	0.833261	0.083463	0.460130
	N259	N	0.833618	0.911173	0.534642
	N260	N	0.475574	0.175555	0.911694
	N261	N	0.549426	0.174878	0.082847
	N262	N	0.474306	0.818120	0.083253
	N263	N	0.549675	0.818482	0.912708
	N264	N	0.474870	0.910317	0.177586
	N265	N	0.549596	0.081383	0.175619
	N266	N	0.475564	0.082916	0.818856
	N267	N	0.550167	0.912152	0.820032
	N268	N	0.928030	0.174568	0.459522
	N269	N	0.097616	0.174261	0.534921
	N270	N	0.097834	0.819604	0.459365
	N271	N	0.928329	0.820668	0.535183
	N272	N	0.191016	0.460363	0.910650
	N273	N	0.191187	0.533991	0.083090
	N274	N	0.833420	0.459494	0.083588
	N275	N	0.832511	0.533502	0.911112
	O276	O	-0.467882	0.525503	1.481796
	H277	H	-0.470631	0.523434	1.483174
	H278	H	-0.470597	0.529919	1.491538
	O279	O	0.439781	0.547755	0.384643
	H280	H	0.448503	0.540739	0.385954
	H281	H	0.435333	0.546768	0.381640
	O282	O	0.484541	0.502593	0.422473
	H283	H	0.491132	0.497896	0.431170
	H284	H	0.489695	0.503246	0.419572
	O285	O	0.431598	0.585276	0.403349
	H286	H	0.437321	0.581729	0.389390
	H287	H	0.428748	0.578669	0.399394
	O288	O	0.450366	0.506003	0.494932
	H289	H	0.444124	0.506591	0.493951
	H290	H	0.454801	0.512844	0.495588
	O291	O	-0.550709	1.585609	0.457299
	H292	H	-0.560790	1.590735	0.449443
	H293	H	-0.551283	1.593870	0.444790
	O294	O	0.517180	0.559652	0.544454
	H295	H	0.517490	0.567649	0.543515
	H296	H	0.508997	0.564475	0.536101
	O297	O	0.491544	-0.548135	0.485369
	H298	H	0.502184	-0.551206	0.494442
	H299	H	0.486417	-0.548631	0.493930
