data_Molecule from HDF5

_cell_length_a		16.256589
_cell_length_b		16.207164
_cell_length_c		16.404642
_cell_angle_alpha	90.360639
_cell_angle_beta	90.368028
_cell_angle_gamma	90.003857
_symmetry_space_group_name_H-M	'P 1'
_symmetry_Int_Tables_number		1

loop_
	_symmetry_equiv_pos_as_xyz
	x,y,z

loop_
	_atom_site_label
	_atom_site_type_symbol
	_atom_site_fract_x
	_atom_site_fract_y
	_atom_site_fract_z
	H0	H	0.402103	0.839141	0.713309
	H1	H	0.610669	0.162677	0.719943
	H2	H	0.604207	0.838708	0.279878
	H3	H	0.398037	0.163122	0.279613
	H4	H	0.721297	0.398575	0.839666
	H5	H	0.720305	0.605039	0.162811
	H6	H	0.283958	0.601921	0.837794
	H7	H	0.287438	0.403128	0.161999
	H8	H	0.840080	0.717844	0.399184
	H9	H	0.166809	0.718330	0.599545
	H10	H	0.841401	0.285800	0.598389
	H11	H	0.166144	0.287032	0.399016
	H12	H	0.841528	0.399440	0.716992
	H13	H	0.165287	0.606721	0.719481
	H14	H	0.840676	0.604710	0.281400
	H15	H	0.165233	0.400459	0.282385
	H16	H	0.400799	0.717712	0.837363
	H17	H	0.601921	0.719635	0.162275
	H18	H	0.603159	0.284800	0.838529
	H19	H	0.401914	0.284684	0.160800
	H20	H	0.721023	0.838811	0.394596
	H21	H	0.721943	0.164038	0.600868
	H22	H	0.289028	0.839221	0.594338
	H23	H	0.286802	0.164837	0.397171
	H24	H	0.899994	0.340250	0.215403
	H25	H	0.105564	0.665699	0.218769
	H26	H	0.109213	0.342974	0.777597
	H27	H	0.898069	0.665656	0.781288
	H28	H	0.219186	0.899256	0.335882
	H29	H	0.224883	0.107494	0.657702
	H30	H	0.782665	0.103558	0.338111
	H31	H	0.784015	0.896732	0.657555
	H32	H	0.340782	0.216902	0.897876
	H33	H	0.665445	0.219886	0.103834
	H34	H	0.339416	0.788059	0.095715
	H35	H	0.665503	0.784053	0.899067
	H36	H	0.340733	0.897633	0.214791
	H37	H	0.663662	0.105344	0.221025
	H38	H	0.342871	0.104262	0.779377
	H39	H	0.665192	0.895818	0.780078
	H40	H	0.898623	0.220408	0.337758
	H41	H	0.108505	0.222068	0.658240
	H42	H	0.103689	0.782996	0.337383
	H43	H	0.904197	0.786801	0.659786
	H44	H	0.217562	0.339874	0.898329
	H45	H	0.218882	0.666235	0.100749
	H46	H	0.787017	0.340083	0.101158
	H47	H	0.784200	0.665324	0.899148
	H48	H	0.413086	0.118851	0.589078
	H49	H	0.596083	0.884363	0.588435
	H50	H	0.592898	0.113892	0.419053
	H51	H	0.405113	0.883491	0.406704
	H52	H	0.587938	0.414057	0.111276
	H53	H	0.598297	0.599251	0.883058
	H54	H	0.419582	0.590123	0.109822
	H55	H	0.405541	0.408772	0.883589
	H56	H	0.119401	0.593134	0.407430
	H57	H	0.891487	0.590807	0.583811
	H58	H	0.117085	0.413070	0.586469
	H59	H	0.889132	0.416485	0.408460
	H60	H	0.117626	0.418124	0.591848
	H61	H	0.887447	0.589370	0.598295
	H62	H	0.119040	0.593565	0.408751
	H63	H	0.885687	0.412667	0.402284
	H64	H	0.412170	0.604926	0.116526
	H65	H	0.597516	0.583985	0.887766
	H66	H	0.596313	0.404996	0.117613
	H67	H	0.411348	0.413223	0.886916
	H68	H	0.599526	0.119926	0.404777
	H69	H	0.592563	0.885576	0.591971
	H70	H	0.415229	0.118717	0.591715
	H71	H	0.413434	0.883604	0.398603
	H72	H	0.911086	0.620138	0.090949
	H73	H	0.096462	0.385342	0.093496
	H74	H	0.087559	0.618259	0.906652
	H75	H	0.914105	0.387207	0.904200
	H76	H	0.099032	0.905009	0.615890
	H77	H	0.096490	0.099159	0.380444
	H78	H	0.916679	0.083725	0.608201
	H79	H	0.910366	0.904535	0.381385
	H80	H	0.618359	0.089185	0.910359
	H81	H	0.385836	0.093320	0.093971
	H82	H	0.618887	0.915226	0.092293
	H83	H	0.385943	0.916661	0.893462
	H84	H	0.619643	0.909806	0.092498
	H85	H	0.388445	0.095280	0.084874
	H86	H	0.620393	0.091991	0.905758
	H87	H	0.383922	0.898409	0.905924
	H88	H	0.920874	0.101394	0.612202
	H89	H	0.098227	0.087288	0.383506
	H90	H	0.102888	0.917101	0.613269
	H91	H	0.907483	0.915344	0.383089
	H92	H	0.091554	0.617111	0.915099
	H93	H	0.092554	0.386364	0.092735
	H94	H	0.913456	0.619418	0.093468
	H95	H	0.915775	0.389085	0.909397
	H96	H	0.416462	0.117411	0.589224
	H97	H	0.592353	0.886890	0.587476
	H98	H	0.582801	0.115272	0.405454
	H99	H	0.416246	0.887766	0.410016
	H100	H	0.600551	0.418303	0.115156
	H101	H	0.584985	0.593696	0.888813
	H102	H	0.402818	0.589911	0.115170
	H103	H	0.412440	0.406096	0.885475
	H104	H	0.118586	0.592455	0.407939
	H105	H	0.884593	0.602718	0.590715
	H106	H	0.120949	0.411403	0.593074
	H107	H	0.887394	0.408881	0.409195
	H108	H	0.913694	0.618542	0.090809
	H109	H	0.095298	0.386405	0.090028
	H110	H	0.097228	0.621084	0.908264
	H111	H	0.909965	0.386930	0.909005
	H112	H	0.090540	0.913497	0.609494
	H113	H	0.087285	0.092974	0.385533
	H114	H	0.903678	0.094668	0.615843
	H115	H	0.917462	0.912098	0.385746
	H116	H	0.620256	0.095581	0.911296
	H117	H	0.389462	0.086702	0.088170
	H118	H	0.617703	0.911558	0.088032
	H119	H	0.393279	0.918065	0.914032
	C120	C	0.383861	0.010860	0.618628
	C121	C	0.625842	0.992578	0.620864
	C122	C	0.622766	0.009025	0.378020
	C123	C	0.381119	0.992552	0.375623
	C124	C	0.624893	0.380746	0.008448
	C125	C	0.624688	0.624156	0.992500
	C126	C	0.380761	0.624325	0.007500
	C127	C	0.380467	0.379780	0.991497
	C128	C	0.011644	0.623579	0.377910
	C129	C	0.995306	0.624642	0.621152
	C130	C	0.011849	0.382129	0.620571
	C131	C	0.994454	0.381501	0.377092
	C132	C	0.882584	0.511289	0.120749
	C133	C	0.124892	0.494115	0.122207
	C134	C	0.123284	0.511817	0.878880
	C135	C	0.881604	0.494961	0.877945
	C136	C	0.125961	0.880772	0.506152
	C137	C	0.125647	0.124576	0.489105
	C138	C	0.881445	0.123921	0.506750
	C139	C	0.881887	0.880478	0.489706
	C140	C	0.512592	0.122407	0.878203
	C141	C	0.494583	0.123243	0.121453
	C142	C	0.511154	0.881613	0.119840
	C143	C	0.494673	0.879420	0.875548
	C144	C	0.383312	0.888085	0.674610
	C145	C	0.628383	0.114396	0.680066
	C146	C	0.623638	0.887369	0.318982
	C147	C	0.379924	0.114902	0.318656
	C148	C	0.682330	0.379748	0.887769
	C149	C	0.681963	0.624409	0.113998
	C150	C	0.322694	0.622386	0.886185
	C151	C	0.324926	0.382224	0.113268
	C152	C	0.888730	0.679778	0.379330
	C153	C	0.117781	0.680963	0.619842
	C154	C	0.889960	0.324159	0.618740
	C155	C	0.117033	0.324742	0.378609
	C156	C	0.890010	0.380789	0.677814
	C157	C	0.117022	0.625509	0.679637
	C158	C	0.889290	0.623931	0.320347
	C159	C	0.116548	0.381321	0.320491
	C160	C	0.380685	0.680052	0.885863
	C161	C	0.622995	0.681572	0.113866
	C162	C	0.623220	0.323164	0.887058
	C163	C	0.381957	0.323228	0.112782
	C164	C	0.681486	0.887250	0.376281
	C165	C	0.683772	0.114959	0.620806
	C166	C	0.326646	0.888283	0.615900
	C167	C	0.324553	0.115667	0.377087
	C168	C	0.881891	0.389082	0.177133
	C169	C	0.124299	0.616950	0.179383
	C170	C	0.125711	0.390466	0.818792
	C171	C	0.879750	0.616961	0.820447
	C172	C	0.181581	0.880028	0.384690
	C173	C	0.185316	0.126196	0.609640
	C174	C	0.822177	0.123432	0.385943
	C175	C	0.823723	0.879149	0.609918
	C176	C	0.390029	0.179283	0.878008
	C177	C	0.616536	0.181245	0.122870
	C178	C	0.388423	0.825376	0.116804
	C179	C	0.616843	0.822097	0.878281
	C180	C	0.389025	0.880179	0.175965
	C181	C	0.615487	0.124481	0.181287
	C182	C	0.391281	0.123429	0.818639
	C183	C	0.616670	0.878065	0.819282
	C184	C	0.879979	0.181338	0.385789
	C185	C	0.127334	0.183353	0.609998
	C186	C	0.123794	0.822297	0.385305
	C187	C	0.883632	0.824313	0.611014
	C188	C	0.180141	0.389143	0.878527
	C189	C	0.181073	0.617208	0.121054
	C190	C	0.825457	0.388789	0.119922
	C191	C	0.823085	0.616836	0.879061
	C192	C	0.407858	0.096042	0.596604
	C193	C	0.600938	0.907562	0.596414
	C194	C	0.598761	0.094256	0.402659
	C195	C	0.404782	0.907279	0.398435
	C196	C	0.601550	0.405298	0.092736
	C197	C	0.600701	0.599474	0.908130
	C198	C	0.404542	0.601807	0.091875
	C199	C	0.403076	0.402659	0.907234
	C200	C	0.096893	0.600126	0.401283
	C201	C	0.910047	0.601184	0.597588
	C202	C	0.096545	0.407106	0.597402
	C203	C	0.909374	0.405388	0.400021
	C204	C	0.906011	0.596895	0.098113
	C205	C	0.101608	0.408333	0.098968
	C206	C	0.099058	0.596809	0.903021
	C207	C	0.906340	0.409865	0.900895
	C208	C	0.104148	0.904924	0.590824
	C209	C	0.100989	0.100213	0.404976
	C210	C	0.906272	0.100115	0.590253
	C211	C	0.904931	0.903928	0.405135
	C212	C	0.597609	0.098917	0.902094
	C213	C	0.409823	0.098851	0.096279
	C214	C	0.596503	0.905307	0.097292
	C215	C	0.409755	0.903889	0.897971
	Zn216	Zn	0.505000	0.001769	0.748289
	Zn217	Zn	0.501628	0.001142	0.248838
	Zn218	Zn	0.754404	0.502519	0.000804
	Zn219	Zn	0.251597	0.502335	-0.000528
	Zn220	Zn	0.003241	0.752507	0.498549
	Zn221	Zn	0.003891	0.253110	0.498387
	Zn222	Zn	0.003374	0.503610	0.749783
	Zn223	Zn	0.002649	0.502672	0.249257
	Zn224	Zn	0.502828	0.753825	-0.000710
	Zn225	Zn	0.503731	0.251010	-0.000179
	Zn226	Zn	0.752525	0.001195	0.498227
	Zn227	Zn	0.254464	0.002758	0.496835
	N228	N	0.418156	0.965334	0.676566
	N229	N	0.593240	0.037172	0.680261
	N230	N	0.587931	0.964260	0.320098
	N231	N	0.414010	0.037278	0.317390
	N232	N	0.683294	0.414899	0.964192
	N233	N	0.683170	0.589416	0.037297
	N234	N	0.322511	0.588513	0.962780
	N235	N	0.323477	0.416430	0.036689
	N236	N	0.965946	0.679649	0.414454
	N237	N	0.040837	0.681025	0.584518
	N238	N	0.966789	0.324710	0.584088
	N239	N	0.040160	0.324705	0.413111
	N240	N	0.966930	0.415931	0.679241
	N241	N	0.039752	0.591332	0.680609
	N242	N	0.966517	0.589685	0.319391
	N243	N	0.039244	0.415792	0.319265
	N244	N	0.416023	0.681604	0.962217
	N245	N	0.588305	0.681646	0.037211
	N246	N	0.588403	0.323602	0.963334
	N247	N	0.415696	0.321416	0.036288
	N248	N	0.681005	0.963864	0.412496
	N249	N	0.682225	0.038252	0.584666
	N250	N	0.326571	0.965633	0.582039
	N251	N	0.324980	0.038642	0.411654
	N252	N	0.916809	0.466370	0.177869
	N253	N	0.090403	0.539087	0.180385
	N254	N	0.091030	0.467756	0.818936
	N255	N	0.915391	0.539958	0.819613
	N256	N	0.182899	0.916031	0.460913
	N257	N	0.184431	0.090232	0.533485
	N258	N	0.822810	0.088378	0.462088
	N259	N	0.822641	0.913494	0.533468
	N260	N	0.466516	0.178818	0.914466
	N261	N	0.539988	0.180809	0.086660
	N262	N	0.465530	0.826307	0.082519
	N263	N	0.539947	0.823006	0.912679
	N264	N	0.466330	0.914362	0.177986
	N265	N	0.538626	0.089189	0.180460
	N266	N	0.468453	0.088794	0.818724
	N267	N	0.539792	0.913106	0.817507
	N268	N	0.916210	0.182041	0.461683
	N269	N	0.090858	0.182241	0.534148
	N270	N	0.089959	0.822629	0.461748
	N271	N	0.919020	0.825109	0.535190
	N272	N	0.178712	0.465480	0.915452
	N273	N	0.181482	0.539891	0.086121
	N274	N	0.825843	0.465784	0.085399
	N275	N	0.823826	0.539921	0.913910
	O276	O	0.116702	0.140573	0.009769
	H277	H	0.111958	0.119439	0.007284
	H278	H	0.129474	0.135271	0.004829
	O279	O	0.472608	0.442544	0.502487
	H280	H	0.479327	0.441978	0.494449
	H281	H	0.473333	0.442529	0.485364
	O282	O	0.948520	0.061653	-0.017066
	H283	H	0.944150	0.074511	-0.004666
	H284	H	0.946292	0.053292	-0.023496
	O285	O	-0.035172	1.009690	0.072143
	H286	H	-0.024195	1.008485	0.060149
	H287	H	-0.045723	1.019560	0.081416
	O288	O	0.940445	0.903200	-0.048650
	H289	H	0.940846	0.901443	-0.038304
	H290	H	0.945193	0.905741	-0.042330
	O291	O	0.603485	0.562174	0.671134
	H292	H	0.600746	0.570666	0.665897
	H293	H	0.595409	0.566854	0.654805
	O294	O	0.844009	1.064185	0.943558
	H295	H	0.844514	1.063322	0.924325
	H296	H	0.833100	1.073812	0.933015
	O297	O	-0.014950	-0.034876	-0.046190
	H298	H	-0.026582	-0.038278	-0.024223
	H299	H	-0.006231	-0.033965	-0.037914
	O300	O	0.531683	0.468576	0.330610
	H301	H	0.537918	0.452977	0.317521
	H302	H	0.532982	0.470965	0.332284
	O303	O	0.162564	0.970249	0.810026
	H304	H	0.151923	0.962383	0.802413
	H305	H	0.161708	0.979146	0.802504
	O306	O	0.432898	0.500001	0.500819
	H307	H	0.431192	0.499477	0.497334
	H308	H	0.431209	0.506926	0.502789
	O309	O	0.887837	-0.163555	-0.003929
	H310	H	0.895153	-0.151143	0.025557
	H311	H	0.885392	-0.176494	0.003541
	O312	O	0.044842	-0.151887	0.844547
	H313	H	0.039845	-0.148504	0.842667
	H314	H	0.041390	-0.152402	0.841435
	O315	O	0.439283	0.462979	0.490775
	H316	H	0.432014	0.468993	0.489673
	H317	H	0.451101	0.454791	0.494059
	O318	O	0.641673	0.406116	0.588602
	H319	H	0.656154	0.399430	0.602750
	H320	H	0.644625	0.441033	0.591160
	O321	O	0.446409	0.525991	0.401380
	H322	H	0.450367	0.529376	0.399400
	H323	H	0.452812	0.505144	0.404755
	O324	O	0.460782	0.601822	0.512083
	H325	H	0.451856	0.596000	0.503152
	H326	H	0.462470	0.590431	0.523485
	O327	O	0.068215	0.897028	1.161879
	H328	H	0.062973	0.928632	1.160992
	H329	H	0.067177	0.888757	1.152563
	O330	O	0.078478	0.022553	0.071921
	H331	H	0.084263	0.028305	0.080891
	H332	H	0.078596	0.016080	0.076810
	O333	O	-0.068308	1.191926	0.878012
	H334	H	-0.046477	1.193267	0.889236
	H335	H	-0.077121	1.179773	0.864524
	O336	O	1.017030	1.035673	1.040056
	H337	H	1.004849	1.026429	1.030437
	H338	H	1.016438	1.026153	1.038327
	O339	O	0.481634	0.496996	0.490657
	H340	H	0.479352	0.505681	0.506728
	H341	H	0.477741	0.487431	0.496769
	O342	O	1.200570	0.016669	-0.043798
	H343	H	1.201547	0.021265	-0.036426
	H344	H	1.199646	0.008817	-0.058669
	O345	O	0.478958	0.377408	0.593449
	H346	H	0.481539	0.371467	0.596623
	H347	H	0.496288	0.382365	0.596206
	O348	O	0.909740	1.171758	0.820985
	H349	H	0.911212	1.164398	0.835949
	H350	H	0.927618	1.182870	0.803328
	O351	O	0.509139	0.482013	0.523786
	H352	H	0.493059	0.490551	0.522812
	H353	H	0.493282	0.471542	0.535793
	O354	O	0.660362	0.606153	0.519843
	H355	H	0.667764	0.610744	0.519759
	H356	H	0.647001	0.608699	0.517789
	O357	O	0.669959	0.482303	0.496101
	H358	H	0.684745	0.489894	0.513589
	H359	H	0.670125	0.500871	0.502478
	O360	O	-0.089454	0.010629	0.017437
	H361	H	-0.086596	0.016690	-0.000896
	H362	H	-0.081652	0.003900	0.011128
	O363	O	0.554928	0.453332	0.584963
	H364	H	0.567433	0.460445	0.593626
	H365	H	0.551058	0.462515	0.580126
	O366	O	1.008954	0.007263	1.021172
	H367	H	1.009029	0.002460	0.995761
	H368	H	1.016354	0.026195	1.020552
	O369	O	0.584092	0.568518	0.496177
	H370	H	0.581783	0.578314	0.503217
	H371	H	0.560647	0.573298	0.500555
	O372	O	-0.108664	1.058400	0.915624
	H373	H	-0.129148	1.065764	0.908209
	H374	H	-0.104926	1.060957	0.936745
	O375	O	0.401333	0.575450	0.350859
	H376	H	0.412351	0.576478	0.350706
	H377	H	0.395163	0.572379	0.335196
	O378	O	0.489836	0.471001	0.535604
	H379	H	0.487420	0.462126	0.538411
	H380	H	0.486128	0.478309	0.554510
	O381	O	0.396575	0.543762	0.524112
	H382	H	0.402003	0.541516	0.521580
	H383	H	0.387301	0.531765	0.520498
	O384	O	-0.061937	0.963029	0.128500
	H385	H	-0.062197	0.982520	0.130218
	H386	H	-0.057896	0.959530	0.138481
	O387	O	1.124129	-0.046860	0.970505
	H388	H	1.126916	-0.049144	0.965880
	H389	H	1.117764	-0.047913	0.970797
	O390	O	-0.173768	1.007835	0.138386
	H391	H	-0.164099	1.010156	0.124650
	H392	H	-0.181941	1.003992	0.151715
	O393	O	0.547739	0.427845	-0.572546
	H394	H	0.558020	0.431767	-0.560708
	H395	H	0.550449	0.413574	-0.566037
	O396	O	0.515542	0.475436	0.554846
	H397	H	0.516832	0.480876	0.556619
	H398	H	0.514091	0.473617	0.543328
	O399	O	0.105725	0.996772	0.891851
	H400	H	0.096188	1.000296	0.896758
	H401	H	0.107172	0.995194	0.885014
	O402	O	1.136023	1.036969	1.198752
	H403	H	1.143553	1.041237	1.210380
	H404	H	1.141295	1.039583	1.192017
	O405	O	0.404364	0.614382	0.382230
	H406	H	0.407681	0.613479	0.369876
	H407	H	0.393233	0.610806	0.373813
