data_Molecule from HDF5

_cell_length_a		16.435779
_cell_length_b		16.556888
_cell_length_c		16.472603
_cell_angle_alpha	90.030536
_cell_angle_beta	89.879398
_cell_angle_gamma	90.076443
_symmetry_space_group_name_H-M	'P 1'
_symmetry_Int_Tables_number		1

loop_
	_symmetry_equiv_pos_as_xyz
	x,y,z

loop_
	_atom_site_label
	_atom_site_type_symbol
	_atom_site_fract_x
	_atom_site_fract_y
	_atom_site_fract_z
	H0	H	0.389256	0.844841	0.727959
	H1	H	0.600840	0.158988	0.726045
	H2	H	0.604561	0.846495	0.281992
	H3	H	0.388850	0.157777	0.278236
	H4	H	0.718084	0.399312	0.846578
	H5	H	0.716063	0.602559	0.164114
	H6	H	0.273539	0.610345	0.848417
	H7	H	0.272381	0.392524	0.161008
	H8	H	0.841092	0.720479	0.404676
	H9	H	0.155865	0.730032	0.614680
	H10	H	0.844005	0.280842	0.610504
	H11	H	0.157092	0.277640	0.394925
	H12	H	0.842781	0.399109	0.725352
	H13	H	0.157099	0.612499	0.729256
	H14	H	0.839991	0.602304	0.289325
	H15	H	0.155915	0.392907	0.279168
	H16	H	0.389388	0.727034	0.849122
	H17	H	0.604002	0.722776	0.161745
	H18	H	0.600644	0.282658	0.846550
	H19	H	0.384744	0.274037	0.159077
	H20	H	0.719841	0.846514	0.399474
	H21	H	0.716093	0.160669	0.606335
	H22	H	0.273385	0.846041	0.612038
	H23	H	0.274706	0.158687	0.396464
	H24	H	0.895063	0.344135	0.226001
	H25	H	0.107263	0.657859	0.229489
	H26	H	0.108782	0.347527	0.779637
	H27	H	0.895159	0.661030	0.785955
	H28	H	0.222370	0.894842	0.347908
	H29	H	0.224437	0.111660	0.660410
	H30	H	0.779380	0.107213	0.346084
	H31	H	0.776664	0.898175	0.662248
	H32	H	0.340800	0.227630	0.892392
	H33	H	0.654451	0.224100	0.109267
	H34	H	0.342375	0.775009	0.115431
	H35	H	0.656609	0.783125	0.901346
	H36	H	0.341305	0.892332	0.229961
	H37	H	0.655385	0.106612	0.223179
	H38	H	0.340490	0.108921	0.779635
	H39	H	0.656777	0.897288	0.784237
	H40	H	0.895020	0.224625	0.347317
	H41	H	0.109203	0.227310	0.660765
	H42	H	0.107778	0.778199	0.349506
	H43	H	0.891496	0.780856	0.661950
	H44	H	0.225298	0.347329	0.894037
	H45	H	0.225308	0.656733	0.115037
	H46	H	0.780959	0.343275	0.106911
	H47	H	0.780499	0.660539	0.904501
	H48	H	0.411687	0.111633	0.589896
	H49	H	0.588905	0.888931	0.593335
	H50	H	0.593772	0.117125	0.416232
	H51	H	0.408775	0.890602	0.415450
	H52	H	0.590169	0.405931	0.120555
	H53	H	0.588017	0.585020	0.893161
	H54	H	0.414273	0.581114	0.112458
	H55	H	0.418154	0.407163	0.893823
	H56	H	0.113539	0.590609	0.414927
	H57	H	0.886919	0.592898	0.594901
	H58	H	0.113805	0.421368	0.596712
	H59	H	0.885906	0.408126	0.419066
	H60	H	0.115847	0.408899	0.593259
	H61	H	0.887833	0.592147	0.593607
	H62	H	0.113249	0.593837	0.418452
	H63	H	0.891032	0.416398	0.421852
	H64	H	0.418521	0.592471	0.115158
	H65	H	0.583497	0.598725	0.890850
	H66	H	0.591780	0.414615	0.118795
	H67	H	0.403796	0.415195	0.890244
	H68	H	0.588369	0.117900	0.407439
	H69	H	0.588856	0.888941	0.595248
	H70	H	0.410732	0.113578	0.594061
	H71	H	0.416425	0.893165	0.415904
	H72	H	0.901949	0.618317	0.100911
	H73	H	0.084925	0.391846	0.091968
	H74	H	0.086837	0.612480	0.921530
	H75	H	0.910141	0.391314	0.917581
	H76	H	0.084054	0.915155	0.616586
	H77	H	0.081686	0.088873	0.395092
	H78	H	0.905863	0.089801	0.617279
	H79	H	0.904037	0.910556	0.388374
	H80	H	0.608537	0.092087	0.916354
	H81	H	0.384894	0.090687	0.087252
	H82	H	0.607229	0.917694	0.089668
	H83	H	0.387056	0.920312	0.915991
	H84	H	0.612003	0.913457	0.098128
	H85	H	0.386690	0.084415	0.088673
	H86	H	0.609564	0.090366	0.915411
	H87	H	0.382532	0.908661	0.913190
	H88	H	0.913144	0.091043	0.615890
	H89	H	0.087118	0.093628	0.391413
	H90	H	0.087034	0.917468	0.616729
	H91	H	0.910389	0.917193	0.393632
	H92	H	0.086262	0.614285	0.916847
	H93	H	0.084137	0.391653	0.092230
	H94	H	0.912982	0.614595	0.101764
	H95	H	0.904015	0.387362	0.913498
	H96	H	0.414859	0.111792	0.592948
	H97	H	0.587515	0.889096	0.594430
	H98	H	0.584111	0.113742	0.415671
	H99	H	0.411380	0.893667	0.422554
	H100	H	0.583167	0.411229	0.117514
	H101	H	0.597278	0.594602	0.887823
	H102	H	0.406764	0.589649	0.118072
	H103	H	0.415853	0.423207	0.898174
	H104	H	0.111880	0.589047	0.419673
	H105	H	0.887552	0.591226	0.595050
	H106	H	0.109975	0.416847	0.584657
	H107	H	0.887367	0.415497	0.412808
	H108	H	0.907129	0.613942	0.091563
	H109	H	0.083523	0.391506	0.091210
	H110	H	0.082504	0.611421	0.918664
	H111	H	0.911776	0.389146	0.909883
	H112	H	0.083910	0.918166	0.615071
	H113	H	0.089492	0.086615	0.393091
	H114	H	0.908982	0.096382	0.619410
	H115	H	0.913647	0.907612	0.391485
	H116	H	0.609866	0.091817	0.915312
	H117	H	0.383476	0.087991	0.093029
	H118	H	0.611269	0.907662	0.089386
	H119	H	0.386932	0.911699	0.924256
	C120	C	0.377293	0.009556	0.626018
	C121	C	0.619807	0.993321	0.626144
	C122	C	0.620417	0.012251	0.381667
	C123	C	0.377483	0.994690	0.383157
	C124	C	0.619562	0.379793	0.014006
	C125	C	0.620085	0.622936	0.996033
	C126	C	0.378224	0.622523	0.012668
	C127	C	0.376571	0.380293	0.996452
	C128	C	0.008168	0.622451	0.385825
	C129	C	0.991284	0.625950	0.627950
	C130	C	0.009229	0.382410	0.625005
	C131	C	0.991714	0.380239	0.383561
	C132	C	0.877130	0.510456	0.127956
	C133	C	0.119788	0.493831	0.126623
	C134	C	0.120517	0.510539	0.884074
	C135	C	0.877477	0.493807	0.883540
	C136	C	0.119431	0.882192	0.513288
	C137	C	0.121006	0.124094	0.495844
	C138	C	0.877962	0.124264	0.513259
	C139	C	0.876892	0.880697	0.496007
	C140	C	0.505417	0.123773	0.882200
	C141	C	0.488703	0.121695	0.123251
	C142	C	0.506514	0.879395	0.126707
	C143	C	0.489428	0.880957	0.884571
	C144	C	0.372008	0.892084	0.687645
	C145	C	0.620167	0.112032	0.685505
	C146	C	0.622792	0.893768	0.321862
	C147	C	0.372020	0.111139	0.319691
	C148	C	0.678529	0.379843	0.894297
	C149	C	0.677524	0.622695	0.116141
	C150	C	0.314877	0.627586	0.895437
	C151	C	0.313208	0.375282	0.113807
	C152	C	0.888405	0.680799	0.385416
	C153	C	0.108960	0.688744	0.632143
	C154	C	0.891090	0.321211	0.628465
	C155	C	0.109930	0.318457	0.378453
	C156	C	0.890494	0.379887	0.685504
	C157	C	0.109630	0.630301	0.689297
	C158	C	0.888055	0.622309	0.328007
	C159	C	0.109349	0.376025	0.320782
	C160	C	0.372657	0.685676	0.895584
	C161	C	0.621729	0.682182	0.115089
	C162	C	0.620093	0.322106	0.893986
	C163	C	0.369197	0.316009	0.112822
	C164	C	0.680337	0.893859	0.380146
	C165	C	0.677502	0.112967	0.626345
	C166	C	0.314316	0.892706	0.629847
	C167	C	0.315161	0.111693	0.378722
	C168	C	0.876330	0.391466	0.186231
	C169	C	0.125235	0.610547	0.189358
	C170	C	0.126036	0.394349	0.820448
	C171	C	0.876220	0.613101	0.825388
	C172	C	0.181912	0.877541	0.395393
	C173	C	0.183747	0.128890	0.613339
	C174	C	0.818790	0.126012	0.393910
	C175	C	0.816727	0.879461	0.614719
	C176	C	0.387726	0.185988	0.876748
	C177	C	0.606897	0.183707	0.127278
	C178	C	0.389244	0.816450	0.131964
	C179	C	0.608932	0.821895	0.882213
	C180	C	0.388632	0.875068	0.189116
	C181	C	0.607644	0.124954	0.183703
	C182	C	0.387399	0.126685	0.820402
	C183	C	0.608698	0.878961	0.824150
	C184	C	0.876141	0.184620	0.394713
	C185	C	0.126009	0.186498	0.613670
	C186	C	0.124874	0.819279	0.396086
	C187	C	0.873935	0.820908	0.614449
	C188	C	0.183951	0.394167	0.878065
	C189	C	0.183566	0.610264	0.131899
	C190	C	0.819451	0.391032	0.127149
	C191	C	0.818915	0.612891	0.884128
	C192	C	0.404557	0.091207	0.599890
	C193	C	0.595488	0.910552	0.601620
	C194	C	0.595734	0.094819	0.406154
	C195	C	0.404541	0.913637	0.410251
	C196	C	0.595308	0.403704	0.097178
	C197	C	0.596302	0.599592	0.912360
	C198	C	0.405373	0.595447	0.094034
	C199	C	0.404457	0.407482	0.915289
	C200	C	0.091293	0.598209	0.410538
	C201	C	0.908880	0.599608	0.602001
	C202	C	0.091774	0.408477	0.599102
	C203	C	0.909559	0.405952	0.410150
	C204	C	0.900766	0.593895	0.104882
	C205	C	0.092137	0.412727	0.099603
	C206	C	0.093080	0.591629	0.911324
	C207	C	0.901698	0.410911	0.906980
	C208	C	0.092576	0.909278	0.594759
	C209	C	0.093856	0.097467	0.414346
	C210	C	0.902401	0.099350	0.596108
	C211	C	0.902152	0.904993	0.412743
	C212	C	0.587806	0.098531	0.908284
	C213	C	0.406578	0.095378	0.097237
	C214	C	0.588745	0.905540	0.100097
	C215	C	0.406983	0.906152	0.910423
	Zn216	Zn	0.497352	0.000797	0.755262
	Zn217	Zn	0.498033	0.002412	0.253596
	Zn218	Zn	0.748722	0.502018	0.005675
	Zn219	Zn	0.248949	0.501996	0.005230
	Zn220	Zn	-0.000285	0.753132	0.505597
	Zn221	Zn	0.000717	0.252314	0.504644
	Zn222	Zn	0.000106	0.503492	0.754655
	Zn223	Zn	-0.000863	0.501764	0.256344
	Zn224	Zn	0.498959	0.751793	0.004914
	Zn225	Zn	0.496604	0.251645	0.003848
	Zn226	Zn	0.748960	0.003147	0.504001
	Zn227	Zn	0.248390	0.001789	0.504478
	N228	N	0.410291	0.966029	0.685554
	N229	N	0.585601	0.036454	0.685804
	N230	N	0.586408	0.968484	0.322484
	N231	N	0.409962	0.037211	0.322206
	N232	N	0.678528	0.414748	0.970037
	N233	N	0.676703	0.586691	0.041064
	N234	N	0.318298	0.589046	0.969125
	N235	N	0.317590	0.414358	0.040339
	N236	N	0.964195	0.681187	0.420370
	N237	N	0.034320	0.686162	0.594900
	N238	N	0.966189	0.322600	0.591646
	N239	N	0.035759	0.320949	0.417071
	N240	N	0.965159	0.417086	0.683531
	N241	N	0.035485	0.591809	0.686558
	N242	N	0.963612	0.586940	0.328017
	N243	N	0.035264	0.414146	0.324261
	N244	N	0.411109	0.682835	0.969603
	N245	N	0.586614	0.682428	0.039407
	N246	N	0.584434	0.321610	0.969464
	N247	N	0.407839	0.318861	0.038815
	N248	N	0.678963	0.968402	0.416632
	N249	N	0.677611	0.038040	0.590395
	N250	N	0.317543	0.966763	0.592384
	N251	N	0.318522	0.038459	0.417517
	N252	N	0.911047	0.466885	0.187022
	N253	N	0.086685	0.536927	0.186497
	N254	N	0.087511	0.467935	0.823850
	N255	N	0.911663	0.538027	0.824388
	N256	N	0.178482	0.916026	0.469244
	N257	N	0.181069	0.090985	0.539132
	N258	N	0.819665	0.089390	0.468733
	N259	N	0.818157	0.915829	0.539720
	N260	N	0.462271	0.184296	0.914603
	N261	N	0.531769	0.182142	0.090612
	N262	N	0.463607	0.819265	0.093807
	N263	N	0.533725	0.822587	0.918827
	N264	N	0.462556	0.913708	0.185907
	N265	N	0.533146	0.087172	0.181543
	N266	N	0.461405	0.088472	0.823974
	N267	N	0.533342	0.914828	0.825315
	N268	N	0.911859	0.183974	0.470055
	N269	N	0.087896	0.183659	0.539555
	N270	N	0.086949	0.821872	0.470404
	N271	N	0.910634	0.821597	0.539431
	N272	N	0.180767	0.467652	0.916715
	N273	N	0.180306	0.536611	0.093524
	N274	N	0.819693	0.466130	0.091740
	N275	N	0.819448	0.537590	0.919291
	O276	O	0.697014	0.544910	0.460271
	H277	H	0.696317	0.553255	0.447010
	H278	H	0.675640	0.540599	0.451563
	O279	O	0.272535	0.552481	0.559517
	H280	H	0.266642	0.533825	0.576377
	H281	H	0.280571	0.530817	0.576633
	O282	O	0.985604	1.032464	-0.124501
	H283	H	0.963397	1.028987	-0.116256
	H284	H	0.980295	1.041246	-0.136189
	O285	O	0.405475	0.584758	0.487681
	H286	H	0.402469	0.562164	0.486067
	H287	H	0.397550	0.597895	0.460253
	O288	O	-0.026308	0.162151	0.188956
	H289	H	-0.024778	0.168371	0.194026
	H290	H	-0.038912	0.138035	0.191393
	O291	O	0.700093	0.412611	0.571236
	H292	H	0.700898	0.431545	0.584573
	H293	H	0.690643	0.435909	0.547601
	O294	O	-0.197654	0.803298	0.199133
	H295	H	-0.221960	0.771354	0.225942
	H296	H	-0.187060	0.802932	0.167667
	O297	O	0.550013	0.461448	0.697964
	H298	H	0.552934	0.480927	0.690763
	H299	H	0.571258	0.465871	0.710626
	O300	O	0.474145	0.492188	0.515925
	H301	H	0.472372	0.500343	0.491518
	H302	H	0.472064	0.478258	0.541648
	O303	O	0.501568	0.302000	0.675048
	H304	H	0.516542	0.305110	0.662557
	H305	H	0.520796	0.316212	0.682763
	O306	O	0.183391	0.819660	0.828099
	H307	H	0.193108	0.871765	0.814854
	H308	H	0.149717	0.808211	0.817699
	O309	O	0.308685	0.695375	0.316812
	H310	H	0.291452	0.657025	0.305787
	H311	H	0.303864	0.705003	0.344680
	O312	O	0.509569	0.552422	0.302768
	H313	H	0.528287	0.559506	0.317781
	H314	H	0.523188	0.561022	0.294971
	O315	O	0.190528	-0.099363	1.090357
	H316	H	0.196482	-0.119703	1.067361
	H317	H	0.171940	-0.088276	1.077707
	O318	O	-0.172218	1.144840	0.148248
	H319	H	-0.156433	1.137457	0.138815
	H320	H	-0.162718	1.132264	0.153759
	O321	O	0.692841	0.693683	0.316678
	H322	H	0.687891	0.680270	0.339435
	H323	H	0.667622	0.682552	0.335262
	O324	O	0.970128	0.174111	1.062612
	H325	H	0.966468	0.148163	1.069930
	H326	H	0.938667	0.181978	1.044372
	O327	O	1.213358	0.218347	1.019271
	H328	H	1.242334	0.244834	1.036626
	H329	H	1.203447	0.211920	1.059933
	O330	O	1.069397	0.213781	-0.078570
	H331	H	1.089209	0.215815	-0.053538
	H332	H	1.062817	0.214229	-0.054468
	O333	O	1.205643	0.788480	0.989550
	H334	H	1.212662	0.780423	0.960261
	H335	H	1.214256	0.776727	0.970012
	O336	O	1.211114	0.029231	1.219115
	H337	H	1.232563	0.016776	1.207855
	H338	H	1.228932	0.016880	1.224975
	O339	O	0.712320	0.474439	0.293342
	H340	H	0.712814	0.440362	0.301404
	H341	H	0.734796	0.456277	0.270557
	O342	O	0.606756	0.712575	0.502714
	H343	H	0.605605	0.721378	0.505109
	H344	H	0.590645	0.695114	0.513648
	O345	O	0.168195	0.178570	0.171549
	H346	H	0.157603	0.154890	0.186954
	H347	H	0.140945	0.157289	0.174817
	O348	O	0.871728	-0.048708	0.870674
	H349	H	0.853155	-0.035358	0.872481
	H350	H	0.881544	-0.033935	0.865595
	O351	O	1.039785	0.894965	0.145576
	H352	H	1.050760	0.895002	0.136688
	H353	H	1.046663	0.887789	0.126230
	O354	O	0.493439	0.476367	0.290849
	H355	H	0.469407	0.494420	0.285337
	H356	H	0.522310	0.493240	0.287755
	O357	O	0.924701	0.904949	1.064612
	H358	H	0.923702	0.914296	1.051851
	H359	H	0.937029	0.902298	1.057063
	O360	O	0.285181	0.484419	0.717361
	H361	H	0.259118	0.482569	0.753404
	H362	H	0.300650	0.431602	0.707015
	O363	O	0.311189	0.440872	0.409050
	H364	H	0.329712	0.446439	0.402879
	H365	H	0.302868	0.423733	0.435581
	O366	O	0.779634	0.223181	0.970000
	H367	H	0.755754	0.245138	0.954509
	H368	H	0.775378	0.216845	0.960405
	O369	O	0.527706	0.296690	0.549482
	H370	H	0.534275	0.304391	0.539715
	H371	H	0.545971	0.292114	0.551181
	O372	O	0.283371	0.523372	0.292317
	H373	H	0.245335	0.525657	0.261396
	H374	H	0.288052	0.507775	0.321723
	O375	O	-0.195537	1.077112	1.048879
	H376	H	-0.193639	1.066852	1.061961
	H377	H	-0.191053	1.080678	1.047637
	O378	O	1.221772	0.029650	-0.028022
	H379	H	1.218260	0.035144	-0.034237
	H380	H	1.222107	0.044915	-0.023453
	O381	O	0.961826	0.086118	0.132222
	H382	H	0.933328	0.078104	0.129269
	H383	H	0.969689	0.059949	0.124221
	O384	O	0.210129	-0.020475	0.791413
	H385	H	0.201902	0.003667	0.798175
	H386	H	0.233507	-0.013092	0.771917
	O387	O	0.051358	0.931322	1.007576
	H388	H	0.050242	0.933423	0.999931
	H389	H	0.052578	0.913703	0.998066
	O390	O	0.328657	0.330693	0.682351
	H391	H	0.348587	0.315862	0.662604
	H392	H	0.348063	0.317294	0.658543
	O393	O	0.848960	0.861295	-0.055280
	H394	H	0.861291	0.870921	-0.054497
	H395	H	0.864925	0.869391	-0.045648
	O396	O	0.683867	0.687430	0.689926
	H397	H	0.686942	0.709892	0.694795
	H398	H	0.656629	0.696356	0.674360
	O399	O	0.454015	0.711323	0.300348
	H400	H	0.441238	0.734564	0.284417
	H401	H	0.434648	0.710618	0.297512
	O402	O	-0.212753	-0.026083	1.219170
	H403	H	-0.210065	-0.061756	1.203839
	H404	H	-0.238586	-0.040364	1.246530
	O405	O	-0.008146	-0.179793	0.045309
	H406	H	0.009122	-0.186326	0.047686
	H407	H	-0.002086	-0.190160	0.073757
	O408	O	0.351113	0.708795	0.486299
	H409	H	0.340733	0.703728	0.495384
	H410	H	0.330166	0.709590	0.492286
	O411	O	0.712645	0.532722	0.720900
	H412	H	0.725681	0.558023	0.725253
	H413	H	0.724556	0.560013	0.732003
	O414	O	0.521486	0.284744	0.286974
	H415	H	0.522354	0.269091	0.258500
	H416	H	0.512769	0.312110	0.276489
	O417	O	0.436622	0.302379	0.434708
	H418	H	0.462503	0.303554	0.436311
	H419	H	0.444030	0.302149	0.422868
	O420	O	0.524892	0.717414	0.716263
	H421	H	0.507019	0.707427	0.702428
	H422	H	0.519241	0.737259	0.736864
	O423	O	-0.135096	0.955030	-0.108640
	H424	H	-0.136712	0.960223	-0.106194
	H425	H	-0.144686	0.980464	-0.101889
	O426	O	0.797070	1.205766	0.800743
	H427	H	0.846915	1.210657	0.798935
	H428	H	0.776032	1.217534	0.789699
	O429	O	-0.025987	0.788092	0.215128
	H430	H	-0.044512	0.782475	0.223220
	H431	H	-0.019432	0.793516	0.223107
	O432	O	0.282422	0.287099	0.526227
	H433	H	0.254658	0.251650	0.523952
	H434	H	0.308425	0.287816	0.499504
	O435	O	-0.036099	0.214768	-0.213261
	H436	H	-0.026234	0.244742	-0.238660
	H437	H	-0.015309	0.215331	-0.180411
	O438	O	1.109857	0.065729	-0.158650
	H439	H	1.122492	0.076741	-0.146159
	H440	H	1.107719	0.073395	-0.164850
	O441	O	0.676411	0.324156	0.695339
	H442	H	0.674835	0.347333	0.679857
	H443	H	0.673405	0.329733	0.691955
	O444	O	0.024090	0.795405	0.791687
	H445	H	0.018913	0.784281	0.771458
	H446	H	0.012239	0.814531	0.775211
	O447	O	0.710278	0.290007	0.470934
	H448	H	0.722085	0.296793	0.477472
	H449	H	0.728281	0.279516	0.468934
	O450	O	0.692355	0.307630	0.306761
	H451	H	0.693004	0.281845	0.286517
	H452	H	0.679491	0.296373	0.337162
	O453	O	0.473004	0.617867	0.560997
	H454	H	0.466679	0.597229	0.570791
	H455	H	0.450244	0.614589	0.548144
	O456	O	0.779689	0.036469	-0.215697
	H457	H	0.779643	0.063471	-0.208221
	H458	H	0.750001	0.050079	-0.236503
	O459	O	0.434916	0.570238	0.726048
	H460	H	0.424617	0.562717	0.729672
	H461	H	0.426691	0.566674	0.731745
	O462	O	0.628214	0.717892	0.501755
	H463	H	0.586909	0.728146	0.489238
	H464	H	0.645145	0.723883	0.514916
	O465	O	0.859726	-0.203048	0.001312
	H466	H	0.874286	-0.208131	-0.016495
	H467	H	0.872311	-0.217781	0.024094
