data_Molecule from HDF5

_cell_length_a		16.607739
_cell_length_b		16.750832
_cell_length_c		16.589899
_cell_angle_alpha	90.143576
_cell_angle_beta	89.988472
_cell_angle_gamma	90.018755
_symmetry_space_group_name_H-M	'P 1'
_symmetry_Int_Tables_number		1

loop_
	_symmetry_equiv_pos_as_xyz
	x,y,z

loop_
	_atom_site_label
	_atom_site_type_symbol
	_atom_site_fract_x
	_atom_site_fract_y
	_atom_site_fract_z
	H0	H	0.404735	0.840785	0.731767
	H1	H	0.624280	0.143295	0.729860
	H2	H	0.618944	0.836389	0.283715
	H3	H	0.410984	0.145255	0.282850
	H4	H	0.735851	0.386954	0.846703
	H5	H	0.737569	0.595808	0.158759
	H6	H	0.295658	0.595051	0.847138
	H7	H	0.294844	0.385396	0.158168
	H8	H	0.860326	0.709055	0.398569
	H9	H	0.168809	0.714835	0.612425
	H10	H	0.859254	0.270049	0.606515
	H11	H	0.171690	0.268093	0.398284
	H12	H	0.859577	0.386438	0.723089
	H13	H	0.171014	0.596407	0.725114
	H14	H	0.860274	0.591997	0.283755
	H15	H	0.172667	0.384776	0.283409
	H16	H	0.408600	0.713346	0.849247
	H17	H	0.622040	0.711977	0.158590
	H18	H	0.623490	0.268124	0.848298
	H19	H	0.411201	0.270424	0.158593
	H20	H	0.733283	0.835224	0.402295
	H21	H	0.739059	0.144447	0.611363
	H22	H	0.287341	0.840775	0.616707
	H23	H	0.292890	0.143761	0.397264
	H24	H	0.915057	0.333981	0.219498
	H25	H	0.123620	0.643160	0.226753
	H26	H	0.120322	0.335016	0.781519
	H27	H	0.911679	0.645098	0.781358
	H28	H	0.240291	0.880473	0.349733
	H29	H	0.238513	0.096418	0.658000
	H30	H	0.797071	0.091213	0.346616
	H31	H	0.795814	0.886947	0.660217
	H32	H	0.362478	0.215456	0.894812
	H33	H	0.672152	0.212028	0.109411
	H34	H	0.361829	0.767442	0.111172
	H35	H	0.668728	0.764740	0.892825
	H36	H	0.360761	0.886931	0.223416
	H37	H	0.673764	0.092488	0.220945
	H38	H	0.362198	0.098181	0.780342
	H39	H	0.669795	0.882820	0.779549
	H40	H	0.911109	0.208674	0.347026
	H41	H	0.122133	0.211406	0.658158
	H42	H	0.123954	0.765841	0.349770
	H43	H	0.910706	0.769999	0.659180
	H44	H	0.237078	0.335727	0.897648
	H45	H	0.237078	0.645345	0.107639
	H46	H	0.799184	0.334781	0.102806
	H47	H	0.794971	0.645245	0.898013
	H48	H	0.429853	0.099013	0.588736
	H49	H	0.605601	0.879555	0.594897
	H50	H	0.602429	0.103739	0.405855
	H51	H	0.430238	0.881084	0.412628
	H52	H	0.600971	0.401425	0.114340
	H53	H	0.603065	0.578569	0.892087
	H54	H	0.429480	0.582159	0.114519
	H55	H	0.433518	0.399975	0.892461
	H56	H	0.126655	0.577866	0.418603
	H57	H	0.901497	0.582539	0.596354
	H58	H	0.129430	0.398411	0.593599
	H59	H	0.901756	0.393725	0.412198
	H60	H	0.126776	0.398587	0.588726
	H61	H	0.905786	0.581671	0.584768
	H62	H	0.126914	0.576226	0.414984
	H63	H	0.905542	0.399304	0.414951
	H64	H	0.425071	0.580359	0.116049
	H65	H	0.604459	0.581496	0.891388
	H66	H	0.608877	0.396329	0.117483
	H67	H	0.424934	0.399152	0.889825
	H68	H	0.604024	0.099898	0.420059
	H69	H	0.600626	0.882602	0.592312
	H70	H	0.431015	0.097619	0.589125
	H71	H	0.427583	0.881470	0.417601
	H72	H	0.926857	0.604076	0.100299
	H73	H	0.115110	0.376584	0.090535
	H74	H	0.109441	0.601454	0.914700
	H75	H	0.928282	0.381593	0.914166
	H76	H	0.099664	0.908305	0.611177
	H77	H	0.096321	0.080165	0.394153
	H78	H	0.916161	0.079600	0.619299
	H79	H	0.926613	0.896964	0.391201
	H80	H	0.625827	0.080460	0.921621
	H81	H	0.404586	0.077820	0.095753
	H82	H	0.631786	0.898714	0.101721
	H83	H	0.403688	0.903569	0.911725
	H84	H	0.628610	0.892598	0.085531
	H85	H	0.402702	0.085980	0.094198
	H86	H	0.625337	0.074435	0.917285
	H87	H	0.406329	0.897259	0.923699
	H88	H	0.931480	0.072751	0.611245
	H89	H	0.109357	0.083476	0.388922
	H90	H	0.097298	0.901576	0.612640
	H91	H	0.922736	0.898163	0.390692
	H92	H	0.104641	0.601536	0.910326
	H93	H	0.101185	0.377902	0.100471
	H94	H	0.930956	0.599432	0.091746
	H95	H	0.924618	0.379418	0.914029
	H96	H	0.431276	0.098501	0.587715
	H97	H	0.605754	0.881712	0.588584
	H98	H	0.615118	0.104929	0.412832
	H99	H	0.424987	0.879001	0.413147
	H100	H	0.609642	0.405551	0.115197
	H101	H	0.605941	0.578701	0.891146
	H102	H	0.428208	0.577134	0.113451
	H103	H	0.427928	0.407166	0.892972
	H104	H	0.128339	0.580499	0.416086
	H105	H	0.906364	0.571621	0.592810
	H106	H	0.126522	0.403090	0.592439
	H107	H	0.902810	0.399747	0.408214
	H108	H	0.921409	0.603393	0.091508
	H109	H	0.101053	0.384023	0.084687
	H110	H	0.103453	0.599165	0.915907
	H111	H	0.926913	0.379733	0.911060
	H112	H	0.103918	0.903682	0.614869
	H113	H	0.106438	0.070560	0.393275
	H114	H	0.931609	0.090000	0.617348
	H115	H	0.925557	0.901000	0.391559
	H116	H	0.627639	0.080585	0.914170
	H117	H	0.406036	0.081198	0.087979
	H118	H	0.624999	0.909214	0.089447
	H119	H	0.410193	0.909897	0.921474
	C120	C	0.395148	-0.001199	0.624746
	C121	C	0.637875	0.982235	0.626208
	C122	C	0.637575	-0.000276	0.382451
	C123	C	0.394498	0.982085	0.381795
	C124	C	0.637958	0.369445	0.012189
	C125	C	0.637351	0.611850	0.994636
	C126	C	0.394912	0.612187	0.011928
	C127	C	0.395944	0.369938	0.994647
	C128	C	0.024584	0.610178	0.383427
	C129	C	1.007125	0.611389	0.624524
	C130	C	0.024374	0.368490	0.623705
	C131	C	1.007417	0.366915	0.381271
	C132	C	0.895896	0.499085	0.124232
	C133	C	0.138523	0.481345	0.124625
	C134	C	0.137872	0.498606	0.881354
	C135	C	0.894725	0.482602	0.881362
	C136	C	0.135600	0.869410	0.511669
	C137	C	0.136998	0.110756	0.494669
	C138	C	0.894812	0.110994	0.512050
	C139	C	0.893636	0.868152	0.494853
	C140	C	0.524311	0.111840	0.883566
	C141	C	0.507871	0.112600	0.124431
	C142	C	0.525283	0.869027	0.124945
	C143	C	0.507909	0.869689	0.883461
	C144	C	0.388526	0.885801	0.689519
	C145	C	0.642034	0.097502	0.688495
	C146	C	0.638024	0.882780	0.323778
	C147	C	0.392560	0.098562	0.322530
	C148	C	0.697036	0.367835	0.894043
	C149	C	0.697478	0.614232	0.111885
	C150	C	0.335284	0.613856	0.894672
	C151	C	0.335608	0.367773	0.111710
	C152	C	0.907143	0.669259	0.380443
	C153	C	0.122912	0.673464	0.629134
	C154	C	0.906405	0.309367	0.625555
	C155	C	0.124997	0.308036	0.380036
	C156	C	0.906438	0.367345	0.683149
	C157	C	0.124005	0.614388	0.685072
	C158	C	0.907227	0.610917	0.323618
	C159	C	0.125609	0.366290	0.323132
	C160	C	0.391560	0.672683	0.895417
	C161	C	0.640236	0.672033	0.111771
	C162	C	0.640721	0.308959	0.894946
	C163	C	0.393090	0.310285	0.111945
	C164	C	0.694800	0.882211	0.382758
	C165	C	0.699050	0.097965	0.629631
	C166	C	0.330178	0.885808	0.632285
	C167	C	0.333631	0.097674	0.379157
	C168	C	0.896092	0.381221	0.180670
	C169	C	0.141071	0.597344	0.185701
	C170	C	0.139084	0.381964	0.821452
	C171	C	0.893186	0.598861	0.821711
	C172	C	0.199026	0.863762	0.396417
	C173	C	0.197621	0.113750	0.611504
	C174	C	0.835954	0.111048	0.394035
	C175	C	0.834996	0.867621	0.612844
	C176	C	0.408765	0.174255	0.878267
	C177	C	0.625336	0.171827	0.126788
	C178	C	0.408442	0.808332	0.128444
	C179	C	0.622858	0.806564	0.876806
	C180	C	0.407824	0.867726	0.184343
	C181	C	0.626254	0.112127	0.182161
	C182	C	0.408485	0.115769	0.821481
	C183	C	0.623395	0.865307	0.820480
	C184	C	0.893020	0.169185	0.394116
	C185	C	0.140046	0.171295	0.611531
	C186	C	0.141111	0.806514	0.396291
	C187	C	0.892056	0.809646	0.612479
	C188	C	0.197208	0.382195	0.879109
	C189	C	0.197519	0.598186	0.126480
	C190	C	0.838286	0.381491	0.122795
	C191	C	0.835296	0.599123	0.879526
	C192	C	0.423027	0.077753	0.596269
	C193	C	0.611388	0.902050	0.599635
	C194	C	0.613887	0.081577	0.406083
	C195	C	0.420253	0.901476	0.407188
	C196	C	0.613442	0.394182	0.094304
	C197	C	0.611789	0.586634	0.912834
	C198	C	0.420376	0.587097	0.093463
	C199	C	0.421549	0.394873	0.913148
	C200	C	0.106049	0.585371	0.409270
	C201	C	0.925642	0.585894	0.598693
	C202	C	0.106128	0.392877	0.598668
	C203	C	0.924939	0.390732	0.405084
	C204	C	0.919508	0.580958	0.101176
	C205	C	0.113063	0.400572	0.099034
	C206	C	0.113028	0.579702	0.906559
	C207	C	0.919474	0.401372	0.906036
	C208	C	0.108022	0.896645	0.592002
	C209	C	0.111339	0.085223	0.413188
	C210	C	0.919361	0.087384	0.594482
	C211	C	0.918137	0.891940	0.412619
	C212	C	0.605168	0.085804	0.910229
	C213	C	0.425784	0.088397	0.099718
	C214	C	0.607111	0.893283	0.099446
	C215	C	0.427590	0.896154	0.911117
	Zn216	Zn	0.515877	-0.009073	0.754573
	Zn217	Zn	0.516350	-0.008692	0.252621
	Zn218	Zn	0.765753	0.490985	0.002994
	Zn219	Zn	0.267176	0.490049	0.002866
	Zn220	Zn	0.015079	0.739715	0.503854
	Zn221	Zn	0.015866	0.239375	0.503198
	Zn222	Zn	0.015755	0.490209	0.751962
	Zn223	Zn	0.017289	0.489541	0.254280
	Zn224	Zn	0.516479	0.740265	0.003834
	Zn225	Zn	0.516156	0.241240	0.003895
	Zn226	Zn	0.766223	-0.009663	0.504383
	Zn227	Zn	0.265620	-0.010151	0.503471
	N228	N	0.428403	0.957177	0.684950
	N229	N	0.604920	0.024349	0.686872
	N230	N	0.603229	0.957082	0.323184
	N231	N	0.429676	0.025470	0.323714
	N232	N	0.695586	0.404735	0.968044
	N233	N	0.695839	0.577559	0.037855
	N234	N	0.337113	0.576881	0.968322
	N235	N	0.337117	0.403934	0.037693
	N236	N	0.981354	0.669187	0.416848
	N237	N	0.048997	0.671861	0.592250
	N238	N	0.980898	0.309518	0.589650
	N239	N	0.050254	0.308146	0.415282
	N240	N	0.980720	0.403373	0.682326
	N241	N	0.050827	0.576454	0.682285
	N242	N	0.981425	0.574890	0.325112
	N243	N	0.051244	0.402096	0.323520
	N244	N	0.427753	0.672102	0.969642
	N245	N	0.603272	0.670530	0.037801
	N246	N	0.604980	0.309458	0.969565
	N247	N	0.429979	0.311412	0.037972
	N248	N	0.694767	0.956109	0.418263
	N249	N	0.696676	0.025179	0.591766
	N250	N	0.334466	0.957044	0.592233
	N251	N	0.334557	0.024156	0.415274
	N252	N	0.930875	0.455493	0.182128
	N253	N	0.104986	0.523622	0.184817
	N254	N	0.102801	0.455585	0.822539
	N255	N	0.929519	0.525417	0.822780
	N256	N	0.196020	0.902149	0.469460
	N257	N	0.195964	0.076780	0.537583
	N258	N	0.836701	0.075653	0.468588
	N259	N	0.835673	0.903286	0.538509
	N260	N	0.482055	0.172024	0.916306
	N261	N	0.550570	0.172304	0.091521
	N262	N	0.482669	0.808811	0.092134
	N263	N	0.549885	0.809021	0.915341
	N264	N	0.481502	0.904803	0.182332
	N265	N	0.552028	0.076128	0.181163
	N266	N	0.481277	0.077471	0.824815
	N267	N	0.550828	0.904050	0.824421
	N268	N	0.928766	0.169463	0.468673
	N269	N	0.103062	0.169607	0.537732
	N270	N	0.102204	0.809802	0.469119
	N271	N	0.927577	0.809500	0.537864
	N272	N	0.196793	0.455853	0.915476
	N273	N	0.196251	0.525031	0.089249
	N274	N	0.837580	0.455972	0.088542
	N275	N	0.836008	0.525661	0.915803
	O276	O	0.239453	0.797195	-0.027260
	H277	H	0.255948	0.793513	-0.007556
	H278	H	0.254314	0.802571	-0.026128
	O279	O	0.113613	0.786060	0.198918
	H280	H	0.089867	0.768314	0.198176
	H281	H	0.116785	0.813756	0.180191
	O282	O	0.912256	0.195010	1.207472
	H283	H	0.925008	0.172608	1.198979
	H284	H	0.922527	0.204209	1.203655
	O285	O	0.496674	0.266219	0.719557
	H286	H	0.482694	0.255524	0.743018
	H287	H	0.485108	0.281477	0.721509
	O288	O	0.726546	0.699668	0.712863
	H289	H	0.745325	0.720198	0.701956
	H290	H	0.732962	0.705097	0.723136
	O291	O	0.678753	0.430948	0.611511
	H292	H	0.681268	0.428283	0.601072
	H293	H	0.674467	0.440058	0.629986
	O294	O	1.110435	-0.189755	1.149305
	H295	H	1.126173	-0.192994	1.144198
	H296	H	1.100270	-0.167035	1.143818
	O297	O	0.070231	1.006586	-0.115402
	H298	H	0.063144	1.023186	-0.112626
	H299	H	0.080257	0.992337	-0.111557
	O300	O	0.228523	0.209870	0.718478
	H301	H	0.214256	0.192522	0.730497
	H302	H	0.233064	0.218968	0.719196
	O303	O	0.742366	0.450265	0.275801
	H304	H	0.750894	0.422413	0.274884
	H305	H	0.758730	0.428269	0.256455
	O306	O	0.537719	0.714402	0.716443
	H307	H	0.559722	0.715826	0.726155
	H308	H	0.549983	0.716620	0.728447
	O309	O	0.126588	0.125738	-0.201565
	H310	H	0.123760	0.126396	-0.177032
	H311	H	0.112695	0.117092	-0.198397
	O312	O	0.650348	0.422710	0.488813
	H313	H	0.649751	0.452918	0.501223
	H314	H	0.658058	0.412942	0.476760
	O315	O	0.783854	0.981366	0.982344
	H316	H	0.777336	0.983648	0.981065
	H317	H	0.786031	0.975258	0.993403
	O318	O	0.662264	0.422662	0.323663
	H319	H	0.672494	0.407913	0.337336
	H320	H	0.624005	0.413984	0.313783
	O321	O	-0.186794	0.781711	1.202534
	H322	H	-0.166127	0.780049	1.171208
	H323	H	-0.165517	0.792056	1.193710
	O324	O	0.914923	1.041576	0.208019
	H325	H	0.905806	1.026442	0.217125
	H326	H	0.922814	1.023758	0.219556
	O327	O	-0.022441	-0.225452	1.136523
	H328	H	-0.004055	-0.224360	1.122978
	H329	H	-0.015601	-0.231609	1.140758
	O330	O	0.425408	0.712576	0.290110
	H331	H	0.449993	0.693807	0.284013
	H332	H	0.425466	0.717082	0.279735
	O333	O	-0.013603	0.832298	0.993080
	H334	H	0.002794	0.830802	0.997633
	H335	H	-0.008527	0.838799	0.994947
	O336	O	0.300627	0.523497	0.577257
	H337	H	0.307583	0.520580	0.564199
	H338	H	0.293906	0.544765	0.562834
	O339	O	0.795590	0.023734	0.787864
	H340	H	0.791905	0.024969	0.794097
	H341	H	0.773362	0.041007	0.764588
	O342	O	0.039141	-0.229539	-0.204284
	H343	H	0.056063	-0.228556	-0.207239
	H344	H	0.061302	-0.237353	-0.223898
	O345	O	-0.197920	0.781114	1.029013
	H346	H	-0.195459	0.776452	1.018171
	H347	H	-0.199555	0.780418	1.021538
	O348	O	0.098229	-0.009381	-0.044562
	H349	H	0.096544	-0.000644	-0.046691
	H350	H	0.109415	0.006030	-0.053132
	O351	O	0.227647	0.206355	0.214077
	H352	H	0.226304	0.208280	0.229149
	H353	H	0.240233	0.217727	0.232460
	O354	O	-0.087617	0.148467	1.060229
	H355	H	-0.085829	0.150824	1.055653
	H356	H	-0.089948	0.151980	1.068981
	O357	O	0.482478	0.399249	0.463728
	H358	H	0.492544	0.399436	0.473782
	H359	H	0.475947	0.399348	0.475875
	O360	O	0.329349	0.302367	0.316224
	H361	H	0.357641	0.319483	0.326897
	H362	H	0.342009	0.322459	0.333902
	O363	O	0.467402	0.553758	0.716784
	H364	H	0.465991	0.572653	0.718359
	H365	H	0.477435	0.544565	0.710836
	O366	O	0.226676	-0.028541	-0.212625
	H367	H	0.230356	-0.035626	-0.225570
	H368	H	0.234631	-0.035230	-0.211389
	O369	O	0.589493	0.638240	0.508570
	H370	H	0.577953	0.640473	0.481058
	H371	H	0.608346	0.637522	0.513184
	O372	O	0.952777	1.016797	0.087649
	H373	H	0.947883	1.019524	0.092995
	H374	H	0.946712	1.033790	0.090733
	O375	O	1.239719	0.019611	0.222880
	H376	H	1.244096	0.028242	0.229924
	H377	H	1.244887	0.027732	0.235286
	O378	O	0.076190	1.143353	1.020843
	H379	H	0.072392	1.138734	1.015485
	H380	H	0.082353	1.144465	1.028862
	O381	O	0.093873	1.130783	1.161200
	H382	H	0.095543	1.132576	1.163509
	H383	H	0.090072	1.145090	1.163021
	O384	O	0.299254	-0.539090	-0.282409
	H385	H	0.295637	-0.532004	-0.277311
	H386	H	0.280765	-0.523734	-0.289108
	O387	O	1.677436	1.285532	0.649983
	H388	H	1.657973	1.297186	0.636743
	H389	H	1.661862	1.304966	0.653866
	O390	O	0.296209	0.515303	0.283017
	H391	H	0.295403	0.541637	0.297803
	H392	H	0.275094	0.524842	0.267735
	O393	O	0.526144	0.324420	0.313129
	H394	H	0.537687	0.319771	0.312767
	H395	H	0.540261	0.349144	0.312433
	O396	O	-0.703601	0.715337	0.487096
	H397	H	-0.679169	0.728278	0.487748
	H398	H	-0.725307	0.739806	0.470500
	O399	O	0.046278	-0.049750	0.992379
	H400	H	0.057750	-0.048989	0.987798
	H401	H	0.041930	-0.042617	0.986156
	O402	O	0.330414	0.643852	0.365622
	H403	H	0.331899	0.660181	0.353066
	H404	H	0.338290	0.647121	0.379287
	O405	O	1.206202	-0.204361	0.808563
	H406	H	1.225008	-0.218710	0.805273
	H407	H	1.205872	-0.189619	0.833098
	O408	O	0.006706	0.021144	-0.052110
	H409	H	0.009428	0.017560	-0.057621
	H410	H	0.000611	0.032838	-0.055177
	O411	O	0.313692	0.463838	0.445435
	H412	H	0.313443	0.451822	0.458411
	H413	H	0.309642	0.464577	0.447052
	O414	O	0.714764	0.694016	0.306950
	H415	H	0.721834	0.711825	0.296822
	H416	H	0.719915	0.687392	0.296578
	O417	O	0.437084	0.723309	0.561156
	H418	H	0.443794	0.719101	0.570407
	H419	H	0.449409	0.732168	0.561187
	O420	O	0.735505	0.526140	0.724595
	H421	H	0.740054	0.541984	0.734547
	H422	H	0.748495	0.539412	0.733866
	O423	O	-0.207517	-0.052803	1.224717
	H424	H	-0.226033	-0.064522	1.231795
	H425	H	-0.219795	-0.072514	1.231683
	O426	O	0.559999	0.416423	0.540397
	H427	H	0.562798	0.435428	0.522341
	H428	H	0.557816	0.410907	0.529240
	O429	O	1.314534	0.694048	0.705291
	H430	H	1.321175	0.696674	0.702649
	H431	H	1.328153	0.690176	0.684137
	O432	O	0.505634	0.673364	0.491662
	H433	H	0.511481	0.676351	0.488547
	H434	H	0.509882	0.668804	0.498254
	O435	O	-0.054480	0.941258	-0.217239
	H436	H	-0.059634	0.940885	-0.203274
	H437	H	-0.054597	0.954909	-0.223872
	O438	O	-0.108060	0.180322	-0.023791
	H439	H	-0.130641	0.202978	-0.027808
	H440	H	-0.104055	0.176792	-0.033399
	O441	O	0.232170	0.117019	0.027030
	H442	H	0.251366	0.141199	0.023681
	H443	H	0.222757	0.113358	0.041554
	O444	O	0.735569	0.713457	0.537828
	H445	H	0.741934	0.729033	0.530931
	H446	H	0.742736	0.713915	0.545013
	O447	O	-0.173862	0.191880	0.801043
	H448	H	-0.197841	0.194487	0.778391
	H449	H	-0.152918	0.195053	0.823567
	O450	O	0.307118	1.287582	0.709522
	H451	H	0.305249	1.277001	0.713440
	H452	H	0.318124	1.329302	0.713381
	O453	O	0.669450	0.528183	0.498768
	H454	H	0.676117	0.530225	0.482144
	H455	H	0.664338	0.517168	0.500389
	O456	O	1.218718	0.966309	1.031388
	H457	H	1.220421	0.983776	1.042298
	H458	H	1.217301	0.981609	1.026036
	O459	O	0.566740	0.612808	0.308670
	H460	H	0.581155	0.616665	0.300995
	H461	H	0.590731	0.600989	0.309059
	O462	O	0.525417	0.333391	0.627579
	H463	H	0.530102	0.346383	0.626917
	H464	H	0.502142	0.338617	0.607159
	O465	O	0.990367	0.202090	-0.216066
	H466	H	0.975002	0.219550	-0.233789
	H467	H	0.992872	0.194040	-0.220839
	O468	O	0.463995	0.274143	0.422016
	H469	H	0.461954	0.283094	0.410074
	H470	H	0.469506	0.269493	0.421469
	O471	O	0.435659	0.502751	0.494087
	H472	H	0.442159	0.486168	0.498335
	H473	H	0.437036	0.507095	0.480525
	O474	O	0.608058	0.488628	0.678502
	H475	H	0.616922	0.494384	0.694232
	H476	H	0.601411	0.482598	0.679620
	O477	O	0.077956	0.962710	2.221920
	H478	H	0.097230	0.969496	2.229231
	H479	H	0.072530	0.938883	2.219125
	O480	O	0.732083	0.270025	0.464232
	H481	H	0.710707	0.282341	0.487031
	H482	H	0.756466	0.239728	0.473786
	O483	O	0.404369	0.354485	0.507440
	H484	H	0.413281	0.357429	0.522888
	H485	H	0.405049	0.346727	0.503650
	O486	O	0.809787	0.104768	1.086313
	H487	H	0.800116	0.111255	1.080003
	H488	H	0.819917	0.108728	1.098055
	O489	O	0.657736	1.275382	0.286230
	H490	H	0.660173	1.273311	0.266929
	H491	H	0.660778	1.260912	0.306835
	O492	O	0.090387	0.212308	0.024061
	H493	H	0.082413	0.219095	0.020598
	H494	H	0.103365	0.222404	0.028654
	O495	O	-0.168327	0.800935	0.813270
	H496	H	-0.147231	0.816196	0.829055
	H497	H	-0.148680	0.817308	0.831890
	O498	O	1.033281	0.831694	0.907412
	H499	H	1.046482	0.843716	0.907620
	H500	H	1.035736	0.824872	0.899252
	O501	O	0.483179	0.522852	0.284297
	H502	H	0.482435	0.515229	0.299801
	H503	H	0.481395	0.523526	0.278426
