data_Molecule from HDF5

_cell_length_a		16.423887
_cell_length_b		16.487885
_cell_length_c		16.557621
_cell_angle_alpha	89.978877
_cell_angle_beta	90.115330
_cell_angle_gamma	89.934299
_symmetry_space_group_name_H-M	'P 1'
_symmetry_Int_Tables_number		1

loop_
	_symmetry_equiv_pos_as_xyz
	x,y,z

loop_
	_atom_site_label
	_atom_site_type_symbol
	_atom_site_fract_x
	_atom_site_fract_y
	_atom_site_fract_z
	H0	H	0.398622	0.839821	0.744538
	H1	H	0.614231	0.151049	0.744560
	H2	H	0.615425	0.837939	0.296393
	H3	H	0.398418	0.150849	0.295779
	H4	H	0.727930	0.389564	0.865554
	H5	H	0.731474	0.604228	0.177134
	H6	H	0.283338	0.600271	0.863557
	H7	H	0.284040	0.390579	0.178002
	H8	H	0.846305	0.718175	0.415019
	H9	H	0.163627	0.716695	0.624723
	H10	H	0.848369	0.274157	0.625280
	H11	H	0.162573	0.274208	0.414489
	H12	H	0.849861	0.387387	0.744110
	H13	H	0.163234	0.602210	0.742417
	H14	H	0.848070	0.606452	0.295414
	H15	H	0.163423	0.391343	0.299109
	H16	H	0.397745	0.717860	0.864236
	H17	H	0.617702	0.722804	0.175616
	H18	H	0.613054	0.271853	0.866042
	H19	H	0.401382	0.274239	0.178280
	H20	H	0.727547	0.836895	0.415647
	H21	H	0.727279	0.153319	0.625050
	H22	H	0.282793	0.839229	0.627350
	H23	H	0.284108	0.152217	0.413881
	H24	H	0.897642	0.339743	0.246003
	H25	H	0.110182	0.654085	0.239814
	H26	H	0.113074	0.337872	0.797201
	H27	H	0.897561	0.650707	0.797859
	H28	H	0.226839	0.891952	0.362537
	H29	H	0.228355	0.102600	0.675886
	H30	H	0.780783	0.103241	0.362398
	H31	H	0.787935	0.895129	0.677686
	H32	H	0.347619	0.216644	0.915174
	H33	H	0.664667	0.216201	0.125940
	H34	H	0.347222	0.774521	0.124514
	H35	H	0.662783	0.773317	0.914893
	H36	H	0.347808	0.889831	0.240927
	H37	H	0.664431	0.101140	0.242547
	H38	H	0.349082	0.103217	0.797015
	H39	H	0.663336	0.890617	0.799975
	H40	H	0.896756	0.220420	0.362056
	H41	H	0.110613	0.217648	0.676652
	H42	H	0.110848	0.774500	0.362586
	H43	H	0.901060	0.775324	0.675871
	H44	H	0.226255	0.336343	0.915884
	H45	H	0.224837	0.654051	0.121351
	H46	H	0.784988	0.336979	0.127397
	H47	H	0.783352	0.651271	0.915971
	H48	H	0.415302	0.110375	0.610729
	H49	H	0.594374	0.883736	0.608948
	H50	H	0.604873	0.110034	0.433829
	H51	H	0.416443	0.884218	0.436217
	H52	H	0.591998	0.407720	0.132655
	H53	H	0.593173	0.580031	0.911525
	H54	H	0.419543	0.583388	0.131865
	H55	H	0.416674	0.406202	0.909323
	H56	H	0.118985	0.591064	0.433072
	H57	H	0.895129	0.578783	0.608515
	H58	H	0.118653	0.407865	0.608866
	H59	H	0.893461	0.413593	0.429877
	H60	H	0.118731	0.406609	0.609169
	H61	H	0.889843	0.587278	0.615662
	H62	H	0.114233	0.580603	0.435659
	H63	H	0.891270	0.406455	0.430811
	H64	H	0.417373	0.584833	0.132932
	H65	H	0.591200	0.584575	0.911227
	H66	H	0.594474	0.402369	0.134440
	H67	H	0.417108	0.401971	0.907794
	H68	H	0.589591	0.109406	0.418969
	H69	H	0.594726	0.883021	0.609019
	H70	H	0.421672	0.107319	0.611022
	H71	H	0.414904	0.880443	0.428172
	H72	H	0.921058	0.607826	0.112895
	H73	H	0.096787	0.381834	0.109725
	H74	H	0.100207	0.606789	0.935827
	H75	H	0.919752	0.383441	0.935161
	H76	H	0.093155	0.909974	0.630543
	H77	H	0.096619	0.079494	0.408584
	H78	H	0.920753	0.084782	0.628867
	H79	H	0.920654	0.903462	0.406984
	H80	H	0.618751	0.082408	0.932460
	H81	H	0.390584	0.088096	0.114853
	H82	H	0.615590	0.915321	0.108120
	H83	H	0.392536	0.905742	0.933012
	H84	H	0.621104	0.904203	0.115192
	H85	H	0.394890	0.086863	0.101806
	H86	H	0.618346	0.083887	0.932564
	H87	H	0.392061	0.908551	0.931241
	H88	H	0.916034	0.089116	0.631752
	H89	H	0.087969	0.085680	0.409662
	H90	H	0.092655	0.903400	0.632712
	H91	H	0.912111	0.906319	0.405167
	H92	H	0.095766	0.610517	0.923574
	H93	H	0.094007	0.382748	0.113520
	H94	H	0.920960	0.604573	0.103680
	H95	H	0.917412	0.382014	0.931656
	H96	H	0.417649	0.106430	0.605492
	H97	H	0.594524	0.883182	0.609422
	H98	H	0.585334	0.101700	0.438576
	H99	H	0.423265	0.883604	0.429893
	H100	H	0.597128	0.407712	0.134899
	H101	H	0.595701	0.583957	0.909269
	H102	H	0.416627	0.582374	0.131683
	H103	H	0.413393	0.404731	0.906943
	H104	H	0.118763	0.582709	0.425152
	H105	H	0.892825	0.589421	0.604105
	H106	H	0.118731	0.406896	0.607977
	H107	H	0.894220	0.410079	0.436181
	H108	H	0.913079	0.609017	0.107342
	H109	H	0.092460	0.383208	0.109267
	H110	H	0.087914	0.604722	0.932133
	H111	H	0.921266	0.383251	0.931434
	H112	H	0.098784	0.906339	0.632691
	H113	H	0.096682	0.090075	0.404782
	H114	H	0.914445	0.082316	0.629766
	H115	H	0.918237	0.912175	0.408934
	H116	H	0.618072	0.083211	0.933220
	H117	H	0.395510	0.076181	0.110197
	H118	H	0.618022	0.902489	0.101163
	H119	H	0.391487	0.905378	0.929914
	C120	C	0.384804	0.004514	0.642244
	C121	C	0.627103	0.987115	0.641371
	C122	C	0.627428	0.003283	0.398095
	C123	C	0.385097	0.986376	0.398594
	C124	C	0.627217	0.373487	0.030516
	C125	C	0.627937	0.617331	1.013118
	C126	C	0.384948	0.615721	0.028414
	C127	C	0.383588	0.372782	1.012015
	C128	C	0.013190	0.617997	0.398741
	C129	C	0.997057	0.617537	0.641756
	C130	C	0.014380	0.374629	0.641087
	C131	C	0.996933	0.376386	0.399498
	C132	C	0.884615	0.503892	0.142304
	C133	C	0.126341	0.487268	0.141407
	C134	C	0.127236	0.503426	0.898457
	C135	C	0.885199	0.485977	0.899612
	C136	C	0.127347	0.874054	0.528325
	C137	C	0.126337	0.117377	0.511363
	C138	C	0.882902	0.119123	0.527163
	C139	C	0.884962	0.875745	0.511186
	C140	C	0.514381	0.116542	0.899571
	C141	C	0.498376	0.115870	0.141827
	C142	C	0.514225	0.874320	0.140775
	C143	C	0.496683	0.874388	0.899245
	C144	C	0.380783	0.886742	0.703787
	C145	C	0.631376	0.104653	0.703110
	C146	C	0.632184	0.885003	0.337203
	C147	C	0.380932	0.103954	0.336677
	C148	C	0.687843	0.370784	0.912643
	C149	C	0.690788	0.621889	0.130047
	C150	C	0.323531	0.618663	0.910785
	C151	C	0.324257	0.371755	0.130727
	C152	C	0.894147	0.678697	0.396292
	C153	C	0.116051	0.677290	0.643521
	C154	C	0.895829	0.314081	0.643686
	C155	C	0.115548	0.314644	0.396445
	C156	C	0.896457	0.370472	0.702691
	C157	C	0.115665	0.620050	0.702000
	C158	C	0.895066	0.622826	0.336943
	C159	C	0.115783	0.373021	0.339141
	C160	C	0.380861	0.676971	0.911002
	C161	C	0.633720	0.681027	0.129199
	C162	C	0.630353	0.312659	0.912774
	C163	C	0.382382	0.313735	0.131106
	C164	C	0.688115	0.884537	0.396557
	C165	C	0.687452	0.105704	0.643511
	C166	C	0.323493	0.886554	0.645210
	C167	C	0.323926	0.104669	0.395255
	C168	C	0.880520	0.386249	0.204735
	C169	C	0.128474	0.606456	0.200243
	C170	C	0.130819	0.384853	0.837743
	C171	C	0.880802	0.603709	0.838686
	C172	C	0.187353	0.872697	0.409916
	C173	C	0.187532	0.120125	0.629098
	C174	C	0.821576	0.121709	0.409417
	C175	C	0.826691	0.875546	0.630187
	C176	C	0.395662	0.177150	0.896539
	C177	C	0.617180	0.176176	0.143894
	C178	C	0.395034	0.814115	0.143053
	C179	C	0.615437	0.813884	0.897073
	C180	C	0.395262	0.871622	0.200976
	C181	C	0.617065	0.118872	0.202247
	C182	C	0.396107	0.120456	0.837740
	C183	C	0.615822	0.872186	0.839934
	C184	C	0.879420	0.180009	0.409452
	C185	C	0.128746	0.177451	0.629315
	C186	C	0.129612	0.814423	0.409853
	C187	C	0.883081	0.816213	0.629220
	C188	C	0.186778	0.384081	0.897153
	C189	C	0.185519	0.606423	0.141307
	C190	C	0.824272	0.384899	0.145665
	C191	C	0.823849	0.603964	0.897543
	C192	C	0.410885	0.086672	0.616573
	C193	C	0.601711	0.904783	0.616320
	C194	C	0.600853	0.085524	0.423181
	C195	C	0.410924	0.904225	0.424107
	C196	C	0.601770	0.398876	0.112457
	C197	C	0.600973	0.590392	0.931723
	C198	C	0.410708	0.590459	0.110557
	C199	C	0.408409	0.397303	0.929704
	C200	C	0.095813	0.592091	0.424148
	C201	C	0.914066	0.592313	0.616622
	C202	C	0.097104	0.400093	0.616129
	C203	C	0.914442	0.402558	0.424968
	C204	C	0.910680	0.585714	0.115655
	C205	C	0.101557	0.404226	0.117536
	C206	C	0.101811	0.585713	0.923201
	C207	C	0.911935	0.404151	0.925403
	C208	C	0.101992	0.899116	0.610438
	C209	C	0.101018	0.092172	0.429009
	C210	C	0.909441	0.092937	0.608883
	C211	C	0.909776	0.900381	0.428560
	C212	C	0.596956	0.090487	0.925295
	C213	C	0.415204	0.090622	0.116352
	C214	C	0.596795	0.899992	0.115425
	C215	C	0.413665	0.899532	0.924206
	Zn216	Zn	0.506245	-0.004208	0.770830
	Zn217	Zn	0.506462	-0.005502	0.270158
	Zn218	Zn	0.756065	0.494255	0.021835
	Zn219	Zn	0.255308	0.494904	0.019889
	Zn220	Zn	0.005318	0.745868	0.519862
	Zn221	Zn	0.005552	0.246766	0.519251
	Zn222	Zn	0.006181	0.495034	0.769946
	Zn223	Zn	0.005218	0.496589	0.270435
	Zn224	Zn	0.505408	0.745549	0.020167
	Zn225	Zn	0.505482	0.244638	0.021588
	Zn226	Zn	0.755294	-0.004245	0.519209
	Zn227	Zn	0.256155	-0.003840	0.519680
	N228	N	0.418025	0.961269	0.702054
	N229	N	0.594697	0.029871	0.701980
	N230	N	0.595316	0.959811	0.337999
	N231	N	0.418180	0.029350	0.338611
	N232	N	0.685940	0.408037	0.986736
	N233	N	0.687360	0.582935	0.056823
	N234	N	0.325921	0.581205	0.984793
	N235	N	0.324676	0.407412	0.055749
	N236	N	0.968748	0.675847	0.433995
	N237	N	0.041131	0.675900	0.606832
	N238	N	0.970164	0.316433	0.606153
	N239	N	0.040657	0.316802	0.433173
	N240	N	0.971301	0.407475	0.701046
	N241	N	0.040377	0.583676	0.701175
	N242	N	0.970010	0.585637	0.338371
	N243	N	0.040983	0.410431	0.340748
	N244	N	0.418552	0.675223	0.985109
	N245	N	0.595382	0.678369	0.055371
	N246	N	0.593512	0.314014	0.987058
	N247	N	0.418350	0.314101	0.056164
	N248	N	0.685506	0.959193	0.433557
	N249	N	0.684999	0.031672	0.605680
	N250	N	0.325559	0.960803	0.607729
	N251	N	0.326413	0.030619	0.433226
	N252	N	0.917068	0.461154	0.202926
	N253	N	0.092431	0.531259	0.200466
	N254	N	0.094482	0.460033	0.838204
	N255	N	0.918275	0.529193	0.839759
	N256	N	0.186527	0.908714	0.484845
	N257	N	0.186450	0.083654	0.554504
	N258	N	0.823725	0.084343	0.483589
	N259	N	0.827861	0.911834	0.555573
	N260	N	0.470131	0.174920	0.934419
	N261	N	0.542216	0.174334	0.107011
	N262	N	0.470209	0.815330	0.106679
	N263	N	0.540383	0.815313	0.933354
	N264	N	0.470419	0.908080	0.199838
	N265	N	0.542042	0.082138	0.200970
	N266	N	0.471086	0.083602	0.839521
	N267	N	0.540701	0.908740	0.840944
	N268	N	0.916784	0.178366	0.483805
	N269	N	0.091543	0.175742	0.555025
	N270	N	0.093462	0.814923	0.484523
	N271	N	0.918753	0.816364	0.554354
	N272	N	0.184680	0.458607	0.934110
	N273	N	0.184540	0.531137	0.105840
	N274	N	0.826580	0.459108	0.107660
	N275	N	0.826271	0.529633	0.934621
	O276	O	0.441638	0.473779	0.367440
	H277	H	0.429110	0.484893	0.356653
	H278	H	0.431126	0.481655	0.377646
	O279	O	0.449597	0.537524	0.543361
	H280	H	0.437425	0.530977	0.539831
	H281	H	0.455443	0.533925	0.547353
	O282	O	1.021915	0.995113	-0.114404
	H283	H	1.026303	0.990512	-0.125033
	H284	H	1.017807	0.984048	-0.124304
	O285	O	0.310732	0.689025	0.324074
	H286	H	0.323189	0.707796	0.308683
	H287	H	0.301998	0.698521	0.374701
	O288	O	0.046185	-0.119251	0.110842
	H289	H	0.037059	-0.121593	0.114572
	H290	H	0.031793	-0.117199	0.108887
	O291	O	0.292039	0.327006	0.542850
	H292	H	0.296913	0.324569	0.559290
	H293	H	0.284885	0.318416	0.533546
	O294	O	0.190497	1.141288	-0.087018
	H295	H	0.195464	1.157904	-0.093115
	H296	H	0.191945	1.147275	-0.089866
	O297	O	0.686657	0.313703	0.338311
	H298	H	0.673701	0.313865	0.354673
	H299	H	0.697043	0.317960	0.347351
	O300	O	0.648129	0.448035	0.633394
	H301	H	0.646147	0.468060	0.644731
	H302	H	0.644137	0.459082	0.623264
	O303	O	0.833879	0.817546	0.194764
	H304	H	0.820592	0.834903	0.174284
	H305	H	0.824943	0.839970	0.179400
	O306	O	0.292537	0.523499	1.302768
	H307	H	0.276921	0.534682	1.287052
	H308	H	0.286044	0.557445	1.299167
	O309	O	0.411323	0.577730	0.552578
	H310	H	0.415692	0.560859	0.542578
	H311	H	0.427971	0.579982	0.563748
	O312	O	0.531544	0.531485	0.301125
	H313	H	0.522844	0.518494	0.310756
	H314	H	0.547940	0.529980	0.291454
	O315	O	-0.013503	0.189181	1.056910
	H316	H	-0.031330	0.182743	1.054485
	H317	H	-0.018992	0.179026	1.041596
	O318	O	-0.027650	0.793288	-0.044180
	H319	H	-0.018571	0.785135	-0.056590
	H320	H	-0.032493	0.803878	-0.044576
	O321	O	0.605036	0.528627	0.490537
	H322	H	0.594997	0.519863	0.490542
	H323	H	0.603434	0.521506	0.467614
	O324	O	1.134069	-0.148925	0.838866
	H325	H	1.155165	-0.144769	0.833816
	H326	H	1.142303	-0.143670	0.865279
	O327	O	1.028111	-0.224956	0.804042
	H328	H	1.050085	-0.225659	0.803216
	H329	H	1.056557	-0.241614	0.785524
	O330	O	0.719665	0.475349	-0.694721
	H331	H	0.713736	0.474941	-0.695582
	H332	H	0.735954	0.464345	-0.716214
	O333	O	0.838074	1.092718	1.068835
	H334	H	0.839759	1.109232	1.059381
	H335	H	0.836934	1.092764	1.051459
	O336	O	0.798786	-0.038118	0.950686
	H337	H	0.805235	-0.035793	0.944006
	H338	H	0.811098	-0.036556	0.938502
	O339	O	0.202302	0.189464	0.218679
	H340	H	0.199522	0.185029	0.232096
	H341	H	0.190452	0.179797	0.202547
	O342	O	0.362502	0.356533	0.341148
	H343	H	0.373986	0.363034	0.358112
	H344	H	0.362379	0.342420	0.330379
	O345	O	0.205854	0.022805	0.222132
	H346	H	0.201878	0.016922	0.240378
	H347	H	0.201305	0.021064	0.223130
	O348	O	0.985875	0.205152	0.824170
	H349	H	0.978514	0.217128	0.808931
	H350	H	1.005004	0.212715	0.840320
	O351	O	0.825373	0.815186	-0.170320
	H352	H	0.840881	0.816231	-0.160399
	H353	H	0.842381	0.834467	-0.156931
	O354	O	0.354466	0.571087	0.622337
	H355	H	0.351276	0.557486	0.606208
	H356	H	0.353348	0.580153	0.623380
	O357	O	1.008854	1.005682	0.804491
	H358	H	0.996489	1.003188	0.801466
	H359	H	1.010276	1.018243	0.807526
	O360	O	0.714786	0.288740	0.498282
	H361	H	0.742665	0.279098	0.498686
	H362	H	0.718219	0.305304	0.507834
	O363	O	0.694975	0.323603	0.697710
	H364	H	0.684043	0.350695	0.688890
	H365	H	0.676500	0.332906	0.680390
	O366	O	1.483495	0.519032	0.702182
	H367	H	1.477574	0.529163	0.703585
	H368	H	1.479140	0.514964	0.695413
	O369	O	0.298279	0.465655	0.734272
	H370	H	0.279031	0.463791	0.739970
	H371	H	0.299326	0.461361	0.728202
	O372	O	0.549659	0.627155	0.732398
	H373	H	0.569040	0.624946	0.723101
	H374	H	0.561704	0.656437	0.750935
	O375	O	0.122116	0.992154	1.041977
	H376	H	0.123834	1.003838	1.058942
	H377	H	0.130471	0.996346	1.051735
	O378	O	1.219154	-0.063256	-0.189509
	H379	H	1.223385	-0.055193	-0.191859
	H380	H	1.227229	-0.060516	-0.197477
	O381	O	1.064873	0.058081	-0.026116
	H382	H	1.070801	0.051059	-0.034819
	H383	H	1.082446	0.071670	-0.011258
	O384	O	0.148177	-0.204587	1.016307
	H385	H	0.158433	-0.208333	1.019097
	H386	H	0.132162	-0.198804	1.036475
	O387	O	-0.386064	1.559706	0.569304
	H388	H	-0.392884	1.563652	0.580916
	H389	H	-0.392521	1.568400	0.570423
	O390	O	0.028606	0.208838	1.235492
	H391	H	0.033583	0.231852	1.262171
	H392	H	0.030685	0.203786	1.214649
	O393	O	0.825069	1.196078	-0.179495
	H394	H	0.851243	1.199264	-0.181961
	H395	H	0.797543	1.220844	-0.199482
	O396	O	0.479078	0.713171	0.298930
	H397	H	0.471519	0.687585	0.292780
	H398	H	0.472238	0.742848	0.264747
	O399	O	-0.201083	-0.025314	0.221766
	H400	H	-0.231248	-0.025874	0.237201
	H401	H	-0.200187	-0.001967	0.202236
	O402	O	-0.204621	0.040310	0.814690
	H403	H	-0.224873	0.044121	0.808497
	H404	H	-0.198624	0.059787	0.809194
	O405	O	0.213011	-0.036459	-0.008555
	H406	H	0.223856	-0.022001	0.000354
	H407	H	0.205733	-0.033254	-0.026451
	O408	O	0.514656	0.505542	0.518314
	H409	H	0.514010	0.507044	0.517201
	H410	H	0.501393	0.495336	0.516928
	O411	O	0.352141	0.571892	0.444830
	H412	H	0.350150	0.569796	0.443638
	H413	H	0.338937	0.562832	0.450563
	O414	O	0.526040	0.286341	0.315319
	H415	H	0.527860	0.278916	0.317472
	H416	H	0.531786	0.290624	0.304438
	O417	O	0.562597	0.270163	0.575519
	H418	H	0.582095	0.268717	0.568356
	H419	H	0.557719	0.273622	0.582443
	O420	O	0.711144	0.701919	0.728570
	H421	H	0.728689	0.728632	0.749050
	H422	H	0.714644	0.704089	0.683865
	O423	O	-0.130728	1.200993	0.006672
	H424	H	-0.134265	1.209329	0.002307
	H425	H	-0.126186	1.194630	0.008011
	O426	O	0.723884	1.523120	0.734235
	H427	H	0.728791	1.550036	0.739654
	H428	H	0.736714	1.544221	0.749649
	O429	O	0.197300	0.878115	0.137756
	H430	H	0.191829	0.896608	0.117890
	H431	H	0.193540	0.881291	0.139385
	O432	O	0.443543	0.277860	0.460065
	H433	H	0.463736	0.283664	0.472186
	H434	H	0.433160	0.279122	0.457138
	O435	O	-0.200777	-0.195962	0.036389
	H436	H	-0.206770	-0.201954	0.032076
	H437	H	-0.204526	-0.189832	0.020984
	O438	O	1.124216	0.202095	0.070746
	H439	H	1.126336	0.197924	0.096341
	H440	H	1.140024	0.211453	0.080037
	O441	O	0.684981	0.681809	0.509666
	H442	H	0.657292	0.689244	0.482562
	H443	H	0.698763	0.683929	0.502641
	O444	O	-0.083846	1.081455	1.154323
	H445	H	-0.078433	1.080588	1.160996
	H446	H	-0.079807	1.093758	1.145855
	O447	O	0.483294	0.284777	-0.274630
	H448	H	0.489141	0.273759	-0.250843
	H449	H	0.500326	0.293937	-0.289674
	O450	O	0.311907	0.300542	0.711020
	H451	H	0.361626	0.297365	0.720158
	H452	H	0.304799	0.322716	0.688953
	O453	O	0.428993	0.704707	0.645246
	H454	H	0.435743	0.699220	0.635694
	H455	H	0.432419	0.691846	0.652990
	O456	O	0.991730	0.790915	0.231776
	H457	H	0.944213	0.792355	0.225820
	H458	H	0.983834	0.773914	0.248481
	O459	O	0.605012	0.644631	0.477486
	H460	H	0.599427	0.648154	0.475472
	H461	H	0.603102	0.640809	0.466718
	O462	O	0.361480	0.677570	0.587191
	H463	H	0.390011	0.681673	0.602917
	H464	H	0.334842	0.697686	0.582042
	O465	O	0.997341	-0.028609	0.192794
	H466	H	0.992828	-0.051538	0.185031
	H467	H	0.976908	-0.024075	0.196160
