data_Molecule from HDF5

_cell_length_a		16.188075
_cell_length_b		16.243105
_cell_length_c		16.328071
_cell_angle_alpha	89.848468
_cell_angle_beta	89.870825
_cell_angle_gamma	90.138036
_symmetry_space_group_name_H-M	'P 1'
_symmetry_Int_Tables_number		1

loop_
	_symmetry_equiv_pos_as_xyz
	x,y,z

loop_
	_atom_site_label
	_atom_site_type_symbol
	_atom_site_fract_x
	_atom_site_fract_y
	_atom_site_fract_z
	H0	H	0.398114	0.837802	0.714966
	H1	H	0.597798	0.165681	0.713367
	H2	H	0.598122	0.837343	0.283998
	H3	H	0.400728	0.165488	0.283241
	H4	H	0.713160	0.403875	0.834355
	H5	H	0.713624	0.599711	0.161688
	H6	H	0.285934	0.599613	0.833448
	H7	H	0.282162	0.401353	0.161020
	H8	H	0.834012	0.715551	0.398716
	H9	H	0.162997	0.716722	0.595851
	H10	H	0.833857	0.286108	0.597936
	H11	H	0.163141	0.289993	0.400381
	H12	H	0.833933	0.401848	0.713358
	H13	H	0.162536	0.603231	0.713320
	H14	H	0.834163	0.600509	0.283544
	H15	H	0.161313	0.401342	0.281539
	H16	H	0.399176	0.718842	0.836009
	H17	H	0.598509	0.715465	0.162156
	H18	H	0.598312	0.286353	0.835426
	H19	H	0.398439	0.285891	0.161616
	H20	H	0.711751	0.836680	0.403077
	H21	H	0.713705	0.165564	0.596859
	H22	H	0.284908	0.836770	0.597221
	H23	H	0.286810	0.166814	0.401976
	H24	H	0.897001	0.337748	0.215075
	H25	H	0.099442	0.664564	0.213399
	H26	H	0.097754	0.337256	0.782293
	H27	H	0.898584	0.665047	0.781431
	H28	H	0.214292	0.904435	0.335052
	H29	H	0.212695	0.099109	0.662542
	H30	H	0.786237	0.098727	0.335098
	H31	H	0.784498	0.902034	0.661849
	H32	H	0.334105	0.214930	0.901452
	H33	H	0.662822	0.216644	0.096575
	H34	H	0.334120	0.786927	0.097821
	H35	H	0.664110	0.789980	0.902780
	H36	H	0.334984	0.902095	0.214399
	H37	H	0.663980	0.100818	0.210985
	H38	H	0.334137	0.099546	0.785283
	H39	H	0.662912	0.900659	0.782708
	H40	H	0.899606	0.216555	0.335062
	H41	H	0.097885	0.216637	0.661676
	H42	H	0.098086	0.787695	0.335076
	H43	H	0.898872	0.785155	0.661095
	H44	H	0.211562	0.336468	0.900443
	H45	H	0.213050	0.665373	0.093948
	H46	H	0.784913	0.337028	0.094999
	H47	H	0.786022	0.666296	0.899687
	H48	H	0.397995	0.121356	0.594816
	H49	H	0.589191	0.883180	0.599819
	H50	H	0.588506	0.118935	0.400424
	H51	H	0.412645	0.888410	0.409872
	H52	H	0.582123	0.414265	0.109167
	H53	H	0.589056	0.592707	0.884164
	H54	H	0.408042	0.591747	0.112013
	H55	H	0.406913	0.402333	0.880690
	H56	H	0.119817	0.597548	0.392780
	H57	H	0.878758	0.594892	0.598376
	H58	H	0.115080	0.412322	0.590528
	H59	H	0.880013	0.409617	0.402404
	H60	H	0.116614	0.408267	0.593079
	H61	H	0.881515	0.599211	0.583606
	H62	H	0.115672	0.603375	0.413056
	H63	H	0.880039	0.404835	0.406859
	H64	H	0.405966	0.596486	0.114938
	H65	H	0.591008	0.601028	0.881288
	H66	H	0.589526	0.398265	0.117211
	H67	H	0.401509	0.408672	0.881090
	H68	H	0.592041	0.116794	0.409379
	H69	H	0.585838	0.887723	0.587862
	H70	H	0.412965	0.118228	0.598630
	H71	H	0.400259	0.884576	0.409430
	H72	H	0.905381	0.617302	0.085970
	H73	H	0.087947	0.385376	0.090738
	H74	H	0.098593	0.619698	0.906511
	H75	H	0.895939	0.382843	0.905743
	H76	H	0.100017	0.910229	0.616166
	H77	H	0.084204	0.096877	0.384945
	H78	H	0.909267	0.094814	0.613877
	H79	H	0.908650	0.908071	0.383635
	H80	H	0.617813	0.098872	0.903930
	H81	H	0.382148	0.090801	0.091783
	H82	H	0.618685	0.899979	0.090802
	H83	H	0.383581	0.913362	0.907306
	H84	H	0.614216	0.912623	0.086218
	H85	H	0.380343	0.093993	0.094836
	H86	H	0.614804	0.093958	0.909616
	H87	H	0.380222	0.907894	0.902592
	H88	H	0.906392	0.097515	0.615734
	H89	H	0.097837	0.104208	0.379083
	H90	H	0.085054	0.914979	0.611127
	H91	H	0.904855	0.906627	0.380723
	H92	H	0.089660	0.618672	0.897006
	H93	H	0.090615	0.385195	0.089311
	H94	H	0.902087	0.619969	0.095073
	H95	H	0.910928	0.383530	0.896343
	H96	H	0.408453	0.115195	0.584275
	H97	H	0.598352	0.883650	0.590202
	H98	H	0.598299	0.120160	0.402156
	H99	H	0.407866	0.883787	0.399137
	H100	H	0.600862	0.414144	0.115327
	H101	H	0.597323	0.594954	0.880878
	H102	H	0.402238	0.591687	0.114025
	H103	H	0.409110	0.410018	0.884021
	H104	H	0.111989	0.582909	0.407292
	H105	H	0.884780	0.584584	0.588801
	H106	H	0.115539	0.407909	0.588155
	H107	H	0.882766	0.410938	0.409010
	H108	H	0.911983	0.617373	0.093532
	H109	H	0.090657	0.383791	0.092404
	H110	H	0.086269	0.614310	0.908357
	H111	H	0.910757	0.388487	0.912679
	H112	H	0.087841	0.899079	0.615515
	H113	H	0.098892	0.088307	0.382454
	H114	H	0.904980	0.092650	0.615095
	H115	H	0.904727	0.911239	0.382638
	H116	H	0.616356	0.091773	0.901912
	H117	H	0.381944	0.095037	0.090406
	H118	H	0.617504	0.911062	0.099772
	H119	H	0.382686	0.906327	0.910720
	C120	C	0.377119	0.009710	0.621106
	C121	C	0.619700	0.993275	0.620658
	C122	C	0.621049	0.009860	0.376464
	C123	C	0.378305	0.993887	0.377513
	C124	C	0.619815	0.380494	0.006057
	C125	C	0.620984	0.623686	0.990417
	C126	C	0.376700	0.622677	0.006016
	C127	C	0.376225	0.378692	0.989760
	C128	C	0.006832	0.623111	0.376189
	C129	C	0.990494	0.622163	0.618700
	C130	C	0.006744	0.380391	0.619623
	C131	C	0.989450	0.380290	0.377037
	C132	C	0.877027	0.509701	0.120069
	C133	C	0.119472	0.492787	0.119095
	C134	C	0.120389	0.509543	0.875529
	C135	C	0.877130	0.493285	0.875838
	C136	C	0.120217	0.880075	0.506557
	C137	C	0.121852	0.124345	0.490125
	C138	C	0.877793	0.123248	0.506913
	C139	C	0.877044	0.879310	0.489971
	C140	C	0.507293	0.122775	0.877266
	C141	C	0.490414	0.122547	0.119847
	C142	C	0.507737	0.879267	0.120930
	C143	C	0.490700	0.880224	0.877839
	C144	C	0.378500	0.886610	0.676588
	C145	C	0.617902	0.116626	0.675540
	C146	C	0.618563	0.886421	0.321801
	C147	C	0.380660	0.116982	0.321960
	C148	C	0.675220	0.383150	0.883200
	C149	C	0.675831	0.620298	0.112988
	C150	C	0.322716	0.620542	0.882815
	C151	C	0.320350	0.381250	0.112426
	C152	C	0.883164	0.678065	0.378608
	C153	C	0.113959	0.678347	0.616201
	C154	C	0.882957	0.324469	0.617896
	C155	C	0.113625	0.326600	0.379355
	C156	C	0.883026	0.381590	0.675587
	C157	C	0.113791	0.621777	0.674318
	C158	C	0.883195	0.620685	0.321305
	C159	C	0.112733	0.382094	0.320434
	C160	C	0.379193	0.679621	0.884001
	C161	C	0.618547	0.678084	0.113241
	C162	C	0.618033	0.324870	0.883721
	C163	C	0.378104	0.323709	0.112859
	C164	C	0.675016	0.885984	0.380979
	C165	C	0.675450	0.116739	0.617648
	C166	C	0.322247	0.886126	0.617951
	C167	C	0.324002	0.117373	0.380829
	C168	C	0.877529	0.386576	0.176302
	C169	C	0.118614	0.615956	0.174650
	C170	C	0.118432	0.386164	0.820299
	C171	C	0.879092	0.616330	0.819973
	C172	C	0.176282	0.883355	0.383777
	C173	C	0.175618	0.120449	0.613393
	C174	C	0.823479	0.119793	0.383836
	C175	C	0.821842	0.881231	0.612881
	C176	C	0.383179	0.177211	0.880775
	C177	C	0.613949	0.178440	0.117047
	C178	C	0.383549	0.824330	0.118548
	C179	C	0.614957	0.826684	0.881220
	C180	C	0.383866	0.881307	0.176485
	C181	C	0.614517	0.120998	0.174028
	C182	C	0.383549	0.120235	0.822744
	C183	C	0.614174	0.882047	0.821865
	C184	C	0.880029	0.178307	0.383969
	C185	C	0.118551	0.178910	0.613056
	C186	C	0.118495	0.825475	0.383610
	C187	C	0.878648	0.823142	0.612457
	C188	C	0.174746	0.385680	0.878980
	C189	C	0.175435	0.616258	0.115885
	C190	C	0.821883	0.386087	0.116641
	C191	C	0.823148	0.617077	0.878869
	C192	C	0.399861	0.096067	0.598965
	C193	C	0.597612	0.907103	0.599013
	C194	C	0.599321	0.096224	0.397703
	C195	C	0.400614	0.907727	0.399640
	C196	C	0.597339	0.402420	0.091760
	C197	C	0.598812	0.602409	0.904329
	C198	C	0.398787	0.599891	0.091657
	C199	C	0.398848	0.400732	0.904129
	C200	C	0.093365	0.601077	0.397981
	C201	C	0.903997	0.599527	0.596633
	C202	C	0.093161	0.402946	0.597259
	C203	C	0.903174	0.402123	0.399399
	C204	C	0.899705	0.595745	0.097821
	C205	C	0.096531	0.406991	0.097255
	C206	C	0.098059	0.595353	0.897359
	C207	C	0.899433	0.407233	0.898155
	C208	C	0.097611	0.901587	0.592125
	C209	C	0.099967	0.102875	0.404246
	C210	C	0.900068	0.101378	0.592814
	C211	C	0.899518	0.902070	0.404389
	C212	C	0.593895	0.101210	0.898906
	C213	C	0.403868	0.099708	0.098708
	C214	C	0.594337	0.901403	0.098916
	C215	C	0.404596	0.902639	0.900373
	Zn216	Zn	0.498413	0.001466	0.749340
	Zn217	Zn	0.499101	0.001811	0.247863
	Zn218	Zn	0.749182	0.501738	-0.002040
	Zn219	Zn	0.247788	0.500718	-0.002798
	Zn220	Zn	-0.001790	0.750840	0.497651
	Zn221	Zn	-0.001336	0.252251	0.498174
	Zn222	Zn	-0.001131	0.501355	0.747468
	Zn223	Zn	-0.002003	0.501317	0.248598
	Zn224	Zn	0.499100	0.751714	-0.001158
	Zn225	Zn	0.498784	0.250810	-0.001095
	Zn226	Zn	0.749208	0.001609	0.499233
	Zn227	Zn	0.249537	0.001742	0.498914
	N228	N	0.411830	0.964455	0.678462
	N229	N	0.584156	0.038973	0.677525
	N230	N	0.585929	0.964477	0.318768
	N231	N	0.413450	0.039034	0.319618
	N232	N	0.676442	0.416863	0.960271
	N233	N	0.677566	0.587317	0.035494
	N234	N	0.321209	0.585709	0.959660
	N235	N	0.319231	0.414787	0.034943
	N236	N	0.961151	0.679636	0.411963
	N237	N	0.036207	0.678509	0.582246
	N238	N	0.960856	0.323462	0.583812
	N239	N	0.036141	0.325326	0.413798
	N240	N	0.960882	0.415643	0.676689
	N241	N	0.035864	0.587718	0.676125
	N242	N	0.961185	0.587427	0.319534
	N243	N	0.034416	0.414878	0.318945
	N244	N	0.412032	0.681080	0.961610
	N245	N	0.584993	0.680015	0.035861
	N246	N	0.584191	0.323297	0.961124
	N247	N	0.412230	0.321905	0.035560
	N248	N	0.676760	0.963865	0.414111
	N249	N	0.676576	0.039054	0.583787
	N250	N	0.321305	0.963843	0.584008
	N251	N	0.322702	0.039849	0.414721
	N252	N	0.911031	0.464350	0.178385
	N253	N	0.084522	0.538172	0.176928
	N254	N	0.085081	0.464051	0.818162
	N255	N	0.911960	0.538321	0.818078
	N256	N	0.177418	0.916456	0.461157
	N257	N	0.177721	0.087347	0.535956
	N258	N	0.822068	0.086106	0.461236
	N259	N	0.820564	0.915375	0.535750
	N260	N	0.461266	0.178888	0.914012
	N261	N	0.535943	0.179422	0.083894
	N262	N	0.461625	0.822932	0.084877
	N263	N	0.537285	0.825412	0.915417
	N264	N	0.461994	0.914710	0.178127
	N265	N	0.536653	0.087026	0.175874
	N266	N	0.461559	0.087263	0.820543
	N267	N	0.535799	0.914712	0.819672
	N268	N	0.913058	0.180474	0.461544
	N269	N	0.085575	0.181241	0.535459
	N270	N	0.084397	0.823248	0.460761
	N271	N	0.912049	0.821702	0.534923
	N272	N	0.175932	0.463253	0.912750
	N273	N	0.176050	0.538914	0.082160
	N274	N	0.821541	0.463654	0.082311
	N275	N	0.821679	0.539554	0.913012
	O276	O	0.495433	0.520119	0.464221
	H277	H	0.488477	0.525443	0.456187
	H278	H	0.492746	0.515035	0.473885
	O279	O	0.482212	0.532260	0.440839
	H280	H	0.475793	0.532509	0.444099
	H281	H	0.479526	0.531554	0.445925
	O282	O	0.425900	0.521782	0.534588
	H283	H	0.429688	0.524438	0.531364
	H284	H	0.430042	0.522275	0.532722
	O285	O	0.093904	1.075474	0.966413
	H286	H	0.091269	1.067654	0.970320
	H287	H	0.099935	1.072278	0.962075
	O288	O	0.528670	0.507595	0.507879
	H289	H	0.529303	0.510094	0.505794
	H290	H	0.529491	0.507652	0.506766
	O291	O	-0.005680	-0.003667	1.025675
	H292	H	0.002648	0.002303	1.022150
	H293	H	-0.004303	-0.010450	1.030975
	O294	O	0.413119	0.454019	0.538985
	H295	H	0.408819	0.449790	0.540195
	H296	H	0.422727	0.458024	0.536862
	O297	O	0.474060	0.453030	0.518755
	H298	H	0.478206	0.453254	0.508280
	H299	H	0.472483	0.449647	0.524076
	O300	O	0.582637	0.582644	0.468040
	H301	H	0.580123	0.588487	0.467558
	H302	H	0.576588	0.579277	0.463774
	O303	O	0.498776	0.542949	0.515917
	H304	H	0.492174	0.538779	0.514830
	H305	H	0.502766	0.541058	0.527069
	O306	O	0.949385	0.022352	1.015311
	H307	H	0.956647	0.027196	1.007417
	H308	H	0.951414	0.020047	1.016513
	O309	O	0.464774	0.482651	0.526136
	H310	H	0.465126	0.482256	0.527981
	H311	H	0.463467	0.492184	0.525203
	O312	O	0.493888	0.516541	0.495295
	H313	H	0.495750	0.512242	0.497421
	H314	H	0.491961	0.511800	0.506995
	O315	O	0.977106	0.005543	1.031321
	H316	H	0.978878	0.005136	1.041212
	H317	H	0.975480	0.004466	1.031296
	O318	O	-0.026373	-0.037027	-0.015743
	H319	H	-0.034906	-0.036236	-0.007952
	H320	H	-0.033975	-0.042244	-0.012138
	O321	O	0.469380	0.504527	0.447079
	H322	H	0.467258	0.505371	0.442083
	H323	H	0.470797	0.501342	0.456618
	O324	O	0.914394	-0.026458	0.056694
	H325	H	0.908275	-0.023849	0.062837
	H326	H	0.909848	-0.019757	0.060156
	O327	O	0.990411	0.995578	-0.007383
	H328	H	0.993201	0.993585	-0.015127
	H329	H	0.984122	0.996601	-0.004038
	O330	O	0.501329	0.567105	0.516034
	H331	H	0.491075	0.568542	0.502588
	H332	H	0.507916	0.584268	0.522829
	O333	O	0.525993	0.433798	0.456548
	H334	H	0.527625	0.435361	0.452328
	H335	H	0.529773	0.435611	0.452205
