data_Molecule from HDF5

_cell_length_a		16.465120
_cell_length_b		16.399356
_cell_length_c		16.442519
_cell_angle_alpha	89.937751
_cell_angle_beta	89.975263
_cell_angle_gamma	90.028618
_symmetry_space_group_name_H-M	'P 1'
_symmetry_Int_Tables_number		1

loop_
	_symmetry_equiv_pos_as_xyz
	x,y,z

loop_
	_atom_site_label
	_atom_site_type_symbol
	_atom_site_fract_x
	_atom_site_fract_y
	_atom_site_fract_z
	H0	H	0.393625	0.828950	0.724006
	H1	H	0.609242	0.145098	0.723001
	H2	H	0.612952	0.831426	0.273288
	H3	H	0.394227	0.143996	0.276717
	H4	H	0.721722	0.381081	0.843237
	H5	H	0.723765	0.596670	0.157244
	H6	H	0.277130	0.594846	0.841318
	H7	H	0.277384	0.382075	0.158156
	H8	H	0.843413	0.710839	0.391587
	H9	H	0.157293	0.710659	0.608492
	H10	H	0.844311	0.261744	0.605949
	H11	H	0.158725	0.263728	0.391898
	H12	H	0.842781	0.377695	0.722267
	H13	H	0.156694	0.594068	0.724288
	H14	H	0.842556	0.593498	0.277207
	H15	H	0.156095	0.376824	0.272663
	H16	H	0.393171	0.710820	0.841213
	H17	H	0.607958	0.712659	0.156658
	H18	H	0.605270	0.265259	0.842095
	H19	H	0.390987	0.263011	0.157053
	H20	H	0.727207	0.830178	0.390232
	H21	H	0.725333	0.144805	0.607468
	H22	H	0.274156	0.830719	0.611902
	H23	H	0.276496	0.142328	0.389201
	H24	H	0.892262	0.329296	0.222212
	H25	H	0.108158	0.643984	0.224221
	H26	H	0.104622	0.328773	0.779050
	H27	H	0.891484	0.643162	0.774966
	H28	H	0.225271	0.878304	0.343031
	H29	H	0.227826	0.096974	0.654676
	H30	H	0.779463	0.094447	0.342328
	H31	H	0.776832	0.878372	0.656663
	H32	H	0.340561	0.208275	0.893245
	H33	H	0.654380	0.212924	0.108447
	H34	H	0.342653	0.763784	0.108793
	H35	H	0.656227	0.762829	0.891198
	H36	H	0.346118	0.874463	0.229442
	H37	H	0.657498	0.094375	0.221594
	H38	H	0.343201	0.093742	0.775938
	H39	H	0.656173	0.877515	0.774707
	H40	H	0.897795	0.207475	0.341113
	H41	H	0.110705	0.210382	0.656075
	H42	H	0.107752	0.763968	0.341929
	H43	H	0.893797	0.763477	0.657704
	H44	H	0.222825	0.330506	0.892871
	H45	H	0.221160	0.646122	0.106392
	H46	H	0.775423	0.330583	0.106987
	H47	H	0.775955	0.644286	0.892661
	H48	H	0.413191	0.097132	0.580890
	H49	H	0.586094	0.875189	0.589859
	H50	H	0.579305	0.095294	0.414939
	H51	H	0.412387	0.875482	0.418218
	H52	H	0.588438	0.399337	0.114213
	H53	H	0.591087	0.568625	0.888680
	H54	H	0.414008	0.580164	0.111946
	H55	H	0.415550	0.400636	0.889444
	H56	H	0.110324	0.569749	0.413330
	H57	H	0.887375	0.574218	0.588171
	H58	H	0.114932	0.400698	0.594207
	H59	H	0.889367	0.400746	0.411268
	H60	H	0.113825	0.393638	0.587280
	H61	H	0.887569	0.575007	0.587800
	H62	H	0.114524	0.574275	0.406293
	H63	H	0.887410	0.396976	0.411236
	H64	H	0.405243	0.577388	0.113909
	H65	H	0.579303	0.574104	0.891684
	H66	H	0.585414	0.402663	0.110627
	H67	H	0.408518	0.393198	0.884522
	H68	H	0.599502	0.100487	0.419443
	H69	H	0.588988	0.876553	0.583355
	H70	H	0.410394	0.101636	0.589953
	H71	H	0.414777	0.873060	0.411076
	H72	H	0.911483	0.600181	0.087699
	H73	H	0.093063	0.374666	0.080713
	H74	H	0.088024	0.603704	0.903655
	H75	H	0.916072	0.373199	0.906363
	H76	H	0.093307	0.895461	0.614974
	H77	H	0.095837	0.075507	0.384009
	H78	H	0.915581	0.070851	0.610513
	H79	H	0.915363	0.897787	0.387572
	H80	H	0.610420	0.077406	0.915336
	H81	H	0.388592	0.070376	0.087931
	H82	H	0.610621	0.903253	0.085983
	H83	H	0.387339	0.900519	0.909557
	H84	H	0.612523	0.900364	0.088335
	H85	H	0.385383	0.074043	0.090088
	H86	H	0.612031	0.073031	0.910642
	H87	H	0.388972	0.899854	0.914008
	H88	H	0.915958	0.077885	0.612786
	H89	H	0.088349	0.068737	0.389264
	H90	H	0.089896	0.908122	0.609671
	H91	H	0.912047	0.900348	0.387091
	H92	H	0.079448	0.597518	0.913071
	H93	H	0.088551	0.371691	0.093018
	H94	H	0.910741	0.599928	0.088139
	H95	H	0.913146	0.377576	0.919814
	H96	H	0.419717	0.096983	0.588654
	H97	H	0.593250	0.873344	0.588328
	H98	H	0.591834	0.104690	0.399975
	H99	H	0.420126	0.876334	0.416069
	H100	H	0.583616	0.397677	0.112135
	H101	H	0.588530	0.581224	0.885195
	H102	H	0.411074	0.571450	0.109713
	H103	H	0.405045	0.404215	0.886428
	H104	H	0.113264	0.578248	0.414277
	H105	H	0.887859	0.574276	0.587427
	H106	H	0.110606	0.403052	0.585674
	H107	H	0.890026	0.398100	0.414804
	H108	H	0.911898	0.600324	0.088339
	H109	H	0.080521	0.378015	0.084802
	H110	H	0.092693	0.600450	0.916816
	H111	H	0.902935	0.371358	0.912024
	H112	H	0.079912	0.897515	0.609798
	H113	H	0.085476	0.079489	0.386508
	H114	H	0.910182	0.073949	0.613916
	H115	H	0.915312	0.901937	0.389159
	H116	H	0.613521	0.078656	0.909515
	H117	H	0.387944	0.075196	0.085598
	H118	H	0.611187	0.899003	0.084306
	H119	H	0.389518	0.904125	0.912255
	C120	C	0.379539	-0.005017	0.621271
	C121	C	0.623023	0.978974	0.621105
	C122	C	0.623957	-0.003978	0.377905
	C123	C	0.381308	0.978230	0.379878
	C124	C	0.619568	0.366482	0.008677
	C125	C	0.620428	0.609022	0.991833
	C126	C	0.377255	0.610090	0.007884
	C127	C	0.376886	0.366502	0.991388
	C128	C	0.008636	0.607718	0.378459
	C129	C	0.991522	0.608050	0.621445
	C130	C	0.009354	0.364977	0.621748
	C131	C	0.992329	0.365035	0.378170
	C132	C	0.877997	0.495737	0.121159
	C133	C	0.120558	0.478932	0.120116
	C134	C	0.120113	0.496256	0.878412
	C135	C	0.877340	0.477835	0.878306
	C136	C	0.122304	0.865586	0.508272
	C137	C	0.124008	0.108644	0.490086
	C138	C	0.880952	0.107693	0.508133
	C139	C	0.879636	0.865457	0.491570
	C140	C	0.507996	0.108976	0.878361
	C141	C	0.490747	0.107771	0.121059
	C142	C	0.508723	0.865421	0.122097
	C143	C	0.491818	0.866916	0.877861
	C144	C	0.375766	0.876729	0.683611
	C145	C	0.626877	0.097546	0.682684
	C146	C	0.629265	0.878220	0.315042
	C147	C	0.376572	0.096462	0.317128
	C148	C	0.681260	0.362920	0.890309
	C149	C	0.683065	0.613674	0.109875
	C150	C	0.316996	0.613015	0.888935
	C151	C	0.316761	0.363529	0.110444
	C152	C	0.890516	0.669623	0.374941
	C153	C	0.109702	0.670237	0.626061
	C154	C	0.891183	0.302833	0.624110
	C155	C	0.111079	0.304009	0.374181
	C156	C	0.890534	0.360529	0.682240
	C157	C	0.109427	0.612325	0.683995
	C158	C	0.889865	0.611264	0.317527
	C159	C	0.109660	0.360307	0.314668
	C160	C	0.374992	0.670717	0.888985
	C161	C	0.625251	0.671623	0.109638
	C162	C	0.623459	0.305035	0.889930
	C163	C	0.373577	0.304498	0.110014
	C164	C	0.686296	0.877664	0.373610
	C165	C	0.684961	0.097388	0.625306
	C166	C	0.315889	0.877736	0.627746
	C167	C	0.317785	0.095523	0.373373
	C168	C	0.874661	0.376894	0.181834
	C169	C	0.125013	0.597137	0.183031
	C170	C	0.122959	0.376662	0.818761
	C171	C	0.874110	0.596318	0.816087
	C172	C	0.184476	0.861093	0.390177
	C173	C	0.186719	0.113359	0.607743
	C174	C	0.820215	0.111462	0.389592
	C175	C	0.817659	0.861245	0.609505
	C176	C	0.388725	0.168578	0.875236
	C177	C	0.607907	0.171270	0.125068
	C178	C	0.390573	0.803702	0.126568
	C179	C	0.609049	0.803846	0.874157
	C180	C	0.392397	0.858716	0.187131
	C181	C	0.609503	0.111961	0.181521
	C182	C	0.390032	0.111708	0.816476
	C183	C	0.609342	0.861218	0.815892
	C184	C	0.879020	0.168092	0.389000
	C185	C	0.128179	0.169995	0.608539
	C186	C	0.126014	0.803907	0.389767
	C187	C	0.875756	0.803714	0.609894
	C188	C	0.181996	0.377515	0.875235
	C189	C	0.181433	0.598237	0.124130
	C190	C	0.816334	0.377442	0.124652
	C191	C	0.816582	0.596808	0.874560
	C192	C	0.406552	0.077097	0.594188
	C193	C	0.596955	0.896560	0.594666
	C194	C	0.597728	0.078294	0.403972
	C195	C	0.408226	0.896349	0.407228
	C196	C	0.593385	0.392259	0.090879
	C197	C	0.593802	0.582200	0.909964
	C198	C	0.402812	0.583984	0.090399
	C199	C	0.402318	0.391936	0.908596
	C200	C	0.091039	0.581557	0.403892
	C201	C	0.909236	0.581981	0.595240
	C202	C	0.091707	0.391492	0.596290
	C203	C	0.910336	0.391047	0.404804
	C204	C	0.904011	0.578692	0.095272
	C205	C	0.094821	0.396479	0.093815
	C206	C	0.094259	0.578919	0.903884
	C207	C	0.903247	0.395394	0.904976
	C208	C	0.095451	0.892687	0.590183
	C209	C	0.097500	0.082219	0.408121
	C210	C	0.906585	0.081695	0.590883
	C211	C	0.906517	0.892261	0.409305
	C212	C	0.590528	0.083706	0.904427
	C213	C	0.408711	0.080889	0.095434
	C214	C	0.590216	0.892788	0.094352
	C215	C	0.409826	0.893780	0.904358
	Zn216	Zn	0.501283	-0.012250	0.749232
	Zn217	Zn	0.500836	-0.013181	0.250551
	Zn218	Zn	0.749017	0.487569	0.000021
	Zn219	Zn	0.248995	0.488475	-0.000597
	Zn220	Zn	0.000857	0.736649	0.499945
	Zn221	Zn	0.002201	0.236806	0.499621
	Zn222	Zn	-0.000940	0.486364	0.750089
	Zn223	Zn	-0.000311	0.486708	0.249189
	Zn224	Zn	0.499758	0.737888	-0.000363
	Zn225	Zn	0.498053	0.237514	-0.000457
	Zn226	Zn	0.751825	-0.012361	0.499791
	Zn227	Zn	0.251394	-0.013566	0.499467
	N228	N	0.414668	0.950800	0.679647
	N229	N	0.589667	0.022608	0.680662
	N230	N	0.591178	0.952583	0.317643
	N231	N	0.415429	0.022325	0.320944
	N232	N	0.679190	0.400073	0.965091
	N233	N	0.680377	0.575603	0.035296
	N234	N	0.318038	0.576280	0.964104
	N235	N	0.318799	0.401145	0.035769
	N236	N	0.965376	0.667562	0.411938
	N237	N	0.035469	0.667640	0.587966
	N238	N	0.966252	0.305055	0.587547
	N239	N	0.037169	0.306792	0.412967
	N240	N	0.965224	0.398146	0.681045
	N241	N	0.034937	0.574334	0.681424
	N242	N	0.964341	0.573460	0.319376
	N243	N	0.034945	0.397537	0.317049
	N244	N	0.411378	0.669266	0.964139
	N245	N	0.587254	0.668990	0.035400
	N246	N	0.585579	0.307100	0.964511
	N247	N	0.410232	0.306173	0.034954
	N248	N	0.683250	0.952142	0.412052
	N249	N	0.682834	0.022455	0.587839
	N250	N	0.318186	0.952409	0.589728
	N251	N	0.320798	0.021238	0.411868
	N252	N	0.912155	0.451650	0.179818
	N253	N	0.087914	0.522030	0.180786
	N254	N	0.085306	0.451367	0.820612
	N255	N	0.910989	0.521210	0.818308
	N256	N	0.182441	0.898572	0.464970
	N257	N	0.184347	0.076055	0.533032
	N258	N	0.821112	0.075069	0.464906
	N259	N	0.819782	0.898732	0.534647
	N260	N	0.463218	0.167318	0.912726
	N261	N	0.533086	0.169049	0.088281
	N262	N	0.463862	0.807875	0.086790
	N263	N	0.534812	0.807568	0.912329
	N264	N	0.467098	0.896331	0.184547
	N265	N	0.535521	0.073227	0.179261
	N266	N	0.465252	0.075474	0.818226
	N267	N	0.535533	0.899912	0.818382
	N268	N	0.915986	0.166108	0.463962
	N269	N	0.089989	0.167356	0.534364
	N270	N	0.088287	0.806477	0.464273
	N271	N	0.913364	0.806186	0.535345
	N272	N	0.180532	0.452939	0.911518
	N273	N	0.178924	0.523814	0.085743
	N274	N	0.818216	0.452650	0.087791
	N275	N	0.818524	0.522228	0.912515
	O276	O	0.481423	0.702686	0.286596
	H277	H	0.507181	0.716279	0.323987
	H278	H	0.483913	0.744569	0.265639
	O279	O	1.073660	0.180898	0.925489
	H280	H	1.092562	0.167681	0.929708
	H281	H	1.056107	0.192178	0.905703
	O282	O	0.720765	0.271490	0.477526
	H283	H	0.727033	0.262105	0.441133
	H284	H	0.724266	0.253052	0.463225
	O285	O	0.580157	0.332202	0.575006
	H286	H	0.594720	0.335400	0.582437
	H287	H	0.585998	0.314932	0.598149
	O288	O	1.090461	0.894210	0.116459
	H289	H	1.091517	0.914132	0.117986
	H290	H	1.121969	0.901324	0.109966
	O291	O	0.320057	0.669521	0.320873
	H292	H	0.373677	0.679494	0.307289
	H293	H	0.310819	0.617155	0.311365
	O294	O	0.207640	0.000940	1.206782
	H295	H	0.184356	-0.008660	1.209163
	H296	H	0.222475	0.007000	1.231029
	O297	O	0.791235	0.971219	1.207215
	H298	H	0.771477	0.956811	1.222094
	H299	H	0.793130	0.951970	1.205331
	O300	O	0.451965	0.712402	0.551159
	H301	H	0.440071	0.710666	0.535344
	H302	H	0.433576	0.698794	0.536632
	O303	O	0.710364	0.504279	0.692905
	H304	H	0.727964	0.505702	0.711227
	H305	H	0.720565	0.488992	0.662338
	O306	O	0.685351	0.298087	0.315998
	H307	H	0.640743	0.286919	0.304221
	H308	H	0.696273	0.346690	0.307599
	O309	O	0.293386	0.506995	0.294322
	H310	H	0.281024	0.480285	0.339656
	H311	H	0.266987	0.501558	0.266531
	O312	O	0.032300	1.020524	1.063722
	H313	H	0.037297	1.038869	1.054777
	H314	H	0.034376	1.017307	1.087400
	O315	O	0.293633	0.464521	0.709126
	H316	H	0.280726	0.474876	0.730707
	H317	H	0.302187	0.492240	0.690184
	O318	O	1.020243	-0.118723	0.112074
	H319	H	1.042058	-0.116653	0.107904
	H320	H	1.001309	-0.114533	0.135282
	O321	O	-0.038983	0.192098	0.035963
	H322	H	-0.031916	0.176400	0.017354
	H323	H	-0.047134	0.198027	0.027661
	O324	O	0.684987	0.661786	0.682024
	H325	H	0.696217	0.629499	0.698191
	H326	H	0.633722	0.666942	0.691885
	O327	O	0.518210	0.454706	0.655269
	H328	H	0.506435	0.435585	0.659943
	H329	H	0.539572	0.452532	0.652052
	O330	O	0.179104	1.163778	0.185751
	H331	H	0.156401	1.176184	0.167590
	H332	H	0.182771	1.134502	0.182080
	O333	O	0.494260	0.282431	0.488804
	H334	H	0.517048	0.284124	0.480779
	H335	H	0.520355	0.279962	0.479007
	O336	O	0.192018	0.025118	-0.116931
	H337	H	0.193993	0.021459	-0.136908
	H338	H	0.193102	0.007156	-0.099410
	O339	O	-0.100981	1.007713	1.001054
	H340	H	-0.097695	1.002489	1.004262
	H341	H	-0.090832	1.019491	1.006890
	O342	O	0.050725	1.010716	0.813784
	H343	H	0.037448	1.020549	0.818820
	H344	H	0.030322	1.023734	0.823736
	O345	O	1.215313	1.202131	0.028103
	H346	H	1.205561	1.194521	0.024567
	H347	H	1.248778	1.225360	0.024886
	O348	O	0.710907	0.459927	0.289213
	H349	H	0.696704	0.478351	0.277678
	H350	H	0.723591	0.469743	0.277383
	O351	O	0.316481	1.302648	1.687624
	H352	H	0.299990	1.336129	1.694263
	H353	H	0.306154	1.313985	1.652226
	O354	O	0.012451	0.831897	-0.013734
	H355	H	-0.003678	0.823169	-0.009322
	H356	H	0.031891	0.840623	-0.007791
	O357	O	0.162530	-0.044539	0.800784
	H358	H	0.143169	-0.027236	0.806338
	H359	H	0.180181	-0.035068	0.784614
	O360	O	0.482927	0.448908	0.480630
	H361	H	0.501057	0.433851	0.489335
	H362	H	0.473649	0.445484	0.490421
	O363	O	0.151015	-0.088714	1.124672
	H364	H	0.131006	-0.081710	1.144246
	H365	H	0.156896	-0.116196	1.093131
	O366	O	0.714892	0.705180	0.530829
	H367	H	0.748038	0.730618	0.539697
	H368	H	0.706597	0.697298	0.578944
	O369	O	0.800568	0.785636	0.018619
	H370	H	0.801651	0.794439	0.006035
	H371	H	0.783693	0.776942	0.011450
	O372	O	1.001976	0.196437	0.787202
	H373	H	0.999564	0.229257	0.754896
	H374	H	0.961344	0.186946	0.801760
	O375	O	0.140339	0.804327	0.814922
	H376	H	0.145461	0.835573	0.805143
	H377	H	0.117708	0.799359	0.806572
	O378	O	1.221176	0.769993	0.973703
	H379	H	1.214601	0.791706	0.939364
	H380	H	1.259933	0.731880	0.968332
	O381	O	0.650445	0.515976	0.419310
	H382	H	0.642621	0.514593	0.401152
	H383	H	0.658198	0.556116	0.416092
	O384	O	-0.140099	0.887338	0.909122
	H385	H	-0.121580	0.877899	0.911885
	H386	H	-0.145948	0.913331	0.914147
	O387	O	-0.013562	-0.023862	0.838852
	H388	H	-0.009032	-0.028139	0.839314
	H389	H	-0.003253	-0.031512	0.846280
	O390	O	-0.213573	0.162405	-0.010023
	H391	H	-0.237720	0.183035	-0.003450
	H392	H	-0.213111	0.136813	0.002589
	O393	O	0.818381	1.173678	0.838959
	H394	H	0.803922	1.185614	0.870467
	H395	H	0.811864	1.140169	0.832408
	O396	O	0.522360	0.280569	0.294125
	H397	H	0.524862	0.266205	0.257831
	H398	H	0.493609	0.315766	0.292534
	O399	O	0.297006	0.550536	0.555315
	H400	H	0.291273	0.592205	0.545644
	H401	H	0.314019	0.545414	0.551346
	O402	O	0.982331	0.781987	1.210269
	H403	H	0.987005	0.786057	1.214328
	H404	H	0.993879	0.767862	1.223362
	O405	O	0.515628	0.686097	-0.292113
	H406	H	0.500203	0.687495	-0.298094
	H407	H	0.504407	0.707369	-0.301844
	O408	O	0.975867	-0.212869	-0.182864
	H409	H	0.977786	-0.223228	-0.167072
	H410	H	0.975356	-0.231485	-0.191134
	O411	O	1.015546	1.191578	0.203836
	H412	H	1.018703	1.192818	0.178982
	H413	H	1.010220	1.217129	0.220952
	O414	O	0.515086	0.471542	0.310067
	H415	H	0.509965	0.500549	0.311537
	H416	H	0.491287	0.464192	0.313645
	O417	O	0.822059	0.810356	0.179148
	H418	H	0.819295	0.799534	0.137656
	H419	H	0.852386	0.810961	0.186795
	O420	O	-0.192807	0.039484	0.047135
	H421	H	-0.164162	0.036152	0.055924
	H422	H	-0.188544	0.033779	0.059755
	O423	O	0.479532	0.271037	0.715086
	H424	H	0.446678	0.265238	0.723691
	H425	H	0.457155	0.261607	0.727031
	O426	O	0.450858	0.549431	0.702038
	H427	H	0.479015	0.542745	0.708085
	H428	H	0.458404	0.546744	0.702394
	O429	O	0.541005	0.504436	0.428405
	H430	H	0.537695	0.498977	0.428694
	H431	H	0.562407	0.505276	0.430154
	O432	O	0.573597	0.706964	0.438576
	H433	H	0.597294	0.714678	0.462770
	H434	H	0.576926	0.690427	0.463037
	O435	O	0.292684	0.280690	0.522737
	H436	H	0.334639	0.276902	0.514321
	H437	H	0.271299	0.239643	0.522240
	O438	O	-0.210235	0.026143	-0.209266
	H439	H	-0.206668	0.020933	-0.213230
	H440	H	-0.218082	0.024400	-0.227041
	O441	O	0.915225	0.016042	0.092180
	H442	H	0.903044	0.023004	0.091455
	H443	H	0.908370	0.020112	0.075176
	O444	O	0.272785	0.433021	0.443991
	H445	H	0.280197	0.395562	0.466553
	H446	H	0.266714	0.446274	0.472235
	O447	O	0.461136	0.382723	0.378864
	H448	H	0.464759	0.384877	0.406746
	H449	H	0.431489	0.391901	0.381090
	O450	O	0.703309	0.442305	0.545520
	H451	H	0.703094	0.464854	0.524520
	H452	H	0.706548	0.423672	0.526011
	O453	O	0.284036	0.707245	0.478243
	H454	H	0.276545	0.712741	0.444858
	H455	H	0.266656	0.722917	0.456085
