data_Molecule from HDF5

_cell_length_a		16.182356
_cell_length_b		16.225901
_cell_length_c		16.262246
_cell_angle_alpha	89.581425
_cell_angle_beta	90.086138
_cell_angle_gamma	90.085770
_symmetry_space_group_name_H-M	'P 1'
_symmetry_Int_Tables_number		1

loop_
	_symmetry_equiv_pos_as_xyz
	x,y,z

loop_
	_atom_site_label
	_atom_site_type_symbol
	_atom_site_fract_x
	_atom_site_fract_y
	_atom_site_fract_z
	H0	H	0.404118	0.843780	0.712395
	H1	H	0.604800	0.172086	0.711688
	H2	H	0.603534	0.843826	0.283966
	H3	H	0.402336	0.170398	0.277462
	H4	H	0.718375	0.409311	0.831028
	H5	H	0.720354	0.604818	0.158798
	H6	H	0.289774	0.608314	0.831657
	H7	H	0.289381	0.406958	0.159354
	H8	H	0.839003	0.721983	0.394482
	H9	H	0.167769	0.721714	0.592379
	H10	H	0.839007	0.292390	0.594442
	H11	H	0.168598	0.296718	0.397609
	H12	H	0.839363	0.408305	0.710118
	H13	H	0.167262	0.606857	0.709002
	H14	H	0.839461	0.609535	0.278671
	H15	H	0.167915	0.410517	0.281881
	H16	H	0.404483	0.724320	0.832701
	H17	H	0.604574	0.720163	0.159941
	H18	H	0.604489	0.292930	0.831822
	H19	H	0.404724	0.290726	0.159113
	H20	H	0.716743	0.843722	0.400507
	H21	H	0.717447	0.172903	0.592602
	H22	H	0.288338	0.844532	0.596176
	H23	H	0.291093	0.173326	0.396814
	H24	H	0.905030	0.343999	0.211026
	H25	H	0.103286	0.672592	0.208711
	H26	H	0.104167	0.344099	0.781376
	H27	H	0.904763	0.671962	0.779888
	H28	H	0.218440	0.911110	0.331405
	H29	H	0.216406	0.104742	0.659321
	H30	H	0.788815	0.107666	0.331021
	H31	H	0.789678	0.908124	0.659101
	H32	H	0.339549	0.222099	0.896524
	H33	H	0.668951	0.219641	0.093119
	H34	H	0.339567	0.790375	0.096243
	H35	H	0.669496	0.795786	0.900320
	H36	H	0.338782	0.906924	0.210942
	H37	H	0.668576	0.104798	0.209994
	H38	H	0.339723	0.108346	0.780303
	H39	H	0.668373	0.909288	0.783081
	H40	H	0.905306	0.223652	0.330989
	H41	H	0.104277	0.222429	0.658381
	H42	H	0.100923	0.795894	0.330197
	H43	H	0.903181	0.790709	0.657687
	H44	H	0.217034	0.343254	0.899126
	H45	H	0.218699	0.672399	0.092614
	H46	H	0.792413	0.342986	0.092973
	H47	H	0.790228	0.672204	0.896159
	H48	H	0.408368	0.126476	0.590673
	H49	H	0.585505	0.891927	0.598148
	H50	H	0.606728	0.126754	0.409850
	H51	H	0.405379	0.887797	0.398520
	H52	H	0.591811	0.421125	0.107061
	H53	H	0.591638	0.601354	0.880399
	H54	H	0.402758	0.608336	0.118342
	H55	H	0.414027	0.408468	0.877562
	H56	H	0.120748	0.601560	0.401872
	H57	H	0.884655	0.595324	0.595119
	H58	H	0.115594	0.425910	0.583674
	H59	H	0.888954	0.424683	0.404702
	H60	H	0.125409	0.415979	0.600914
	H61	H	0.883332	0.608101	0.587647
	H62	H	0.121396	0.601673	0.401499
	H63	H	0.882514	0.412924	0.394879
	H64	H	0.406711	0.585511	0.110281
	H65	H	0.598932	0.607853	0.875883
	H66	H	0.593384	0.402547	0.113962
	H67	H	0.404431	0.416880	0.877431
	H68	H	0.595765	0.129385	0.388298
	H69	H	0.595733	0.894620	0.579167
	H70	H	0.413884	0.124977	0.591468
	H71	H	0.418122	0.893658	0.402145
	H72	H	0.911263	0.626510	0.090831
	H73	H	0.098274	0.389177	0.095606
	H74	H	0.096773	0.623598	0.907754
	H75	H	0.924298	0.395640	0.908394
	H76	H	0.089908	0.915775	0.608565
	H77	H	0.095521	0.098858	0.379246
	H78	H	0.914551	0.112135	0.614806
	H79	H	0.909921	0.916110	0.377771
	H80	H	0.624678	0.112125	0.904100
	H81	H	0.380670	0.100777	0.102537
	H82	H	0.624132	0.904539	0.092579
	H83	H	0.387347	0.909366	0.912963
	H84	H	0.617251	0.916337	0.081683
	H85	H	0.386365	0.112121	0.076608
	H86	H	0.615721	0.094316	0.913901
	H87	H	0.389344	0.924786	0.903757
	H88	H	0.899530	0.096351	0.614184
	H89	H	0.093587	0.107177	0.376933
	H90	H	0.097329	0.906474	0.613934
	H91	H	0.908340	0.914922	0.376943
	H92	H	0.102708	0.627245	0.899204
	H93	H	0.091938	0.393062	0.089240
	H94	H	0.915510	0.624059	0.086395
	H95	H	0.898791	0.389577	0.911511
	H96	H	0.411188	0.124791	0.586684
	H97	H	0.607163	0.886774	0.596837
	H98	H	0.583046	0.119810	0.407445
	H99	H	0.407734	0.891293	0.411992
	H100	H	0.609138	0.414266	0.115763
	H101	H	0.601304	0.597523	0.879495
	H102	H	0.425261	0.601996	0.109351
	H103	H	0.415170	0.419993	0.881976
	H104	H	0.121266	0.603188	0.401901
	H105	H	0.888085	0.596372	0.580438
	H106	H	0.121547	0.405474	0.582157
	H107	H	0.885971	0.409969	0.409957
	H108	H	0.908579	0.625204	0.084767
	H109	H	0.100381	0.390031	0.086332
	H110	H	0.092306	0.624376	0.897311
	H111	H	0.910645	0.385908	0.889221
	H112	H	0.100914	0.918462	0.612130
	H113	H	0.101737	0.104049	0.376199
	H114	H	0.919557	0.092093	0.606829
	H115	H	0.908953	0.916518	0.378113
	H116	H	0.622975	0.093640	0.892669
	H117	H	0.392453	0.084665	0.082376
	H118	H	0.621526	0.920599	0.097662
	H119	H	0.382687	0.910538	0.895929
	C120	C	0.382206	0.016969	0.618379
	C121	C	0.625066	0.999869	0.618641
	C122	C	0.623888	0.016556	0.375274
	C123	C	0.381810	0.999143	0.374378
	C124	C	0.626464	0.385187	0.003539
	C125	C	0.626447	0.629127	0.987181
	C126	C	0.382822	0.628786	0.004225
	C127	C	0.382635	0.385654	0.987112
	C128	C	0.012062	0.630484	0.372674
	C129	C	0.994268	0.628778	0.616019
	C130	C	0.012394	0.385931	0.617387
	C131	C	0.994947	0.387825	0.374773
	C132	C	0.882819	0.516652	0.116842
	C133	C	0.126005	0.499299	0.117965
	C134	C	0.125499	0.516345	0.874088
	C135	C	0.882199	0.498892	0.873261
	C136	C	0.125187	0.886139	0.503457
	C137	C	0.125615	0.130814	0.486111
	C138	C	0.881926	0.129801	0.503569
	C139	C	0.880873	0.886337	0.486212
	C140	C	0.512657	0.129315	0.874307
	C141	C	0.495375	0.127971	0.116505
	C142	C	0.512438	0.884282	0.119199
	C143	C	0.495142	0.886518	0.875714
	C144	C	0.383906	0.892981	0.674332
	C145	C	0.623804	0.123169	0.673272
	C146	C	0.622801	0.892852	0.321500
	C147	C	0.382828	0.122132	0.316678
	C148	C	0.681235	0.388655	0.880333
	C149	C	0.682063	0.625598	0.110025
	C150	C	0.326975	0.628218	0.881102
	C151	C	0.327366	0.386979	0.110379
	C152	C	0.888205	0.684802	0.374460
	C153	C	0.118321	0.684314	0.613110
	C154	C	0.888334	0.330283	0.614617
	C155	C	0.119141	0.333595	0.377273
	C156	C	0.888512	0.387460	0.672664
	C157	C	0.118331	0.627024	0.670875
	C158	C	0.888596	0.628703	0.316736
	C159	C	0.119037	0.390445	0.319910
	C160	C	0.384398	0.685615	0.881309
	C161	C	0.624435	0.682979	0.110642
	C162	C	0.624180	0.330951	0.880405
	C163	C	0.384610	0.328939	0.110140
	C164	C	0.678861	0.892705	0.379682
	C165	C	0.680316	0.123479	0.614636
	C166	C	0.326557	0.893463	0.616267
	C167	C	0.327439	0.123337	0.375988
	C168	C	0.884951	0.393033	0.172725
	C169	C	0.123839	0.623297	0.171603
	C170	C	0.123534	0.392939	0.819569
	C171	C	0.884356	0.622801	0.817666
	C172	C	0.180318	0.890410	0.380055
	C173	C	0.179932	0.126514	0.609883
	C174	C	0.826466	0.128106	0.380067
	C175	C	0.826680	0.887920	0.609669
	C176	C	0.388750	0.184645	0.876096
	C177	C	0.619666	0.182212	0.114033
	C178	C	0.388603	0.828408	0.116658
	C179	C	0.619949	0.832769	0.879204
	C180	C	0.388306	0.886029	0.173889
	C181	C	0.619453	0.124807	0.171655
	C182	C	0.388555	0.127547	0.818939
	C183	C	0.619287	0.889076	0.820959
	C184	C	0.884260	0.185775	0.380143
	C185	C	0.123835	0.184804	0.609624
	C186	C	0.121911	0.833168	0.379465
	C187	C	0.883069	0.829504	0.609048
	C188	C	0.179691	0.392350	0.878087
	C189	C	0.181150	0.623040	0.113887
	C190	C	0.828532	0.392582	0.114352
	C191	C	0.827462	0.622855	0.875453
	C192	C	0.404594	0.103128	0.595986
	C193	C	0.602686	0.913379	0.597538
	C194	C	0.601604	0.103070	0.395805
	C195	C	0.403893	0.913168	0.397541
	C196	C	0.604357	0.406262	0.090036
	C197	C	0.603907	0.608336	0.900780
	C198	C	0.405152	0.605471	0.090437
	C199	C	0.404679	0.408570	0.901118
	C200	C	0.098678	0.608591	0.395061
	C201	C	0.907811	0.606446	0.594293
	C202	C	0.098612	0.408934	0.595490
	C203	C	0.908285	0.409555	0.396721
	C204	C	0.905369	0.602976	0.094082
	C205	C	0.103410	0.412965	0.096875
	C206	C	0.103563	0.602746	0.895174
	C207	C	0.904665	0.412621	0.896280
	C208	C	0.102836	0.907327	0.589333
	C209	C	0.103616	0.109535	0.399887
	C210	C	0.904372	0.106809	0.589856
	C211	C	0.902709	0.909058	0.399811
	C212	C	0.598835	0.106726	0.896946
	C213	C	0.408791	0.105729	0.093934
	C214	C	0.598652	0.906918	0.097153
	C215	C	0.408845	0.908419	0.897841
	Zn216	Zn	0.503421	0.007904	0.747552
	Zn217	Zn	0.503389	0.006874	0.246336
	Zn218	Zn	0.754720	0.507395	-0.004967
	Zn219	Zn	0.254259	0.507474	-0.004297
	Zn220	Zn	0.002257	0.757729	0.493978
	Zn221	Zn	0.004132	0.258468	0.494882
	Zn222	Zn	0.003718	0.507958	0.745559
	Zn223	Zn	0.003830	0.508430	0.245779
	Zn224	Zn	0.504611	0.757204	-0.003619
	Zn225	Zn	0.504690	0.256848	-0.004758
	Zn226	Zn	0.752694	0.008404	0.495710
	Zn227	Zn	0.253719	0.008958	0.495660
	N228	N	0.417903	0.970805	0.675673
	N229	N	0.590197	0.045120	0.675894
	N230	N	0.589285	0.970732	0.318549
	N231	N	0.415936	0.044048	0.315445
	N232	N	0.682560	0.421928	0.957932
	N233	N	0.683183	0.592831	0.032234
	N234	N	0.325918	0.593626	0.958652
	N235	N	0.326122	0.421585	0.033050
	N236	N	0.966009	0.686232	0.408511
	N237	N	0.040153	0.685566	0.579564
	N238	N	0.966389	0.329103	0.581251
	N239	N	0.040984	0.331993	0.410539
	N240	N	0.966488	0.421608	0.674456
	N241	N	0.040316	0.593360	0.672730
	N242	N	0.966742	0.595419	0.315561
	N243	N	0.040662	0.423222	0.318032
	N244	N	0.418487	0.686018	0.958832
	N245	N	0.590447	0.685196	0.033071
	N246	N	0.590972	0.328566	0.958287
	N247	N	0.418476	0.328118	0.032439
	N248	N	0.679816	0.970791	0.412168
	N249	N	0.681234	0.045794	0.581386
	N250	N	0.325103	0.971355	0.582355
	N251	N	0.326659	0.045915	0.411142
	N252	N	0.917782	0.471225	0.174475
	N253	N	0.090347	0.545308	0.174371
	N254	N	0.090650	0.471055	0.816980
	N255	N	0.917707	0.544816	0.816311
	N256	N	0.182426	0.922682	0.458037
	N257	N	0.181031	0.093522	0.532080
	N258	N	0.824857	0.093968	0.458014
	N259	N	0.825368	0.922720	0.532201
	N260	N	0.466946	0.185758	0.909796
	N261	N	0.541527	0.184343	0.080519
	N262	N	0.466694	0.827074	0.083463
	N263	N	0.541793	0.830920	0.912468
	N264	N	0.466269	0.920195	0.175476
	N265	N	0.541054	0.091604	0.173180
	N266	N	0.466509	0.094023	0.817562
	N267	N	0.540729	0.921551	0.818457
	N268	N	0.917978	0.186822	0.457868
	N269	N	0.090941	0.187693	0.531483
	N270	N	0.088328	0.830191	0.457106
	N271	N	0.915917	0.828458	0.531165
	N272	N	0.181194	0.470139	0.911236
	N273	N	0.182812	0.544921	0.081415
	N274	N	0.827057	0.470555	0.080273
	N275	N	0.826012	0.544858	0.909218
	O276	O	0.037199	0.014770	-0.030756
	H277	H	0.048401	0.024459	-0.043448
	H278	H	0.040650	-0.000238	-0.036878
	O279	O	0.517225	0.533483	0.505362
	H280	H	0.511951	0.530242	0.511333
	H281	H	0.518278	0.530684	0.492702
	O282	O	0.518610	0.481203	0.523439
	H283	H	0.507791	0.498116	0.515574
	H284	H	0.513383	0.478522	0.526671
	O285	O	1.054297	0.013190	0.983001
	H286	H	1.049469	0.013402	0.993388
	H287	H	1.052958	0.008098	0.976662
	O288	O	0.965808	-0.006764	0.014344
	H289	H	0.959176	-0.007273	0.012830
	H290	H	0.970724	-0.014256	0.010761
	O291	O	0.462870	0.536826	0.592161
	H292	H	0.474464	0.519689	0.584696
	H293	H	0.453071	0.537010	0.609968
	O294	O	1.038247	-0.004057	1.007382
	H295	H	1.037905	-0.005072	1.000869
	H296	H	1.033115	0.006263	0.999232
	O297	O	0.007343	0.011436	0.010969
	H298	H	0.012560	0.017736	0.014544
	H299	H	0.011721	0.019813	0.018225
	O300	O	0.481280	0.595227	0.442912
	H301	H	0.483462	0.583572	0.447459
	H302	H	0.491723	0.604909	0.431070
	O303	O	0.492728	0.568597	0.473669
	H304	H	0.493590	0.574453	0.463872
	H305	H	0.497606	0.567263	0.467585
	O306	O	0.962648	-0.022693	-0.117054
	H307	H	0.957815	-0.018950	-0.119733
	H308	H	0.962125	-0.025733	-0.127063
	O309	O	0.012758	-0.010914	0.943094
	H310	H	0.018043	-0.012720	0.944276
	H311	H	0.019598	-0.010955	0.947193
	O312	O	1.472539	0.513993	1.477924
	H313	H	1.471656	0.513916	1.474096
	H314	H	1.474934	0.507342	1.486653
	O315	O	0.544292	0.477181	0.416098
	H316	H	0.550087	0.478028	0.414998
	H317	H	0.532286	0.484701	0.420905
	O318	O	0.455589	0.466935	0.498147
	H319	H	0.451854	0.463029	0.507362
	H320	H	0.449086	0.462285	0.502006
	O321	O	-0.088719	0.981696	0.995002
	H322	H	-0.086609	0.977580	1.000290
	H323	H	-0.102378	0.978890	0.985922
	O324	O	0.479289	0.494247	0.545549
	H325	H	0.477406	0.492402	0.555731
	H326	H	0.496007	0.496071	0.537167
	O327	O	0.510963	0.391073	0.475614
	H328	H	0.516750	0.388046	0.464639
	H329	H	0.516621	0.398095	0.477629
	O330	O	0.510407	0.533032	0.499991
	H331	H	0.511895	0.524287	0.485031
	H332	H	0.505702	0.529618	0.506478
	O333	O	0.466245	0.469044	0.460987
	H334	H	0.460631	0.469071	0.446334
	H335	H	0.456658	0.467425	0.471241
	O336	O	0.438044	0.554402	0.505487
	H337	H	0.437865	0.553683	0.515948
	H338	H	0.428938	0.565388	0.504851
	O339	O	0.989289	0.979829	0.060325
	H340	H	0.983137	0.979854	0.064599
	H341	H	0.984085	0.988162	0.061396
	O342	O	0.492825	0.511096	0.506790
	H343	H	0.489296	0.523850	0.496362
	H344	H	0.498821	0.505582	0.524639
	O345	O	0.489083	0.596051	0.460330
	H346	H	0.483990	0.606260	0.460337
	H347	H	0.489804	0.592019	0.463288
	O348	O	0.050170	-0.046150	-0.028097
	H349	H	0.042642	-0.045712	-0.030986
	H350	H	0.056742	-0.047773	-0.029812
	O351	O	0.035312	1.078033	0.927904
	H352	H	0.028980	1.083579	0.932449
	H353	H	0.032712	1.082536	0.926463
	O354	O	0.481591	0.427124	0.502053
	H355	H	0.486051	0.434784	0.492803
	H356	H	0.480167	0.426675	0.500392
	O357	O	-0.094362	1.001060	0.962077
	H358	H	-0.086598	1.002625	0.965143
	H359	H	-0.098451	0.993549	0.964098
