data_Molecule from HDF5

_cell_length_a		16.235862
_cell_length_b		16.330638
_cell_length_c		16.278322
_cell_angle_alpha	90.033820
_cell_angle_beta	90.091579
_cell_angle_gamma	90.175551
_symmetry_space_group_name_H-M	'P 1'
_symmetry_Int_Tables_number		1

loop_
	_symmetry_equiv_pos_as_xyz
	x,y,z

loop_
	_atom_site_label
	_atom_site_type_symbol
	_atom_site_fract_x
	_atom_site_fract_y
	_atom_site_fract_z
	H0	H	0.391635	0.829853	0.705565
	H1	H	0.588179	0.156836	0.705614
	H2	H	0.587302	0.829219	0.278066
	H3	H	0.391599	0.156197	0.276340
	H4	H	0.703246	0.396582	0.827335
	H5	H	0.704790	0.589776	0.155743
	H6	H	0.277465	0.589462	0.827808
	H7	H	0.277444	0.396016	0.155725
	H8	H	0.825838	0.706481	0.394056
	H9	H	0.154628	0.708008	0.589928
	H10	H	0.825866	0.280260	0.589484
	H11	H	0.154313	0.279355	0.394064
	H12	H	0.825977	0.396571	0.705123
	H13	H	0.154570	0.592564	0.706505
	H14	H	0.826405	0.590735	0.277340
	H15	H	0.155922	0.397442	0.280433
	H16	H	0.392003	0.706942	0.827764
	H17	H	0.590389	0.708186	0.154738
	H18	H	0.589075	0.278214	0.827296
	H19	H	0.392208	0.278851	0.155086
	H20	H	0.703280	0.829234	0.394711
	H21	H	0.703232	0.157478	0.588359
	H22	H	0.274349	0.830374	0.590293
	H23	H	0.276297	0.156934	0.395085
	H24	H	0.891268	0.329656	0.207303
	H25	H	0.090758	0.657051	0.206440
	H26	H	0.088028	0.329907	0.777576
	H27	H	0.891647	0.656041	0.777099
	H28	H	0.202734	0.896300	0.328368
	H29	H	0.205453	0.093418	0.655184
	H30	H	0.778025	0.089532	0.326831
	H31	H	0.776719	0.896524	0.655957
	H32	H	0.326300	0.206933	0.892032
	H33	H	0.654471	0.207592	0.089206
	H34	H	0.327348	0.776833	0.090009
	H35	H	0.654308	0.778924	0.892044
	H36	H	0.326205	0.894031	0.204636
	H37	H	0.654749	0.090934	0.205348
	H38	H	0.325855	0.089472	0.777948
	H39	H	0.655240	0.896392	0.778235
	H40	H	0.891687	0.207928	0.327966
	H41	H	0.089098	0.208710	0.656302
	H42	H	0.088247	0.779413	0.328788
	H43	H	0.890859	0.778703	0.655706
	H44	H	0.203243	0.329239	0.895157
	H45	H	0.206558	0.656777	0.089996
	H46	H	0.776890	0.328686	0.088878
	H47	H	0.777165	0.656573	0.894170
	H48	H	0.392709	0.111880	0.588536
	H49	H	0.587420	0.875338	0.586954
	H50	H	0.578800	0.108822	0.394810
	H51	H	0.397633	0.873480	0.385336
	H52	H	0.580566	0.394246	0.108718
	H53	H	0.582170	0.603376	0.870805
	H54	H	0.388154	0.578625	0.108700
	H55	H	0.387159	0.393020	0.870176
	H56	H	0.109537	0.591383	0.395691
	H57	H	0.872746	0.585918	0.587910
	H58	H	0.110261	0.405985	0.600427
	H59	H	0.870991	0.389047	0.399535
	H60	H	0.110871	0.385593	0.581582
	H61	H	0.872904	0.589183	0.584085
	H62	H	0.106493	0.588558	0.405160
	H63	H	0.877918	0.405234	0.407154
	H64	H	0.411522	0.581569	0.102688
	H65	H	0.598880	0.580025	0.871926
	H66	H	0.589245	0.400273	0.109180
	H67	H	0.396389	0.410279	0.877746
	H68	H	0.585408	0.108299	0.403661
	H69	H	0.580804	0.876285	0.588261
	H70	H	0.402010	0.109207	0.588137
	H71	H	0.404934	0.882494	0.404804
	H72	H	0.897371	0.610531	0.090083
	H73	H	0.076956	0.378830	0.088063
	H74	H	0.092906	0.612705	0.896444
	H75	H	0.898428	0.374319	0.888297
	H76	H	0.082546	0.900140	0.608591
	H77	H	0.084037	0.077199	0.377958
	H78	H	0.886774	0.087178	0.611256
	H79	H	0.897196	0.904428	0.377018
	H80	H	0.611310	0.090806	0.892613
	H81	H	0.374991	0.077026	0.088135
	H82	H	0.606207	0.902043	0.082621
	H83	H	0.372628	0.899459	0.894634
	H84	H	0.607857	0.901956	0.086287
	H85	H	0.369510	0.093723	0.090766
	H86	H	0.605915	0.090069	0.906391
	H87	H	0.373309	0.896467	0.899968
	H88	H	0.902009	0.080435	0.604810
	H89	H	0.072391	0.089640	0.378462
	H90	H	0.080957	0.902589	0.608227
	H91	H	0.901266	0.897869	0.375699
	H92	H	0.077529	0.609773	0.892193
	H93	H	0.085947	0.378485	0.079360
	H94	H	0.903336	0.606700	0.083297
	H95	H	0.904354	0.380228	0.903037
	H96	H	0.396221	0.107862	0.580414
	H97	H	0.583193	0.878292	0.582243
	H98	H	0.589949	0.112096	0.393581
	H99	H	0.383966	0.874971	0.402837
	H100	H	0.580184	0.404399	0.104853
	H101	H	0.571458	0.578804	0.880825
	H102	H	0.398644	0.599979	0.112114
	H103	H	0.407605	0.392786	0.875901
	H104	H	0.105969	0.582037	0.397612
	H105	H	0.874675	0.584987	0.583448
	H106	H	0.101458	0.410455	0.574363
	H107	H	0.872317	0.404828	0.388704
	H108	H	0.894287	0.608558	0.080825
	H109	H	0.088275	0.374660	0.090822
	H110	H	0.082266	0.606518	0.907435
	H111	H	0.888228	0.375404	0.901557
	H112	H	0.080101	0.900094	0.608520
	H113	H	0.088536	0.092883	0.372794
	H114	H	0.901299	0.097563	0.610303
	H115	H	0.893698	0.897793	0.374219
	H116	H	0.604897	0.078538	0.897209
	H117	H	0.375440	0.089176	0.074723
	H118	H	0.607418	0.898632	0.083691
	H119	H	0.374600	0.901786	0.899864
	C120	C	0.368650	0.001611	0.613193
	C121	C	0.611897	0.985148	0.613524
	C122	C	0.611784	0.001052	0.369991
	C123	C	0.367856	0.984990	0.370008
	C124	C	0.611850	0.371258	-0.000481
	C125	C	0.612791	0.615294	0.982939
	C126	C	0.370170	0.614506	-0.000197
	C127	C	0.368797	0.370962	0.983077
	C128	C	-0.001159	0.615064	0.370653
	C129	C	0.981933	0.615214	0.613594
	C130	C	-0.001256	0.372573	0.613077
	C131	C	0.982337	0.371778	0.370048
	C132	C	0.869402	0.500761	0.113277
	C133	C	0.112655	0.485243	0.113895
	C134	C	0.111989	0.501465	0.870577
	C135	C	0.868628	0.484693	0.869535
	C136	C	0.110717	0.872107	0.500753
	C137	C	0.110989	0.115671	0.484299
	C138	C	0.868411	0.115927	0.500219
	C139	C	0.868055	0.871398	0.483367
	C140	C	0.498688	0.114601	0.869987
	C141	C	0.482091	0.114825	0.113026
	C142	C	0.498893	0.871679	0.112555
	C143	C	0.481970	0.871538	0.869508
	C144	C	0.371264	0.878461	0.667742
	C145	C	0.609115	0.108129	0.668164
	C146	C	0.608340	0.878040	0.315661
	C147	C	0.371058	0.107853	0.314907
	C148	C	0.665962	0.374886	0.875993
	C149	C	0.667558	0.611367	0.106484
	C150	C	0.315005	0.611043	0.876554
	C151	C	0.314522	0.374864	0.106475
	C152	C	0.874857	0.669051	0.373251
	C153	C	0.105661	0.670117	0.610534
	C154	C	0.874882	0.318084	0.610070
	C155	C	0.105861	0.317684	0.373845
	C156	C	0.874763	0.375920	0.667184
	C157	C	0.105665	0.612754	0.668415
	C158	C	0.875251	0.611440	0.315409
	C159	C	0.106349	0.375657	0.316763
	C160	C	0.371921	0.669047	0.876536
	C161	C	0.610571	0.669971	0.106186
	C162	C	0.609135	0.316467	0.876194
	C163	C	0.371559	0.316658	0.106329
	C164	C	0.665939	0.878110	0.373686
	C165	C	0.666036	0.108471	0.609708
	C166	C	0.313004	0.878578	0.610486
	C167	C	0.313536	0.108018	0.373464
	C168	C	0.871200	0.378209	0.168916
	C169	C	0.110691	0.608394	0.168525
	C170	C	0.108821	0.378721	0.815394
	C171	C	0.871465	0.607705	0.815256
	C172	C	0.165116	0.875538	0.377239
	C173	C	0.166825	0.113574	0.606813
	C174	C	0.814498	0.111254	0.376468
	C175	C	0.813883	0.874821	0.606871
	C176	C	0.374888	0.168668	0.872504
	C177	C	0.605609	0.169589	0.110128
	C178	C	0.375830	0.815721	0.110020
	C179	C	0.605798	0.817359	0.872196
	C180	C	0.375350	0.873894	0.167171
	C181	C	0.605665	0.111734	0.167869
	C182	C	0.374765	0.110569	0.815662
	C183	C	0.605891	0.875482	0.815475
	C184	C	0.871248	0.169962	0.376750
	C185	C	0.109388	0.171252	0.607017
	C186	C	0.108464	0.817304	0.377488
	C187	C	0.870268	0.816155	0.606533
	C188	C	0.166110	0.378419	0.873899
	C189	C	0.168422	0.608031	0.110733
	C190	C	0.814472	0.377686	0.109925
	C191	C	0.814435	0.607726	0.873271
	C192	C	0.390395	0.087464	0.591754
	C193	C	0.590079	0.898851	0.592123
	C194	C	0.590715	0.087420	0.391059
	C195	C	0.389142	0.899176	0.391286
	C196	C	0.589782	0.393224	0.085409
	C197	C	0.590745	0.593920	0.896839
	C198	C	0.392818	0.592992	0.085724
	C199	C	0.390568	0.392330	0.896896
	C200	C	0.085000	0.593717	0.393040
	C201	C	0.895641	0.593203	0.591663
	C202	C	0.085314	0.394263	0.591747
	C203	C	0.895904	0.393274	0.391790
	C204	C	0.891845	0.586343	0.091271
	C205	C	0.090252	0.399583	0.092396
	C206	C	0.090472	0.587404	0.892253
	C207	C	0.890548	0.398777	0.891162
	C208	C	0.087988	0.894455	0.586400
	C209	C	0.088501	0.093215	0.398455
	C210	C	0.890284	0.094651	0.586510
	C211	C	0.890677	0.893400	0.397615
	C212	C	0.585031	0.092986	0.892071
	C213	C	0.395615	0.092967	0.091247
	C214	C	0.584873	0.894256	0.090577
	C215	C	0.395856	0.892930	0.891442
	Zn216	Zn	0.490149	-0.006610	0.741884
	Zn217	Zn	0.490270	-0.006937	0.241413
	Zn218	Zn	0.740524	0.492691	-0.009088
	Zn219	Zn	0.241414	0.493314	-0.008443
	Zn220	Zn	-0.010074	0.743263	0.492011
	Zn221	Zn	-0.009759	0.244387	0.491895
	Zn222	Zn	-0.009761	0.493702	0.741501
	Zn223	Zn	-0.008782	0.493563	0.242236
	Zn224	Zn	0.490905	0.743470	-0.009237
	Zn225	Zn	0.490202	0.242554	-0.009039
	Zn226	Zn	0.740403	-0.006910	0.492107
	Zn227	Zn	0.239007	-0.006614	0.492271
	N228	N	0.405030	0.955846	0.669582
	N229	N	0.576188	0.030403	0.670507
	N230	N	0.575456	0.955554	0.313378
	N231	N	0.403807	0.030302	0.312543
	N232	N	0.667546	0.408475	0.953476
	N233	N	0.669025	0.578083	0.028873
	N234	N	0.313922	0.577727	0.953978
	N235	N	0.312941	0.407993	0.028835
	N236	N	0.952560	0.671334	0.406933
	N237	N	0.027702	0.672023	0.577388
	N238	N	0.952822	0.316049	0.576980
	N239	N	0.027658	0.315130	0.405931
	N240	N	0.952727	0.409088	0.669132
	N241	N	0.027859	0.579263	0.670230
	N242	N	0.953237	0.578685	0.313814
	N243	N	0.028513	0.408785	0.314563
	N244	N	0.405599	0.671219	0.954144
	N245	N	0.577416	0.672645	0.028390
	N246	N	0.576181	0.314174	0.954009
	N247	N	0.404428	0.313948	0.028599
	N248	N	0.668180	0.955722	0.406689
	N249	N	0.667809	0.031018	0.576482
	N250	N	0.311479	0.955953	0.577057
	N251	N	0.311323	0.030806	0.406915
	N252	N	0.904894	0.455641	0.170815
	N253	N	0.077071	0.531021	0.170946
	N254	N	0.076084	0.456304	0.813079
	N255	N	0.904586	0.530287	0.812926
	N256	N	0.166452	0.909150	0.454757
	N257	N	0.168182	0.079825	0.529402
	N258	N	0.812574	0.078370	0.454291
	N259	N	0.812448	0.908413	0.529429
	N260	N	0.452906	0.171140	0.905655
	N261	N	0.527732	0.171582	0.076913
	N262	N	0.453584	0.814373	0.076789
	N263	N	0.527768	0.814696	0.905193
	N264	N	0.452854	0.908302	0.168586
	N265	N	0.527716	0.078430	0.169734
	N266	N	0.452706	0.078019	0.813676
	N267	N	0.528030	0.908432	0.813617
	N268	N	0.903915	0.173086	0.454671
	N269	N	0.075218	0.172427	0.529762
	N270	N	0.075236	0.815249	0.455140
	N271	N	0.903345	0.813908	0.528770
	N272	N	0.168095	0.455685	0.907431
	N273	N	0.169697	0.530644	0.077351
	N274	N	0.812938	0.454849	0.076136
	N275	N	0.812610	0.530296	0.906230
	O276	O	1.014323	-0.030391	1.093331
	H277	H	1.013407	-0.029142	1.092882
	H278	H	1.012233	-0.031733	1.097135
	O279	O	0.977385	1.015764	1.111479
	H280	H	0.982775	1.015127	1.106823
	H281	H	0.977977	1.023585	1.121687
	O282	O	0.998496	0.997900	0.100117
	H283	H	1.006298	0.992942	0.099294
	H284	H	1.000648	0.989601	0.097084
	O285	O	0.983407	0.978036	1.102988
	H286	H	0.980200	0.990087	1.102092
	H287	H	0.976724	0.975846	1.117863
