data_Molecule from HDF5

_cell_length_a		16.539520
_cell_length_b		16.428802
_cell_length_c		16.360515
_cell_angle_alpha	90.092623
_cell_angle_beta	90.094335
_cell_angle_gamma	90.319196
_symmetry_space_group_name_H-M	'P 1'
_symmetry_Int_Tables_number		1

loop_
	_symmetry_equiv_pos_as_xyz
	x,y,z

loop_
	_atom_site_label
	_atom_site_type_symbol
	_atom_site_fract_x
	_atom_site_fract_y
	_atom_site_fract_z
	H0	H	0.390232	0.841281	0.725646
	H1	H	0.605847	0.157071	0.727326
	H2	H	0.603010	0.841194	0.282389
	H3	H	0.394187	0.156812	0.280469
	H4	H	0.721210	0.389807	0.843815
	H5	H	0.724246	0.609613	0.156767
	H6	H	0.274976	0.609002	0.842830
	H7	H	0.275859	0.394769	0.159348
	H8	H	0.842802	0.726126	0.391769
	H9	H	0.152410	0.726855	0.613874
	H10	H	0.841224	0.274851	0.609191
	H11	H	0.154069	0.279734	0.395406
	H12	H	0.840746	0.390304	0.725612
	H13	H	0.152445	0.609138	0.728372
	H14	H	0.841876	0.608626	0.275724
	H15	H	0.155228	0.398608	0.281567
	H16	H	0.394228	0.720366	0.842290
	H17	H	0.609309	0.724309	0.157920
	H18	H	0.604589	0.275326	0.843960
	H19	H	0.392439	0.279794	0.160254
	H20	H	0.723580	0.844300	0.394822
	H21	H	0.725671	0.155554	0.616033
	H22	H	0.271867	0.843634	0.612277
	H23	H	0.276160	0.157348	0.395694
	H24	H	0.893395	0.341194	0.221249
	H25	H	0.102529	0.658774	0.222350
	H26	H	0.098493	0.340024	0.782298
	H27	H	0.889036	0.656347	0.776531
	H28	H	0.216241	0.896545	0.343854
	H29	H	0.220855	0.108481	0.661070
	H30	H	0.774213	0.108420	0.346420
	H31	H	0.773619	0.891460	0.660846
	H32	H	0.340583	0.220521	0.895538
	H33	H	0.653994	0.226354	0.111985
	H34	H	0.342560	0.774894	0.109665
	H35	H	0.655668	0.777024	0.894159
	H36	H	0.341162	0.894942	0.222336
	H37	H	0.656611	0.105867	0.224648
	H38	H	0.341485	0.105761	0.778521
	H39	H	0.654785	0.892135	0.777450
	H40	H	0.894862	0.217060	0.342124
	H41	H	0.104820	0.224445	0.659924
	H42	H	0.101316	0.780269	0.344225
	H43	H	0.888719	0.775833	0.660219
	H44	H	0.217959	0.341615	0.895606
	H45	H	0.222554	0.657310	0.109601
	H46	H	0.773490	0.342872	0.108349
	H47	H	0.771479	0.655429	0.889118
	H48	H	0.408396	0.113637	0.593576
	H49	H	0.584853	0.889608	0.585478
	H50	H	0.588367	0.114448	0.410817
	H51	H	0.410055	0.885178	0.408529
	H52	H	0.582705	0.418118	0.111244
	H53	H	0.581915	0.585231	0.890124
	H54	H	0.414388	0.586462	0.111796
	H55	H	0.403287	0.407561	0.884682
	H56	H	0.104431	0.585535	0.421900
	H57	H	0.886262	0.582409	0.593162
	H58	H	0.110285	0.410394	0.592983
	H59	H	0.883661	0.405424	0.413061
	H60	H	0.107549	0.411166	0.586422
	H61	H	0.884547	0.592440	0.587252
	H62	H	0.109903	0.583864	0.405525
	H63	H	0.885637	0.411114	0.413435
	H64	H	0.407575	0.592376	0.116725
	H65	H	0.583833	0.588319	0.887301
	H66	H	0.582008	0.410455	0.114376
	H67	H	0.407760	0.415624	0.888540
	H68	H	0.582644	0.110998	0.416487
	H69	H	0.588640	0.886548	0.589902
	H70	H	0.415223	0.109705	0.590803
	H71	H	0.410912	0.889783	0.419372
	H72	H	0.913738	0.612412	0.092714
	H73	H	0.088758	0.386401	0.091350
	H74	H	0.081565	0.610372	0.914634
	H75	H	0.906591	0.387724	0.919258
	H76	H	0.088794	0.915781	0.617190
	H77	H	0.095162	0.092469	0.385419
	H78	H	0.916998	0.087737	0.613756
	H79	H	0.909594	0.911531	0.389477
	H80	H	0.611166	0.093765	0.914874
	H81	H	0.388153	0.088002	0.086265
	H82	H	0.609796	0.913999	0.090192
	H83	H	0.388075	0.914660	0.914757
	H84	H	0.612888	0.910624	0.095609
	H85	H	0.386445	0.085012	0.096046
	H86	H	0.607122	0.085709	0.922206
	H87	H	0.386015	0.908592	0.912478
	H88	H	0.910576	0.091691	0.617364
	H89	H	0.089248	0.083179	0.390849
	H90	H	0.082787	0.915798	0.614543
	H91	H	0.909266	0.918126	0.392272
	H92	H	0.088328	0.611829	0.918902
	H93	H	0.085558	0.387785	0.091193
	H94	H	0.912808	0.609317	0.081984
	H95	H	0.906329	0.385784	0.910752
	H96	H	0.408725	0.110876	0.585683
	H97	H	0.583213	0.888499	0.591587
	H98	H	0.591164	0.112012	0.418871
	H99	H	0.401176	0.884797	0.416004
	H100	H	0.589473	0.414477	0.114523
	H101	H	0.585871	0.584540	0.888573
	H102	H	0.405212	0.582395	0.114262
	H103	H	0.413009	0.407490	0.887562
	H104	H	0.112588	0.598989	0.413722
	H105	H	0.889880	0.583641	0.582141
	H106	H	0.107152	0.416804	0.590749
	H107	H	0.883564	0.409710	0.408752
	H108	H	0.904306	0.613888	0.086822
	H109	H	0.087401	0.387412	0.087359
	H110	H	0.087825	0.614179	0.910410
	H111	H	0.912995	0.389704	0.914166
	H112	H	0.085181	0.909932	0.617666
	H113	H	0.083489	0.093252	0.387877
	H114	H	0.909418	0.083645	0.615825
	H115	H	0.914426	0.914150	0.393106
	H116	H	0.609001	0.082978	0.911468
	H117	H	0.384377	0.094278	0.093069
	H118	H	0.612007	0.907396	0.089130
	H119	H	0.388685	0.908786	0.918973
	C120	C	0.376639	0.007956	0.624264
	C121	C	0.619828	0.991463	0.624269
	C122	C	0.619861	0.008300	0.382417
	C123	C	0.376174	0.990988	0.381469
	C124	C	0.618195	0.378975	0.009536
	C125	C	0.619151	0.620433	0.992342
	C126	C	0.376908	0.620489	0.009353
	C127	C	0.375998	0.378444	0.992095
	C128	C	0.005746	0.622595	0.379710
	C129	C	0.988634	0.621557	0.623825
	C130	C	0.005307	0.378189	0.623238
	C131	C	0.988539	0.378252	0.379468
	C132	C	0.876537	0.508320	0.121431
	C133	C	0.119814	0.491741	0.122430
	C134	C	0.118140	0.507876	0.881004
	C135	C	0.875027	0.491010	0.879562
	C136	C	0.117895	0.880595	0.511867
	C137	C	0.120914	0.122533	0.493485
	C138	C	0.878293	0.120649	0.511462
	C139	C	0.876366	0.879249	0.495004
	C140	C	0.506136	0.120878	0.881724
	C141	C	0.490051	0.122428	0.125031
	C142	C	0.507635	0.877565	0.123876
	C143	C	0.490740	0.877804	0.880960
	C144	C	0.372598	0.889399	0.685733
	C145	C	0.623709	0.109591	0.687018
	C146	C	0.622096	0.889198	0.321957
	C147	C	0.375122	0.109676	0.320541
	C148	C	0.680451	0.372916	0.891293
	C149	C	0.682959	0.626082	0.109765
	C150	C	0.315462	0.625495	0.890603
	C151	C	0.315940	0.376456	0.111800
	C152	C	0.889228	0.685017	0.374649
	C153	C	0.105458	0.685363	0.630250
	C154	C	0.887938	0.315835	0.626563
	C155	C	0.107047	0.319644	0.377320
	C156	C	0.887734	0.373309	0.684907
	C157	C	0.105518	0.626847	0.687504
	C158	C	0.888778	0.626282	0.316866
	C159	C	0.107673	0.378611	0.320604
	C160	C	0.374943	0.681306	0.890170
	C161	C	0.625569	0.683417	0.110498
	C162	C	0.622060	0.315877	0.891471
	C163	C	0.373805	0.319227	0.112195
	C164	C	0.681950	0.890711	0.378022
	C165	C	0.683265	0.109054	0.631257
	C166	C	0.313437	0.890194	0.629348
	C167	C	0.316766	0.109962	0.378168
	C168	C	0.874046	0.389106	0.181935
	C169	C	0.121689	0.611104	0.182538
	C170	C	0.118727	0.388300	0.821072
	C171	C	0.871138	0.608888	0.816701
	C172	C	0.177363	0.877968	0.391955
	C173	C	0.180827	0.126004	0.613234
	C174	C	0.815464	0.125040	0.393291
	C175	C	0.814286	0.874395	0.613366
	C176	C	0.387999	0.181008	0.877732
	C177	C	0.607423	0.184846	0.128887
	C178	C	0.389758	0.815706	0.127163
	C179	C	0.608485	0.817222	0.876765
	C180	C	0.388924	0.875522	0.183331
	C181	C	0.608825	0.124727	0.185043
	C182	C	0.388536	0.123676	0.819428
	C183	C	0.608057	0.874555	0.818379
	C184	C	0.875728	0.179306	0.391149
	C185	C	0.123363	0.183985	0.612551
	C186	C	0.119986	0.820232	0.392121
	C187	C	0.871372	0.816356	0.612861
	C188	C	0.177868	0.388856	0.877735
	C189	C	0.181112	0.610447	0.126204
	C190	C	0.814611	0.389804	0.125553
	C191	C	0.812546	0.608453	0.873125
	C192	C	0.403093	0.089860	0.597570
	C193	C	0.593298	0.909568	0.596731
	C194	C	0.594707	0.091065	0.408070
	C195	C	0.400495	0.908166	0.407283
	C196	C	0.592155	0.406563	0.091865
	C197	C	0.591713	0.593749	0.910143
	C198	C	0.402000	0.594521	0.092691
	C199	C	0.400929	0.403299	0.908697
	C200	C	0.087647	0.596840	0.406015
	C201	C	0.907951	0.594043	0.595751
	C202	C	0.086984	0.405177	0.597468
	C203	C	0.905809	0.402050	0.404456
	C204	C	0.902685	0.590348	0.095075
	C205	C	0.094375	0.408670	0.097046
	C206	C	0.093217	0.590574	0.907149
	C207	C	0.901151	0.409182	0.906877
	C208	C	0.092841	0.906352	0.594825
	C209	C	0.096440	0.096961	0.410007
	C210	C	0.904741	0.095103	0.594172
	C211	C	0.903394	0.906866	0.412892
	C212	C	0.587768	0.095052	0.908542
	C213	C	0.407816	0.096541	0.099396
	C214	C	0.590010	0.903222	0.098717
	C215	C	0.408861	0.903324	0.907671
	Zn216	Zn	0.498397	-0.000533	0.752560
	Zn217	Zn	0.498809	-0.000656	0.253158
	Zn218	Zn	0.747103	0.499659	0.000074
	Zn219	Zn	0.248317	0.500095	0.000742
	Zn220	Zn	-0.002704	0.751285	0.503129
	Zn221	Zn	-0.002320	0.249177	0.501423
	Zn222	Zn	-0.003439	0.499519	0.752434
	Zn223	Zn	-0.002389	0.500477	0.250697
	Zn224	Zn	0.498748	0.748683	0.001405
	Zn225	Zn	0.497514	0.250475	0.001769
	Zn226	Zn	0.749081	0.000763	0.503844
	Zn227	Zn	0.247755	-0.000031	0.503358
	N228	N	0.411248	0.963487	0.682665
	N229	N	0.584912	0.035526	0.682784
	N230	N	0.584306	0.963369	0.324524
	N231	N	0.411344	0.034668	0.322550
	N232	N	0.678157	0.411479	0.965795
	N233	N	0.678944	0.587607	0.035266
	N234	N	0.316524	0.588644	0.965955
	N235	N	0.316980	0.412369	0.035958
	N236	N	0.963113	0.682729	0.413233
	N237	N	0.031897	0.681930	0.591186
	N238	N	0.962103	0.318733	0.588664
	N239	N	0.031869	0.318941	0.413062
	N240	N	0.961543	0.411770	0.682621
	N241	N	0.032009	0.587766	0.683734
	N242	N	0.962255	0.588055	0.320168
	N243	N	0.032862	0.414192	0.321795
	N244	N	0.412371	0.678504	0.965213
	N245	N	0.586457	0.680026	0.036417
	N246	N	0.584208	0.319542	0.966003
	N247	N	0.410306	0.320216	0.036814
	N248	N	0.680671	0.965984	0.414854
	N249	N	0.680933	0.034652	0.592956
	N250	N	0.315699	0.964999	0.591888
	N251	N	0.317390	0.035240	0.415565
	N252	N	0.911618	0.463812	0.179768
	N253	N	0.084178	0.536309	0.180367
	N254	N	0.082704	0.463578	0.822623
	N255	N	0.909148	0.534850	0.820680
	N256	N	0.176205	0.914682	0.467489
	N257	N	0.179716	0.088948	0.537994
	N258	N	0.816689	0.089508	0.469218
	N259	N	0.817300	0.912595	0.538849
	N260	N	0.462202	0.179487	0.915752
	N261	N	0.532483	0.183549	0.092323
	N262	N	0.464781	0.816400	0.091130
	N263	N	0.534475	0.819166	0.914917
	N264	N	0.463221	0.913032	0.181605
	N265	N	0.534739	0.086502	0.182757
	N266	N	0.462849	0.086920	0.821768
	N267	N	0.533645	0.911347	0.820818
	N268	N	0.913790	0.177070	0.465834
	N269	N	0.087254	0.182370	0.536815
	N270	N	0.083803	0.821460	0.467726
	N271	N	0.909241	0.819173	0.538158
	N272	N	0.177720	0.464278	0.914138
	N273	N	0.179887	0.535125	0.089569
	N274	N	0.815754	0.464995	0.088772
	N275	N	0.814857	0.534055	0.911541
	O276	O	0.296457	0.519272	0.294966
	H277	H	0.286024	0.526254	0.279219
	H278	H	0.305083	0.533170	0.303378
	O279	O	0.999296	0.053234	0.955608
	H280	H	0.997631	0.066007	0.948840
	H281	H	0.977931	0.046800	0.965509
	O282	O	0.283187	0.475375	0.714400
	H283	H	0.280602	0.486373	0.711113
	H284	H	0.265384	0.449241	0.731060
	O285	O	0.476017	0.715357	0.295129
	H286	H	0.493239	0.681936	0.288055
	H287	H	0.472434	0.735280	0.258664
	O288	O	0.974586	0.810726	0.201006
	H289	H	0.984218	0.809482	0.198994
	H290	H	0.986478	0.808485	0.184695
	O291	O	0.286743	0.360100	0.492605
	H292	H	0.294444	0.369081	0.517222
	H293	H	0.285577	0.343142	0.500608
	O294	O	0.180003	0.194433	1.099965
	H295	H	0.157150	0.200309	1.128533
	H296	H	0.193333	0.197558	1.094019
	O297	O	0.471302	0.710225	0.596838
	H298	H	0.441530	0.721120	0.581533
	H299	H	0.500504	0.712696	0.562692
	O300	O	0.691704	0.582094	0.489065
	H301	H	0.687079	0.584223	0.468987
	H302	H	0.684622	0.564679	0.473547
	O303	O	0.711200	0.288819	0.480306
	H304	H	0.690162	0.282062	0.505400
	H305	H	0.732242	0.269357	0.486711
	O306	O	0.383535	0.387091	0.394149
	H307	H	0.380166	0.382055	0.385006
	H308	H	0.397593	0.396929	0.412981
	O309	O	0.684433	0.315323	0.316150
	H310	H	0.696480	0.326360	0.340688
	H311	H	0.674655	0.304873	0.332075
	O312	O	-0.106370	1.172419	0.814435
	H313	H	-0.082280	1.181821	0.820241
	H314	H	-0.119219	1.148973	0.798349
	O315	O	0.679888	0.641933	0.677416
	H316	H	0.680616	0.625179	0.668256
	H317	H	0.639273	0.653485	0.695356
	O318	O	1.027521	0.208964	0.209082
	H319	H	1.033926	0.220112	0.217374
	H320	H	1.016366	0.209784	0.224084
	O321	O	-0.008089	0.090629	-0.089791
	H322	H	-0.001876	0.105818	-0.085525
	H323	H	0.005954	0.079455	-0.089988
	O324	O	0.483307	0.388052	0.296652
	H325	H	0.475091	0.374609	0.284185
	H326	H	0.508857	0.400915	0.308674
	O327	O	0.574816	0.398087	0.491715
	H328	H	0.573262	0.394322	0.509994
	H329	H	0.562073	0.400607	0.498376
	O330	O	0.166263	1.020208	-0.100620
	H331	H	0.155935	1.012936	-0.094580
	H332	H	0.165365	1.011568	-0.107500
	O333	O	0.489897	0.284632	0.368463
	H334	H	0.482714	0.277769	0.345530
	H335	H	0.479041	0.292528	0.352101
	O336	O	0.192954	-0.207706	0.018829
	H337	H	0.211024	-0.227699	0.015796
	H338	H	0.200643	-0.205532	-0.001774
	O339	O	0.103739	1.091837	0.910288
	H340	H	0.112287	1.076319	0.919642
	H341	H	0.132631	1.112209	0.914925
	O342	O	0.060485	1.087173	0.965066
	H343	H	0.076110	1.084413	0.962715
	H344	H	0.057959	1.099836	0.993110
	O345	O	0.971041	0.909542	-0.130737
	H346	H	0.985235	0.912636	-0.103439
	H347	H	0.956671	0.918904	-0.131268
	O348	O	0.305538	0.698473	0.313560
	H349	H	0.328862	0.704154	0.335656
	H350	H	0.313342	0.687632	0.321572
	O351	O	0.279728	1.472991	1.471454
	H352	H	0.284100	1.465868	1.462310
	H353	H	0.280677	1.469126	1.498602
	O354	O	0.205632	1.116746	0.206376
	H355	H	0.221150	1.095576	0.209926
	H356	H	0.210350	1.128891	0.221688
	O357	O	-0.020044	0.010716	1.070819
	H358	H	-0.020566	-0.007639	1.075576
	H359	H	-0.018571	0.006198	1.058166
	O360	O	0.490559	0.689772	0.708823
	H361	H	0.478291	0.699563	0.717616
	H362	H	0.485346	0.706123	0.692743
	O363	O	-0.023445	-0.205158	0.890799
	H364	H	-0.035117	-0.207389	0.898673
	H365	H	-0.046519	-0.201729	0.901779
	O366	O	0.521615	0.541640	0.319026
	H367	H	0.532725	0.514032	0.318544
	H368	H	0.520207	0.543407	0.319761
	O369	O	0.810701	0.804629	0.197305
	H370	H	0.816761	0.813064	0.199935
	H371	H	0.839277	0.796866	0.189441
	O372	O	0.837149	-0.029287	1.104612
	H373	H	0.840131	-0.056962	1.114854
	H374	H	0.842598	-0.040854	1.113844
	O375	O	0.401454	0.428551	0.594811
	H376	H	0.403654	0.415933	0.583296
	H377	H	0.420878	0.428974	0.607628
	O378	O	0.580715	0.520369	0.489775
	H379	H	0.568923	0.526812	0.507658
	H380	H	0.584509	0.525198	0.497073
	O381	O	0.694607	0.683796	0.554056
	H382	H	0.678503	0.674739	0.566546
	H383	H	0.720247	0.703131	0.557785
	O384	O	0.519345	0.720233	0.479063
	H385	H	0.542636	0.724914	0.468129
	H386	H	0.517787	0.717273	0.452933
	O387	O	0.050859	-0.196911	1.047133
	H388	H	0.079475	-0.199182	1.032079
	H389	H	0.053392	-0.189229	1.038380
	O390	O	-0.071737	0.187873	0.018155
	H391	H	-0.066753	0.187972	0.032795
	H392	H	-0.086857	0.195567	0.026448
	O393	O	0.814420	1.062775	0.805518
	H394	H	0.805147	1.054714	0.783631
	H395	H	0.845781	1.055233	0.801904
	O396	O	1.117866	-0.078190	0.187990
	H397	H	1.111395	-0.095050	0.196357
	H398	H	1.120455	-0.090993	0.184038
	O399	O	0.779402	0.210635	0.986950
	H400	H	0.767182	0.222047	0.967330
	H401	H	0.773119	0.217178	0.958179
	O402	O	1.137245	1.089395	0.848310
	H403	H	1.162426	1.102874	0.844293
	H404	H	1.124940	1.101306	0.865162
	O405	O	0.787803	0.784654	0.021753
	H406	H	0.759898	0.767922	0.026369
	H407	H	0.777934	0.800372	0.028139
	O408	O	0.790122	-0.042978	-0.035581
	H409	H	0.788475	-0.028717	-0.033649
	H410	H	0.790222	-0.036108	-0.040302
	O411	O	1.192613	0.988287	0.047546
	H412	H	1.186680	0.978972	0.033288
	H413	H	1.203176	0.987318	0.059855
	O414	O	0.526689	0.525897	0.702652
	H415	H	0.506196	0.534055	0.704669
	H416	H	0.537321	0.540478	0.692549
	O417	O	0.643876	0.514790	0.279234
	H418	H	0.662292	0.495603	0.277025
	H419	H	0.654663	0.486333	0.280138
	O420	O	-0.040902	0.039326	0.183474
	H421	H	-0.036221	0.040790	0.169447
	H422	H	-0.031049	0.032712	0.177362
	O423	O	0.629298	0.420649	0.654181
	H424	H	0.628983	0.432827	0.664978
	H425	H	0.639955	0.450149	0.653342
	O426	O	0.573363	0.370702	0.386136
	H427	H	0.585189	0.362010	0.362852
	H428	H	0.571021	0.386159	0.398034
	O429	O	0.315045	0.427878	0.509043
	H430	H	0.308467	0.444778	0.497812
	H431	H	0.306212	0.412173	0.501904
	O432	O	0.287030	0.671381	0.504289
	H433	H	0.275401	0.659832	0.510062
	H434	H	0.280026	0.673275	0.507065
	O435	O	0.518886	0.509451	0.554199
	H436	H	0.522901	0.515300	0.568074
	H437	H	0.498604	0.507096	0.559822
	O438	O	0.086841	-0.173276	-0.150514
	H439	H	0.062892	-0.190744	-0.155399
	H440	H	0.077715	-0.177680	-0.143205
	O441	O	0.802311	0.031593	0.121857
	H442	H	0.786455	0.019727	0.165066
	H443	H	0.802328	0.070212	0.108229
	O444	O	0.193051	0.851548	0.842680
	H445	H	0.176925	0.844120	0.824267
	H446	H	0.200354	0.869970	0.843842
	O447	O	0.313826	0.316276	0.689267
	H448	H	0.332412	0.301792	0.673155
	H449	H	0.331086	0.331764	0.698448
	O450	O	0.715165	0.532929	0.589142
	H451	H	0.742295	0.525500	0.605537
	H452	H	0.717445	0.526332	0.553747
	O453	O	0.498298	0.283549	0.665901
	H454	H	0.515149	0.304559	0.671982
	H455	H	0.493919	0.262081	0.677344
