data_Molecule from HDF5

_cell_length_a		16.406013
_cell_length_b		16.401130
_cell_length_c		16.383689
_cell_angle_alpha	89.827943
_cell_angle_beta	90.180862
_cell_angle_gamma	90.016540
_symmetry_space_group_name_H-M	'P 1'
_symmetry_Int_Tables_number		1

loop_
	_symmetry_equiv_pos_as_xyz
	x,y,z

loop_
	_atom_site_label
	_atom_site_type_symbol
	_atom_site_fract_x
	_atom_site_fract_y
	_atom_site_fract_z
	H0	H	0.386227	0.832526	0.722149
	H1	H	0.594790	0.151402	0.717167
	H2	H	0.597249	0.833082	0.278187
	H3	H	0.387540	0.151054	0.279498
	H4	H	0.713239	0.386153	0.840452
	H5	H	0.716015	0.597705	0.157232
	H6	H	0.272712	0.597385	0.839462
	H7	H	0.269863	0.386575	0.157203
	H8	H	0.833171	0.714193	0.390708
	H9	H	0.150824	0.711339	0.602648
	H10	H	0.832243	0.271133	0.603295
	H11	H	0.149670	0.271041	0.395641
	H12	H	0.833312	0.384841	0.721380
	H13	H	0.151894	0.594307	0.718135
	H14	H	0.833518	0.599520	0.273261
	H15	H	0.150239	0.386941	0.279255
	H16	H	0.388244	0.714054	0.840249
	H17	H	0.597954	0.711357	0.159616
	H18	H	0.598329	0.270113	0.841647
	H19	H	0.386668	0.271548	0.158487
	H20	H	0.711418	0.831350	0.395299
	H21	H	0.712579	0.149969	0.603806
	H22	H	0.269400	0.832474	0.605402
	H23	H	0.270409	0.149708	0.394327
	H24	H	0.883963	0.333271	0.220002
	H25	H	0.099253	0.648186	0.222397
	H26	H	0.096761	0.332076	0.780683
	H27	H	0.889749	0.650895	0.777884
	H28	H	0.214096	0.884431	0.341101
	H29	H	0.212239	0.094839	0.658455
	H30	H	0.770648	0.094255	0.340564
	H31	H	0.771765	0.883433	0.659162
	H32	H	0.332282	0.212352	0.896396
	H33	H	0.650848	0.214471	0.105492
	H34	H	0.333762	0.770553	0.106336
	H35	H	0.651362	0.771908	0.895852
	H36	H	0.332429	0.889741	0.219060
	H37	H	0.651523	0.097315	0.219857
	H38	H	0.332923	0.097962	0.777263
	H39	H	0.651579	0.887723	0.779964
	H40	H	0.883748	0.212734	0.340484
	H41	H	0.096152	0.210681	0.658412
	H42	H	0.097319	0.768808	0.340060
	H43	H	0.885016	0.766559	0.657225
	H44	H	0.213732	0.333857	0.894232
	H45	H	0.215087	0.649063	0.106857
	H46	H	0.770901	0.333139	0.101357
	H47	H	0.770760	0.650801	0.889892
	H48	H	0.406598	0.102611	0.587539
	H49	H	0.576251	0.877073	0.594405
	H50	H	0.583381	0.103989	0.414951
	H51	H	0.403455	0.877339	0.407033
	H52	H	0.576384	0.403275	0.111395
	H53	H	0.575700	0.581615	0.887901
	H54	H	0.411675	0.582296	0.110818
	H55	H	0.401376	0.402275	0.885097
	H56	H	0.103419	0.574560	0.407896
	H57	H	0.877703	0.580133	0.588868
	H58	H	0.103710	0.398177	0.582191
	H59	H	0.876588	0.399440	0.410261
	H60	H	0.104961	0.406914	0.593195
	H61	H	0.879718	0.578980	0.583714
	H62	H	0.105994	0.582979	0.407810
	H63	H	0.878946	0.404275	0.410855
	H64	H	0.398473	0.587787	0.116798
	H65	H	0.581604	0.587968	0.883562
	H66	H	0.584340	0.401664	0.113752
	H67	H	0.403353	0.406666	0.886450
	H68	H	0.584975	0.107186	0.407023
	H69	H	0.581186	0.879244	0.583647
	H70	H	0.398329	0.103845	0.583468
	H71	H	0.406276	0.879724	0.411501
	H72	H	0.905896	0.602159	0.080430
	H73	H	0.080048	0.380135	0.081335
	H74	H	0.088022	0.606570	0.913313
	H75	H	0.900694	0.377269	0.907007
	H76	H	0.080544	0.899538	0.613688
	H77	H	0.080820	0.082612	0.385289
	H78	H	0.907994	0.079327	0.611118
	H79	H	0.902025	0.899700	0.385320
	H80	H	0.606794	0.083455	0.905297
	H81	H	0.378075	0.083331	0.089220
	H82	H	0.604420	0.899774	0.084597
	H83	H	0.377253	0.904895	0.904441
	H84	H	0.604682	0.908554	0.091370
	H85	H	0.378280	0.081851	0.088297
	H86	H	0.605412	0.086612	0.913508
	H87	H	0.378090	0.897265	0.915715
	H88	H	0.901552	0.085254	0.615602
	H89	H	0.081450	0.078301	0.385734
	H90	H	0.080546	0.903958	0.610667
	H91	H	0.899054	0.904396	0.385571
	H92	H	0.081614	0.608768	0.900749
	H93	H	0.086624	0.375541	0.088194
	H94	H	0.899597	0.606761	0.086284
	H95	H	0.905121	0.379403	0.909862
	H96	H	0.399217	0.106980	0.592352
	H97	H	0.588112	0.874045	0.592673
	H98	H	0.576805	0.102735	0.408864
	H99	H	0.401169	0.877859	0.412569
	H100	H	0.582202	0.409198	0.110974
	H101	H	0.584577	0.579088	0.884943
	H102	H	0.398960	0.572997	0.111984
	H103	H	0.406030	0.403450	0.886743
	H104	H	0.102111	0.579682	0.415022
	H105	H	0.879993	0.574967	0.587531
	H106	H	0.109191	0.393583	0.594284
	H107	H	0.876088	0.402599	0.406143
	H108	H	0.908629	0.604655	0.089395
	H109	H	0.076797	0.378720	0.091656
	H110	H	0.074370	0.602740	0.911793
	H111	H	0.899903	0.378293	0.913146
	H112	H	0.076699	0.900721	0.611641
	H113	H	0.077267	0.079416	0.386222
	H114	H	0.898740	0.076062	0.613011
	H115	H	0.904296	0.903699	0.388053
	H116	H	0.602742	0.078389	0.911454
	H117	H	0.378279	0.081385	0.090451
	H118	H	0.608687	0.898678	0.094731
	H119	H	0.382039	0.910760	0.915261
	C120	C	0.369508	-0.000320	0.621034
	C121	C	0.613388	0.982423	0.621121
	C122	C	0.613636	-0.000263	0.378230
	C123	C	0.370996	0.983014	0.378414
	C124	C	0.613020	0.371731	0.007491
	C125	C	0.614120	0.614200	0.990825
	C126	C	0.370925	0.613837	0.008098
	C127	C	0.370921	0.371595	0.990838
	C128	C	-0.000319	0.612863	0.376403
	C129	C	0.984049	0.610510	0.618904
	C130	C	0.000397	0.368404	0.621606
	C131	C	0.982374	0.370004	0.377492
	C132	C	0.871069	0.500220	0.118628
	C133	C	0.113444	0.482735	0.120055
	C134	C	0.113847	0.500919	0.877060
	C135	C	0.869797	0.482925	0.876159
	C136	C	0.112343	0.869142	0.507321
	C137	C	0.111937	0.111745	0.490986
	C138	C	0.869760	0.112279	0.508214
	C139	C	0.869693	0.868897	0.490987
	C140	C	0.500012	0.114642	0.878351
	C141	C	0.483707	0.114319	0.121142
	C142	C	0.500879	0.870435	0.122306
	C143	C	0.484081	0.871862	0.879499
	C144	C	0.367588	0.880224	0.682127
	C145	C	0.614209	0.103025	0.678636
	C146	C	0.615161	0.880338	0.318424
	C147	C	0.369092	0.103107	0.319329
	C148	C	0.672862	0.368755	0.888218
	C149	C	0.675592	0.615824	0.109831
	C150	C	0.311722	0.616130	0.887794
	C151	C	0.310566	0.368796	0.110150
	C152	C	0.880813	0.674186	0.372664
	C153	C	0.103237	0.671193	0.620987
	C154	C	0.880292	0.309740	0.622896
	C155	C	0.102129	0.310608	0.376689
	C156	C	0.881157	0.366751	0.681430
	C157	C	0.103916	0.613144	0.678476
	C158	C	0.881123	0.616925	0.314163
	C159	C	0.102384	0.368329	0.318922
	C160	C	0.369202	0.674335	0.888143
	C161	C	0.616588	0.672298	0.111317
	C162	C	0.615674	0.310625	0.888865
	C163	C	0.368469	0.311268	0.110635
	C164	C	0.672356	0.879555	0.376621
	C165	C	0.672703	0.102390	0.622084
	C166	C	0.309611	0.879898	0.623953
	C167	C	0.310757	0.102387	0.376458
	C168	C	0.867186	0.380681	0.179415
	C169	C	0.116462	0.601224	0.181476
	C170	C	0.115296	0.380335	0.819615
	C171	C	0.869930	0.602925	0.816548
	C172	C	0.173766	0.866527	0.388498
	C173	C	0.172276	0.113412	0.610631
	C174	C	0.810054	0.113341	0.388257
	C175	C	0.810826	0.865585	0.610873
	C176	C	0.380050	0.173315	0.877103
	C177	C	0.603198	0.173989	0.123258
	C178	C	0.381333	0.810533	0.124442
	C179	C	0.603719	0.811929	0.877631
	C180	C	0.380685	0.869746	0.180830
	C181	C	0.603542	0.115763	0.180512
	C182	C	0.380446	0.116246	0.818011
	C183	C	0.603625	0.869697	0.819615
	C184	C	0.866269	0.172546	0.388424
	C185	C	0.114267	0.171178	0.610697
	C186	C	0.115316	0.809128	0.387759
	C187	C	0.866967	0.807041	0.609871
	C188	C	0.173928	0.381293	0.875941
	C189	C	0.174282	0.601687	0.123809
	C190	C	0.810586	0.380693	0.120566
	C191	C	0.810794	0.602931	0.872699
	C192	C	0.394284	0.082828	0.595323
	C193	C	0.588929	0.898633	0.597215
	C194	C	0.588931	0.083028	0.403124
	C195	C	0.396195	0.899811	0.403272
	C196	C	0.588102	0.397442	0.090485
	C197	C	0.588075	0.589955	0.907282
	C198	C	0.395884	0.588278	0.091417
	C199	C	0.396284	0.397060	0.907611
	C200	C	0.082270	0.586550	0.402734
	C201	C	0.900808	0.585395	0.593837
	C202	C	0.084014	0.392503	0.596978
	C203	C	0.898949	0.394823	0.402076
	C204	C	0.897094	0.582791	0.092882
	C205	C	0.088159	0.399793	0.094480
	C206	C	0.088631	0.584367	0.901467
	C207	C	0.894597	0.399924	0.902447
	C208	C	0.086581	0.894058	0.590222
	C209	C	0.086827	0.087212	0.407571
	C210	C	0.895457	0.087251	0.591562
	C211	C	0.894703	0.895015	0.407999
	C212	C	0.583457	0.089944	0.903121
	C213	C	0.400044	0.089448	0.096494
	C214	C	0.584191	0.895054	0.097406
	C215	C	0.400853	0.896931	0.904710
	Zn216	Zn	0.491919	-0.008033	0.749407
	Zn217	Zn	0.492295	-0.007446	0.249737
	Zn218	Zn	0.742126	0.492336	-0.002287
	Zn219	Zn	0.241837	0.492526	-0.001497
	Zn220	Zn	-0.008954	0.740558	0.498825
	Zn221	Zn	-0.009095	0.240763	0.499120
	Zn222	Zn	-0.007383	0.490924	0.749013
	Zn223	Zn	-0.008866	0.490821	0.248244
	Zn224	Zn	0.492251	0.742468	0.000465
	Zn225	Zn	0.491967	0.243099	0.000026
	Zn226	Zn	0.741556	-0.009994	0.500345
	Zn227	Zn	0.241216	-0.009388	0.498965
	N228	N	0.404005	0.955761	0.680462
	N229	N	0.578142	0.027511	0.678235
	N230	N	0.579322	0.956014	0.319388
	N231	N	0.405965	0.027980	0.320414
	N232	N	0.671176	0.406422	0.962871
	N233	N	0.674333	0.580753	0.033579
	N234	N	0.312433	0.579584	0.963352
	N235	N	0.312025	0.405622	0.034709
	N236	N	0.955543	0.671771	0.410690
	N237	N	0.027631	0.669682	0.584643
	N238	N	0.955505	0.310826	0.586292
	N239	N	0.026409	0.311468	0.412412
	N240	N	0.956990	0.402197	0.681014
	N241	N	0.028905	0.576037	0.677166
	N242	N	0.956184	0.579765	0.316211
	N243	N	0.026797	0.404239	0.319206
	N244	N	0.405075	0.673252	0.964117
	N245	N	0.579109	0.671569	0.036161
	N246	N	0.579155	0.312518	0.964069
	N247	N	0.405223	0.312978	0.035411
	N248	N	0.671582	0.954910	0.413121
	N249	N	0.672482	0.026300	0.587101
	N250	N	0.310749	0.954985	0.586873
	N251	N	0.311733	0.026668	0.412336
	N252	N	0.903945	0.455882	0.178441
	N253	N	0.079286	0.526332	0.179229
	N254	N	0.078742	0.455665	0.820204
	N255	N	0.906015	0.527220	0.818641
	N256	N	0.171800	0.903243	0.463799
	N257	N	0.170818	0.076988	0.535258
	N258	N	0.811977	0.076620	0.463715
	N259	N	0.812098	0.903159	0.535832
	N260	N	0.455516	0.172528	0.913474
	N261	N	0.527515	0.173082	0.087078
	N262	N	0.457155	0.810567	0.089057
	N263	N	0.528302	0.813225	0.914217
	N264	N	0.456076	0.906172	0.179584
	N265	N	0.528074	0.079423	0.179386
	N266	N	0.456115	0.080582	0.818370
	N267	N	0.528169	0.906095	0.820641
	N268	N	0.902569	0.172067	0.464095
	N269	N	0.077324	0.170218	0.535284
	N270	N	0.077918	0.810613	0.462546
	N271	N	0.902878	0.808763	0.534177
	N272	N	0.173204	0.457416	0.910853
	N273	N	0.172541	0.527015	0.086203
	N274	N	0.812844	0.455979	0.083585
	N275	N	0.810553	0.527378	0.908882
	O276	O	0.454439	0.354526	0.320601
	H277	H	0.451920	0.339404	0.292278
	H278	H	0.464569	0.354449	0.321729
	O279	O	0.557219	0.499881	0.567389
	H280	H	0.557553	0.479965	0.561379
	H281	H	0.547100	0.500851	0.558401
	O282	O	0.499279	0.338123	0.305282
	H283	H	0.502358	0.321411	0.296843
	H284	H	0.506501	0.354762	0.312787
	O285	O	0.949058	1.198658	-0.207947
	H286	H	0.933901	1.214993	-0.230079
	H287	H	0.943702	1.206138	-0.213587
	O288	O	0.478573	0.669312	0.408306
	H289	H	0.487785	0.669009	0.420641
	H290	H	0.483442	0.676991	0.397595
	O291	O	0.348979	0.536556	0.370973
	H292	H	0.362294	0.523006	0.365945
	H293	H	0.353792	0.538171	0.376805
	O294	O	0.875134	0.821677	1.116448
	H295	H	0.873005	0.824947	1.096076
	H296	H	0.873187	0.828533	1.118382
	O297	O	0.340405	0.634674	0.608502
	H298	H	0.352961	0.621109	0.607954
	H299	H	0.351657	0.636344	0.603757
	O300	O	0.445848	0.337634	0.487405
	H301	H	0.437678	0.347699	0.488441
	H302	H	0.442860	0.336533	0.475165
	O303	O	0.595936	0.687629	0.697643
	H304	H	0.614852	0.699126	0.678784
	H305	H	0.586359	0.698328	0.699910
	O306	O	0.036401	-0.124190	1.119183
	H307	H	0.026844	-0.132427	1.126102
	H308	H	0.044667	-0.137044	1.096652
	O309	O	1.189104	-0.200819	-0.107782
	H310	H	1.162269	-0.204325	-0.135368
	H311	H	1.210856	-0.216112	-0.095205
	O312	O	0.465691	0.285628	0.704260
	H313	H	0.449402	0.263899	0.726069
	H314	H	0.432103	0.286735	0.688793
	O315	O	0.995226	0.851645	0.066820
	H316	H	0.972050	0.848760	0.084565
	H317	H	0.981907	0.851839	0.066760
	O318	O	-0.114388	-0.209918	0.165281
	H319	H	-0.113225	-0.221148	0.193387
	H320	H	-0.131853	-0.207497	0.158375
	O321	O	0.415323	0.592917	0.423841
	H322	H	0.416951	0.585776	0.441482
	H323	H	0.422699	0.603802	0.431938
	O324	O	0.792807	0.111626	1.005297
	H325	H	0.783351	0.113575	1.017475
	H326	H	0.804341	0.102714	1.015153
	O327	O	0.688629	0.502718	0.714589
	H328	H	0.662697	0.514927	0.710220
	H329	H	0.718514	0.505520	0.751438
	O330	O	0.179012	1.176710	1.186548
	H331	H	0.189728	1.138548	1.187144
	H332	H	0.183206	1.169987	1.148989
	O333	O	-0.199883	1.181508	-0.186351
	H334	H	-0.200419	1.166413	-0.185398
	H335	H	-0.202670	1.185858	-0.157107
	O336	O	0.797447	0.962018	0.071068
	H337	H	0.799237	0.964787	0.076699
	H338	H	0.798181	0.968982	0.080669
	O339	O	0.174768	0.882606	0.973532
	H340	H	0.175429	0.861364	0.969246
	H341	H	0.161931	0.874283	0.981080
	O342	O	0.303075	0.303679	0.550485
	H343	H	0.295852	0.308267	0.539090
	H344	H	0.297113	0.317867	0.548260
	O345	O	0.176659	-0.026080	0.810505
	H346	H	0.181704	-0.051499	0.820062
	H347	H	0.186945	-0.044869	0.795013
	O348	O	0.628071	0.337520	0.358759
	H349	H	0.610419	0.318882	0.350306
	H350	H	0.630705	0.331360	0.391307
	O351	O	1.000117	1.026008	-0.059163
	H352	H	1.015486	1.027061	-0.050752
	H353	H	0.999879	1.026125	-0.061015
	O354	O	1.071004	1.148629	1.190282
	H355	H	1.093291	1.132434	1.185402
	H356	H	1.083105	1.163540	1.210388
	O357	O	0.005532	0.097159	-0.062590
	H358	H	-0.008019	0.105368	-0.060372
	H359	H	-0.010929	0.091254	-0.071216
	O360	O	0.325874	0.469098	0.640266
	H361	H	0.338129	0.481328	0.615396
	H362	H	0.305891	0.470208	0.652240
	O363	O	0.798972	-0.014162	-0.187782
	H364	H	0.776039	-0.007385	-0.203356
	H365	H	0.799889	0.002733	-0.160887
	O366	O	0.114123	0.190709	1.014869
	H367	H	0.104234	0.189405	0.995709
	H368	H	0.125698	0.198016	1.003890
	O369	O	0.949850	-0.075280	0.963279
	H370	H	0.955922	-0.073952	0.951610
	H371	H	0.962761	-0.076889	0.968315
	O372	O	0.438588	0.647264	0.420311
	H373	H	0.441911	0.650295	0.420153
	H374	H	0.449113	0.653596	0.415366
	O375	O	0.020389	-0.139921	0.976234
	H376	H	0.023248	-0.134509	0.971945
	H377	H	0.012080	-0.131563	0.977053
	O378	O	0.548781	0.369353	0.599198
	H379	H	0.537200	0.363232	0.579332
	H380	H	0.536310	0.354315	0.629522
	O381	O	0.093048	0.809380	-0.200485
	H382	H	0.073567	0.820201	-0.206498
	H383	H	0.091452	0.800828	-0.224731
	O384	O	0.681106	0.675258	0.583999
	H385	H	0.694372	0.688721	0.554795
	H386	H	0.696228	0.638865	0.578974
	O387	O	0.499313	0.550513	0.391323
	H388	H	0.499983	0.548747	0.400348
	H389	H	0.492814	0.560705	0.407170
	O390	O	1.153204	0.948879	0.194632
	H391	H	1.145600	0.924971	0.186422
	H392	H	1.152730	0.940683	0.201819
	O393	O	0.885980	0.109752	1.147578
	H394	H	0.914605	0.117208	1.160148
	H395	H	0.901838	0.117339	1.138725
	O396	O	0.624435	0.413223	0.494978
	H397	H	0.625413	0.420829	0.522104
	H398	H	0.603848	0.396418	0.507496
	O399	O	0.663016	0.476834	0.303634
	H400	H	0.650773	0.454037	0.304228
	H401	H	0.682468	0.471662	0.286282
	O402	O	0.841956	0.853629	0.042579
	H403	H	0.839264	0.862649	0.047450
	H404	H	0.829610	0.833225	0.044049
	O405	O	0.448552	0.546995	0.700239
	H406	H	0.466482	0.548340	0.701318
	H407	H	0.434274	0.543236	0.701768
	O408	O	0.393244	0.480644	0.494363
	H409	H	0.395227	0.474115	0.481430
	H410	H	0.392260	0.499714	0.494780
	O411	O	0.926979	1.004338	1.157562
	H412	H	0.935730	1.002828	1.158436
	H413	H	0.921975	1.001970	1.171797
	O414	O	0.348553	0.564171	0.298385
	H415	H	0.346167	0.590375	0.292491
	H416	H	0.348615	0.574849	0.294185
	O417	O	-0.038126	0.953610	0.791435
	H418	H	-0.059830	0.969910	0.790616
	H419	H	-0.019211	0.979173	0.787601
	O420	O	0.106393	1.133463	1.006780
	H421	H	0.116963	1.122414	0.988210
	H422	H	0.104417	1.148874	1.012248
	O423	O	-0.007831	1.081584	-0.080755
	H424	H	-0.009411	1.092657	-0.065586
	H425	H	0.010757	1.072220	-0.065600
	O426	O	0.302421	0.611572	0.431058
	H427	H	0.301578	0.620991	0.428052
	H428	H	0.326421	0.611557	0.447832
	O429	O	0.585695	0.683676	0.558024
	H430	H	0.594054	0.661188	0.554947
	H431	H	0.604519	0.680918	0.541447
	O432	O	0.641862	0.292971	0.508593
	H433	H	0.630338	0.307746	0.533472
	H434	H	0.651326	0.280198	0.508311
	O435	O	0.305220	0.341471	0.683876
	H436	H	0.293540	0.345532	0.671054
	H437	H	0.295452	0.375220	0.673529
	O438	O	0.118649	1.051321	1.031366
	H439	H	0.126628	1.046574	1.025561
	H440	H	0.122587	1.043563	1.027865
	O441	O	0.697471	0.544007	0.434299
	H442	H	0.692015	0.514357	0.447446
	H443	H	0.701731	0.527654	0.405700
