data_Molecule from HDF5

_cell_length_a		16.296662
_cell_length_b		16.205360
_cell_length_c		16.278955
_cell_angle_alpha	90.269056
_cell_angle_beta	90.028306
_cell_angle_gamma	89.686137
_symmetry_space_group_name_H-M	'P 1'
_symmetry_Int_Tables_number		1

loop_
	_symmetry_equiv_pos_as_xyz
	x,y,z

loop_
	_atom_site_label
	_atom_site_type_symbol
	_atom_site_fract_x
	_atom_site_fract_y
	_atom_site_fract_z
	H0	H	0.403514	0.842433	0.690617
	H1	H	0.601954	0.169311	0.696414
	H2	H	0.602304	0.843554	0.263170
	H3	H	0.399992	0.170985	0.263896
	H4	H	0.719434	0.404051	0.815854
	H5	H	0.717686	0.608739	0.141243
	H6	H	0.285640	0.607212	0.815441
	H7	H	0.284104	0.406049	0.140941
	H8	H	0.838445	0.723452	0.379371
	H9	H	0.165353	0.721101	0.578277
	H10	H	0.837870	0.294957	0.576729
	H11	H	0.165270	0.290202	0.378060
	H12	H	0.839232	0.408232	0.694056
	H13	H	0.163986	0.607975	0.695717
	H14	H	0.839164	0.608791	0.261705
	H15	H	0.164960	0.405759	0.260553
	H16	H	0.402426	0.721360	0.815412
	H17	H	0.601559	0.723633	0.141051
	H18	H	0.602456	0.288939	0.814721
	H19	H	0.402545	0.292582	0.141886
	H20	H	0.719805	0.844353	0.377250
	H21	H	0.716471	0.170948	0.580381
	H22	H	0.287591	0.843203	0.577143
	H23	H	0.285355	0.171100	0.379988
	H24	H	0.903759	0.344337	0.191280
	H25	H	0.102598	0.671796	0.194135
	H26	H	0.101996	0.343407	0.763082
	H27	H	0.901729	0.672011	0.764847
	H28	H	0.217554	0.906536	0.314941
	H29	H	0.216009	0.106209	0.642697
	H30	H	0.784785	0.108817	0.316144
	H31	H	0.787209	0.908317	0.641543
	H32	H	0.338773	0.222686	0.879289
	H33	H	0.665262	0.220711	0.077943
	H34	H	0.337895	0.793647	0.076494
	H35	H	0.665310	0.790988	0.880513
	H36	H	0.338464	0.908279	0.193587
	H37	H	0.663795	0.107934	0.196558
	H38	H	0.338807	0.107023	0.762771
	H39	H	0.664984	0.906387	0.763119
	H40	H	0.902932	0.221972	0.314854
	H41	H	0.100213	0.222500	0.642818
	H42	H	0.101135	0.791095	0.314592
	H43	H	0.904320	0.794065	0.641901
	H44	H	0.218531	0.344372	0.876439
	H45	H	0.215930	0.671950	0.077660
	H46	H	0.788500	0.344160	0.076760
	H47	H	0.784629	0.671271	0.878738
	H48	H	0.416999	0.122137	0.574512
	H49	H	0.589878	0.895384	0.558720
	H50	H	0.589143	0.122815	0.388476
	H51	H	0.401911	0.890609	0.394714
	H52	H	0.591264	0.419060	0.091742
	H53	H	0.596937	0.589739	0.863506
	H54	H	0.409793	0.608460	0.097231
	H55	H	0.411865	0.416033	0.864138
	H56	H	0.119820	0.602200	0.382807
	H57	H	0.885134	0.601346	0.572580
	H58	H	0.115898	0.414553	0.563250
	H59	H	0.883706	0.409372	0.383655
	H60	H	0.116688	0.421629	0.572927
	H61	H	0.885706	0.601776	0.570548
	H62	H	0.117340	0.600644	0.389671
	H63	H	0.889695	0.418689	0.393163
	H64	H	0.400867	0.595368	0.096429
	H65	H	0.584863	0.597859	0.864771
	H66	H	0.593959	0.409991	0.095264
	H67	H	0.411660	0.413926	0.862365
	H68	H	0.594420	0.123689	0.390770
	H69	H	0.607490	0.886406	0.569417
	H70	H	0.406813	0.121808	0.562852
	H71	H	0.407332	0.886428	0.374961
	H72	H	0.906634	0.624755	0.067078
	H73	H	0.087498	0.395001	0.064692
	H74	H	0.103472	0.625653	0.892989
	H75	H	0.916282	0.396130	0.897238
	H76	H	0.091458	0.918665	0.592535
	H77	H	0.094132	0.091864	0.364625
	H78	H	0.908668	0.100799	0.595366
	H79	H	0.912554	0.915831	0.363163
	H80	H	0.617274	0.094615	0.886525
	H81	H	0.387877	0.099737	0.064836
	H82	H	0.620151	0.914048	0.077548
	H83	H	0.381117	0.910321	0.873268
	H84	H	0.617599	0.909740	0.066596
	H85	H	0.386267	0.094298	0.075270
	H86	H	0.619164	0.097766	0.884058
	H87	H	0.385282	0.906622	0.893041
	H88	H	0.908390	0.101797	0.595243
	H89	H	0.087684	0.102798	0.362485
	H90	H	0.095219	0.907171	0.596620
	H91	H	0.908545	0.913588	0.359832
	H92	H	0.094544	0.628534	0.874354
	H93	H	0.101936	0.390045	0.064502
	H94	H	0.905548	0.626964	0.074139
	H95	H	0.897451	0.386977	0.884946
	H96	H	0.401552	0.127511	0.577229
	H97	H	0.587683	0.889256	0.580333
	H98	H	0.593373	0.124841	0.384687
	H99	H	0.421143	0.894376	0.387521
	H100	H	0.600343	0.416839	0.095473
	H101	H	0.597360	0.603644	0.859155
	H102	H	0.415324	0.595496	0.091075
	H103	H	0.409116	0.415677	0.862623
	H104	H	0.117390	0.594500	0.385020
	H105	H	0.886373	0.600002	0.570992
	H106	H	0.120542	0.410152	0.573385
	H107	H	0.887047	0.422437	0.378724
	H108	H	0.912599	0.624527	0.071925
	H109	H	0.093751	0.388602	0.077993
	H110	H	0.083372	0.620348	0.889834
	H111	H	0.918195	0.390288	0.873792
	H112	H	0.102896	0.916894	0.596471
	H113	H	0.100689	0.102129	0.361065
	H114	H	0.907778	0.102041	0.595672
	H115	H	0.907587	0.918440	0.362502
	H116	H	0.616802	0.098195	0.887987
	H117	H	0.383057	0.105890	0.073501
	H118	H	0.615333	0.921277	0.069074
	H119	H	0.388571	0.924650	0.884298
	C120	C	0.380441	0.015284	0.599578
	C121	C	0.623665	0.998472	0.599847
	C122	C	0.622725	0.015640	0.357669
	C123	C	0.379514	0.998508	0.356790
	C124	C	0.624605	0.384457	-0.013359
	C125	C	0.622822	0.627862	0.969911
	C126	C	0.379787	0.628659	-0.012868
	C127	C	0.380368	0.385864	0.970440
	C128	C	0.010525	0.629423	0.356162
	C129	C	0.993265	0.629786	0.600876
	C130	C	0.010209	0.386810	0.599321
	C131	C	0.994196	0.386317	0.355938
	C132	C	0.880443	0.516975	0.099217
	C133	C	0.123552	0.499318	0.098980
	C134	C	0.123459	0.516240	0.856309
	C135	C	0.880292	0.499254	0.856536
	C136	C	0.124909	0.885148	0.486882
	C137	C	0.123240	0.128570	0.470643
	C138	C	0.879241	0.130196	0.487446
	C139	C	0.880784	0.886713	0.469954
	C140	C	0.510498	0.127747	0.856597
	C141	C	0.493012	0.128913	0.100950
	C142	C	0.509799	0.886116	0.099685
	C143	C	0.493062	0.884251	0.855593
	C144	C	0.383531	0.891522	0.653213
	C145	C	0.621901	0.120890	0.657446
	C146	C	0.621997	0.892605	0.301201
	C147	C	0.380603	0.122087	0.301809
	C148	C	0.680805	0.384422	0.864250
	C149	C	0.679176	0.627846	0.092473
	C150	C	0.323735	0.627172	0.864310
	C151	C	0.322924	0.386738	0.092323
	C152	C	0.887754	0.686113	0.358101
	C153	C	0.116304	0.683786	0.598552
	C154	C	0.886975	0.332104	0.597191
	C155	C	0.116356	0.328565	0.357650
	C156	C	0.887699	0.388479	0.655565
	C157	C	0.115454	0.627716	0.657264
	C158	C	0.887817	0.628558	0.300056
	C159	C	0.116522	0.386449	0.299434
	C160	C	0.381762	0.683924	0.864186
	C161	C	0.621710	0.685286	0.092298
	C162	C	0.622910	0.326913	0.864046
	C163	C	0.382274	0.330320	0.093006
	C164	C	0.680535	0.893169	0.357826
	C165	C	0.678965	0.121608	0.599770
	C166	C	0.325448	0.892136	0.597014
	C167	C	0.323460	0.122163	0.359397
	C168	C	0.883270	0.393343	0.153924
	C169	C	0.121998	0.622763	0.155676
	C170	C	0.121804	0.392709	0.800675
	C171	C	0.881513	0.622844	0.802059
	C172	C	0.179611	0.886557	0.363670
	C173	C	0.178469	0.126723	0.593650
	C174	C	0.823260	0.128744	0.364863
	C175	C	0.825462	0.888731	0.592828
	C176	C	0.387555	0.184389	0.858695
	C177	C	0.616276	0.183448	0.098739
	C178	C	0.386767	0.831477	0.096711
	C179	C	0.616261	0.828655	0.859190
	C180	C	0.387313	0.887988	0.155427
	C181	C	0.615457	0.127186	0.157430
	C182	C	0.387638	0.126919	0.800807
	C183	C	0.616064	0.885720	0.800732
	C184	C	0.881968	0.184976	0.364086
	C185	C	0.120646	0.184401	0.593810
	C186	C	0.121676	0.829228	0.363648
	C187	C	0.883532	0.831792	0.593076
	C188	C	0.180169	0.393220	0.857104
	C189	C	0.178508	0.623011	0.097782
	C190	C	0.825900	0.393248	0.097000
	C191	C	0.823208	0.622419	0.858513
	C192	C	0.402267	0.101620	0.577943
	C193	C	0.601542	0.912442	0.576249
	C194	C	0.599148	0.101501	0.381150
	C195	C	0.402979	0.912802	0.379112
	C196	C	0.601850	0.408330	0.072061
	C197	C	0.599797	0.604089	0.884581
	C198	C	0.402325	0.606256	0.072831
	C199	C	0.403825	0.408636	0.885103
	C200	C	0.096026	0.605876	0.379058
	C201	C	0.907798	0.607670	0.578085
	C202	C	0.095484	0.408997	0.576569
	C203	C	0.908878	0.410092	0.378646
	C204	C	0.901943	0.603035	0.077497
	C205	C	0.101248	0.413388	0.075799
	C206	C	0.100560	0.602593	0.879202
	C207	C	0.903648	0.413341	0.878908
	C208	C	0.103062	0.907744	0.572933
	C209	C	0.100789	0.105640	0.384798
	C210	C	0.901745	0.108031	0.573252
	C211	C	0.903110	0.909270	0.384120
	C212	C	0.595628	0.104059	0.879504
	C213	C	0.407861	0.106704	0.077938
	C214	C	0.595531	0.908401	0.077567
	C215	C	0.407050	0.907063	0.877149
	Zn216	Zn	0.501574	0.006197	0.727322
	Zn217	Zn	0.501172	0.007339	0.229242
	Zn218	Zn	0.752200	0.507361	-0.021871
	Zn219	Zn	0.251418	0.508079	-0.021823
	Zn220	Zn	0.002255	0.757714	0.478510
	Zn221	Zn	0.001596	0.257584	0.478826
	Zn222	Zn	0.001519	0.507872	0.728527
	Zn223	Zn	0.002198	0.508195	0.226941
	Zn224	Zn	0.501555	0.756190	-0.021659
	Zn225	Zn	0.502517	0.256646	-0.021390
	Zn226	Zn	0.751669	0.007553	0.478777
	Zn227	Zn	0.252512	0.007138	0.478274
	N228	N	0.417274	0.969141	0.654659
	N229	N	0.588341	0.043309	0.657522
	N230	N	0.586816	0.969965	0.301017
	N231	N	0.414758	0.044241	0.300023
	N232	N	0.682125	0.419361	0.941331
	N233	N	0.679939	0.592799	0.015354
	N234	N	0.322499	0.593577	0.941743
	N235	N	0.321797	0.420657	0.015075
	N236	N	0.964984	0.686476	0.392508
	N237	N	0.039226	0.685359	0.564139
	N238	N	0.964058	0.330953	0.562809
	N239	N	0.039266	0.328328	0.392177
	N240	N	0.965280	0.421719	0.657117
	N241	N	0.038038	0.594546	0.658625
	N242	N	0.965287	0.594211	0.298638
	N243	N	0.039503	0.421487	0.298162
	N244	N	0.415606	0.685135	0.941523
	N245	N	0.587198	0.685211	0.015075
	N246	N	0.588650	0.326840	0.941347
	N247	N	0.417311	0.329511	0.016055
	N248	N	0.680928	0.970749	0.392276
	N249	N	0.680091	0.044166	0.564656
	N250	N	0.323493	0.970215	0.564243
	N251	N	0.322729	0.044458	0.392855
	N252	N	0.916428	0.471190	0.155506
	N253	N	0.088642	0.544796	0.156745
	N254	N	0.087477	0.470463	0.799905
	N255	N	0.915927	0.545216	0.800514
	N256	N	0.181791	0.920374	0.441294
	N257	N	0.179981	0.092573	0.516023
	N258	N	0.821421	0.095683	0.442464
	N259	N	0.823682	0.922206	0.515229
	N260	N	0.464798	0.184977	0.892864
	N261	N	0.539317	0.184772	0.064191
	N262	N	0.464124	0.829915	0.062834
	N263	N	0.538825	0.827694	0.892510
	N264	N	0.464733	0.921304	0.157312
	N265	N	0.537904	0.094060	0.158927
	N266	N	0.464962	0.092419	0.799432
	N267	N	0.538398	0.919636	0.798453
	N268	N	0.916370	0.185906	0.441493
	N269	N	0.087283	0.185825	0.516154
	N270	N	0.088360	0.828215	0.441300
	N271	N	0.917424	0.830596	0.515694
	N272	N	0.181274	0.471156	0.890962
	N273	N	0.179352	0.545459	0.063063
	N274	N	0.823940	0.471009	0.063688
	N275	N	0.822154	0.544464	0.891525
	O276	O	-0.504686	-0.582681	0.503031
	H277	H	-0.512735	-0.585796	0.499533
	H278	H	-0.510897	-0.581250	0.505837
	O279	O	0.480809	0.469341	0.448514
	H280	H	0.491388	0.468990	0.447815
	H281	H	0.475748	0.473277	0.444101
	O282	O	0.456863	0.493864	0.585106
	H283	H	0.455558	0.493796	0.577056
	H284	H	0.461154	0.480152	0.586546
	O285	O	0.008427	1.022886	0.981669
	H286	H	0.004714	1.024773	0.987878
	H287	H	-0.000319	1.015283	0.981382
	O288	O	0.463499	0.511434	0.432164
	H289	H	0.460235	0.507243	0.430377
	H290	H	0.458164	0.517355	0.444634
	O291	O	0.503313	1.523411	1.330235
	H292	H	0.502830	1.521212	1.319447
	H293	H	0.497595	1.520442	1.330313
	O294	O	0.930396	1.070565	0.975305
	H295	H	0.924968	1.072472	0.966821
	H296	H	0.934965	1.068489	0.978677
	O297	O	1.028342	0.032389	0.959623
	H298	H	1.042925	0.035682	0.949817
	H299	H	1.028187	0.036637	0.959552
	O300	O	0.561378	0.586329	0.417390
	H301	H	0.551023	0.581425	0.415068
	H302	H	0.563974	0.584292	0.410536
	O303	O	0.961607	0.004013	-0.002693
	H304	H	0.964251	-0.005188	0.004957
	H305	H	0.962057	0.005205	0.002292
	O306	O	0.036353	1.085312	0.947941
	H307	H	0.034638	1.093050	0.941570
	H308	H	0.030781	1.082981	0.957522
	O309	O	0.443708	0.545788	0.469009
	H310	H	0.451728	0.556179	0.475830
	H311	H	0.434349	0.553154	0.469981
	O312	O	1.019311	0.098458	1.040406
	H313	H	1.020744	0.104296	1.037419
	H314	H	1.022133	0.100570	1.037364
	O315	O	0.483832	0.371506	0.596861
	H316	H	0.481635	0.369547	0.599285
	H317	H	0.484951	0.378657	0.586131
	O318	O	-0.077460	-0.041138	0.964049
	H319	H	-0.083733	-0.041539	0.958503
	H320	H	-0.078902	-0.036868	0.964519
	O321	O	1.986681	0.026098	2.028795
	H322	H	1.993684	0.023976	2.027400
	H323	H	1.991720	0.023997	2.014210
	O324	O	0.393380	0.569358	0.550763
	H325	H	0.397589	0.570723	0.559129
	H326	H	0.392066	0.562752	0.550937
	O327	O	0.608876	0.398562	0.359150
	H328	H	0.602456	0.387645	0.350647
	H329	H	0.607161	0.397411	0.353670
	O330	O	0.693269	-0.676158	0.401681
	H331	H	0.684568	-0.669241	0.378603
	H332	H	0.702027	-0.693185	0.393836
	O333	O	1.035854	0.964215	0.064520
	H334	H	1.029785	0.966072	0.063720
	H335	H	1.028940	0.970094	0.072552
	O336	O	0.574045	0.621171	0.629724
	H337	H	0.585112	0.611310	0.629767
	H338	H	0.589679	0.630579	0.628982
	O339	O	0.415992	0.454047	0.348656
	H340	H	0.411736	0.468007	0.358206
	H341	H	0.404846	0.445041	0.348121
	O342	O	0.527140	1.481073	0.343095
	H343	H	0.530779	1.482233	0.347816
	H344	H	0.520210	1.482054	0.345966
	O345	O	0.534854	0.526754	0.526257
	H346	H	0.551029	0.526242	0.530250
	H347	H	0.538909	0.540303	0.523958
	O348	O	0.486959	0.536597	0.635715
	H349	H	0.498206	0.538141	0.647449
	H350	H	0.483566	0.525803	0.627270
	O351	O	-0.497915	0.646900	0.529784
	H352	H	-0.504491	0.651959	0.531447
	H353	H	-0.474515	0.641725	0.533268
	O354	O	0.648507	0.602009	0.584658
	H355	H	0.644573	0.588539	0.592406
	H356	H	0.665597	0.592726	0.596654
	O357	O	0.361754	0.507357	0.404506
	H358	H	0.360170	0.500617	0.412376
	H359	H	0.355340	0.514389	0.404244
	O360	O	-0.000036	0.052991	0.012606
	H361	H	0.002719	0.039941	0.018910
	H362	H	0.007166	0.056989	0.014691
	O363	O	0.594637	0.515351	0.494578
	H364	H	0.591603	0.518700	0.492769
	H365	H	0.599841	0.498505	0.491309
	O366	O	0.083278	-0.082449	1.059161
	H367	H	0.086544	-0.082527	1.061156
	H368	H	0.082607	-0.084840	1.058065
	O369	O	0.449381	0.387999	0.540312
	H370	H	0.442573	0.385531	0.540553
	H371	H	0.445161	0.393361	0.550598
