data_Molecule from HDF5

_cell_length_a		16.307738
_cell_length_b		16.350179
_cell_length_c		16.091061
_cell_angle_alpha	89.962587
_cell_angle_beta	90.000202
_cell_angle_gamma	90.013193
_symmetry_space_group_name_H-M	'P 1'
_symmetry_Int_Tables_number		1

loop_
	_symmetry_equiv_pos_as_xyz
	x,y,z

loop_
	_atom_site_label
	_atom_site_type_symbol
	_atom_site_fract_x
	_atom_site_fract_y
	_atom_site_fract_z
	H0	H	0.390676	0.837021	0.709828
	H1	H	0.587626	0.164037	0.710827
	H2	H	0.585678	0.837113	0.283212
	H3	H	0.391173	0.165154	0.281703
	H4	H	0.701630	0.403801	0.830897
	H5	H	0.702837	0.600307	0.160574
	H6	H	0.273999	0.601388	0.831209
	H7	H	0.273855	0.401977	0.161895
	H8	H	0.825933	0.718159	0.396316
	H9	H	0.151757	0.718749	0.597743
	H10	H	0.825934	0.284693	0.598033
	H11	H	0.151146	0.284402	0.393924
	H12	H	0.823650	0.406183	0.708509
	H13	H	0.151940	0.599075	0.710856
	H14	H	0.824152	0.597670	0.284065
	H15	H	0.153191	0.405870	0.284534
	H16	H	0.390815	0.715150	0.831297
	H17	H	0.587678	0.713900	0.161997
	H18	H	0.588930	0.287716	0.832011
	H19	H	0.389413	0.286943	0.161270
	H20	H	0.704671	0.839194	0.395179
	H21	H	0.705320	0.163228	0.596867
	H22	H	0.271283	0.839170	0.596937
	H23	H	0.273239	0.164247	0.396146
	H24	H	0.892301	0.337223	0.209408
	H25	H	0.085772	0.664303	0.208740
	H26	H	0.085777	0.337367	0.781748
	H27	H	0.890439	0.664504	0.782008
	H28	H	0.201077	0.904426	0.330821
	H29	H	0.203522	0.101952	0.660820
	H30	H	0.775363	0.099264	0.330715
	H31	H	0.774484	0.902931	0.660774
	H32	H	0.325927	0.220085	0.894632
	H33	H	0.651652	0.218823	0.097939
	H34	H	0.326606	0.783735	0.098029
	H35	H	0.651769	0.784746	0.895226
	H36	H	0.323816	0.905061	0.207761
	H37	H	0.653222	0.097741	0.209030
	H38	H	0.324313	0.098313	0.782451
	H39	H	0.653569	0.905814	0.783673
	H40	H	0.889660	0.215103	0.330547
	H41	H	0.087152	0.215912	0.661512
	H42	H	0.088635	0.788293	0.331123
	H43	H	0.889886	0.788009	0.660726
	H44	H	0.204981	0.338287	0.895538
	H45	H	0.204718	0.663190	0.097060
	H46	H	0.772436	0.339219	0.097062
	H47	H	0.772503	0.663076	0.895214
	H48	H	0.401017	0.117439	0.596826
	H49	H	0.578836	0.887963	0.582365
	H50	H	0.577166	0.117015	0.398267
	H51	H	0.394729	0.887077	0.408044
	H52	H	0.580466	0.405039	0.115823
	H53	H	0.582217	0.590328	0.878847
	H54	H	0.390099	0.594944	0.116319
	H55	H	0.390548	0.414604	0.878733
	H56	H	0.107132	0.594281	0.396695
	H57	H	0.870196	0.600222	0.590213
	H58	H	0.103277	0.404673	0.581581
	H59	H	0.871528	0.404505	0.405229
	H60	H	0.102648	0.414876	0.587720
	H61	H	0.874883	0.597034	0.582567
	H62	H	0.106367	0.602734	0.406207
	H63	H	0.873158	0.409383	0.404970
	H64	H	0.397634	0.588343	0.111727
	H65	H	0.577306	0.596188	0.878393
	H66	H	0.584904	0.412821	0.115096
	H67	H	0.403510	0.413998	0.881353
	H68	H	0.580830	0.115462	0.409615
	H69	H	0.588462	0.883196	0.588491
	H70	H	0.398119	0.112600	0.579361
	H71	H	0.389136	0.882697	0.400729
	H72	H	0.894440	0.617854	0.093361
	H73	H	0.080467	0.384966	0.088971
	H74	H	0.083098	0.616943	0.903480
	H75	H	0.906507	0.389375	0.905726
	H76	H	0.087332	0.907830	0.616629
	H77	H	0.074517	0.099727	0.378185
	H78	H	0.904254	0.082922	0.608173
	H79	H	0.890960	0.909980	0.376428
	H80	H	0.605248	0.101305	0.907598
	H81	H	0.374725	0.092876	0.081363
	H82	H	0.605714	0.902182	0.085785
	H83	H	0.370647	0.904295	0.902539
	H84	H	0.604164	0.911106	0.087469
	H85	H	0.373108	0.091020	0.092448
	H86	H	0.602124	0.090534	0.906996
	H87	H	0.373685	0.906521	0.907049
	H88	H	0.902097	0.106994	0.616234
	H89	H	0.087917	0.097225	0.375124
	H90	H	0.078378	0.917597	0.611542
	H91	H	0.898595	0.912705	0.378899
	H92	H	0.081595	0.616859	0.902703
	H93	H	0.083878	0.384850	0.088001
	H94	H	0.897147	0.616233	0.087357
	H95	H	0.886297	0.385844	0.913480
	H96	H	0.385245	0.119340	0.589107
	H97	H	0.577608	0.884677	0.593557
	H98	H	0.588335	0.119664	0.400828
	H99	H	0.397812	0.885767	0.399104
	H100	H	0.576409	0.412151	0.112563
	H101	H	0.584336	0.596985	0.876717
	H102	H	0.400532	0.598426	0.114591
	H103	H	0.397134	0.403607	0.877162
	H104	H	0.102141	0.591388	0.408275
	H105	H	0.873583	0.591329	0.590411
	H106	H	0.107294	0.404322	0.593793
	H107	H	0.870635	0.407306	0.400651
	H108	H	0.891345	0.618653	0.087826
	H109	H	0.083000	0.383054	0.091629
	H110	H	0.082003	0.616895	0.904996
	H111	H	0.890981	0.379451	0.892267
	H112	H	0.073944	0.904833	0.613500
	H113	H	0.079762	0.086489	0.380894
	H114	H	0.882541	0.091447	0.617319
	H115	H	0.898410	0.904577	0.376667
	H116	H	0.607006	0.095899	0.897736
	H117	H	0.371164	0.101206	0.087677
	H118	H	0.607416	0.905633	0.094447
	H119	H	0.372660	0.910186	0.901532
	C120	C	0.365833	0.009384	0.618253
	C121	C	0.610191	0.992841	0.617233
	C122	C	0.610307	0.009685	0.374275
	C123	C	0.365840	0.992985	0.374044
	C124	C	0.609706	0.381070	0.005337
	C125	C	0.610004	0.622759	0.987229
	C126	C	0.367128	0.622489	0.005036
	C127	C	0.367809	0.381141	0.988029
	C128	C	-0.002566	0.624315	0.374391
	C129	C	0.980467	0.624271	0.617772
	C130	C	-0.003428	0.379554	0.617546
	C131	C	0.980010	0.379204	0.374740
	C132	C	0.866320	0.509607	0.118417
	C133	C	0.110631	0.492084	0.117976
	C134	C	0.110394	0.509057	0.874523
	C135	C	0.866417	0.492680	0.874772
	C136	C	0.109242	0.881227	0.504669
	C137	C	0.109430	0.123260	0.487586
	C138	C	0.867214	0.122700	0.504748
	C139	C	0.867406	0.880722	0.486749
	C140	C	0.496894	0.124618	0.874325
	C141	C	0.480716	0.123529	0.117234
	C142	C	0.497292	0.878908	0.117776
	C143	C	0.480357	0.879238	0.874909
	C144	C	0.369057	0.886323	0.673102
	C145	C	0.607966	0.115433	0.672665
	C146	C	0.606765	0.886446	0.319994
	C147	C	0.369822	0.116098	0.319208
	C148	C	0.664744	0.383159	0.880674
	C149	C	0.665035	0.620266	0.111558
	C150	C	0.312069	0.620571	0.880665
	C151	C	0.312221	0.382303	0.112431
	C152	C	0.874446	0.679591	0.376182
	C153	C	0.102764	0.680270	0.617266
	C154	C	0.873986	0.323980	0.616771
	C155	C	0.102624	0.323437	0.375612
	C156	C	0.873037	0.384012	0.671962
	C157	C	0.103005	0.621030	0.673770
	C158	C	0.873736	0.619559	0.320602
	C159	C	0.103679	0.383675	0.320859
	C160	C	0.369906	0.677363	0.880592
	C161	C	0.607357	0.676569	0.112296
	C162	C	0.608872	0.325204	0.881274
	C163	C	0.369281	0.324921	0.112184
	C164	C	0.666299	0.887523	0.375697
	C165	C	0.666429	0.114991	0.616068
	C166	C	0.309965	0.887329	0.616657
	C167	C	0.311012	0.115545	0.376107
	C168	C	0.870299	0.386587	0.172759
	C169	C	0.107282	0.615313	0.172215
	C170	C	0.106960	0.386154	0.819539
	C171	C	0.869434	0.615611	0.819679
	C172	C	0.164055	0.883572	0.380298
	C173	C	0.165043	0.121530	0.611768
	C174	C	0.812592	0.119839	0.379989
	C175	C	0.812245	0.882595	0.611445
	C176	C	0.374368	0.180974	0.875229
	C177	C	0.603326	0.179489	0.116676
	C178	C	0.374787	0.822889	0.116734
	C179	C	0.603215	0.823572	0.875926
	C180	C	0.373392	0.882903	0.171745
	C181	C	0.603878	0.119659	0.172438
	C182	C	0.373487	0.120602	0.819558
	C183	C	0.604273	0.883623	0.820500
	C184	C	0.869463	0.177490	0.380091
	C185	C	0.107546	0.178316	0.612203
	C186	C	0.108191	0.825973	0.380530
	C187	C	0.869633	0.825553	0.611392
	C188	C	0.166131	0.386722	0.876029
	C189	C	0.166030	0.614761	0.116436
	C190	C	0.810812	0.387458	0.116754
	C191	C	0.810718	0.614837	0.875807
	C192	C	0.388235	0.094551	0.595397
	C193	C	0.588040	0.907464	0.594796
	C194	C	0.588419	0.095303	0.396368
	C195	C	0.387474	0.907259	0.396234
	C196	C	0.587186	0.403455	0.092133
	C197	C	0.587657	0.601001	0.900341
	C198	C	0.389438	0.600137	0.091821
	C199	C	0.390389	0.403986	0.901448
	C200	C	0.083190	0.602638	0.396852
	C201	C	0.894806	0.602481	0.594737
	C202	C	0.082323	0.401513	0.594599
	C203	C	0.893958	0.400743	0.397030
	C204	C	0.887880	0.595435	0.096013
	C205	C	0.088908	0.406403	0.095923
	C206	C	0.088636	0.594596	0.897086
	C207	C	0.888231	0.407008	0.897106
	C208	C	0.086519	0.903461	0.591526
	C209	C	0.087111	0.101025	0.400635
	C210	C	0.889694	0.100445	0.591596
	C211	C	0.889421	0.902608	0.399802
	C212	C	0.582568	0.102395	0.897260
	C213	C	0.395023	0.101444	0.094023
	C214	C	0.583443	0.900161	0.095903
	C215	C	0.394599	0.900709	0.897060
	Zn216	Zn	0.488566	0.001143	0.746286
	Zn217	Zn	0.488499	0.000979	0.245647
	Zn218	Zn	0.737529	0.501507	-0.003958
	Zn219	Zn	0.239142	0.501053	-0.003416
	Zn220	Zn	-0.010799	0.753640	0.495872
	Zn221	Zn	-0.011494	0.250803	0.496420
	Zn222	Zn	-0.012313	0.501303	0.745995
	Zn223	Zn	-0.011107	0.501267	0.246404
	Zn224	Zn	0.489121	0.750133	-0.003460
	Zn225	Zn	0.489046	0.253571	-0.003901
	Zn226	Zn	0.739507	0.001270	0.495580
	Zn227	Zn	0.236773	0.001653	0.496216
	N228	N	0.403243	0.963226	0.674363
	N229	N	0.573413	0.038724	0.673307
	N230	N	0.572532	0.963280	0.319131
	N231	N	0.403306	0.038874	0.317822
	N232	N	0.665329	0.417304	0.958868
	N233	N	0.666708	0.587436	0.032889
	N234	N	0.310199	0.587140	0.959217
	N235	N	0.311046	0.416299	0.034254
	N236	N	0.952165	0.682414	0.409218
	N237	N	0.025406	0.682379	0.583221
	N238	N	0.951758	0.321238	0.583770
	N239	N	0.024665	0.320453	0.408390
	N240	N	0.950360	0.418069	0.672358
	N241	N	0.026054	0.586538	0.673953
	N242	N	0.951164	0.585952	0.319313
	N243	N	0.026611	0.417946	0.320438
	N244	N	0.403475	0.678856	0.958867
	N245	N	0.573773	0.678125	0.033856
	N246	N	0.575518	0.323815	0.959749
	N247	N	0.403296	0.324285	0.033853
	N248	N	0.668585	0.965076	0.408837
	N249	N	0.667952	0.037692	0.582199
	N250	N	0.307983	0.964692	0.583304
	N251	N	0.308625	0.038070	0.409484
	N252	N	0.903911	0.463629	0.173909
	N253	N	0.073409	0.538149	0.173442
	N254	N	0.073122	0.463187	0.818181
	N255	N	0.903310	0.538746	0.818965
	N256	N	0.164938	0.917106	0.458657
	N257	N	0.166338	0.087957	0.533286
	N258	N	0.811081	0.086470	0.458461
	N259	N	0.810843	0.916265	0.533048
	N260	N	0.452220	0.183526	0.908410
	N261	N	0.525688	0.182239	0.083292
	N262	N	0.452661	0.820420	0.083894
	N263	N	0.525165	0.820729	0.908871
	N264	N	0.450471	0.917211	0.172443
	N265	N	0.526774	0.085422	0.172776
	N266	N	0.450620	0.086395	0.818803
	N267	N	0.527106	0.917575	0.819654
	N268	N	0.902838	0.179232	0.458660
	N269	N	0.073791	0.179495	0.533902
	N270	N	0.074591	0.824589	0.458998
	N271	N	0.903312	0.824343	0.533022
	N272	N	0.168388	0.464151	0.909381
	N273	N	0.168501	0.537114	0.083719
	N274	N	0.808226	0.465114	0.083670
	N275	N	0.808899	0.537443	0.909474
	O276	O	0.466455	0.468308	0.487128
	H277	H	0.469770	0.470719	0.477210
	H278	H	0.468699	0.477312	0.486501
	O279	O	0.489065	0.578252	0.455383
	H280	H	0.481999	0.574291	0.465458
	H281	H	0.493822	0.572882	0.461088
	O282	O	0.509463	0.479554	0.476410
	H283	H	0.512386	0.486648	0.475913
	H284	H	0.513171	0.481588	0.467012
	O285	O	0.481929	1.459160	0.474401
	H286	H	0.487503	1.457127	0.469929
	H287	H	0.484509	1.453881	0.474255
	O288	O	0.433227	0.388992	0.546665
	H289	H	0.425548	0.392626	0.558055
	H290	H	0.429556	0.382364	0.549999
	O291	O	0.012932	0.033312	0.985310
	H292	H	-0.002400	0.027920	0.978791
	H293	H	0.013568	0.023901	0.990013
	O294	O	1.060063	0.006352	0.951053
	H295	H	1.066744	0.007805	0.949271
	H296	H	1.057243	0.004735	0.958753
	O297	O	0.479093	0.513619	0.557920
	H298	H	0.475660	0.509208	0.562339
	H299	H	0.476612	0.506740	0.564225
	O300	O	0.515977	0.505478	0.522511
	H301	H	0.517451	0.494829	0.518281
	H302	H	0.515930	0.498626	0.519220
	O303	O	0.479905	0.498121	0.509155
	H304	H	0.478854	0.506632	0.498715
	H305	H	0.479456	0.496906	0.508594
	O306	O	0.997051	-0.093957	0.957125
	H307	H	0.992577	-0.092739	0.959286
	H308	H	0.995194	-0.093381	0.960491
	O309	O	0.438527	0.542488	0.462742
	H310	H	0.446834	0.537440	0.464997
	H311	H	0.440768	0.554911	0.470849
	O312	O	0.503304	0.505799	0.474886
	H313	H	0.504142	0.503851	0.480503
	H314	H	0.505841	0.510399	0.477734
	O315	O	1.039267	-0.000172	0.978551
	H316	H	1.053980	0.014345	0.985290
	H317	H	1.037058	0.003652	0.965287
	O318	O	0.034661	-0.029149	-0.023664
	H319	H	0.044191	-0.027664	-0.021414
	H320	H	0.023902	-0.023159	-0.014823
	O321	O	0.991400	0.919614	0.980630
	H322	H	0.986573	0.915956	0.980265
	H323	H	0.994112	0.913181	0.971084
	O324	O	0.981511	-0.044347	-0.015152
	H325	H	0.980850	-0.054048	-0.014821
	H326	H	0.991777	-0.047733	-0.016433
	O327	O	1.034933	0.990952	0.024929
	H328	H	1.042253	0.995081	0.016342
	H329	H	1.035672	0.994835	0.020669
	O330	O	0.492884	0.428455	0.514534
	H331	H	0.490799	0.420063	0.510111
	H332	H	0.494446	0.414990	0.519984
	O333	O	0.357708	0.492579	0.513828
	H334	H	0.345970	0.497222	0.514876
	H335	H	0.355602	0.500958	0.504956
