data_Molecule from HDF5

_cell_length_a		16.254737
_cell_length_b		16.330306
_cell_length_c		16.232241
_cell_angle_alpha	90.100581
_cell_angle_beta	90.068598
_cell_angle_gamma	89.845266
_symmetry_space_group_name_H-M	'P 1'
_symmetry_Int_Tables_number		1

loop_
	_symmetry_equiv_pos_as_xyz
	x,y,z

loop_
	_atom_site_label
	_atom_site_type_symbol
	_atom_site_fract_x
	_atom_site_fract_y
	_atom_site_fract_z
	H0	H	0.402423	0.846780	0.722477
	H1	H	0.597946	0.174214	0.722057
	H2	H	0.597656	0.846199	0.293092
	H3	H	0.400265	0.173419	0.293419
	H4	H	0.712243	0.412133	0.843388
	H5	H	0.712580	0.607633	0.172546
	H6	H	0.284172	0.607714	0.844375
	H7	H	0.287318	0.413253	0.173842
	H8	H	0.835641	0.725125	0.408979
	H9	H	0.163247	0.723994	0.607536
	H10	H	0.835291	0.295586	0.606511
	H11	H	0.162713	0.295087	0.409328
	H12	H	0.834792	0.413478	0.720455
	H13	H	0.163604	0.606329	0.722169
	H14	H	0.834674	0.606727	0.295003
	H15	H	0.163042	0.411240	0.294073
	H16	H	0.400144	0.724393	0.843646
	H17	H	0.598211	0.725199	0.172415
	H18	H	0.598825	0.294309	0.844372
	H19	H	0.399983	0.294420	0.171091
	H20	H	0.714406	0.846426	0.408865
	H21	H	0.714114	0.172823	0.606432
	H22	H	0.286185	0.845918	0.605445
	H23	H	0.284040	0.172942	0.409426
	H24	H	0.902650	0.345856	0.221084
	H25	H	0.096316	0.672753	0.223640
	H26	H	0.097738	0.346037	0.793935
	H27	H	0.899507	0.672990	0.793698
	H28	H	0.212232	0.911830	0.342938
	H29	H	0.212490	0.106708	0.671478
	H30	H	0.786318	0.105784	0.342799
	H31	H	0.786684	0.913142	0.672547
	H32	H	0.335319	0.225386	0.908289
	H33	H	0.663153	0.225397	0.107903
	H34	H	0.336119	0.797319	0.106858
	H35	H	0.664078	0.794917	0.908548
	H36	H	0.335330	0.914259	0.220603
	H37	H	0.663165	0.108451	0.222845
	H38	H	0.335133	0.108111	0.793987
	H39	H	0.664839	0.913484	0.795101
	H40	H	0.899104	0.224975	0.343883
	H41	H	0.097281	0.223388	0.671449
	H42	H	0.097766	0.794511	0.343885
	H43	H	0.900755	0.796250	0.672191
	H44	H	0.214709	0.346900	0.910263
	H45	H	0.211996	0.673535	0.107618
	H46	H	0.783379	0.347350	0.107772
	H47	H	0.784856	0.673441	0.911710
	H48	H	0.403698	0.122561	0.588459
	H49	H	0.587465	0.896074	0.598516
	H50	H	0.598580	0.126877	0.416918
	H51	H	0.409605	0.892091	0.405616
	H52	H	0.588520	0.430168	0.119440
	H53	H	0.586206	0.606961	0.892486
	H54	H	0.412172	0.606251	0.123814
	H55	H	0.399944	0.422478	0.890631
	H56	H	0.115096	0.600716	0.415790
	H57	H	0.878034	0.610251	0.611671
	H58	H	0.118968	0.411547	0.606442
	H59	H	0.883631	0.416000	0.421087
	H60	H	0.115802	0.412919	0.596403
	H61	H	0.883722	0.610539	0.590982
	H62	H	0.116680	0.603282	0.414217
	H63	H	0.883169	0.422396	0.412983
	H64	H	0.402621	0.610382	0.128240
	H65	H	0.597338	0.605193	0.889164
	H66	H	0.581855	0.407951	0.123989
	H67	H	0.411922	0.422761	0.894825
	H68	H	0.590894	0.127486	0.408396
	H69	H	0.599487	0.892948	0.598102
	H70	H	0.395323	0.131390	0.607748
	H71	H	0.411358	0.897604	0.420457
	H72	H	0.902554	0.627175	0.104294
	H73	H	0.107714	0.388485	0.104106
	H74	H	0.084684	0.623298	0.915426
	H75	H	0.898648	0.392236	0.917254
	H76	H	0.092838	0.927817	0.621470
	H77	H	0.096557	0.104666	0.387824
	H78	H	0.913461	0.104250	0.622044
	H79	H	0.907303	0.915703	0.390679
	H80	H	0.619144	0.104724	0.908419
	H81	H	0.384089	0.092865	0.106880
	H82	H	0.619060	0.915928	0.107118
	H83	H	0.383699	0.918081	0.913434
	H84	H	0.616904	0.913200	0.095679
	H85	H	0.378027	0.114925	0.105505
	H86	H	0.616614	0.109505	0.919923
	H87	H	0.383059	0.915474	0.913941
	H88	H	0.902887	0.108388	0.626966
	H89	H	0.090258	0.098192	0.391468
	H90	H	0.083901	0.910771	0.622712
	H91	H	0.906583	0.915631	0.390258
	H92	H	0.094246	0.624901	0.922174
	H93	H	0.082875	0.392868	0.112070
	H94	H	0.907898	0.626484	0.103548
	H95	H	0.906854	0.392016	0.907450
	H96	H	0.417168	0.124212	0.606333
	H97	H	0.593655	0.892171	0.608123
	H98	H	0.588106	0.123815	0.419055
	H99	H	0.397746	0.891952	0.415744
	H100	H	0.603749	0.414743	0.129470
	H101	H	0.591176	0.596401	0.893629
	H102	H	0.402870	0.599604	0.124121
	H103	H	0.407801	0.411751	0.890046
	H104	H	0.115846	0.604236	0.417021
	H105	H	0.885646	0.592691	0.602292
	H106	H	0.114859	0.421018	0.603405
	H107	H	0.880106	0.412843	0.411768
	H108	H	0.904305	0.626199	0.098863
	H109	H	0.089974	0.398711	0.087058
	H110	H	0.094376	0.628599	0.910454
	H111	H	0.910916	0.396219	0.919448
	H112	H	0.101991	0.912503	0.628618
	H113	H	0.087418	0.106828	0.390279
	H114	H	0.903935	0.097013	0.622859
	H115	H	0.906575	0.916582	0.391476
	H116	H	0.612399	0.097677	0.917247
	H117	H	0.386566	0.104127	0.087214
	H118	H	0.613576	0.923407	0.098777
	H119	H	0.383814	0.917129	0.916286
	C120	C	0.377302	0.018135	0.629603
	C121	C	0.621624	1.001790	0.629816
	C122	C	0.621145	0.018042	0.385878
	C123	C	0.377479	1.001727	0.385564
	C124	C	0.620682	0.388538	0.016209
	C125	C	0.620277	0.631512	0.999811
	C126	C	0.376967	0.633369	0.016736
	C127	C	0.378132	0.389838	1.000174
	C128	C	0.007615	0.631162	0.387265
	C129	C	0.990850	0.632033	0.630125
	C130	C	0.007771	0.387940	0.629391
	C131	C	0.990568	0.388416	0.386848
	C132	C	0.876795	0.518444	0.130385
	C133	C	0.121065	0.501541	0.130040
	C134	C	0.120486	0.517926	0.886821
	C135	C	0.877099	0.501577	0.886698
	C136	C	0.121087	0.888032	0.515886
	C137	C	0.120342	0.131330	0.498528
	C138	C	0.877607	0.131375	0.516141
	C139	C	0.878123	0.888151	0.499542
	C140	C	0.507949	0.132394	0.886085
	C141	C	0.491078	0.132209	0.129263
	C142	C	0.508180	0.889600	0.129002
	C143	C	0.491748	0.888658	0.886074
	C144	C	0.381478	0.895429	0.684309
	C145	C	0.618150	0.125113	0.684309
	C146	C	0.618390	0.895101	0.330924
	C147	C	0.379827	0.124672	0.331145
	C148	C	0.675284	0.391407	0.892608
	C149	C	0.674818	0.628406	0.123688
	C150	C	0.321821	0.629324	0.893331
	C151	C	0.324021	0.392553	0.124129
	C152	C	0.884328	0.686502	0.389143
	C153	C	0.114461	0.686252	0.627692
	C154	C	0.884184	0.333701	0.626491
	C155	C	0.113858	0.333088	0.388979
	C156	C	0.883906	0.391870	0.683424
	C157	C	0.114612	0.627921	0.684750
	C158	C	0.884011	0.628116	0.332175
	C159	C	0.113955	0.390518	0.331626
	C160	C	0.379489	0.687244	0.893019
	C161	C	0.618027	0.686744	0.123505
	C162	C	0.618741	0.333020	0.892935
	C163	C	0.380049	0.333458	0.122828
	C164	C	0.676147	0.895097	0.388710
	C165	C	0.676222	0.124539	0.627112
	C166	C	0.323495	0.895085	0.626471
	C167	C	0.321890	0.124309	0.388584
	C168	C	0.881032	0.395132	0.184157
	C169	C	0.117228	0.624292	0.185519
	C170	C	0.118285	0.395018	0.831823
	C171	C	0.879818	0.624468	0.831974
	C172	C	0.175187	0.890731	0.392151
	C173	C	0.175035	0.127957	0.622393
	C174	C	0.822829	0.127987	0.392120
	C175	C	0.823642	0.892154	0.623156
	C176	C	0.384349	0.187640	0.888015
	C177	C	0.614206	0.187352	0.127652
	C178	C	0.385012	0.834912	0.126983
	C179	C	0.615300	0.833192	0.888541
	C180	C	0.384398	0.893046	0.183482
	C181	C	0.614411	0.129264	0.184874
	C182	C	0.384150	0.129221	0.831460
	C183	C	0.615651	0.891770	0.831837
	C184	C	0.879063	0.186743	0.392606
	C185	C	0.117645	0.185645	0.622461
	C186	C	0.118027	0.832836	0.392554
	C187	C	0.880617	0.834126	0.623205
	C188	C	0.176384	0.395332	0.889603
	C189	C	0.174833	0.624628	0.127991
	C190	C	0.822112	0.395694	0.127573
	C191	C	0.822452	0.624657	0.890275
	C192	C	0.398870	0.104034	0.607210
	C193	C	0.599898	0.915716	0.608080
	C194	C	0.598987	0.104049	0.408142
	C195	C	0.399784	0.915929	0.407515
	C196	C	0.598174	0.410927	0.102249
	C197	C	0.598205	0.609409	0.913913
	C198	C	0.399232	0.611893	0.103177
	C199	C	0.400183	0.412409	0.913931
	C200	C	0.093755	0.609228	0.409289
	C201	C	0.904754	0.610886	0.608222
	C202	C	0.094213	0.408856	0.608206
	C203	C	0.904541	0.410493	0.408791
	C204	C	0.898346	0.604459	0.108547
	C205	C	0.099827	0.415522	0.107817
	C206	C	0.097895	0.603471	0.909425
	C207	C	0.899023	0.415580	0.908321
	C208	C	0.099119	0.910395	0.602132
	C209	C	0.098125	0.109609	0.412293
	C210	C	0.900127	0.109505	0.601828
	C211	C	0.900132	0.909665	0.412940
	C212	C	0.593863	0.110340	0.908443
	C213	C	0.404972	0.110370	0.106575
	C214	C	0.594165	0.911255	0.106914
	C215	C	0.405828	0.910486	0.908008
	Zn216	Zn	0.500025	0.010841	0.758313
	Zn217	Zn	0.499650	0.010119	0.257093
	Zn218	Zn	0.748481	0.509798	0.008236
	Zn219	Zn	0.249456	0.510365	0.009248
	Zn220	Zn	-0.000466	0.760065	0.507942
	Zn221	Zn	-0.001107	0.259905	0.507637
	Zn222	Zn	-0.001191	0.509657	0.757671
	Zn223	Zn	-0.000748	0.509633	0.258456
	Zn224	Zn	0.499465	0.760660	0.008154
	Zn225	Zn	0.499364	0.260618	0.007347
	Zn226	Zn	0.749698	0.009945	0.507402
	Zn227	Zn	0.248713	0.009587	0.507181
	N228	N	0.414176	0.973077	0.686414
	N229	N	0.584893	0.047652	0.686062
	N230	N	0.584750	0.972626	0.329437
	N231	N	0.413959	0.047511	0.329303
	N232	N	0.676850	0.424857	0.970480
	N233	N	0.676236	0.594609	0.045932
	N234	N	0.320028	0.596751	0.971427
	N235	N	0.322664	0.426874	0.046722
	N236	N	0.962148	0.688522	0.422366
	N237	N	0.036649	0.689043	0.594401
	N238	N	0.962224	0.331022	0.593817
	N239	N	0.036187	0.331700	0.422597
	N240	N	0.961521	0.425108	0.685227
	N241	N	0.036895	0.595044	0.686376
	N242	N	0.961603	0.594252	0.330974
	N243	N	0.036455	0.424546	0.330364
	N244	N	0.412997	0.689770	0.970868
	N245	N	0.584768	0.688841	0.045607
	N246	N	0.585603	0.331170	0.970806
	N247	N	0.413024	0.331829	0.044820
	N248	N	0.677773	0.972534	0.422212
	N249	N	0.678287	0.047140	0.593630
	N250	N	0.320810	0.972474	0.593263
	N251	N	0.320448	0.046892	0.421656
	N252	N	0.914056	0.472626	0.186230
	N253	N	0.084372	0.546665	0.186732
	N254	N	0.084360	0.472242	0.829923
	N255	N	0.913140	0.546801	0.829716
	N256	N	0.177152	0.924374	0.469867
	N257	N	0.176909	0.094897	0.544372
	N258	N	0.821690	0.094394	0.469707
	N259	N	0.822143	0.925128	0.545137
	N260	N	0.462283	0.189638	0.921444
	N261	N	0.536628	0.189277	0.093710
	N262	N	0.462833	0.832647	0.093780
	N263	N	0.537356	0.831139	0.921667
	N264	N	0.462040	0.926234	0.184885
	N265	N	0.536792	0.095802	0.185992
	N266	N	0.461871	0.095698	0.830114
	N267	N	0.538020	0.925476	0.830083
	N268	N	0.912387	0.189097	0.470549
	N269	N	0.084669	0.187923	0.544464
	N270	N	0.085393	0.831029	0.470711
	N271	N	0.913688	0.831546	0.545289
	N272	N	0.177825	0.472826	0.923100
	N273	N	0.177133	0.547382	0.094252
	N274	N	0.819448	0.473326	0.094984
	N275	N	0.820824	0.547240	0.923452
	O276	O	0.526086	0.482082	0.501657
	H277	H	0.528237	0.485293	0.504051
	H278	H	0.523972	0.486817	0.488892
	O279	O	0.080220	-0.009567	-0.102559
	H280	H	0.089279	-0.003321	-0.100982
	H281	H	0.079732	-0.005544	-0.100557
	O282	O	0.537876	0.427677	0.474334
	H283	H	0.545580	0.420463	0.463840
	H284	H	0.531370	0.426154	0.478212
	O285	O	0.534460	0.530411	0.579552
	H286	H	0.539858	0.532037	0.586521
	H287	H	0.538678	0.528388	0.567901
	O288	O	1.051984	0.003407	-0.077074
	H289	H	1.050879	-0.001771	-0.077353
	H290	H	1.043783	0.006858	-0.070914
	O291	O	-0.514678	0.513168	-0.499977
	H292	H	-0.522409	0.505608	-0.490952
	H293	H	-0.508256	0.520322	-0.502755
	O294	O	0.550577	0.492320	0.487236
	H295	H	0.555793	0.489202	0.483538
	H296	H	0.548720	0.494064	0.477566
	O297	O	0.023371	0.952578	-0.116203
	H298	H	0.029148	0.961062	-0.117197
	H299	H	0.030370	0.947039	-0.128182
	O300	O	1.537635	-0.520593	0.524818
	H301	H	1.531846	-0.526321	0.524500
	H302	H	1.530838	-0.512952	0.525029
	O303	O	0.540923	0.501070	0.524010
	H304	H	0.544388	0.501592	0.523199
	H305	H	0.548078	0.492596	0.540376
	O306	O	0.014200	0.974917	0.917490
	H307	H	0.009791	0.968065	0.910031
	H308	H	0.012479	0.965774	0.910387
	O309	O	0.590777	0.491433	0.535174
	H310	H	0.589242	0.490044	0.543856
	H311	H	0.592395	0.493979	0.533631
