data_Molecule from HDF5

_cell_length_a		16.306138
_cell_length_b		16.138457
_cell_length_c		16.230641
_cell_angle_alpha	90.539677
_cell_angle_beta	89.879455
_cell_angle_gamma	89.965896
_symmetry_space_group_name_H-M	'P 1'
_symmetry_Int_Tables_number		1

loop_
	_symmetry_equiv_pos_as_xyz
	x,y,z

loop_
	_atom_site_label
	_atom_site_type_symbol
	_atom_site_fract_x
	_atom_site_fract_y
	_atom_site_fract_z
	H0	H	0.408076	0.838256	0.705740
	H1	H	0.604612	0.168065	0.713491
	H2	H	0.605745	0.840325	0.279775
	H3	H	0.405839	0.169680	0.284198
	H4	H	0.719396	0.400950	0.832629
	H5	H	0.718793	0.608049	0.159390
	H6	H	0.288923	0.601072	0.831949
	H7	H	0.285477	0.405138	0.159552
	H8	H	0.841886	0.720680	0.400239
	H9	H	0.169427	0.719462	0.595322
	H10	H	0.841910	0.291597	0.594926
	H11	H	0.169339	0.291108	0.396629
	H12	H	0.841188	0.407229	0.709967
	H13	H	0.167059	0.606711	0.713877
	H14	H	0.840506	0.604213	0.284320
	H15	H	0.167338	0.404431	0.277941
	H16	H	0.405914	0.715804	0.831340
	H17	H	0.599617	0.719466	0.160344
	H18	H	0.600563	0.288169	0.832243
	H19	H	0.403795	0.291682	0.160955
	H20	H	0.721420	0.840768	0.394863
	H21	H	0.718472	0.169481	0.597779
	H22	H	0.289994	0.840741	0.594953
	H23	H	0.290747	0.169145	0.398187
	H24	H	0.904185	0.339880	0.208912
	H25	H	0.100729	0.669742	0.210262
	H26	H	0.101916	0.340900	0.779533
	H27	H	0.904928	0.670660	0.785176
	H28	H	0.220953	0.904247	0.333165
	H29	H	0.220996	0.107573	0.661005
	H30	H	0.788740	0.106496	0.333567
	H31	H	0.789409	0.906710	0.659930
	H32	H	0.339125	0.215428	0.899941
	H33	H	0.666237	0.220853	0.095966
	H34	H	0.339463	0.793906	0.092945
	H35	H	0.667136	0.788212	0.897010
	H36	H	0.342014	0.905673	0.212897
	H37	H	0.667181	0.107470	0.212625
	H38	H	0.340832	0.101668	0.781163
	H39	H	0.667793	0.902685	0.780332
	H40	H	0.909435	0.216873	0.330860
	H41	H	0.104096	0.222725	0.660378
	H42	H	0.105332	0.789373	0.333299
	H43	H	0.909188	0.795513	0.661698
	H44	H	0.217167	0.340423	0.894623
	H45	H	0.216675	0.669395	0.097884
	H46	H	0.787674	0.340139	0.094861
	H47	H	0.788076	0.669667	0.899171
	H48	H	0.415038	0.121934	0.588837
	H49	H	0.601761	0.884521	0.589591
	H50	H	0.606235	0.125578	0.404037
	H51	H	0.405367	0.888389	0.414472
	H52	H	0.594474	0.410650	0.113648
	H53	H	0.603160	0.592761	0.878016
	H54	H	0.401027	0.590532	0.113235
	H55	H	0.419360	0.414230	0.883867
	H56	H	0.120541	0.599497	0.406394
	H57	H	0.888651	0.600080	0.589525
	H58	H	0.123102	0.407274	0.587595
	H59	H	0.887305	0.409488	0.400916
	H60	H	0.118592	0.419369	0.583369
	H61	H	0.887955	0.600248	0.592461
	H62	H	0.120221	0.592280	0.402109
	H63	H	0.889192	0.410984	0.405104
	H64	H	0.418583	0.598958	0.110897
	H65	H	0.591709	0.590755	0.882268
	H66	H	0.598952	0.415504	0.114127
	H67	H	0.407822	0.397818	0.875189
	H68	H	0.592156	0.122423	0.399226
	H69	H	0.595721	0.886484	0.588046
	H70	H	0.411273	0.122377	0.589426
	H71	H	0.408351	0.882454	0.391837
	H72	H	0.904472	0.626044	0.096187
	H73	H	0.096483	0.384273	0.093252
	H74	H	0.088579	0.620111	0.908115
	H75	H	0.909939	0.385868	0.898309
	H76	H	0.095464	0.923505	0.611097
	H77	H	0.098479	0.092038	0.382361
	H78	H	0.914411	0.096286	0.611821
	H79	H	0.920484	0.920512	0.383881
	H80	H	0.618574	0.094148	0.906771
	H81	H	0.384935	0.102876	0.094751
	H82	H	0.623371	0.906439	0.090547
	H83	H	0.386609	0.913796	0.894185
	H84	H	0.618869	0.911926	0.081278
	H85	H	0.388871	0.097540	0.084757
	H86	H	0.620825	0.094309	0.901203
	H87	H	0.384116	0.903084	0.899309
	H88	H	0.914182	0.103236	0.614043
	H89	H	0.095624	0.101656	0.378871
	H90	H	0.093822	0.904498	0.615390
	H91	H	0.917622	0.903327	0.378445
	H92	H	0.102818	0.623641	0.910603
	H93	H	0.087258	0.389929	0.084007
	H94	H	0.917688	0.620986	0.091336
	H95	H	0.914254	0.388631	0.903310
	H96	H	0.414374	0.122846	0.592042
	H97	H	0.600843	0.887217	0.583195
	H98	H	0.596620	0.119059	0.413061
	H99	H	0.426542	0.891043	0.404585
	H100	H	0.593403	0.416892	0.111198
	H101	H	0.593994	0.601128	0.876867
	H102	H	0.403958	0.608722	0.117831
	H103	H	0.399034	0.417076	0.877174
	H104	H	0.123018	0.598997	0.398490
	H105	H	0.887846	0.602426	0.589786
	H106	H	0.123019	0.417916	0.595292
	H107	H	0.888436	0.414993	0.402091
	H108	H	0.906104	0.621158	0.081816
	H109	H	0.101034	0.387046	0.079573
	H110	H	0.096322	0.626112	0.897021
	H111	H	0.907162	0.387025	0.905187
	H112	H	0.110537	0.913063	0.617906
	H113	H	0.104781	0.097930	0.377588
	H114	H	0.908135	0.099522	0.614549
	H115	H	0.903582	0.915652	0.377841
	H116	H	0.620509	0.099647	0.904481
	H117	H	0.387978	0.091373	0.094895
	H118	H	0.620941	0.917951	0.091646
	H119	H	0.389195	0.912762	0.906329
	C120	C	0.384861	0.013491	0.617395
	C121	C	0.627266	0.995113	0.617511
	C122	C	0.627610	0.013736	0.374496
	C123	C	0.384495	0.996363	0.375687
	C124	C	0.624365	0.383186	0.004771
	C125	C	0.624285	0.625593	0.987566
	C126	C	0.380213	0.626608	0.005110
	C127	C	0.380371	0.382536	0.987505
	C128	C	0.013315	0.626506	0.374738
	C129	C	0.996472	0.628660	0.619051
	C130	C	0.013268	0.385563	0.617238
	C131	C	0.996239	0.382706	0.373019
	C132	C	0.880614	0.513812	0.118163
	C133	C	0.123759	0.496221	0.116108
	C134	C	0.124431	0.514177	0.874823
	C135	C	0.881523	0.496110	0.874684
	C136	C	0.128344	0.883783	0.505991
	C137	C	0.128369	0.127981	0.488002
	C138	C	0.883914	0.127618	0.504766
	C139	C	0.884843	0.885200	0.488215
	C140	C	0.511746	0.124290	0.875251
	C141	C	0.495140	0.126989	0.119674
	C142	C	0.512994	0.883641	0.117142
	C143	C	0.495134	0.880912	0.872334
	C144	C	0.387370	0.888222	0.669830
	C145	C	0.624899	0.119054	0.675044
	C146	C	0.625873	0.889851	0.317954
	C147	C	0.386515	0.120420	0.321773
	C148	C	0.680463	0.382470	0.881413
	C149	C	0.679922	0.626053	0.110736
	C150	C	0.326407	0.622273	0.880947
	C151	C	0.324443	0.385330	0.110983
	C152	C	0.890392	0.682251	0.379308
	C153	C	0.119934	0.682677	0.616317
	C154	C	0.890291	0.329992	0.614562
	C155	C	0.119898	0.328022	0.375459
	C156	C	0.890053	0.387435	0.671873
	C157	C	0.118656	0.626528	0.675390
	C158	C	0.889727	0.624689	0.321282
	C159	C	0.118938	0.384616	0.316569
	C160	C	0.384812	0.678963	0.880545
	C161	C	0.620840	0.681830	0.111226
	C162	C	0.621336	0.326279	0.881214
	C163	C	0.383307	0.328967	0.111744
	C164	C	0.683394	0.889975	0.374913
	C165	C	0.681576	0.119777	0.617519
	C166	C	0.328647	0.889403	0.614809
	C167	C	0.328608	0.119901	0.378009
	C168	C	0.883611	0.389429	0.172008
	C169	C	0.121096	0.620350	0.172469
	C170	C	0.122258	0.390087	0.818032
	C171	C	0.883841	0.620906	0.821571
	C172	C	0.183553	0.884473	0.382374
	C173	C	0.183031	0.127341	0.611743
	C174	C	0.827874	0.125518	0.381927
	C175	C	0.828583	0.887487	0.611504
	C176	C	0.388379	0.178660	0.878608
	C177	C	0.617599	0.183031	0.116495
	C178	C	0.388983	0.830287	0.114133
	C179	C	0.618470	0.825936	0.876242
	C180	C	0.390299	0.885863	0.173664
	C181	C	0.617906	0.126431	0.174691
	C182	C	0.389274	0.121520	0.819744
	C183	C	0.618898	0.882869	0.818171
	C184	C	0.887970	0.180551	0.380680
	C185	C	0.124899	0.184534	0.611450
	C186	C	0.126184	0.827237	0.382301
	C187	C	0.887725	0.831816	0.612343
	C188	C	0.179386	0.389861	0.875404
	C189	C	0.178923	0.620159	0.116642
	C190	C	0.825460	0.389589	0.115364
	C191	C	0.825712	0.620476	0.878089
	C192	C	0.407080	0.099997	0.596406
	C193	C	0.605820	0.908615	0.594008
	C194	C	0.604980	0.100088	0.398469
	C195	C	0.406908	0.909712	0.397293
	C196	C	0.602139	0.407464	0.090722
	C197	C	0.602820	0.601792	0.901388
	C198	C	0.401477	0.605619	0.091629
	C199	C	0.402228	0.403568	0.901296
	C200	C	0.099059	0.603609	0.395874
	C201	C	0.910336	0.607309	0.597029
	C202	C	0.099268	0.408134	0.595266
	C203	C	0.910544	0.405208	0.395856
	C204	C	0.902739	0.600464	0.096248
	C205	C	0.101527	0.409475	0.092485
	C206	C	0.102415	0.601026	0.898468
	C207	C	0.903855	0.409759	0.895902
	C208	C	0.106249	0.906760	0.592384
	C209	C	0.106313	0.104075	0.401881
	C210	C	0.905726	0.106054	0.591115
	C211	C	0.907200	0.906812	0.402413
	C212	C	0.597814	0.102450	0.897585
	C213	C	0.409200	0.103965	0.097936
	C214	C	0.598646	0.905597	0.094589
	C215	C	0.408950	0.903236	0.893449
	Zn216	Zn	0.505158	0.003170	0.744734
	Zn217	Zn	0.505349	0.004655	0.247474
	Zn218	Zn	0.753415	0.504602	-0.004100
	Zn219	Zn	0.252006	0.505021	-0.003730
	Zn220	Zn	0.006193	0.756583	0.497123
	Zn221	Zn	0.005391	0.255844	0.496272
	Zn222	Zn	0.003355	0.505857	0.747020
	Zn223	Zn	0.003742	0.504707	0.244734
	Zn224	Zn	0.503031	0.754327	-0.004321
	Zn225	Zn	0.502754	0.254392	-0.003029
	Zn226	Zn	0.755077	0.005637	0.496311
	Zn227	Zn	0.256545	0.005116	0.497441
	N228	N	0.421700	0.966202	0.671516
	N229	N	0.591772	0.040733	0.675075
	N230	N	0.592016	0.967883	0.317648
	N231	N	0.420606	0.042407	0.320091
	N232	N	0.682671	0.416949	0.959265
	N233	N	0.682091	0.591561	0.032837
	N234	N	0.323640	0.590432	0.959322
	N235	N	0.322266	0.417877	0.032921
	N236	N	0.968266	0.683739	0.411842
	N237	N	0.042975	0.683915	0.581804
	N238	N	0.967952	0.328851	0.581147
	N239	N	0.042740	0.326984	0.409962
	N240	N	0.967533	0.421189	0.673662
	N241	N	0.040682	0.593664	0.677266
	N242	N	0.966914	0.590386	0.318518
	N243	N	0.041102	0.417859	0.314942
	N244	N	0.417430	0.681933	0.958704
	N245	N	0.586881	0.681528	0.033630
	N246	N	0.587244	0.326673	0.958888
	N247	N	0.417406	0.326993	0.034097
	N248	N	0.684776	0.968260	0.409406
	N249	N	0.683214	0.041894	0.582261
	N250	N	0.326943	0.968016	0.582884
	N251	N	0.327405	0.041737	0.410932
	N252	N	0.917040	0.467688	0.173856
	N253	N	0.087283	0.542203	0.172166
	N254	N	0.088530	0.468341	0.817894
	N255	N	0.917729	0.542702	0.819266
	N256	N	0.185154	0.918893	0.460369
	N257	N	0.185378	0.092859	0.533879
	N258	N	0.825114	0.093310	0.460205
	N259	N	0.826570	0.919985	0.533499
	N260	N	0.465580	0.180281	0.912473
	N261	N	0.540067	0.183588	0.083134
	N262	N	0.466147	0.828635	0.079686
	N263	N	0.540525	0.824514	0.909078
	N264	N	0.468434	0.918240	0.175968
	N265	N	0.540557	0.092321	0.176970
	N266	N	0.467323	0.088636	0.817530
	N267	N	0.541303	0.916175	0.815557
	N268	N	0.921897	0.181960	0.458243
	N269	N	0.091707	0.185072	0.533465
	N270	N	0.092560	0.826663	0.459986
	N271	N	0.922232	0.830165	0.534852
	N272	N	0.180813	0.468053	0.910013
	N273	N	0.180531	0.541968	0.082211
	N274	N	0.823564	0.467986	0.082496
	N275	N	0.824084	0.542061	0.910435
	O276	O	-0.001577	0.014367	-0.004502
	H277	H	-0.005208	0.016167	0.006567
	H278	H	-0.002424	0.020144	-0.009157
	O279	O	0.580224	0.492609	0.399262
	H280	H	0.583718	0.498649	0.381748
	H281	H	0.569912	0.488246	0.400309
	O282	O	0.507573	0.451591	0.459777
	H283	H	0.502473	0.455902	0.453268
	H284	H	0.517209	0.440921	0.453610
	O285	O	1.013799	-0.097550	1.019551
	H286	H	1.012702	-0.091836	1.016610
	H287	H	1.029105	-0.107928	1.015607
	O288	O	0.995281	-0.069064	0.024337
	H289	H	1.000231	-0.070184	0.027755
	H290	H	0.993681	-0.066380	0.027477
	O291	O	0.514578	0.459293	0.427206
	H292	H	0.515136	0.456180	0.428522
	H293	H	0.515212	0.460241	0.431201
	O294	O	0.972217	0.034769	0.971477
	H295	H	0.977908	0.036613	0.977638
	H296	H	0.988810	0.033930	0.966777
	O297	O	0.082744	0.112348	0.056175
	H298	H	0.084668	0.118370	0.065759
	H299	H	0.076747	0.108785	0.052954
	O300	O	0.615840	0.469869	0.436453
	H301	H	0.614717	0.444960	0.425394
	H302	H	0.611338	0.483470	0.435554
	O303	O	0.467707	0.503170	0.562228
	H304	H	0.468364	0.499384	0.568324
	H305	H	0.472888	0.517726	0.560291
	O306	O	1.048274	0.032024	-0.026071
	H307	H	1.056078	0.033461	-0.034370
	H308	H	1.044477	0.028034	-0.028682
	O309	O	-0.042071	0.063393	1.001507
	H310	H	-0.036871	0.060795	1.012565
	H311	H	-0.047725	0.057875	0.982181
	O312	O	1.076418	1.059135	1.014788
	H313	H	1.075488	1.058412	1.014988
	H314	H	1.073259	1.064818	1.016545
	O315	O	0.501110	0.483599	0.484969
	H316	H	0.513292	0.473160	0.498335
	H317	H	0.506235	0.479118	0.482246
	O318	O	0.526272	0.619619	0.548774
	H319	H	0.513208	0.615806	0.547267
	H320	H	0.535326	0.627157	0.543500
	O321	O	-0.022361	0.958991	0.962133
	H322	H	-0.023546	0.960697	0.956416
	H323	H	-0.027626	0.952358	0.963267
	O324	O	0.577921	0.507376	0.583127
	H325	H	0.576298	0.511588	0.581771
	H326	H	0.586807	0.506128	0.579510
	O327	O	0.571999	0.445756	0.502240
	H328	H	0.571547	0.443131	0.488164
	H329	H	0.582298	0.445808	0.508336
	O330	O	0.478441	0.408952	0.530629
	H331	H	0.475663	0.408060	0.537640
	H332	H	0.479147	0.416961	0.529724
	O333	O	0.523434	0.483641	0.480962
	H334	H	0.526669	0.490382	0.477540
	H335	H	0.519503	0.476438	0.483617
	O336	O	0.491021	0.576201	0.454117
	H337	H	0.486432	0.573054	0.454892
	H338	H	0.486556	0.572321	0.461368
	O339	O	0.904398	1.041819	0.091931
	H340	H	0.912975	1.040461	0.086343
	H341	H	0.889000	1.043852	0.093665
	O342	O	0.521331	0.544633	0.527233
	H343	H	0.523569	0.539856	0.534707
	H344	H	0.525202	0.554807	0.521474
	O345	O	0.452046	0.461076	0.427926
	H346	H	0.447057	0.449115	0.430573
	H347	H	0.446567	0.465850	0.433801
	O348	O	-0.043464	-0.030713	0.016154
	H349	H	-0.038736	-0.020453	0.016046
	H350	H	-0.049944	-0.024480	0.018181
	O351	O	-0.029878	1.003100	1.077510
	H352	H	-0.017840	0.998765	1.084165
	H353	H	-0.033267	1.004288	1.079793
	O354	O	0.470940	0.484464	0.502299
	H355	H	0.464065	0.478830	0.501259
	H356	H	0.469352	0.491816	0.506537
	O357	O	-0.052191	1.048418	0.983161
	H358	H	-0.057080	1.041514	0.976963
	H359	H	-0.061643	1.049547	0.988662
