data_Molecule from HDF5

_cell_length_a		16.334205
_cell_length_b		16.524965
_cell_length_c		16.470838
_cell_angle_alpha	90.054626
_cell_angle_beta	89.987649
_cell_angle_gamma	90.093723
_symmetry_space_group_name_H-M	'P 1'
_symmetry_Int_Tables_number		1

loop_
	_symmetry_equiv_pos_as_xyz
	x,y,z

loop_
	_atom_site_label
	_atom_site_type_symbol
	_atom_site_fract_x
	_atom_site_fract_y
	_atom_site_fract_z
	H0	H	0.386196	0.840814	0.723468
	H1	H	0.607332	0.152151	0.721587
	H2	H	0.607688	0.838599	0.271930
	H3	H	0.389298	0.150259	0.272508
	H4	H	0.722529	0.387529	0.840617
	H5	H	0.719036	0.600007	0.156586
	H6	H	0.276109	0.599746	0.840441
	H7	H	0.278790	0.391103	0.156957
	H8	H	0.838809	0.718530	0.389586
	H9	H	0.153386	0.721250	0.607116
	H10	H	0.837702	0.274915	0.604167
	H11	H	0.154825	0.272997	0.390197
	H12	H	0.839399	0.388587	0.721114
	H13	H	0.154955	0.603584	0.721042
	H14	H	0.839384	0.603713	0.274094
	H15	H	0.156307	0.390810	0.276953
	H16	H	0.388806	0.718141	0.841051
	H17	H	0.607454	0.720551	0.153942
	H18	H	0.608056	0.269931	0.841570
	H19	H	0.390972	0.271256	0.154062
	H20	H	0.720047	0.837426	0.390929
	H21	H	0.718088	0.153794	0.600629
	H22	H	0.270713	0.840690	0.606370
	H23	H	0.276251	0.152525	0.391702
	H24	H	0.893513	0.339076	0.219061
	H25	H	0.107943	0.652823	0.223048
	H26	H	0.104981	0.338669	0.774015
	H27	H	0.887743	0.650458	0.772248
	H28	H	0.220231	0.888687	0.340553
	H29	H	0.220686	0.103767	0.654257
	H30	H	0.777743	0.097361	0.337777
	H31	H	0.774841	0.891374	0.655409
	H32	H	0.339889	0.219610	0.888555
	H33	H	0.653829	0.219170	0.106483
	H34	H	0.338569	0.771877	0.103316
	H35	H	0.656297	0.772948	0.889128
	H36	H	0.339152	0.885788	0.220342
	H37	H	0.654760	0.100718	0.218953
	H38	H	0.339747	0.103926	0.773608
	H39	H	0.657198	0.892533	0.776987
	H40	H	0.889886	0.218310	0.340656
	H41	H	0.104406	0.219885	0.654393
	H42	H	0.107634	0.769401	0.342377
	H43	H	0.886554	0.771098	0.653409
	H44	H	0.219334	0.337520	0.893060
	H45	H	0.221302	0.653886	0.103965
	H46	H	0.777373	0.338448	0.103022
	H47	H	0.773203	0.651349	0.889530
	H48	H	0.409313	0.106513	0.581959
	H49	H	0.586337	0.882129	0.588188
	H50	H	0.578063	0.102974	0.411105
	H51	H	0.412717	0.883429	0.407194
	H52	H	0.581720	0.410389	0.107098
	H53	H	0.585290	0.587197	0.883968
	H54	H	0.406422	0.581004	0.110647
	H55	H	0.408636	0.403112	0.883268
	H56	H	0.109456	0.580809	0.410384
	H57	H	0.882813	0.583505	0.586475
	H58	H	0.112320	0.398732	0.580438
	H59	H	0.883578	0.408254	0.407845
	H60	H	0.106187	0.414407	0.580281
	H61	H	0.884448	0.582852	0.583138
	H62	H	0.111003	0.586320	0.411189
	H63	H	0.882679	0.406346	0.408486
	H64	H	0.416290	0.582339	0.108348
	H65	H	0.588547	0.580586	0.885591
	H66	H	0.583495	0.400554	0.110658
	H67	H	0.407884	0.407289	0.884931
	H68	H	0.592328	0.107801	0.412115
	H69	H	0.581599	0.884116	0.587732
	H70	H	0.407605	0.110035	0.588753
	H71	H	0.410077	0.884076	0.412347
	H72	H	0.906521	0.608753	0.081663
	H73	H	0.086736	0.383947	0.089571
	H74	H	0.088916	0.607921	0.909804
	H75	H	0.912924	0.385705	0.913439
	H76	H	0.082847	0.907247	0.610120
	H77	H	0.089468	0.083843	0.383597
	H78	H	0.905319	0.086618	0.611801
	H79	H	0.909253	0.905195	0.384535
	H80	H	0.607647	0.074463	0.909005
	H81	H	0.382437	0.084562	0.084259
	H82	H	0.609724	0.910427	0.087370
	H83	H	0.386947	0.908789	0.916466
	H84	H	0.612438	0.903801	0.085987
	H85	H	0.385326	0.081057	0.081152
	H86	H	0.614254	0.087424	0.904896
	H87	H	0.384175	0.910900	0.904264
	H88	H	0.907712	0.083107	0.609197
	H89	H	0.081159	0.080318	0.387536
	H90	H	0.083530	0.912118	0.608052
	H91	H	0.908215	0.906986	0.385064
	H92	H	0.084170	0.607168	0.907363
	H93	H	0.085687	0.384278	0.088047
	H94	H	0.908902	0.611202	0.091958
	H95	H	0.907070	0.382158	0.910105
	H96	H	0.414487	0.106630	0.587861
	H97	H	0.584564	0.884203	0.584051
	H98	H	0.585202	0.109272	0.399480
	H99	H	0.407298	0.881996	0.407584
	H100	H	0.591076	0.407801	0.111751
	H101	H	0.581478	0.581903	0.887504
	H102	H	0.410959	0.590419	0.112353
	H103	H	0.411770	0.405770	0.885409
	H104	H	0.107895	0.582775	0.414990
	H105	H	0.884853	0.580228	0.585503
	H106	H	0.113957	0.408301	0.594342
	H107	H	0.883624	0.407501	0.410004
	H108	H	0.916280	0.606816	0.085926
	H109	H	0.087764	0.383916	0.087997
	H110	H	0.084771	0.605591	0.912223
	H111	H	0.913586	0.383630	0.906480
	H112	H	0.079048	0.909497	0.607067
	H113	H	0.081592	0.089780	0.384292
	H114	H	0.910150	0.087685	0.610092
	H115	H	0.910339	0.906908	0.385203
	H116	H	0.608146	0.086166	0.919091
	H117	H	0.383727	0.079413	0.085811
	H118	H	0.608837	0.907082	0.081188
	H119	H	0.382337	0.899539	0.909307
	C120	C	0.375818	0.004732	0.619616
	C121	C	0.618175	0.987466	0.618551
	C122	C	0.618984	0.003082	0.374648
	C123	C	0.376303	0.986569	0.375934
	C124	C	0.619743	0.373040	0.006268
	C125	C	0.619097	0.616702	0.989466
	C126	C	0.377008	0.617009	0.006595
	C127	C	0.376663	0.373087	0.988982
	C128	C	0.005474	0.616976	0.377415
	C129	C	0.987918	0.616751	0.619349
	C130	C	0.005920	0.374356	0.618695
	C131	C	0.988375	0.374782	0.376392
	C132	C	0.877564	0.504740	0.119238
	C133	C	0.120256	0.487901	0.120940
	C134	C	0.119012	0.503310	0.876894
	C135	C	0.876418	0.486723	0.876150
	C136	C	0.117343	0.875095	0.505567
	C137	C	0.117871	0.117786	0.489147
	C138	C	0.875069	0.117335	0.505808
	C139	C	0.875103	0.874079	0.488826
	C140	C	0.505755	0.116692	0.876785
	C141	C	0.488189	0.114959	0.117426
	C142	C	0.505887	0.873358	0.118197
	C143	C	0.489269	0.874241	0.876287
	C144	C	0.369860	0.887468	0.682087
	C145	C	0.623288	0.105376	0.680176
	C146	C	0.624218	0.885712	0.312717
	C147	C	0.371781	0.103624	0.313515
	C148	C	0.681823	0.369662	0.888198
	C149	C	0.679614	0.618943	0.108481
	C150	C	0.315839	0.618743	0.888074
	C151	C	0.317602	0.371729	0.108767
	C152	C	0.886561	0.678600	0.372184
	C153	C	0.106357	0.679824	0.624061
	C154	C	0.886185	0.314077	0.622325
	C155	C	0.107354	0.313767	0.373043
	C156	C	0.886833	0.371112	0.680371
	C157	C	0.107232	0.621180	0.680776
	C158	C	0.886915	0.621276	0.314628
	C159	C	0.108187	0.372561	0.316660
	C160	C	0.372131	0.677724	0.888218
	C161	C	0.623977	0.678971	0.107124
	C162	C	0.624723	0.310961	0.888592
	C163	C	0.373201	0.312002	0.107275
	C164	C	0.680350	0.884930	0.372293
	C165	C	0.678846	0.106112	0.620077
	C166	C	0.312238	0.887520	0.623850
	C167	C	0.315731	0.104881	0.373143
	C168	C	0.875251	0.386169	0.179265
	C169	C	0.124894	0.605763	0.182174
	C170	C	0.122521	0.385545	0.815176
	C171	C	0.871206	0.603903	0.813560
	C172	C	0.180169	0.870883	0.388087
	C173	C	0.179846	0.121200	0.607122
	C174	C	0.816720	0.117025	0.385874
	C175	C	0.814280	0.872303	0.607702
	C176	C	0.387106	0.178400	0.872313
	C177	C	0.606651	0.177357	0.122470
	C178	C	0.386382	0.811997	0.121383
	C179	C	0.608672	0.813773	0.872087
	C180	C	0.386535	0.868960	0.179573
	C181	C	0.607194	0.118462	0.178834
	C182	C	0.387011	0.120755	0.814775
	C183	C	0.609353	0.873276	0.816152
	C184	C	0.872409	0.177126	0.387142
	C185	C	0.122005	0.179147	0.607181
	C186	C	0.123687	0.811496	0.388752
	C187	C	0.870190	0.812721	0.606877
	C188	C	0.179416	0.384889	0.874344
	C189	C	0.181251	0.606334	0.122535
	C190	C	0.817672	0.385833	0.121095
	C191	C	0.814058	0.604270	0.872047
	C192	C	0.402654	0.086265	0.593664
	C193	C	0.591838	0.905007	0.593785
	C194	C	0.592672	0.085148	0.400267
	C195	C	0.402417	0.904651	0.401843
	C196	C	0.593101	0.398719	0.088442
	C197	C	0.592690	0.590724	0.907369
	C198	C	0.403617	0.591832	0.088865
	C199	C	0.402015	0.398163	0.906313
	C200	C	0.087968	0.590746	0.404367
	C201	C	0.905697	0.589920	0.592759
	C202	C	0.089243	0.399915	0.592714
	C203	C	0.904987	0.400158	0.401602
	C204	C	0.903265	0.587231	0.093979
	C205	C	0.094238	0.405467	0.095722
	C206	C	0.093363	0.585498	0.902534
	C207	C	0.903433	0.405188	0.902477
	C208	C	0.089766	0.901870	0.587206
	C209	C	0.091670	0.092035	0.406797
	C210	C	0.900409	0.092863	0.588939
	C211	C	0.901682	0.899158	0.406439
	C212	C	0.588523	0.090236	0.903227
	C213	C	0.405352	0.089053	0.091123
	C214	C	0.588532	0.899243	0.092247
	C215	C	0.406227	0.899287	0.902414
	Zn216	Zn	0.497818	-0.003944	0.748247
	Zn217	Zn	0.497084	-0.006115	0.246338
	Zn218	Zn	0.748324	0.495328	-0.001756
	Zn219	Zn	0.248854	0.494911	-0.001308
	Zn220	Zn	-0.003801	0.745077	0.497853
	Zn221	Zn	-0.003404	0.246505	0.497603
	Zn222	Zn	-0.002149	0.495244	0.747065
	Zn223	Zn	-0.002219	0.496856	0.249311
	Zn224	Zn	0.497845	0.745326	-0.002976
	Zn225	Zn	0.497471	0.244832	-0.002257
	Zn226	Zn	0.746695	-0.004317	0.496993
	Zn227	Zn	0.247043	-0.003914	0.497190
	N228	N	0.408554	0.961322	0.679796
	N229	N	0.586183	0.030558	0.679379
	N230	N	0.586899	0.960158	0.314050
	N231	N	0.408606	0.028941	0.315056
	N232	N	0.678716	0.407610	0.962435
	N233	N	0.677101	0.581124	0.034129
	N234	N	0.318363	0.581802	0.962720
	N235	N	0.319345	0.408836	0.034085
	N236	N	0.961295	0.676092	0.410501
	N237	N	0.031195	0.677389	0.586719
	N238	N	0.961366	0.315959	0.584553
	N239	N	0.031721	0.315126	0.409562
	N240	N	0.962300	0.407895	0.678175
	N241	N	0.032592	0.582786	0.678115
	N242	N	0.961971	0.583824	0.317682
	N243	N	0.033125	0.410023	0.318766
	N244	N	0.409265	0.676798	0.963105
	N245	N	0.587371	0.677916	0.031962
	N246	N	0.586970	0.312673	0.963133
	N247	N	0.408782	0.312583	0.031714
	N248	N	0.677475	0.959111	0.410000
	N249	N	0.675773	0.031769	0.582571
	N250	N	0.315755	0.961460	0.585681
	N251	N	0.318267	0.031074	0.411143
	N252	N	0.911790	0.461279	0.178115
	N253	N	0.087710	0.531086	0.181309
	N254	N	0.085931	0.460343	0.816302
	N255	N	0.909296	0.529708	0.815955
	N256	N	0.176209	0.909678	0.461818
	N257	N	0.177516	0.083916	0.532585
	N258	N	0.818583	0.080573	0.460712
	N259	N	0.817194	0.909591	0.533359
	N260	N	0.462065	0.176037	0.909974
	N261	N	0.531742	0.175114	0.084804
	N262	N	0.461532	0.814540	0.083802
	N263	N	0.533026	0.814136	0.908648
	N264	N	0.461821	0.906207	0.177824
	N265	N	0.532446	0.080246	0.175840
	N266	N	0.461971	0.083167	0.817457
	N267	N	0.533877	0.909918	0.818324
	N268	N	0.907936	0.177494	0.462835
	N269	N	0.084046	0.176941	0.532860
	N270	N	0.085071	0.814040	0.462785
	N271	N	0.907329	0.813710	0.531981
	N272	N	0.177536	0.459173	0.911955
	N273	N	0.178757	0.531877	0.085313
	N274	N	0.818911	0.460607	0.084662
	N275	N	0.817172	0.530503	0.910298
	O276	O	0.289705	0.520670	0.293067
	H277	H	0.267758	0.505377	0.287121
	H278	H	0.293321	0.502360	0.293425
	O279	O	0.785079	0.172161	0.983254
	H280	H	0.789751	0.178940	0.969385
	H281	H	0.769490	0.186237	0.971426
	O282	O	0.416480	0.543413	0.644517
	H283	H	0.416594	0.550775	0.660325
	H284	H	0.434550	0.554979	0.643176
	O285	O	0.480809	0.714311	0.281552
	H286	H	0.470882	0.740881	0.253280
	H287	H	0.433552	0.706082	0.289702
	O288	O	0.980098	0.790877	0.205843
	H289	H	0.986909	0.773785	0.211534
	H290	H	1.003885	0.793564	0.205121
	O291	O	0.381044	0.551799	0.495941
	H292	H	0.365438	0.560276	0.510254
	H293	H	0.391236	0.544032	0.511624
	O294	O	0.192478	0.092148	1.194786
	H295	H	0.194778	0.082765	1.216099
	H296	H	0.184057	0.109994	1.202548
	O297	O	0.899059	0.776941	0.897474
	H298	H	0.913577	0.783868	0.884318
	H299	H	0.894882	0.755747	0.889314
	O300	O	0.703823	0.706258	0.522989
	H301	H	0.685953	0.713616	0.493805
	H302	H	0.713695	0.731507	0.515961
	O303	O	0.568560	0.291676	0.411515
	H304	H	0.563732	0.287216	0.434571
	H305	H	0.558916	0.308205	0.411655
	O306	O	0.416906	0.341695	0.304782
	H307	H	0.409102	0.346934	0.300487
	H308	H	0.437451	0.336849	0.309770
	O309	O	0.613148	0.325282	0.457474
	H310	H	0.631404	0.307757	0.456553
	H311	H	0.619228	0.333554	0.474643
	O312	O	0.078896	1.020258	0.953354
	H313	H	0.072737	1.026019	0.962616
	H314	H	0.077358	1.010226	0.949102
	O315	O	0.678706	0.468266	0.678250
	H316	H	0.675770	0.449189	0.682937
	H317	H	0.676009	0.460275	0.680918
	O318	O	1.108728	0.195174	0.196953
	H319	H	1.105137	0.188053	0.172378
	H320	H	1.080102	0.209878	0.207526
	O321	O	0.024447	0.049767	-0.073310
	H322	H	0.008660	0.067612	-0.074649
	H323	H	0.016565	0.025399	-0.081646
	O324	O	0.572208	0.516215	0.290755
	H325	H	0.580317	0.538389	0.290271
	H326	H	0.593747	0.526761	0.283739
	O327	O	0.378371	0.350111	0.469987
	H328	H	0.387668	0.350522	0.449326
	H329	H	0.391568	0.353286	0.468130
	O330	O	0.119068	1.056018	0.106748
	H331	H	0.106798	1.029827	0.094732
	H332	H	0.112318	1.086743	0.104341
	O333	O	0.646071	0.302386	0.362837
	H334	H	0.651089	0.301997	0.349314
	H335	H	0.659447	0.297455	0.365008
	O336	O	0.198309	-0.211029	-0.022832
	H337	H	0.180388	-0.210427	-0.006007
	H338	H	0.210936	-0.222940	-0.016928
	O339	O	0.214324	1.211499	1.024756
	H340	H	0.210540	1.209390	1.038951
	H341	H	0.242878	1.229276	1.019535
	O342	O	0.079758	1.194084	0.920668
	H343	H	0.078336	1.187361	0.935196
	H344	H	0.080035	1.193459	0.934097
	O345	O	1.052081	1.087184	0.083283
	H346	H	1.059423	1.085228	0.091581
	H347	H	1.040390	1.082130	0.067852
	O348	O	0.326872	0.675671	0.325729
	H349	H	0.310891	0.654160	0.340201
	H350	H	0.326679	0.647883	0.346289
	O351	O	0.283408	1.536172	1.541782
	H352	H	0.299813	1.540571	1.559403
	H353	H	0.277500	1.530938	1.524550
	O354	O	0.145255	0.948512	0.195119
	H355	H	0.150655	0.931708	0.165298
	H356	H	0.169287	0.961900	0.204781
	O357	O	-0.120775	-0.113155	0.925475
	H358	H	-0.124277	-0.125650	0.929912
	H359	H	-0.126117	-0.128720	0.935954
	O360	O	0.520725	0.718796	0.719484
	H361	H	0.555037	0.723260	0.726766
	H362	H	0.543486	0.734158	0.738857
	O363	O	0.144244	-0.137878	1.073705
	H364	H	0.137260	-0.133021	1.085660
	H365	H	0.133770	-0.115882	1.060164
	O366	O	0.596928	0.679532	0.418044
	H367	H	0.576910	0.672259	0.409087
	H368	H	0.575852	0.685738	0.401776
	O369	O	0.819493	0.814235	0.174606
	H370	H	0.809285	0.866821	0.187404
	H371	H	0.871906	0.806856	0.184031
	O372	O	0.920959	0.079017	0.995697
	H373	H	0.914548	0.071706	0.993169
	H374	H	0.903973	0.066635	0.997101
	O375	O	0.481360	0.512804	0.604012
	H376	H	0.481660	0.518975	0.605912
	H377	H	0.484452	0.524260	0.596232
	O378	O	0.660569	0.661819	0.652360
	H379	H	0.664657	0.612061	0.658453
	H380	H	0.668732	0.669435	0.606023
	O381	O	0.553907	0.435281	0.712027
	H382	H	0.536852	0.431253	0.703128
	H383	H	0.540138	0.412149	0.710478
	O384	O	0.324926	0.743497	0.668656
	H385	H	0.312469	0.728699	0.674528
	H386	H	0.329234	0.744289	0.696479
	O387	O	-0.091312	-0.012306	0.953980
	H388	H	-0.090511	-0.013249	0.940691
	H389	H	-0.087189	-0.011396	0.951364
	O390	O	-0.010536	0.202985	-0.170480
	H391	H	0.010367	0.189769	-0.165343
	H392	H	-0.003709	0.221008	-0.186306
	O393	O	0.808210	1.025615	0.827152
	H394	H	0.794519	1.019310	0.819919
	H395	H	0.817852	1.020583	0.834388
	O396	O	0.848956	0.141032	0.239245
	H397	H	0.833652	0.127436	0.234066
	H398	H	0.854463	0.138449	0.232685
	O399	O	0.859577	0.177267	0.876706
	H400	H	0.884087	0.177339	0.854118
	H401	H	0.865585	0.164254	0.879899
	O402	O	1.209390	1.001645	0.840161
	H403	H	1.221460	0.996912	0.813636
	H404	H	1.198138	1.015876	0.846996
	O405	O	0.778613	0.773887	0.020359
	H406	H	0.762386	0.760442	0.046864
	H407	H	0.767483	0.764341	0.051680
	O408	O	0.921720	-0.148062	-0.103704
	H409	H	0.920296	-0.146270	-0.119263
	H410	H	0.894386	-0.151981	-0.106992
	O411	O	0.989800	1.004829	-0.036756
	H412	H	0.997385	0.991748	-0.045319
	H413	H	1.003575	0.999932	-0.030939
	O414	O	0.325699	0.509335	0.691837
	H415	H	0.324991	0.516674	0.691898
	H416	H	0.329122	0.526236	0.698849
	O417	O	0.699704	0.475230	0.336242
	H418	H	0.702275	0.443212	0.345291
	H419	H	0.724999	0.467874	0.324529
	O420	O	-0.204920	0.100787	0.097534
	H421	H	-0.194724	0.077142	0.081836
	H422	H	-0.203760	0.107293	0.073612
	O423	O	0.631188	0.380761	0.515036
	H424	H	0.625012	0.398583	0.508798
	H425	H	0.627638	0.393129	0.508520
	O426	O	0.479862	0.284809	0.709833
	H427	H	0.477969	0.257917	0.720275
	H428	H	0.461191	0.279238	0.698634
	O429	O	0.570005	0.528691	0.434088
	H430	H	0.564344	0.548537	0.428100
	H431	H	0.556021	0.515551	0.438220
	O432	O	0.294526	0.701965	0.482827
	H433	H	0.293521	0.693885	0.478677
	H434	H	0.292486	0.718344	0.500085
	O435	O	0.390933	0.383516	0.427180
	H436	H	0.393346	0.381160	0.427453
	H437	H	0.388704	0.385632	0.434859
	O438	O	0.012697	-0.215139	-0.216546
	H439	H	0.010624	-0.214877	-0.216022
	H440	H	0.037383	-0.231852	-0.232439
	O441	O	0.797522	-0.024752	0.199303
	H442	H	0.791509	-0.006635	0.179909
	H443	H	0.784462	-0.012484	0.204395
	O444	O	0.186498	0.864804	0.804929
	H445	H	0.191944	0.864478	0.817831
	H446	H	0.200887	0.874872	0.815783
	O447	O	0.364195	0.358829	0.469638
	H448	H	0.353536	0.349826	0.480572
	H449	H	0.375888	0.351281	0.464150
	O450	O	0.686876	0.513324	0.533293
	H451	H	0.681258	0.521646	0.527568
	H452	H	0.684363	0.520706	0.537150
	O453	O	0.323682	0.311824	0.677471
	H454	H	0.327543	0.344018	0.688331
	H455	H	0.322385	0.318283	0.665684
