data_Molecule from HDF5

_cell_length_a		16.315630
_cell_length_b		16.170746
_cell_length_c		16.308897
_cell_angle_alpha	90.027110
_cell_angle_beta	89.956175
_cell_angle_gamma	89.811646
_symmetry_space_group_name_H-M	'P 1'
_symmetry_Int_Tables_number		1

loop_
	_symmetry_equiv_pos_as_xyz
	x,y,z

loop_
	_atom_site_label
	_atom_site_type_symbol
	_atom_site_fract_x
	_atom_site_fract_y
	_atom_site_fract_z
	H0	H	0.409908	0.825024	0.719155
	H1	H	0.604910	0.154320	0.719235
	H2	H	0.606715	0.825381	0.291231
	H3	H	0.407982	0.154270	0.291704
	H4	H	0.723009	0.390428	0.842298
	H5	H	0.720817	0.589386	0.167883
	H6	H	0.289961	0.589681	0.841988
	H7	H	0.291361	0.390530	0.168528
	H8	H	0.842928	0.702648	0.409036
	H9	H	0.171679	0.700786	0.602114
	H10	H	0.843637	0.274965	0.605055
	H11	H	0.171226	0.275597	0.409697
	H12	H	0.844093	0.390027	0.721955
	H13	H	0.170327	0.587216	0.720811
	H14	H	0.843591	0.588991	0.291849
	H15	H	0.169801	0.388121	0.289307
	H16	H	0.408758	0.704027	0.840928
	H17	H	0.601374	0.701463	0.169421
	H18	H	0.604995	0.276035	0.841403
	H19	H	0.411212	0.277644	0.169710
	H20	H	0.721049	0.824893	0.406583
	H21	H	0.720731	0.153630	0.603606
	H22	H	0.295482	0.824289	0.602419
	H23	H	0.292081	0.154198	0.406980
	H24	H	0.908405	0.325445	0.219204
	H25	H	0.103733	0.654805	0.219649
	H26	H	0.106754	0.325099	0.791309
	H27	H	0.908069	0.654070	0.791987
	H28	H	0.222794	0.889458	0.342652
	H29	H	0.222028	0.088634	0.668806
	H30	H	0.791989	0.087893	0.342283
	H31	H	0.791554	0.888887	0.668793
	H32	H	0.343645	0.203698	0.908735
	H33	H	0.671469	0.203770	0.102934
	H34	H	0.343122	0.778040	0.102116
	H35	H	0.670640	0.775748	0.907900
	H36	H	0.344918	0.891472	0.221054
	H37	H	0.671558	0.087804	0.219987
	H38	H	0.344281	0.090343	0.790893
	H39	H	0.669801	0.889450	0.790171
	H40	H	0.908803	0.204176	0.341987
	H41	H	0.102461	0.200918	0.670541
	H42	H	0.104132	0.775237	0.341269
	H43	H	0.911172	0.775996	0.669611
	H44	H	0.221663	0.325452	0.906370
	H45	H	0.218785	0.654889	0.103752
	H46	H	0.793474	0.325291	0.103084
	H47	H	0.792278	0.653950	0.907563
	H48	H	0.404921	0.108129	0.593367
	H49	H	0.598297	0.874067	0.594055
	H50	H	0.596367	0.104809	0.417947
	H51	H	0.414915	0.874692	0.418916
	H52	H	0.598167	0.397355	0.121197
	H53	H	0.602103	0.582011	0.887860
	H54	H	0.399876	0.586772	0.125742
	H55	H	0.417617	0.396440	0.890449
	H56	H	0.122806	0.580626	0.413170
	H57	H	0.889629	0.581310	0.605074
	H58	H	0.123953	0.399774	0.606178
	H59	H	0.897291	0.409933	0.418988
	H60	H	0.126005	0.387847	0.600970
	H61	H	0.889935	0.586670	0.598516
	H62	H	0.123777	0.580825	0.409401
	H63	H	0.886879	0.397104	0.395942
	H64	H	0.414666	0.572520	0.117778
	H65	H	0.599671	0.581267	0.888700
	H66	H	0.601544	0.395327	0.122345
	H67	H	0.409975	0.394073	0.886941
	H68	H	0.605056	0.107780	0.414361
	H69	H	0.605688	0.869527	0.599206
	H70	H	0.414008	0.110410	0.608551
	H71	H	0.409725	0.870432	0.410407
	H72	H	0.907294	0.609239	0.095961
	H73	H	0.093449	0.374736	0.097472
	H74	H	0.102986	0.611381	0.902061
	H75	H	0.913958	0.372761	0.915341
	H76	H	0.095034	0.889334	0.622892
	H77	H	0.104521	0.074813	0.389716
	H78	H	0.911828	0.080675	0.621846
	H79	H	0.920322	0.900921	0.392606
	H80	H	0.621483	0.076876	0.913722
	H81	H	0.392457	0.074437	0.104672
	H82	H	0.625907	0.893294	0.102329
	H83	H	0.391540	0.900611	0.913306
	H84	H	0.623045	0.895295	0.094303
	H85	H	0.387432	0.090920	0.103760
	H86	H	0.625692	0.083480	0.905697
	H87	H	0.389217	0.897285	0.907587
	H88	H	0.914259	0.080947	0.621186
	H89	H	0.091077	0.081410	0.391818
	H90	H	0.109787	0.892715	0.625742
	H91	H	0.915322	0.888258	0.386758
	H92	H	0.086206	0.602905	0.913535
	H93	H	0.102903	0.372815	0.093704
	H94	H	0.911781	0.609674	0.105240
	H95	H	0.913224	0.371322	0.912679
	H96	H	0.421515	0.103772	0.594262
	H97	H	0.596860	0.871211	0.603574
	H98	H	0.597170	0.107851	0.407952
	H99	H	0.419146	0.872947	0.409061
	H100	H	0.601885	0.399122	0.121422
	H101	H	0.600001	0.583823	0.888235
	H102	H	0.420135	0.592947	0.121447
	H103	H	0.411659	0.402433	0.890411
	H104	H	0.124030	0.583996	0.411410
	H105	H	0.892478	0.578860	0.597364
	H106	H	0.121142	0.398216	0.593041
	H107	H	0.888301	0.382955	0.420547
	H108	H	0.917407	0.605531	0.097337
	H109	H	0.101177	0.371080	0.103684
	H110	H	0.105784	0.606332	0.922784
	H111	H	0.916512	0.372471	0.913253
	H112	H	0.101292	0.903242	0.618994
	H113	H	0.102870	0.089368	0.386427
	H114	H	0.912971	0.083203	0.621827
	H115	H	0.906711	0.900441	0.388793
	H116	H	0.624128	0.087604	0.915880
	H117	H	0.394741	0.083870	0.090166
	H118	H	0.622870	0.901303	0.100467
	H119	H	0.390103	0.894256	0.913744
	C120	C	0.385488	-0.001844	0.626977
	C121	C	0.628073	0.980534	0.627104
	C122	C	0.628369	-0.001862	0.384653
	C123	C	0.385634	0.981202	0.384149
	C124	C	0.629168	0.368292	0.013620
	C125	C	0.627912	0.611172	0.996319
	C126	C	0.383513	0.612135	0.013438
	C127	C	0.385197	0.368872	0.997454
	C128	C	0.015163	0.610534	0.383993
	C129	C	0.998853	0.610541	0.628122
	C130	C	0.015601	0.367259	0.628586
	C131	C	0.998738	0.367436	0.383754
	C132	C	0.884814	0.498964	0.127464
	C133	C	0.127470	0.481389	0.126780
	C134	C	0.127563	0.498163	0.884274
	C135	C	0.885645	0.480892	0.884853
	C136	C	0.129606	0.866587	0.514164
	C137	C	0.128097	0.110395	0.497490
	C138	C	0.884359	0.111181	0.513909
	C139	C	0.885801	0.867629	0.497463
	C140	C	0.515857	0.111624	0.883808
	C141	C	0.499431	0.111597	0.127719
	C142	C	0.516073	0.868004	0.127412
	C143	C	0.498472	0.868392	0.883795
	C144	C	0.389142	0.874048	0.681295
	C145	C	0.625357	0.104974	0.681298
	C146	C	0.626694	0.874509	0.328979
	C147	C	0.387761	0.105095	0.329408
	C148	C	0.684555	0.370340	0.890831
	C149	C	0.682336	0.608828	0.119584
	C150	C	0.328524	0.609600	0.890600
	C151	C	0.329795	0.370696	0.120024
	C152	C	0.891922	0.665248	0.387858
	C153	C	0.122413	0.664040	0.623730
	C154	C	0.892412	0.313129	0.625353
	C155	C	0.122142	0.312583	0.387794
	C156	C	0.892828	0.369897	0.683948
	C157	C	0.121869	0.607690	0.682707
	C158	C	0.892371	0.608970	0.329395
	C159	C	0.121401	0.368694	0.328091
	C160	C	0.387597	0.666290	0.889895
	C161	C	0.623236	0.664799	0.120216
	C162	C	0.625768	0.313991	0.890318
	C163	C	0.388987	0.314143	0.120455
	C164	C	0.682971	0.873983	0.386848
	C165	C	0.683125	0.104541	0.624431
	C166	C	0.332112	0.873799	0.623542
	C167	C	0.329958	0.104981	0.386554
	C168	C	0.888077	0.374484	0.181492
	C169	C	0.124294	0.605622	0.181921
	C170	C	0.126357	0.374158	0.829331
	C171	C	0.887806	0.604985	0.829744
	C172	C	0.184075	0.869386	0.390981
	C173	C	0.183353	0.108413	0.620418
	C174	C	0.829549	0.108859	0.391006
	C175	C	0.830329	0.869427	0.620177
	C176	C	0.392560	0.166494	0.887803
	C177	C	0.622604	0.166080	0.123978
	C178	C	0.392546	0.814428	0.123959
	C179	C	0.621606	0.813272	0.887074
	C180	C	0.393256	0.870875	0.182738
	C181	C	0.622688	0.108749	0.182291
	C182	C	0.392944	0.110100	0.829035
	C183	C	0.621383	0.869835	0.828785
	C184	C	0.887865	0.166314	0.390852
	C185	C	0.124236	0.164396	0.621106
	C186	C	0.125464	0.812444	0.390535
	C187	C	0.889191	0.812945	0.620577
	C188	C	0.183400	0.374472	0.886509
	C189	C	0.181717	0.605539	0.124707
	C190	C	0.830993	0.374554	0.123898
	C191	C	0.830273	0.605050	0.886988
	C192	C	0.407139	0.084977	0.605249
	C193	C	0.606421	0.894003	0.605381
	C194	C	0.606139	0.084564	0.406862
	C195	C	0.407966	0.894745	0.406381
	C196	C	0.607100	0.390782	0.099355
	C197	C	0.606835	0.589001	0.910565
	C198	C	0.405186	0.590510	0.099390
	C199	C	0.406852	0.391206	0.911269
	C200	C	0.101353	0.588323	0.405099
	C201	C	0.912799	0.588867	0.606648
	C202	C	0.101523	0.388910	0.606606
	C203	C	0.912956	0.389871	0.405387
	C204	C	0.906084	0.585651	0.105985
	C205	C	0.105654	0.395109	0.104809
	C206	C	0.105081	0.584504	0.906254
	C207	C	0.907905	0.394618	0.907153
	C208	C	0.108260	0.888508	0.600072
	C209	C	0.105990	0.088276	0.411653
	C210	C	0.906404	0.088232	0.599538
	C211	C	0.907646	0.890014	0.411623
	C212	C	0.601682	0.089189	0.905424
	C213	C	0.413595	0.089576	0.105880
	C214	C	0.601816	0.889970	0.105484
	C215	C	0.412466	0.891010	0.905268
	Zn216	Zn	0.506737	-0.010130	0.755399
	Zn217	Zn	0.507842	-0.010271	0.256627
	Zn218	Zn	0.757011	0.490011	0.005483
	Zn219	Zn	0.255118	0.489970	0.005578
	Zn220	Zn	0.007310	0.738591	0.505676
	Zn221	Zn	0.006857	0.239187	0.506016
	Zn222	Zn	0.006860	0.489329	0.756743
	Zn223	Zn	0.006469	0.489905	0.255119
	Zn224	Zn	0.506811	0.739945	0.005078
	Zn225	Zn	0.507452	0.240052	0.005572
	Zn226	Zn	0.755971	-0.011351	0.505582
	Zn227	Zn	0.257500	-0.010295	0.505597
	N228	N	0.421585	0.952356	0.683432
	N229	N	0.592129	0.026883	0.683274
	N230	N	0.593080	0.952624	0.327786
	N231	N	0.421602	0.027155	0.327788
	N232	N	0.686728	0.403344	0.968594
	N233	N	0.685218	0.576045	0.041691
	N234	N	0.325828	0.576919	0.968451
	N235	N	0.327298	0.403923	0.042426
	N236	N	0.969424	0.666348	0.420809
	N237	N	0.044960	0.665822	0.590537
	N238	N	0.969504	0.311525	0.591560
	N239	N	0.044851	0.311695	0.421656
	N240	N	0.970478	0.402864	0.685920
	N241	N	0.044103	0.575242	0.685605
	N242	N	0.969992	0.575382	0.327188
	N243	N	0.043694	0.402006	0.325389
	N244	N	0.420940	0.668175	0.967365
	N245	N	0.590171	0.666282	0.042729
	N246	N	0.591993	0.312695	0.967602
	N247	N	0.422746	0.313165	0.043176
	N248	N	0.684420	0.951929	0.420536
	N249	N	0.684878	0.026230	0.591305
	N250	N	0.329699	0.952126	0.590384
	N251	N	0.328598	0.026857	0.419926
	N252	N	0.920714	0.452694	0.183839
	N253	N	0.091253	0.527447	0.183450
	N254	N	0.091990	0.451921	0.828072
	N255	N	0.921314	0.526819	0.828008
	N256	N	0.186948	0.902318	0.468758
	N257	N	0.185671	0.075249	0.542486
	N258	N	0.827357	0.075160	0.468465
	N259	N	0.828140	0.902744	0.542499
	N260	N	0.469971	0.167489	0.921189
	N261	N	0.545030	0.167871	0.090859
	N262	N	0.469832	0.812660	0.090242
	N263	N	0.544315	0.812427	0.920673
	N264	N	0.471050	0.903291	0.185309
	N265	N	0.545156	0.075582	0.184688
	N266	N	0.470496	0.076601	0.826601
	N267	N	0.543774	0.903373	0.826470
	N268	N	0.921011	0.167799	0.468377
	N269	N	0.090554	0.165699	0.543804
	N270	N	0.092580	0.810523	0.468159
	N271	N	0.923295	0.811991	0.543458
	N272	N	0.184370	0.452459	0.919947
	N273	N	0.183664	0.527518	0.091058
	N274	N	0.828566	0.452978	0.091175
	N275	N	0.828984	0.527195	0.920683
	O276	O	0.994567	0.998243	-0.065829
	H277	H	0.985491	1.006353	-0.078714
	H278	H	0.990668	1.002119	-0.063894
	O279	O	-0.025849	0.080384	-0.029432
	H280	H	-0.021657	0.079071	-0.031241
	H281	H	-0.028867	0.081356	-0.042007
	O282	O	0.038445	-0.026248	0.967143
	H283	H	0.039417	-0.026623	0.971979
	H284	H	0.037756	-0.029215	0.966835
	O285	O	0.066918	0.997376	-0.011992
	H286	H	0.068588	0.986424	-0.018314
	H287	H	0.065183	1.000170	-0.010580
	O288	O	0.525211	0.456233	0.435056
	H289	H	0.528151	0.460154	0.439742
	H290	H	0.518838	0.461324	0.427247
	O291	O	0.526748	0.474132	0.472678
	H292	H	0.529111	0.472300	0.468847
	H293	H	0.524683	0.474104	0.464366
	O294	O	-0.494399	0.465135	0.405981
	H295	H	-0.491690	0.464079	0.411545
	H296	H	-0.507489	0.470758	0.399420
	O297	O	0.505422	0.482383	0.406141
	H298	H	0.513085	0.470118	0.411423
	H299	H	0.504415	0.482660	0.415297
	O300	O	0.099801	0.971780	1.053977
	H301	H	0.100263	0.971733	1.048847
	H302	H	0.102281	0.973187	1.055471
	O303	O	0.501859	0.468165	0.391224
	H304	H	0.504719	0.463867	0.385494
	H305	H	0.506473	0.461519	0.387256
	O306	O	0.250092	-0.199028	1.225324
	H307	H	0.240640	-0.194748	1.230197
	H308	H	0.252892	-0.194446	1.218327
	O309	O	1.034429	1.046219	0.972742
	H310	H	1.038496	1.042256	0.977551
	H311	H	1.043850	1.048321	0.969301
	O312	O	-0.002020	1.051688	-0.065148
	H313	H	0.006762	1.054421	-0.063469
	H314	H	0.004014	1.048177	-0.060896
	O315	O	0.508738	0.495175	0.439243
	H316	H	0.507276	0.496237	0.433724
	H317	H	0.512597	0.505652	0.436840
	O318	O	0.006532	0.942685	-0.033077
	H319	H	0.009064	0.929520	-0.023379
	H320	H	0.008491	0.947209	-0.030074
	O321	O	1.082504	1.024373	0.026892
	H322	H	1.084067	1.028368	0.022145
	H323	H	1.082203	1.032467	0.026755
