data_Molecule from HDF5

_cell_length_a		16.517459
_cell_length_b		16.336923
_cell_length_c		16.451226
_cell_angle_alpha	90.070362
_cell_angle_beta	89.996610
_cell_angle_gamma	90.163825
_symmetry_space_group_name_H-M	'P 1'
_symmetry_Int_Tables_number		1

loop_
	_symmetry_equiv_pos_as_xyz
	x,y,z

loop_
	_atom_site_label
	_atom_site_type_symbol
	_atom_site_fract_x
	_atom_site_fract_y
	_atom_site_fract_z
	H0	H	0.389676	0.829978	0.728054
	H1	H	0.605567	0.145056	0.720666
	H2	H	0.607471	0.827508	0.276870
	H3	H	0.391412	0.142206	0.276632
	H4	H	0.727219	0.377172	0.846211
	H5	H	0.730632	0.600161	0.157628
	H6	H	0.276130	0.595404	0.846838
	H7	H	0.275953	0.374409	0.158224
	H8	H	0.845893	0.709105	0.392804
	H9	H	0.157711	0.712688	0.610543
	H10	H	0.845987	0.260604	0.610001
	H11	H	0.156591	0.256926	0.391977
	H12	H	0.848169	0.374549	0.728016
	H13	H	0.158467	0.597258	0.727483
	H14	H	0.848099	0.594815	0.274730
	H15	H	0.158228	0.372951	0.276588
	H16	H	0.395988	0.706846	0.844069
	H17	H	0.612061	0.713813	0.156859
	H18	H	0.607386	0.264786	0.844394
	H19	H	0.395329	0.263031	0.160828
	H20	H	0.722628	0.826346	0.392502
	H21	H	0.724244	0.142801	0.608714
	H22	H	0.275348	0.829098	0.612414
	H23	H	0.274454	0.140685	0.389998
	H24	H	0.898378	0.325855	0.222117
	H25	H	0.114552	0.642111	0.228091
	H26	H	0.108394	0.326991	0.780140
	H27	H	0.893456	0.641820	0.775713
	H28	H	0.228257	0.872866	0.346788
	H29	H	0.227410	0.097303	0.657122
	H30	H	0.776150	0.093867	0.345104
	H31	H	0.778670	0.877600	0.659295
	H32	H	0.345143	0.208871	0.896801
	H33	H	0.658826	0.210481	0.111141
	H34	H	0.346166	0.758870	0.110045
	H35	H	0.658057	0.761221	0.891845
	H36	H	0.346271	0.873543	0.227163
	H37	H	0.657181	0.095048	0.227382
	H38	H	0.345446	0.094578	0.778107
	H39	H	0.658254	0.879029	0.777276
	H40	H	0.893536	0.208416	0.344491
	H41	H	0.106463	0.206610	0.659300
	H42	H	0.107779	0.762475	0.344872
	H43	H	0.894395	0.761735	0.659399
	H44	H	0.223799	0.326414	0.896108
	H45	H	0.227024	0.643181	0.110250
	H46	H	0.780593	0.327345	0.109256
	H47	H	0.779763	0.643046	0.892964
	H48	H	0.414593	0.096799	0.584273
	H49	H	0.586326	0.873153	0.585107
	H50	H	0.588141	0.097514	0.414803
	H51	H	0.416583	0.873139	0.415094
	H52	H	0.590644	0.399616	0.115496
	H53	H	0.585620	0.571984	0.892456
	H54	H	0.418296	0.568892	0.112904
	H55	H	0.413965	0.397052	0.890011
	H56	H	0.113097	0.570181	0.416057
	H57	H	0.889964	0.575069	0.588364
	H58	H	0.115068	0.398278	0.592390
	H59	H	0.888074	0.394352	0.411060
	H60	H	0.114877	0.394283	0.587895
	H61	H	0.893525	0.568487	0.586877
	H62	H	0.113992	0.573016	0.413694
	H63	H	0.892044	0.397841	0.416837
	H64	H	0.416761	0.574496	0.114846
	H65	H	0.594511	0.576517	0.887104
	H66	H	0.592505	0.399014	0.115545
	H67	H	0.412533	0.398405	0.889856
	H68	H	0.589528	0.098250	0.415392
	H69	H	0.594231	0.869285	0.589756
	H70	H	0.410706	0.100393	0.589337
	H71	H	0.414060	0.873950	0.417053
	H72	H	0.918769	0.597066	0.088052
	H73	H	0.096453	0.370956	0.088250
	H74	H	0.093710	0.599067	0.915892
	H75	H	0.915469	0.370257	0.908970
	H76	H	0.094574	0.901674	0.614942
	H77	H	0.084879	0.074788	0.389274
	H78	H	0.911943	0.073934	0.614674
	H79	H	0.910764	0.901646	0.390671
	H80	H	0.612383	0.072272	0.915292
	H81	H	0.394585	0.070505	0.078746
	H82	H	0.612061	0.901183	0.087887
	H83	H	0.393611	0.903863	0.917595
	H84	H	0.610801	0.900930	0.085526
	H85	H	0.388321	0.064993	0.099286
	H86	H	0.615051	0.072429	0.907665
	H87	H	0.388252	0.899070	0.906295
	H88	H	0.910984	0.070637	0.613634
	H89	H	0.093880	0.068242	0.388374
	H90	H	0.084918	0.903659	0.611509
	H91	H	0.915647	0.893715	0.389435
	H92	H	0.089416	0.598818	0.912105
	H93	H	0.088590	0.370864	0.094902
	H94	H	0.916533	0.598371	0.088358
	H95	H	0.922418	0.376223	0.917835
	H96	H	0.417129	0.098185	0.590562
	H97	H	0.586138	0.870299	0.594237
	H98	H	0.588476	0.097832	0.413335
	H99	H	0.414220	0.872229	0.414108
	H100	H	0.591834	0.400652	0.114798
	H101	H	0.595140	0.565909	0.891927
	H102	H	0.413382	0.570027	0.114585
	H103	H	0.414216	0.398899	0.891134
	H104	H	0.113487	0.573814	0.417012
	H105	H	0.890764	0.569876	0.593928
	H106	H	0.113238	0.400279	0.586982
	H107	H	0.891410	0.401695	0.410324
	H108	H	0.918513	0.598712	0.089382
	H109	H	0.087178	0.374497	0.085310
	H110	H	0.088601	0.597331	0.917512
	H111	H	0.909909	0.372314	0.920094
	H112	H	0.087224	0.894478	0.615483
	H113	H	0.084644	0.064456	0.393361
	H114	H	0.914334	0.071893	0.613541
	H115	H	0.906342	0.894628	0.385896
	H116	H	0.616150	0.078683	0.912945
	H117	H	0.385257	0.086608	0.092078
	H118	H	0.610167	0.902678	0.087236
	H119	H	0.388971	0.891217	0.917276
	C120	C	0.379752	-0.005343	0.623101
	C121	C	0.622166	0.976024	0.622405
	C122	C	0.622130	-0.006532	0.379957
	C123	C	0.379939	0.976439	0.380578
	C124	C	0.624573	0.365404	0.011344
	C125	C	0.626106	0.608353	0.993042
	C126	C	0.381928	0.605565	0.010551
	C127	C	0.380304	0.363923	0.993976
	C128	C	0.010852	0.606427	0.380626
	C129	C	0.994093	0.606821	0.623791
	C130	C	0.011454	0.363363	0.623372
	C131	C	0.993508	0.362696	0.379347
	C132	C	0.883603	0.493969	0.122441
	C133	C	0.125009	0.476205	0.124120
	C134	C	0.123606	0.493703	0.881611
	C135	C	0.881623	0.476783	0.880728
	C136	C	0.122789	0.864625	0.510664
	C137	C	0.122322	0.105385	0.493248
	C138	C	0.879166	0.105900	0.510112
	C139	C	0.878534	0.863071	0.492728
	C140	C	0.510371	0.107874	0.880180
	C141	C	0.492820	0.108239	0.124469
	C142	C	0.509309	0.865126	0.121693
	C143	C	0.493137	0.864071	0.879239
	C144	C	0.373592	0.876907	0.687036
	C145	C	0.624509	0.096626	0.681670
	C146	C	0.625620	0.875008	0.317381
	C147	C	0.374181	0.094645	0.317309
	C148	C	0.686156	0.360418	0.893127
	C149	C	0.689360	0.616015	0.110230
	C150	C	0.318160	0.611569	0.893422
	C151	C	0.317707	0.358333	0.111615
	C152	C	0.893404	0.668705	0.375762
	C153	C	0.111031	0.671129	0.628304
	C154	C	0.893623	0.300901	0.627710
	C155	C	0.109979	0.298546	0.374705
	C156	C	0.894471	0.358201	0.686289
	C157	C	0.111417	0.613487	0.686670
	C158	C	0.894215	0.611497	0.316913
	C159	C	0.111053	0.356776	0.317131
	C160	C	0.377972	0.667064	0.891841
	C161	C	0.630252	0.672784	0.110033
	C162	C	0.626355	0.304401	0.892412
	C163	C	0.377264	0.302700	0.112828
	C164	C	0.682704	0.874515	0.375393
	C165	C	0.683510	0.095411	0.625749
	C166	C	0.316408	0.876661	0.629345
	C167	C	0.315972	0.093902	0.374232
	C168	C	0.880147	0.373992	0.182816
	C169	C	0.130590	0.594762	0.186859
	C170	C	0.126453	0.374457	0.820664
	C171	C	0.876846	0.594773	0.817387
	C172	C	0.185952	0.857753	0.393415
	C173	C	0.185426	0.112447	0.610416
	C174	C	0.817126	0.110656	0.392288
	C175	C	0.818159	0.859793	0.611765
	C176	C	0.392313	0.168962	0.878154
	C177	C	0.611116	0.169852	0.128642
	C178	C	0.392607	0.800808	0.126708
	C179	C	0.610942	0.802475	0.875141
	C180	C	0.392522	0.858104	0.185214
	C181	C	0.610481	0.112085	0.186586
	C182	C	0.392563	0.111902	0.819004
	C183	C	0.610956	0.860569	0.817195
	C184	C	0.875518	0.168071	0.392004
	C185	C	0.125183	0.167307	0.611551
	C186	C	0.125813	0.802551	0.392345
	C187	C	0.876200	0.802251	0.611866
	C188	C	0.183755	0.374357	0.878536
	C189	C	0.186890	0.595315	0.128154
	C190	C	0.821393	0.374897	0.126608
	C191	C	0.820092	0.595373	0.875875
	C192	C	0.406596	0.076915	0.595726
	C193	C	0.596315	0.892738	0.596977
	C194	C	0.596019	0.076278	0.406922
	C195	C	0.407122	0.894595	0.407769
	C196	C	0.599087	0.392089	0.093723
	C197	C	0.599478	0.579718	0.911854
	C198	C	0.408516	0.578734	0.092508
	C199	C	0.406233	0.390491	0.911804
	C200	C	0.092353	0.579743	0.407588
	C201	C	0.912623	0.579075	0.597349
	C202	C	0.093128	0.389986	0.596587
	C203	C	0.911944	0.390098	0.405272
	C204	C	0.910256	0.576455	0.096200
	C205	C	0.098298	0.393646	0.097142
	C206	C	0.097952	0.576895	0.907676
	C207	C	0.908315	0.394322	0.907805
	C208	C	0.096354	0.892012	0.592774
	C209	C	0.095614	0.077106	0.411690
	C210	C	0.904976	0.079582	0.592531
	C211	C	0.903708	0.889038	0.410217
	C212	C	0.592974	0.081922	0.905102
	C213	C	0.410827	0.081593	0.097805
	C214	C	0.590188	0.893444	0.094582
	C215	C	0.411660	0.890623	0.905945
	Zn216	Zn	0.501212	-0.013749	0.750568
	Zn217	Zn	0.500494	-0.014850	0.252260
	Zn218	Zn	0.754433	0.486100	0.002888
	Zn219	Zn	0.252736	0.485441	0.002441
	Zn220	Zn	0.001754	0.735815	0.502438
	Zn221	Zn	0.001557	0.234297	0.501688
	Zn222	Zn	0.003240	0.485064	0.752521
	Zn223	Zn	0.003443	0.485107	0.251332
	Zn224	Zn	0.501561	0.735198	0.001156
	Zn225	Zn	0.502358	0.236366	0.002666
	Zn226	Zn	0.749918	-0.015704	0.501244
	Zn227	Zn	0.251690	-0.015155	0.501994
	N228	N	0.412139	0.951586	0.683384
	N229	N	0.587215	0.021382	0.679973
	N230	N	0.588884	0.950363	0.319932
	N231	N	0.413088	0.020693	0.321101
	N232	N	0.685072	0.397550	0.968163
	N233	N	0.686713	0.576474	0.036589
	N234	N	0.320388	0.574385	0.968212
	N235	N	0.319372	0.395592	0.036822
	N236	N	0.966826	0.665719	0.414701
	N237	N	0.037193	0.667214	0.590044
	N238	N	0.967291	0.304167	0.589002
	N239	N	0.035774	0.301717	0.412226
	N240	N	0.968680	0.396348	0.683644
	N241	N	0.037633	0.574243	0.684059
	N242	N	0.968435	0.573727	0.319654
	N243	N	0.037573	0.396215	0.320018
	N244	N	0.416970	0.663418	0.965700
	N245	N	0.591775	0.668474	0.036034
	N246	N	0.588689	0.307308	0.966993
	N247	N	0.415761	0.306281	0.038750
	N248	N	0.680630	0.949348	0.413521
	N249	N	0.682260	0.019461	0.589695
	N250	N	0.320155	0.950677	0.590150
	N251	N	0.319181	0.019316	0.412781
	N252	N	0.917790	0.449154	0.180644
	N253	N	0.093000	0.519565	0.184558
	N254	N	0.089948	0.449838	0.822333
	N255	N	0.914532	0.519814	0.820338
	N256	N	0.184196	0.895584	0.468075
	N257	N	0.183880	0.074567	0.535749
	N258	N	0.819088	0.072932	0.466882
	N259	N	0.819358	0.896610	0.536609
	N260	N	0.466779	0.166828	0.915197
	N261	N	0.536963	0.167552	0.090756
	N262	N	0.466107	0.805099	0.087901
	N263	N	0.536871	0.804456	0.912965
	N264	N	0.465857	0.897831	0.181974
	N265	N	0.535764	0.074751	0.184371
	N266	N	0.466929	0.074431	0.820346
	N267	N	0.536620	0.898152	0.819533
	N268	N	0.913151	0.165520	0.466435
	N269	N	0.086706	0.162952	0.537781
	N270	N	0.087409	0.806656	0.466388
	N271	N	0.912707	0.803752	0.536720
	N272	N	0.182121	0.449751	0.915690
	N273	N	0.183405	0.520706	0.089719
	N274	N	0.823113	0.450563	0.090270
	N275	N	0.823060	0.520950	0.914506
	O276	O	0.727270	0.464191	0.278837
	H277	H	0.766489	0.457669	0.239966
	H278	H	0.712024	0.410606	0.292199
	O279	O	1.099101	0.057282	0.815347
	H280	H	1.100684	0.050449	0.838143
	H281	H	1.106012	0.043006	0.824439
	O282	O	0.523886	0.270814	0.288625
	H283	H	0.495613	0.300126	0.297282
	H284	H	0.521543	0.238634	0.252203
	O285	O	0.536766	0.279760	0.533908
	H286	H	0.535795	0.291271	0.542570
	H287	H	0.553011	0.275668	0.530942
	O288	O	1.175507	0.815800	-0.174862
	H289	H	1.190047	0.803204	-0.125930
	H290	H	1.151712	0.831452	-0.178554
	O291	O	0.565499	0.465245	0.494089
	H292	H	0.574444	0.454104	0.502530
	H293	H	0.542854	0.475745	0.481251
	O294	O	0.147104	0.046765	0.977040
	H295	H	0.142285	0.036167	0.982516
	H296	H	0.160031	0.046843	0.964286
	O297	O	0.714322	0.500841	1.714165
	H298	H	0.691735	0.533535	1.706630
	H299	H	0.750008	0.501363	1.742286
	O300	O	0.323421	0.667190	0.324681
	H301	H	0.333592	0.641692	0.318185
	H302	H	0.352797	0.653377	0.314694
	O303	O	0.313247	0.305508	0.682086
	H304	H	0.319094	0.309236	0.656589
	H305	H	0.344466	0.288111	0.700881
	O306	O	0.568952	0.573150	0.311785
	H307	H	0.569282	0.553634	0.316250
	H308	H	0.592318	0.552099	0.297970
	O309	O	0.679533	0.659453	0.685712
	H310	H	0.646788	0.673267	0.678759
	H311	H	0.689567	0.655024	0.649609
	O312	O	0.076661	0.929254	1.201208
	H313	H	0.088912	0.909190	1.206549
	H314	H	0.102969	0.916381	1.210642
	O315	O	0.544276	0.460642	0.705879
	H316	H	0.534900	0.453820	0.700833
	H317	H	0.546607	0.487305	0.704114
	O318	O	0.848054	-0.015165	-0.165077
	H319	H	0.843523	-0.014406	-0.168879
	H320	H	0.859451	-0.039079	-0.163352
	O321	O	0.202439	0.181795	0.073137
	H322	H	0.197474	0.198073	0.044447
	H323	H	0.193044	0.182596	0.066122
	O324	O	0.836311	0.815362	0.174814
	H325	H	0.820796	0.804676	0.125232
	H326	H	0.825234	0.863217	0.180423
	O327	O	0.683635	0.307950	0.318214
	H328	H	0.694059	0.295441	0.371595
	H329	H	0.630967	0.293487	0.308833
	O330	O	-0.185450	1.041903	-0.137434
	H331	H	-0.156640	1.051903	-0.140514
	H332	H	-0.178459	1.027619	-0.143207
	O333	O	0.290208	0.504095	0.282909
	H334	H	0.271883	0.488543	0.305796
	H335	H	0.258656	0.495931	0.273827
	O336	O	0.205810	-0.051159	0.033758
	H337	H	0.212206	-0.064647	0.042766
	H338	H	0.204305	-0.048514	0.049404
	O339	O	0.162563	1.012590	0.829027
	H340	H	0.161930	0.987772	0.836701
	H341	H	0.174812	1.009211	0.819233
	O342	O	0.286241	1.273234	0.519865
	H343	H	0.270380	1.242007	0.523200
	H344	H	0.306826	1.266477	0.529864
	O345	O	1.095784	1.122565	0.194219
	H346	H	1.092247	1.127525	0.153009
	H347	H	1.074240	1.117102	0.201707
	O348	O	0.618884	0.411746	0.640856
	H349	H	0.602063	0.430839	0.652844
	H350	H	0.634610	0.426698	0.637789
	O351	O	0.474962	1.702428	1.533388
	H352	H	0.498611	1.705396	1.522215
	H353	H	0.454676	1.703244	1.543128
	O354	O	0.020988	0.771768	-0.210831
	H355	H	0.042346	0.770487	-0.205613
	H356	H	0.014952	0.744072	-0.217264
	O357	O	-0.209084	-0.222075	1.019793
	H358	H	-0.233008	-0.206809	1.006054
	H359	H	-0.236946	-0.221132	1.012188
	O360	O	0.475935	0.281442	0.709358
	H361	H	0.496566	0.296125	0.719515
	H362	H	0.489064	0.279741	0.721819
	O363	O	-0.166183	0.182308	0.880256
	H364	H	-0.158399	0.199294	0.866365
	H365	H	-0.163445	0.160984	0.861252
	O366	O	0.486374	0.684146	0.303428
	H367	H	0.492603	0.692554	0.295905
	H368	H	0.513372	0.657161	0.301473
	O369	O	0.719826	0.700977	-0.471089
	H370	H	0.740291	0.709363	-0.486335
	H371	H	0.739178	0.695103	-0.490750
	O372	O	1.021312	0.193971	1.202131
	H373	H	0.996829	0.165778	1.218342
	H374	H	1.010011	0.211167	1.224241
	O375	O	0.218664	1.000608	1.218378
	H376	H	0.207355	1.053779	1.205256
	H377	H	0.255619	1.005583	1.253170
	O378	O	0.985082	0.768177	1.219179
	H379	H	0.969743	0.736627	1.248861
	H380	H	0.941252	0.778427	1.210981
	O381	O	0.467033	0.447176	0.290077
	H382	H	0.459441	0.441936	0.292300
	H383	H	0.446923	0.457114	0.301949
	O384	O	-0.209611	0.970785	1.204689
	H385	H	-0.229007	0.979318	1.223868
	H386	H	-0.214393	0.985020	1.185153
	O387	O	-0.034956	-0.235106	0.958595
	H388	H	-0.040235	-0.244408	0.953626
	H389	H	-0.065883	-0.227086	0.969689
	O390	O	0.033993	0.087406	-0.209458
	H391	H	0.047267	0.070783	-0.221893
	H392	H	0.047617	0.085016	-0.208018
	O393	O	0.801018	1.118566	1.030447
	H394	H	0.803608	1.136556	1.030398
	H395	H	0.803407	1.140952	1.002963
	O396	O	0.433780	0.581658	0.590016
	H397	H	0.432417	0.598276	0.597466
	H398	H	0.416434	0.576255	0.588198
	O399	O	0.435800	0.285557	0.414492
	H400	H	0.437608	0.291969	0.420581
	H401	H	0.450755	0.294064	0.422275
	O402	O	0.971575	1.073865	1.137658
	H403	H	0.968086	1.055796	1.133820
	H404	H	0.969254	1.055638	1.145296
	O405	O	0.574895	0.562680	-0.556797
	H406	H	0.571850	0.566907	-0.558783
	H407	H	0.572869	0.555712	-0.549421
	O408	O	0.885625	-0.043702	-0.184070
	H409	H	0.912307	-0.050121	-0.178160
	H410	H	0.886159	-0.059138	-0.187037
	O411	O	1.049833	1.115785	0.020997
	H412	H	1.039812	1.119255	0.029166
	H413	H	1.060651	1.114752	0.040828
	O414	O	0.609356	0.586551	0.426696
	H415	H	0.605223	0.574564	0.424518
	H416	H	0.595803	0.570518	0.415099
	O417	O	0.283529	1.468107	-0.278943
	H418	H	0.249358	1.464816	-0.259491
	H419	H	0.285127	1.432909	-0.295185
	O420	O	0.067822	-0.202708	0.088761
	H421	H	0.068555	-0.203728	0.117174
	H422	H	0.044880	-0.212354	0.080732
	O423	O	0.279846	0.540507	0.550660
	H424	H	0.276592	0.558373	0.550600
	H425	H	0.281874	0.561751	0.554937
	O426	O	0.037500	1.173735	0.893340
	H427	H	0.033593	1.169607	0.893076
	H428	H	0.037169	1.153823	0.896728
	O429	O	0.717201	0.272027	0.478384
	H430	H	0.721776	0.293423	0.502489
	H431	H	0.743883	0.253363	0.484918
	O432	O	0.489407	0.470637	0.656241
	H433	H	0.470182	0.468214	0.656681
	H434	H	0.490367	0.466111	0.668213
	O435	O	0.719760	0.438919	0.533502
	H436	H	0.717228	0.454021	0.541554
	H437	H	0.713957	0.448048	0.521138
	O438	O	-0.214379	-0.025410	-0.009749
	H439	H	-0.208240	0.004566	-0.011883
	H440	H	-0.202684	-0.005836	-0.015230
	O441	O	1.216645	-0.212867	-0.020512
	H442	H	1.232597	-0.221003	-0.003762
	H443	H	1.207837	-0.225493	0.001300
	O444	O	0.962399	0.041190	1.010102
	H445	H	0.963165	0.045315	1.012955
	H446	H	0.967913	0.030109	1.001467
	O447	O	0.281688	0.701679	0.483290
	H448	H	0.275944	0.724716	0.475504
	H449	H	0.279779	0.709140	0.446185
	O450	O	0.521116	0.700587	0.716681
	H451	H	0.518348	0.707002	0.713357
	H452	H	0.515187	0.716966	0.726466
	O453	O	0.280398	0.417844	0.423045
	H454	H	0.276662	0.416083	0.455196
	H455	H	0.290237	0.402552	0.446178
