data_Molecule from HDF5

_cell_length_a		16.383035
_cell_length_b		16.436091
_cell_length_c		16.241875
_cell_angle_alpha	90.273666
_cell_angle_beta	89.933825
_cell_angle_gamma	89.957891
_symmetry_space_group_name_H-M	'P 1'
_symmetry_Int_Tables_number		1

loop_
	_symmetry_equiv_pos_as_xyz
	x,y,z

loop_
	_atom_site_label
	_atom_site_type_symbol
	_atom_site_fract_x
	_atom_site_fract_y
	_atom_site_fract_z
	H0	H	0.403677	0.832298	0.706700
	H1	H	0.605339	0.154577	0.712900
	H2	H	0.604835	0.833590	0.275248
	H3	H	0.399998	0.153703	0.272831
	H4	H	0.723633	0.387267	0.830291
	H5	H	0.722252	0.596490	0.153551
	H6	H	0.287278	0.593989	0.830590
	H7	H	0.283686	0.389997	0.153060
	H8	H	0.844654	0.715607	0.388244
	H9	H	0.164187	0.713726	0.595169
	H10	H	0.843830	0.274368	0.598066
	H11	H	0.164203	0.275390	0.388530
	H12	H	0.842660	0.394516	0.710117
	H13	H	0.165145	0.595366	0.709642
	H14	H	0.843302	0.597128	0.274337
	H15	H	0.164435	0.392781	0.273340
	H16	H	0.403010	0.710026	0.830488
	H17	H	0.610271	0.714274	0.152287
	H18	H	0.609072	0.271729	0.832212
	H19	H	0.400891	0.276156	0.153683
	H20	H	0.724785	0.835342	0.387541
	H21	H	0.724960	0.153904	0.599749
	H22	H	0.284758	0.834380	0.592171
	H23	H	0.285225	0.155218	0.389655
	H24	H	0.898201	0.335166	0.214503
	H25	H	0.104760	0.655155	0.210075
	H26	H	0.107448	0.334337	0.771080
	H27	H	0.903426	0.654681	0.777666
	H28	H	0.220626	0.892402	0.330013
	H29	H	0.220387	0.097617	0.655004
	H30	H	0.782329	0.100578	0.332094
	H31	H	0.784219	0.893300	0.654206
	H32	H	0.344797	0.213769	0.888375
	H33	H	0.663052	0.216973	0.100288
	H34	H	0.344033	0.774612	0.092425
	H35	H	0.665069	0.771750	0.885719
	H36	H	0.342774	0.892186	0.209106
	H37	H	0.664699	0.096109	0.211760
	H38	H	0.341678	0.091749	0.778347
	H39	H	0.665373	0.890727	0.771409
	H40	H	0.898286	0.215474	0.332009
	H41	H	0.108318	0.214712	0.653979
	H42	H	0.106810	0.774103	0.331289
	H43	H	0.899098	0.776845	0.654683
	H44	H	0.225736	0.334202	0.885197
	H45	H	0.222641	0.654048	0.094318
	H46	H	0.782304	0.335121	0.098199
	H47	H	0.782785	0.651837	0.886983
	H48	H	0.413875	0.109405	0.589611
	H49	H	0.598430	0.879227	0.583358
	H50	H	0.590614	0.106853	0.406554
	H51	H	0.405055	0.877387	0.400941
	H52	H	0.591965	0.409925	0.104469
	H53	H	0.602147	0.590841	0.870609
	H54	H	0.414834	0.583946	0.108094
	H55	H	0.410258	0.397789	0.874081
	H56	H	0.118273	0.583217	0.402613
	H57	H	0.889073	0.587878	0.581829
	H58	H	0.115443	0.409945	0.579462
	H59	H	0.889850	0.400585	0.404798
	H60	H	0.120031	0.402872	0.588774
	H61	H	0.889027	0.585175	0.584308
	H62	H	0.118261	0.587275	0.401682
	H63	H	0.891449	0.407231	0.407391
	H64	H	0.414481	0.584048	0.107994
	H65	H	0.599274	0.568569	0.880320
	H66	H	0.589490	0.403661	0.106108
	H67	H	0.412794	0.408666	0.878832
	H68	H	0.597666	0.109168	0.404425
	H69	H	0.589807	0.881979	0.583061
	H70	H	0.413493	0.106923	0.581213
	H71	H	0.415744	0.880620	0.396250
	H72	H	0.913599	0.608216	0.085669
	H73	H	0.093457	0.380262	0.082686
	H74	H	0.100221	0.608951	0.901857
	H75	H	0.907491	0.379118	0.906903
	H76	H	0.090717	0.902112	0.607744
	H77	H	0.094650	0.085496	0.377542
	H78	H	0.921892	0.076548	0.602001
	H79	H	0.921816	0.901396	0.379504
	H80	H	0.617106	0.081415	0.905432
	H81	H	0.390107	0.081951	0.087204
	H82	H	0.618168	0.904866	0.083849
	H83	H	0.393835	0.903686	0.906047
	H84	H	0.619671	0.900773	0.083627
	H85	H	0.389402	0.090961	0.080920
	H86	H	0.619028	0.082257	0.901157
	H87	H	0.388429	0.902286	0.894135
	H88	H	0.918769	0.094202	0.609397
	H89	H	0.093872	0.084698	0.376637
	H90	H	0.097672	0.902565	0.609530
	H91	H	0.909289	0.900863	0.374958
	H92	H	0.094142	0.607248	0.900627
	H93	H	0.093227	0.380524	0.080107
	H94	H	0.915891	0.605618	0.080575
	H95	H	0.914055	0.376865	0.894135
	H96	H	0.406319	0.110614	0.585050
	H97	H	0.595474	0.882611	0.575463
	H98	H	0.592263	0.108432	0.398837
	H99	H	0.413180	0.883112	0.407936
	H100	H	0.596009	0.405147	0.107960
	H101	H	0.580731	0.584347	0.880230
	H102	H	0.414874	0.584036	0.107352
	H103	H	0.421412	0.399963	0.878367
	H104	H	0.117618	0.586002	0.405295
	H105	H	0.887940	0.588611	0.585228
	H106	H	0.118205	0.397925	0.577221
	H107	H	0.889553	0.406483	0.400463
	H108	H	0.910120	0.607722	0.080000
	H109	H	0.095966	0.380968	0.081640
	H110	H	0.096328	0.606505	0.905950
	H111	H	0.921179	0.383211	0.904905
	H112	H	0.094081	0.908022	0.606403
	H113	H	0.093338	0.085573	0.377075
	H114	H	0.904826	0.082191	0.609012
	H115	H	0.914267	0.911792	0.380701
	H116	H	0.618069	0.085303	0.904394
	H117	H	0.393467	0.081450	0.075903
	H118	H	0.618191	0.902187	0.080039
	H119	H	0.389074	0.892397	0.902360
	C120	C	0.381093	0.002685	0.614480
	C121	C	0.625508	0.986592	0.613381
	C122	C	0.625164	0.002569	0.371569
	C123	C	0.381393	0.986154	0.370864
	C124	C	0.625116	0.372728	0.000143
	C125	C	0.625881	0.613659	0.983280
	C126	C	0.384586	0.613569	0.000635
	C127	C	0.382852	0.371573	0.983327
	C128	C	0.012338	0.615898	0.371985
	C129	C	0.995101	0.617466	0.614677
	C130	C	0.011891	0.373177	0.613747
	C131	C	0.995569	0.373083	0.371408
	C132	C	0.881422	0.502312	0.114308
	C133	C	0.125034	0.486110	0.113202
	C134	C	0.127463	0.502051	0.870077
	C135	C	0.883113	0.485295	0.871469
	C136	C	0.124656	0.873136	0.500856
	C137	C	0.124864	0.116102	0.484279
	C138	C	0.882939	0.116024	0.500622
	C139	C	0.882905	0.873983	0.484626
	C140	C	0.512223	0.113763	0.872236
	C141	C	0.496235	0.116047	0.114275
	C142	C	0.512708	0.871816	0.113141
	C143	C	0.496429	0.869449	0.868747
	C144	C	0.383222	0.880907	0.669057
	C145	C	0.625042	0.106909	0.673224
	C146	C	0.624944	0.881834	0.313576
	C147	C	0.381461	0.106293	0.312495
	C148	C	0.684463	0.369565	0.879091
	C149	C	0.684193	0.615341	0.104601
	C150	C	0.326385	0.613608	0.878767
	C151	C	0.323424	0.371045	0.104708
	C152	C	0.891906	0.675002	0.370198
	C153	C	0.116213	0.674717	0.614645
	C154	C	0.891550	0.314412	0.615703
	C155	C	0.116010	0.314457	0.369599
	C156	C	0.890974	0.374204	0.671583
	C157	C	0.116740	0.615692	0.671226
	C158	C	0.891516	0.616603	0.313116
	C159	C	0.116335	0.373100	0.312376
	C160	C	0.383910	0.671078	0.878757
	C161	C	0.628300	0.673965	0.104134
	C162	C	0.627567	0.311918	0.879774
	C163	C	0.381672	0.314362	0.105243
	C164	C	0.684594	0.882954	0.369510
	C165	C	0.684570	0.106514	0.617027
	C166	C	0.324223	0.881844	0.612290
	C167	C	0.324239	0.106884	0.370660
	C168	C	0.879760	0.382870	0.174610
	C169	C	0.124697	0.606819	0.171361
	C170	C	0.127076	0.382318	0.810452
	C171	C	0.883461	0.606326	0.815075
	C172	C	0.182162	0.872717	0.378777
	C173	C	0.182602	0.116726	0.606003
	C174	C	0.822563	0.118494	0.380098
	C175	C	0.823957	0.874213	0.606129
	C176	C	0.391914	0.173029	0.870838
	C177	C	0.615628	0.176167	0.117686
	C178	C	0.391904	0.813939	0.112368
	C179	C	0.617042	0.811699	0.867351
	C180	C	0.391209	0.872477	0.170195
	C181	C	0.616356	0.116058	0.173308
	C182	C	0.390535	0.112262	0.815902
	C183	C	0.617176	0.870725	0.810213
	C184	C	0.880444	0.175678	0.380014
	C185	C	0.126226	0.174893	0.605685
	C186	C	0.125486	0.814047	0.379358
	C187	C	0.881075	0.816119	0.606153
	C188	C	0.186036	0.382177	0.867231
	C189	C	0.183292	0.606202	0.113956
	C190	C	0.822126	0.382617	0.116487
	C191	C	0.823361	0.604667	0.869730
	C192	C	0.404338	0.087130	0.591879
	C193	C	0.601559	0.902987	0.587925
	C194	C	0.600494	0.086417	0.396134
	C195	C	0.404546	0.902284	0.394775
	C196	C	0.599615	0.398560	0.084227
	C197	C	0.601177	0.588447	0.898838
	C198	C	0.408085	0.590726	0.085566
	C199	C	0.407548	0.395158	0.899084
	C200	C	0.096100	0.592334	0.396164
	C201	C	0.910716	0.594141	0.590962
	C202	C	0.095982	0.396793	0.588915
	C203	C	0.912050	0.397634	0.396718
	C204	C	0.906180	0.585367	0.089381
	C205	C	0.101066	0.402275	0.088572
	C206	C	0.103710	0.585969	0.895441
	C207	C	0.907402	0.401585	0.894996
	C208	C	0.100988	0.897186	0.585912
	C209	C	0.100851	0.092058	0.399155
	C210	C	0.907763	0.091207	0.584931
	C211	C	0.907944	0.897718	0.400387
	C212	C	0.596176	0.089938	0.896645
	C213	C	0.412639	0.091666	0.088838
	C214	C	0.596758	0.895746	0.089387
	C215	C	0.412154	0.892733	0.893700
	Zn216	Zn	0.503807	-0.006838	0.742091
	Zn217	Zn	0.503753	-0.006134	0.242471
	Zn218	Zn	0.753521	0.492880	-0.008526
	Zn219	Zn	0.255557	0.493390	-0.007691
	Zn220	Zn	0.003193	0.745066	0.492965
	Zn221	Zn	0.003836	0.243807	0.492854
	Zn222	Zn	0.003902	0.494649	0.742303
	Zn223	Zn	0.003688	0.494965	0.242823
	Zn224	Zn	0.505411	0.741899	-0.008408
	Zn225	Zn	0.504644	0.244190	-0.007292
	Zn226	Zn	0.754537	-0.004736	0.492324
	Zn227	Zn	0.252396	-0.005012	0.492273
	N228	N	0.417474	0.957176	0.670730
	N229	N	0.588916	0.031300	0.671101
	N230	N	0.588681	0.957337	0.314560
	N231	N	0.416465	0.030259	0.312440
	N232	N	0.683311	0.406285	0.955166
	N233	N	0.682655	0.578522	0.028455
	N234	N	0.326837	0.578166	0.955266
	N235	N	0.323917	0.405838	0.027967
	N236	N	0.967807	0.674921	0.405905
	N237	N	0.039415	0.675881	0.580469
	N238	N	0.967954	0.313667	0.580597
	N239	N	0.039990	0.314319	0.405466
	N240	N	0.966842	0.409984	0.670408
	N241	N	0.040275	0.581169	0.671591
	N242	N	0.967269	0.580545	0.314080
	N243	N	0.040319	0.408600	0.313169
	N244	N	0.419252	0.671246	0.955379
	N245	N	0.592879	0.673171	0.027441
	N246	N	0.591357	0.313675	0.956191
	N247	N	0.418012	0.314598	0.028944
	N248	N	0.684612	0.959105	0.404723
	N249	N	0.684711	0.030927	0.580562
	N250	N	0.322742	0.958628	0.579300
	N251	N	0.323873	0.031101	0.406051
	N252	N	0.916070	0.458338	0.173507
	N253	N	0.089268	0.531088	0.171063
	N254	N	0.091343	0.458015	0.812158
	N255	N	0.920015	0.531100	0.815827
	N256	N	0.181846	0.908673	0.455300
	N257	N	0.181906	0.080869	0.529367
	N258	N	0.824084	0.082090	0.456176
	N259	N	0.825195	0.909617	0.529767
	N260	N	0.468733	0.174164	0.905117
	N261	N	0.539921	0.176156	0.081737
	N262	N	0.468586	0.813197	0.078010
	N263	N	0.541010	0.811105	0.903184
	N264	N	0.467143	0.907785	0.170859
	N265	N	0.541041	0.079397	0.171256
	N266	N	0.466156	0.076118	0.816679
	N267	N	0.541074	0.905799	0.811180
	N268	N	0.917168	0.174288	0.455934
	N269	N	0.091124	0.174617	0.528891
	N270	N	0.090624	0.814026	0.456433
	N271	N	0.916857	0.815583	0.529499
	N272	N	0.186344	0.457814	0.903619
	N273	N	0.183750	0.530050	0.078729
	N274	N	0.822769	0.457846	0.080193
	N275	N	0.823030	0.528409	0.904049
	O276	O	0.584754	0.569709	0.534969
	H277	H	0.592467	0.571935	0.535722
	H278	H	0.595460	0.577344	0.528249
	O279	O	0.528669	0.523030	0.515046
	H280	H	0.523328	0.528101	0.509786
	H281	H	0.522489	0.515566	0.511440
	O282	O	0.662755	0.407039	0.475859
	H283	H	0.667958	0.398441	0.475489
	H284	H	0.648098	0.402951	0.468785
	O285	O	0.916891	0.065715	0.028971
	H286	H	0.910504	0.052760	0.017680
	H287	H	0.921308	0.057317	0.013544
	O288	O	0.056853	-0.201934	0.947797
	H289	H	0.059218	-0.186992	0.943293
	H290	H	0.062137	-0.191471	0.962574
	O291	O	0.475849	0.625315	0.307784
	H292	H	0.469675	0.651082	0.285768
	H293	H	0.459833	0.607799	0.313251
	O294	O	0.445966	0.578709	0.629740
	H295	H	0.443379	0.575088	0.625626
	H296	H	0.443717	0.582788	0.639699
	O297	O	1.193331	1.164583	1.075029
	H298	H	1.194502	1.180146	1.070925
	H299	H	1.177482	1.165643	1.041087
	O300	O	-0.547509	0.338114	0.533355
	H301	H	-0.548108	0.327410	0.541946
	H302	H	-0.543787	0.342682	0.541587
	O303	O	0.602601	0.546145	0.476978
	H304	H	0.595442	0.542316	0.469643
	H305	H	0.601933	0.545819	0.475366
	O306	O	0.989433	-0.117216	-0.190264
	H307	H	0.981643	-0.116018	-0.189385
	H308	H	0.996761	-0.124149	-0.205437
	O309	O	0.381638	0.577448	0.322218
	H310	H	0.368807	0.574284	0.331167
	H311	H	0.383497	0.576508	0.309303
	O312	O	0.683214	0.591888	-0.509105
	H313	H	0.683244	0.586000	-0.499089
	H314	H	0.675364	0.584389	-0.511817
	O315	O	0.479970	0.451701	0.648917
	H316	H	0.475713	0.463458	0.644340
	H317	H	0.474258	0.441357	0.636271
	O318	O	0.675766	0.418900	0.345544
	H319	H	0.694958	0.434774	0.339035
	H320	H	0.666904	0.412738	0.359530
	O321	O	0.866357	0.033839	1.128620
	H322	H	0.852903	0.044532	1.125460
	H323	H	0.875206	0.045052	1.134648
	O324	O	0.051536	0.031060	0.995453
	H325	H	0.055323	0.024294	1.000209
	H326	H	0.055735	0.029526	0.997330
	O327	O	0.349964	0.558850	0.439191
	H328	H	0.345791	0.552941	0.449517
	H329	H	0.344327	0.551390	0.437526
	O330	O	0.630206	0.606234	0.645833
	H331	H	0.645330	0.586975	0.644310
	H332	H	0.624887	0.606177	0.650157
	O333	O	1.113242	1.015317	1.162657
	H334	H	1.109793	1.026210	1.168533
	H335	H	1.119773	1.029330	1.168095
	O336	O	0.418145	0.433330	0.361029
	H337	H	0.419822	0.449477	0.364376
	H338	H	0.412292	0.434924	0.355741
	O339	O	1.018415	-0.002452	0.990886
	H340	H	1.020989	-0.002196	1.000309
	H341	H	1.009543	0.021539	0.987124
	O342	O	0.182108	1.120479	1.185623
	H343	H	0.177345	1.141223	1.176493
	H344	H	0.178717	1.128176	1.173142
	O345	O	-0.156265	0.951525	0.995934
	H346	H	-0.156243	0.935660	0.996962
	H347	H	-0.152228	0.947400	0.992103
	O348	O	1.095079	0.817627	0.874435
	H349	H	1.100271	0.831214	0.870181
	H350	H	1.094486	0.818103	0.885373
	O351	O	0.044822	-0.102047	0.074468
	H352	H	0.046406	-0.096952	0.072360
	H353	H	0.055321	-0.099160	0.059776
	O354	O	1.131816	0.976535	-0.197045
	H355	H	1.141306	0.966916	-0.185089
	H356	H	1.145897	0.987598	-0.207838
	O357	O	0.138040	0.888646	-0.077098
	H358	H	0.148736	0.885926	-0.087203
	H359	H	0.141515	0.891963	-0.066972
	O360	O	0.510644	0.411285	0.469503
	H361	H	0.511421	0.408050	0.470613
	H362	H	0.507827	0.411219	0.467224
	O363	O	0.517627	0.452515	0.346283
	H364	H	0.519531	0.437649	0.338028
	H365	H	0.522477	0.454256	0.348623
	O366	O	0.807722	0.862728	1.166320
	H367	H	0.799905	0.863096	1.170977
	H368	H	0.820100	0.842000	1.171614
	O369	O	0.315285	0.563652	0.560832
	H370	H	0.315193	0.548919	0.553929
	H371	H	0.323807	0.573377	0.568329
	O372	O	-0.088587	1.015860	-0.181068
	H373	H	-0.079598	0.990172	-0.170444
	H374	H	-0.088220	1.004617	-0.194880
	O375	O	0.422567	0.450325	0.561778
	H376	H	0.427706	0.433727	0.563733
	H377	H	0.412968	0.460158	0.561087
	O378	O	0.601520	0.484712	0.428767
	H379	H	0.599981	0.492008	0.422699
	H380	H	0.611478	0.495880	0.429034
	O381	O	0.467073	0.506507	0.645946
	H382	H	0.465065	0.509440	0.651668
	H383	H	0.484486	0.519185	0.643558
	O384	O	0.028933	1.106900	1.170250
	H385	H	0.032475	1.116449	1.164753
	H386	H	0.019542	1.109267	1.167181
	O387	O	0.898305	1.183830	-0.201579
	H388	H	0.883849	1.175151	-0.196019
	H389	H	0.894463	1.192035	-0.223723
	O390	O	-0.134254	0.162225	0.968410
	H391	H	-0.143411	0.149162	0.972955
	H392	H	-0.155676	0.184111	0.966946
	O393	O	1.309659	0.556435	1.472229
	H394	H	1.303643	0.552138	1.469384
	H395	H	1.303642	0.545217	1.473603
	O396	O	0.104928	0.907644	0.905538
	H397	H	0.105525	0.897884	0.903685
	H398	H	0.085803	0.899384	0.911431
	O399	O	0.492389	0.570823	0.589744
	H400	H	0.501311	0.583804	0.594791
	H401	H	0.497547	0.566291	0.594013
	O402	O	1.006766	0.008600	0.840953
	H403	H	0.999609	0.007479	0.846696
	H404	H	1.014673	-0.003267	0.827223
	O405	O	0.124384	0.195034	-0.036852
	H406	H	0.124500	0.208836	-0.051826
	H407	H	0.114369	0.191212	-0.051369
	O408	O	1.066985	0.821247	0.994847
	H409	H	1.048387	0.820138	0.987238
	H410	H	1.076243	0.834137	1.002524
	O411	O	0.852738	0.851180	0.197124
	H412	H	0.857902	0.843045	0.215791
	H413	H	0.862508	0.841969	0.195983
	O414	O	-0.032485	-0.152129	1.020563
	H415	H	-0.033728	-0.155260	1.043153
	H416	H	-0.034719	-0.152179	1.023137
	O417	O	0.688637	0.537216	0.402873
	H418	H	0.681643	0.540664	0.416349
	H419	H	0.694879	0.539387	0.400700
	O420	O	-0.012373	1.032597	0.106882
	H421	H	-0.024621	1.033866	0.125962
	H422	H	-0.006378	1.024661	0.102086
	O423	O	0.848217	0.103023	-0.176142
	H424	H	0.838822	0.104769	-0.151432
	H425	H	0.842499	0.070908	-0.168380
	O426	O	-0.545964	-0.594801	0.333055
	H427	H	-0.544762	-0.604654	0.326169
	H428	H	-0.532912	-0.588336	0.334444
	O429	O	0.494331	0.396964	0.601723
	H430	H	0.501251	0.404721	0.602259
	H431	H	0.483711	0.403890	0.599902
