data_Molecule from HDF5

_cell_length_a		16.173941
_cell_length_b		16.336946
_cell_length_c		16.245486
_cell_angle_alpha	89.997521
_cell_angle_beta	90.110701
_cell_angle_gamma	90.378798
_symmetry_space_group_name_H-M	'P 1'
_symmetry_Int_Tables_number		1

loop_
	_symmetry_equiv_pos_as_xyz
	x,y,z

loop_
	_atom_site_label
	_atom_site_type_symbol
	_atom_site_fract_x
	_atom_site_fract_y
	_atom_site_fract_z
	H0	H	0.410158	0.827654	0.713851
	H1	H	0.610419	0.153758	0.715122
	H2	H	0.607321	0.827486	0.284387
	H3	H	0.411223	0.153753	0.284275
	H4	H	0.720482	0.395999	0.834557
	H5	H	0.723699	0.589182	0.164533
	H6	H	0.295899	0.587928	0.835996
	H7	H	0.294680	0.391933	0.163804
	H8	H	0.844981	0.703930	0.400224
	H9	H	0.173117	0.707246	0.600723
	H10	H	0.845210	0.274586	0.599691
	H11	H	0.173423	0.277770	0.401350
	H12	H	0.844864	0.392232	0.713283
	H13	H	0.174162	0.590097	0.712864
	H14	H	0.845339	0.588251	0.284505
	H15	H	0.174489	0.393158	0.287077
	H16	H	0.410136	0.705936	0.836538
	H17	H	0.610555	0.707093	0.163304
	H18	H	0.609147	0.275323	0.836520
	H19	H	0.408512	0.274792	0.163490
	H20	H	0.722325	0.826481	0.401532
	H21	H	0.725515	0.153422	0.597937
	H22	H	0.295126	0.827226	0.596602
	H23	H	0.296645	0.154642	0.401657
	H24	H	0.909988	0.327365	0.213197
	H25	H	0.110251	0.653488	0.215545
	H26	H	0.107913	0.328901	0.783984
	H27	H	0.911429	0.654521	0.784686
	H28	H	0.221840	0.894201	0.334625
	H29	H	0.224184	0.089517	0.663828
	H30	H	0.796365	0.087779	0.335200
	H31	H	0.796188	0.892431	0.663912
	H32	H	0.344598	0.204703	0.898984
	H33	H	0.672830	0.207897	0.100416
	H34	H	0.345928	0.774204	0.100304
	H35	H	0.674024	0.778045	0.901109
	H36	H	0.344214	0.892308	0.212315
	H37	H	0.674045	0.090295	0.214207
	H38	H	0.344547	0.087473	0.785377
	H39	H	0.673773	0.893070	0.786319
	H40	H	0.909874	0.205666	0.335696
	H41	H	0.111473	0.208041	0.663079
	H42	H	0.110668	0.774495	0.336726
	H43	H	0.910328	0.775559	0.662747
	H44	H	0.221318	0.327227	0.902678
	H45	H	0.225067	0.653886	0.098694
	H46	H	0.793290	0.327895	0.097859
	H47	H	0.796958	0.655084	0.901754
	H48	H	0.420050	0.106023	0.590987
	H49	H	0.601170	0.874516	0.592499
	H50	H	0.596000	0.103308	0.409120
	H51	H	0.403539	0.871146	0.406309
	H52	H	0.595842	0.392564	0.115882
	H53	H	0.616502	0.579467	0.880748
	H54	H	0.415362	0.589557	0.120227
	H55	H	0.412635	0.390858	0.880054
	H56	H	0.127706	0.586978	0.405890
	H57	H	0.891165	0.576374	0.601058
	H58	H	0.127795	0.398653	0.595826
	H59	H	0.890009	0.393986	0.406105
	H60	H	0.127425	0.395654	0.590239
	H61	H	0.888343	0.594826	0.592526
	H62	H	0.125407	0.585244	0.410826
	H63	H	0.892831	0.397946	0.410454
	H64	H	0.413822	0.577813	0.116854
	H65	H	0.591126	0.576938	0.888012
	H66	H	0.608409	0.397447	0.118701
	H67	H	0.411757	0.401771	0.883223
	H68	H	0.609789	0.107331	0.412617
	H69	H	0.604464	0.874101	0.593445
	H70	H	0.413703	0.107931	0.592007
	H71	H	0.421970	0.873616	0.396006
	H72	H	0.927385	0.604980	0.097610
	H73	H	0.105878	0.371932	0.098331
	H74	H	0.104057	0.608288	0.903611
	H75	H	0.924825	0.378621	0.908354
	H76	H	0.107388	0.900051	0.617779
	H77	H	0.106008	0.083221	0.382579
	H78	H	0.931995	0.075237	0.609563
	H79	H	0.918196	0.892594	0.381592
	H80	H	0.629328	0.089671	0.902454
	H81	H	0.392645	0.078711	0.092358
	H82	H	0.631317	0.896782	0.104068
	H83	H	0.389160	0.889763	0.903121
	H84	H	0.627213	0.890458	0.083591
	H85	H	0.390249	0.085588	0.096003
	H86	H	0.624548	0.086860	0.916039
	H87	H	0.394244	0.896251	0.914994
	H88	H	0.919473	0.100620	0.621205
	H89	H	0.098358	0.083593	0.384746
	H90	H	0.097696	0.903298	0.614195
	H91	H	0.911579	0.897613	0.381418
	H92	H	0.099669	0.606295	0.907235
	H93	H	0.095462	0.375546	0.095069
	H94	H	0.915999	0.604715	0.083560
	H95	H	0.908412	0.375612	0.913704
	H96	H	0.418260	0.108810	0.597491
	H97	H	0.601150	0.874092	0.596026
	H98	H	0.604335	0.108735	0.398797
	H99	H	0.420642	0.878838	0.416312
	H100	H	0.598469	0.405173	0.114010
	H101	H	0.600015	0.599830	0.879727
	H102	H	0.425345	0.583151	0.114812
	H103	H	0.422488	0.396273	0.884747
	H104	H	0.126325	0.581366	0.407051
	H105	H	0.895707	0.580056	0.581661
	H106	H	0.125163	0.403151	0.590581
	H107	H	0.891739	0.399553	0.404644
	H108	H	0.910243	0.611438	0.099030
	H109	H	0.104268	0.375231	0.087316
	H110	H	0.105020	0.607446	0.909112
	H111	H	0.912653	0.371890	0.897105
	H112	H	0.098988	0.892795	0.616742
	H113	H	0.102512	0.089174	0.380649
	H114	H	0.902912	0.074771	0.618048
	H115	H	0.918914	0.900159	0.383809
	H116	H	0.624644	0.076823	0.906570
	H117	H	0.392167	0.084667	0.088285
	H118	H	0.621913	0.910414	0.089657
	H119	H	0.392707	0.904115	0.903029
	C120	C	0.388264	-0.000780	0.621261
	C121	C	0.631689	0.982080	0.622175
	C122	C	0.631456	-0.001354	0.377865
	C123	C	0.387291	0.982569	0.377556
	C124	C	0.630245	0.370031	0.007939
	C125	C	0.631894	0.613513	0.991267
	C126	C	0.388802	0.611843	0.008975
	C127	C	0.386900	0.368533	0.991349
	C128	C	0.018115	0.612127	0.378648
	C129	C	1.000578	0.612630	0.620812
	C130	C	0.017849	0.370083	0.620960
	C131	C	1.000359	0.369491	0.378570
	C132	C	0.887868	0.499206	0.121832
	C133	C	0.131470	0.482289	0.122165
	C134	C	0.131272	0.499925	0.877532
	C135	C	0.887242	0.482976	0.877203
	C136	C	0.130284	0.869632	0.507941
	C137	C	0.131311	0.113502	0.491142
	C138	C	0.888982	0.112147	0.507740
	C139	C	0.887447	0.868308	0.490693
	C140	C	0.517573	0.112406	0.878930
	C141	C	0.500336	0.112384	0.121464
	C142	C	0.518060	0.869727	0.121170
	C143	C	0.500741	0.868974	0.878505
	C144	C	0.389814	0.876335	0.676203
	C145	C	0.630560	0.104897	0.677293
	C146	C	0.628036	0.875903	0.322537
	C147	C	0.390601	0.105249	0.322567
	C148	C	0.683873	0.374240	0.883929
	C149	C	0.686797	0.610439	0.114947
	C150	C	0.333396	0.609196	0.885299
	C151	C	0.332241	0.371315	0.114849
	C152	C	0.894249	0.666562	0.380086
	C153	C	0.124202	0.668778	0.619787
	C154	C	0.894271	0.313076	0.619663
	C155	C	0.124552	0.315466	0.380907
	C156	C	0.894153	0.371739	0.675737
	C157	C	0.124711	0.610701	0.675804
	C158	C	0.894072	0.608712	0.323227
	C159	C	0.124838	0.372735	0.324134
	C160	C	0.389937	0.667607	0.885541
	C161	C	0.630517	0.668814	0.114591
	C162	C	0.627994	0.314703	0.884872
	C163	C	0.388794	0.313266	0.114564
	C164	C	0.685169	0.875502	0.380651
	C165	C	0.687704	0.104875	0.618959
	C166	C	0.332407	0.876433	0.618154
	C167	C	0.333505	0.105571	0.380802
	C168	C	0.889684	0.376207	0.175891
	C169	C	0.130160	0.604846	0.177429
	C170	C	0.128498	0.377302	0.822107
	C171	C	0.890944	0.605812	0.822367
	C172	C	0.185019	0.872686	0.384094
	C173	C	0.186683	0.110498	0.614791
	C174	C	0.833950	0.108705	0.384297
	C175	C	0.832900	0.871189	0.614370
	C176	C	0.393853	0.166773	0.879700
	C177	C	0.623943	0.169009	0.119979
	C178	C	0.394786	0.812840	0.119942
	C179	C	0.624676	0.815160	0.881023
	C180	C	0.393868	0.871585	0.175555
	C181	C	0.624789	0.110827	0.176618
	C182	C	0.393939	0.108863	0.822765
	C183	C	0.624653	0.872568	0.824050
	C184	C	0.890305	0.167474	0.384585
	C185	C	0.130842	0.169559	0.614185
	C186	C	0.129180	0.813464	0.385103
	C187	C	0.889828	0.813419	0.613954
	C188	C	0.184927	0.376544	0.881066
	C189	C	0.187345	0.604983	0.119362
	C190	C	0.831508	0.376515	0.118691
	C191	C	0.833847	0.606164	0.880751
	C192	C	0.410733	0.085234	0.599730
	C193	C	0.608940	0.896453	0.600296
	C194	C	0.609752	0.084458	0.400174
	C195	C	0.408996	0.896794	0.399788
	C196	C	0.607918	0.391961	0.094004
	C197	C	0.609077	0.591904	0.905254
	C198	C	0.411582	0.589938	0.094792
	C199	C	0.408997	0.389993	0.905073
	C200	C	0.104334	0.590910	0.401225
	C201	C	0.914102	0.590280	0.598322
	C202	C	0.104183	0.392451	0.598807
	C203	C	0.913983	0.390848	0.400600
	C204	C	0.910800	0.584940	0.099811
	C205	C	0.108530	0.396311	0.100048
	C206	C	0.109361	0.585113	0.899895
	C207	C	0.908949	0.397349	0.899573
	C208	C	0.107891	0.892131	0.594028
	C209	C	0.108968	0.091758	0.405145
	C210	C	0.911571	0.090081	0.593974
	C211	C	0.909708	0.890311	0.404336
	C212	C	0.603983	0.090884	0.901756
	C213	C	0.413992	0.089591	0.099040
	C214	C	0.604509	0.892607	0.098877
	C215	C	0.414211	0.890365	0.900534
	Zn216	Zn	0.509584	-0.009347	0.750798
	Zn217	Zn	0.509519	-0.009389	0.249083
	Zn218	Zn	0.759059	0.491369	-0.000268
	Zn219	Zn	0.259800	0.490524	-0.000097
	Zn220	Zn	0.009335	0.740698	0.499930
	Zn221	Zn	0.009570	0.241776	0.499781
	Zn222	Zn	0.009419	0.491632	0.748834
	Zn223	Zn	0.009880	0.490371	0.250691
	Zn224	Zn	0.509726	0.741381	0.000295
	Zn225	Zn	0.508407	0.240756	-0.000221
	Zn226	Zn	0.760056	-0.009866	0.499338
	Zn227	Zn	0.258993	-0.008943	0.499468
	N228	N	0.423803	0.953788	0.678354
	N229	N	0.596737	0.027476	0.679602
	N230	N	0.595187	0.953521	0.320809
	N231	N	0.423220	0.027678	0.320325
	N232	N	0.685345	0.407929	0.961533
	N233	N	0.687810	0.576893	0.037374
	N234	N	0.332541	0.575333	0.962755
	N235	N	0.331008	0.405127	0.037229
	N236	N	0.972277	0.668845	0.413990
	N237	N	0.046112	0.670170	0.586250
	N238	N	0.972308	0.311812	0.586321
	N239	N	0.046519	0.313328	0.414127
	N240	N	0.971855	0.406248	0.676782
	N241	N	0.046755	0.576438	0.676626
	N242	N	0.972029	0.575729	0.321920
	N243	N	0.046610	0.405692	0.322742
	N244	N	0.423821	0.669462	0.963459
	N245	N	0.596604	0.670726	0.036874
	N246	N	0.595547	0.311975	0.963069
	N247	N	0.422155	0.311543	0.036789
	N248	N	0.687181	0.952660	0.414438
	N249	N	0.688710	0.027499	0.585482
	N250	N	0.331233	0.953843	0.584888
	N251	N	0.331473	0.028238	0.414399
	N252	N	0.924008	0.453477	0.178052
	N253	N	0.096113	0.527444	0.179158
	N254	N	0.095953	0.454759	0.819722
	N255	N	0.923036	0.528009	0.820048
	N256	N	0.185635	0.907031	0.461369
	N257	N	0.187333	0.076441	0.537431
	N258	N	0.833097	0.074967	0.461848
	N259	N	0.831348	0.904789	0.536596
	N260	N	0.471787	0.169153	0.913656
	N261	N	0.545778	0.170041	0.086292
	N262	N	0.473070	0.811506	0.086908
	N263	N	0.546489	0.812630	0.914101
	N264	N	0.471494	0.906418	0.176262
	N265	N	0.547032	0.076199	0.177579
	N266	N	0.471961	0.075656	0.822232
	N267	N	0.546499	0.905223	0.822236
	N268	N	0.923855	0.169575	0.462605
	N269	N	0.097070	0.171592	0.536386
	N270	N	0.095932	0.811576	0.463152
	N271	N	0.923089	0.811803	0.536181
	N272	N	0.186926	0.453787	0.914772
	N273	N	0.188260	0.527533	0.085863
	N274	N	0.830242	0.454103	0.085837
	N275	N	0.831334	0.528852	0.914073
	O276	O	1.020750	1.001977	-0.036262
	H277	H	1.026403	0.996768	-0.030580
	H278	H	1.017505	0.993645	-0.035093
	O279	O	-0.014933	0.037326	-0.049156
	H280	H	-0.028252	0.039526	-0.046067
	H281	H	-0.025234	0.038891	-0.051167
	O282	O	-0.051410	0.034894	0.973175
	H283	H	-0.052589	0.041406	0.962138
	H284	H	-0.051661	0.035765	0.965951
	O285	O	-0.032440	1.022019	-0.048487
	H286	H	-0.037116	1.033037	-0.049105
	H287	H	-0.025097	1.021747	-0.047641
	O288	O	0.459949	0.472448	0.558144
	H289	H	0.464815	0.479921	0.560958
	H290	H	0.459527	0.470271	0.561317
	O291	O	0.497342	0.517311	0.549225
	H292	H	0.494326	0.506648	0.546070
	H293	H	0.500826	0.517073	0.554845
	O294	O	-0.477733	0.506704	0.525466
	H295	H	-0.476633	0.504225	0.523657
	H296	H	-0.477769	0.510691	0.528073
	O297	O	0.419856	0.475644	0.506282
	H298	H	0.414976	0.470376	0.513172
	H299	H	0.414431	0.476253	0.499314
	O300	O	-0.013535	1.040037	1.021108
	H301	H	-0.004285	1.033080	1.028995
	H302	H	-0.015990	1.041486	1.027100
	O303	O	0.466825	0.458273	0.561837
	H304	H	0.475501	0.452898	0.565119
	H305	H	0.472773	0.465498	0.559142
	O306	O	0.494657	-0.516679	1.505256
	H307	H	0.493991	-0.519940	1.507644
	H308	H	0.489715	-0.513368	1.500380
	O309	O	0.990339	0.999087	0.920515
	H310	H	0.992618	0.997347	0.919254
	H311	H	0.978964	1.000249	0.911568
	O312	O	0.025451	1.045990	-0.017637
	H313	H	0.025792	1.044100	-0.004522
	H314	H	0.028499	1.044241	-0.015599
	O315	O	0.475731	0.438557	0.492224
	H316	H	0.479820	0.443903	0.503109
	H317	H	0.476001	0.440026	0.489286
	O318	O	-0.040824	1.011739	0.013897
	H319	H	-0.040374	1.014603	0.005409
	H320	H	-0.029849	1.017695	0.004867
	O321	O	1.007754	0.973850	0.008787
	H322	H	1.008068	0.976582	0.013587
	H323	H	1.020326	0.976319	0.009300
