data_Molecule from HDF5

_cell_length_a		16.550776
_cell_length_b		16.586763
_cell_length_c		16.618295
_cell_angle_alpha	89.934070
_cell_angle_beta	90.054165
_cell_angle_gamma	89.946592
_symmetry_space_group_name_H-M	'P 1'
_symmetry_Int_Tables_number		1

loop_
	_symmetry_equiv_pos_as_xyz
	x,y,z

loop_
	_atom_site_label
	_atom_site_type_symbol
	_atom_site_fract_x
	_atom_site_fract_y
	_atom_site_fract_z
	H0	H	0.388242	0.842870	0.716357
	H1	H	0.596326	0.156234	0.716533
	H2	H	0.597989	0.844666	0.274561
	H3	H	0.386212	0.156173	0.273973
	H4	H	0.710460	0.398225	0.838685
	H5	H	0.709940	0.600869	0.153340
	H6	H	0.271902	0.602947	0.839966
	H7	H	0.274082	0.397136	0.153868
	H8	H	0.835776	0.721427	0.389995
	H9	H	0.147587	0.721847	0.600785
	H10	H	0.834078	0.283503	0.596602
	H11	H	0.149189	0.280493	0.392418
	H12	H	0.835222	0.398330	0.714588
	H13	H	0.147095	0.607498	0.719024
	H14	H	0.834496	0.602164	0.276552
	H15	H	0.148191	0.394886	0.274775
	H16	H	0.388739	0.719482	0.839371
	H17	H	0.594245	0.718834	0.153347
	H18	H	0.595031	0.280620	0.838681
	H19	H	0.386966	0.277614	0.151520
	H20	H	0.712469	0.843708	0.392073
	H21	H	0.710959	0.157899	0.598148
	H22	H	0.269828	0.844101	0.601577
	H23	H	0.271747	0.156704	0.392065
	H24	H	0.888569	0.343259	0.214878
	H25	H	0.096542	0.656471	0.217706
	H26	H	0.096770	0.343952	0.775438
	H27	H	0.887661	0.657188	0.774587
	H28	H	0.213272	0.896829	0.339010
	H29	H	0.212434	0.102585	0.653535
	H30	H	0.775541	0.101008	0.337793
	H31	H	0.772163	0.896134	0.651736
	H32	H	0.334485	0.221517	0.889502
	H33	H	0.648097	0.220370	0.098847
	H34	H	0.334153	0.781384	0.100342
	H35	H	0.650764	0.784235	0.897075
	H36	H	0.336282	0.894363	0.218972
	H37	H	0.647502	0.106716	0.217296
	H38	H	0.334070	0.104633	0.773792
	H39	H	0.650010	0.900068	0.779218
	H40	H	0.891180	0.218704	0.338792
	H41	H	0.095873	0.219102	0.654087
	H42	H	0.098244	0.778624	0.338834
	H43	H	0.888882	0.779844	0.651987
	H44	H	0.212813	0.344102	0.892859
	H45	H	0.211864	0.657655	0.100671
	H46	H	0.773342	0.342958	0.097300
	H47	H	0.771774	0.657370	0.892168
	H48	H	0.399079	0.113453	0.585309
	H49	H	0.585952	0.887090	0.584117
	H50	H	0.581318	0.112155	0.406249
	H51	H	0.403336	0.886698	0.402311
	H52	H	0.583894	0.409733	0.107824
	H53	H	0.581935	0.594411	0.882548
	H54	H	0.408641	0.588839	0.106477
	H55	H	0.399876	0.411173	0.883177
	H56	H	0.105006	0.590365	0.405875
	H57	H	0.880211	0.585468	0.587857
	H58	H	0.103785	0.411624	0.581942
	H59	H	0.877969	0.403561	0.409304
	H60	H	0.105592	0.413390	0.590124
	H61	H	0.878168	0.593606	0.585447
	H62	H	0.102902	0.588207	0.409379
	H63	H	0.882257	0.415543	0.408070
	H64	H	0.401052	0.598070	0.112086
	H65	H	0.584269	0.590793	0.883700
	H66	H	0.580622	0.410811	0.107225
	H67	H	0.402972	0.413942	0.885053
	H68	H	0.583484	0.113420	0.405712
	H69	H	0.582429	0.886602	0.590833
	H70	H	0.406155	0.111474	0.588172
	H71	H	0.408712	0.890893	0.408882
	H72	H	0.901401	0.613180	0.085374
	H73	H	0.078627	0.388141	0.088089
	H74	H	0.086173	0.614443	0.905570
	H75	H	0.899402	0.388017	0.908370
	H76	H	0.077192	0.906480	0.605873
	H77	H	0.081119	0.089990	0.385533
	H78	H	0.903864	0.095389	0.609964
	H79	H	0.905202	0.914612	0.386216
	H80	H	0.603658	0.091764	0.903937
	H81	H	0.379639	0.087208	0.085143
	H82	H	0.605044	0.912226	0.087645
	H83	H	0.378950	0.913241	0.904377
	H84	H	0.605379	0.907908	0.087434
	H85	H	0.379753	0.088891	0.081393
	H86	H	0.602055	0.090655	0.908075
	H87	H	0.376808	0.907347	0.902126
	H88	H	0.896291	0.091651	0.609648
	H89	H	0.081290	0.092809	0.384839
	H90	H	0.085179	0.910749	0.607863
	H91	H	0.905846	0.906836	0.382645
	H92	H	0.076500	0.612611	0.902793
	H93	H	0.082315	0.389558	0.082205
	H94	H	0.903074	0.612538	0.086368
	H95	H	0.901086	0.386448	0.901133
	H96	H	0.404790	0.108739	0.581141
	H97	H	0.579319	0.889560	0.585211
	H98	H	0.581729	0.113353	0.403828
	H99	H	0.399463	0.888169	0.410599
	H100	H	0.581139	0.407713	0.108356
	H101	H	0.579684	0.590768	0.884686
	H102	H	0.395718	0.586194	0.109316
	H103	H	0.403967	0.409881	0.884801
	H104	H	0.103186	0.585710	0.405672
	H105	H	0.881968	0.588291	0.580248
	H106	H	0.107299	0.405787	0.587139
	H107	H	0.876465	0.409520	0.398793
	H108	H	0.902855	0.612070	0.084491
	H109	H	0.085261	0.386778	0.087473
	H110	H	0.079416	0.610283	0.911981
	H111	H	0.906104	0.390187	0.905504
	H112	H	0.078576	0.914961	0.603607
	H113	H	0.083987	0.090977	0.383591
	H114	H	0.903154	0.086961	0.607150
	H115	H	0.898689	0.911133	0.382263
	H116	H	0.602090	0.087085	0.905599
	H117	H	0.381249	0.085273	0.082689
	H118	H	0.603576	0.910000	0.083608
	H119	H	0.378744	0.907707	0.908233
	C120	C	0.370945	0.007826	0.616886
	C121	C	0.613798	0.991752	0.617227
	C122	C	0.613516	0.009104	0.374229
	C123	C	0.371304	0.991730	0.374933
	C124	C	0.612925	0.378792	0.003829
	C125	C	0.613096	0.622147	0.987318
	C126	C	0.370478	0.622242	0.005320
	C127	C	0.370675	0.379195	0.987748
	C128	C	0.000141	0.620170	0.374784
	C129	C	0.983536	0.621115	0.616521
	C130	C	0.001338	0.379508	0.617182
	C131	C	0.982862	0.378107	0.373967
	C132	C	0.871228	0.508458	0.116378
	C133	C	0.113565	0.491888	0.117917
	C134	C	0.113305	0.508847	0.874907
	C135	C	0.870204	0.491817	0.873314
	C136	C	0.112981	0.878547	0.502997
	C137	C	0.113677	0.121740	0.488453
	C138	C	0.870575	0.122227	0.504885
	C139	C	0.871328	0.878697	0.486711
	C140	C	0.499366	0.121927	0.873395
	C141	C	0.483558	0.119980	0.115193
	C142	C	0.500802	0.878506	0.118058
	C143	C	0.483135	0.879262	0.874820
	C144	C	0.369253	0.889910	0.676593
	C145	C	0.614937	0.109787	0.676456
	C146	C	0.615780	0.891469	0.314722
	C147	C	0.368428	0.109418	0.314699
	C148	C	0.671316	0.378719	0.885664
	C149	C	0.670799	0.621092	0.106226
	C150	C	0.311585	0.622511	0.887026
	C151	C	0.312787	0.377792	0.106270
	C152	C	0.882402	0.680423	0.372377
	C153	C	0.100838	0.681796	0.619247
	C154	C	0.881793	0.322275	0.616551
	C155	C	0.101592	0.319603	0.373314
	C156	C	0.882186	0.379373	0.674935
	C157	C	0.100631	0.624840	0.677776
	C158	C	0.881624	0.621588	0.315797
	C159	C	0.101116	0.376587	0.314779
	C160	C	0.369588	0.680377	0.886698
	C161	C	0.613098	0.679253	0.106346
	C162	C	0.613949	0.320404	0.885768
	C163	C	0.368921	0.318510	0.105219
	C164	C	0.672756	0.890954	0.373321
	C165	C	0.671822	0.110434	0.617705
	C166	C	0.310887	0.890413	0.619311
	C167	C	0.311504	0.109769	0.373321
	C168	C	0.869612	0.390349	0.175254
	C169	C	0.115373	0.609649	0.177692
	C170	C	0.115395	0.390956	0.815591
	C171	C	0.868631	0.610004	0.814158
	C172	C	0.173319	0.877493	0.385634
	C173	C	0.172615	0.121903	0.606560
	C174	C	0.813900	0.121355	0.385445
	C175	C	0.812011	0.877234	0.604841
	C176	C	0.381351	0.181545	0.871224
	C177	C	0.601199	0.180193	0.117177
	C178	C	0.382108	0.819806	0.119586
	C179	C	0.602945	0.822657	0.876542
	C180	C	0.382997	0.876217	0.178474
	C181	C	0.600770	0.123820	0.176234
	C182	C	0.381141	0.123187	0.813914
	C183	C	0.602720	0.879875	0.817910
	C184	C	0.871248	0.179587	0.385905
	C185	C	0.114717	0.179858	0.606789
	C186	C	0.116194	0.818740	0.385755
	C187	C	0.869841	0.819313	0.604637
	C188	C	0.172835	0.390841	0.873971
	C189	C	0.172425	0.610222	0.119195
	C190	C	0.812404	0.390097	0.116939
	C191	C	0.811297	0.610292	0.872712
	C192	C	0.396127	0.089957	0.592001
	C193	C	0.589674	0.909354	0.593540
	C194	C	0.589122	0.091546	0.398416
	C195	C	0.396789	0.909968	0.400002
	C196	C	0.588860	0.402535	0.086433
	C197	C	0.588956	0.598647	0.905126
	C198	C	0.394769	0.597990	0.087824
	C199	C	0.395171	0.404393	0.905690
	C200	C	0.082363	0.595310	0.399753
	C201	C	0.901484	0.596146	0.591295
	C202	C	0.084181	0.403361	0.593342
	C203	C	0.900241	0.402510	0.398356
	C204	C	0.895449	0.591130	0.092251
	C205	C	0.089008	0.409534	0.093087
	C206	C	0.087984	0.591070	0.899793
	C207	C	0.894907	0.409587	0.897977
	C208	C	0.087504	0.903511	0.584581
	C209	C	0.089189	0.098081	0.406014
	C210	C	0.894298	0.098234	0.587371
	C211	C	0.896038	0.903770	0.405082
	C212	C	0.581457	0.096892	0.898692
	C213	C	0.401632	0.094444	0.090068
	C214	C	0.583160	0.903170	0.093269
	C215	C	0.399893	0.902860	0.897854
	Zn216	Zn	0.491519	0.000224	0.745679
	Zn217	Zn	0.491832	0.000458	0.245488
	Zn218	Zn	0.742159	0.500387	-0.004319
	Zn219	Zn	0.242077	0.500201	-0.002911
	Zn220	Zn	-0.007785	0.749424	0.494631
	Zn221	Zn	-0.007497	0.250744	0.496411
	Zn222	Zn	-0.007633	0.500765	0.745698
	Zn223	Zn	-0.008159	0.500010	0.245673
	Zn224	Zn	0.491910	0.751013	-0.003342
	Zn225	Zn	0.490964	0.250234	-0.004988
	Zn226	Zn	0.742093	0.000680	0.495577
	Zn227	Zn	0.242012	-0.000233	0.495864
	N228	N	0.406009	0.964027	0.675241
	N229	N	0.579410	0.034980	0.676376
	N230	N	0.579728	0.965980	0.315092
	N231	N	0.404802	0.035002	0.315434
	N232	N	0.670933	0.414199	0.960198
	N233	N	0.671073	0.586178	0.031268
	N234	N	0.311950	0.587170	0.961833
	N235	N	0.313746	0.414824	0.032306
	N236	N	0.957187	0.679749	0.408067
	N237	N	0.027115	0.679503	0.581549
	N238	N	0.956852	0.322080	0.581578
	N239	N	0.027081	0.320405	0.409464
	N240	N	0.957495	0.414130	0.675588
	N241	N	0.026702	0.587894	0.676226
	N242	N	0.955974	0.584765	0.317172
	N243	N	0.026247	0.412406	0.315256
	N244	N	0.405339	0.680424	0.961305
	N245	N	0.578201	0.680302	0.031538
	N246	N	0.578296	0.320299	0.960343
	N247	N	0.404195	0.319203	0.030386
	N248	N	0.671642	0.965176	0.409614
	N249	N	0.671448	0.035996	0.581889
	N250	N	0.311884	0.964780	0.583051
	N251	N	0.312898	0.035576	0.410085
	N252	N	0.905392	0.464996	0.175007
	N253	N	0.079513	0.534979	0.177081
	N254	N	0.079260	0.465484	0.815877
	N255	N	0.904260	0.535172	0.814195
	N256	N	0.171535	0.913957	0.459647
	N257	N	0.172277	0.086820	0.531804
	N258	N	0.813079	0.086678	0.460506
	N259	N	0.812426	0.913509	0.530516
	N260	N	0.455876	0.180896	0.907345
	N261	N	0.527167	0.178178	0.079936
	N262	N	0.456479	0.820978	0.082832
	N263	N	0.527301	0.821617	0.910526
	N264	N	0.458042	0.911471	0.178163
	N265	N	0.526554	0.087141	0.175190
	N266	N	0.455786	0.087074	0.814802
	N267	N	0.527234	0.914213	0.816624
	N268	N	0.905490	0.180583	0.461221
	N269	N	0.079007	0.180284	0.532043
	N270	N	0.079622	0.819237	0.459727
	N271	N	0.905841	0.820049	0.530246
	N272	N	0.171734	0.465377	0.909979
	N273	N	0.171671	0.535704	0.083019
	N274	N	0.813406	0.464559	0.080743
	N275	N	0.811961	0.535722	0.908533
	O276	O	0.203092	0.790142	-0.213838
	H277	H	0.222891	0.765359	-0.219065
	H278	H	0.173417	0.792008	-0.203347
	O279	O	0.672807	0.684109	0.307551
	H280	H	0.660812	0.664608	0.314972
	H281	H	0.659019	0.675896	0.335180
	O282	O	1.157697	0.213415	1.001237
	H283	H	1.160195	0.191637	0.990779
	H284	H	1.178636	0.227904	1.003124
	O285	O	0.791641	0.205187	0.790034
	H286	H	0.784306	0.187771	0.821585
	H287	H	0.784564	0.229775	0.773374
	O288	O	0.458929	0.287121	0.709077
	H289	H	0.459413	0.264231	0.731181
	H290	H	0.437607	0.299875	0.701886
	O291	O	0.303565	0.685265	0.685852
	H292	H	0.303062	0.685725	0.677546
	H293	H	0.320291	0.664324	0.674273
	O294	O	0.807686	-0.203654	1.135324
	H295	H	0.792095	-0.216328	1.146638
	H296	H	0.816057	-0.183793	1.149690
	O297	O	0.549009	0.445467	0.657856
	H298	H	0.569053	0.438855	0.662767
	H299	H	0.544576	0.427027	0.660489
	O300	O	-0.040557	0.223222	0.778781
	H301	H	-0.045728	0.244601	0.770341
	H302	H	-0.062628	0.221808	0.773491
	O303	O	0.417542	0.709635	0.555539
	H304	H	0.378313	0.720586	0.538431
	H305	H	0.416048	0.688344	0.560878
	O306	O	0.654352	0.433722	0.530084
	H307	H	0.649334	0.439425	0.540363
	H308	H	0.658048	0.437871	0.513162
	O309	O	0.694573	0.470062	0.285762
	H310	H	0.699337	0.477425	0.282467
	H311	H	0.695728	0.464628	0.292124
	O312	O	0.353830	0.541994	0.499627
	H313	H	0.344839	0.536554	0.483798
	H314	H	0.352020	0.519191	0.521257
	O315	O	0.703091	0.701780	0.696120
	H316	H	0.716135	0.731925	0.725204
	H317	H	0.659199	0.698171	0.704423
	O318	O	0.315357	0.323795	0.315051
	H319	H	0.328583	0.342501	0.328083
	H320	H	0.328833	0.319464	0.317972
	O321	O	0.159675	1.160562	0.821383
	H322	H	0.133223	1.152009	0.824882
	H323	H	0.153536	1.159626	0.826132
	O324	O	1.003652	0.793738	0.138411
	H325	H	1.011757	0.795485	0.129920
	H326	H	1.005293	0.793942	0.150421
	O327	O	-0.159298	0.213305	0.990461
	H328	H	-0.162673	0.200605	0.989811
	H329	H	-0.151287	0.226998	0.991804
	O330	O	0.615361	0.639458	0.476970
	H331	H	0.630415	0.647813	0.496567
	H332	H	0.603631	0.637468	0.481819
	O333	O	0.548383	0.361510	0.494005
	H334	H	0.552854	0.355918	0.489814
	H335	H	0.544322	0.362154	0.495895
	O336	O	0.801999	0.193216	0.189086
	H337	H	0.829484	0.177118	0.181476
	H338	H	0.815129	0.173490	0.162837
	O339	O	1.288458	0.301462	0.696694
	H340	H	1.268180	0.301480	0.707356
	H341	H	1.303563	0.308373	0.675667
	O342	O	-0.060775	-0.220435	-0.061162
	H343	H	-0.082105	-0.212655	-0.049875
	H344	H	-0.067585	-0.221748	-0.040719
	O345	O	0.201312	1.040614	1.209419
	H346	H	0.213054	1.066698	1.219108
	H347	H	0.212017	1.048233	1.213191
	O348	O	0.472773	0.462138	0.545128
	H349	H	0.468644	0.459021	0.543084
	H350	H	0.478542	0.456555	0.547718
	O351	O	0.274484	0.435871	0.437899
	H352	H	0.270553	0.425296	0.457767
	H353	H	0.287552	0.440679	0.434733
	O354	O	-0.084419	-0.063486	0.775028
	H355	H	-0.097182	-0.053884	0.787186
	H356	H	-0.066363	-0.059723	0.767038
	O357	O	0.649880	0.534450	0.449683
	H358	H	0.643528	0.542691	0.451625
	H359	H	0.660568	0.543578	0.444330
	O360	O	0.490806	0.536940	0.654538
	H361	H	0.489455	0.518211	0.655515
	H362	H	0.488858	0.542246	0.645270
	O363	O	-0.040483	-0.083366	0.203553
	H364	H	-0.031559	-0.091416	0.214093
	H365	H	-0.045102	-0.084314	0.200425
	O366	O	0.552780	0.661630	0.390397
	H367	H	0.549814	0.667776	0.404202
	H368	H	0.553506	0.666157	0.414327
	O369	O	0.775394	0.037821	-0.218633
	H370	H	0.757413	0.037248	-0.241186
	H371	H	0.777441	0.051096	-0.215598
	O372	O	0.774909	0.974508	-0.029505
	H373	H	0.778441	0.984049	-0.035776
	H374	H	0.775093	0.986830	-0.030415
	O375	O	0.858366	0.036137	0.131168
	H376	H	0.872750	0.021590	0.136283
	H377	H	0.861099	0.020874	0.125466
	O378	O	0.456971	0.518494	0.346263
	H379	H	0.474981	0.508302	0.340820
	H380	H	0.461841	0.515675	0.347802
	O381	O	-0.252427	0.791064	0.781388
	H382	H	-0.249538	0.798722	0.798855
	H383	H	-0.238330	0.815728	0.795036
	O384	O	1.172129	0.004264	0.935239
	H385	H	1.169607	-0.003404	0.927182
	H386	H	1.177673	-0.015051	0.921444
	O387	O	1.039661	1.023143	-0.136864
	H388	H	1.047966	1.024974	-0.141113
	H389	H	1.041399	1.018220	-0.145617
	O390	O	0.533817	0.289071	0.393496
	H391	H	0.554986	0.287412	0.387045
	H392	H	0.556030	0.280809	0.406559
	O393	O	0.272256	0.279567	0.533801
	H394	H	0.284786	0.272449	0.524186
	H395	H	0.256488	0.261358	0.542890
	O396	O	0.211281	0.782424	0.958489
	H397	H	0.204860	0.794818	0.964483
	H398	H	0.238308	0.756441	0.956045
	O399	O	0.157819	-0.096135	0.979512
	H400	H	0.164172	-0.105331	0.969049
	H401	H	0.159352	-0.089225	1.002311
	O402	O	0.788356	0.787514	0.139088
	H403	H	0.764584	0.753959	0.154674
	H404	H	0.816569	0.788679	0.160602
	O405	O	1.030347	-0.148458	0.781096
	H406	H	1.016801	-0.148742	0.791702
	H407	H	1.025927	-0.165019	0.777034
	O408	O	0.116834	-0.105007	0.017102
	H409	H	0.123013	-0.112439	0.014382
	H410	H	0.118891	-0.092902	0.009208
	O411	O	0.710984	0.717946	0.527103
	H412	H	0.735826	0.738911	0.545885
	H413	H	0.710111	0.713744	0.560986
	O414	O	0.289523	0.509058	0.617722
	H415	H	0.289702	0.506871	0.613087
	H416	H	0.292122	0.514544	0.620911
	O417	O	0.686392	0.308749	0.690639
	H418	H	0.684828	0.318879	0.679792
	H419	H	0.683398	0.325318	0.678824
	O420	O	-0.027290	1.000831	1.072610
	H421	H	-0.010064	1.009829	1.071233
	H422	H	-0.020140	0.984411	1.076958
	O423	O	-0.021608	0.205508	0.981944
	H424	H	-0.020229	0.199309	0.965756
	H425	H	-0.035133	0.210125	0.982503
	O426	O	0.266975	0.501368	0.653059
	H427	H	0.253075	0.496233	0.665427
	H428	H	0.263425	0.500435	0.645827
	O429	O	0.928493	1.116701	0.887887
	H430	H	0.930907	1.123776	0.887174
	H431	H	0.924675	1.106279	0.893960
	O432	O	0.425799	0.272103	0.450586
	H433	H	0.416164	0.274222	0.437950
	H434	H	0.449854	0.263821	0.456302
	O435	O	0.015789	1.047084	0.064954
	H436	H	0.027610	1.044955	0.050056
	H437	H	0.006808	1.042907	0.068854
	O438	O	0.199802	0.206215	0.199435
	H439	H	0.218975	0.219283	0.200320
	H440	H	0.170571	0.215785	0.182280
	O441	O	0.134941	-0.146263	0.183805
	H442	H	0.150420	-0.143339	0.192935
	H443	H	0.140156	-0.152614	0.165954
	O444	O	0.710230	0.528205	0.709108
	H445	H	0.723540	0.550307	0.724293
	H446	H	0.720160	0.540576	0.705642
	O447	O	0.000394	1.101834	1.160910
	H448	H	-0.008724	1.105711	1.167796
	H449	H	0.004410	1.093282	1.157310
	O450	O	0.461551	0.717666	1.280088
	H451	H	0.470073	0.738246	1.272774
	H452	H	0.480601	0.731451	1.296300
	O453	O	0.708871	0.282403	0.457809
	H454	H	0.734107	0.260866	0.462974
	H455	H	0.702918	0.298359	0.442139
	O456	O	-0.226728	-0.026298	1.172378
	H457	H	-0.216487	-0.024416	1.173851
	H458	H	-0.246012	-0.029924	1.183101
	O459	O	1.073402	0.927138	0.023123
	H460	H	1.073200	0.939785	0.018929
	H461	H	1.071043	0.919672	0.019367
	O462	O	0.272805	0.722035	0.467257
	H463	H	0.255970	0.738601	0.449503
	H464	H	0.266709	0.720001	0.435743
	O465	O	0.798568	-0.020550	-0.004353
	H466	H	0.799610	-0.000329	0.005177
	H467	H	0.795975	-0.040294	0.013288
	O468	O	0.516927	0.414174	0.275966
	H469	H	0.520571	0.397586	0.267379
	H470	H	0.533799	0.420147	0.271719
	O471	O	0.294062	0.698206	0.293523
	H472	H	0.309518	0.668993	0.290367
	H473	H	0.322021	0.683377	0.295726
	O474	O	0.340671	0.506020	0.284230
	H475	H	0.340337	0.482009	0.276581
	H476	H	0.333669	0.494479	0.283328
	O477	O	0.515306	0.697166	1.711373
	H478	H	0.497682	0.696516	1.722731
	H479	H	0.503242	0.690662	1.714078
	O480	O	0.693958	0.294015	0.289153
	H481	H	0.707565	0.302046	0.305908
	H482	H	0.723016	0.281049	0.263773
	O483	O	0.533271	0.512832	0.527726
	H484	H	0.536040	0.511690	0.530632
	H485	H	0.529444	0.510081	0.519389
	O486	O	1.076877	0.209871	1.153656
	H487	H	1.092545	0.207115	1.157439
	H488	H	1.088515	0.213393	1.159348
	O489	O	1.194278	0.961687	-0.202400
	H490	H	1.195174	0.935821	-0.210052
	H491	H	1.204682	0.941223	-0.211838
