data_Molecule from HDF5

_cell_length_a		16.562982
_cell_length_b		16.538581
_cell_length_c		16.522532
_cell_angle_alpha	90.104676
_cell_angle_beta	89.912300
_cell_angle_gamma	89.964203
_symmetry_space_group_name_H-M	'P 1'
_symmetry_Int_Tables_number		1

loop_
	_symmetry_equiv_pos_as_xyz
	x,y,z

loop_
	_atom_site_label
	_atom_site_type_symbol
	_atom_site_fract_x
	_atom_site_fract_y
	_atom_site_fract_z
	H0	H	0.381555	0.841013	0.727949
	H1	H	0.592855	0.153177	0.725653
	H2	H	0.596681	0.839654	0.278416
	H3	H	0.384786	0.153827	0.287085
	H4	H	0.706470	0.393321	0.846489
	H5	H	0.710692	0.604538	0.160632
	H6	H	0.264550	0.602799	0.849380
	H7	H	0.266166	0.392781	0.161074
	H8	H	0.828402	0.717371	0.399004
	H9	H	0.141556	0.717398	0.609723
	H10	H	0.829586	0.273144	0.611274
	H11	H	0.143875	0.277987	0.403984
	H12	H	0.830678	0.387944	0.729141
	H13	H	0.141431	0.599845	0.725681
	H14	H	0.828233	0.599100	0.284641
	H15	H	0.143797	0.394578	0.286446
	H16	H	0.380676	0.718619	0.848787
	H17	H	0.595386	0.721002	0.160531
	H18	H	0.590238	0.276840	0.846739
	H19	H	0.384863	0.278975	0.162963
	H20	H	0.710766	0.838494	0.396450
	H21	H	0.707928	0.152282	0.607987
	H22	H	0.265130	0.840151	0.610543
	H23	H	0.266917	0.152516	0.401952
	H24	H	0.883739	0.338708	0.223643
	H25	H	0.094130	0.652670	0.228197
	H26	H	0.095080	0.340494	0.779678
	H27	H	0.876257	0.650450	0.777722
	H28	H	0.212512	0.885949	0.349969
	H29	H	0.209020	0.102490	0.660824
	H30	H	0.765102	0.100330	0.348551
	H31	H	0.761701	0.887284	0.659710
	H32	H	0.329065	0.216234	0.902265
	H33	H	0.643989	0.218180	0.109797
	H34	H	0.331455	0.772743	0.112756
	H35	H	0.642455	0.772627	0.897029
	H36	H	0.330623	0.889975	0.226816
	H37	H	0.644251	0.100246	0.224815
	H38	H	0.330365	0.101107	0.784620
	H39	H	0.643135	0.889052	0.781107
	H40	H	0.882442	0.215442	0.347889
	H41	H	0.092642	0.218216	0.661486
	H42	H	0.095850	0.770649	0.348875
	H43	H	0.879370	0.772409	0.660538
	H44	H	0.212531	0.341842	0.894177
	H45	H	0.211939	0.651471	0.113149
	H46	H	0.766866	0.339229	0.108073
	H47	H	0.760180	0.650653	0.893283
	H48	H	0.401304	0.105584	0.589010
	H49	H	0.578412	0.882075	0.591772
	H50	H	0.576607	0.107823	0.413660
	H51	H	0.398623	0.881909	0.413730
	H52	H	0.581438	0.406202	0.119225
	H53	H	0.573300	0.587284	0.892785
	H54	H	0.397107	0.585154	0.117839
	H55	H	0.398951	0.406307	0.891904
	H56	H	0.098506	0.587348	0.414550
	H57	H	0.875663	0.585090	0.585471
	H58	H	0.094833	0.410459	0.588733
	H59	H	0.871213	0.403584	0.409861
	H60	H	0.098992	0.408007	0.598069
	H61	H	0.875920	0.576800	0.591602
	H62	H	0.096626	0.584719	0.420144
	H63	H	0.871606	0.401275	0.415628
	H64	H	0.400242	0.578889	0.114546
	H65	H	0.577480	0.582282	0.892393
	H66	H	0.576881	0.410033	0.116127
	H67	H	0.397966	0.404838	0.890204
	H68	H	0.573297	0.105423	0.416223
	H69	H	0.572027	0.884025	0.596843
	H70	H	0.391057	0.110424	0.592785
	H71	H	0.401646	0.884093	0.415925
	H72	H	0.893506	0.610350	0.091270
	H73	H	0.078851	0.383835	0.093909
	H74	H	0.073093	0.605577	0.921543
	H75	H	0.892908	0.384195	0.918286
	H76	H	0.072960	0.912241	0.613120
	H77	H	0.082619	0.083945	0.390667
	H78	H	0.898404	0.088594	0.618204
	H79	H	0.906155	0.911401	0.397090
	H80	H	0.598881	0.083444	0.914484
	H81	H	0.373643	0.090754	0.095864
	H82	H	0.596070	0.914305	0.091236
	H83	H	0.372607	0.907640	0.909368
	H84	H	0.599104	0.906959	0.094563
	H85	H	0.375613	0.086059	0.093934
	H86	H	0.600609	0.088689	0.912564
	H87	H	0.376227	0.902268	0.922668
	H88	H	0.892184	0.084086	0.619152
	H89	H	0.072986	0.080057	0.395657
	H90	H	0.070118	0.902854	0.616953
	H91	H	0.900139	0.899731	0.390628
	H92	H	0.077942	0.608729	0.915899
	H93	H	0.075333	0.383145	0.096325
	H94	H	0.898125	0.610505	0.099151
	H95	H	0.902122	0.385047	0.912120
	H96	H	0.400420	0.111051	0.600231
	H97	H	0.571544	0.886378	0.588700
	H98	H	0.577328	0.106871	0.417745
	H99	H	0.397219	0.883600	0.417290
	H100	H	0.575257	0.403282	0.118061
	H101	H	0.571547	0.581413	0.895058
	H102	H	0.404792	0.585448	0.115888
	H103	H	0.397088	0.406969	0.890793
	H104	H	0.097177	0.581026	0.414118
	H105	H	0.871592	0.585662	0.595526
	H106	H	0.099081	0.401067	0.590466
	H107	H	0.873287	0.407486	0.414722
	H108	H	0.901933	0.607201	0.091809
	H109	H	0.075323	0.386124	0.092581
	H110	H	0.070341	0.606628	0.913879
	H111	H	0.901907	0.388491	0.922420
	H112	H	0.080241	0.906038	0.617689
	H113	H	0.073375	0.090650	0.391494
	H114	H	0.898807	0.081261	0.615810
	H115	H	0.892313	0.912148	0.391922
	H116	H	0.598983	0.088136	0.918157
	H117	H	0.373948	0.086156	0.099770
	H118	H	0.597036	0.906904	0.086277
	H119	H	0.379744	0.915887	0.919227
	C120	C	0.365299	0.005418	0.626625
	C121	C	0.607479	0.987490	0.625068
	C122	C	0.609235	0.003334	0.382188
	C123	C	0.366597	0.987038	0.384105
	C124	C	0.608800	0.374882	0.013277
	C125	C	0.608226	0.617764	0.996241
	C126	C	0.366825	0.616839	0.013466
	C127	C	0.365520	0.374799	0.995232
	C128	C	-0.005937	0.617155	0.383289
	C129	C	0.977455	0.615565	0.624446
	C130	C	-0.005415	0.373698	0.625799
	C131	C	0.977040	0.374156	0.383169
	C132	C	0.865501	0.505292	0.125796
	C133	C	0.108751	0.487940	0.126466
	C134	C	0.107648	0.504313	0.882875
	C135	C	0.864749	0.487763	0.882788
	C136	C	0.108227	0.873888	0.513090
	C137	C	0.107490	0.116323	0.496861
	C138	C	0.864991	0.116451	0.513675
	C139	C	0.865595	0.874332	0.496222
	C140	C	0.495493	0.117832	0.884056
	C141	C	0.478229	0.119018	0.127263
	C142	C	0.495118	0.875351	0.125228
	C143	C	0.478857	0.874998	0.883201
	C144	C	0.363311	0.887400	0.687144
	C145	C	0.610602	0.105915	0.685238
	C146	C	0.613543	0.886252	0.319774
	C147	C	0.365672	0.106156	0.326221
	C148	C	0.666945	0.374364	0.893862
	C149	C	0.670057	0.621971	0.113724
	C150	C	0.305351	0.620551	0.896136
	C151	C	0.305819	0.373730	0.113945
	C152	C	0.875917	0.677453	0.380664
	C153	C	0.094801	0.676745	0.628095
	C154	C	0.876736	0.313154	0.629230
	C155	C	0.096534	0.317124	0.384012
	C156	C	0.877233	0.370156	0.687865
	C157	C	0.094877	0.618379	0.685432
	C158	C	0.875593	0.618519	0.323844
	C159	C	0.096408	0.374828	0.325698
	C160	C	0.363151	0.678048	0.895843
	C161	C	0.612590	0.679995	0.113601
	C162	C	0.609471	0.316277	0.894138
	C163	C	0.365211	0.317600	0.115142
	C164	C	0.670767	0.885851	0.378164
	C165	C	0.668087	0.105494	0.626967
	C166	C	0.305609	0.887091	0.629043
	C167	C	0.307097	0.105590	0.383195
	C168	C	0.864379	0.386378	0.184251
	C169	C	0.111929	0.605581	0.187635
	C170	C	0.112151	0.387333	0.820896
	C171	C	0.859484	0.603866	0.819081
	C172	C	0.171222	0.868893	0.396541
	C173	C	0.168188	0.119673	0.614372
	C174	C	0.805147	0.118616	0.395443
	C175	C	0.803195	0.870014	0.613265
	C176	C	0.376703	0.176768	0.883272
	C177	C	0.596708	0.178004	0.128291
	C178	C	0.378181	0.813625	0.129830
	C179	C	0.595828	0.813343	0.879281
	C180	C	0.377797	0.871977	0.186757
	C181	C	0.596975	0.119291	0.185436
	C182	C	0.377203	0.119678	0.824694
	C183	C	0.595937	0.871180	0.821276
	C184	C	0.863691	0.175619	0.395235
	C185	C	0.110260	0.177308	0.614632
	C186	C	0.113023	0.811478	0.395956
	C187	C	0.861511	0.812787	0.613696
	C188	C	0.170881	0.388155	0.877688
	C189	C	0.170471	0.605178	0.130302
	C190	C	0.806332	0.386675	0.126761
	C191	C	0.801834	0.604287	0.876816
	C192	C	0.390374	0.087662	0.601305
	C193	C	0.581484	0.905488	0.599622
	C194	C	0.583259	0.085278	0.408334
	C195	C	0.391761	0.904547	0.408577
	C196	C	0.584791	0.399350	0.096237
	C197	C	0.581664	0.591379	0.914712
	C198	C	0.393202	0.590590	0.094983
	C199	C	0.390609	0.398962	0.912785
	C200	C	0.075926	0.591742	0.408798
	C201	C	0.895856	0.589872	0.598339
	C202	C	0.076274	0.399366	0.599840
	C203	C	0.893670	0.397411	0.406622
	C204	C	0.890580	0.587700	0.101058
	C205	C	0.083750	0.405959	0.101374
	C206	C	0.081094	0.585715	0.909519
	C207	C	0.891292	0.406930	0.910119
	C208	C	0.081834	0.899945	0.594735
	C209	C	0.083189	0.091686	0.414049
	C210	C	0.889370	0.091655	0.596194
	C211	C	0.892138	0.900386	0.414490
	C212	C	0.577890	0.093480	0.908255
	C213	C	0.395645	0.094650	0.103228
	C214	C	0.576357	0.901744	0.098446
	C215	C	0.397296	0.901093	0.909703
	Zn216	Zn	0.487096	-0.003085	0.754584
	Zn217	Zn	0.487369	-0.004442	0.254678
	Zn218	Zn	0.736463	0.496875	0.004210
	Zn219	Zn	0.236947	0.496551	0.004092
	Zn220	Zn	-0.014152	0.745631	0.504524
	Zn221	Zn	-0.013397	0.245069	0.505015
	Zn222	Zn	-0.013905	0.495051	0.754328
	Zn223	Zn	-0.013542	0.496384	0.254451
	Zn224	Zn	0.487039	0.745997	0.004945
	Zn225	Zn	0.487315	0.246812	0.005051
	Zn226	Zn	0.736701	-0.005520	0.504375
	Zn227	Zn	0.236971	-0.004636	0.504776
	N228	N	0.399438	0.962084	0.685930
	N229	N	0.573859	0.031586	0.684349
	N230	N	0.576168	0.960389	0.321922
	N231	N	0.401767	0.031401	0.326383
	N232	N	0.667039	0.409792	0.969265
	N233	N	0.667564	0.584013	0.039707
	N234	N	0.307430	0.583176	0.970275
	N235	N	0.305540	0.408101	0.038365
	N236	N	0.950713	0.676987	0.416655
	N237	N	0.020797	0.675136	0.591032
	N238	N	0.950731	0.315187	0.591409
	N239	N	0.021150	0.316212	0.418586
	N240	N	0.951461	0.406849	0.686082
	N241	N	0.020862	0.581326	0.683533
	N242	N	0.950032	0.581919	0.325251
	N243	N	0.020942	0.409237	0.324772
	N244	N	0.400639	0.675941	0.969892
	N245	N	0.575140	0.677611	0.039381
	N246	N	0.574364	0.316362	0.969450
	N247	N	0.401190	0.317530	0.040189
	N248	N	0.668128	0.959759	0.416350
	N249	N	0.666307	0.030781	0.590378
	N250	N	0.306846	0.961328	0.592146
	N251	N	0.307308	0.030233	0.418090
	N252	N	0.900392	0.461254	0.183913
	N253	N	0.074215	0.531772	0.185539
	N254	N	0.073572	0.460614	0.824003
	N255	N	0.897936	0.530414	0.822654
	N256	N	0.168395	0.906850	0.470451
	N257	N	0.166466	0.082190	0.540220
	N258	N	0.805915	0.082359	0.470157
	N259	N	0.805690	0.907394	0.539184
	N260	N	0.451375	0.176075	0.919348
	N261	N	0.521721	0.178072	0.092965
	N262	N	0.452110	0.815572	0.092226
	N263	N	0.521992	0.815528	0.917018
	N264	N	0.451633	0.909642	0.184186
	N265	N	0.522289	0.083536	0.185193
	N266	N	0.452044	0.083911	0.824814
	N267	N	0.521989	0.908845	0.823497
	N268	N	0.900056	0.174626	0.469852
	N269	N	0.072961	0.175148	0.540655
	N270	N	0.074279	0.814213	0.469483
	N271	N	0.899607	0.815469	0.539853
	N272	N	0.168064	0.461980	0.915939
	N273	N	0.168680	0.531040	0.092869
	N274	N	0.806647	0.461787	0.091331
	N275	N	0.804975	0.531248	0.915968
	O276	O	0.980761	1.019726	0.100007
	H277	H	0.976653	1.014093	0.116995
	H278	H	0.985582	1.022752	0.101526
	O279	O	0.203102	0.025714	1.226637
	H280	H	0.229831	0.022677	1.249571
	H281	H	0.189868	0.041462	1.215269
	O282	O	0.825943	1.187530	1.162546
	H283	H	0.838261	1.171289	1.145647
	H284	H	0.823516	1.172829	1.150457
	O285	O	0.703699	0.461023	0.289592
	H286	H	0.706612	0.468839	0.274552
	H287	H	0.698242	0.477086	0.278083
	O288	O	1.314056	-0.297557	1.488684
	H289	H	1.300934	-0.290412	1.495706
	H290	H	1.310391	-0.300459	1.502115
	O291	O	0.370206	0.499732	0.491641
	H292	H	0.378591	0.503215	0.482966
	H293	H	0.362945	0.502825	0.490813
	O294	O	-0.043902	-0.200934	-0.047433
	H295	H	-0.038047	-0.194348	-0.046827
	H296	H	-0.033295	-0.208944	-0.053192
	O297	O	1.298254	0.299354	-0.298253
	H298	H	1.309021	0.294748	-0.304368
	H299	H	1.318598	0.280577	-0.283654
	O300	O	-0.234559	0.217197	-0.027753
	H301	H	-0.247322	0.226618	-0.037870
	H302	H	-0.243706	0.232878	-0.049443
	O303	O	-0.205928	-0.015905	0.217771
	H304	H	-0.198625	-0.015301	0.209882
	H305	H	-0.229500	-0.016642	0.220925
	O306	O	1.180849	0.143795	-0.146336
	H307	H	1.166521	0.127811	-0.145393
	H308	H	1.176970	0.146396	-0.126203
	O309	O	0.694812	0.706093	0.534551
	H310	H	0.698201	0.696903	0.513579
	H311	H	0.708656	0.713892	0.524192
	O312	O	0.651136	0.416836	0.538487
	H313	H	0.648337	0.413529	0.518315
	H314	H	0.662430	0.403615	0.546626
	O315	O	1.025963	1.216811	0.225514
	H316	H	1.048329	1.223384	0.227343
	H317	H	1.033989	1.233191	0.248304
	O318	O	0.944215	0.988471	-0.127129
	H319	H	0.945976	0.993875	-0.132457
	H320	H	0.948065	0.997369	-0.123078
	O321	O	0.203674	1.207362	1.048994
	H322	H	0.199609	1.224437	1.051042
	H323	H	0.213227	1.221599	1.061797
	O324	O	0.762575	0.034403	1.040782
	H325	H	0.756733	0.043214	1.013310
	H326	H	0.765647	0.025140	1.015218
	O327	O	1.463760	0.651945	0.700569
	H328	H	1.463084	0.665878	0.721753
	H329	H	1.455378	0.646675	0.685482
	O330	O	0.298227	0.308861	0.318160
	H331	H	0.318976	0.316290	0.347928
	H332	H	0.312453	0.336258	0.329940
	O333	O	0.276406	0.519077	0.294565
	H334	H	0.263872	0.531113	0.280789
	H335	H	0.273507	0.511661	0.303870
	O336	O	-0.099837	0.917779	-0.110350
	H337	H	-0.092565	0.908703	-0.104566
	H338	H	-0.107375	0.920747	-0.111256
	O339	O	0.438965	0.396908	0.327840
	H340	H	0.436222	0.404112	0.331243
	H341	H	0.454936	0.378591	0.319359
	O342	O	-0.040378	1.133056	0.035758
	H343	H	-0.020638	1.132320	0.055690
	H344	H	-0.054660	1.132338	0.032704
	O345	O	0.082967	0.215477	-0.063078
	H346	H	0.065962	0.205569	-0.035747
	H347	H	0.091109	0.216927	-0.064858
	O348	O	0.520466	0.474131	0.638109
	H349	H	0.537507	0.489838	0.640044
	H350	H	0.521076	0.485208	0.627293
	O351	O	-0.006909	-0.071103	1.075741
	H352	H	-0.011804	-0.078574	1.075828
	H353	H	-0.021134	-0.081276	1.077309
	O354	O	0.718373	0.266083	1.278205
	H355	H	0.741559	0.251755	1.265022
	H356	H	0.730726	0.290991	1.270108
	O357	O	0.468757	0.709042	0.289030
	H358	H	0.470424	0.730800	0.292501
	H359	H	0.455129	0.726162	0.295510
	O360	O	0.505833	0.268101	0.523484
	H361	H	0.512366	0.280161	0.528469
	H362	H	0.503272	0.267173	0.541015
	O363	O	0.832150	0.922741	0.910835
	H364	H	0.834917	0.914995	0.912700
	H365	H	0.834016	0.906727	0.912717
	O366	O	0.882710	-0.104768	0.804890
	H367	H	0.886035	-0.107182	0.804120
	H368	H	0.894142	-0.089693	0.797402
	O369	O	-0.045023	0.211701	0.794989
	H370	H	-0.028259	0.203100	0.805219
	H371	H	-0.037664	0.229221	0.782548
	O372	O	0.635819	0.450364	0.537738
	H373	H	0.647734	0.436735	0.537931
	H374	H	0.637988	0.454183	0.540890
	O375	O	1.197561	0.208648	0.216477
	H376	H	1.217689	0.234771	0.245847
	H377	H	1.207759	0.195135	0.205410
	O378	O	-0.230410	0.029591	0.791793
	H379	H	-0.234437	0.023577	0.788187
	H380	H	-0.244489	0.026494	0.786720
	O381	O	0.196353	0.776986	-0.206826
	H382	H	0.191322	0.782751	-0.184942
	H383	H	0.191369	0.789520	-0.206285
	O384	O	0.574025	0.286638	0.297701
	H385	H	0.584723	0.277002	0.287654
	H386	H	0.602783	0.268090	0.278852
	O387	O	0.477603	0.644732	1.569553
	H388	H	0.467685	0.646807	1.580874
	H389	H	0.471386	0.634532	1.569706
	O390	O	0.201830	0.972676	0.791684
	H391	H	0.206787	0.982125	0.797191
	H392	H	0.214142	0.960807	0.782219
	O393	O	0.973686	-0.218905	-0.176386
	H394	H	0.978239	-0.212943	-0.182145
	H395	H	0.990625	-0.232073	-0.183165
	O396	O	0.351776	0.516337	0.715554
	H397	H	0.338117	0.510744	0.718495
	H398	H	0.353181	0.494897	0.708673
	O399	O	0.769464	0.787868	0.052899
	H400	H	0.760281	0.767334	0.046317
	H401	H	0.779792	0.778573	0.036578
	O402	O	1.302352	-0.317292	1.316243
	H403	H	1.298248	-0.317070	1.327168
	H404	H	1.311353	-0.326164	1.318795
	O405	O	0.127637	-0.183008	0.097629
	H406	H	0.129817	-0.166546	0.090967
	H407	H	0.114869	-0.183249	0.096100
	O408	O	1.092275	0.886057	1.110104
	H409	H	1.105056	0.892735	1.094193
	H410	H	1.098289	0.875357	1.125211
	O411	O	1.325866	1.447221	0.406861
	H412	H	1.341130	1.435771	0.417998
	H413	H	1.322008	1.449174	0.423786
	O414	O	0.200582	-0.145869	-0.034496
	H415	H	0.188854	-0.151085	-0.020640
	H416	H	0.203742	-0.139064	-0.018123
	O417	O	0.403988	0.350806	0.397775
	H418	H	0.416704	0.353204	0.401838
	H419	H	0.410659	0.354947	0.386239
	O420	O	0.983607	0.006496	1.191116
	H421	H	0.988226	-0.002464	1.199049
	H422	H	0.982774	0.021413	1.194994
	O423	O	0.620183	1.437983	-0.434537
	H424	H	0.609005	1.432563	-0.418304
	H425	H	0.610163	1.444161	-0.445602
	O426	O	-0.209998	1.193067	-0.189665
	H427	H	-0.165727	1.203079	-0.202517
	H428	H	-0.213961	1.157481	-0.181615
	O429	O	0.702500	0.324769	0.496968
	H430	H	0.700864	0.313142	0.488346
	H431	H	0.703294	0.312769	0.467417
	O432	O	1.161207	0.014028	1.046421
	H433	H	1.161216	0.013243	1.060618
	H434	H	1.156313	0.030157	1.041975
	O435	O	0.422488	0.595822	0.466805
	H436	H	0.413707	0.595859	0.483244
	H437	H	0.440010	0.598365	0.468510
	O438	O	0.302031	0.682389	0.686822
	H439	H	0.281455	0.695614	0.703625
	H440	H	0.318386	0.652234	0.689914
	O441	O	0.969754	0.771739	0.204925
	H442	H	0.949975	0.772124	0.213329
	H443	H	0.960005	0.763385	0.226584
	O444	O	0.462505	0.294784	0.713745
	H445	H	0.470692	0.283404	0.727582
	H446	H	0.487709	0.312901	0.712934
	O447	O	0.334068	0.552249	0.646456
	H448	H	0.344845	0.535495	0.650858
	H449	H	0.321021	0.556193	0.670895
	O450	O	0.828163	-0.189588	0.193543
	H451	H	0.829106	-0.163062	0.208004
	H452	H	0.816644	-0.192890	0.148454
	O453	O	0.566068	0.584316	0.344131
	H454	H	0.557137	0.597736	0.345110
	H455	H	0.529592	0.577730	0.341916
	O456	O	0.079543	0.980864	1.001737
	H457	H	0.083128	0.973768	0.998823
	H458	H	0.081150	0.980468	1.002379
	O459	O	0.651758	0.581251	0.437359
	H460	H	0.650224	0.586525	0.433816
	H461	H	0.648281	0.565055	0.433508
	O462	O	0.427927	0.443562	0.612294
	H463	H	0.433454	0.443360	0.611357
	H464	H	0.420141	0.442624	0.595487
	O465	O	0.380660	0.450324	0.513563
	H466	H	0.369514	0.436122	0.529687
	H467	H	0.381820	0.441463	0.531954
	O468	O	-0.007651	0.936626	0.079051
	H469	H	-0.013809	0.944576	0.082110
	H470	H	-0.014969	0.944288	0.079229
	O471	O	0.696176	0.512133	0.707615
	H472	H	0.710009	0.536290	0.716370
	H473	H	0.713016	0.508596	0.695885
	O474	O	1.032260	1.056208	-0.203616
	H475	H	1.030146	1.060847	-0.200711
	H476	H	1.041465	1.048439	-0.195166
	O477	O	0.672653	0.681187	0.697823
	H478	H	0.651186	0.678175	0.699154
	H479	H	0.676051	0.682581	0.660305
