data_Molecule from HDF5

_cell_length_a		16.464512
_cell_length_b		16.387358
_cell_length_c		16.329415
_cell_angle_alpha	89.619930
_cell_angle_beta	89.923878
_cell_angle_gamma	90.151878
_symmetry_space_group_name_H-M	'P 1'
_symmetry_Int_Tables_number		1

loop_
	_symmetry_equiv_pos_as_xyz
	x,y,z

loop_
	_atom_site_label
	_atom_site_type_symbol
	_atom_site_fract_x
	_atom_site_fract_y
	_atom_site_fract_z
	H0	H	0.396044	0.821065	0.724900
	H1	H	0.601741	0.141950	0.723055
	H2	H	0.601055	0.821071	0.287774
	H3	H	0.397388	0.140873	0.283284
	H4	H	0.721027	0.374921	0.846518
	H5	H	0.721051	0.586866	0.164306
	H6	H	0.279591	0.587631	0.844547
	H7	H	0.277627	0.375697	0.164580
	H8	H	0.839051	0.705487	0.398878
	H9	H	0.156008	0.703862	0.610566
	H10	H	0.838638	0.260418	0.610417
	H11	H	0.157232	0.265222	0.401940
	H12	H	0.838093	0.378227	0.725729
	H13	H	0.156807	0.585376	0.723388
	H14	H	0.838719	0.589081	0.282266
	H15	H	0.157080	0.382305	0.286318
	H16	H	0.395277	0.702629	0.844919
	H17	H	0.604162	0.701403	0.164738
	H18	H	0.601867	0.264362	0.844445
	H19	H	0.396630	0.262048	0.165792
	H20	H	0.721664	0.824784	0.398126
	H21	H	0.718619	0.141841	0.608279
	H22	H	0.276501	0.823402	0.612696
	H23	H	0.281038	0.142219	0.399457
	H24	H	0.892221	0.323347	0.228338
	H25	H	0.101828	0.642736	0.223289
	H26	H	0.098691	0.322360	0.787622
	H27	H	0.894135	0.641809	0.784722
	H28	H	0.216792	0.882581	0.343805
	H29	H	0.215729	0.085022	0.665211
	H30	H	0.776798	0.090491	0.344551
	H31	H	0.775700	0.876272	0.662401
	H32	H	0.340813	0.201394	0.902019
	H33	H	0.658033	0.202986	0.111707
	H34	H	0.339620	0.760061	0.109714
	H35	H	0.658201	0.762860	0.901655
	H36	H	0.338494	0.878305	0.224278
	H37	H	0.659299	0.082213	0.223008
	H38	H	0.340472	0.084783	0.785906
	H39	H	0.658073	0.878565	0.785526
	H40	H	0.894737	0.203067	0.343788
	H41	H	0.096877	0.197376	0.666276
	H42	H	0.101507	0.765044	0.344401
	H43	H	0.893201	0.763261	0.664513
	H44	H	0.217048	0.322684	0.901429
	H45	H	0.220142	0.641161	0.108812
	H46	H	0.776806	0.322415	0.113693
	H47	H	0.775998	0.639060	0.897988
	H48	H	0.410213	0.094213	0.592838
	H49	H	0.587915	0.868665	0.594151
	H50	H	0.587380	0.093981	0.420655
	H51	H	0.403613	0.866260	0.414256
	H52	H	0.584789	0.387974	0.119949
	H53	H	0.588828	0.561216	0.894419
	H54	H	0.409000	0.569680	0.118862
	H55	H	0.411666	0.386209	0.890143
	H56	H	0.108991	0.574256	0.418810
	H57	H	0.885511	0.569784	0.592767
	H58	H	0.110950	0.392801	0.598080
	H59	H	0.883613	0.387554	0.419824
	H60	H	0.111949	0.388653	0.596232
	H61	H	0.882733	0.572997	0.597157
	H62	H	0.109390	0.568724	0.412770
	H63	H	0.887015	0.398112	0.419336
	H64	H	0.408209	0.567786	0.118477
	H65	H	0.579901	0.574648	0.893143
	H66	H	0.592357	0.392001	0.120826
	H67	H	0.400834	0.390788	0.888161
	H68	H	0.594109	0.098192	0.411833
	H69	H	0.586209	0.869503	0.593977
	H70	H	0.402732	0.097497	0.595056
	H71	H	0.411111	0.868011	0.414428
	H72	H	0.909009	0.593843	0.089743
	H73	H	0.082964	0.370864	0.094178
	H74	H	0.085832	0.593801	0.920508
	H75	H	0.910063	0.369797	0.920939
	H76	H	0.084070	0.890083	0.618409
	H77	H	0.095512	0.072498	0.388042
	H78	H	0.908231	0.070038	0.617238
	H79	H	0.911157	0.888392	0.388231
	H80	H	0.615435	0.072480	0.909702
	H81	H	0.383499	0.074097	0.100293
	H82	H	0.612862	0.885737	0.094361
	H83	H	0.385854	0.891641	0.917878
	H84	H	0.610191	0.893127	0.091908
	H85	H	0.388155	0.074792	0.086742
	H86	H	0.614229	0.077293	0.916476
	H87	H	0.385902	0.892745	0.915345
	H88	H	0.909149	0.070372	0.617843
	H89	H	0.085942	0.071525	0.391980
	H90	H	0.091749	0.892097	0.620832
	H91	H	0.903397	0.900808	0.389572
	H92	H	0.100176	0.599040	0.913820
	H93	H	0.091780	0.369079	0.091401
	H94	H	0.907675	0.595718	0.092224
	H95	H	0.905514	0.365896	0.915514
	H96	H	0.409221	0.097819	0.600122
	H97	H	0.587391	0.869201	0.591848
	H98	H	0.582925	0.095469	0.410298
	H99	H	0.406477	0.869920	0.420617
	H100	H	0.585899	0.396572	0.116592
	H101	H	0.595355	0.574597	0.888053
	H102	H	0.410417	0.567908	0.118389
	H103	H	0.409070	0.397535	0.892854
	H104	H	0.111690	0.576468	0.411819
	H105	H	0.884047	0.575156	0.591781
	H106	H	0.109967	0.391634	0.593341
	H107	H	0.882718	0.392684	0.410158
	H108	H	0.910799	0.594656	0.092490
	H109	H	0.088673	0.367069	0.099626
	H110	H	0.086334	0.599158	0.904363
	H111	H	0.912567	0.368476	0.913987
	H112	H	0.086694	0.897536	0.617716
	H113	H	0.089095	0.080350	0.387773
	H114	H	0.908378	0.070470	0.618604
	H115	H	0.917206	0.900146	0.394323
	H116	H	0.611880	0.069453	0.916648
	H117	H	0.388949	0.062652	0.093681
	H118	H	0.613485	0.892030	0.099477
	H119	H	0.385130	0.889935	0.916067
	C120	C	0.376448	-0.009435	0.627789
	C121	C	0.619225	0.974160	0.625152
	C122	C	0.620102	-0.009461	0.383094
	C123	C	0.377021	0.973385	0.383707
	C124	C	0.620026	0.360404	0.013735
	C125	C	0.620162	0.602024	0.997004
	C126	C	0.377905	0.601711	0.013012
	C127	C	0.376353	0.359406	0.996434
	C128	C	0.005426	0.605640	0.381954
	C129	C	0.989091	0.603925	0.625768
	C130	C	0.005548	0.359894	0.627288
	C131	C	0.989299	0.361969	0.384036
	C132	C	0.876793	0.490069	0.126012
	C133	C	0.119331	0.474415	0.126018
	C134	C	0.120518	0.491265	0.882646
	C135	C	0.877272	0.473139	0.883942
	C136	C	0.119256	0.862340	0.513329
	C137	C	0.119894	0.104702	0.495767
	C138	C	0.876708	0.103602	0.512430
	C139	C	0.877477	0.862934	0.495600
	C140	C	0.508387	0.103645	0.883272
	C141	C	0.491794	0.102076	0.125601
	C142	C	0.507136	0.858341	0.127345
	C143	C	0.490468	0.860404	0.884774
	C144	C	0.376145	0.869674	0.686350
	C145	C	0.620625	0.093855	0.684042
	C146	C	0.620719	0.869664	0.325743
	C147	C	0.377784	0.093454	0.323424
	C148	C	0.680597	0.357488	0.894089
	C149	C	0.680758	0.604647	0.116559
	C150	C	0.318796	0.605094	0.892563
	C151	C	0.317233	0.356934	0.116629
	C152	C	0.886550	0.665578	0.380205
	C153	C	0.108394	0.663577	0.628090
	C154	C	0.886317	0.299810	0.629166
	C155	C	0.109276	0.304469	0.383290
	C156	C	0.885979	0.358635	0.686327
	C157	C	0.108821	0.604551	0.684443
	C158	C	0.886130	0.607444	0.322348
	C159	C	0.109253	0.362407	0.325397
	C160	C	0.376402	0.662658	0.892949
	C161	C	0.622223	0.661611	0.116875
	C162	C	0.621485	0.302103	0.893176
	C163	C	0.376477	0.300443	0.117096
	C164	C	0.680684	0.871531	0.380830
	C165	C	0.678925	0.093881	0.626747
	C166	C	0.316900	0.870757	0.630051
	C167	C	0.319747	0.093980	0.381269
	C168	C	0.874320	0.370927	0.187983
	C169	C	0.120627	0.594675	0.184164
	C170	C	0.119273	0.370602	0.825628
	C171	C	0.875064	0.593393	0.823978
	C172	C	0.177887	0.862609	0.392307
	C173	C	0.177004	0.104420	0.616905
	C174	C	0.816757	0.107601	0.392475
	C175	C	0.816152	0.858773	0.615056
	C176	C	0.388598	0.162173	0.882447
	C177	C	0.610815	0.162324	0.128697
	C178	C	0.387379	0.799111	0.129012
	C179	C	0.610380	0.801749	0.882852
	C180	C	0.386837	0.858159	0.185827
	C181	C	0.611584	0.102372	0.184307
	C182	C	0.388123	0.103811	0.825206
	C183	C	0.610353	0.859658	0.825255
	C184	C	0.875674	0.163662	0.391876
	C185	C	0.117723	0.160172	0.617556
	C186	C	0.120547	0.804109	0.392482
	C187	C	0.874503	0.802309	0.615815
	C188	C	0.177832	0.370793	0.882565
	C189	C	0.179469	0.593890	0.127231
	C190	C	0.816731	0.370279	0.130657
	C191	C	0.816539	0.592083	0.880691
	C192	C	0.400531	0.074699	0.603200
	C193	C	0.594296	0.890763	0.600437
	C194	C	0.595322	0.073997	0.407146
	C195	C	0.400396	0.889579	0.409087
	C196	C	0.594908	0.385057	0.097259
	C197	C	0.595360	0.577291	0.913756
	C198	C	0.402232	0.575835	0.096874
	C199	C	0.400318	0.384311	0.912238
	C200	C	0.088412	0.580438	0.407131
	C201	C	0.905807	0.579513	0.600995
	C202	C	0.089085	0.384184	0.602884
	C203	C	0.905818	0.386027	0.409007
	C204	C	0.901953	0.573119	0.099203
	C205	C	0.094582	0.390851	0.102091
	C206	C	0.097594	0.575395	0.906048
	C207	C	0.902191	0.389870	0.909574
	C208	C	0.094605	0.886308	0.597109
	C209	C	0.096939	0.081494	0.411173
	C210	C	0.901278	0.077830	0.596142
	C211	C	0.903100	0.888865	0.412318
	C212	C	0.591819	0.079784	0.907262
	C213	C	0.408695	0.077662	0.100747
	C214	C	0.590453	0.883089	0.102472
	C215	C	0.407384	0.884515	0.909470
	Zn216	Zn	0.499075	-0.018680	0.755368
	Zn217	Zn	0.499063	-0.018943	0.255021
	Zn218	Zn	0.748764	0.480129	0.005334
	Zn219	Zn	0.249027	0.481793	0.004776
	Zn220	Zn	-0.002702	0.733652	0.504793
	Zn221	Zn	-0.002891	0.231911	0.504528
	Zn222	Zn	-0.002680	0.482645	0.755036
	Zn223	Zn	-0.002697	0.482980	0.254435
	Zn224	Zn	0.498878	0.730552	0.005007
	Zn225	Zn	0.499931	0.232052	0.005213
	Zn226	Zn	0.748181	-0.017256	0.503736
	Zn227	Zn	0.248405	-0.016626	0.505653
	N228	N	0.412479	0.945243	0.684993
	N229	N	0.584221	0.018401	0.683033
	N230	N	0.583609	0.944669	0.327064
	N231	N	0.412484	0.017311	0.324626
	N232	N	0.680106	0.392941	0.970291
	N233	N	0.679756	0.568198	0.040943
	N234	N	0.319543	0.567893	0.968363
	N235	N	0.316918	0.392530	0.040361
	N236	N	0.961818	0.664469	0.416613
	N237	N	0.032948	0.663474	0.592215
	N238	N	0.961727	0.300464	0.593140
	N239	N	0.033534	0.303854	0.418572
	N240	N	0.961110	0.395172	0.685413
	N241	N	0.033446	0.568257	0.683184
	N242	N	0.961168	0.571092	0.323251
	N243	N	0.033496	0.397457	0.325845
	N244	N	0.412202	0.660910	0.968836
	N245	N	0.585412	0.660221	0.041606
	N246	N	0.584598	0.303906	0.968555
	N247	N	0.412411	0.301784	0.041159
	N248	N	0.680496	0.947645	0.415378
	N249	N	0.678348	0.018251	0.590787
	N250	N	0.316865	0.947018	0.594277
	N251	N	0.319448	0.018429	0.418266
	N252	N	0.910836	0.446430	0.185238
	N253	N	0.083858	0.519396	0.183453
	N254	N	0.084330	0.446676	0.825422
	N255	N	0.912395	0.518493	0.826226
	N256	N	0.177517	0.897664	0.468667
	N257	N	0.178688	0.070841	0.540031
	N258	N	0.817407	0.070756	0.468364
	N259	N	0.817731	0.895573	0.539301
	N260	N	0.464225	0.162366	0.917747
	N261	N	0.535209	0.162366	0.092923
	N262	N	0.463350	0.798839	0.093942
	N263	N	0.534939	0.802008	0.918959
	N264	N	0.462430	0.893920	0.185184
	N265	N	0.536659	0.065497	0.182393
	N266	N	0.463754	0.068512	0.825385
	N267	N	0.534754	0.895277	0.826047
	N268	N	0.912286	0.161256	0.467447
	N269	N	0.083314	0.160796	0.540970
	N270	N	0.085199	0.803472	0.468720
	N271	N	0.911986	0.804724	0.540480
	N272	N	0.178935	0.446959	0.917191
	N273	N	0.178802	0.518119	0.091815
	N274	N	0.818112	0.445411	0.092680
	N275	N	0.817611	0.516220	0.917070
	O276	O	0.203256	0.902065	-0.195184
	H277	H	0.227651	0.900091	-0.214739
	H278	H	0.200417	0.891110	-0.178449
	O279	O	0.473562	0.592655	0.444962
	H280	H	0.470844	0.587834	0.422579
	H281	H	0.467017	0.606077	0.444632
	O282	O	0.653753	0.385875	0.407263
	H283	H	0.646775	0.361866	0.414909
	H284	H	0.653933	0.380214	0.401390
	O285	O	1.092880	0.856041	0.187516
	H286	H	1.079876	0.856280	0.177456
	H287	H	1.077030	0.852659	0.176900
	O288	O	0.286389	0.313356	0.577095
	H289	H	0.283837	0.315773	0.611058
	H290	H	0.268644	0.310167	0.587516
	O291	O	0.624028	0.563480	0.661265
	H292	H	0.621992	0.544371	0.661131
	H293	H	0.641422	0.562733	0.667900
	O294	O	1.090256	0.811511	1.077552
	H295	H	1.098452	0.806676	1.088179
	H296	H	1.073491	0.804652	1.066680
	O297	O	0.337128	0.506161	0.356513
	H298	H	0.339432	0.495816	0.356846
	H299	H	0.332484	0.514140	0.363736
	O300	O	0.406028	0.398749	0.406144
	H301	H	0.411909	0.403647	0.416277
	H302	H	0.388905	0.407842	0.419068
	O303	O	0.364359	0.647635	0.308237
	H304	H	0.358992	0.638845	0.302348
	H305	H	0.404481	0.651050	0.296705
	O306	O	0.108908	0.079406	0.859181
	H307	H	0.093854	0.056322	0.864722
	H308	H	0.111934	0.072683	0.872057
	O309	O	0.837488	-0.047777	-0.189240
	H310	H	0.837278	-0.034289	-0.199619
	H311	H	0.837276	-0.035577	-0.187633
	O312	O	0.133030	0.844508	1.015334
	H313	H	0.142755	0.840703	1.004615
	H314	H	0.140294	0.858102	0.999554
	O315	O	1.125453	1.186844	-0.003706
	H316	H	1.137717	1.188808	0.012735
	H317	H	1.142736	1.187055	0.013022
	O318	O	0.060662	0.134641	0.198711
	H319	H	0.060059	0.146535	0.203526
	H320	H	0.064256	0.141030	0.196013
	O321	O	0.595240	0.468917	0.359941
	H322	H	0.600661	0.454206	0.363590
	H323	H	0.596908	0.465066	0.389163
	O324	O	1.008009	0.064448	1.023333
	H325	H	1.008596	0.063264	1.020097
	H326	H	1.005551	0.058037	1.020284
	O327	O	0.117815	1.005187	0.166536
	H328	H	0.105633	0.992581	0.157184
	H329	H	0.127639	0.989658	0.167535
	O330	O	0.075395	0.782792	0.812605
	H331	H	0.071386	0.768859	0.812460
	H332	H	0.059434	0.783230	0.810687
	O333	O	-0.120980	1.162765	-0.177553
	H334	H	-0.131049	1.173167	-0.165078
	H335	H	-0.101122	1.165866	-0.180290
	O336	O	0.824562	1.013667	-0.095606
	H337	H	0.827709	1.012711	-0.097983
	H338	H	0.818254	1.002397	-0.110613
	O339	O	-0.105156	0.953703	0.891400
	H340	H	-0.113246	0.952241	0.894023
	H341	H	-0.109235	0.969253	0.898842
	O342	O	0.365293	0.322511	0.365975
	H343	H	0.362671	0.329105	0.382266
	H344	H	0.362832	0.336400	0.381713
	O345	O	0.038490	0.062043	1.043200
	H346	H	0.045010	0.064432	1.035144
	H347	H	0.041625	0.055745	1.057553
	O348	O	0.632728	0.519816	0.460216
	H349	H	0.643318	0.507345	0.464300
	H350	H	0.641398	0.531051	0.459217
	O351	O	1.076492	1.180308	0.165321
	H352	H	1.082393	1.188177	0.172264
	H353	H	1.077792	1.161025	0.156806
	O354	O	0.858519	0.779818	1.022260
	H355	H	0.838177	0.763720	1.028600
	H356	H	0.862442	0.783611	1.028671
	O357	O	-0.340459	0.674648	-0.371209
	H358	H	-0.351323	0.688281	-0.361312
	H359	H	-0.339274	0.656360	-0.374229
	O360	O	0.471812	0.357841	0.676370
	H361	H	0.454407	0.349794	0.679115
	H362	H	0.454084	0.361653	0.684973
	O363	O	0.358349	-0.676388	0.706789
	H364	H	0.344529	-0.687111	0.706723
	H365	H	0.344263	-0.632265	0.715017
	O366	O	-0.102254	0.019883	1.085202
	H367	H	-0.107448	0.024036	1.085152
	H368	H	-0.100054	0.033217	1.074217
	O369	O	1.657464	0.362153	0.506714
	H370	H	1.645292	0.351463	0.514125
	H371	H	1.642767	0.364003	0.520576
	O372	O	0.283846	0.689298	0.442874
	H373	H	0.253123	0.709105	0.437118
	H374	H	0.301923	0.681826	0.399095
	O375	O	-0.070667	0.112136	0.808973
	H376	H	-0.072914	0.112379	0.795042
	H377	H	-0.058379	0.109878	0.822740
	O378	O	0.498051	0.685238	0.523935
	H379	H	0.468969	0.681649	0.516605
	H380	H	0.507519	0.692893	0.497592
	O381	O	-0.186144	0.873195	-0.092236
	H382	H	-0.192550	0.883107	-0.099904
	H383	H	-0.186639	0.866527	-0.089607
	O384	O	0.655429	0.685255	0.580154
	H385	H	0.661501	0.680213	0.595579
	H386	H	0.667047	0.695909	0.584847
	O387	O	0.479360	0.460794	0.596738
	H388	H	0.496908	0.457497	0.596820
	H389	H	0.479004	0.459037	0.597746
	O390	O	1.124482	0.823394	-0.046100
	H391	H	1.103820	0.811249	-0.055810
	H392	H	1.127273	0.836841	-0.029882
	O393	O	0.904017	-0.021500	1.208686
	H394	H	0.909892	-0.023242	1.210448
	H395	H	0.907015	-0.005684	1.196690
	O396	O	0.574417	0.410313	0.654559
	H397	H	0.553337	0.406500	0.659068
	H398	H	0.569062	0.415797	0.643409
	O399	O	0.401330	0.527912	0.595046
	H400	H	0.408012	0.540796	0.585010
	H401	H	0.401163	0.532002	0.588813
	O402	O	0.801206	0.863385	0.196411
	H403	H	0.810639	0.899417	0.200481
	H404	H	0.780875	0.863653	0.199649
	O405	O	0.399864	0.453374	0.507716
	H406	H	0.402072	0.461198	0.499417
	H407	H	0.403547	0.467012	0.517732
	O408	O	0.501189	0.357781	0.398730
	H409	H	0.505592	0.346581	0.402676
	H410	H	0.479838	0.366468	0.402661
	O411	O	0.878433	0.793160	1.081028
	H412	H	0.867047	0.778619	1.103982
	H413	H	0.861830	0.802197	1.086590
	O414	O	0.661354	0.448032	0.375052
	H415	H	0.662483	0.440239	0.370220
	H416	H	0.657922	0.442717	0.381712
	O417	O	0.601139	1.280301	0.513300
	H418	H	0.586066	1.276241	0.513989
	H419	H	0.591901	1.282179	0.511783
	O420	O	0.070817	0.880042	0.914898
	H421	H	0.066655	0.880504	0.916613
	H422	H	0.072491	0.869884	0.921186
	O423	O	0.136172	1.090519	0.113854
	H424	H	0.137441	1.103153	0.125551
	H425	H	0.136330	1.085242	0.134625
	O426	O	0.557744	0.595222	0.709161
	H427	H	0.554779	0.604511	0.718575
	H428	H	0.551510	0.598575	0.698965
	O429	O	0.451273	0.400391	0.390779
	H430	H	0.448588	0.396690	0.403182
	H431	H	0.450486	0.384558	0.396739
	O432	O	0.826002	0.172382	0.989781
	H433	H	0.807629	0.192725	0.986462
	H434	H	0.838455	0.169962	0.985863
	O435	O	0.293747	0.483770	0.696055
	H436	H	0.297330	0.505521	0.687588
	H437	H	0.293012	0.501507	0.701300
	O438	O	0.166242	1.043174	0.922385
	H439	H	0.149787	1.033071	0.931895
	H440	H	0.166086	1.049757	0.919965
	O441	O	0.419391	0.637717	0.297410
	H442	H	0.428940	0.619352	0.280652
	H443	H	0.430203	0.636302	0.285610
