data_Molecule from HDF5

_cell_length_a		16.460244
_cell_length_b		16.155332
_cell_length_c		16.193498
_cell_angle_alpha	89.705273
_cell_angle_beta	89.585057
_cell_angle_gamma	89.797022
_symmetry_space_group_name_H-M	'P 1'
_symmetry_Int_Tables_number		1

loop_
	_symmetry_equiv_pos_as_xyz
	x,y,z

loop_
	_atom_site_label
	_atom_site_type_symbol
	_atom_site_fract_x
	_atom_site_fract_y
	_atom_site_fract_z
	H0	H	0.402321	0.829583	0.714230
	H1	H	0.597086	0.158173	0.708797
	H2	H	0.600946	0.829515	0.281787
	H3	H	0.402049	0.158733	0.283477
	H4	H	0.719819	0.390562	0.834417
	H5	H	0.719389	0.597425	0.157771
	H6	H	0.285729	0.599011	0.832376
	H7	H	0.280070	0.389906	0.156858
	H8	H	0.840831	0.714767	0.392356
	H9	H	0.163270	0.708008	0.591287
	H10	H	0.840798	0.274559	0.599728
	H11	H	0.162807	0.276419	0.392615
	H12	H	0.840762	0.391140	0.715518
	H13	H	0.162475	0.594460	0.709488
	H14	H	0.838559	0.596994	0.278767
	H15	H	0.161398	0.394038	0.275357
	H16	H	0.401882	0.711929	0.833962
	H17	H	0.598502	0.705764	0.161577
	H18	H	0.599939	0.281190	0.832216
	H19	H	0.401387	0.280507	0.161211
	H20	H	0.720001	0.830719	0.394264
	H21	H	0.720325	0.153600	0.603628
	H22	H	0.282945	0.829966	0.602729
	H23	H	0.282884	0.155425	0.394413
	H24	H	0.898398	0.331706	0.213225
	H25	H	0.095366	0.660716	0.204641
	H26	H	0.102518	0.330701	0.778645
	H27	H	0.903094	0.659170	0.780370
	H28	H	0.221617	0.890333	0.334680
	H29	H	0.216184	0.095665	0.658183
	H30	H	0.781368	0.099059	0.335975
	H31	H	0.781324	0.886463	0.659125
	H32	H	0.340842	0.213514	0.894801
	H33	H	0.662625	0.208867	0.095490
	H34	H	0.338850	0.776764	0.100474
	H35	H	0.662204	0.775828	0.896240
	H36	H	0.338814	0.894877	0.215867
	H37	H	0.661886	0.094239	0.213212
	H38	H	0.339887	0.095144	0.781100
	H39	H	0.661072	0.890145	0.777853
	H40	H	0.902209	0.209057	0.332887
	H41	H	0.099454	0.207876	0.658973
	H42	H	0.099415	0.783511	0.329476
	H43	H	0.902128	0.776317	0.659241
	H44	H	0.221129	0.332750	0.889592
	H45	H	0.216991	0.657395	0.095979
	H46	H	0.782477	0.332389	0.100619
	H47	H	0.782264	0.657158	0.891533
	H48	H	0.405622	0.109965	0.583017
	H49	H	0.596175	0.875292	0.586146
	H50	H	0.591137	0.109931	0.405291
	H51	H	0.411685	0.877058	0.408107
	H52	H	0.588140	0.407533	0.110273
	H53	H	0.595278	0.584431	0.879056
	H54	H	0.409187	0.586566	0.113376
	H55	H	0.417531	0.397983	0.878582
	H56	H	0.118705	0.596200	0.397761
	H57	H	0.885751	0.590634	0.583992
	H58	H	0.113600	0.405899	0.586320
	H59	H	0.886469	0.403455	0.405515
	H60	H	0.117059	0.398539	0.589307
	H61	H	0.889478	0.581029	0.581927
	H62	H	0.112662	0.583611	0.406634
	H63	H	0.886817	0.403277	0.404148
	H64	H	0.400030	0.581519	0.114503
	H65	H	0.591487	0.582821	0.880562
	H66	H	0.590113	0.394745	0.115324
	H67	H	0.401929	0.402430	0.877329
	H68	H	0.590383	0.108133	0.408767
	H69	H	0.588142	0.875909	0.591372
	H70	H	0.401729	0.112158	0.589511
	H71	H	0.409039	0.877203	0.410274
	H72	H	0.907068	0.611807	0.086088
	H73	H	0.084721	0.382522	0.078340
	H74	H	0.088897	0.609830	0.902833
	H75	H	0.911651	0.376588	0.899431
	H76	H	0.100761	0.901859	0.614225
	H77	H	0.093211	0.079833	0.379878
	H78	H	0.915624	0.079983	0.609539
	H79	H	0.906308	0.904413	0.379361
	H80	H	0.619105	0.095619	0.904065
	H81	H	0.383480	0.092685	0.092205
	H82	H	0.618524	0.889183	0.090859
	H83	H	0.386225	0.899704	0.909009
	H84	H	0.611253	0.903443	0.080404
	H85	H	0.388080	0.086239	0.084235
	H86	H	0.611713	0.081229	0.910947
	H87	H	0.388311	0.905909	0.909689
	H88	H	0.908598	0.088825	0.615051
	H89	H	0.089877	0.084941	0.380363
	H90	H	0.088032	0.905252	0.609326
	H91	H	0.908560	0.908770	0.380939
	H92	H	0.097311	0.611411	0.905909
	H93	H	0.100647	0.376891	0.081416
	H94	H	0.908611	0.610946	0.083866
	H95	H	0.915475	0.381118	0.911296
	H96	H	0.409348	0.108599	0.590530
	H97	H	0.587768	0.879264	0.582017
	H98	H	0.593978	0.111046	0.407758
	H99	H	0.408689	0.875878	0.406660
	H100	H	0.600167	0.404360	0.115181
	H101	H	0.591908	0.586899	0.880231
	H102	H	0.408951	0.576516	0.110238
	H103	H	0.412414	0.412605	0.882629
	H104	H	0.116806	0.581507	0.390374
	H105	H	0.885082	0.583134	0.592169
	H106	H	0.114766	0.399077	0.581042
	H107	H	0.887056	0.402268	0.405439
	H108	H	0.905991	0.612577	0.083818
	H109	H	0.089413	0.375836	0.094100
	H110	H	0.096047	0.613269	0.897283
	H111	H	0.902427	0.377393	0.909841
	H112	H	0.090706	0.892349	0.615013
	H113	H	0.096256	0.084823	0.378222
	H114	H	0.902682	0.076799	0.612714
	H115	H	0.911306	0.903781	0.380568
	H116	H	0.616848	0.080451	0.895317
	H117	H	0.386079	0.082026	0.095303
	H118	H	0.615829	0.906520	0.098399
	H119	H	0.385539	0.902979	0.903275
	C120	C	0.377127	0.002029	0.619114
	C121	C	0.620968	0.984401	0.617523
	C122	C	0.622562	0.002091	0.376342
	C123	C	0.380125	0.984913	0.377351
	C124	C	0.622461	0.372339	0.005587
	C125	C	0.621853	0.614423	0.987917
	C126	C	0.377946	0.614465	0.005084
	C127	C	0.379047	0.372631	0.986843
	C128	C	0.009440	0.617376	0.370384
	C129	C	0.993259	0.614560	0.614925
	C130	C	0.009030	0.371300	0.617375
	C131	C	0.992873	0.372483	0.373307
	C132	C	0.877306	0.503966	0.116807
	C133	C	0.120296	0.486489	0.114075
	C134	C	0.123668	0.503573	0.872443
	C135	C	0.879991	0.486329	0.875180
	C136	C	0.123236	0.871423	0.504552
	C137	C	0.121836	0.113652	0.486858
	C138	C	0.878958	0.114077	0.505418
	C139	C	0.878887	0.872526	0.487598
	C140	C	0.509430	0.115967	0.874458
	C141	C	0.492487	0.116234	0.119269
	C142	C	0.508665	0.870595	0.120806
	C143	C	0.492622	0.871926	0.876080
	C144	C	0.380559	0.878792	0.676446
	C145	C	0.618558	0.108159	0.672723
	C146	C	0.621513	0.878744	0.319816
	C147	C	0.381858	0.108866	0.320803
	C148	C	0.680388	0.372144	0.882913
	C149	C	0.679255	0.614976	0.110068
	C150	C	0.323259	0.617084	0.881757
	C151	C	0.319783	0.371388	0.108730
	C152	C	0.888483	0.675623	0.372194
	C153	C	0.114678	0.670611	0.612073
	C154	C	0.888747	0.313873	0.618211
	C155	C	0.114030	0.315014	0.372919
	C156	C	0.888869	0.371497	0.676466
	C157	C	0.114332	0.613807	0.670815
	C158	C	0.887577	0.616942	0.315704
	C159	C	0.113479	0.373752	0.314703
	C160	C	0.381362	0.673185	0.882534
	C161	C	0.618864	0.668753	0.112032
	C162	C	0.620676	0.317648	0.881894
	C163	C	0.380516	0.317101	0.110935
	C164	C	0.680733	0.879416	0.375601
	C165	C	0.679725	0.106125	0.620189
	C166	C	0.321582	0.878977	0.620587
	C167	C	0.322490	0.107370	0.375950
	C168	C	0.878619	0.380935	0.174879
	C169	C	0.117129	0.610644	0.168451
	C170	C	0.122708	0.380027	0.816297
	C171	C	0.881890	0.609637	0.817900
	C172	C	0.181812	0.871672	0.382413
	C173	C	0.177593	0.113888	0.609731
	C174	C	0.821337	0.116325	0.383866
	C175	C	0.820921	0.869160	0.610075
	C176	C	0.388741	0.174263	0.875642
	C177	C	0.614070	0.171410	0.116336
	C178	C	0.387261	0.815030	0.120109
	C179	C	0.613658	0.814336	0.876566
	C180	C	0.387298	0.873688	0.177722
	C181	C	0.613720	0.114252	0.175049
	C182	C	0.388241	0.115387	0.818782
	C183	C	0.613056	0.871324	0.817262
	C184	C	0.881150	0.171326	0.382328
	C185	C	0.119820	0.170244	0.609883
	C186	C	0.120773	0.818678	0.379850
	C187	C	0.880928	0.814186	0.610298
	C188	C	0.181441	0.380742	0.871583
	C189	C	0.177531	0.609188	0.113966
	C190	C	0.820875	0.381197	0.118745
	C191	C	0.821575	0.608493	0.873078
	C192	C	0.398996	0.087977	0.594823
	C193	C	0.597756	0.898970	0.593485
	C194	C	0.598965	0.087475	0.400268
	C195	C	0.403128	0.899218	0.401486
	C196	C	0.599550	0.395553	0.091191
	C197	C	0.599363	0.591360	0.902390
	C198	C	0.399724	0.589171	0.090560
	C199	C	0.403372	0.397123	0.901634
	C200	C	0.093901	0.594007	0.391976
	C201	C	0.908860	0.591515	0.592668
	C202	C	0.093433	0.394479	0.592731
	C203	C	0.908777	0.396157	0.397978
	C204	C	0.900319	0.589740	0.092062
	C205	C	0.098097	0.400565	0.091271
	C206	C	0.100707	0.589108	0.895323
	C207	C	0.903174	0.400534	0.899744
	C208	C	0.100023	0.893428	0.590688
	C209	C	0.099670	0.089971	0.401452
	C210	C	0.902139	0.089254	0.590519
	C211	C	0.901926	0.897926	0.402251
	C212	C	0.593827	0.092587	0.896823
	C213	C	0.407832	0.093593	0.097004
	C214	C	0.593470	0.893002	0.096930
	C215	C	0.408473	0.895974	0.900350
	Zn216	Zn	0.500467	-0.006145	0.745621
	Zn217	Zn	0.500841	-0.006247	0.248766
	Zn218	Zn	0.750291	0.494045	-0.004129
	Zn219	Zn	0.250343	0.494027	-0.005838
	Zn220	Zn	0.001382	0.744805	0.493666
	Zn221	Zn	0.001521	0.241887	0.495607
	Zn222	Zn	0.001359	0.494098	0.746022
	Zn223	Zn	-0.000319	0.494992	0.242504
	Zn224	Zn	0.500197	0.741593	-0.002025
	Zn225	Zn	0.501318	0.244976	-0.003274
	Zn226	Zn	0.749669	-0.006743	0.498061
	Zn227	Zn	0.249843	-0.007462	0.496808
	N228	N	0.414340	0.956321	0.675605
	N229	N	0.582703	0.031431	0.671248
	N230	N	0.586200	0.955894	0.320038
	N231	N	0.417202	0.031483	0.321622
	N232	N	0.681794	0.405586	0.960832
	N233	N	0.681310	0.582026	0.031975
	N234	N	0.321051	0.581351	0.958927
	N235	N	0.318685	0.404962	0.030448
	N236	N	0.965153	0.676260	0.405462
	N237	N	0.038446	0.671162	0.577745
	N238	N	0.964798	0.313450	0.582551
	N239	N	0.037829	0.314025	0.408513
	N240	N	0.964747	0.406762	0.675626
	N241	N	0.037845	0.579994	0.672973
	N242	N	0.963603	0.581352	0.314538
	N243	N	0.037140	0.408447	0.314658
	N244	N	0.414805	0.671840	0.960172
	N245	N	0.583871	0.668756	0.035022
	N246	N	0.585436	0.317619	0.959116
	N247	N	0.416538	0.317774	0.034234
	N248	N	0.681365	0.957088	0.410019
	N249	N	0.681257	0.028085	0.586583
	N250	N	0.319180	0.956707	0.585669
	N251	N	0.321200	0.029352	0.410161
	N252	N	0.912819	0.458427	0.173800
	N253	N	0.082288	0.533451	0.168722
	N254	N	0.087396	0.457187	0.816548
	N255	N	0.917499	0.532527	0.819142
	N256	N	0.183524	0.903323	0.461122
	N257	N	0.179148	0.079357	0.532268
	N258	N	0.819754	0.081609	0.461421
	N259	N	0.819662	0.904876	0.532824
	N260	N	0.465123	0.174838	0.909424
	N261	N	0.537658	0.172859	0.082679
	N262	N	0.463871	0.812985	0.085672
	N263	N	0.537632	0.814601	0.912615
	N264	N	0.464075	0.907106	0.178364
	N265	N	0.537050	0.080675	0.177062
	N266	N	0.464146	0.079839	0.817919
	N267	N	0.536732	0.906206	0.816767
	N268	N	0.916373	0.170288	0.458997
	N269	N	0.085668	0.170072	0.532610
	N270	N	0.085179	0.818329	0.456824
	N271	N	0.916299	0.816229	0.533139
	N272	N	0.182278	0.458358	0.905819
	N273	N	0.179564	0.530945	0.080582
	N274	N	0.819921	0.458788	0.083199
	N275	N	0.820247	0.530591	0.907734
	O276	O	0.103418	0.025213	-0.167108
	H277	H	0.096594	0.019878	-0.167871
	H278	H	0.106326	0.030887	-0.187749
	O279	O	0.488417	0.546938	0.397801
	H280	H	0.475611	0.547035	0.400711
	H281	H	0.479576	0.559272	0.392480
	O282	O	0.955074	-0.015468	-0.095849
	H283	H	0.950339	-0.019666	-0.103074
	H284	H	0.965265	-0.014971	-0.089293
	O285	O	-0.032889	0.880600	0.093214
	H286	H	-0.029273	0.908141	0.086910
	H287	H	-0.032945	0.873062	0.089802
	O288	O	1.160000	0.923458	0.002443
	H289	H	1.167379	0.942196	-0.007612
	H290	H	1.158304	0.936943	0.002412
	O291	O	0.433181	0.670736	0.434240
	H292	H	0.409708	0.662488	0.433158
	H293	H	0.438101	0.684019	0.418929
	O294	O	0.951102	1.183849	0.988913
	H295	H	0.941091	1.192827	0.993529
	H296	H	0.950797	1.181357	0.991174
	O297	O	-0.109232	0.081625	-0.022653
	H298	H	-0.101408	0.096811	-0.030465
	H299	H	-0.106779	0.066564	-0.014561
	O300	O	0.445335	0.346198	0.429622
	H301	H	0.469218	0.339919	0.430183
	H302	H	0.436235	0.345545	0.433562
	O303	O	-0.016103	0.864491	0.876440
	H304	H	-0.011256	0.855478	0.880872
	H305	H	-0.024632	0.854982	0.880016
	O306	O	0.493952	0.632096	0.480353
	H307	H	0.490522	0.629119	0.484456
	H308	H	0.491525	0.631057	0.488082
	O309	O	0.962342	-0.016386	-0.106744
	H310	H	0.944336	-0.013477	-0.108129
	H311	H	0.970145	-0.019288	-0.106402
	O312	O	0.011935	-0.015030	1.090014
	H313	H	0.018372	-0.001901	1.079648
	H314	H	0.007090	-0.018360	1.094715
	O315	O	0.671894	0.407073	0.371275
	H316	H	0.685962	0.405617	0.365562
	H317	H	0.672818	0.415308	0.382417
	O318	O	0.485066	0.391935	0.524624
	H319	H	0.485214	0.392930	0.523634
	H320	H	0.488403	0.403927	0.530566
	O321	O	0.499519	0.483094	0.384804
	H322	H	0.500208	0.490872	0.378801
	H323	H	0.494119	0.488562	0.373637
	O324	O	0.399074	0.375819	0.500805
	H325	H	0.410603	0.369226	0.489290
	H326	H	0.410591	0.368020	0.509118
	O327	O	-0.161694	0.935725	1.082302
	H328	H	-0.168115	0.937976	1.079990
	H329	H	-0.161269	0.939285	1.091557
	O330	O	0.629710	0.590146	0.599064
	H331	H	0.626666	0.593257	0.600645
	H332	H	0.636882	0.610772	0.597976
	O333	O	0.012936	1.001954	1.018836
	H334	H	0.023489	1.010504	1.028897
	H335	H	0.019830	0.991341	1.019835
	O336	O	1.144622	1.136691	1.053650
	H337	H	1.136912	1.132586	1.065085
	H338	H	1.150927	1.132763	1.048576
	O339	O	0.548202	0.555478	0.586282
	H340	H	0.549897	0.555787	0.590389
	H341	H	0.560361	0.561491	0.584374
	O342	O	1.035382	0.114012	0.029869
	H343	H	1.032005	0.111873	0.011379
	H344	H	1.044011	0.128117	0.014731
	O345	O	0.633989	0.535608	0.556316
	H346	H	0.619102	0.530512	0.552079
	H347	H	0.639029	0.528723	0.555092
	O348	O	1.083132	0.878772	0.926792
	H349	H	1.088454	0.873488	0.930838
	H350	H	1.076896	0.874651	0.941102
	O351	O	0.581348	0.499547	0.562568
	H352	H	0.573882	0.493728	0.552458
	H353	H	0.576083	0.490430	0.564297
	O354	O	0.490738	0.439931	0.581343
	H355	H	0.500113	0.439497	0.584866
	H356	H	0.477630	0.447514	0.575977
	O357	O	0.527215	0.461406	0.440366
	H358	H	0.529145	0.459946	0.448587
	H359	H	0.530989	0.456161	0.430990
	O360	O	-0.032591	0.025111	-0.015049
	H361	H	-0.047380	-0.002985	-0.014643
	H362	H	-0.019889	0.030842	-0.019535
	O363	O	0.413074	0.563228	0.524317
	H364	H	0.407385	0.560420	0.526688
	H365	H	0.417132	0.558441	0.522580
	O366	O	0.500052	0.501487	0.472371
	H367	H	0.507806	0.501005	0.480452
	H368	H	0.497048	0.507801	0.460727
	O369	O	0.387194	0.359280	0.616881
	H370	H	0.390733	0.349812	0.613332
	H371	H	0.371763	0.348418	0.629318
	O372	O	-0.080628	0.934022	1.082429
	H373	H	-0.076503	0.937001	1.073820
	H374	H	-0.064823	0.930724	1.086789
	O375	O	0.548515	0.570515	0.516073
	H376	H	0.559733	0.564413	0.514771
	H377	H	0.548159	0.566968	0.520497
	O378	O	0.608143	0.442225	0.409999
	H379	H	0.606457	0.452910	0.416013
	H380	H	0.621346	0.445237	0.402193
	O381	O	0.453602	0.474618	0.508012
	H382	H	0.460324	0.475352	0.509174
	H383	H	0.457456	0.490554	0.504602
	O384	O	0.002353	1.072785	0.072271
	H385	H	0.010113	1.085778	0.070444
	H386	H	-0.017826	1.071010	0.061933
	O387	O	0.925682	0.073995	1.041425
	H388	H	0.922188	0.068261	1.041420
	H389	H	0.919536	0.085352	1.050345
	O390	O	-0.091992	0.994733	-0.032355
	H391	H	-0.093739	0.993477	-0.033215
	H392	H	-0.088681	0.990042	-0.031445
	O393	O	1.032256	0.916082	0.033137
	H394	H	1.032454	0.918569	0.040640
	H395	H	1.019866	0.917821	0.030479
	O396	O	0.527607	0.493715	0.553252
	H397	H	0.527976	0.511400	0.552351
	H398	H	0.533656	0.486524	0.557250
	O399	O	0.127633	1.004572	0.920582
	H400	H	0.133384	0.996093	0.930109
	H401	H	0.137892	1.006163	0.918246
	O402	O	1.008469	1.094748	1.014195
	H403	H	1.011923	1.091610	1.014877
	H404	H	1.001287	1.083811	1.020164
	O405	O	0.398676	0.575591	0.366051
	H406	H	0.398889	0.563291	0.380230
	H407	H	0.399987	0.579163	0.353661
