data_Molecule from HDF5

_cell_length_a		16.616774
_cell_length_b		16.569903
_cell_length_c		16.568149
_cell_angle_alpha	90.014919
_cell_angle_beta	90.032138
_cell_angle_gamma	89.939884
_symmetry_space_group_name_H-M	'P 1'
_symmetry_Int_Tables_number		1

loop_
	_symmetry_equiv_pos_as_xyz
	x,y,z

loop_
	_atom_site_label
	_atom_site_type_symbol
	_atom_site_fract_x
	_atom_site_fract_y
	_atom_site_fract_z
	H0	H	0.386362	0.845140	0.719797
	H1	H	0.596628	0.157902	0.718448
	H2	H	0.594673	0.844708	0.278520
	H3	H	0.389593	0.158770	0.278983
	H4	H	0.713483	0.396191	0.841029
	H5	H	0.711734	0.605257	0.154443
	H6	H	0.271237	0.605998	0.840117
	H7	H	0.274003	0.399428	0.154603
	H8	H	0.834318	0.720113	0.394931
	H9	H	0.146824	0.724745	0.604040
	H10	H	0.835865	0.281261	0.602982
	H11	H	0.149293	0.283179	0.396135
	H12	H	0.835565	0.398156	0.719119
	H13	H	0.147156	0.609244	0.720858
	H14	H	0.835168	0.604064	0.278391
	H15	H	0.149351	0.399902	0.280441
	H16	H	0.386373	0.723158	0.840161
	H17	H	0.595405	0.721233	0.154210
	H18	H	0.594835	0.281911	0.840231
	H19	H	0.391877	0.284403	0.155792
	H20	H	0.712153	0.844717	0.394637
	H21	H	0.711393	0.158832	0.600746
	H22	H	0.269420	0.845777	0.604486
	H23	H	0.272122	0.158404	0.394718
	H24	H	0.892312	0.343707	0.214637
	H25	H	0.094499	0.658685	0.216190
	H26	H	0.094250	0.343740	0.778511
	H27	H	0.886491	0.659345	0.777115
	H28	H	0.210352	0.899080	0.339574
	H29	H	0.213514	0.105866	0.654541
	H30	H	0.774204	0.103037	0.340815
	H31	H	0.772441	0.897538	0.655693
	H32	H	0.335042	0.219624	0.895534
	H33	H	0.650432	0.218787	0.099511
	H34	H	0.335796	0.782989	0.099786
	H35	H	0.649234	0.780334	0.892948
	H36	H	0.334422	0.900826	0.214854
	H37	H	0.648991	0.103478	0.217275
	H38	H	0.335659	0.103504	0.778896
	H39	H	0.649989	0.897785	0.777820
	H40	H	0.892622	0.217794	0.339786
	H41	H	0.096883	0.222156	0.655104
	H42	H	0.091911	0.783936	0.339417
	H43	H	0.887049	0.780195	0.655184
	H44	H	0.210765	0.343225	0.894438
	H45	H	0.210554	0.659170	0.099890
	H46	H	0.775109	0.344253	0.098813
	H47	H	0.769219	0.658166	0.891054
	H48	H	0.405656	0.110415	0.582737
	H49	H	0.584910	0.887728	0.587423
	H50	H	0.583496	0.114040	0.407833
	H51	H	0.404158	0.890254	0.408880
	H52	H	0.583472	0.406113	0.112453
	H53	H	0.581098	0.584392	0.886500
	H54	H	0.406119	0.587824	0.106679
	H55	H	0.397268	0.408971	0.882045
	H56	H	0.104018	0.590018	0.407424
	H57	H	0.880622	0.590466	0.586901
	H58	H	0.105322	0.409648	0.592022
	H59	H	0.878230	0.410275	0.405855
	H60	H	0.103418	0.409277	0.583802
	H61	H	0.881530	0.589863	0.584195
	H62	H	0.105371	0.593930	0.404853
	H63	H	0.879548	0.409496	0.406385
	H64	H	0.404211	0.596233	0.109743
	H65	H	0.575029	0.590829	0.886742
	H66	H	0.587729	0.412018	0.111007
	H67	H	0.401436	0.415262	0.885793
	H68	H	0.584040	0.114861	0.406241
	H69	H	0.579408	0.889441	0.589730
	H70	H	0.399317	0.113044	0.585720
	H71	H	0.396355	0.887832	0.409232
	H72	H	0.898568	0.615675	0.086663
	H73	H	0.077751	0.389652	0.091147
	H74	H	0.086166	0.616023	0.905493
	H75	H	0.902043	0.388454	0.903469
	H76	H	0.083561	0.909890	0.611096
	H77	H	0.083558	0.088942	0.386074
	H78	H	0.897281	0.092449	0.613272
	H79	H	0.910737	0.910360	0.388620
	H80	H	0.604257	0.091147	0.909815
	H81	H	0.377497	0.097060	0.089800
	H82	H	0.605139	0.909070	0.085202
	H83	H	0.386580	0.915865	0.918573
	H84	H	0.603301	0.914879	0.085888
	H85	H	0.380344	0.093697	0.086571
	H86	H	0.604730	0.090024	0.906828
	H87	H	0.380553	0.919955	0.898933
	H88	H	0.903084	0.087601	0.609416
	H89	H	0.079338	0.092267	0.387303
	H90	H	0.082510	0.917069	0.608289
	H91	H	0.896685	0.904387	0.381649
	H92	H	0.077150	0.612837	0.906560
	H93	H	0.086841	0.389435	0.081753
	H94	H	0.902327	0.615783	0.091050
	H95	H	0.908473	0.393649	0.910538
	H96	H	0.405260	0.113037	0.589744
	H97	H	0.580785	0.890928	0.583812
	H98	H	0.582256	0.115467	0.407146
	H99	H	0.401137	0.886169	0.402532
	H100	H	0.581068	0.412282	0.108661
	H101	H	0.583696	0.592671	0.884004
	H102	H	0.397461	0.590038	0.109911
	H103	H	0.405294	0.407890	0.884600
	H104	H	0.103951	0.594615	0.409193
	H105	H	0.881646	0.587963	0.586359
	H106	H	0.102589	0.417300	0.588197
	H107	H	0.878675	0.410667	0.406397
	H108	H	0.904186	0.614045	0.085792
	H109	H	0.089311	0.385278	0.093854
	H110	H	0.083315	0.611998	0.913744
	H111	H	0.898412	0.391164	0.913423
	H112	H	0.076787	0.912306	0.608799
	H113	H	0.083795	0.094643	0.384232
	H114	H	0.905002	0.095913	0.611380
	H115	H	0.897036	0.920255	0.387481
	H116	H	0.605867	0.092992	0.907391
	H117	H	0.378923	0.092021	0.091162
	H118	H	0.605860	0.911703	0.090702
	H119	H	0.376942	0.900986	0.906947
	C120	C	0.371053	0.009306	0.618770
	C121	C	0.613397	0.992987	0.618752
	C122	C	0.613769	0.010412	0.376243
	C123	C	0.370108	0.992651	0.376237
	C124	C	0.614316	0.379722	0.006160
	C125	C	0.612233	0.621709	0.989301
	C126	C	0.370634	0.623120	0.004962
	C127	C	0.371235	0.380185	0.988692
	C128	C	0.000528	0.623428	0.376025
	C129	C	0.983750	0.622830	0.618829
	C130	C	0.000442	0.380382	0.619754
	C131	C	0.983139	0.380041	0.376513
	C132	C	0.871403	0.510580	0.118362
	C133	C	0.114365	0.492421	0.119088
	C134	C	0.112952	0.509480	0.876900
	C135	C	0.870765	0.494277	0.876618
	C136	C	0.112185	0.881351	0.505407
	C137	C	0.113932	0.123444	0.489673
	C138	C	0.871349	0.122427	0.506880
	C139	C	0.870279	0.879930	0.489955
	C140	C	0.500832	0.122511	0.876797
	C141	C	0.483403	0.123929	0.119780
	C142	C	0.500952	0.881053	0.117945
	C143	C	0.484609	0.880063	0.875975
	C144	C	0.368020	0.892120	0.679816
	C145	C	0.614864	0.111234	0.678048
	C146	C	0.614071	0.891788	0.317865
	C147	C	0.370019	0.111422	0.318265
	C148	C	0.673250	0.378156	0.887902
	C149	C	0.671839	0.623651	0.107060
	C150	C	0.310967	0.624617	0.887217
	C151	C	0.313186	0.379963	0.107387
	C152	C	0.881794	0.680915	0.375879
	C153	C	0.100634	0.683774	0.621920
	C154	C	0.882697	0.321075	0.621762
	C155	C	0.101796	0.322029	0.376572
	C156	C	0.882605	0.379064	0.679544
	C157	C	0.100621	0.626638	0.680199
	C158	C	0.882352	0.623367	0.317701
	C159	C	0.101947	0.379960	0.319061
	C160	C	0.368403	0.682865	0.887219
	C161	C	0.613962	0.681367	0.107016
	C162	C	0.614554	0.321300	0.887497
	C163	C	0.371823	0.323046	0.108148
	C164	C	0.672087	0.891782	0.375715
	C165	C	0.672115	0.111435	0.619893
	C166	C	0.309917	0.892265	0.622347
	C167	C	0.311866	0.111330	0.375738
	C168	C	0.872490	0.391314	0.175595
	C169	C	0.113972	0.611286	0.176994
	C170	C	0.113343	0.391024	0.817946
	C171	C	0.868208	0.611872	0.816602
	C172	C	0.170507	0.880238	0.386726
	C173	C	0.173613	0.124713	0.607649
	C174	C	0.813676	0.122237	0.387910
	C175	C	0.811874	0.878926	0.608414
	C176	C	0.382363	0.180354	0.876366
	C177	C	0.602807	0.180226	0.119293
	C178	C	0.382438	0.822759	0.118631
	C179	C	0.602518	0.820609	0.874532
	C180	C	0.382102	0.881058	0.175983
	C181	C	0.601965	0.123014	0.177708
	C182	C	0.382609	0.122735	0.818323
	C183	C	0.602716	0.878818	0.817161
	C184	C	0.872040	0.179624	0.387533
	C185	C	0.115463	0.182283	0.607803
	C186	C	0.112071	0.822945	0.386638
	C187	C	0.868786	0.820293	0.608033
	C188	C	0.171405	0.390812	0.875542
	C189	C	0.171740	0.611618	0.119304
	C190	C	0.814041	0.391536	0.118296
	C191	C	0.809784	0.611313	0.873613
	C192	C	0.396171	0.090941	0.593261
	C193	C	0.588710	0.910807	0.593880
	C194	C	0.590083	0.093217	0.400120
	C195	C	0.393787	0.909716	0.399998
	C196	C	0.590747	0.403385	0.089197
	C197	C	0.587107	0.596532	0.906984
	C198	C	0.395666	0.598423	0.087271
	C199	C	0.394610	0.403642	0.905943
	C200	C	0.083160	0.599681	0.400277
	C201	C	0.902495	0.596861	0.593191
	C202	C	0.082409	0.404974	0.595002
	C203	C	0.900415	0.403285	0.399753
	C204	C	0.894689	0.593483	0.094518
	C205	C	0.091262	0.409660	0.095712
	C206	C	0.089053	0.592122	0.901487
	C207	C	0.895979	0.412164	0.901761
	C208	C	0.088051	0.906054	0.587882
	C209	C	0.089346	0.098948	0.407321
	C210	C	0.895105	0.099002	0.589764
	C211	C	0.894630	0.904567	0.407387
	C212	C	0.583522	0.098425	0.900945
	C213	C	0.400625	0.100888	0.096139
	C214	C	0.583211	0.904997	0.094134
	C215	C	0.402668	0.905139	0.900964
	Zn216	Zn	0.492771	0.001158	0.747317
	Zn217	Zn	0.491955	0.001255	0.247730
	Zn218	Zn	0.741898	0.501640	-0.002908
	Zn219	Zn	0.242411	0.501443	-0.002591
	Zn220	Zn	-0.008327	0.751819	0.497833
	Zn221	Zn	-0.008125	0.251849	0.498458
	Zn222	Zn	-0.007921	0.502480	0.747956
	Zn223	Zn	-0.007578	0.501471	0.247974
	Zn224	Zn	0.492106	0.751638	-0.003222
	Zn225	Zn	0.492860	0.251615	-0.002360
	Zn226	Zn	0.742111	0.001236	0.498291
	Zn227	Zn	0.242020	0.001060	0.497886
	N228	N	0.405464	0.965999	0.677681
	N229	N	0.579164	0.036489	0.677655
	N230	N	0.578402	0.966559	0.318176
	N231	N	0.405300	0.036456	0.318147
	N232	N	0.673342	0.413591	0.962828
	N233	N	0.670823	0.587318	0.032610
	N234	N	0.312167	0.588234	0.961495
	N235	N	0.312519	0.414725	0.032198
	N236	N	0.956547	0.681386	0.411240
	N237	N	0.026882	0.681857	0.584591
	N238	N	0.956930	0.321870	0.585347
	N239	N	0.026827	0.321753	0.411413
	N240	N	0.956931	0.415242	0.678481
	N241	N	0.026870	0.589428	0.678293
	N242	N	0.957337	0.588538	0.317698
	N243	N	0.027111	0.415174	0.318547
	N244	N	0.404861	0.682137	0.961646
	N245	N	0.577725	0.680481	0.032523
	N246	N	0.578627	0.322065	0.962117
	N247	N	0.406964	0.322667	0.033227
	N248	N	0.672406	0.966766	0.410877
	N249	N	0.671420	0.036846	0.584000
	N250	N	0.311739	0.966080	0.584802
	N251	N	0.311763	0.036327	0.410952
	N252	N	0.907240	0.466383	0.176125
	N253	N	0.079191	0.536204	0.177325
	N254	N	0.077933	0.465986	0.818525
	N255	N	0.905557	0.537899	0.818389
	N256	N	0.170957	0.915429	0.461733
	N257	N	0.172837	0.088919	0.532971
	N258	N	0.812665	0.087812	0.463302
	N259	N	0.812652	0.915124	0.533872
	N260	N	0.457054	0.180430	0.911855
	N261	N	0.527894	0.181157	0.084191
	N262	N	0.457259	0.822425	0.083381
	N263	N	0.527895	0.821101	0.910226
	N264	N	0.456842	0.916320	0.175983
	N265	N	0.526691	0.089093	0.178507
	N266	N	0.457512	0.087638	0.818288
	N267	N	0.528181	0.914724	0.817696
	N268	N	0.906943	0.180123	0.462635
	N269	N	0.079342	0.182009	0.533341
	N270	N	0.076731	0.823136	0.461696
	N271	N	0.904573	0.820910	0.533254
	N272	N	0.171649	0.465742	0.911184
	N273	N	0.172386	0.536609	0.084172
	N274	N	0.813032	0.466734	0.083602
	N275	N	0.811263	0.537013	0.910270
	O276	O	0.228163	0.765337	-0.244146
	H277	H	0.212271	0.786336	-0.249302
	H278	H	0.201981	0.780471	-0.239428
	O279	O	0.575027	0.629772	0.523155
	H280	H	0.577378	0.628480	0.523648
	H281	H	0.563484	0.627917	0.538462
	O282	O	0.694075	0.296837	0.700695
	H283	H	0.670606	0.316502	0.696006
	H284	H	0.681335	0.318831	0.676836
	O285	O	1.100399	0.208268	1.210426
	H286	H	1.100668	0.232868	1.227938
	H287	H	1.084062	0.212664	1.187812
	O288	O	0.719217	0.437108	0.542962
	H289	H	0.723325	0.428771	0.536551
	H290	H	0.719560	0.439990	0.530179
	O291	O	0.456545	0.573388	0.701824
	H292	H	0.455788	0.595252	0.704982
	H293	H	0.440639	0.589971	0.702430
	O294	O	0.950968	-0.215465	1.216727
	H295	H	0.940798	-0.222920	1.214949
	H296	H	0.957086	-0.229461	1.229472
	O297	O	0.476735	0.433470	0.512609
	H298	H	0.471794	0.437235	0.504415
	H299	H	0.474243	0.447530	0.525033
	O300	O	-0.043245	0.222292	0.778064
	H301	H	-0.085621	0.220903	0.779237
	H302	H	-0.052670	0.245758	0.750510
	O303	O	0.316227	0.548572	0.519024
	H304	H	0.317338	0.539430	0.525185
	H305	H	0.314065	0.545717	0.517522
	O306	O	0.681295	0.690313	0.308709
	H307	H	0.657198	0.680542	0.332426
	H308	H	0.669686	0.668637	0.329410
	O309	O	0.717757	0.461377	0.276113
	H310	H	0.730509	0.449996	0.262757
	H311	H	0.723676	0.437474	0.266257
	O312	O	0.707143	0.712402	0.536562
	H313	H	0.705108	0.724598	0.525500
	H314	H	0.710430	0.709660	0.522529
	O315	O	0.701934	0.535642	0.708445
	H316	H	0.701484	0.525709	0.723783
	H317	H	0.705160	0.536213	0.698399
	O318	O	0.320027	0.314431	0.316922
	H319	H	0.335203	0.330461	0.338268
	H320	H	0.341694	0.325123	0.330377
	O321	O	0.005335	1.018984	0.969420
	H322	H	0.008592	1.041063	0.968912
	H323	H	-0.005877	1.011531	0.969955
	O324	O	0.779964	0.793987	0.205456
	H325	H	0.748726	0.760177	0.237472
	H326	H	0.801166	0.794966	0.189841
	O327	O	0.170424	-0.173684	1.185051
	H328	H	0.159937	-0.158009	1.164347
	H329	H	0.145136	-0.159133	1.172394
	O330	O	0.670610	0.565214	0.392913
	H331	H	0.658071	0.556846	0.393522
	H332	H	0.671953	0.543964	0.383140
	O333	O	0.495909	0.602470	0.394894
	H334	H	0.482013	0.607348	0.386428
	H335	H	0.491004	0.608626	0.402570
	O336	O	0.802054	0.191559	0.185002
	H337	H	0.823259	0.177609	0.165241
	H338	H	0.820260	0.169865	0.169907
	O339	O	1.439991	0.719372	0.278927
	H340	H	1.408866	0.714086	0.289698
	H341	H	1.432676	0.744560	0.250648
	O342	O	-0.088846	0.020362	-0.179279
	H343	H	-0.089085	0.018603	-0.180546
	H344	H	-0.110385	0.020038	-0.178779
	O345	O	-0.035582	0.845340	1.056896
	H346	H	-0.047243	0.857645	1.052684
	H347	H	-0.040029	0.837990	1.063024
	O348	O	0.272854	0.282252	0.529381
	H349	H	0.259544	0.278906	0.545587
	H350	H	0.259347	0.270900	0.558780
	O351	O	0.437633	0.524695	0.597587
	H352	H	0.434277	0.532637	0.595816
	H353	H	0.421407	0.531692	0.611340
	O354	O	-0.225296	-0.212803	1.033675
	H355	H	-0.228059	-0.222308	1.041814
	H356	H	-0.235357	-0.222283	1.036093
	O357	O	0.462224	0.281475	0.692730
	H358	H	0.477939	0.282152	0.687268
	H359	H	0.478669	0.267844	0.690188
	O360	O	0.520283	0.334879	0.564511
	H361	H	0.546576	0.334515	0.556320
	H362	H	0.517010	0.355657	0.549418
	O363	O	-0.015736	-0.126009	-0.093352
	H364	H	-0.007606	-0.110998	-0.098292
	H365	H	-0.022096	-0.128774	-0.092521
	O366	O	0.712526	0.282131	0.464764
	H367	H	0.728666	0.272157	0.442592
	H368	H	0.716100	0.275574	0.442671
	O369	O	0.814528	0.192226	-0.211460
	H370	H	0.786145	0.218404	-0.238542
	H371	H	0.809710	0.148085	-0.215914
	O372	O	0.784485	1.041109	-0.167570
	H373	H	0.774042	1.024313	-0.164476
	H374	H	0.783298	1.039979	-0.166748
	O375	O	1.158556	0.129475	-0.188454
	H376	H	1.139267	0.108911	-0.179273
	H377	H	1.150809	0.124456	-0.178434
	O378	O	0.454765	0.484155	0.353321
	H379	H	0.472297	0.497259	0.338567
	H380	H	0.449574	0.489903	0.351911
	O381	O	-0.512981	0.655686	0.545813
	H382	H	-0.538983	0.659802	0.552381
	H383	H	-0.513137	0.655679	0.537787
	O384	O	1.042525	-0.151959	0.828891
	H385	H	1.017168	-0.159108	0.836120
	H386	H	1.041421	-0.167991	0.826231
	O387	O	0.888990	1.053336	-0.068519
	H388	H	0.886269	1.058349	-0.068548
	H389	H	0.874106	1.044985	-0.052471
	O390	O	0.320507	0.514466	0.274814
	H391	H	0.304118	0.512135	0.257018
	H392	H	0.325413	0.523456	0.286983
	O393	O	0.460060	0.295048	0.445909
	H394	H	0.444636	0.297044	0.458029
	H395	H	0.464226	0.299889	0.459291
	O396	O	0.029087	1.038999	0.998737
	H397	H	0.041552	1.039513	0.999438
	H398	H	0.023549	1.052985	0.983231
	O399	O	0.164121	-0.054064	1.023880
	H400	H	0.151086	-0.057672	1.037280
	H401	H	0.171972	-0.061483	1.033687
	O402	O	1.084437	0.801133	-0.005412
	H403	H	1.080141	0.809836	-0.006806
	H404	H	1.083469	0.819277	-0.017142
	O405	O	0.780917	0.217228	0.964359
	H406	H	0.778444	0.216691	0.946362
	H407	H	0.765361	0.235124	0.951998
	O408	O	0.207776	0.032019	0.209514
	H409	H	0.216961	0.052778	0.220114
	H410	H	0.217262	0.053552	0.222728
	O411	O	0.717910	0.730411	0.726159
	H412	H	0.709025	0.698903	0.725335
	H413	H	0.724322	0.729446	0.695859
	O414	O	0.278580	0.482914	0.397255
	H415	H	0.277011	0.496569	0.400279
	H416	H	0.270775	0.468746	0.401427
	O417	O	0.974668	0.219509	1.129457
	H418	H	0.979608	0.222326	1.106473
	H419	H	0.981209	0.221211	1.121013
	O420	O	0.052959	1.178851	0.998522
	H421	H	0.058124	1.188824	0.995564
	H422	H	0.059701	1.174639	0.990612
	O423	O	0.200469	-0.160932	0.923908
	H424	H	0.188031	-0.159093	0.910073
	H425	H	0.216472	-0.167797	0.925254
	O426	O	0.285978	0.297796	0.700997
	H427	H	0.268983	0.284182	0.723309
	H428	H	0.336942	0.289469	0.704326
	O429	O	1.202002	1.046396	0.939824
	H430	H	1.204196	1.053410	0.950067
	H431	H	1.206599	1.038042	0.953495
	O432	O	0.269188	0.464571	0.715525
	H433	H	0.268365	0.452353	0.725998
	H434	H	0.249705	0.447864	0.733317
	O435	O	0.214587	1.220526	0.157032
	H436	H	0.237570	1.232988	0.168275
	H437	H	0.190501	1.233688	0.166131
	O438	O	-0.021955	-0.018692	0.070074
	H439	H	-0.021711	-0.028259	0.067144
	H440	H	-0.011630	-0.016134	0.078213
	O441	O	-0.062028	-0.121417	-0.120439
	H442	H	-0.055141	-0.114065	-0.114471
	H443	H	-0.071656	-0.114207	-0.130051
	O444	O	0.525924	0.706462	0.708524
	H445	H	0.544474	0.710883	0.713446
	H446	H	0.519457	0.725218	0.716237
	O447	O	0.020586	1.026920	1.199209
	H448	H	0.029162	1.052342	1.195146
	H449	H	0.028321	1.023857	1.202709
	O450	O	0.521391	0.722143	1.456177
	H451	H	0.499664	0.719822	1.457014
	H452	H	0.508758	0.722507	1.463473
	O453	O	0.532541	0.442638	0.480581
	H454	H	0.522141	0.442375	0.477599
	H455	H	0.537861	0.454263	0.474627
	O456	O	-0.228737	-0.032967	1.214425
	H457	H	-0.228533	-0.048366	1.228725
	H458	H	-0.242142	-0.060732	1.227729
	O459	O	1.120904	1.152609	-0.018459
	H460	H	1.100505	1.163572	-0.001351
	H461	H	1.149420	1.170092	-0.004634
	O462	O	0.269289	0.688476	0.466842
	H463	H	0.266622	0.690869	0.463718
	H464	H	0.255599	0.685300	0.454811
	O465	O	1.157894	0.006957	-0.189178
	H466	H	1.154707	0.026821	-0.178680
	H467	H	1.154439	0.010027	-0.202004
	O468	O	0.537203	0.282021	0.285586
	H469	H	0.537564	0.268093	0.281540
	H470	H	0.521435	0.276743	0.282041
	O471	O	0.273653	0.725190	0.278172
	H472	H	0.263381	0.729382	0.270858
	H473	H	0.249487	0.731210	0.269600
	O474	O	0.531561	0.368399	0.644198
	H475	H	0.527748	0.370251	0.635287
	H476	H	0.515968	0.388113	0.640404
	O477	O	0.321643	0.643963	1.647144
	H478	H	0.311615	0.655159	1.655371
	H479	H	0.310907	0.646051	1.637528
	O480	O	0.705514	0.292826	0.289517
	H481	H	0.733096	0.260016	0.255252
	H482	H	0.669001	0.297197	0.287861
	O483	O	0.500389	0.543638	0.379155
	H484	H	0.500840	0.550871	0.377638
	H485	H	0.488604	0.552617	0.375576
	O486	O	0.857323	0.073518	1.097575
	H487	H	0.866431	0.066147	1.096129
	H488	H	0.859734	0.070773	1.113461
	O489	O	0.844420	0.902419	-0.058058
	H490	H	0.831410	0.897145	-0.048359
	H491	H	0.846843	0.911811	-0.047951
