data_Molecule from HDF5

_cell_length_a		16.547756
_cell_length_b		16.459192
_cell_length_c		16.474540
_cell_angle_alpha	90.162354
_cell_angle_beta	90.058560
_cell_angle_gamma	89.972845
_symmetry_space_group_name_H-M	'P 1'
_symmetry_Int_Tables_number		1

loop_
	_symmetry_equiv_pos_as_xyz
	x,y,z

loop_
	_atom_site_label
	_atom_site_type_symbol
	_atom_site_fract_x
	_atom_site_fract_y
	_atom_site_fract_z
	H0	H	0.402052	0.836071	0.746305
	H1	H	0.616538	0.149667	0.747898
	H2	H	0.612674	0.834741	0.301744
	H3	H	0.403588	0.150412	0.302135
	H4	H	0.729979	0.385167	0.863349
	H5	H	0.730101	0.596281	0.178423
	H6	H	0.282199	0.604093	0.866781
	H7	H	0.285283	0.386945	0.178808
	H8	H	0.852428	0.713270	0.418794
	H9	H	0.165622	0.718257	0.632370
	H10	H	0.852307	0.271311	0.628348
	H11	H	0.166005	0.269650	0.415795
	H12	H	0.852687	0.388659	0.744228
	H13	H	0.166061	0.600708	0.747429
	H14	H	0.852687	0.597252	0.300657
	H15	H	0.165671	0.384604	0.298047
	H16	H	0.400962	0.717138	0.865869
	H17	H	0.613674	0.713301	0.178702
	H18	H	0.614462	0.268318	0.864432
	H19	H	0.404656	0.273877	0.181277
	H20	H	0.731294	0.835904	0.417070
	H21	H	0.732829	0.149526	0.632351
	H22	H	0.286227	0.835839	0.629742
	H23	H	0.286855	0.149599	0.417531
	H24	H	0.904415	0.336189	0.243478
	H25	H	0.118276	0.649715	0.247248
	H26	H	0.118541	0.336503	0.797773
	H27	H	0.906791	0.651628	0.803526
	H28	H	0.229819	0.885379	0.364018
	H29	H	0.231746	0.097994	0.679755
	H30	H	0.786706	0.098477	0.366458
	H31	H	0.786145	0.885776	0.679994
	H32	H	0.351235	0.215208	0.916299
	H33	H	0.665848	0.212488	0.126798
	H34	H	0.351255	0.768492	0.128873
	H35	H	0.663833	0.769110	0.914850
	H36	H	0.350613	0.886009	0.244342
	H37	H	0.666256	0.094773	0.241938
	H38	H	0.352070	0.100192	0.798187
	H39	H	0.663821	0.885406	0.799162
	H40	H	0.905157	0.213007	0.365466
	H41	H	0.115949	0.215084	0.680136
	H42	H	0.114413	0.769456	0.364673
	H43	H	0.905025	0.771840	0.680578
	H44	H	0.235132	0.337210	0.913100
	H45	H	0.235133	0.649117	0.132667
	H46	H	0.789297	0.335134	0.125249
	H47	H	0.786439	0.649012	0.914735
	H48	H	0.418810	0.103811	0.607113
	H49	H	0.596985	0.881407	0.610933
	H50	H	0.604157	0.108379	0.430422
	H51	H	0.415730	0.879206	0.436500
	H52	H	0.598565	0.399634	0.135272
	H53	H	0.600742	0.579768	0.907257
	H54	H	0.424787	0.587378	0.134776
	H55	H	0.419743	0.406995	0.910202
	H56	H	0.120675	0.578305	0.436520
	H57	H	0.896062	0.580368	0.618898
	H58	H	0.122844	0.405267	0.615723
	H59	H	0.900752	0.408313	0.436997
	H60	H	0.121411	0.399711	0.607829
	H61	H	0.897023	0.588505	0.608773
	H62	H	0.121507	0.579708	0.431375
	H63	H	0.895668	0.405541	0.426669
	H64	H	0.414738	0.576336	0.134837
	H65	H	0.596098	0.577648	0.909412
	H66	H	0.603741	0.403389	0.135851
	H67	H	0.423809	0.405893	0.911738
	H68	H	0.590665	0.105480	0.429887
	H69	H	0.597236	0.881477	0.609771
	H70	H	0.420685	0.106000	0.612729
	H71	H	0.417608	0.877066	0.428607
	H72	H	0.917500	0.609655	0.119230
	H73	H	0.092507	0.384569	0.105426
	H74	H	0.096244	0.604210	0.937285
	H75	H	0.917398	0.377689	0.931236
	H76	H	0.099752	0.909320	0.634499
	H77	H	0.096350	0.077537	0.412094
	H78	H	0.923337	0.081689	0.635426
	H79	H	0.919336	0.905249	0.410799
	H80	H	0.622396	0.086545	0.932171
	H81	H	0.394707	0.084280	0.110462
	H82	H	0.619563	0.900587	0.108165
	H83	H	0.395239	0.900268	0.935378
	H84	H	0.618531	0.906705	0.112672
	H85	H	0.395189	0.081474	0.113420
	H86	H	0.616828	0.080670	0.942496
	H87	H	0.399437	0.908362	0.940523
	H88	H	0.919668	0.081685	0.636622
	H89	H	0.096281	0.083688	0.409190
	H90	H	0.094112	0.904592	0.633408
	H91	H	0.920839	0.903859	0.411283
	H92	H	0.097302	0.605029	0.936449
	H93	H	0.101767	0.381798	0.105489
	H94	H	0.929368	0.602368	0.108122
	H95	H	0.922987	0.379921	0.930945
	H96	H	0.424462	0.102969	0.608918
	H97	H	0.597965	0.881158	0.610205
	H98	H	0.598057	0.103222	0.441675
	H99	H	0.423241	0.880719	0.433529
	H100	H	0.598112	0.405562	0.133150
	H101	H	0.595959	0.582989	0.907587
	H102	H	0.428152	0.574037	0.128871
	H103	H	0.421469	0.403152	0.910293
	H104	H	0.122057	0.583335	0.435647
	H105	H	0.901637	0.576492	0.607870
	H106	H	0.118854	0.409262	0.608087
	H107	H	0.896677	0.397625	0.435254
	H108	H	0.913252	0.605954	0.102604
	H109	H	0.096186	0.380170	0.113038
	H110	H	0.095907	0.604118	0.935601
	H111	H	0.920014	0.380479	0.936467
	H112	H	0.100293	0.901890	0.636202
	H113	H	0.101822	0.080333	0.409309
	H114	H	0.920955	0.079041	0.634817
	H115	H	0.919080	0.903334	0.409719
	H116	H	0.618664	0.074301	0.930910
	H117	H	0.392952	0.085328	0.114562
	H118	H	0.621958	0.901080	0.115321
	H119	H	0.395920	0.909817	0.930753
	C120	C	0.388136	0.000612	0.642995
	C121	C	0.630814	0.984691	0.644742
	C122	C	0.629762	0.001222	0.401616
	C123	C	0.387041	0.983512	0.400817
	C124	C	0.631682	0.369804	0.030312
	C125	C	0.630202	0.613243	1.012016
	C126	C	0.387893	0.613720	0.029889
	C127	C	0.388395	0.372875	1.014461
	C128	C	0.017802	0.613434	0.401588
	C129	C	1.001572	0.614903	0.644960
	C130	C	0.017864	0.371724	0.643909
	C131	C	1.000931	0.370215	0.399817
	C132	C	0.888336	0.501600	0.142093
	C133	C	0.130755	0.485082	0.142911
	C134	C	0.131029	0.501380	0.901445
	C135	C	0.888318	0.483915	0.900583
	C136	C	0.130432	0.871238	0.530792
	C137	C	0.130538	0.113388	0.514215
	C138	C	0.888249	0.113507	0.531860
	C139	C	0.887359	0.871267	0.514621
	C140	C	0.516421	0.114434	0.901103
	C141	C	0.499021	0.114384	0.144222
	C142	C	0.516097	0.870154	0.144340
	C143	C	0.499886	0.872332	0.901784
	C144	C	0.384795	0.882877	0.704851
	C145	C	0.634341	0.102401	0.707184
	C146	C	0.631933	0.882505	0.341277
	C147	C	0.384899	0.102920	0.341693
	C148	C	0.690687	0.366849	0.911131
	C149	C	0.690242	0.615153	0.130887
	C150	C	0.324188	0.619846	0.913098
	C151	C	0.326800	0.369492	0.132373
	C152	C	0.899580	0.673562	0.399640
	C153	C	0.119022	0.676821	0.649139
	C154	C	0.899707	0.311436	0.646454
	C155	C	0.118839	0.309730	0.397522
	C156	C	0.899677	0.369730	0.704157
	C157	C	0.119283	0.618628	0.706684
	C158	C	0.899675	0.615765	0.341173
	C159	C	0.118633	0.367103	0.338798
	C160	C	0.382964	0.676425	0.912589
	C161	C	0.632270	0.673145	0.131198
	C162	C	0.632835	0.308873	0.911629
	C163	C	0.386264	0.313266	0.133500
	C164	C	0.690371	0.882718	0.399033
	C165	C	0.692315	0.102322	0.649570
	C166	C	0.326798	0.882643	0.647249
	C167	C	0.326995	0.102441	0.398995
	C168	C	0.885964	0.383128	0.202675
	C169	C	0.135457	0.602583	0.206142
	C170	C	0.135646	0.383552	0.838655
	C171	C	0.887470	0.603503	0.842238
	C172	C	0.190250	0.867667	0.411698
	C173	C	0.191422	0.116359	0.632667
	C174	C	0.827276	0.116604	0.413586
	C175	C	0.826800	0.868094	0.632785
	C176	C	0.398330	0.174873	0.898127
	C177	C	0.618452	0.172474	0.145202
	C178	C	0.398155	0.809083	0.146941
	C179	C	0.617113	0.810002	0.897572
	C180	C	0.397931	0.867763	0.204421
	C181	C	0.618435	0.114259	0.202823
	C182	C	0.398776	0.117835	0.839204
	C183	C	0.617137	0.868103	0.840186
	C184	C	0.885839	0.173857	0.413236
	C185	C	0.133798	0.174601	0.632659
	C186	C	0.132682	0.809842	0.412103
	C187	C	0.885715	0.811100	0.633103
	C188	C	0.193880	0.384033	0.895923
	C189	C	0.193495	0.602540	0.148748
	C190	C	0.828769	0.382649	0.144151
	C191	C	0.827316	0.602050	0.897252
	C192	C	0.413839	0.082848	0.616989
	C193	C	0.604845	0.902679	0.617928
	C194	C	0.604900	0.084151	0.426871
	C195	C	0.411993	0.900698	0.425718
	C196	C	0.607397	0.395560	0.113294
	C197	C	0.604767	0.587676	0.929551
	C198	C	0.414756	0.586782	0.111496
	C199	C	0.414160	0.398100	0.932334
	C200	C	0.100007	0.587963	0.427204
	C201	C	0.919762	0.589190	0.619078
	C202	C	0.099672	0.397488	0.618123
	C203	C	0.918874	0.396327	0.425713
	C204	C	0.913107	0.584628	0.117051
	C205	C	0.104269	0.403386	0.115778
	C206	C	0.104404	0.583055	0.928644
	C207	C	0.913159	0.400776	0.925665
	C208	C	0.105364	0.897666	0.613192
	C209	C	0.105278	0.087677	0.431671
	C210	C	0.914053	0.088134	0.614168
	C211	C	0.912487	0.896864	0.432057
	C212	C	0.598184	0.088061	0.927573
	C213	C	0.416131	0.090531	0.119874
	C214	C	0.598438	0.895469	0.119228
	C215	C	0.418168	0.898599	0.928294
	Zn216	Zn	0.508245	-0.006985	0.772546
	Zn217	Zn	0.507603	-0.007687	0.272687
	Zn218	Zn	0.759813	0.492037	0.020630
	Zn219	Zn	0.259444	0.493666	0.022492
	Zn220	Zn	0.009656	0.743034	0.523106
	Zn221	Zn	0.009616	0.242592	0.522875
	Zn222	Zn	0.010023	0.492874	0.773051
	Zn223	Zn	0.009794	0.492735	0.271300
	Zn224	Zn	0.508265	0.742347	0.021643
	Zn225	Zn	0.507922	0.243187	0.022215
	Zn226	Zn	0.758930	-0.006831	0.523454
	Zn227	Zn	0.259238	-0.008056	0.522258
	N228	N	0.422466	0.957159	0.702054
	N229	N	0.596868	0.027937	0.704565
	N230	N	0.595000	0.957221	0.342876
	N231	N	0.421386	0.027865	0.342667
	N232	N	0.689776	0.404187	0.985909
	N233	N	0.689314	0.578950	0.055675
	N234	N	0.327499	0.581380	0.986992
	N235	N	0.327786	0.405590	0.057250
	N236	N	0.974019	0.672071	0.436529
	N237	N	0.044925	0.674672	0.611460
	N238	N	0.974259	0.312413	0.610121
	N239	N	0.044710	0.311723	0.434815
	N240	N	0.974333	0.406397	0.702788
	N241	N	0.045309	0.580836	0.704250
	N242	N	0.974337	0.579364	0.342201
	N243	N	0.044168	0.404047	0.340090
	N244	N	0.421733	0.672755	0.986114
	N245	N	0.595688	0.672241	0.056322
	N246	N	0.597007	0.310403	0.986869
	N247	N	0.423771	0.315258	0.059171
	N248	N	0.689319	0.957758	0.435725
	N249	N	0.690214	0.028109	0.611586
	N250	N	0.329140	0.956698	0.609117
	N251	N	0.328174	0.027258	0.434960
	N252	N	0.922366	0.458100	0.201522
	N253	N	0.097047	0.528681	0.202501
	N254	N	0.097403	0.457637	0.841864
	N255	N	0.924696	0.528838	0.844204
	N256	N	0.189239	0.904975	0.486516
	N257	N	0.189801	0.079231	0.557748
	N258	N	0.828424	0.080294	0.488545
	N259	N	0.827625	0.904587	0.557981
	N260	N	0.472344	0.172734	0.935810
	N261	N	0.543286	0.173113	0.109900
	N262	N	0.472674	0.810331	0.110322
	N263	N	0.543158	0.812523	0.935286
	N264	N	0.472339	0.904603	0.203192
	N265	N	0.543154	0.078966	0.202551
	N266	N	0.473434	0.081243	0.840750
	N267	N	0.543341	0.906228	0.842675
	N268	N	0.922938	0.172170	0.487824
	N269	N	0.096799	0.172861	0.558157
	N270	N	0.096594	0.811686	0.487176
	N271	N	0.922736	0.813053	0.558521
	N272	N	0.190991	0.458131	0.934312
	N273	N	0.190557	0.528604	0.109894
	N274	N	0.830280	0.457294	0.107072
	N275	N	0.827764	0.526603	0.932731
	O276	O	0.595731	0.528028	0.521444
	H277	H	0.606760	0.523379	0.523338
	H278	H	0.605047	0.528845	0.530563
	O279	O	0.327480	0.672704	0.341113
	H280	H	0.316838	0.619817	0.332675
	H281	H	0.322337	0.683421	0.380655
	O282	O	0.847987	1.179328	-0.163002
	H283	H	0.855094	1.157529	-0.158978
	H284	H	0.841727	1.167923	-0.152136
	O285	O	0.301137	0.384907	0.424181
	H286	H	0.295518	0.390188	0.446500
	H287	H	0.326380	0.363440	0.435718
	O288	O	0.029356	-0.088499	-0.048835
	H289	H	0.034336	-0.096973	-0.045716
	H290	H	0.025758	-0.081665	-0.057775
	O291	O	0.343212	0.669677	0.509056
	H292	H	0.319945	0.693881	0.507571
	H293	H	0.352896	0.647019	0.525552
	O294	O	0.197621	0.813739	-0.162167
	H295	H	0.179650	0.841896	-0.168683
	H296	H	0.192725	0.802967	-0.129897
	O297	O	0.710195	0.284337	0.504945
	H298	H	0.715750	0.269452	0.483657
	H299	H	0.707244	0.267438	0.494490
	O300	O	0.467508	0.593882	0.521515
	H301	H	0.468429	0.594486	0.524438
	H302	H	0.486501	0.591253	0.516308
	O303	O	0.812038	0.794123	0.217206
	H304	H	0.813109	0.817850	0.228093
	H305	H	0.794655	0.773550	0.224045
	O306	O	0.114248	1.027396	0.998326
	H307	H	0.102220	1.038875	1.004988
	H308	H	0.108612	1.019149	1.000328
	O309	O	0.292300	0.285123	0.550888
	H310	H	0.283038	0.266613	0.572097
	H311	H	0.295398	0.281671	0.579258
	O312	O	0.392683	0.489768	0.308302
	H313	H	0.401195	0.469756	0.320675
	H314	H	0.385197	0.478054	0.306775
	O315	O	0.185571	0.016166	1.209386
	H316	H	0.191751	0.003849	1.218381
	H317	H	0.192463	0.019707	1.219241
	O318	O	0.180573	1.001777	0.004160
	H319	H	0.190170	0.988672	-0.003080
	H320	H	0.169707	0.994057	-0.001826
	O321	O	0.285391	0.520287	0.551552
	H322	H	0.295492	0.503004	0.543644
	H323	H	0.283650	0.512856	0.565255
	O324	O	0.813332	0.006405	0.818900
	H325	H	0.813423	-0.016400	0.812622
	H326	H	0.794760	-0.006170	0.824183
	O327	O	1.059765	-0.188515	1.061955
	H328	H	1.054384	-0.179963	1.065859
	H329	H	1.063595	-0.185974	1.059548
	O330	O	0.714404	0.514756	-0.274127
	H331	H	0.697359	0.497698	-0.268150
	H332	H	0.718322	0.497978	-0.264720
	O333	O	1.216833	1.010940	0.900710
	H334	H	1.219763	0.983837	0.913747
	H335	H	1.227605	1.030050	0.903972
	O336	O	0.797029	-0.218027	1.015829
	H337	H	0.786627	-0.232103	1.026969
	H338	H	0.789004	-0.230397	1.039590
	O339	O	0.200487	0.184166	0.210490
	H340	H	0.194978	0.146576	0.220350
	H341	H	0.196719	0.198568	0.205335
	O342	O	0.431547	0.469700	0.478790
	H343	H	0.431552	0.476013	0.481489
	H344	H	0.432684	0.471298	0.460643
	O345	O	0.036452	0.020198	0.075892
	H346	H	0.042772	0.024370	0.066622
	H347	H	0.036935	0.020291	0.083951
	O348	O	0.973558	-0.123925	1.221345
	H349	H	0.960382	-0.124645	1.221618
	H350	H	0.955117	-0.143598	1.228460
	O351	O	1.070734	1.201383	-0.027383
	H352	H	1.082230	1.201394	-0.013802
	H353	H	1.061162	1.209402	-0.040513
	O354	O	0.461160	0.553720	0.318873
	H355	H	0.447200	0.532783	0.332846
	H356	H	0.459244	0.554406	0.303662
	O357	O	1.162653	0.901624	1.124530
	H358	H	1.152945	0.911690	1.115407
	H359	H	1.152591	0.887863	1.136464
	O360	O	0.713613	0.312611	0.322797
	H361	H	0.738436	0.292948	0.296383
	H362	H	0.719459	0.357298	0.328582
	O363	O	0.533697	0.691892	0.615944
	H364	H	0.520984	0.690274	0.612629
	H365	H	0.520963	0.693255	0.601465
	O366	O	1.484314	0.284122	0.734180
	H367	H	1.482885	0.277912	0.716897
	H368	H	1.491203	0.264953	0.749591
	O369	O	0.300210	0.471653	0.730353
	H370	H	0.283267	0.481505	0.747326
	H371	H	0.312007	0.491337	0.730743
	O372	O	0.623147	0.532680	0.380798
	H373	H	0.611344	0.566065	0.381496
	H374	H	0.629958	0.537661	0.384214
	O375	O	0.030914	1.201465	1.228908
	H376	H	0.038062	1.223077	1.252752
	H377	H	0.030150	1.206853	1.203910
	O378	O	0.898630	-0.059744	-0.045972
	H379	H	0.910987	-0.077051	-0.041781
	H380	H	0.905295	-0.076236	-0.054088
	O381	O	1.035278	-0.213305	-0.182967
	H382	H	1.038504	-0.229597	-0.207980
	H383	H	1.028686	-0.197924	-0.169941
	O384	O	-0.204070	-0.060341	0.985330
	H385	H	-0.209151	-0.082396	0.972826
	H386	H	-0.190029	-0.071207	1.001282
	O387	O	-0.292123	1.471958	0.573960
	H388	H	-0.303456	1.477058	0.598728
	H389	H	-0.285909	1.440082	0.572581
	O390	O	0.221864	0.202231	1.050146
	H391	H	0.226966	0.221072	1.045594
	H392	H	0.225825	0.198776	1.070757
	O393	O	0.959562	1.207550	-0.191117
	H394	H	0.945726	1.213254	-0.208858
	H395	H	0.956006	1.217632	-0.191812
	O396	O	0.484384	0.703692	0.308191
	H397	H	0.453286	0.698614	0.316349
	H398	H	0.473273	0.725916	0.284557
	O399	O	-0.203421	-0.038235	0.232889
	H400	H	-0.188302	-0.041312	0.243557
	H401	H	-0.213787	-0.037063	0.245452
	O402	O	-0.062483	-0.025401	0.943882
	H403	H	-0.056451	-0.032629	0.936392
	H404	H	-0.061759	-0.018409	0.945139
	O405	O	0.200714	-0.222002	0.017712
	H406	H	0.195878	-0.228324	0.033180
	H407	H	0.208543	-0.237357	-0.001616
	O408	O	0.675658	0.411096	0.594914
	H409	H	0.681016	0.402703	0.597933
	H410	H	0.659467	0.389205	0.595584
	O411	O	0.661498	0.606362	0.405286
	H412	H	0.654664	0.590017	0.419825
	H413	H	0.652324	0.596970	0.410014
	O414	O	0.547199	0.271508	0.299544
	H415	H	0.552240	0.241300	0.272407
	H416	H	0.593765	0.272306	0.301789
	O417	O	0.628658	0.441782	0.395602
	H418	H	0.639003	0.456924	0.382435
	H419	H	0.617083	0.436192	0.411135
	O420	O	0.692458	0.672370	0.716771
	H421	H	0.697333	0.623216	0.724837
	H422	H	0.675529	0.681378	0.704832
	O423	O	-0.195281	1.199624	0.227833
	H424	H	-0.178647	1.183173	0.216127
	H425	H	-0.181174	1.194110	0.212673
	O426	O	0.388363	1.603125	0.720483
	H427	H	0.396295	1.617623	0.711828
	H428	H	0.379599	1.607203	0.710583
	O429	O	0.002958	0.892154	0.162006
	H430	H	-0.009653	0.894181	0.159918
	H431	H	0.021523	0.883609	0.163302
	O432	O	0.477211	0.367204	0.391443
	H433	H	0.475871	0.354252	0.388116
	H434	H	0.477157	0.365221	0.390940
	O435	O	-0.141419	0.033093	0.137992
	H436	H	-0.126485	0.026522	0.143624
	H437	H	-0.131963	0.041658	0.136031
	O438	O	1.103502	-0.006714	-0.184905
	H439	H	1.106397	0.008124	-0.179234
	H440	H	1.083678	0.007296	-0.178066
	O441	O	0.535578	0.372707	0.529628
	H442	H	0.541248	0.361648	0.518402
	H443	H	0.521230	0.378421	0.516913
	O444	O	-0.197688	1.195090	1.003198
	H445	H	-0.225075	1.214950	0.995984
	H446	H	-0.201298	1.160187	1.001216
	O447	O	0.560482	0.410799	-0.461375
	H448	H	0.551438	0.410448	-0.463943
	H449	H	0.565464	0.428116	-0.471156
	O450	O	0.319840	0.305433	0.709802
	H451	H	0.309559	0.354742	0.715912
	H452	H	0.350489	0.293221	0.725935
	O453	O	0.468448	0.711533	0.611905
	H454	H	0.468103	0.721956	0.609222
	H455	H	0.471247	0.717514	0.599191
	O456	O	0.888472	0.784973	-0.084511
	H457	H	0.882324	0.784149	-0.077484
	H458	H	0.888926	0.787437	-0.080567
	O459	O	0.518191	0.470328	0.708304
	H460	H	0.518803	0.461020	0.703171
	H461	H	0.497240	0.482877	0.701386
	O462	O	0.715343	0.702120	0.541996
	H463	H	0.719652	0.707395	0.559936
	H464	H	0.709891	0.717913	0.541088
	O465	O	0.947841	0.201032	0.073128
	H466	H	0.957620	0.195942	0.060000
	H467	H	0.920773	0.205027	0.059623
