data_Molecule from HDF5

_cell_length_a		16.281872
_cell_length_b		16.264694
_cell_length_c		16.263083
_cell_angle_alpha	90.098428
_cell_angle_beta	89.901812
_cell_angle_gamma	89.906404
_symmetry_space_group_name_H-M	'P 1'
_symmetry_Int_Tables_number		1

loop_
	_symmetry_equiv_pos_as_xyz
	x,y,z

loop_
	_atom_site_label
	_atom_site_type_symbol
	_atom_site_fract_x
	_atom_site_fract_y
	_atom_site_fract_z
	H0	H	0.399124	0.845659	0.720032
	H1	H	0.595133	0.173655	0.718699
	H2	H	0.596792	0.845321	0.290258
	H3	H	0.401463	0.173665	0.292251
	H4	H	0.715306	0.409426	0.842791
	H5	H	0.711980	0.607755	0.169480
	H6	H	0.283812	0.608206	0.842255
	H7	H	0.284796	0.411195	0.169395
	H8	H	0.835220	0.724773	0.406919
	H9	H	0.161665	0.725263	0.604663
	H10	H	0.834179	0.296018	0.603829
	H11	H	0.162849	0.295104	0.407019
	H12	H	0.834589	0.412631	0.719037
	H13	H	0.162522	0.607975	0.719601
	H14	H	0.834612	0.607678	0.292332
	H15	H	0.163099	0.411479	0.291342
	H16	H	0.400239	0.722621	0.841502
	H17	H	0.597807	0.724595	0.168929
	H18	H	0.598643	0.295758	0.841265
	H19	H	0.399968	0.293906	0.168467
	H20	H	0.714884	0.845617	0.404293
	H21	H	0.711075	0.174233	0.602507
	H22	H	0.283986	0.845350	0.602763
	H23	H	0.284287	0.173373	0.407073
	H24	H	0.900982	0.345655	0.220059
	H25	H	0.095520	0.673674	0.219003
	H26	H	0.097720	0.345330	0.790806
	H27	H	0.900226	0.673384	0.792265
	H28	H	0.212796	0.911466	0.341357
	H29	H	0.211906	0.108742	0.669520
	H30	H	0.783819	0.108727	0.341235
	H31	H	0.784227	0.913304	0.669162
	H32	H	0.335851	0.225231	0.906485
	H33	H	0.663522	0.222317	0.102383
	H34	H	0.334823	0.795616	0.103873
	H35	H	0.662683	0.794852	0.906024
	H36	H	0.334935	0.912192	0.219055
	H37	H	0.662783	0.108270	0.220129
	H38	H	0.334381	0.107233	0.792389
	H39	H	0.662062	0.910699	0.789783
	H40	H	0.900674	0.223649	0.340831
	H41	H	0.093535	0.221589	0.669942
	H42	H	0.096630	0.795510	0.341090
	H43	H	0.899158	0.795770	0.668866
	H44	H	0.213639	0.345399	0.906723
	H45	H	0.212619	0.673601	0.103999
	H46	H	0.784230	0.345458	0.104797
	H47	H	0.784648	0.673183	0.908648
	H48	H	0.413971	0.125694	0.607601
	H49	H	0.593689	0.894694	0.592420
	H50	H	0.580490	0.123662	0.408954
	H51	H	0.405199	0.892803	0.412265
	H52	H	0.590570	0.416041	0.122333
	H53	H	0.598603	0.602448	0.886718
	H54	H	0.400577	0.596461	0.122109
	H55	H	0.404457	0.417056	0.889493
	H56	H	0.117678	0.608095	0.408407
	H57	H	0.885781	0.598558	0.593021
	H58	H	0.113854	0.417749	0.595653
	H59	H	0.880697	0.418101	0.406333
	H60	H	0.115882	0.416950	0.601455
	H61	H	0.881179	0.599864	0.604805
	H62	H	0.114016	0.603366	0.419146
	H63	H	0.881211	0.410166	0.414200
	H64	H	0.413452	0.601546	0.119485
	H65	H	0.590048	0.595350	0.890935
	H66	H	0.591175	0.416165	0.122170
	H67	H	0.407421	0.417518	0.889835
	H68	H	0.593311	0.123243	0.422895
	H69	H	0.594009	0.890930	0.601510
	H70	H	0.407272	0.121451	0.586359
	H71	H	0.403604	0.891962	0.411247
	H72	H	0.899208	0.627532	0.098178
	H73	H	0.088070	0.393752	0.099025
	H74	H	0.104715	0.631320	0.906528
	H75	H	0.911097	0.393838	0.911786
	H76	H	0.093182	0.921540	0.621041
	H77	H	0.086648	0.107607	0.388596
	H78	H	0.901514	0.101831	0.622423
	H79	H	0.904439	0.921249	0.389573
	H80	H	0.614949	0.101684	0.911654
	H81	H	0.385242	0.096232	0.096858
	H82	H	0.612170	0.921882	0.093719
	H83	H	0.380624	0.914304	0.909762
	H84	H	0.617523	0.916207	0.104836
	H85	H	0.380482	0.104973	0.105069
	H86	H	0.616184	0.101508	0.910979
	H87	H	0.382934	0.914226	0.915188
	H88	H	0.906150	0.103885	0.621095
	H89	H	0.098625	0.104345	0.385292
	H90	H	0.086472	0.917435	0.620167
	H91	H	0.911145	0.917397	0.390168
	H92	H	0.078934	0.624890	0.903738
	H93	H	0.094026	0.393522	0.094756
	H94	H	0.906163	0.627126	0.105257
	H95	H	0.904050	0.393250	0.917150
	H96	H	0.392955	0.130685	0.601897
	H97	H	0.585695	0.894400	0.597658
	H98	H	0.598476	0.129964	0.405554
	H99	H	0.405352	0.892180	0.410258
	H100	H	0.590469	0.416627	0.121438
	H101	H	0.588034	0.607185	0.888607
	H102	H	0.403068	0.609986	0.124995
	H103	H	0.406632	0.414956	0.887320
	H104	H	0.114929	0.596255	0.408787
	H105	H	0.880782	0.610054	0.597420
	H106	H	0.115877	0.411764	0.597886
	H107	H	0.885052	0.420420	0.416174
	H108	H	0.908901	0.623706	0.094907
	H109	H	0.094556	0.391046	0.101574
	H110	H	0.091152	0.621248	0.926869
	H111	H	0.903196	0.390322	0.908523
	H112	H	0.092491	0.914179	0.623205
	H113	H	0.091001	0.095866	0.391265
	H114	H	0.902643	0.106296	0.623103
	H115	H	0.905491	0.913937	0.387113
	H116	H	0.615687	0.102687	0.911431
	H117	H	0.382386	0.108038	0.092707
	H118	H	0.615989	0.909841	0.093588
	H119	H	0.382811	0.918699	0.911601
	C120	C	0.376226	0.017771	0.626755
	C121	C	0.619359	1.001510	0.625746
	C122	C	0.620049	0.017592	0.383619
	C123	C	0.376824	1.000833	0.383325
	C124	C	0.620616	0.387680	0.014014
	C125	C	0.620129	0.630572	0.997126
	C126	C	0.377054	0.631161	0.014031
	C127	C	0.377742	0.387989	0.996938
	C128	C	0.007019	0.631102	0.383990
	C129	C	0.990402	0.631572	0.627232
	C130	C	0.006678	0.387947	0.626778
	C131	C	0.990825	0.387740	0.383605
	C132	C	0.876491	0.518022	0.127723
	C133	C	0.119864	0.501301	0.126600
	C134	C	0.120744	0.517687	0.883540
	C135	C	0.877212	0.500713	0.884388
	C136	C	0.119599	0.888673	0.513365
	C137	C	0.119955	0.130960	0.496912
	C138	C	0.875989	0.131661	0.513632
	C139	C	0.877126	0.888572	0.496840
	C140	C	0.507352	0.131060	0.883443
	C141	C	0.491064	0.131235	0.126789
	C142	C	0.507042	0.887695	0.126298
	C143	C	0.490190	0.887040	0.883138
	C144	C	0.378975	0.894235	0.681560
	C145	C	0.615919	0.124788	0.680741
	C146	C	0.618009	0.894175	0.327948
	C147	C	0.380215	0.124472	0.329288
	C148	C	0.676720	0.389600	0.891024
	C149	C	0.674803	0.628373	0.120418
	C150	C	0.321938	0.628423	0.890910
	C151	C	0.322735	0.390749	0.120443
	C152	C	0.883967	0.686493	0.386587
	C153	C	0.113169	0.686814	0.624738
	C154	C	0.883257	0.333630	0.624024
	C155	C	0.114010	0.333008	0.386598
	C156	C	0.883364	0.391433	0.681439
	C157	C	0.113302	0.628909	0.682225
	C158	C	0.883691	0.628463	0.329519
	C159	C	0.114012	0.390612	0.328877
	C160	C	0.379702	0.685628	0.890792
	C161	C	0.617853	0.686295	0.120150
	C162	C	0.619107	0.332521	0.890653
	C163	C	0.380264	0.332771	0.120153
	C164	C	0.676419	0.894538	0.384737
	C165	C	0.673792	0.124982	0.623098
	C166	C	0.321393	0.894320	0.623988
	C167	C	0.322087	0.124248	0.386456
	C168	C	0.879609	0.394520	0.182534
	C169	C	0.116788	0.624918	0.181556
	C170	C	0.118300	0.394394	0.828415
	C171	C	0.879754	0.624314	0.830004
	C172	C	0.174866	0.890937	0.390256
	C173	C	0.174592	0.129080	0.620365
	C174	C	0.821894	0.128766	0.390025
	C175	C	0.821641	0.891762	0.620101
	C176	C	0.384280	0.186980	0.886026
	C177	C	0.614505	0.185276	0.123837
	C178	C	0.383717	0.833381	0.123966
	C179	C	0.613548	0.832365	0.885541
	C180	C	0.383542	0.891481	0.180972
	C181	C	0.614000	0.128347	0.182017
	C182	C	0.383647	0.128372	0.829288
	C183	C	0.613252	0.889797	0.827679
	C184	C	0.879508	0.186250	0.390042
	C185	C	0.115669	0.185094	0.620943
	C186	C	0.117298	0.833296	0.390162
	C187	C	0.878746	0.833565	0.619962
	C188	C	0.176168	0.394505	0.885935
	C189	C	0.174878	0.624668	0.124436
	C190	C	0.821886	0.394532	0.124899
	C191	C	0.822076	0.624111	0.887692
	C192	C	0.398140	0.103666	0.604857
	C193	C	0.597564	0.915428	0.603569
	C194	C	0.597394	0.103374	0.405813
	C195	C	0.398374	0.914692	0.404927
	C196	C	0.597627	0.409963	0.099654
	C197	C	0.598556	0.608326	0.910953
	C198	C	0.399104	0.609180	0.100117
	C199	C	0.399735	0.409984	0.911116
	C200	C	0.093272	0.609055	0.405691
	C201	C	0.904656	0.609361	0.604878
	C202	C	0.092953	0.409273	0.604877
	C203	C	0.904639	0.409783	0.405703
	C204	C	0.898172	0.604014	0.105763
	C205	C	0.098458	0.415202	0.104958
	C206	C	0.098269	0.603742	0.905846
	C207	C	0.899596	0.414718	0.906070
	C208	C	0.097201	0.911078	0.599310
	C209	C	0.098486	0.109094	0.410769
	C210	C	0.897258	0.110453	0.599881
	C211	C	0.900187	0.910880	0.410990
	C212	C	0.593464	0.108579	0.905096
	C213	C	0.405066	0.109389	0.104785
	C214	C	0.593007	0.909692	0.104128
	C215	C	0.404054	0.909207	0.905571
	Zn216	Zn	0.498102	0.009018	0.755123
	Zn217	Zn	0.498796	0.009219	0.255048
	Zn218	Zn	0.748279	0.509163	0.006024
	Zn219	Zn	0.248971	0.509826	0.005706
	Zn220	Zn	-0.001690	0.759687	0.505370
	Zn221	Zn	-0.001405	0.259224	0.505123
	Zn222	Zn	-0.001443	0.509441	0.755325
	Zn223	Zn	-0.001051	0.509726	0.255544
	Zn224	Zn	0.498982	0.758935	0.005104
	Zn225	Zn	0.499568	0.259600	0.005119
	Zn226	Zn	0.748266	0.009597	0.504705
	Zn227	Zn	0.248183	0.009657	0.505155
	N228	N	0.412488	0.971913	0.683369
	N229	N	0.582873	0.046938	0.682688
	N230	N	0.583359	0.971444	0.327324
	N231	N	0.413611	0.046791	0.327194
	N232	N	0.677654	0.423209	0.968514
	N233	N	0.676324	0.594592	0.042843
	N234	N	0.320466	0.595358	0.968553
	N235	N	0.321146	0.424475	0.042853
	N236	N	0.961593	0.687946	0.419955
	N237	N	0.035703	0.688655	0.591319
	N238	N	0.960993	0.331477	0.590439
	N239	N	0.036260	0.330922	0.419720
	N240	N	0.961058	0.424327	0.683197
	N241	N	0.035825	0.595538	0.683964
	N242	N	0.961247	0.594712	0.327877
	N243	N	0.036242	0.423884	0.326828
	N244	N	0.413220	0.687485	0.968427
	N245	N	0.584589	0.687743	0.042435
	N246	N	0.584783	0.331268	0.968066
	N247	N	0.413771	0.330988	0.042598
	N248	N	0.677762	0.972260	0.418527
	N249	N	0.675865	0.047318	0.589561
	N250	N	0.319697	0.971994	0.590551
	N251	N	0.319845	0.046449	0.419302
	N252	N	0.913053	0.472053	0.184305
	N253	N	0.083371	0.547279	0.183111
	N254	N	0.084455	0.472075	0.826945
	N255	N	0.913194	0.546605	0.827667
	N256	N	0.176330	0.924699	0.467839
	N257	N	0.177396	0.096194	0.542384
	N258	N	0.819416	0.095829	0.467717
	N259	N	0.820579	0.925179	0.542415
	N260	N	0.462166	0.188884	0.918824
	N261	N	0.537116	0.187249	0.090125
	N262	N	0.461461	0.831021	0.090636
	N263	N	0.536011	0.830593	0.919260
	N264	N	0.461236	0.924542	0.182595
	N265	N	0.536161	0.095483	0.183935
	N266	N	0.461033	0.094263	0.827643
	N267	N	0.535412	0.923128	0.826188
	N268	N	0.912557	0.188209	0.467971
	N269	N	0.082236	0.186308	0.543330
	N270	N	0.083594	0.831804	0.467864
	N271	N	0.912514	0.831488	0.542358
	N272	N	0.177793	0.472230	0.919504
	N273	N	0.176601	0.547105	0.090744
	N274	N	0.819724	0.472404	0.091752
	N275	N	0.820451	0.546368	0.920797
	O276	O	0.479291	0.532567	0.527897
	H277	H	0.474616	0.531393	0.535958
	H278	H	0.475230	0.535408	0.528211
	O279	O	0.071165	-0.038644	0.010951
	H280	H	0.063248	-0.035125	0.007891
	H281	H	0.074086	-0.040369	0.014843
	O282	O	0.551019	0.479747	0.546466
	H283	H	0.554246	0.481286	0.552112
	H284	H	0.558387	0.492800	0.557126
	O285	O	0.573361	0.496574	0.463508
	H286	H	0.572649	0.489082	0.456938
	H287	H	0.574574	0.496401	0.458116
	O288	O	1.066079	-0.041453	0.017170
	H289	H	1.067825	-0.041514	0.015106
	H290	H	1.072355	-0.044611	0.018479
	O291	O	-0.448203	0.523258	-0.462867
	H292	H	-0.448726	0.528067	-0.453412
	H293	H	-0.446256	0.520046	-0.463957
	O294	O	0.523219	0.453181	0.510421
	H295	H	0.521759	0.461846	0.508600
	H296	H	0.528576	0.450037	0.511700
	O297	O	0.078088	0.957799	0.018766
	H298	H	0.087067	0.955992	0.013614
	H299	H	0.077413	0.953181	0.019379
	O300	O	1.523401	-0.458801	0.510635
	H301	H	1.531804	-0.461517	0.512120
	H302	H	1.524526	-0.468016	0.512941
	O303	O	0.566376	0.482015	0.485154
	H304	H	0.568423	0.468482	0.487511
	H305	H	0.566829	0.480967	0.483349
	O306	O	0.058292	0.961802	1.004685
	H307	H	0.058018	0.959114	1.001227
	H308	H	0.056267	0.962952	1.010748
	O309	O	0.532452	0.583383	0.525866
	H310	H	0.534828	0.583259	0.515874
	H311	H	0.520802	0.585914	0.514376
