data_Molecule from HDF5

_cell_length_a		16.289279
_cell_length_b		16.157522
_cell_length_c		16.318840
_cell_angle_alpha	89.684001
_cell_angle_beta	90.177162
_cell_angle_gamma	89.843380
_symmetry_space_group_name_H-M	'P 1'
_symmetry_Int_Tables_number		1

loop_
	_symmetry_equiv_pos_as_xyz
	x,y,z

loop_
	_atom_site_label
	_atom_site_type_symbol
	_atom_site_fract_x
	_atom_site_fract_y
	_atom_site_fract_z
	H0	H	0.390472	0.833423	0.715787
	H1	H	0.587772	0.162074	0.714447
	H2	H	0.589921	0.833092	0.287076
	H3	H	0.388228	0.160959	0.283639
	H4	H	0.705098	0.397704	0.835765
	H5	H	0.708004	0.596285	0.161238
	H6	H	0.274414	0.598773	0.835955
	H7	H	0.274004	0.396246	0.161692
	H8	H	0.826339	0.713181	0.398846
	H9	H	0.154794	0.710107	0.594535
	H10	H	0.826656	0.283969	0.597975
	H11	H	0.154048	0.283912	0.403075
	H12	H	0.827531	0.399184	0.714542
	H13	H	0.154268	0.598020	0.713747
	H14	H	0.828640	0.602224	0.279227
	H15	H	0.154120	0.398894	0.285175
	H16	H	0.391667	0.713862	0.836637
	H17	H	0.587877	0.707973	0.164278
	H18	H	0.586960	0.283117	0.835838
	H19	H	0.393229	0.283410	0.163303
	H20	H	0.703624	0.833268	0.402345
	H21	H	0.704010	0.162342	0.599296
	H22	H	0.276249	0.832950	0.599547
	H23	H	0.275868	0.162619	0.401065
	H24	H	0.891852	0.334357	0.215259
	H25	H	0.090755	0.662930	0.211986
	H26	H	0.090272	0.333944	0.786399
	H27	H	0.889207	0.661992	0.782132
	H28	H	0.206108	0.897885	0.336663
	H29	H	0.205352	0.095817	0.662274
	H30	H	0.771459	0.100040	0.335821
	H31	H	0.775200	0.896449	0.661974
	H32	H	0.325880	0.212534	0.901401
	H33	H	0.653779	0.209356	0.098374
	H34	H	0.325299	0.783415	0.096854
	H35	H	0.654204	0.784013	0.903873
	H36	H	0.325719	0.897665	0.214617
	H37	H	0.652469	0.095346	0.216150
	H38	H	0.326635	0.100367	0.782443
	H39	H	0.652259	0.896642	0.784451
	H40	H	0.890193	0.214682	0.335340
	H41	H	0.088186	0.209878	0.662828
	H42	H	0.086467	0.786168	0.334272
	H43	H	0.893322	0.782488	0.661943
	H44	H	0.203909	0.333866	0.901430
	H45	H	0.204485	0.661939	0.095748
	H46	H	0.777537	0.333188	0.098618
	H47	H	0.775038	0.662055	0.897952
	H48	H	0.402225	0.115484	0.595267
	H49	H	0.588964	0.879922	0.588207
	H50	H	0.578344	0.112942	0.411016
	H51	H	0.396908	0.879570	0.408179
	H52	H	0.580562	0.406905	0.113149
	H53	H	0.589114	0.592396	0.879977
	H54	H	0.391044	0.595033	0.119246
	H55	H	0.395151	0.401352	0.881386
	H56	H	0.106580	0.596952	0.411028
	H57	H	0.878633	0.576179	0.592820
	H58	H	0.105687	0.406771	0.588628
	H59	H	0.872089	0.407686	0.399940
	H60	H	0.108196	0.407447	0.600166
	H61	H	0.868149	0.597310	0.603141
	H62	H	0.104971	0.583422	0.404857
	H63	H	0.874484	0.402377	0.410226
	H64	H	0.393099	0.579777	0.114032
	H65	H	0.580286	0.584142	0.885691
	H66	H	0.585268	0.398098	0.117159
	H67	H	0.392896	0.408227	0.882888
	H68	H	0.583758	0.116299	0.407535
	H69	H	0.583554	0.877646	0.601604
	H70	H	0.395870	0.113041	0.585507
	H71	H	0.398864	0.881140	0.408604
	H72	H	0.895277	0.616603	0.089231
	H73	H	0.078612	0.378749	0.102758
	H74	H	0.086712	0.618785	0.903829
	H75	H	0.899988	0.383612	0.913441
	H76	H	0.075447	0.904567	0.612512
	H77	H	0.081240	0.098605	0.380463
	H78	H	0.891237	0.088469	0.616058
	H79	H	0.901175	0.906971	0.385028
	H80	H	0.601679	0.075844	0.907728
	H81	H	0.374175	0.093194	0.085196
	H82	H	0.606152	0.907974	0.101662
	H83	H	0.373368	0.908948	0.902273
	H84	H	0.609003	0.896106	0.096611
	H85	H	0.374563	0.081890	0.095121
	H86	H	0.610512	0.094567	0.895150
	H87	H	0.371951	0.901485	0.907075
	H88	H	0.900053	0.085334	0.611996
	H89	H	0.089849	0.086532	0.381547
	H90	H	0.086744	0.895727	0.618187
	H91	H	0.892891	0.900859	0.379480
	H92	H	0.079262	0.615384	0.902299
	H93	H	0.077912	0.384559	0.085872
	H94	H	0.900483	0.615712	0.092346
	H95	H	0.891891	0.377734	0.904942
	H96	H	0.391012	0.117843	0.594807
	H97	H	0.574726	0.883978	0.590935
	H98	H	0.577710	0.115428	0.403745
	H99	H	0.396686	0.879646	0.410599
	H100	H	0.590984	0.406777	0.116394
	H101	H	0.577868	0.596606	0.883399
	H102	H	0.405324	0.590584	0.112860
	H103	H	0.400346	0.405899	0.884195
	H104	H	0.110704	0.595468	0.397055
	H105	H	0.876324	0.597004	0.579301
	H106	H	0.109826	0.396885	0.594250
	H107	H	0.876828	0.413778	0.409297
	H108	H	0.899856	0.612966	0.086560
	H109	H	0.092553	0.377319	0.092575
	H110	H	0.082592	0.614644	0.909436
	H111	H	0.903687	0.380422	0.901385
	H112	H	0.089271	0.909979	0.615165
	H113	H	0.076872	0.085723	0.386178
	H114	H	0.898889	0.095272	0.614762
	H115	H	0.891306	0.911987	0.382757
	H116	H	0.604666	0.096987	0.918175
	H117	H	0.369428	0.095532	0.099398
	H118	H	0.603417	0.905482	0.089484
	H119	H	0.374579	0.907905	0.911516
	C120	C	0.368023	0.006368	0.621356
	C121	C	0.611036	0.989258	0.622120
	C122	C	0.609687	0.006291	0.378992
	C123	C	0.367912	0.988604	0.378896
	C124	C	0.613041	0.375144	0.007632
	C125	C	0.611643	0.618715	0.991025
	C126	C	0.368091	0.618677	0.007630
	C127	C	0.368275	0.376084	0.990656
	C128	C	-0.001039	0.621062	0.375621
	C129	C	0.982641	0.619094	0.619653
	C130	C	-0.000594	0.375785	0.622071
	C131	C	0.982378	0.378258	0.378387
	C132	C	0.869610	0.506568	0.119757
	C133	C	0.112147	0.488945	0.121115
	C134	C	0.111668	0.507529	0.877514
	C135	C	0.868941	0.489069	0.876692
	C136	C	0.111859	0.875892	0.507290
	C137	C	0.111380	0.118800	0.490752
	C138	C	0.866991	0.119839	0.506943
	C139	C	0.867741	0.876657	0.490428
	C140	C	0.497652	0.118878	0.877936
	C141	C	0.481212	0.118475	0.121846
	C142	C	0.497690	0.874474	0.123292
	C143	C	0.481445	0.876235	0.878681
	C144	C	0.370717	0.882300	0.677113
	C145	C	0.608490	0.112969	0.676825
	C146	C	0.609140	0.882285	0.324630
	C147	C	0.369106	0.112308	0.322437
	C148	C	0.667277	0.377514	0.884625
	C149	C	0.668766	0.616416	0.113255
	C150	C	0.312698	0.618126	0.884624
	C151	C	0.312750	0.377311	0.113492
	C152	C	0.875591	0.675883	0.378339
	C153	C	0.105738	0.673094	0.615748
	C154	C	0.875829	0.321443	0.618619
	C155	C	0.105428	0.322058	0.381945
	C156	C	0.876315	0.378604	0.676665
	C157	C	0.105336	0.617371	0.675162
	C158	C	0.876809	0.620937	0.318568
	C159	C	0.105528	0.379172	0.323480
	C160	C	0.370753	0.675475	0.884907
	C161	C	0.608965	0.671780	0.114730
	C162	C	0.608650	0.320562	0.884635
	C163	C	0.372107	0.321248	0.114348
	C164	C	0.665681	0.882318	0.381932
	C165	C	0.666095	0.113075	0.619397
	C166	C	0.313591	0.882173	0.619668
	C167	C	0.313344	0.113052	0.380839
	C168	C	0.871918	0.383237	0.176519
	C169	C	0.110474	0.613410	0.174689
	C170	C	0.109897	0.383307	0.823360
	C171	C	0.869692	0.612837	0.820434
	C172	C	0.167425	0.878118	0.384771
	C173	C	0.167165	0.115952	0.613565
	C174	C	0.810661	0.119525	0.384217
	C175	C	0.813387	0.877437	0.613301
	C176	C	0.374771	0.174977	0.880406
	C177	C	0.604595	0.172303	0.118903
	C178	C	0.374535	0.820196	0.118598
	C179	C	0.604830	0.821598	0.882606
	C180	C	0.374686	0.877009	0.177254
	C181	C	0.603995	0.115470	0.177493
	C182	C	0.374904	0.118462	0.821924
	C183	C	0.603860	0.877413	0.823046
	C184	C	0.869410	0.176581	0.384054
	C185	C	0.108892	0.172942	0.613786
	C186	C	0.108010	0.822657	0.383653
	C187	C	0.871936	0.820619	0.613294
	C188	C	0.166113	0.382891	0.880891
	C189	C	0.167270	0.612778	0.117136
	C190	C	0.815333	0.382676	0.118261
	C191	C	0.812814	0.612815	0.878055
	C192	C	0.389950	0.093159	0.598601
	C193	C	0.589057	0.902784	0.600240
	C194	C	0.586712	0.092489	0.400914
	C195	C	0.390827	0.902465	0.402202
	C196	C	0.591765	0.397283	0.093202
	C197	C	0.589172	0.597240	0.905301
	C198	C	0.390064	0.595288	0.093152
	C199	C	0.389863	0.398448	0.905163
	C200	C	0.085277	0.598349	0.397797
	C201	C	0.896476	0.596746	0.597986
	C202	C	0.085448	0.397412	0.600588
	C203	C	0.896664	0.401330	0.400015
	C204	C	0.891856	0.592989	0.096208
	C205	C	0.089665	0.402356	0.100112
	C206	C	0.089510	0.594021	0.898872
	C207	C	0.891814	0.402926	0.899782
	C208	C	0.090225	0.897198	0.593036
	C209	C	0.088972	0.096937	0.404784
	C210	C	0.889958	0.096468	0.592137
	C211	C	0.888940	0.899780	0.404612
	C212	C	0.583401	0.095776	0.900312
	C213	C	0.394826	0.096704	0.099756
	C214	C	0.584032	0.896623	0.102025
	C215	C	0.395598	0.899369	0.900709
	Zn216	Zn	0.489249	-0.002218	0.749496
	Zn217	Zn	0.488989	-0.002992	0.251314
	Zn218	Zn	0.741614	0.497686	-0.001771
	Zn219	Zn	0.238746	0.497279	-0.001498
	Zn220	Zn	-0.009852	0.747973	0.498077
	Zn221	Zn	-0.009952	0.248234	0.499141
	Zn222	Zn	-0.008982	0.498408	0.749782
	Zn223	Zn	-0.009331	0.499247	0.248484
	Zn224	Zn	0.490138	0.747169	0.000026
	Zn225	Zn	0.489794	0.246975	-0.000415
	Zn226	Zn	0.738124	-0.001979	0.499336
	Zn227	Zn	0.240390	-0.002808	0.499473
	N228	N	0.403789	0.960617	0.678351
	N229	N	0.575091	0.034916	0.678404
	N230	N	0.574936	0.960275	0.322761
	N231	N	0.402433	0.034004	0.321107
	N232	N	0.670108	0.410788	0.961997
	N233	N	0.670500	0.584038	0.035444
	N234	N	0.310575	0.583725	0.961968
	N235	N	0.310093	0.410697	0.035630
	N236	N	0.952582	0.675880	0.413269
	N237	N	0.028299	0.674149	0.581984
	N238	N	0.953408	0.319577	0.585411
	N239	N	0.028105	0.321563	0.415484
	N240	N	0.954075	0.411425	0.679023
	N241	N	0.027632	0.584226	0.677583
	N242	N	0.954666	0.587619	0.316937
	N243	N	0.027964	0.413355	0.320995
	N244	N	0.404541	0.675637	0.962205
	N245	N	0.574341	0.673509	0.037691
	N246	N	0.575705	0.318832	0.962200
	N247	N	0.405914	0.320439	0.037205
	N248	N	0.666067	0.960379	0.415206
	N249	N	0.668022	0.034978	0.586376
	N250	N	0.311812	0.960196	0.585754
	N251	N	0.312553	0.035085	0.415299
	N252	N	0.904981	0.461474	0.177454
	N253	N	0.076968	0.535276	0.177358
	N254	N	0.076664	0.461625	0.821242
	N255	N	0.903757	0.534960	0.819471
	N256	N	0.170039	0.910461	0.462602
	N257	N	0.168716	0.082945	0.536047
	N258	N	0.808909	0.085091	0.461404
	N259	N	0.810471	0.911398	0.535811
	N260	N	0.451954	0.175071	0.914809
	N261	N	0.527223	0.174104	0.085092
	N262	N	0.452257	0.818622	0.085730
	N263	N	0.527711	0.820841	0.916424
	N264	N	0.452457	0.909997	0.180222
	N265	N	0.526026	0.082702	0.179336
	N266	N	0.452522	0.084663	0.820115
	N267	N	0.526041	0.910836	0.820636
	N268	N	0.903776	0.177033	0.461364
	N269	N	0.074727	0.174721	0.536638
	N270	N	0.074206	0.821045	0.460816
	N271	N	0.904679	0.819772	0.535718
	N272	N	0.167222	0.461042	0.913877
	N273	N	0.168192	0.534571	0.084394
	N274	N	0.813811	0.460372	0.083680
	N275	N	0.812392	0.534898	0.912440
	O276	O	0.535097	0.519601	0.504355
	H277	H	0.530300	0.518501	0.503646
	H278	H	0.534730	0.519936	0.511447
	O279	O	0.488593	0.520705	0.530294
	H280	H	0.484503	0.517561	0.535248
	H281	H	0.495526	0.529569	0.533353
	O282	O	0.516685	0.497292	0.539772
	H283	H	0.511874	0.505782	0.543852
	H284	H	0.513944	0.488533	0.542298
	O285	O	0.552723	1.533330	0.470991
	H286	H	0.560323	1.535074	0.468786
	H287	H	0.549197	1.533273	0.468896
	O288	O	0.477871	0.497109	0.431318
	H289	H	0.481972	0.499898	0.418551
	H290	H	0.481329	0.499215	0.435673
	O291	O	-0.148956	-0.016690	0.913236
	H292	H	-0.143277	-0.024171	0.931868
	H293	H	-0.161078	-0.018887	0.904956
	O294	O	0.957087	0.047438	0.873543
	H295	H	0.954009	0.044365	0.868254
	H296	H	0.952755	0.059865	0.870474
	O297	O	0.572182	0.511287	0.552087
	H298	H	0.575724	0.521344	0.553297
	H299	H	0.577797	0.508348	0.549325
	O300	O	0.496329	0.456264	0.491607
	H301	H	0.494872	0.453810	0.483650
	H302	H	0.500726	0.450932	0.492185
	O303	O	0.524391	0.528013	0.388700
	H304	H	0.518708	0.532049	0.385083
	H305	H	0.516971	0.538206	0.389246
	O306	O	0.936690	-0.063280	0.968223
	H307	H	0.929267	-0.064992	0.971360
	H308	H	0.941333	-0.063898	0.966745
	O309	O	0.471212	0.500475	0.479647
	H310	H	0.470910	0.500947	0.481704
	H311	H	0.465834	0.498342	0.474573
	O312	O	0.500155	0.514572	0.509929
	H313	H	0.498790	0.507128	0.516018
	H314	H	0.498623	0.511958	0.493382
	O315	O	0.959969	0.024675	0.955269
	H316	H	0.955897	0.033051	0.960901
	H317	H	0.962768	0.026247	0.953398
	O318	O	-0.067279	0.039886	-0.030528
	H319	H	-0.071536	0.046289	-0.041013
	H320	H	-0.076589	0.040957	-0.039674
	O321	O	0.992498	0.992154	0.931453
	H322	H	0.996860	1.004845	0.936671
	H323	H	0.986860	0.996073	0.925559
	O324	O	0.909489	-0.005367	-0.034456
	H325	H	0.923240	-0.006066	-0.044447
	H326	H	0.905876	-0.002883	-0.032633
	O327	O	0.882246	1.051346	-0.099415
	H328	H	0.873324	1.036219	-0.095240
	H329	H	0.891905	1.054398	-0.107663
	O330	O	0.539630	0.555193	0.495182
	H331	H	0.546458	0.554894	0.495871
	H332	H	0.539151	0.559124	0.501886
	O333	O	0.485710	0.512117	0.482484
	H334	H	0.487895	0.519739	0.479444
	H335	H	0.489067	0.508761	0.477099
