data_Molecule from HDF5

_cell_length_a		16.288631
_cell_length_b		16.251884
_cell_length_c		16.161527
_cell_angle_alpha	89.524010
_cell_angle_beta	90.022518
_cell_angle_gamma	89.715147
_symmetry_space_group_name_H-M	'P 1'
_symmetry_Int_Tables_number		1

loop_
	_symmetry_equiv_pos_as_xyz
	x,y,z

loop_
	_atom_site_label
	_atom_site_type_symbol
	_atom_site_fract_x
	_atom_site_fract_y
	_atom_site_fract_z
	H0	H	0.405087	0.839839	0.708158
	H1	H	0.601243	0.167757	0.705660
	H2	H	0.602159	0.838677	0.282060
	H3	H	0.404700	0.166957	0.276232
	H4	H	0.718507	0.404625	0.829160
	H5	H	0.716768	0.600322	0.157590
	H6	H	0.288339	0.605247	0.828768
	H7	H	0.288788	0.401688	0.157303
	H8	H	0.839957	0.722435	0.391706
	H9	H	0.166726	0.716868	0.589987
	H10	H	0.839918	0.288209	0.594750
	H11	H	0.165591	0.288851	0.392739
	H12	H	0.839082	0.406405	0.707321
	H13	H	0.167026	0.602257	0.706016
	H14	H	0.839196	0.605491	0.276707
	H15	H	0.166456	0.406819	0.278098
	H16	H	0.401778	0.721201	0.829457
	H17	H	0.600892	0.714843	0.158033
	H18	H	0.602888	0.290857	0.828336
	H19	H	0.405941	0.287941	0.157492
	H20	H	0.720486	0.840830	0.395146
	H21	H	0.717939	0.167295	0.591516
	H22	H	0.287833	0.840968	0.595218
	H23	H	0.286855	0.166930	0.389460
	H24	H	0.906136	0.340815	0.208465
	H25	H	0.100400	0.669621	0.203719
	H26	H	0.101415	0.339493	0.780319
	H27	H	0.905140	0.668675	0.778746
	H28	H	0.218381	0.906674	0.327877
	H29	H	0.219349	0.103671	0.656715
	H30	H	0.788634	0.105879	0.328024
	H31	H	0.789695	0.903351	0.656906
	H32	H	0.341124	0.221430	0.892293
	H33	H	0.667710	0.214990	0.090561
	H34	H	0.339711	0.787804	0.093610
	H35	H	0.665905	0.787126	0.894525
	H36	H	0.339302	0.904897	0.208266
	H37	H	0.667556	0.098263	0.205416
	H38	H	0.339440	0.103655	0.777837
	H39	H	0.666918	0.904307	0.779154
	H40	H	0.902812	0.221493	0.328027
	H41	H	0.101594	0.217260	0.657966
	H42	H	0.104163	0.790569	0.327796
	H43	H	0.905575	0.788856	0.656795
	H44	H	0.219625	0.339967	0.893912
	H45	H	0.218105	0.667720	0.091017
	H46	H	0.790474	0.339615	0.093379
	H47	H	0.785221	0.666894	0.890774
	H48	H	0.411098	0.122758	0.590281
	H49	H	0.589960	0.889001	0.588051
	H50	H	0.609475	0.124416	0.400298
	H51	H	0.406424	0.885445	0.402761
	H52	H	0.598631	0.401795	0.113901
	H53	H	0.606140	0.596804	0.871622
	H54	H	0.409779	0.590728	0.109673
	H55	H	0.409059	0.418546	0.875698
	H56	H	0.116084	0.587663	0.401773
	H57	H	0.885896	0.600345	0.582986
	H58	H	0.119648	0.411567	0.586187
	H59	H	0.885406	0.414216	0.396801
	H60	H	0.119567	0.409403	0.586338
	H61	H	0.887164	0.596340	0.584683
	H62	H	0.123347	0.599622	0.387433
	H63	H	0.887164	0.410217	0.403436
	H64	H	0.413724	0.597512	0.111126
	H65	H	0.590504	0.585842	0.879963
	H66	H	0.602674	0.412095	0.111370
	H67	H	0.417507	0.412536	0.877734
	H68	H	0.589149	0.122641	0.386023
	H69	H	0.600754	0.888113	0.578455
	H70	H	0.415574	0.117158	0.580150
	H71	H	0.412656	0.885913	0.397693
	H72	H	0.902410	0.624163	0.087978
	H73	H	0.096178	0.387085	0.088441
	H74	H	0.097074	0.621373	0.897663
	H75	H	0.916877	0.389763	0.903893
	H76	H	0.089394	0.912630	0.607530
	H77	H	0.104067	0.096869	0.372725
	H78	H	0.911106	0.096315	0.609638
	H79	H	0.910790	0.915175	0.374857
	H80	H	0.619858	0.086215	0.889649
	H81	H	0.385860	0.099059	0.084580
	H82	H	0.619254	0.906817	0.082851
	H83	H	0.383146	0.899870	0.902755
	H84	H	0.619401	0.911391	0.088261
	H85	H	0.388316	0.096154	0.083028
	H86	H	0.624704	0.109617	0.895583
	H87	H	0.391693	0.919174	0.910409
	H88	H	0.910924	0.097221	0.610256
	H89	H	0.090582	0.091493	0.378441
	H90	H	0.097377	0.905211	0.611759
	H91	H	0.912578	0.914829	0.375397
	H92	H	0.094397	0.620022	0.898865
	H93	H	0.095076	0.389161	0.084174
	H94	H	0.916567	0.619851	0.086218
	H95	H	0.904544	0.386707	0.904121
	H96	H	0.403632	0.121993	0.580631
	H97	H	0.602410	0.883987	0.591483
	H98	H	0.588278	0.114752	0.410866
	H99	H	0.413222	0.888900	0.405448
	H100	H	0.591995	0.410046	0.109329
	H101	H	0.588109	0.605548	0.874749
	H102	H	0.406107	0.597728	0.113077
	H103	H	0.408964	0.409067	0.873524
	H104	H	0.119635	0.607017	0.405386
	H105	H	0.884747	0.598922	0.587692
	H106	H	0.119053	0.410602	0.584131
	H107	H	0.888160	0.417941	0.403062
	H108	H	0.906522	0.618972	0.075440
	H109	H	0.098996	0.387691	0.085248
	H110	H	0.098179	0.620297	0.900660
	H111	H	0.911184	0.384959	0.893641
	H112	H	0.101177	0.916231	0.608741
	H113	H	0.091600	0.106160	0.374061
	H114	H	0.909680	0.096264	0.609594
	H115	H	0.910885	0.912697	0.374719
	H116	H	0.615964	0.094247	0.912371
	H117	H	0.386631	0.095285	0.086298
	H118	H	0.621600	0.904000	0.088720
	H119	H	0.384870	0.917749	0.889103
	C120	C	0.381724	0.012552	0.613859
	C121	C	0.625603	0.995222	0.614650
	C122	C	0.625273	0.012331	0.371198
	C123	C	0.381727	0.994876	0.371018
	C124	C	0.625672	0.380873	0.002320
	C125	C	0.623562	0.623824	0.984305
	C126	C	0.381237	0.625322	0.002126
	C127	C	0.383233	0.383095	0.984424
	C128	C	0.011739	0.628019	0.369156
	C129	C	0.994499	0.626336	0.613664
	C130	C	0.011417	0.381967	0.614922
	C131	C	0.994248	0.384142	0.371513
	C132	C	0.880996	0.512497	0.113566
	C133	C	0.124943	0.496257	0.113945
	C134	C	0.125358	0.512411	0.870802
	C135	C	0.881094	0.495371	0.870748
	C136	C	0.125085	0.882847	0.500968
	C137	C	0.124278	0.126310	0.483920
	C138	C	0.881450	0.126747	0.501046
	C139	C	0.882842	0.883795	0.484068
	C140	C	0.512218	0.126364	0.869705
	C141	C	0.495318	0.123828	0.113276
	C142	C	0.511627	0.879891	0.115486
	C143	C	0.494441	0.882360	0.871599
	C144	C	0.384417	0.889035	0.670238
	C145	C	0.622155	0.118473	0.668939
	C146	C	0.623074	0.888181	0.318394
	C147	C	0.383952	0.118021	0.314098
	C148	C	0.680911	0.383900	0.878273
	C149	C	0.678540	0.620457	0.108699
	C150	C	0.326229	0.624548	0.877976
	C151	C	0.327632	0.383194	0.108350
	C152	C	0.888782	0.684053	0.371517
	C153	C	0.117673	0.680079	0.610919
	C154	C	0.888753	0.326306	0.614343
	C155	C	0.117108	0.327612	0.373004
	C156	C	0.888266	0.385251	0.670251
	C157	C	0.117817	0.622983	0.668534
	C158	C	0.888135	0.626083	0.314410
	C159	C	0.117653	0.386126	0.315975
	C160	C	0.382542	0.682391	0.878371
	C161	C	0.621112	0.677653	0.108650
	C162	C	0.623432	0.327466	0.877868
	C163	C	0.385697	0.326330	0.108246
	C164	C	0.682189	0.889287	0.374373
	C165	C	0.680498	0.118366	0.612350
	C166	C	0.325791	0.889689	0.614227
	C167	C	0.325457	0.118027	0.370515
	C168	C	0.884914	0.389537	0.170441
	C169	C	0.121830	0.620023	0.167578
	C170	C	0.122631	0.388637	0.817009
	C171	C	0.884026	0.619438	0.815909
	C172	C	0.180811	0.885685	0.377075
	C173	C	0.180439	0.123871	0.607767
	C174	C	0.825848	0.126106	0.377449
	C175	C	0.827454	0.884001	0.607547
	C176	C	0.389465	0.182761	0.871850
	C177	C	0.618715	0.177846	0.111169
	C178	C	0.388351	0.825640	0.113889
	C179	C	0.617305	0.825528	0.873915
	C180	C	0.388474	0.883850	0.170645
	C181	C	0.618635	0.119608	0.167982
	C182	C	0.388852	0.124553	0.814568
	C183	C	0.617829	0.884018	0.816773
	C184	C	0.883078	0.183238	0.377318
	C185	C	0.121848	0.180285	0.608226
	C186	C	0.123588	0.828314	0.376958
	C187	C	0.885134	0.827109	0.607581
	C188	C	0.181298	0.389053	0.873528
	C189	C	0.180375	0.619112	0.111346
	C190	C	0.827661	0.388822	0.112811
	C191	C	0.824658	0.618488	0.871865
	C192	C	0.403729	0.098487	0.590485
	C193	C	0.603961	0.909218	0.592373
	C194	C	0.602296	0.098229	0.392578
	C195	C	0.404257	0.908936	0.394987
	C196	C	0.604090	0.401614	0.089106
	C197	C	0.601361	0.602578	0.897829
	C198	C	0.403510	0.602312	0.088949
	C199	C	0.405414	0.406425	0.897947
	C200	C	0.097612	0.604844	0.391507
	C201	C	0.908255	0.604798	0.591572
	C202	C	0.097116	0.403942	0.592202
	C203	C	0.909026	0.407368	0.394283
	C204	C	0.902204	0.598784	0.090191
	C205	C	0.103161	0.410182	0.092305
	C206	C	0.103169	0.598332	0.892513
	C207	C	0.904093	0.409437	0.893740
	C208	C	0.102578	0.904923	0.587036
	C209	C	0.101990	0.104634	0.397613
	C210	C	0.904012	0.103449	0.587598
	C211	C	0.904937	0.907310	0.397230
	C212	C	0.597902	0.103338	0.892458
	C213	C	0.409375	0.103052	0.091044
	C214	C	0.597843	0.901082	0.093059
	C215	C	0.408807	0.905386	0.894109
	Zn216	Zn	0.503129	0.003698	0.742026
	Zn217	Zn	0.503411	0.002393	0.242823
	Zn218	Zn	0.752165	0.502934	-0.007241
	Zn219	Zn	0.254406	0.503860	-0.007152
	Zn220	Zn	0.003670	0.755175	0.491973
	Zn221	Zn	0.002639	0.254589	0.492632
	Zn222	Zn	0.003540	0.504348	0.742144
	Zn223	Zn	0.002909	0.505640	0.241945
	Zn224	Zn	0.502525	0.752484	-0.006633
	Zn225	Zn	0.504369	0.253947	-0.007285
	Zn226	Zn	0.754165	0.004805	0.492692
	Zn227	Zn	0.253116	0.004303	0.492824
	N228	N	0.418389	0.966360	0.670244
	N229	N	0.589074	0.040782	0.670588
	N230	N	0.588300	0.965517	0.316364
	N231	N	0.418400	0.040480	0.314409
	N232	N	0.682244	0.416387	0.956457
	N233	N	0.680274	0.587806	0.030416
	N234	N	0.325308	0.589795	0.955911
	N235	N	0.325833	0.417756	0.030266
	N236	N	0.966628	0.685505	0.404665
	N237	N	0.039984	0.682247	0.577432
	N238	N	0.966239	0.324246	0.580623
	N239	N	0.039690	0.326434	0.406795
	N240	N	0.965579	0.419377	0.670752
	N241	N	0.039992	0.590497	0.670525
	N242	N	0.965627	0.591955	0.312827
	N243	N	0.040415	0.420738	0.315067
	N244	N	0.416106	0.682835	0.956593
	N245	N	0.587598	0.679968	0.030425
	N246	N	0.589832	0.325416	0.956098
	N247	N	0.419649	0.326362	0.030310
	N248	N	0.683648	0.967391	0.406532
	N249	N	0.682729	0.040725	0.579153
	N250	N	0.323983	0.967482	0.579779
	N251	N	0.324153	0.040507	0.405388
	N252	N	0.917494	0.467553	0.170907
	N253	N	0.087862	0.542686	0.169263
	N254	N	0.088597	0.466291	0.815061
	N255	N	0.918744	0.542105	0.815212
	N256	N	0.181868	0.918989	0.455157
	N257	N	0.182122	0.090876	0.529734
	N258	N	0.824811	0.091564	0.455462
	N259	N	0.826394	0.918960	0.529781
	N260	N	0.467234	0.184297	0.905086
	N261	N	0.541041	0.180589	0.077776
	N262	N	0.465812	0.823212	0.080238
	N263	N	0.539507	0.824326	0.907288
	N264	N	0.466253	0.916765	0.171774
	N265	N	0.541001	0.086649	0.169281
	N266	N	0.466228	0.090237	0.813225
	N267	N	0.540548	0.918620	0.815412
	N268	N	0.916897	0.183695	0.455333
	N269	N	0.087762	0.182087	0.530179
	N270	N	0.089808	0.826297	0.454905
	N271	N	0.918949	0.827028	0.529446
	N272	N	0.183314	0.467031	0.906149
	N273	N	0.182763	0.541027	0.078958
	N274	N	0.825338	0.466445	0.078313
	N275	N	0.822531	0.540269	0.905102
	O276	O	0.971016	0.913859	-0.081211
	H277	H	0.960494	0.907094	-0.083204
	H278	H	0.966214	0.921597	-0.082715
	O279	O	0.459364	-0.484023	1.505309
	H280	H	0.455775	-0.486926	1.500523
	H281	H	0.454432	-0.468349	1.506829
	O282	O	-0.026249	-0.060762	0.010009
	H283	H	-0.017013	-0.061127	0.003557
	H284	H	-0.031349	-0.057941	0.005649
	O285	O	0.433291	0.412242	0.627993
	H286	H	0.434432	0.416739	0.626644
	H287	H	0.429747	0.407821	0.618610
	O288	O	-0.017608	-0.106827	0.009703
	H289	H	-0.025343	-0.104625	0.011999
	H290	H	-0.020002	-0.108420	0.016472
	O291	O	-0.066100	1.017884	-0.001355
	H292	H	-0.073292	1.023447	-0.001864
	H293	H	-0.063628	1.017582	0.014483
	O294	O	0.016168	0.975417	0.022572
	H295	H	0.026352	0.976735	0.020802
	H296	H	0.015448	0.974216	0.021042
	O297	O	0.459873	0.503469	0.515007
	H298	H	0.464037	0.500156	0.512166
	H299	H	0.447396	0.512958	0.518581
	O300	O	0.469535	0.473286	0.457306
	H301	H	0.462950	0.461534	0.457676
	H302	H	0.469710	0.466292	0.457719
	O303	O	0.951660	0.069697	0.849225
	H304	H	0.950107	0.072842	0.842931
	H305	H	0.937795	0.066557	0.841581
	O306	O	0.032213	0.988700	0.993807
	H307	H	0.035449	0.984635	0.994867
	H308	H	0.041110	0.986138	0.993599
	O309	O	-0.014284	1.071050	0.897400
	H310	H	-0.021719	1.079693	0.887074
	H311	H	-0.007549	1.076142	0.894540
	O312	O	-0.037065	-0.001804	0.963917
	H313	H	-0.033985	-0.010075	0.968423
	H314	H	-0.039777	-0.002314	0.962703
	O315	O	0.486983	0.465839	0.489399
	H316	H	0.474509	0.468028	0.499033
	H317	H	0.488016	0.456922	0.503068
	O318	O	-0.023686	-0.031534	1.044382
	H319	H	-0.032911	-0.037311	1.045201
	H320	H	-0.025677	-0.032985	1.035610
	O321	O	0.492205	0.477438	0.490921
	H322	H	0.483349	0.483073	0.488723
	H323	H	0.496569	0.472444	0.480164
	O324	O	0.990343	-0.026185	0.931348
	H325	H	0.982717	-0.027265	0.934896
	H326	H	0.993242	-0.028336	0.925117
	O327	O	1.026930	0.976000	1.034783
	H328	H	1.035076	0.978003	1.025183
	H329	H	1.030684	0.964585	1.039241
	O330	O	0.455831	0.525324	0.423532
	H331	H	0.464469	0.530192	0.416057
	H332	H	0.456422	0.524029	0.418139
	O333	O	0.527977	0.487142	0.463168
	H334	H	0.521726	0.484385	0.463932
	H335	H	0.526770	0.493663	0.468891
	O336	O	0.462334	0.454049	0.509900
	H337	H	0.459833	0.460609	0.509163
	H338	H	0.465890	0.447323	0.518309
	O339	O	0.515562	0.542486	0.457281
	H340	H	0.514267	0.540617	0.447198
	H341	H	0.521002	0.537538	0.463812
	O342	O	0.449241	0.455903	0.552818
	H343	H	0.439012	0.450378	0.559678
	H344	H	0.451140	0.451510	0.562226
	O345	O	0.505141	0.456118	0.548238
	H346	H	0.504590	0.462256	0.531309
	H347	H	0.514000	0.454367	0.544359
