data_Molecule from HDF5

_cell_length_a		16.487086
_cell_length_b		16.456265
_cell_length_c		16.542275
_cell_angle_alpha	89.952687
_cell_angle_beta	89.959975
_cell_angle_gamma	90.059004
_symmetry_space_group_name_H-M	'P 1'
_symmetry_Int_Tables_number		1

loop_
	_symmetry_equiv_pos_as_xyz
	x,y,z

loop_
	_atom_site_label
	_atom_site_type_symbol
	_atom_site_fract_x
	_atom_site_fract_y
	_atom_site_fract_z
	H0	H	0.385753	0.849518	0.744937
	H1	H	0.602439	0.162747	0.744076
	H2	H	0.604651	0.850073	0.293526
	H3	H	0.389124	0.163809	0.300060
	H4	H	0.718718	0.397697	0.865714
	H5	H	0.717604	0.615169	0.176835
	H6	H	0.266970	0.615807	0.867281
	H7	H	0.268890	0.396559	0.177155
	H8	H	0.836179	0.729385	0.413091
	H9	H	0.150169	0.727788	0.627521
	H10	H	0.835292	0.281949	0.629352
	H11	H	0.150020	0.284430	0.416946
	H12	H	0.835943	0.396330	0.746881
	H13	H	0.148598	0.613640	0.745134
	H14	H	0.836623	0.614249	0.296463
	H15	H	0.148940	0.396841	0.297481
	H16	H	0.383952	0.731054	0.865851
	H17	H	0.601292	0.731210	0.176804
	H18	H	0.603415	0.282035	0.864437
	H19	H	0.387619	0.283114	0.177320
	H20	H	0.720800	0.850085	0.409266
	H21	H	0.717846	0.162502	0.628123
	H22	H	0.270274	0.848328	0.627964
	H23	H	0.272744	0.162985	0.415627
	H24	H	0.886879	0.349035	0.242962
	H25	H	0.101872	0.662754	0.246646
	H26	H	0.097524	0.349717	0.800165
	H27	H	0.883079	0.662977	0.796204
	H28	H	0.216618	0.898012	0.362981
	H29	H	0.214002	0.108129	0.677942
	H30	H	0.769387	0.114112	0.365746
	H31	H	0.769181	0.897445	0.677040
	H32	H	0.335925	0.226250	0.916986
	H33	H	0.650833	0.227268	0.125054
	H34	H	0.336801	0.780884	0.130124
	H35	H	0.649486	0.781407	0.912039
	H36	H	0.337802	0.894875	0.246847
	H37	H	0.650345	0.112156	0.242471
	H38	H	0.336992	0.111230	0.799371
	H39	H	0.650543	0.897026	0.795516
	H40	H	0.884812	0.230865	0.366393
	H41	H	0.097238	0.224819	0.678566
	H42	H	0.099858	0.781446	0.363586
	H43	H	0.885847	0.782438	0.677569
	H44	H	0.214016	0.349725	0.916803
	H45	H	0.218310	0.663541	0.130338
	H46	H	0.769754	0.349516	0.127564
	H47	H	0.769211	0.663987	0.913383
	H48	H	0.406006	0.118599	0.612138
	H49	H	0.578230	0.892457	0.614329
	H50	H	0.579748	0.118410	0.424912
	H51	H	0.405112	0.893835	0.436557
	H52	H	0.579971	0.415255	0.133191
	H53	H	0.579675	0.596389	0.908896
	H54	H	0.404661	0.596835	0.134570
	H55	H	0.403751	0.419515	0.909239
	H56	H	0.103266	0.591237	0.435403
	H57	H	0.882021	0.591407	0.607121
	H58	H	0.103422	0.417821	0.609940
	H59	H	0.880408	0.416907	0.435290
	H60	H	0.105213	0.418553	0.612773
	H61	H	0.880088	0.591448	0.611122
	H62	H	0.104123	0.592313	0.433050
	H63	H	0.880984	0.420633	0.433261
	H64	H	0.404829	0.587996	0.131461
	H65	H	0.583116	0.592666	0.909108
	H66	H	0.583532	0.419516	0.132326
	H67	H	0.405003	0.416954	0.909177
	H68	H	0.575268	0.112837	0.436220
	H69	H	0.573620	0.898401	0.603009
	H70	H	0.406147	0.117049	0.607726
	H71	H	0.402843	0.891368	0.430280
	H72	H	0.911402	0.616688	0.109066
	H73	H	0.081020	0.393887	0.112778
	H74	H	0.083723	0.619853	0.935269
	H75	H	0.904670	0.396613	0.937257
	H76	H	0.077399	0.916084	0.630182
	H77	H	0.079913	0.096922	0.408302
	H78	H	0.908106	0.086395	0.629777
	H79	H	0.902771	0.921880	0.409692
	H80	H	0.608238	0.099591	0.932057
	H81	H	0.379884	0.094712	0.112392
	H82	H	0.601865	0.919723	0.102347
	H83	H	0.386604	0.923546	0.941249
	H84	H	0.602832	0.924639	0.108498
	H85	H	0.380146	0.096097	0.109592
	H86	H	0.604771	0.092146	0.935914
	H87	H	0.381103	0.925210	0.923914
	H88	H	0.909696	0.099284	0.633561
	H89	H	0.085727	0.096418	0.406719
	H90	H	0.084637	0.911050	0.634116
	H91	H	0.911458	0.921485	0.412008
	H92	H	0.079676	0.621183	0.929653
	H93	H	0.077989	0.396444	0.108418
	H94	H	0.903208	0.617371	0.104149
	H95	H	0.903282	0.393797	0.932741
	H96	H	0.402105	0.118924	0.608922
	H97	H	0.586080	0.893865	0.603772
	H98	H	0.587950	0.118073	0.435263
	H99	H	0.409995	0.892878	0.431281
	H100	H	0.578564	0.419596	0.130616
	H101	H	0.578852	0.591933	0.911492
	H102	H	0.412831	0.593380	0.130669
	H103	H	0.402428	0.416993	0.908631
	H104	H	0.103514	0.593831	0.434859
	H105	H	0.879695	0.595118	0.608851
	H106	H	0.105071	0.415117	0.611814
	H107	H	0.880386	0.417279	0.430462
	H108	H	0.904110	0.620766	0.113147
	H109	H	0.084293	0.394593	0.108006
	H110	H	0.077146	0.617400	0.935365
	H111	H	0.909046	0.395374	0.933447
	H112	H	0.086030	0.920912	0.631962
	H113	H	0.082581	0.091583	0.408977
	H114	H	0.897877	0.093421	0.636044
	H115	H	0.907158	0.914088	0.409006
	H116	H	0.607489	0.091634	0.927594
	H117	H	0.380731	0.093200	0.110265
	H118	H	0.605140	0.917148	0.108770
	H119	H	0.379149	0.909036	0.932476
	C120	C	0.371878	0.014525	0.642603
	C121	C	0.614045	0.997860	0.641094
	C122	C	0.615998	0.013719	0.397793
	C123	C	0.372895	0.996786	0.399469
	C124	C	0.615052	0.384749	0.029056
	C125	C	0.614756	0.628390	1.012469
	C126	C	0.372121	0.627827	0.029966
	C127	C	0.371337	0.384592	1.012601
	C128	C	0.000805	0.626869	0.399969
	C129	C	0.984125	0.626601	0.642319
	C130	C	0.000758	0.383623	0.644797
	C131	C	0.984111	0.384468	0.400139
	C132	C	0.872451	0.514505	0.141812
	C133	C	0.114902	0.498402	0.143618
	C134	C	0.113225	0.515542	0.901108
	C135	C	0.871266	0.498567	0.900233
	C136	C	0.115665	0.882885	0.528606
	C137	C	0.114419	0.126370	0.512126
	C138	C	0.871329	0.127165	0.530142
	C139	C	0.872602	0.884892	0.513100
	C140	C	0.502903	0.127275	0.899384
	C141	C	0.484709	0.127131	0.142017
	C142	C	0.500858	0.885163	0.141570
	C143	C	0.485154	0.884598	0.898657
	C144	C	0.367979	0.896529	0.704383
	C145	C	0.619513	0.115587	0.703340
	C146	C	0.621675	0.896983	0.334537
	C147	C	0.370583	0.115817	0.339412
	C148	C	0.677887	0.380404	0.912381
	C149	C	0.677111	0.632976	0.129779
	C150	C	0.308592	0.632881	0.913608
	C151	C	0.309862	0.379927	0.130117
	C152	C	0.883268	0.688978	0.395472
	C153	C	0.102500	0.687622	0.645539
	C154	C	0.882904	0.322239	0.647505
	C155	C	0.102438	0.323986	0.398117
	C156	C	0.883146	0.379350	0.706128
	C157	C	0.101816	0.630686	0.704140
	C158	C	0.883495	0.631483	0.337302
	C159	C	0.102003	0.380289	0.338672
	C160	C	0.366578	0.690454	0.913016
	C161	C	0.619218	0.690832	0.129688
	C162	C	0.619988	0.322832	0.911713
	C163	C	0.369061	0.323221	0.130237
	C164	C	0.679630	0.897030	0.392356
	C165	C	0.677073	0.115468	0.645483
	C166	C	0.310715	0.895894	0.645983
	C167	C	0.312617	0.115559	0.397046
	C168	C	0.869032	0.396151	0.202524
	C169	C	0.119432	0.616030	0.205851
	C170	C	0.116074	0.396970	0.840265
	C171	C	0.866343	0.616013	0.837421
	C172	C	0.176191	0.880135	0.410363
	C173	C	0.173914	0.127091	0.630905
	C174	C	0.809838	0.131573	0.412687
	C175	C	0.809850	0.880018	0.630089
	C176	C	0.383592	0.186687	0.898096
	C177	C	0.603312	0.187375	0.143779
	C178	C	0.383511	0.822270	0.146305
	C179	C	0.602714	0.822203	0.894481
	C180	C	0.384229	0.878643	0.205271
	C181	C	0.603155	0.129969	0.202139
	C182	C	0.384122	0.129569	0.839534
	C183	C	0.603054	0.880166	0.836762
	C184	C	0.867279	0.189828	0.413110
	C185	C	0.116033	0.185186	0.631194
	C186	C	0.117856	0.822253	0.410401
	C187	C	0.868498	0.822891	0.630536
	C188	C	0.173804	0.397017	0.898310
	C189	C	0.177238	0.616209	0.147841
	C190	C	0.810918	0.396455	0.144959
	C191	C	0.809380	0.616515	0.895827
	C192	C	0.397597	0.096704	0.616805
	C193	C	0.587152	0.916264	0.614594
	C194	C	0.588750	0.095199	0.424640
	C195	C	0.398472	0.914250	0.425255
	C196	C	0.588379	0.410762	0.110633
	C197	C	0.588163	0.601507	0.931070
	C198	C	0.399482	0.600399	0.111090
	C199	C	0.396514	0.410435	0.930406
	C200	C	0.082444	0.600080	0.426686
	C201	C	0.902024	0.600305	0.616419
	C202	C	0.083135	0.409698	0.618951
	C203	C	0.902154	0.410735	0.425640
	C204	C	0.898850	0.596947	0.115966
	C205	C	0.088673	0.416425	0.117305
	C206	C	0.087578	0.597932	0.926387
	C207	C	0.897927	0.416624	0.926832
	C208	C	0.090167	0.908482	0.610583
	C209	C	0.089722	0.101975	0.429702
	C210	C	0.897584	0.100586	0.611805
	C211	C	0.899464	0.911562	0.431655
	C212	C	0.585403	0.101881	0.924475
	C213	C	0.401883	0.101698	0.117534
	C214	C	0.582133	0.912605	0.114327
	C215	C	0.403600	0.911407	0.924993
	Zn216	Zn	0.494470	0.006200	0.770542
	Zn217	Zn	0.493100	0.005473	0.270586
	Zn218	Zn	0.743029	0.506725	0.021177
	Zn219	Zn	0.243179	0.506959	0.021891
	Zn220	Zn	-0.007148	0.755273	0.520726
	Zn221	Zn	-0.007173	0.255767	0.522034
	Zn222	Zn	-0.007881	0.506269	0.771915
	Zn223	Zn	-0.007284	0.506080	0.271478
	Zn224	Zn	0.493053	0.756402	0.021010
	Zn225	Zn	0.493699	0.256199	0.019993
	Zn226	Zn	0.742870	0.005350	0.520934
	Zn227	Zn	0.243942	0.005056	0.520061
	N228	N	0.405393	0.971159	0.702472
	N229	N	0.580915	0.041596	0.700602
	N230	N	0.582826	0.970613	0.337723
	N231	N	0.407082	0.040711	0.340713
	N232	N	0.674903	0.418265	0.986285
	N233	N	0.674630	0.594996	0.055892
	N234	N	0.311875	0.594806	0.987557
	N235	N	0.310962	0.417358	0.055722
	N236	N	0.957185	0.686191	0.433521
	N237	N	0.028280	0.685102	0.607633
	N238	N	0.957313	0.324705	0.610005
	N239	N	0.028070	0.326241	0.435510
	N240	N	0.957614	0.416789	0.704489
	N241	N	0.027188	0.593435	0.702277
	N242	N	0.957667	0.593475	0.340051
	N243	N	0.027269	0.416974	0.339590
	N244	N	0.405475	0.687252	0.986273
	N245	N	0.581559	0.688382	0.055608
	N246	N	0.581415	0.325374	0.985406
	N247	N	0.406399	0.325850	0.056105
	N248	N	0.676295	0.970848	0.430974
	N249	N	0.673595	0.041453	0.607226
	N250	N	0.312991	0.970186	0.608028
	N251	N	0.313737	0.040472	0.433339
	N252	N	0.906700	0.470640	0.200585
	N253	N	0.081574	0.541625	0.203509
	N254	N	0.079068	0.471688	0.841887
	N255	N	0.903948	0.541511	0.839930
	N256	N	0.174923	0.917123	0.484794
	N257	N	0.173225	0.091327	0.555876
	N258	N	0.812272	0.093284	0.486395
	N259	N	0.812353	0.917986	0.556102
	N260	N	0.458442	0.185346	0.934610
	N261	N	0.528494	0.186029	0.107376
	N262	N	0.456931	0.826360	0.107169
	N263	N	0.528398	0.824491	0.932128
	N264	N	0.458073	0.917320	0.202284
	N265	N	0.528342	0.093268	0.201143
	N266	N	0.459320	0.093673	0.840114
	N267	N	0.528842	0.918082	0.839120
	N268	N	0.904663	0.187333	0.487325
	N269	N	0.079914	0.185048	0.556454
	N270	N	0.081226	0.823636	0.484989
	N271	N	0.906568	0.825688	0.556640
	N272	N	0.172281	0.471642	0.935310
	N273	N	0.174484	0.542041	0.109873
	N274	N	0.812777	0.471311	0.108192
	N275	N	0.812145	0.542393	0.934013
	O276	O	0.518606	0.716107	0.733900
	H277	H	0.492134	0.685457	0.731762
	H278	H	0.517047	0.746270	0.765642
	O279	O	0.369869	0.389185	0.623666
	H280	H	0.362181	0.383261	0.627457
	H281	H	0.364270	0.396642	0.624882
	O282	O	0.896798	1.016575	-0.008249
	H283	H	0.880043	1.029595	-0.017578
	H284	H	0.902410	1.027590	0.001068
	O285	O	0.314653	0.684990	0.340539
	H286	H	0.337199	0.697200	0.359567
	H287	H	0.333830	0.675029	0.344202
	O288	O	0.241327	0.132366	0.267492
	H289	H	0.260957	0.131778	0.284031
	H290	H	0.227262	0.118507	0.269975
	O291	O	0.701391	0.299262	0.392818
	H292	H	0.673311	0.311342	0.400406
	H293	H	0.712355	0.288603	0.416415
	O294	O	0.188567	1.201464	0.151105
	H295	H	0.199924	1.208457	0.113026
	H296	H	0.201437	1.166592	0.156853
	O297	O	1.092201	0.115555	0.002270
	H298	H	1.094404	0.116515	0.002350
	H299	H	1.090483	0.110633	0.003770
	O300	O	0.299220	0.526158	0.581266
	H301	H	0.298915	0.533922	0.579350
	H302	H	0.299847	0.513259	0.583560
	O303	O	0.910627	0.961205	-0.106905
	H304	H	0.914702	0.954793	-0.096663
	H305	H	0.899422	0.967778	-0.110996
	O306	O	0.626870	0.532965	1.304233
	H307	H	0.627466	0.525283	1.308144
	H308	H	0.625086	0.520833	1.299119
	O309	O	0.414907	0.399293	0.508452
	H310	H	0.420750	0.383438	0.504412
	H311	H	0.436394	0.403582	0.517746
	O312	O	0.455511	0.494099	0.394223
	H313	H	0.463036	0.507193	0.391142
	H314	H	0.470517	0.503435	0.394805
	O315	O	-0.076332	-0.005718	0.863951
	H316	H	-0.063321	-0.001078	0.875487
	H317	H	-0.083425	-0.023698	0.867966
	O318	O	-0.216915	1.095450	0.025758
	H319	H	-0.207818	1.098964	0.034079
	H320	H	-0.224811	1.103729	0.030920
	O321	O	0.284717	0.392485	0.728357
	H322	H	0.265366	0.384225	0.740267
	H323	H	0.281050	0.394978	0.693868
	O324	O	1.170057	0.181304	0.833441
	H325	H	1.146679	0.169816	0.843283
	H326	H	1.165082	0.161919	0.849515
	O327	O	0.819670	-0.172695	1.202560
	H328	H	0.803852	-0.152603	1.184372
	H329	H	0.807906	-0.157080	1.179323
	O330	O	0.698352	0.409369	-0.684958
	H331	H	0.717515	0.407093	-0.678611
	H332	H	0.675968	0.402028	-0.688940
	O333	O	0.865128	1.120752	1.129750
	H334	H	0.854096	1.116047	1.147225
	H335	H	0.873260	1.117270	1.139277
	O336	O	1.175255	-0.181252	0.833337
	H337	H	1.184846	-0.173142	0.862042
	H338	H	1.190966	-0.167039	0.843547
	O339	O	-0.015283	0.213165	0.205751
	H340	H	-0.004157	0.231611	0.229437
	H341	H	0.026950	0.210037	0.194068
	O342	O	0.550162	0.349404	0.628639
	H343	H	0.530247	0.349541	0.619459
	H344	H	0.540111	0.331623	0.623323
	O345	O	0.206949	0.153137	0.014788
	H346	H	0.189510	0.153872	-0.017660
	H347	H	0.209605	0.168744	0.020757
	O348	O	1.012837	-0.205749	0.806184
	H349	H	1.036220	-0.216008	0.801323
	H350	H	1.038220	-0.219112	0.795530
	O351	O	0.870316	1.201715	-0.172016
	H352	H	0.847984	1.189696	-0.154288
	H353	H	0.870997	1.211805	-0.175498
	O354	O	0.529505	0.482625	0.676910
	H355	H	0.528046	0.463491	0.657891
	H356	H	0.537673	0.476526	0.677266
	O357	O	0.870747	1.197239	1.217792
	H358	H	0.847570	1.207920	1.229828
	H359	H	0.892731	1.193062	1.229707
	O360	O	1.199694	-0.008215	-0.176394
	H361	H	1.217013	0.001019	-0.174901
	H362	H	1.185430	-0.012127	-0.185487
	O363	O	0.976211	0.026449	1.161786
	H364	H	0.974704	0.023785	1.165265
	H365	H	0.988386	0.011881	1.155998
	O366	O	1.472407	0.709084	0.311666
	H367	H	1.484471	0.712823	0.307479
	H368	H	1.493623	0.728011	0.329034
	O369	O	0.293813	0.298944	0.543500
	H370	H	0.303767	0.315283	0.544404
	H371	H	0.281768	0.275479	0.535623
	O372	O	0.573241	0.722761	0.443738
	H373	H	0.590198	0.727751	0.464527
	H374	H	0.576516	0.719936	0.471907
	O375	O	0.197718	0.958354	1.154086
	H376	H	0.193552	0.968047	1.152072
	H377	H	0.189293	0.954348	1.161983
	O378	O	1.142420	-0.008232	0.023142
	H379	H	1.133595	-0.002304	0.012481
	H380	H	1.143086	0.003715	0.045395
	O381	O	0.862633	0.012402	-0.088646
	H382	H	0.870555	-0.007195	-0.080290
	H383	H	0.865239	0.013427	-0.081332
	O384	O	-0.043604	0.095057	0.829564
	H385	H	-0.051938	0.075191	0.831831
	H386	H	-0.046506	0.108602	0.816349
	O387	O	-0.288996	1.499884	0.689428
	H388	H	-0.289752	1.486434	0.701694
	H389	H	-0.296708	1.499207	0.687574
	O390	O	-0.022872	-0.207357	1.237062
	H391	H	-0.053995	-0.212734	1.239546
	H392	H	-0.044178	-0.225407	1.247753
	O393	O	0.982753	1.041084	0.141863
	H394	H	0.983640	1.041631	0.137023
	H395	H	0.992538	1.045505	0.136868
	O396	O	0.280592	0.693260	0.510534
	H397	H	0.262494	0.716653	0.511002
	H398	H	0.283903	0.681864	0.495317
	O399	O	-0.158303	-0.016069	0.157984
	H400	H	-0.178875	-0.016980	0.180135
	H401	H	-0.135626	-0.010368	0.165046
	O402	O	0.100352	0.033295	1.220339
	H403	H	0.096468	0.033837	1.195762
	H404	H	0.084335	0.015727	1.222756
	O405	O	0.320999	-0.437317	0.729929
	H406	H	0.313987	-0.456353	0.748284
	H407	H	0.323482	-0.464844	0.715104
	O408	O	0.468992	0.292307	0.741660
	H409	H	0.443179	0.278067	0.752371
	H410	H	0.441698	0.280116	0.744999
	O411	O	0.453892	0.546735	0.586037
	H412	H	0.456114	0.535992	0.580132
	H413	H	0.461165	0.545947	0.580866
	O414	O	0.664641	0.332977	0.550116
	H415	H	0.680127	0.311543	0.542025
	H416	H	0.658910	0.348770	0.560806
	O417	O	0.273643	0.526457	0.298740
	H418	H	0.236993	0.529467	0.267974
	H419	H	0.281103	0.554921	0.315388
	O420	O	0.710769	0.725293	0.540613
	H421	H	0.727642	0.740085	0.559711
	H422	H	0.718343	0.726241	0.574004
	O423	O	-0.224334	0.792785	0.041648
	H424	H	-0.251619	0.759184	0.038063
	H425	H	-0.211398	0.803769	0.015814
	O426	O	0.432286	1.441983	0.305094
	H427	H	0.414243	1.452665	0.310237
	H428	H	0.436597	1.460362	0.310326
	O429	O	0.414313	0.701174	-0.404858
	H430	H	0.411564	0.693411	-0.405150
	H431	H	0.417465	0.700586	-0.394826
	O432	O	0.490065	0.530676	0.738139
	H433	H	0.486296	0.522855	0.739539
	H434	H	0.498670	0.518424	0.738616
	O435	O	-0.211828	0.024683	-0.183705
	H436	H	-0.234645	0.019589	-0.186280
	H437	H	-0.196437	0.026452	-0.187889
	O438	O	1.047980	0.172069	-0.090390
	H439	H	1.029052	0.171511	-0.103289
	H440	H	1.014942	0.164347	-0.087989
	O441	O	0.484546	0.523468	0.526873
	H442	H	0.494704	0.527757	0.515254
	H443	H	0.490999	0.511370	0.524883
	O444	O	0.048920	0.777289	1.075342
	H445	H	0.050352	0.775769	1.056961
	H446	H	0.040043	0.764528	1.108975
	O447	O	0.693708	0.557339	-0.542683
	H448	H	0.683738	0.572766	-0.552283
	H449	H	0.695204	0.567367	-0.542932
	O450	O	0.677700	0.686793	0.696901
	H451	H	0.629812	0.695887	0.711449
	H452	H	0.680897	0.641525	0.701246
	O453	O	0.371375	0.341023	0.435988
	H454	H	0.365646	0.353540	0.427481
	H455	H	0.374169	0.337848	0.428997
	O456	O	0.916292	0.939893	0.070774
	H457	H	0.929876	0.949943	0.092808
	H458	H	0.922682	0.937043	0.065235
	O459	O	0.526706	0.295971	0.305714
	H460	H	0.522478	0.282140	0.289513
	H461	H	0.516632	0.307114	0.296536
	O462	O	0.646977	0.472657	0.551597
	H463	H	0.643715	0.479607	0.569730
	H464	H	0.642025	0.481990	0.548206
	O465	O	1.201060	-0.202038	-0.006271
	H466	H	1.209358	-0.217866	0.008412
	H467	H	1.206636	-0.191318	0.009466
