data_Molecule from HDF5

_cell_length_a		16.271330
_cell_length_b		16.260773
_cell_length_c		16.258714
_cell_angle_alpha	90.101176
_cell_angle_beta	89.959783
_cell_angle_gamma	89.498349
_symmetry_space_group_name_H-M	'P 1'
_symmetry_Int_Tables_number		1

loop_
	_symmetry_equiv_pos_as_xyz
	x,y,z

loop_
	_atom_site_label
	_atom_site_type_symbol
	_atom_site_fract_x
	_atom_site_fract_y
	_atom_site_fract_z
	H0	H	0.402117	0.844729	0.697383
	H1	H	0.599614	0.171480	0.698394
	H2	H	0.604246	0.845352	0.266807
	H3	H	0.399416	0.171526	0.267815
	H4	H	0.719858	0.404862	0.819908
	H5	H	0.715641	0.608478	0.144765
	H6	H	0.284181	0.609769	0.818584
	H7	H	0.288460	0.411741	0.145730
	H8	H	0.840103	0.725945	0.381881
	H9	H	0.166409	0.720538	0.582101
	H10	H	0.839429	0.291369	0.584447
	H11	H	0.164893	0.291080	0.382991
	H12	H	0.839145	0.407084	0.699919
	H13	H	0.165361	0.605956	0.698915
	H14	H	0.838685	0.609753	0.267856
	H15	H	0.164946	0.405572	0.265647
	H16	H	0.400083	0.725258	0.818321
	H17	H	0.599604	0.722863	0.145075
	H18	H	0.603097	0.290482	0.819196
	H19	H	0.399781	0.294040	0.144437
	H20	H	0.719060	0.845873	0.381510
	H21	H	0.717222	0.171866	0.584248
	H22	H	0.289004	0.844040	0.580414
	H23	H	0.282290	0.170080	0.380448
	H24	H	0.904989	0.344483	0.196009
	H25	H	0.098017	0.671549	0.197421
	H26	H	0.102986	0.344407	0.768428
	H27	H	0.900209	0.670961	0.767665
	H28	H	0.217304	0.908010	0.318006
	H29	H	0.215835	0.105384	0.645106
	H30	H	0.784790	0.109951	0.318854
	H31	H	0.787332	0.909738	0.644980
	H32	H	0.338218	0.226467	0.882081
	H33	H	0.664238	0.223254	0.081603
	H34	H	0.336928	0.797819	0.079815
	H35	H	0.665177	0.791247	0.882505
	H36	H	0.337363	0.912784	0.196058
	H37	H	0.664184	0.106394	0.197517
	H38	H	0.337652	0.110164	0.766164
	H39	H	0.664869	0.907764	0.766180
	H40	H	0.901083	0.225117	0.318818
	H41	H	0.100498	0.222135	0.645807
	H42	H	0.103141	0.790848	0.318926
	H43	H	0.904238	0.794067	0.645627
	H44	H	0.219997	0.346003	0.880814
	H45	H	0.214331	0.672398	0.082329
	H46	H	0.786031	0.345259	0.083212
	H47	H	0.784196	0.671256	0.882400
	H48	H	0.415729	0.124825	0.583805
	H49	H	0.588003	0.893641	0.575091
	H50	H	0.600042	0.126088	0.393594
	H51	H	0.412821	0.891412	0.383904
	H52	H	0.595146	0.414933	0.099156
	H53	H	0.599305	0.600758	0.863283
	H54	H	0.405619	0.608114	0.100581
	H55	H	0.414003	0.417136	0.866428
	H56	H	0.117349	0.595976	0.390696
	H57	H	0.886520	0.605381	0.570683
	H58	H	0.115604	0.421816	0.573812
	H59	H	0.887611	0.417100	0.397713
	H60	H	0.119328	0.411877	0.581519
	H61	H	0.887940	0.596164	0.573061
	H62	H	0.119080	0.597579	0.386856
	H63	H	0.886356	0.424058	0.385580
	H64	H	0.403161	0.599648	0.098769
	H65	H	0.590596	0.592726	0.867747
	H66	H	0.592582	0.419252	0.097368
	H67	H	0.409020	0.414281	0.863555
	H68	H	0.590833	0.127065	0.381642
	H69	H	0.596674	0.894546	0.566129
	H70	H	0.412908	0.119766	0.562570
	H71	H	0.414002	0.893263	0.393569
	H72	H	0.911716	0.624569	0.078036
	H73	H	0.094029	0.390126	0.078297
	H74	H	0.099012	0.625878	0.892531
	H75	H	0.902484	0.389638	0.892976
	H76	H	0.100470	0.904672	0.602590
	H77	H	0.086750	0.098650	0.367633
	H78	H	0.910256	0.094732	0.595582
	H79	H	0.910592	0.916262	0.364820
	H80	H	0.620322	0.106667	0.888202
	H81	H	0.384485	0.106102	0.073748
	H82	H	0.618454	0.914244	0.078438
	H83	H	0.384205	0.914477	0.889833
	H84	H	0.618486	0.911812	0.073081
	H85	H	0.386216	0.099343	0.071583
	H86	H	0.613294	0.097723	0.898895
	H87	H	0.386063	0.918572	0.891174
	H88	H	0.914225	0.103763	0.597357
	H89	H	0.094408	0.106216	0.362901
	H90	H	0.102136	0.921788	0.598312
	H91	H	0.910932	0.916757	0.366261
	H92	H	0.089671	0.625774	0.882629
	H93	H	0.093500	0.393867	0.070572
	H94	H	0.905750	0.623329	0.069008
	H95	H	0.913081	0.389995	0.883897
	H96	H	0.395745	0.127716	0.574281
	H97	H	0.600090	0.889843	0.578237
	H98	H	0.585772	0.121466	0.395405
	H99	H	0.405554	0.889616	0.388896
	H100	H	0.590272	0.414519	0.098367
	H101	H	0.586959	0.604635	0.865000
	H102	H	0.411655	0.602799	0.096502
	H103	H	0.408561	0.420055	0.865268
	H104	H	0.119711	0.600655	0.390889
	H105	H	0.884767	0.602033	0.580135
	H106	H	0.117829	0.409825	0.569644
	H107	H	0.882341	0.410496	0.385711
	H108	H	0.901191	0.627215	0.077926
	H109	H	0.100727	0.390321	0.073785
	H110	H	0.087192	0.622031	0.894248
	H111	H	0.914553	0.394994	0.896965
	H112	H	0.086928	0.914024	0.595570
	H113	H	0.098054	0.095458	0.364533
	H114	H	0.904543	0.102363	0.599667
	H115	H	0.911232	0.915798	0.365589
	H116	H	0.616324	0.093054	0.884692
	H117	H	0.383617	0.100908	0.078549
	H118	H	0.616721	0.917442	0.073868
	H119	H	0.384896	0.918205	0.886326
	C120	C	0.379840	0.016172	0.602936
	C121	C	0.623313	1.000344	0.603495
	C122	C	0.622817	0.017079	0.360585
	C123	C	0.379856	0.999267	0.359879
	C124	C	0.623173	0.385749	-0.009316
	C125	C	0.621001	0.628385	0.973141
	C126	C	0.377881	0.632058	-0.009710
	C127	C	0.380926	0.388498	0.973492
	C128	C	0.010834	0.629058	0.360416
	C129	C	0.994233	0.629055	0.604052
	C130	C	0.010433	0.385675	0.604497
	C131	C	0.993274	0.386394	0.360390
	C132	C	0.878929	0.517015	0.104059
	C133	C	0.123154	0.499602	0.103316
	C134	C	0.123025	0.516723	0.860584
	C135	C	0.879577	0.499241	0.861495
	C136	C	0.125089	0.884898	0.490648
	C137	C	0.122633	0.128701	0.473277
	C138	C	0.879666	0.130748	0.490396
	C139	C	0.881636	0.887322	0.473538
	C140	C	0.509277	0.129736	0.860980
	C141	C	0.492221	0.130739	0.104063
	C142	C	0.509712	0.886932	0.103736
	C143	C	0.492971	0.886861	0.859991
	C144	C	0.382388	0.893534	0.659216
	C145	C	0.620666	0.122899	0.660259
	C146	C	0.622988	0.894281	0.304800
	C147	C	0.379834	0.122283	0.304898
	C148	C	0.680814	0.385860	0.868471
	C149	C	0.677051	0.627511	0.096086
	C150	C	0.322071	0.630019	0.867484
	C151	C	0.325642	0.391062	0.096405
	C152	C	0.888660	0.686862	0.362312
	C153	C	0.117293	0.683190	0.602233
	C154	C	0.887989	0.329635	0.603886
	C155	C	0.116050	0.329474	0.362670
	C156	C	0.887847	0.387121	0.661479
	C157	C	0.116722	0.626111	0.660393
	C158	C	0.887933	0.629158	0.305168
	C159	C	0.116010	0.386312	0.304097
	C160	C	0.379739	0.687507	0.867325
	C161	C	0.619451	0.684410	0.096352
	C162	C	0.622801	0.328817	0.868221
	C163	C	0.381561	0.332598	0.095885
	C164	C	0.680147	0.894425	0.362063
	C165	C	0.678804	0.122922	0.603216
	C166	C	0.326152	0.893028	0.600707
	C167	C	0.321579	0.121654	0.361106
	C168	C	0.883171	0.393588	0.159101
	C169	C	0.119085	0.622820	0.159219
	C170	C	0.122888	0.393576	0.805546
	C171	C	0.880405	0.621953	0.805312
	C172	C	0.179809	0.887385	0.367046
	C173	C	0.178177	0.126173	0.596365
	C174	C	0.823507	0.129600	0.367461
	C175	C	0.825730	0.889523	0.596297
	C176	C	0.386745	0.187156	0.862344
	C177	C	0.615509	0.185396	0.102028
	C178	C	0.386143	0.834044	0.100860
	C179	C	0.616191	0.829918	0.862189
	C180	C	0.386504	0.891287	0.158678
	C181	C	0.615564	0.127404	0.159380
	C182	C	0.386483	0.129498	0.804608
	C183	C	0.616076	0.887482	0.804247
	C184	C	0.881158	0.186875	0.367379
	C185	C	0.120787	0.184195	0.596649
	C186	C	0.123304	0.828853	0.367587
	C187	C	0.883659	0.831804	0.596468
	C188	C	0.180945	0.394356	0.861743
	C189	C	0.176583	0.623301	0.101786
	C190	C	0.824415	0.393844	0.102730
	C191	C	0.822510	0.622114	0.862412
	C192	C	0.401714	0.102094	0.580205
	C193	C	0.601309	0.915000	0.580094
	C194	C	0.599037	0.102555	0.383647
	C195	C	0.403705	0.913614	0.382441
	C196	C	0.599742	0.409374	0.076112
	C197	C	0.598582	0.605989	0.887578
	C198	C	0.400237	0.609969	0.076331
	C199	C	0.403795	0.410783	0.887227
	C200	C	0.096664	0.605112	0.382913
	C201	C	0.908389	0.607559	0.581406
	C202	C	0.095673	0.408027	0.581631
	C203	C	0.907649	0.410270	0.382970
	C204	C	0.900063	0.602644	0.081778
	C205	C	0.102203	0.413582	0.080844
	C206	C	0.098935	0.602400	0.883139
	C207	C	0.903136	0.413639	0.884435
	C208	C	0.102927	0.907022	0.576588
	C209	C	0.099933	0.106710	0.387451
	C210	C	0.902823	0.107322	0.575465
	C211	C	0.904225	0.909940	0.387776
	C212	C	0.594491	0.105892	0.883653
	C213	C	0.407051	0.108785	0.081301
	C214	C	0.595777	0.908224	0.081675
	C215	C	0.407307	0.910147	0.882532
	Zn216	Zn	0.501101	0.008274	0.731325
	Zn217	Zn	0.501440	0.008614	0.232460
	Zn218	Zn	0.750352	0.507775	-0.017764
	Zn219	Zn	0.251561	0.509015	-0.018289
	Zn220	Zn	0.002918	0.757311	0.482164
	Zn221	Zn	0.001416	0.257910	0.482033
	Zn222	Zn	0.001715	0.507518	0.733314
	Zn223	Zn	0.001372	0.507870	0.231548
	Zn224	Zn	0.501107	0.758411	-0.018210
	Zn225	Zn	0.500875	0.258844	-0.017838
	Zn226	Zn	0.751429	0.008962	0.481483
	Zn227	Zn	0.251903	0.007112	0.481240
	N228	N	0.415066	0.971275	0.660678
	N229	N	0.586877	0.045707	0.660536
	N230	N	0.587979	0.971580	0.303707
	N231	N	0.415451	0.045310	0.303968
	N232	N	0.680966	0.420797	0.945568
	N233	N	0.678407	0.593525	0.018474
	N234	N	0.320810	0.596370	0.945098
	N235	N	0.325241	0.425467	0.019023
	N236	N	0.966222	0.686922	0.395873
	N237	N	0.040021	0.685253	0.567997
	N238	N	0.965001	0.328529	0.569081
	N239	N	0.038867	0.329635	0.397110
	N240	N	0.964919	0.421252	0.662108
	N241	N	0.039178	0.593070	0.661652
	N242	N	0.965094	0.593794	0.303868
	N243	N	0.038664	0.421202	0.302666
	N244	N	0.413641	0.689090	0.944831
	N245	N	0.585236	0.685045	0.019096
	N246	N	0.587779	0.328725	0.945246
	N247	N	0.415107	0.330872	0.018212
	N248	N	0.680447	0.971904	0.395924
	N249	N	0.680290	0.045800	0.568414
	N250	N	0.324348	0.970330	0.566471
	N251	N	0.321542	0.044020	0.394601
	N252	N	0.916061	0.471063	0.160138
	N253	N	0.086786	0.544942	0.160570
	N254	N	0.087632	0.470701	0.804638
	N255	N	0.915310	0.544459	0.804723
	N256	N	0.181085	0.921453	0.444373
	N257	N	0.179350	0.092389	0.518695
	N258	N	0.822286	0.095525	0.444786
	N259	N	0.824329	0.923319	0.518826
	N260	N	0.463981	0.187636	0.896287
	N261	N	0.537927	0.187446	0.068440
	N262	N	0.463880	0.830886	0.067762
	N263	N	0.538405	0.829299	0.895991
	N264	N	0.464407	0.923570	0.160415
	N265	N	0.538077	0.094412	0.161096
	N266	N	0.463734	0.094307	0.803581
	N267	N	0.538608	0.922129	0.802772
	N268	N	0.915299	0.187693	0.444899
	N269	N	0.087114	0.185929	0.519079
	N270	N	0.090087	0.827084	0.445446
	N271	N	0.917624	0.830147	0.519045
	N272	N	0.180972	0.471999	0.895485
	N273	N	0.179254	0.545832	0.067591
	N274	N	0.821426	0.471509	0.069347
	N275	N	0.821781	0.544760	0.896474
	O276	O	-0.511781	-0.518539	0.561108
	H277	H	-0.505481	-0.521332	0.555283
	H278	H	-0.510726	-0.495257	0.567018
	O279	O	0.671101	0.388981	0.351604
	H280	H	0.657431	0.385767	0.360466
	H281	H	0.681341	0.397416	0.358800
	O282	O	0.473234	0.379070	0.499133
	H283	H	0.472277	0.388766	0.515842
	H284	H	0.472450	0.374006	0.486621
	O285	O	0.038621	1.028105	0.930113
	H286	H	0.035779	1.036115	0.922456
	H287	H	0.058645	1.026228	0.928621
	O288	O	0.491309	0.419544	0.496017
	H289	H	0.494398	0.410851	0.485004
	H290	H	0.503130	0.428403	0.480261
	O291	O	0.473520	1.521721	1.503268
	H292	H	0.480129	1.525941	1.495239
	H293	H	0.471179	1.522740	1.502587
	O294	O	1.028786	1.004629	0.963081
	H295	H	1.022648	0.998768	0.963108
	H296	H	1.028841	1.007958	0.958771
	O297	O	0.979113	-0.010537	0.982675
	H298	H	0.991944	-0.019211	0.971697
	H299	H	0.972840	-0.010646	0.993084
	O300	O	0.449672	0.609024	0.622377
	H301	H	0.468174	0.608504	0.618690
	H302	H	0.459066	0.624953	0.632193
	O303	O	0.946556	-0.018842	-0.046225
	H304	H	0.952674	-0.022707	-0.046529
	H305	H	0.944106	-0.014051	-0.057212
	O306	O	-0.080481	1.017029	0.921988
	H307	H	-0.067284	1.005198	0.930466
	H308	H	-0.094885	1.024163	0.912999
	O309	O	0.437892	0.399337	0.400027
	H310	H	0.445989	0.388429	0.404382
	H311	H	0.443847	0.406748	0.393874
	O312	O	0.974814	-0.005288	0.927309
	H313	H	0.974847	-0.002116	0.932034
	H314	H	0.976653	-0.004652	0.936964
	O315	O	0.578333	0.552704	0.347030
	H316	H	0.568196	0.555272	0.342604
	H317	H	0.591205	0.552215	0.352238
	O318	O	0.011407	-0.023361	0.975048
	H319	H	0.001096	-0.025142	0.968246
	H320	H	0.018178	-0.022092	0.971112
	O321	O	2.012654	0.026242	1.958320
	H322	H	2.008547	0.027828	1.950480
	H323	H	2.004288	0.035089	1.966281
	O324	O	0.512627	0.536407	0.558160
	H325	H	0.517333	0.541810	0.544946
	H326	H	0.498166	0.539511	0.569482
	O327	O	0.414944	0.525626	0.398336
	H328	H	0.416517	0.519656	0.399908
	H329	H	0.413546	0.508756	0.397245
	O330	O	0.631681	-0.380044	0.607294
	H331	H	0.632821	-0.380901	0.605982
	H332	H	0.639182	-0.388188	0.596521
	O333	O	1.098404	0.949868	-0.040978
	H334	H	1.105422	0.949407	-0.039899
	H335	H	1.088220	0.953780	-0.037380
	O336	O	0.674796	0.526473	0.529544
	H337	H	0.669135	0.530539	0.536042
	H338	H	0.681958	0.531805	0.546880
	O339	O	0.552400	0.544498	0.512928
	H340	H	0.542584	0.543178	0.522214
	H341	H	0.548798	0.538646	0.506804
	O342	O	0.377000	1.526103	0.549145
	H343	H	0.378223	1.525219	0.547228
	H344	H	0.358317	1.541935	0.542298
	O345	O	0.394436	0.602225	0.412438
	H346	H	0.388955	0.613421	0.404537
	H347	H	0.384025	0.588280	0.417712
	O348	O	0.560277	0.517913	0.364492
	H349	H	0.559099	0.515753	0.375703
	H350	H	0.565336	0.524751	0.358479
	O351	O	-0.516158	0.342688	0.475622
	H352	H	-0.503460	0.326126	0.465601
	H353	H	-0.509371	0.347893	0.479167
	O354	O	0.617839	0.410621	0.536464
	H355	H	0.617466	0.402002	0.540459
	H356	H	0.606917	0.416018	0.543125
	O357	O	0.620160	0.423524	0.555580
	H358	H	0.618936	0.421064	0.550726
	H359	H	0.607165	0.423812	0.564711
	O360	O	0.015072	-0.008765	-0.052719
	H361	H	0.019276	-0.007757	-0.059847
	H362	H	0.008232	0.001600	-0.054057
	O363	O	0.393081	0.595014	0.486296
	H364	H	0.395516	0.597536	0.486282
	H365	H	0.382488	0.585908	0.481573
	O366	O	-0.092088	0.064809	0.913428
	H367	H	-0.083142	0.062752	0.910155
	H368	H	-0.100730	0.063061	0.912955
	O369	O	0.519697	0.645072	0.396040
	H370	H	0.522739	0.641445	0.401522
	H371	H	0.512847	0.639350	0.387466
