data_Molecule from HDF5

_cell_length_a		16.356865
_cell_length_b		16.204610
_cell_length_c		16.186067
_cell_angle_alpha	88.884322
_cell_angle_beta	90.494404
_cell_angle_gamma	89.893227
_symmetry_space_group_name_H-M	'P 1'
_symmetry_Int_Tables_number		1

loop_
	_symmetry_equiv_pos_as_xyz
	x,y,z

loop_
	_atom_site_label
	_atom_site_type_symbol
	_atom_site_fract_x
	_atom_site_fract_y
	_atom_site_fract_z
	H0	H	0.391775	0.836324	0.713841
	H1	H	0.591494	0.163468	0.709183
	H2	H	0.587302	0.832101	0.293869
	H3	H	0.393809	0.161089	0.274642
	H4	H	0.709207	0.401578	0.833854
	H5	H	0.711707	0.597847	0.160700
	H6	H	0.275575	0.602432	0.834434
	H7	H	0.279631	0.394953	0.161778
	H8	H	0.829909	0.719123	0.391246
	H9	H	0.155221	0.716715	0.595944
	H10	H	0.830150	0.283862	0.597722
	H11	H	0.155119	0.285714	0.401093
	H12	H	0.830696	0.399328	0.714182
	H13	H	0.156548	0.598159	0.712342
	H14	H	0.831625	0.603551	0.275940
	H15	H	0.157344	0.404755	0.288717
	H16	H	0.392537	0.716533	0.834548
	H17	H	0.592176	0.705853	0.163650
	H18	H	0.590492	0.287652	0.832225
	H19	H	0.397115	0.279714	0.161296
	H20	H	0.710802	0.838372	0.395856
	H21	H	0.706501	0.164171	0.593601
	H22	H	0.274966	0.838310	0.598387
	H23	H	0.277287	0.164695	0.389553
	H24	H	0.895733	0.337509	0.217221
	H25	H	0.091732	0.665076	0.206619
	H26	H	0.091885	0.335966	0.788698
	H27	H	0.892998	0.663798	0.777766
	H28	H	0.205084	0.905246	0.332434
	H29	H	0.211310	0.101820	0.658434
	H30	H	0.773857	0.107166	0.332287
	H31	H	0.776819	0.897639	0.659653
	H32	H	0.331362	0.218418	0.892091
	H33	H	0.655533	0.211895	0.097578
	H34	H	0.330539	0.781716	0.096656
	H35	H	0.656455	0.783928	0.901346
	H36	H	0.330335	0.895304	0.212312
	H37	H	0.656246	0.092363	0.211865
	H38	H	0.330451	0.101597	0.777238
	H39	H	0.655323	0.899913	0.783028
	H40	H	0.891140	0.221210	0.333783
	H41	H	0.089672	0.206929	0.662810
	H42	H	0.086929	0.792563	0.330268
	H43	H	0.891798	0.781316	0.659374
	H44	H	0.207873	0.336707	0.900600
	H45	H	0.210350	0.662883	0.096632
	H46	H	0.779488	0.336313	0.101718
	H47	H	0.774813	0.663695	0.891590
	H48	H	0.404393	0.118342	0.591271
	H49	H	0.584143	0.882338	0.592784
	H50	H	0.584801	0.116965	0.404491
	H51	H	0.396625	0.883264	0.409489
	H52	H	0.594787	0.404510	0.116085
	H53	H	0.585245	0.596707	0.879247
	H54	H	0.403990	0.582277	0.112509
	H55	H	0.399556	0.419619	0.883920
	H56	H	0.107668	0.598837	0.410735
	H57	H	0.877656	0.591274	0.586693
	H58	H	0.111222	0.406872	0.602466
	H59	H	0.881822	0.420276	0.410673
	H60	H	0.111023	0.396759	0.591493
	H61	H	0.878394	0.590894	0.585905
	H62	H	0.108695	0.590848	0.399665
	H63	H	0.875901	0.412250	0.397662
	H64	H	0.403416	0.593827	0.116497
	H65	H	0.586726	0.589191	0.881168
	H66	H	0.582542	0.411263	0.110870
	H67	H	0.406640	0.404890	0.880210
	H68	H	0.582133	0.117196	0.398232
	H69	H	0.581297	0.885216	0.587532
	H70	H	0.403808	0.114059	0.578175
	H71	H	0.392849	0.880826	0.406404
	H72	H	0.909403	0.617583	0.095498
	H73	H	0.086263	0.384102	0.087763
	H74	H	0.087815	0.613029	0.919747
	H75	H	0.907564	0.383739	0.900187
	H76	H	0.086914	0.904555	0.614014
	H77	H	0.084205	0.092404	0.380641
	H78	H	0.899658	0.085301	0.611384
	H79	H	0.896533	0.913621	0.378577
	H80	H	0.609063	0.092107	0.901719
	H81	H	0.378466	0.085492	0.085317
	H82	H	0.607739	0.904181	0.094352
	H83	H	0.375405	0.901814	0.901400
	H84	H	0.612189	0.900727	0.100334
	H85	H	0.378225	0.089239	0.087064
	H86	H	0.608577	0.093926	0.905873
	H87	H	0.379258	0.905543	0.912054
	H88	H	0.902126	0.094972	0.614248
	H89	H	0.078565	0.097008	0.379664
	H90	H	0.086516	0.911248	0.612249
	H91	H	0.899113	0.914692	0.380216
	H92	H	0.097827	0.624101	0.894955
	H93	H	0.092754	0.380237	0.094735
	H94	H	0.907820	0.611110	0.072389
	H95	H	0.905449	0.389092	0.919113
	H96	H	0.392623	0.119762	0.583608
	H97	H	0.588159	0.883101	0.588182
	H98	H	0.578916	0.114942	0.401850
	H99	H	0.397339	0.881632	0.405346
	H100	H	0.582858	0.397441	0.115420
	H101	H	0.579504	0.591886	0.882805
	H102	H	0.393388	0.586496	0.117928
	H103	H	0.390005	0.407100	0.877314
	H104	H	0.112112	0.604648	0.398288
	H105	H	0.878449	0.589930	0.586327
	H106	H	0.105544	0.410355	0.589049
	H107	H	0.877355	0.403440	0.411443
	H108	H	0.888058	0.620770	0.083963
	H109	H	0.083263	0.382016	0.098989
	H110	H	0.070327	0.615886	0.896156
	H111	H	0.890489	0.380931	0.908361
	H112	H	0.080120	0.907564	0.611604
	H113	H	0.084746	0.100088	0.376916
	H114	H	0.892170	0.091445	0.615710
	H115	H	0.899061	0.911461	0.379464
	H116	H	0.606772	0.089734	0.904871
	H117	H	0.378574	0.088972	0.083203
	H118	H	0.609961	0.896594	0.092962
	H119	H	0.379058	0.912871	0.902770
	C120	C	0.370390	0.009421	0.616479
	C121	C	0.613938	0.991507	0.617697
	C122	C	0.611744	0.007860	0.375662
	C123	C	0.368273	0.990345	0.373798
	C124	C	0.615132	0.377314	0.005969
	C125	C	0.614314	0.619993	0.989301
	C126	C	0.370810	0.619786	0.007072
	C127	C	0.371334	0.377866	0.988906
	C128	C	0.001585	0.626277	0.372390
	C129	C	0.985107	0.620518	0.616877
	C130	C	0.001722	0.375989	0.622302
	C131	C	0.985157	0.381673	0.378445
	C132	C	0.872421	0.508880	0.117848
	C133	C	0.116087	0.491106	0.120480
	C134	C	0.113848	0.508895	0.877138
	C135	C	0.871080	0.491926	0.875897
	C136	C	0.112497	0.880691	0.504308
	C137	C	0.112776	0.122872	0.487750
	C138	C	0.868659	0.123229	0.505451
	C139	C	0.869414	0.880381	0.487078
	C140	C	0.501287	0.122226	0.873069
	C141	C	0.485067	0.116955	0.116683
	C142	C	0.501953	0.872804	0.122286
	C143	C	0.484797	0.877319	0.876824
	C144	C	0.371793	0.885828	0.674833
	C145	C	0.611780	0.114663	0.671978
	C146	C	0.609011	0.882709	0.326991
	C147	C	0.372244	0.112966	0.313944
	C148	C	0.670835	0.380760	0.882631
	C149	C	0.672276	0.617030	0.112237
	C150	C	0.314555	0.621045	0.883481
	C151	C	0.317570	0.376476	0.112662
	C152	C	0.878740	0.681056	0.372414
	C153	C	0.107017	0.677533	0.615624
	C154	C	0.879039	0.321423	0.618587
	C155	C	0.106939	0.324748	0.381005
	C156	C	0.879278	0.378851	0.676624
	C157	C	0.107571	0.618845	0.673815
	C158	C	0.879958	0.623927	0.314629
	C159	C	0.108182	0.384210	0.325134
	C160	C	0.372476	0.677929	0.883623
	C161	C	0.612730	0.671026	0.113717
	C162	C	0.611960	0.324308	0.881653
	C163	C	0.375631	0.318966	0.112357
	C164	C	0.670182	0.885879	0.378261
	C165	C	0.669176	0.114871	0.614595
	C166	C	0.313619	0.886742	0.617561
	C167	C	0.314152	0.114581	0.370807
	C168	C	0.874935	0.386272	0.177725
	C169	C	0.112934	0.615314	0.171361
	C170	C	0.111911	0.385211	0.824869
	C171	C	0.872383	0.614795	0.816430
	C172	C	0.167284	0.884463	0.381074
	C173	C	0.171402	0.120279	0.610075
	C174	C	0.812284	0.125654	0.381928
	C175	C	0.814451	0.878631	0.610499
	C176	C	0.379537	0.179571	0.872609
	C177	C	0.607259	0.172829	0.116656
	C178	C	0.379350	0.818681	0.117774
	C179	C	0.607552	0.821834	0.880506
	C180	C	0.379278	0.875350	0.175413
	C181	C	0.607472	0.113603	0.173729
	C182	C	0.379154	0.121256	0.815664
	C183	C	0.606859	0.879228	0.821116
	C184	C	0.870547	0.182356	0.382678
	C185	C	0.110714	0.172811	0.612523
	C186	C	0.108544	0.828418	0.380066
	C187	C	0.871728	0.820876	0.610439
	C188	C	0.169385	0.385377	0.880987
	C189	C	0.172323	0.613956	0.116958
	C190	C	0.816991	0.385800	0.120342
	C191	C	0.813710	0.614687	0.873042
	C192	C	0.393468	0.095013	0.591725
	C193	C	0.591294	0.905813	0.595810
	C194	C	0.588605	0.094106	0.395678
	C195	C	0.389514	0.904278	0.399465
	C196	C	0.593077	0.398198	0.091689
	C197	C	0.590656	0.598786	0.903200
	C198	C	0.393720	0.594959	0.093440
	C199	C	0.392525	0.403034	0.902829
	C200	C	0.087362	0.604499	0.396126
	C201	C	0.900162	0.597437	0.593227
	C202	C	0.087010	0.398138	0.600636
	C203	C	0.900403	0.405161	0.400129
	C204	C	0.895193	0.594387	0.091512
	C205	C	0.093966	0.404648	0.099975
	C206	C	0.091767	0.595218	0.897542
	C207	C	0.894219	0.406628	0.901768
	C208	C	0.090881	0.901535	0.590450
	C209	C	0.089337	0.102553	0.401251
	C210	C	0.891274	0.097998	0.591485
	C211	C	0.891737	0.905635	0.401598
	C212	C	0.586258	0.098808	0.897352
	C213	C	0.400357	0.094503	0.092308
	C214	C	0.587682	0.894287	0.102045
	C215	C	0.399739	0.900037	0.898977
	Zn216	Zn	0.492570	-0.000231	0.745587
	Zn217	Zn	0.492781	-0.004367	0.248260
	Zn218	Zn	0.742711	0.499882	-0.002540
	Zn219	Zn	0.242084	0.499563	-0.001864
	Zn220	Zn	-0.008441	0.752238	0.495403
	Zn221	Zn	-0.007217	0.249774	0.498642
	Zn222	Zn	-0.006045	0.499492	0.748778
	Zn223	Zn	-0.005360	0.501810	0.247112
	Zn224	Zn	0.493477	0.746800	-0.000552
	Zn225	Zn	0.493400	0.249076	-0.004002
	Zn226	Zn	0.740455	0.001012	0.494891
	Zn227	Zn	0.240687	0.002202	0.495830
	N228	N	0.406327	0.963140	0.674516
	N229	N	0.578218	0.036928	0.674125
	N230	N	0.573483	0.959666	0.325076
	N231	N	0.404860	0.034672	0.315357
	N232	N	0.673087	0.412706	0.960742
	N233	N	0.673382	0.586140	0.033694
	N234	N	0.313466	0.585625	0.961308
	N235	N	0.314842	0.412445	0.035018
	N236	N	0.955518	0.682782	0.407518
	N237	N	0.029926	0.678794	0.581084
	N238	N	0.956127	0.319486	0.585558
	N239	N	0.029666	0.323144	0.413606
	N240	N	0.956558	0.411751	0.679236
	N241	N	0.030796	0.583954	0.674410
	N242	N	0.957442	0.590870	0.314374
	N243	N	0.031442	0.419134	0.323385
	N244	N	0.406632	0.677218	0.961609
	N245	N	0.577126	0.672882	0.036311
	N246	N	0.578269	0.321561	0.959337
	N247	N	0.408154	0.319531	0.034156
	N248	N	0.672070	0.964939	0.407574
	N249	N	0.670631	0.037209	0.581705
	N250	N	0.312797	0.964545	0.582047
	N251	N	0.311507	0.037293	0.407378
	N252	N	0.908909	0.463938	0.176185
	N253	N	0.078942	0.537806	0.173926
	N254	N	0.077950	0.462927	0.822381
	N255	N	0.907287	0.537546	0.818071
	N256	N	0.169422	0.916463	0.459174
	N257	N	0.172755	0.090011	0.531219
	N258	N	0.810857	0.089492	0.459327
	N259	N	0.812702	0.914864	0.532970
	N260	N	0.456464	0.180341	0.907644
	N261	N	0.530336	0.174865	0.081757
	N262	N	0.456673	0.816833	0.085575
	N263	N	0.530579	0.820312	0.914373
	N264	N	0.456565	0.908432	0.178311
	N265	N	0.530454	0.079504	0.173905
	N266	N	0.455952	0.086494	0.815844
	N267	N	0.529763	0.913174	0.818945
	N268	N	0.904840	0.181232	0.460645
	N269	N	0.075017	0.174666	0.535258
	N270	N	0.074981	0.825954	0.457745
	N271	N	0.905108	0.821605	0.532741
	N272	N	0.170838	0.463342	0.912678
	N273	N	0.174287	0.535502	0.085876
	N274	N	0.815391	0.463161	0.083975
	N275	N	0.812771	0.537310	0.909373
	O276	O	0.970724	0.043822	1.056407
	H277	H	0.964456	0.026235	1.059051
	H278	H	0.979796	0.042771	1.062657
	O279	O	0.409748	0.539502	0.556944
	H280	H	0.409599	0.546548	0.559632
	H281	H	0.398379	0.536526	0.552738
	O282	O	0.392833	0.508478	0.444501
	H283	H	0.385402	0.496021	0.433768
	H284	H	0.388638	0.506924	0.449856
	O285	O	0.395955	0.557638	0.486295
	H286	H	0.405290	0.560767	0.480645
	H287	H	0.403771	0.540716	0.482666
	O288	O	0.483080	0.453572	0.537629
	H289	H	0.488516	0.449600	0.547799
	H290	H	0.481534	0.456008	0.545221
	O291	O	-0.131912	0.037232	0.938914
	H292	H	-0.120535	0.037793	0.934695
	H293	H	-0.140128	0.048033	0.932102
	O294	O	0.992220	0.993511	0.128937
	H295	H	0.982907	0.966680	0.136573
	H296	H	1.003847	0.991143	0.113788
	O297	O	1.016373	1.058634	-0.016059
	H298	H	1.023411	1.058973	-0.028151
	H299	H	1.016489	1.064851	-0.017008
	O300	O	0.311120	0.331222	0.705221
	H301	H	0.306603	0.329115	0.713275
	H302	H	0.314304	0.324325	0.700065
	O303	O	0.941186	-0.062727	1.117952
	H304	H	0.950982	-0.054181	1.122885
	H305	H	0.938315	-0.044818	1.104970
	O306	O	0.640902	0.545749	0.621490
	H307	H	0.644548	0.552002	0.611345
	H308	H	0.636297	0.548325	0.622518
	O309	O	0.516657	0.473425	0.514589
	H310	H	0.519502	0.484610	0.527512
	H311	H	0.501983	0.470307	0.510542
	O312	O	0.511371	1.613397	0.407038
	H313	H	0.501099	1.618696	0.398259
	H314	H	0.502614	1.623186	0.403280
	O315	O	1.529791	0.354289	0.481346
	H316	H	1.526581	0.341853	0.489661
	H317	H	1.530939	0.360641	0.467664
	O318	O	0.539136	0.504281	0.458811
	H319	H	0.542674	0.505022	0.457678
	H320	H	0.540453	0.494547	0.469308
	O321	O	0.445223	0.517512	0.576722
	H322	H	0.449729	0.519751	0.581262
	H323	H	0.449443	0.510597	0.576422
	O324	O	-0.003372	1.113937	0.909428
	H325	H	-0.010663	1.129293	0.905730
	H326	H	-0.014437	1.105829	0.896610
	O327	O	0.151334	1.052435	1.129083
	H328	H	0.147084	1.059656	1.118563
	H329	H	0.152225	1.048944	1.128141
	O330	O	0.036959	-0.179294	0.004514
	H331	H	0.033789	-0.181684	-0.007635
	H332	H	0.047695	-0.180503	0.013066
	O333	O	0.525350	0.470058	0.432281
	H334	H	0.524870	0.473034	0.442043
	H335	H	0.523775	0.473031	0.425594
	O336	O	-0.043927	0.094275	-0.065920
	H337	H	-0.050570	0.091236	-0.067185
	H338	H	-0.044353	0.100992	-0.074134
	O339	O	-0.021814	0.024478	-0.054984
	H340	H	-0.024807	0.035883	-0.069718
	H341	H	-0.011301	0.035381	-0.048674
	O342	O	0.183588	0.756782	0.859961
	H343	H	0.175482	0.747227	0.855730
	H344	H	0.175075	0.755129	0.854220
	O345	O	-0.037715	0.984549	0.887744
	H346	H	-0.032895	0.972346	0.881367
	H347	H	-0.037303	0.980418	0.882319
	O348	O	0.530633	0.451773	0.502721
	H349	H	0.541458	0.452966	0.491439
	H350	H	0.541126	0.462339	0.501390
	O351	O	0.524713	0.449932	0.636032
	H352	H	0.523616	0.459994	0.632917
	H353	H	0.528049	0.454649	0.641586
	O354	O	0.054134	0.944172	0.018735
	H355	H	0.054894	0.951561	0.015098
	H356	H	0.050358	0.934708	0.021554
	O357	O	0.398916	0.521761	0.375070
	H358	H	0.392880	0.518336	0.375376
	H359	H	0.392757	0.526845	0.373780
	O360	O	1.004802	0.105819	1.028302
	H361	H	1.011662	0.107270	1.043345
	H362	H	1.002136	0.112794	1.027412
	O363	O	0.651911	0.475246	0.557726
	H364	H	0.650474	0.484048	0.556526
	H365	H	0.646822	0.473843	0.553851
	O366	O	1.125256	1.092714	-0.046560
	H367	H	1.111438	1.103981	-0.048321
	H368	H	1.126287	1.095092	-0.029335
	O369	O	0.974008	0.008924	-0.094845
	H370	H	0.963444	0.011749	-0.099056
	H371	H	0.970895	0.011919	-0.096082
	O372	O	0.511650	0.622063	0.548675
	H373	H	0.504602	0.624090	0.544408
	H374	H	0.508374	0.640192	0.552423
	O375	O	0.883252	-0.057519	1.002294
	H376	H	0.874996	-0.060205	1.008678
	H377	H	0.889988	-0.066060	1.009605
	O378	O	0.096528	0.972050	-0.028360
	H379	H	0.108238	0.976673	-0.014883
	H380	H	0.103075	0.980605	-0.033511
	O381	O	0.521087	0.552090	0.363615
	H382	H	0.516980	0.539882	0.364085
	H383	H	0.517859	0.556227	0.359104
	O384	O	0.852989	1.136085	-0.087545
	H385	H	0.839878	1.156447	-0.091724
	H386	H	0.856219	1.115623	-0.070550
	O387	O	1.012726	0.021426	0.954890
	H388	H	1.010173	0.034448	0.954689
	H389	H	1.005521	0.021715	0.968748
	O390	O	0.862918	0.902659	0.135273
	H391	H	0.858367	0.894258	0.118735
	H392	H	0.852490	0.905000	0.141185
	O393	O	0.535126	0.431080	0.511008
	H394	H	0.537820	0.421327	0.503275
	H395	H	0.534960	0.435573	0.510821
