data_Molecule from HDF5

_cell_length_a		16.296380
_cell_length_b		16.225236
_cell_length_c		16.417713
_cell_angle_alpha	89.792206
_cell_angle_beta	90.452726
_cell_angle_gamma	90.073963
_symmetry_space_group_name_H-M	'P 1'
_symmetry_Int_Tables_number		1

loop_
	_symmetry_equiv_pos_as_xyz
	x,y,z

loop_
	_atom_site_label
	_atom_site_type_symbol
	_atom_site_fract_x
	_atom_site_fract_y
	_atom_site_fract_z
	H0	H	0.396589	0.817873	0.719701
	H1	H	0.603780	0.141622	0.722685
	H2	H	0.599422	0.817481	0.286999
	H3	H	0.391426	0.139949	0.278986
	H4	H	0.716040	0.377366	0.842250
	H5	H	0.719534	0.582544	0.162337
	H6	H	0.277905	0.584407	0.842658
	H7	H	0.279549	0.374790	0.162190
	H8	H	0.837466	0.697276	0.402201
	H9	H	0.162417	0.694772	0.602803
	H10	H	0.837386	0.261410	0.604858
	H11	H	0.160255	0.262002	0.401538
	H12	H	0.836872	0.377134	0.719664
	H13	H	0.158774	0.585367	0.724979
	H14	H	0.839588	0.586625	0.281503
	H15	H	0.160124	0.377056	0.284726
	H16	H	0.396420	0.696475	0.840773
	H17	H	0.600510	0.695719	0.164008
	H18	H	0.602135	0.260199	0.842943
	H19	H	0.396095	0.258775	0.161959
	H20	H	0.715127	0.818024	0.403231
	H21	H	0.717366	0.142518	0.605570
	H22	H	0.282911	0.817665	0.602581
	H23	H	0.280223	0.142990	0.398402
	H24	H	0.894251	0.320406	0.224925
	H25	H	0.105029	0.642753	0.221174
	H26	H	0.103225	0.319691	0.782404
	H27	H	0.895373	0.642609	0.784444
	H28	H	0.216073	0.878044	0.342985
	H29	H	0.221383	0.086324	0.661581
	H30	H	0.775128	0.087424	0.343339
	H31	H	0.781605	0.877265	0.663418
	H32	H	0.339250	0.200276	0.896115
	H33	H	0.660237	0.196618	0.107122
	H34	H	0.335267	0.762072	0.100477
	H35	H	0.660803	0.763562	0.903357
	H36	H	0.337206	0.870830	0.222534
	H37	H	0.657638	0.083443	0.225446
	H38	H	0.338921	0.084122	0.781335
	H39	H	0.659662	0.875713	0.785394
	H40	H	0.891381	0.203641	0.343375
	H41	H	0.103302	0.199009	0.663237
	H42	H	0.100688	0.762842	0.342976
	H43	H	0.898587	0.761783	0.663983
	H44	H	0.216247	0.318352	0.900755
	H45	H	0.216788	0.643176	0.103346
	H46	H	0.782122	0.317592	0.105903
	H47	H	0.781813	0.642381	0.901257
	H48	H	0.407437	0.097812	0.594303
	H49	H	0.590715	0.861335	0.604125
	H50	H	0.584211	0.094943	0.411936
	H51	H	0.410885	0.867760	0.417001
	H52	H	0.595564	0.390071	0.117653
	H53	H	0.584939	0.567572	0.890105
	H54	H	0.413078	0.569700	0.115635
	H55	H	0.415823	0.387798	0.889998
	H56	H	0.113270	0.568318	0.414790
	H57	H	0.879383	0.577125	0.599550
	H58	H	0.113297	0.394307	0.595586
	H59	H	0.887077	0.402890	0.409998
	H60	H	0.113676	0.389713	0.595144
	H61	H	0.884364	0.574242	0.585681
	H62	H	0.116469	0.571643	0.405791
	H63	H	0.881770	0.389091	0.407954
	H64	H	0.406530	0.574123	0.118635
	H65	H	0.588421	0.578495	0.886180
	H66	H	0.587904	0.391919	0.115316
	H67	H	0.401161	0.385748	0.885401
	H68	H	0.584505	0.093900	0.414993
	H69	H	0.580528	0.868337	0.592173
	H70	H	0.414127	0.094519	0.593830
	H71	H	0.399604	0.863492	0.413969
	H72	H	0.909398	0.598695	0.099315
	H73	H	0.093594	0.362709	0.097554
	H74	H	0.093771	0.595851	0.916813
	H75	H	0.900890	0.362220	0.912822
	H76	H	0.093064	0.888799	0.619150
	H77	H	0.087983	0.063297	0.391501
	H78	H	0.906799	0.068156	0.615626
	H79	H	0.904423	0.892355	0.388583
	H80	H	0.612933	0.071295	0.919903
	H81	H	0.385872	0.063396	0.088806
	H82	H	0.616211	0.877461	0.094265
	H83	H	0.383551	0.892802	0.906940
	H84	H	0.607908	0.895683	0.087577
	H85	H	0.383354	0.068213	0.095091
	H86	H	0.612176	0.061390	0.912196
	H87	H	0.380385	0.884084	0.905559
	H88	H	0.912354	0.068547	0.614655
	H89	H	0.079718	0.075377	0.390574
	H90	H	0.091309	0.889913	0.617714
	H91	H	0.908871	0.891545	0.390071
	H92	H	0.086060	0.597073	0.905539
	H93	H	0.081947	0.366449	0.098147
	H94	H	0.917083	0.592165	0.089563
	H95	H	0.910325	0.362978	0.903985
	H96	H	0.409465	0.094140	0.588269
	H97	H	0.596586	0.864138	0.588877
	H98	H	0.587080	0.095578	0.413726
	H99	H	0.408398	0.862943	0.406214
	H100	H	0.589792	0.384328	0.118328
	H101	H	0.596488	0.569481	0.886046
	H102	H	0.405227	0.566386	0.116543
	H103	H	0.405724	0.399596	0.891799
	H104	H	0.117744	0.577273	0.413373
	H105	H	0.884717	0.563765	0.596026
	H106	H	0.112759	0.392272	0.591551
	H107	H	0.887855	0.393000	0.420885
	H108	H	0.903531	0.595868	0.086365
	H109	H	0.088381	0.367410	0.087491
	H110	H	0.080469	0.592220	0.917109
	H111	H	0.912946	0.366554	0.916237
	H112	H	0.090518	0.887371	0.618260
	H113	H	0.093802	0.075904	0.385637
	H114	H	0.909922	0.072503	0.616707
	H115	H	0.906360	0.887992	0.387803
	H116	H	0.616874	0.072345	0.908333
	H117	H	0.384082	0.071087	0.087893
	H118	H	0.614351	0.893338	0.106959
	H119	H	0.382769	0.887441	0.914059
	C120	C	0.378709	-0.011339	0.622816
	C121	C	0.620643	0.971678	0.625519
	C122	C	0.617050	-0.011870	0.383297
	C123	C	0.375012	0.971547	0.380008
	C124	C	0.621144	0.358019	0.011323
	C125	C	0.620267	0.601640	0.994016
	C126	C	0.376892	0.601307	0.010796
	C127	C	0.376764	0.358467	0.994318
	C128	C	0.009012	0.603360	0.380545
	C129	C	0.990144	0.601987	0.624372
	C130	C	0.006982	0.359905	0.624426
	C131	C	0.991115	0.361324	0.381954
	C132	C	0.878426	0.488981	0.123855
	C133	C	0.120482	0.472558	0.124706
	C134	C	0.118532	0.488658	0.881699
	C135	C	0.877157	0.471235	0.880765
	C136	C	0.120546	0.859209	0.511737
	C137	C	0.120207	0.103250	0.494464
	C138	C	0.876382	0.102529	0.510560
	C139	C	0.876712	0.858833	0.494646
	C140	C	0.507974	0.100625	0.880971
	C141	C	0.490217	0.099338	0.123401
	C142	C	0.506226	0.856830	0.124968
	C143	C	0.489715	0.857887	0.880563
	C144	C	0.378002	0.866456	0.680391
	C145	C	0.622190	0.093251	0.683617
	C146	C	0.618301	0.866116	0.326060
	C147	C	0.373460	0.092233	0.319479
	C148	C	0.677810	0.358056	0.890523
	C149	C	0.679497	0.601686	0.114677
	C150	C	0.317544	0.602596	0.890433
	C151	C	0.318604	0.356203	0.114279
	C152	C	0.886453	0.659972	0.381411
	C153	C	0.113035	0.658014	0.623497
	C154	C	0.885601	0.301025	0.623844
	C155	C	0.111889	0.301471	0.382078
	C156	C	0.885516	0.357998	0.681619
	C157	C	0.111308	0.602969	0.683754
	C158	C	0.887623	0.605037	0.321454
	C159	C	0.112068	0.358816	0.324051
	C160	C	0.376604	0.658731	0.889625
	C161	C	0.620069	0.657913	0.115462
	C162	C	0.620834	0.299788	0.890734
	C163	C	0.376627	0.298374	0.114115
	C164	C	0.675833	0.866493	0.383680
	C165	C	0.678714	0.093763	0.625166
	C166	C	0.321163	0.866507	0.622260
	C167	C	0.317790	0.093714	0.378889
	C168	C	0.876582	0.368120	0.184187
	C169	C	0.122800	0.594182	0.182213
	C170	C	0.120655	0.367585	0.822498
	C171	C	0.876587	0.593649	0.823122
	C172	C	0.177056	0.859485	0.390905
	C173	C	0.181188	0.104684	0.613881
	C174	C	0.814909	0.105787	0.391265
	C175	C	0.820220	0.858253	0.615467
	C176	C	0.387131	0.160436	0.878419
	C177	C	0.611345	0.157993	0.126001
	C178	C	0.384405	0.799168	0.122128
	C179	C	0.611957	0.801255	0.882807
	C180	C	0.385233	0.853867	0.182494
	C181	C	0.610053	0.101292	0.184642
	C182	C	0.387234	0.102888	0.820973
	C183	C	0.611348	0.857127	0.824077
	C184	C	0.873312	0.163220	0.390995
	C185	C	0.122094	0.160946	0.614761
	C186	C	0.119688	0.801889	0.390864
	C187	C	0.878194	0.800584	0.615484
	C188	C	0.177393	0.367043	0.881195
	C189	C	0.178545	0.594418	0.123513
	C190	C	0.820726	0.366684	0.124724
	C191	C	0.820059	0.593573	0.881401
	C192	C	0.403257	0.073519	0.599036
	C193	C	0.596416	0.886591	0.601872
	C194	C	0.592380	0.072841	0.406639
	C195	C	0.399299	0.886678	0.405096
	C196	C	0.597902	0.381801	0.095331
	C197	C	0.596706	0.578650	0.909625
	C198	C	0.401317	0.576991	0.095118
	C199	C	0.400766	0.383729	0.910599
	C200	C	0.093575	0.579323	0.404502
	C201	C	0.905078	0.578504	0.600699
	C202	C	0.091250	0.384873	0.601044
	C203	C	0.907405	0.387372	0.405947
	C204	C	0.903034	0.573602	0.099040
	C205	C	0.095305	0.387574	0.101249
	C206	C	0.093815	0.573225	0.906067
	C207	C	0.901068	0.386017	0.904205
	C208	C	0.098159	0.882145	0.596215
	C209	C	0.094464	0.078778	0.410755
	C210	C	0.902259	0.076975	0.594017
	C211	C	0.899801	0.883489	0.410603
	C212	C	0.592013	0.075645	0.906161
	C213	C	0.406113	0.074581	0.097815
	C214	C	0.590826	0.881634	0.102508
	C215	C	0.404629	0.881373	0.902528
	Zn216	Zn	0.499001	-0.020571	0.752758
	Zn217	Zn	0.497101	-0.021457	0.253103
	Zn218	Zn	0.749702	0.479697	0.002601
	Zn219	Zn	0.247278	0.480116	0.002838
	Zn220	Zn	-0.000556	0.730370	0.503329
	Zn221	Zn	-0.001868	0.231707	0.502866
	Zn222	Zn	-0.002213	0.480510	0.752657
	Zn223	Zn	-0.000001	0.481787	0.252611
	Zn224	Zn	0.498393	0.730315	0.001963
	Zn225	Zn	0.499458	0.229088	0.002222
	Zn226	Zn	0.747339	-0.019473	0.502873
	Zn227	Zn	0.248653	-0.018685	0.502963
	N228	N	0.413002	0.943572	0.681126
	N229	N	0.586876	0.016326	0.683896
	N230	N	0.582391	0.942699	0.325722
	N231	N	0.407885	0.014944	0.319827
	N232	N	0.678098	0.393471	0.966418
	N233	N	0.679832	0.567546	0.038166
	N234	N	0.317575	0.567554	0.966868
	N235	N	0.318489	0.392564	0.038612
	N236	N	0.962930	0.659329	0.417327
	N237	N	0.036684	0.657303	0.587149
	N238	N	0.962115	0.301901	0.589221
	N239	N	0.035794	0.303034	0.417629
	N240	N	0.961943	0.394042	0.682111
	N241	N	0.033952	0.569143	0.684540
	N242	N	0.964719	0.570806	0.320738
	N243	N	0.036056	0.395227	0.323766
	N244	N	0.412765	0.657999	0.965473
	N245	N	0.584011	0.658145	0.039494
	N246	N	0.586372	0.299569	0.966838
	N247	N	0.411956	0.299569	0.038340
	N248	N	0.675230	0.943460	0.418522
	N249	N	0.677950	0.017067	0.589789
	N250	N	0.321730	0.943444	0.586941
	N251	N	0.318686	0.017506	0.415694
	N252	N	0.911873	0.445132	0.183596
	N253	N	0.087329	0.517313	0.182867
	N254	N	0.084976	0.444401	0.822597
	N255	N	0.911372	0.516384	0.822635
	N256	N	0.177595	0.894673	0.466938
	N257	N	0.180013	0.069463	0.537922
	N258	N	0.817021	0.068619	0.466624
	N259	N	0.819027	0.893838	0.539253
	N260	N	0.463276	0.159289	0.915083
	N261	N	0.535782	0.156808	0.088370
	N262	N	0.460794	0.800798	0.087145
	N263	N	0.535338	0.801477	0.917213
	N264	N	0.461901	0.889172	0.184325
	N265	N	0.533495	0.065729	0.183247
	N266	N	0.463396	0.066591	0.822334
	N267	N	0.534394	0.891655	0.822622
	N268	N	0.910692	0.161402	0.466220
	N269	N	0.084650	0.159905	0.539400
	N270	N	0.085026	0.801713	0.466868
	N271	N	0.912624	0.800895	0.539378
	N272	N	0.176038	0.443253	0.917203
	N273	N	0.177298	0.517610	0.088602
	N274	N	0.821569	0.442948	0.087911
	N275	N	0.820099	0.516546	0.916381
	O276	O	0.472829	0.428788	0.558689
	H277	H	0.464863	0.411988	0.554074
	H278	H	0.473380	0.421874	0.561217
	O279	O	0.558174	0.507896	0.472853
	H280	H	0.538636	0.514503	0.459888
	H281	H	0.562520	0.505918	0.483086
	O282	O	0.555738	0.567548	0.598277
	H283	H	0.575590	0.568707	0.585754
	H284	H	0.558682	0.589654	0.609563
	O285	O	0.378591	0.511704	0.527186
	H286	H	0.374248	0.519237	0.544914
	H287	H	0.377442	0.516621	0.520447
	O288	O	0.858222	0.810313	1.033243
	H289	H	0.850341	0.806133	1.049691
	H290	H	0.857615	0.805617	1.047842
	O291	O	0.032046	0.972022	-0.157054
	H292	H	0.039453	0.964704	-0.165587
	H293	H	0.041886	0.966140	-0.151229
	O294	O	0.611880	0.453587	0.469936
	H295	H	0.627703	0.456998	0.463403
	H296	H	0.612620	0.458737	0.485422
	O297	O	0.564402	0.549092	0.531881
	H298	H	0.563950	0.543732	0.538666
	H299	H	0.553198	0.541252	0.525772
	O300	O	0.397335	0.301554	0.437800
	H301	H	0.385562	0.296889	0.446124
	H302	H	0.390319	0.319843	0.428705
	O303	O	0.586224	0.383487	0.546208
	H304	H	0.591147	0.390746	0.531286
	H305	H	0.577162	0.392482	0.563784
	O306	O	0.044009	0.821175	0.837519
	H307	H	0.056545	0.810900	0.837132
	H308	H	0.055230	0.824028	0.847773
	O309	O	0.329197	0.422163	0.400280
	H310	H	0.326452	0.442667	0.421284
	H311	H	0.319392	0.428649	0.380310
	O312	O	0.116212	-0.067763	-0.108822
	H313	H	0.114873	-0.079296	-0.101697
	H314	H	0.115844	-0.054740	-0.118934
	O315	O	0.546314	0.291484	0.580450
	H316	H	0.551594	0.300046	0.582554
	H317	H	0.539538	0.284290	0.588058
	O318	O	0.557892	1.412488	1.483503
	H319	H	0.544998	1.401902	1.483191
	H320	H	0.567279	1.413779	1.499890
	O321	O	0.507607	0.607138	0.459810
	H322	H	0.508154	0.602193	0.461265
	H323	H	0.510118	0.622479	0.443941
	O324	O	-0.027607	1.035295	0.134558
	H325	H	-0.028580	1.035502	0.132281
	H326	H	-0.027411	1.027453	0.136225
	O327	O	0.352088	0.552909	0.516553
	H328	H	0.362152	0.554190	0.527491
	H329	H	0.352507	0.537582	0.521690
	O330	O	-0.011801	0.046831	0.844096
	H331	H	0.001061	0.050318	0.844030
	H332	H	-0.007335	0.052672	0.852071
	O333	O	0.094419	0.093042	1.056445
	H334	H	0.099907	0.089334	1.054805
	H335	H	0.095784	0.092431	1.065577
	O336	O	0.436872	0.310260	0.592402
	H337	H	0.453228	0.305441	0.605323
	H338	H	0.427725	0.302879	0.575912
	O339	O	0.909686	-0.084476	-0.120299
	H340	H	0.904049	-0.076272	-0.134466
	H341	H	0.915373	-0.110669	-0.109274
	O342	O	-0.039937	0.146557	-0.086653
	H343	H	-0.022335	0.141632	-0.078043
	H344	H	-0.036318	0.150939	-0.073146
	O345	O	0.946492	0.048397	1.074581
	H346	H	0.927605	0.048663	1.071467
	H347	H	0.947503	0.020203	1.074413
	O348	O	1.104033	0.967000	0.162892
	H349	H	1.112757	0.964558	0.162419
	H350	H	1.104373	0.983772	0.176135
	O351	O	0.492293	0.486071	0.424178
	H352	H	0.490011	0.482279	0.424496
	H353	H	0.491941	0.496095	0.422297
	O354	O	0.832849	0.126487	1.055903
	H355	H	0.819991	0.130910	1.038239
	H356	H	0.824593	0.125347	1.033140
	O357	O	0.417415	0.541097	0.611201
	H358	H	0.406380	0.542869	0.612428
	H359	H	0.435361	0.537926	0.618822
	O360	O	0.550127	0.577474	0.610827
	H361	H	0.551360	0.583639	0.618320
	H362	H	0.544071	0.583344	0.608166
	O363	O	0.184678	1.149007	1.079467
	H364	H	0.205761	1.175866	1.078499
	H365	H	0.173799	1.131706	1.080699
	O366	O	1.044025	0.960291	-0.009185
	H367	H	1.028242	0.969750	0.006857
	H368	H	1.036897	0.972019	-0.001352
	O369	O	-0.030425	0.789963	0.208461
	H370	H	-0.039978	0.770654	0.234169
	H371	H	-0.026587	0.813842	0.212831
	O372	O	0.633286	0.631951	0.423437
	H373	H	0.636715	0.617826	0.422999
	H374	H	0.641398	0.624453	0.432270
	O375	O	0.347116	0.478016	0.686480
	H376	H	0.339532	0.461457	0.702050
	H377	H	0.335844	0.461333	0.680081
	O378	O	1.034658	0.907761	-0.094434
	H379	H	1.020153	0.920021	-0.089074
	H380	H	1.036455	0.910910	-0.092227
	O381	O	0.832724	0.079190	-0.194490
	H382	H	0.857159	0.093801	-0.195874
	H383	H	0.819806	0.083864	-0.214465
	O384	O	0.861838	0.985181	0.184184
	H385	H	0.844992	0.986938	0.178706
	H386	H	0.858271	1.001115	0.182333
	O387	O	-0.149767	-0.176110	0.126673
	H388	H	-0.123154	-0.175705	0.130324
	H389	H	-0.156201	-0.169062	0.138573
	O390	O	-0.004045	0.999980	-0.071252
	H391	H	-0.002201	0.990520	-0.080320
	H392	H	-0.012763	0.985830	-0.062467
	O393	O	1.168607	0.951048	1.189489
	H394	H	1.186008	0.952901	1.182306
	H395	H	1.154659	0.951796	1.181348
	O396	O	0.617185	0.501704	0.502751
	H397	H	0.616561	0.495630	0.508319
	H398	H	0.615076	0.496490	0.506697
	O399	O	-0.005421	1.091821	1.031188
	H400	H	-0.017368	1.094342	1.031360
	H401	H	-0.005285	1.089285	1.032559
	O402	O	0.664879	0.352477	0.401268
	H403	H	0.665800	0.350605	0.404215
	H404	H	0.672986	0.338526	0.397365
	O405	O	0.942820	0.916159	-0.011064
	H406	H	0.937701	0.919835	-0.013808
	H407	H	0.935907	0.918183	-0.013311
	O408	O	0.962954	0.911589	-0.032497
	H409	H	0.952511	0.908963	-0.018220
	H410	H	0.963608	0.916847	-0.034474
	O411	O	1.178684	0.099839	1.011650
	H412	H	1.196181	0.112731	1.027553
	H413	H	1.179912	0.087421	1.010686
	O414	O	0.535067	0.462869	0.332174
	H415	H	0.533374	0.469916	0.321936
	H416	H	0.530528	0.463940	0.340024
	O417	O	0.383659	0.629321	0.394812
	H418	H	0.382178	0.623593	0.406327
	H419	H	0.404031	0.629299	0.385208
