data_Molecule from HDF5

_cell_length_a		16.291126
_cell_length_b		16.189989
_cell_length_c		16.257224
_cell_angle_alpha	89.912652
_cell_angle_beta	90.077535
_cell_angle_gamma	89.859557
_symmetry_space_group_name_H-M	'P 1'
_symmetry_Int_Tables_number		1

loop_
	_symmetry_equiv_pos_as_xyz
	x,y,z

loop_
	_atom_site_label
	_atom_site_type_symbol
	_atom_site_fract_x
	_atom_site_fract_y
	_atom_site_fract_z
	H0	H	0.392420	0.833071	0.706898
	H1	H	0.588912	0.162270	0.706174
	H2	H	0.589152	0.832598	0.279183
	H3	H	0.389206	0.161768	0.275650
	H4	H	0.707702	0.398075	0.829222
	H5	H	0.707096	0.598914	0.155277
	H6	H	0.275763	0.597894	0.828416
	H7	H	0.276960	0.398112	0.155814
	H8	H	0.826218	0.712305	0.394736
	H9	H	0.154761	0.710600	0.590289
	H10	H	0.826179	0.286113	0.589855
	H11	H	0.152921	0.281493	0.393087
	H12	H	0.827405	0.399236	0.707180
	H13	H	0.153546	0.596513	0.707458
	H14	H	0.827652	0.599022	0.275693
	H15	H	0.153970	0.397911	0.278040
	H16	H	0.395065	0.710986	0.827288
	H17	H	0.589461	0.711323	0.155990
	H18	H	0.590903	0.284032	0.828532
	H19	H	0.394016	0.283920	0.155474
	H20	H	0.706586	0.833958	0.393319
	H21	H	0.704715	0.161911	0.592154
	H22	H	0.276716	0.832872	0.590739
	H23	H	0.274060	0.161567	0.391836
	H24	H	0.892195	0.333723	0.207238
	H25	H	0.090707	0.662040	0.207633
	H26	H	0.090685	0.333602	0.778449
	H27	H	0.893440	0.662192	0.778643
	H28	H	0.204583	0.897657	0.328297
	H29	H	0.207256	0.098445	0.655334
	H30	H	0.773319	0.098512	0.329944
	H31	H	0.777007	0.899078	0.656597
	H32	H	0.328149	0.213859	0.892526
	H33	H	0.654911	0.212316	0.090547
	H34	H	0.327563	0.784683	0.089252
	H35	H	0.655148	0.784938	0.893377
	H36	H	0.327786	0.898817	0.205523
	H37	H	0.653689	0.098352	0.209732
	H38	H	0.328213	0.098329	0.776150
	H39	H	0.654804	0.899339	0.777727
	H40	H	0.890119	0.213455	0.328526
	H41	H	0.086961	0.210637	0.657506
	H42	H	0.088354	0.783532	0.328692
	H43	H	0.893366	0.784711	0.656486
	H44	H	0.206633	0.334648	0.893245
	H45	H	0.205373	0.662734	0.091508
	H46	H	0.776423	0.333992	0.092240
	H47	H	0.778186	0.662473	0.894709
	H48	H	0.400730	0.112579	0.581243
	H49	H	0.591238	0.879953	0.579218
	H50	H	0.581454	0.112170	0.408110
	H51	H	0.402399	0.881664	0.397508
	H52	H	0.589899	0.401916	0.111783
	H53	H	0.592720	0.596338	0.870733
	H54	H	0.393782	0.599182	0.113306
	H55	H	0.398554	0.405302	0.874501
	H56	H	0.104584	0.593977	0.409457
	H57	H	0.871231	0.592440	0.593736
	H58	H	0.108669	0.399135	0.584690
	H59	H	0.872494	0.405205	0.394393
	H60	H	0.105514	0.407117	0.581908
	H61	H	0.872569	0.597714	0.580708
	H62	H	0.104308	0.581020	0.397044
	H63	H	0.873930	0.402834	0.403420
	H64	H	0.392596	0.583396	0.107715
	H65	H	0.587655	0.583859	0.876849
	H66	H	0.585831	0.415223	0.106210
	H67	H	0.397172	0.407734	0.875178
	H68	H	0.585904	0.117052	0.397805
	H69	H	0.585388	0.877016	0.595247
	H70	H	0.393824	0.115786	0.582227
	H71	H	0.395990	0.881727	0.405507
	H72	H	0.906634	0.611516	0.082023
	H73	H	0.075073	0.382655	0.091221
	H74	H	0.072830	0.613913	0.897046
	H75	H	0.890492	0.374322	0.889319
	H76	H	0.083649	0.909823	0.607879
	H77	H	0.068731	0.082939	0.382418
	H78	H	0.887091	0.089311	0.612312
	H79	H	0.898376	0.904638	0.375878
	H80	H	0.608767	0.091605	0.897780
	H81	H	0.374206	0.093041	0.085847
	H82	H	0.608776	0.899700	0.082961
	H83	H	0.372580	0.904050	0.891830
	H84	H	0.605656	0.909703	0.083947
	H85	H	0.375594	0.091845	0.081206
	H86	H	0.608263	0.091428	0.898250
	H87	H	0.373871	0.900394	0.904893
	H88	H	0.902360	0.085202	0.605967
	H89	H	0.081439	0.106100	0.371647
	H90	H	0.080670	0.902613	0.608883
	H91	H	0.895049	0.906191	0.375152
	H92	H	0.087213	0.613260	0.909135
	H93	H	0.084750	0.384129	0.073723
	H94	H	0.891208	0.614994	0.078808
	H95	H	0.911062	0.382962	0.896495
	H96	H	0.398389	0.114785	0.588239
	H97	H	0.575014	0.883672	0.582682
	H98	H	0.574912	0.112934	0.398850
	H99	H	0.392958	0.877947	0.395734
	H100	H	0.575533	0.403320	0.107027
	H101	H	0.578655	0.595783	0.875446
	H102	H	0.406182	0.592337	0.106388
	H103	H	0.399103	0.407375	0.875750
	H104	H	0.110618	0.597183	0.393176
	H105	H	0.877060	0.584377	0.583708
	H106	H	0.108553	0.406395	0.590544
	H107	H	0.875950	0.411735	0.400307
	H108	H	0.896916	0.618727	0.093759
	H109	H	0.093953	0.376969	0.089326
	H110	H	0.090157	0.619706	0.892010
	H111	H	0.893014	0.382174	0.911449
	H112	H	0.087058	0.903816	0.611207
	H113	H	0.095681	0.081595	0.374563
	H114	H	0.898823	0.100198	0.611361
	H115	H	0.897879	0.908588	0.376376
	H116	H	0.608223	0.090864	0.897934
	H117	H	0.375674	0.088296	0.084688
	H118	H	0.610355	0.904380	0.092150
	H119	H	0.377247	0.913310	0.900595
	C120	C	0.369081	0.005990	0.613408
	C121	C	0.611828	0.989037	0.613912
	C122	C	0.611157	0.005889	0.371740
	C123	C	0.368165	0.989095	0.370095
	C124	C	0.613278	0.377033	0.000674
	C125	C	0.613843	0.620128	0.983026
	C126	C	0.369452	0.619943	0.000555
	C127	C	0.369960	0.377525	0.983557
	C128	C	-0.001204	0.620180	0.370390
	C129	C	0.981816	0.619939	0.614535
	C130	C	-0.000867	0.376278	0.614331
	C131	C	0.981777	0.376483	0.370522
	C132	C	0.869797	0.506586	0.113975
	C133	C	0.112991	0.489792	0.113733
	C134	C	0.112339	0.506821	0.870983
	C135	C	0.870216	0.488855	0.871154
	C136	C	0.112300	0.876622	0.500765
	C137	C	0.111217	0.119381	0.484145
	C138	C	0.867467	0.120432	0.501529
	C139	C	0.869153	0.877319	0.484213
	C140	C	0.500027	0.120287	0.869763
	C141	C	0.482833	0.120044	0.113666
	C142	C	0.500128	0.875707	0.114280
	C143	C	0.482803	0.876990	0.870584
	C144	C	0.371938	0.882358	0.669295
	C145	C	0.608795	0.113185	0.668073
	C146	C	0.609508	0.882133	0.316596
	C147	C	0.369482	0.112620	0.313974
	C148	C	0.669356	0.378518	0.877781
	C149	C	0.668718	0.618090	0.106487
	C150	C	0.314023	0.617878	0.877196
	C151	C	0.314932	0.378809	0.106782
	C152	C	0.875415	0.674958	0.373457
	C153	C	0.105281	0.673793	0.611173
	C154	C	0.875467	0.322637	0.611182
	C155	C	0.104555	0.320237	0.373056
	C156	C	0.876068	0.379309	0.668989
	C157	C	0.104862	0.617086	0.669576
	C158	C	0.876107	0.618698	0.314494
	C159	C	0.104943	0.377830	0.315629
	C160	C	0.373194	0.674123	0.876420
	C161	C	0.610072	0.673973	0.106937
	C162	C	0.611386	0.321868	0.877412
	C163	C	0.373057	0.321841	0.106733
	C164	C	0.668305	0.882957	0.373175
	C165	C	0.666405	0.113044	0.611656
	C166	C	0.314198	0.882317	0.611670
	C167	C	0.312173	0.112584	0.371662
	C168	C	0.871821	0.382918	0.169593
	C169	C	0.110683	0.613103	0.169457
	C170	C	0.110755	0.382854	0.816093
	C171	C	0.872975	0.613060	0.816343
	C172	C	0.167026	0.878222	0.377495
	C173	C	0.167743	0.117850	0.607111
	C174	C	0.811827	0.118575	0.378317
	C175	C	0.814583	0.878918	0.607642
	C176	C	0.377018	0.176070	0.872043
	C177	C	0.605997	0.174848	0.111797
	C178	C	0.376665	0.821909	0.109945
	C179	C	0.606192	0.822331	0.873202
	C180	C	0.376738	0.878310	0.168225
	C181	C	0.605347	0.117848	0.170464
	C182	C	0.377141	0.118585	0.814203
	C183	C	0.606150	0.879608	0.815931
	C184	C	0.869765	0.175772	0.377712
	C185	C	0.108462	0.173887	0.608097
	C186	C	0.109288	0.821335	0.377586
	C187	C	0.872654	0.822356	0.607632
	C188	C	0.168316	0.383346	0.873176
	C189	C	0.168077	0.613384	0.111964
	C190	C	0.814355	0.383045	0.112415
	C191	C	0.815725	0.613225	0.873925
	C192	C	0.391150	0.092169	0.590749
	C193	C	0.590266	0.902612	0.592107
	C194	C	0.587729	0.091875	0.394849
	C195	C	0.390633	0.902846	0.392898
	C196	C	0.590545	0.400117	0.086088
	C197	C	0.592660	0.598422	0.896611
	C198	C	0.391148	0.598261	0.086761
	C199	C	0.391798	0.400144	0.897372
	C200	C	0.084444	0.597393	0.393140
	C201	C	0.895728	0.598098	0.592501
	C202	C	0.085181	0.397751	0.592214
	C203	C	0.896248	0.399746	0.392712
	C204	C	0.891867	0.592897	0.091553
	C205	C	0.091023	0.403491	0.091472
	C206	C	0.089807	0.593192	0.892838
	C207	C	0.891734	0.402211	0.892769
	C208	C	0.090258	0.898929	0.587073
	C209	C	0.088488	0.096830	0.398244
	C210	C	0.889754	0.098250	0.587587
	C211	C	0.890779	0.899885	0.397993
	C212	C	0.586082	0.098054	0.891689
	C213	C	0.397467	0.097865	0.090550
	C214	C	0.586068	0.897994	0.092837
	C215	C	0.396833	0.899457	0.892600
	Zn216	Zn	0.491310	-0.002043	0.741720
	Zn217	Zn	0.490576	-0.002411	0.242611
	Zn218	Zn	0.741927	0.498017	-0.007434
	Zn219	Zn	0.240719	0.498502	-0.007759
	Zn220	Zn	-0.009729	0.748606	0.492261
	Zn221	Zn	-0.010157	0.248331	0.492942
	Zn222	Zn	-0.008850	0.497376	0.742753
	Zn223	Zn	-0.009308	0.498293	0.242327
	Zn224	Zn	0.491938	0.748136	-0.008330
	Zn225	Zn	0.491843	0.249151	-0.008375
	Zn226	Zn	0.739922	-0.001929	0.493525
	Zn227	Zn	0.240039	-0.002342	0.491932
	N228	N	0.405301	0.960485	0.670564
	N229	N	0.575743	0.035154	0.669686
	N230	N	0.574743	0.959589	0.315780
	N231	N	0.403567	0.034789	0.312877
	N232	N	0.670662	0.412314	0.955415
	N233	N	0.671200	0.585124	0.028499
	N234	N	0.311535	0.585198	0.955359
	N235	N	0.312844	0.412475	0.029021
	N236	N	0.952676	0.675742	0.407616
	N237	N	0.027630	0.675610	0.577663
	N238	N	0.952987	0.320770	0.577585
	N239	N	0.027028	0.319285	0.406386
	N240	N	0.953959	0.411892	0.671154
	N241	N	0.027300	0.584035	0.671620
	N242	N	0.953984	0.585500	0.312335
	N243	N	0.027597	0.412225	0.313909
	N244	N	0.407022	0.675537	0.953955
	N245	N	0.576549	0.675238	0.029289
	N246	N	0.577130	0.320906	0.954684
	N247	N	0.406678	0.321064	0.029232
	N248	N	0.669362	0.961002	0.406866
	N249	N	0.668293	0.034951	0.578430
	N250	N	0.312304	0.960066	0.577594
	N251	N	0.311277	0.034794	0.405810
	N252	N	0.905726	0.460808	0.170602
	N253	N	0.077083	0.535130	0.170889
	N254	N	0.076615	0.460611	0.814612
	N255	N	0.905900	0.534831	0.814495
	N256	N	0.168866	0.911743	0.455310
	N257	N	0.169494	0.084841	0.529165
	N258	N	0.810387	0.084930	0.455935
	N259	N	0.812327	0.912586	0.529834
	N260	N	0.454565	0.177393	0.905814
	N261	N	0.529031	0.176423	0.077286
	N262	N	0.454523	0.820055	0.077159
	N263	N	0.528531	0.820606	0.906536
	N264	N	0.454414	0.911080	0.170947
	N265	N	0.527776	0.084356	0.171763
	N266	N	0.454537	0.084781	0.812622
	N267	N	0.528386	0.913031	0.814118
	N268	N	0.903825	0.177072	0.455338
	N269	N	0.074060	0.175083	0.530640
	N270	N	0.076017	0.820081	0.455325
	N271	N	0.905878	0.821278	0.529962
	N272	N	0.169519	0.461339	0.906441
	N273	N	0.169530	0.535701	0.078080
	N274	N	0.813105	0.460912	0.078506
	N275	N	0.813837	0.535093	0.907463
	O276	O	0.492569	0.465347	0.480896
	H277	H	0.496885	0.465371	0.481296
	H278	H	0.498293	0.471972	0.478967
	O279	O	0.488845	0.459168	0.455691
	H280	H	0.495171	0.452370	0.463017
	H281	H	0.488463	0.473097	0.453509
	O282	O	0.510409	0.458951	0.436002
	H283	H	0.515956	0.445118	0.431243
	H284	H	0.509831	0.460738	0.439570
	O285	O	0.492785	1.442789	0.520105
	H286	H	0.490928	1.437558	0.519734
	H287	H	0.481391	1.438788	0.518402
	O288	O	0.487441	0.425935	0.435237
	H289	H	0.502654	0.426373	0.442289
	H290	H	0.482282	0.422139	0.424364
	O291	O	0.016706	-0.013327	1.038968
	H292	H	0.020110	-0.002375	1.042060
	H293	H	0.015697	-0.006086	1.044228
	O294	O	0.991400	-0.033923	1.064720
	H295	H	0.998160	-0.041186	1.067754
	H296	H	0.997067	-0.037962	1.070912
	O297	O	0.480379	0.540712	0.477003
	H298	H	0.480011	0.536843	0.461676
	H299	H	0.486303	0.537466	0.475017
	O300	O	0.528028	0.574833	0.482583
	H301	H	0.529998	0.575656	0.484903
	H302	H	0.529339	0.568342	0.479830
	O303	O	0.072810	0.952434	0.052037
	H304	H	0.080354	0.958973	0.054710
	H305	H	0.079596	0.945441	0.050071
	O306	O	0.469081	0.465417	1.436595
	H307	H	0.453828	0.460710	1.443653
	H308	H	0.466033	0.462316	1.432568
	O309	O	0.458113	0.496436	0.533563
	H310	H	0.458830	0.493361	0.536027
	H311	H	0.455553	0.489344	0.537124
	O312	O	0.484779	0.555094	0.461336
	H313	H	0.488935	0.551276	0.453519
	H314	H	0.482460	0.561914	0.458408
	O315	O	1.025878	-0.009726	0.989547
	H316	H	1.026843	-0.012937	0.989755
	H317	H	1.023063	-0.012329	0.991476
	O318	O	0.071681	0.017675	0.050240
	H319	H	0.072340	0.015310	0.045759
	H320	H	0.068326	0.021287	0.049130
	O321	O	1.051606	0.950047	1.086432
	H322	H	1.055387	0.948679	1.084010
	H323	H	1.047757	0.958147	1.081025
	O324	O	1.022863	-0.039126	-0.003982
	H325	H	1.018185	-0.049288	-0.001650
	H326	H	1.010075	-0.046301	-0.002459
	O327	O	1.381681	0.458407	0.523530
	H328	H	1.376181	0.456081	0.530024
	H329	H	1.386905	0.467398	0.515625
	O330	O	0.488114	0.499976	0.397775
	H331	H	0.491401	0.496361	0.400716
	H332	H	0.482311	0.498163	0.389729
	O333	O	0.433679	0.484016	0.501930
	H334	H	0.420893	0.485187	0.507165
	H335	H	0.428561	0.494962	0.500528
