data_Molecule from HDF5

_cell_length_a		16.399648
_cell_length_b		16.410473
_cell_length_c		16.269491
_cell_angle_alpha	90.041981
_cell_angle_beta	90.077642
_cell_angle_gamma	90.244929
_symmetry_space_group_name_H-M	'P 1'
_symmetry_Int_Tables_number		1

loop_
	_symmetry_equiv_pos_as_xyz
	x,y,z

loop_
	_atom_site_label
	_atom_site_type_symbol
	_atom_site_fract_x
	_atom_site_fract_y
	_atom_site_fract_z
	H0	H	0.401004	0.831481	0.704467
	H1	H	0.607881	0.151183	0.708351
	H2	H	0.606516	0.830864	0.268618
	H3	H	0.401087	0.150308	0.267181
	H4	H	0.723015	0.386346	0.830243
	H5	H	0.719609	0.595633	0.150942
	H6	H	0.283200	0.591015	0.828087
	H7	H	0.284338	0.386541	0.151480
	H8	H	0.843405	0.713223	0.384225
	H9	H	0.161887	0.713541	0.595546
	H10	H	0.843489	0.271877	0.590680
	H11	H	0.161497	0.271588	0.378449
	H12	H	0.842014	0.390067	0.706728
	H13	H	0.161436	0.598573	0.711176
	H14	H	0.841613	0.595276	0.271875
	H15	H	0.162848	0.393239	0.268743
	H16	H	0.398008	0.706715	0.827024
	H17	H	0.608061	0.713940	0.148066
	H18	H	0.604863	0.272716	0.828371
	H19	H	0.399619	0.270713	0.150524
	H20	H	0.726284	0.833515	0.380921
	H21	H	0.725013	0.151614	0.593703
	H22	H	0.278908	0.835157	0.596953
	H23	H	0.284977	0.152064	0.383115
	H24	H	0.899869	0.333804	0.208539
	H25	H	0.105036	0.654588	0.206628
	H26	H	0.107988	0.334972	0.764907
	H27	H	0.896058	0.651137	0.768694
	H28	H	0.221801	0.889551	0.328579
	H29	H	0.225013	0.099433	0.648523
	H30	H	0.782419	0.099348	0.328181
	H31	H	0.782774	0.888267	0.649023
	H32	H	0.343715	0.211377	0.880064
	H33	H	0.659478	0.215222	0.097468
	H34	H	0.344073	0.766948	0.094341
	H35	H	0.660545	0.767137	0.880745
	H36	H	0.344726	0.882188	0.211054
	H37	H	0.661020	0.097123	0.210125
	H38	H	0.342516	0.091054	0.769098
	H39	H	0.662694	0.885564	0.766933
	H40	H	0.900933	0.211603	0.326874
	H41	H	0.110961	0.216336	0.646668
	H42	H	0.107102	0.773752	0.328040
	H43	H	0.897821	0.772897	0.648570
	H44	H	0.221989	0.332050	0.882688
	H45	H	0.228672	0.649561	0.098109
	H46	H	0.781191	0.333662	0.096533
	H47	H	0.778697	0.649733	0.882835
	H48	H	0.411051	0.107016	0.576460
	H49	H	0.592948	0.875943	0.582507
	H50	H	0.591243	0.101762	0.403246
	H51	H	0.412024	0.877832	0.398249
	H52	H	0.597797	0.399955	0.106663
	H53	H	0.587715	0.577546	0.876203
	H54	H	0.421696	0.579461	0.101375
	H55	H	0.408179	0.400199	0.873957
	H56	H	0.115998	0.580704	0.399639
	H57	H	0.890982	0.579695	0.574919
	H58	H	0.118405	0.403465	0.582571
	H59	H	0.893939	0.410258	0.403671
	H60	H	0.115566	0.402268	0.570136
	H61	H	0.886623	0.581702	0.584621
	H62	H	0.117949	0.586243	0.395797
	H63	H	0.885828	0.402547	0.389652
	H64	H	0.412289	0.583456	0.105991
	H65	H	0.592242	0.581463	0.873575
	H66	H	0.589360	0.407750	0.101398
	H67	H	0.413001	0.401749	0.875780
	H68	H	0.596879	0.105358	0.399563
	H69	H	0.589562	0.881074	0.572819
	H70	H	0.416507	0.107149	0.581062
	H71	H	0.413022	0.879171	0.400877
	H72	H	0.907028	0.608328	0.078731
	H73	H	0.086360	0.380294	0.083524
	H74	H	0.091280	0.603647	0.904413
	H75	H	0.909560	0.377765	0.899420
	H76	H	0.088986	0.908886	0.600785
	H77	H	0.095049	0.079173	0.374286
	H78	H	0.920021	0.081787	0.600270
	H79	H	0.915851	0.903040	0.373749
	H80	H	0.619192	0.084142	0.893168
	H81	H	0.390096	0.077782	0.075290
	H82	H	0.618889	0.894897	0.078277
	H83	H	0.389526	0.904366	0.892769
	H84	H	0.611991	0.902240	0.066350
	H85	H	0.388397	0.078271	0.076709
	H86	H	0.616943	0.086723	0.904133
	H87	H	0.385090	0.893315	0.893813
	H88	H	0.913371	0.087776	0.605371
	H89	H	0.090587	0.082766	0.373839
	H90	H	0.090064	0.898475	0.604863
	H91	H	0.914405	0.903909	0.374734
	H92	H	0.094417	0.605102	0.903881
	H93	H	0.091304	0.381165	0.073555
	H94	H	0.911103	0.608326	0.082215
	H95	H	0.913316	0.379302	0.898383
	H96	H	0.417151	0.104359	0.574798
	H97	H	0.599703	0.877252	0.574209
	H98	H	0.590313	0.104680	0.396153
	H99	H	0.411063	0.877573	0.400929
	H100	H	0.585635	0.395955	0.105783
	H101	H	0.593531	0.575589	0.875182
	H102	H	0.412813	0.572596	0.102481
	H103	H	0.411905	0.396778	0.873263
	H104	H	0.117281	0.587351	0.402279
	H105	H	0.887153	0.589842	0.576662
	H106	H	0.112791	0.414202	0.575836
	H107	H	0.888229	0.393984	0.405649
	H108	H	0.911641	0.605996	0.077318
	H109	H	0.096943	0.376466	0.081920
	H110	H	0.091852	0.605420	0.901086
	H111	H	0.911876	0.379442	0.902682
	H112	H	0.098655	0.905541	0.605783
	H113	H	0.095939	0.084355	0.371417
	H114	H	0.910882	0.078227	0.602762
	H115	H	0.916451	0.904652	0.374584
	H116	H	0.613946	0.076286	0.900026
	H117	H	0.389419	0.079843	0.075256
	H118	H	0.614175	0.909458	0.080319
	H119	H	0.391400	0.898412	0.903058
	C120	C	0.382339	0.000845	0.609287
	C121	C	0.625840	0.983334	0.609279
	C122	C	0.624899	-0.000740	0.366993
	C123	C	0.381394	0.983258	0.366724
	C124	C	0.622873	0.369602	-0.001377
	C125	C	0.623474	0.611665	0.980664
	C126	C	0.382389	0.610049	-0.002748
	C127	C	0.380010	0.368015	0.980801
	C128	C	0.011138	0.615088	0.368158
	C129	C	0.993596	0.615441	0.611571
	C130	C	0.010799	0.373069	0.608711
	C131	C	0.994477	0.371880	0.366515
	C132	C	0.879390	0.502194	0.111543
	C133	C	0.124236	0.484664	0.111485
	C134	C	0.123787	0.500059	0.868876
	C135	C	0.879505	0.483529	0.868178
	C136	C	0.124713	0.871678	0.497938
	C137	C	0.125917	0.114919	0.479043
	C138	C	0.882991	0.114106	0.496440
	C139	C	0.882813	0.872205	0.480471
	C140	C	0.511113	0.112604	0.866570
	C141	C	0.494092	0.111531	0.108858
	C142	C	0.510665	0.868708	0.108675
	C143	C	0.493926	0.867369	0.864740
	C144	C	0.381657	0.880173	0.666593
	C145	C	0.627196	0.103275	0.669165
	C146	C	0.625858	0.879336	0.307524
	C147	C	0.381528	0.102887	0.306747
	C148	C	0.682626	0.368259	0.877983
	C149	C	0.681432	0.614230	0.101987
	C150	C	0.322813	0.610197	0.876282
	C151	C	0.322450	0.366932	0.102640
	C152	C	0.890906	0.673628	0.366461
	C153	C	0.113777	0.674536	0.614072
	C154	C	0.890801	0.312586	0.609609
	C155	C	0.114054	0.312362	0.362297
	C156	C	0.890274	0.371087	0.667550
	C157	C	0.113522	0.616924	0.671701
	C158	C	0.890021	0.614793	0.310445
	C159	C	0.114685	0.372983	0.307300
	C160	C	0.380219	0.667655	0.875435
	C161	C	0.625838	0.673282	0.100571
	C162	C	0.623839	0.311735	0.876875
	C163	C	0.379976	0.309466	0.102126
	C164	C	0.685455	0.880273	0.363846
	C165	C	0.685473	0.103436	0.612114
	C166	C	0.320761	0.882123	0.612684
	C167	C	0.323652	0.103675	0.364507
	C168	C	0.879824	0.381921	0.170402
	C169	C	0.125434	0.605580	0.168982
	C170	C	0.125654	0.381818	0.806236
	C171	C	0.877565	0.603227	0.808262
	C172	C	0.183034	0.870473	0.376765
	C173	C	0.185458	0.117837	0.599927
	C174	C	0.822964	0.116636	0.375992
	C175	C	0.822548	0.870235	0.600590
	C176	C	0.391364	0.171482	0.863246
	C177	C	0.612559	0.173849	0.113914
	C178	C	0.391842	0.807172	0.112365
	C179	C	0.613386	0.807277	0.862538
	C180	C	0.392250	0.864569	0.170629
	C181	C	0.613144	0.114846	0.170103
	C182	C	0.390899	0.111953	0.807369
	C183	C	0.614352	0.866416	0.805850
	C184	C	0.881780	0.172849	0.375249
	C185	C	0.128785	0.176026	0.599147
	C186	C	0.126057	0.812489	0.376889
	C187	C	0.879961	0.812716	0.600760
	C188	C	0.182509	0.380413	0.865110
	C189	C	0.186963	0.602924	0.114937
	C190	C	0.820847	0.381790	0.114380
	C191	C	0.818856	0.602274	0.864998
	C192	C	0.407711	0.084392	0.584544
	C193	C	0.601384	0.899906	0.583748
	C194	C	0.600152	0.082416	0.392363
	C195	C	0.405242	0.899899	0.392418
	C196	C	0.598138	0.394042	0.082850
	C197	C	0.598390	0.585793	0.896924
	C198	C	0.408245	0.585788	0.081378
	C199	C	0.403963	0.392485	0.896301
	C200	C	0.095141	0.591557	0.392365
	C201	C	0.909994	0.590924	0.586203
	C202	C	0.093924	0.398931	0.583489
	C203	C	0.911109	0.395422	0.392194
	C204	C	0.903079	0.585893	0.086584
	C205	C	0.098712	0.401102	0.086871
	C206	C	0.099431	0.583361	0.895585
	C207	C	0.904520	0.400528	0.893171
	C208	C	0.099887	0.896926	0.581958
	C209	C	0.101107	0.089564	0.395311
	C210	C	0.907709	0.089650	0.580936
	C211	C	0.908262	0.896852	0.396203
	C212	C	0.594776	0.088999	0.891975
	C213	C	0.410923	0.085934	0.082967
	C214	C	0.593527	0.894728	0.082404
	C215	C	0.410733	0.891762	0.889580
	Zn216	Zn	0.503712	-0.009006	0.737591
	Zn217	Zn	0.502839	-0.009792	0.237751
	Zn218	Zn	0.751378	0.491160	-0.009683
	Zn219	Zn	0.253335	0.490163	-0.009670
	Zn220	Zn	0.003077	0.743460	0.489166
	Zn221	Zn	0.004261	0.242604	0.487399
	Zn222	Zn	0.001968	0.493365	0.739754
	Zn223	Zn	0.002023	0.494800	0.239262
	Zn224	Zn	0.502032	0.739369	-0.012461
	Zn225	Zn	0.501867	0.240938	-0.011109
	Zn226	Zn	0.754527	-0.007012	0.487602
	Zn227	Zn	0.253028	-0.006676	0.488999
	N228	N	0.419288	0.955094	0.664563
	N229	N	0.590862	0.027582	0.667734
	N230	N	0.589019	0.954367	0.309305
	N231	N	0.416413	0.026851	0.307837
	N232	N	0.682228	0.403479	0.954706
	N233	N	0.680016	0.576640	0.026476
	N234	N	0.324175	0.574997	0.952876
	N235	N	0.322310	0.402510	0.026148
	N236	N	0.967254	0.673976	0.401596
	N237	N	0.038262	0.673745	0.577435
	N238	N	0.966978	0.313291	0.574156
	N239	N	0.038365	0.311515	0.398340
	N240	N	0.965717	0.407829	0.667094
	N241	N	0.037557	0.581028	0.670441
	N242	N	0.965759	0.579229	0.311296
	N243	N	0.039279	0.409293	0.309632
	N244	N	0.416539	0.667748	0.951687
	N245	N	0.590587	0.671977	0.023918
	N246	N	0.587332	0.312579	0.952777
	N247	N	0.414577	0.309808	0.025239
	N248	N	0.685023	0.955873	0.399903
	N249	N	0.684834	0.027858	0.575583
	N250	N	0.321087	0.958357	0.577726
	N251	N	0.323375	0.028090	0.401019
	N252	N	0.915491	0.457849	0.168844
	N253	N	0.086973	0.531070	0.166886
	N254	N	0.089813	0.457406	0.808698
	N255	N	0.914768	0.528501	0.810040
	N256	N	0.182576	0.906389	0.453075
	N257	N	0.183923	0.080681	0.524319
	N258	N	0.823478	0.081117	0.452512
	N259	N	0.824091	0.906470	0.524236
	N260	N	0.467240	0.172125	0.899385
	N261	N	0.537535	0.171678	0.076320
	N262	N	0.466535	0.809713	0.074466
	N263	N	0.537610	0.807716	0.898527
	N264	N	0.467170	0.902252	0.168290
	N265	N	0.538515	0.076621	0.166919
	N266	N	0.466443	0.076215	0.809117
	N267	N	0.539136	0.902972	0.807043
	N268	N	0.918452	0.171384	0.451339
	N269	N	0.092516	0.174393	0.523088
	N270	N	0.090574	0.813104	0.453365
	N271	N	0.916717	0.814064	0.525077
	N272	N	0.181603	0.454973	0.903518
	N273	N	0.186254	0.526689	0.079955
	N274	N	0.820351	0.457514	0.078681
	N275	N	0.819923	0.526770	0.901567
	O276	O	0.621274	0.598425	0.624281
	H277	H	0.614812	0.588480	0.635961
	H278	H	0.618925	0.581999	0.623429
	O279	O	0.460493	0.396724	0.611113
	H280	H	0.474350	0.409298	0.600826
	H281	H	0.458640	0.394384	0.590924
	O282	O	0.413301	0.498145	0.559844
	H283	H	0.406307	0.503571	0.562863
	H284	H	0.407112	0.502081	0.534294
	O285	O	0.846581	-0.013132	-0.161281
	H286	H	0.869935	-0.026033	-0.176183
	H287	H	0.831381	-0.009313	-0.177249
	O288	O	0.000258	0.065593	0.792927
	H289	H	-0.013781	0.092265	0.787683
	H290	H	-0.004754	0.072424	0.786719
	O291	O	0.477058	0.448334	0.458510
	H292	H	0.475185	0.447610	0.468441
	H293	H	0.480600	0.457178	0.472629
	O294	O	0.402093	0.646497	0.414455
	H295	H	0.416516	0.636364	0.409824
	H296	H	0.412778	0.634122	0.404439
	O297	O	1.078102	1.152847	1.168881
	H298	H	1.038296	1.144730	1.180213
	H299	H	1.077196	1.135004	1.169457
	O300	O	-0.593192	0.309297	0.674646
	H301	H	-0.603347	0.324740	0.690809
	H302	H	-0.591685	0.309702	0.679824
	O303	O	0.486069	0.408932	0.410366
	H304	H	0.504787	0.411982	0.420086
	H305	H	0.473872	0.426076	0.406185
	O306	O	1.163595	-0.194349	-0.180268
	H307	H	1.172461	-0.164263	-0.189831
	H308	H	1.142152	-0.199850	-0.176063
	O309	O	0.567837	0.410581	0.327547
	H310	H	0.574949	0.406276	0.311489
	H311	H	0.556687	0.409890	0.337880
	O312	O	0.903725	0.906910	-0.241429
	H313	H	0.913825	0.897763	-0.244978
	H314	H	0.917084	0.900257	-0.236883
	O315	O	0.426774	0.550970	0.405750
	H316	H	0.424383	0.538578	0.396758
	H317	H	0.425789	0.543942	0.413713
	O318	O	0.668182	0.371731	0.356645
	H319	H	0.679706	0.369714	0.375629
	H320	H	0.663511	0.358602	0.350808
	O321	O	0.793126	0.193837	0.973432
	H322	H	0.810083	0.205806	0.964019
	H323	H	0.791367	0.205810	0.970127
	O324	O	-0.026583	0.141561	0.968480
	H325	H	-0.008898	0.129936	0.981827
	H326	H	-0.025040	0.149314	0.963907
	O327	O	0.471192	0.648940	0.582266
	H328	H	0.468862	0.660895	0.574108
	H329	H	0.483193	0.647974	0.577626
	O330	O	0.612107	0.387591	0.594471
	H331	H	0.597788	0.391324	0.584017
	H332	H	0.619850	0.382368	0.604099
	O333	O	0.866631	1.061216	1.126341
	H334	H	0.848161	1.070508	1.108403
	H335	H	0.854360	1.046776	1.132132
	O336	O	0.330673	0.349183	0.498733
	H337	H	0.333355	0.374751	0.519174
	H338	H	0.326718	0.333153	0.504440
	O339	O	0.842536	0.151409	0.820381
	H340	H	0.847363	0.162818	0.851902
	H341	H	0.853916	0.123958	0.817725
	O342	O	0.061713	0.890576	1.117779
	H343	H	0.055458	0.885640	1.120651
	H344	H	0.077936	0.897974	1.109786
	O345	O	-0.205060	0.884683	0.963835
	H346	H	-0.206164	0.914047	0.983156
	H347	H	-0.215776	0.893930	0.941696
	O348	O	1.028508	0.787092	0.801059
	H349	H	1.016753	0.781468	0.835288
	H350	H	1.036574	0.757311	0.778192
	O351	O	0.026551	-0.132407	0.169381
	H352	H	0.035815	-0.126473	0.164656
	H353	H	0.030819	-0.120912	0.155019
	O354	O	1.005009	1.158272	-0.224036
	H355	H	0.984184	1.158842	-0.223375
	H356	H	1.006054	1.178991	-0.222954
	O357	O	-0.027900	1.118779	0.012819
	H358	H	-0.009426	1.115715	0.015566
	H359	H	-0.019804	1.120103	0.014382
	O360	O	0.319834	0.370869	0.454597
	H361	H	0.305647	0.355125	0.468437
	H362	H	0.323989	0.378787	0.477710
	O363	O	0.684215	0.622497	0.477327
	H364	H	0.683280	0.616513	0.480255
	H365	H	0.697904	0.625913	0.476412
	O366	O	0.841873	0.779005	1.000454
	H367	H	0.827248	0.768434	1.006088
	H368	H	0.822031	0.800993	0.993287
	O369	O	0.477255	0.659126	0.483101
	H370	H	0.494585	0.657384	0.468785
	H371	H	0.495864	0.663727	0.492530
	O372	O	0.184469	0.991238	-0.189419
	H373	H	0.194116	0.994375	-0.200428
	H374	H	0.166330	1.012370	-0.186507
	O375	O	0.450595	0.609834	0.350019
	H376	H	0.448129	0.606362	0.348352
	H377	H	0.438076	0.615992	0.336502
	O378	O	0.439923	0.356348	0.427152
	H379	H	0.433031	0.357186	0.426217
	H380	H	0.423277	0.365458	0.426027
	O381	O	0.300158	0.637728	0.509498
	H382	H	0.299017	0.639490	0.490983
	H383	H	0.292638	0.664305	0.503229
	O384	O	-0.175420	0.863199	1.187222
	H385	H	-0.166217	0.837002	1.165425
	H386	H	-0.172576	0.849981	1.192950
	O387	O	1.146092	1.020261	-0.029966
	H388	H	1.150418	1.008893	-0.046247
	H389	H	1.155039	1.029360	-0.024144
	O390	O	-0.041413	0.034955	1.011553
	H391	H	-0.048677	0.027535	1.004392
	H392	H	-0.030466	0.037436	0.994372
	O393	O	1.486908	0.584139	1.443586
	H394	H	1.495408	0.572286	1.455807
	H395	H	1.493358	0.591440	1.429274
	O396	O	0.205666	0.818059	0.957971
	H397	H	0.209551	0.797934	0.960630
	H398	H	0.194601	0.813251	0.942767
	O399	O	0.550600	0.397970	0.638330
	H400	H	0.538103	0.385502	0.635723
	H401	H	0.545069	0.398677	0.646835
	O402	O	1.215744	0.208434	1.013067
	H403	H	1.226181	0.215551	1.044821
	H404	H	1.233590	0.213508	1.030837
	O405	O	0.034164	-0.049003	0.115894
	H406	H	0.008112	-0.049167	0.104526
	H407	H	0.034076	-0.052975	0.119657
	O408	O	1.007683	0.774128	0.997159
	H409	H	0.990413	0.777411	0.999532
	H410	H	1.018411	0.781175	1.012436
	O411	O	0.842944	0.899988	0.141126
	H412	H	0.836496	0.893774	0.168842
	H413	H	0.856347	0.899882	0.128115
	O414	O	0.070269	0.054975	0.963500
	H415	H	0.073694	0.051060	0.970006
	H416	H	0.085201	0.071231	0.968931
	O417	O	0.690495	0.385375	0.485952
	H418	H	0.678303	0.386768	0.505660
	H419	H	0.691071	0.395828	0.492744
	O420	O	0.111390	1.172078	0.172292
	H421	H	0.072309	1.178858	0.185840
	H422	H	0.117665	1.140803	0.178809
	O423	O	1.177070	0.024875	0.094351
	H424	H	1.188598	0.024142	0.077387
	H425	H	1.204730	0.025503	0.107382
	O426	O	-0.365058	-0.382423	0.462193
	H427	H	-0.346273	-0.383760	0.473851
	H428	H	-0.355785	-0.397537	0.439625
	O429	O	0.577385	0.586541	0.677166
	H430	H	0.568573	0.597719	0.683758
	H431	H	0.567505	0.591877	0.672903
