data_Molecule from HDF5

_cell_length_a		16.044572
_cell_length_b		16.369360
_cell_length_c		16.349755
_cell_angle_alpha	89.704949
_cell_angle_beta	90.027463
_cell_angle_gamma	89.827616
_symmetry_space_group_name_H-M	'P 1'
_symmetry_Int_Tables_number		1

loop_
	_symmetry_equiv_pos_as_xyz
	x,y,z

loop_
	_atom_site_label
	_atom_site_type_symbol
	_atom_site_fract_x
	_atom_site_fract_y
	_atom_site_fract_z
	H0	H	0.390185	0.843406	0.716911
	H1	H	0.594225	0.165743	0.713615
	H2	H	0.596346	0.843346	0.279014
	H3	H	0.388449	0.165662	0.278121
	H4	H	0.706340	0.410457	0.833935
	H5	H	0.706506	0.601400	0.161468
	H6	H	0.279356	0.603319	0.833947
	H7	H	0.278340	0.406381	0.160331
	H8	H	0.827708	0.719080	0.397389
	H9	H	0.157353	0.716167	0.598211
	H10	H	0.828552	0.287192	0.599906
	H11	H	0.157497	0.287844	0.398041
	H12	H	0.828504	0.401896	0.713836
	H13	H	0.157910	0.601260	0.710288
	H14	H	0.827527	0.604722	0.282684
	H15	H	0.157884	0.402319	0.283091
	H16	H	0.388887	0.724564	0.836824
	H17	H	0.595932	0.722817	0.159552
	H18	H	0.596821	0.287490	0.835368
	H19	H	0.388619	0.283874	0.157795
	H20	H	0.706990	0.840501	0.401087
	H21	H	0.707038	0.167043	0.595595
	H22	H	0.282956	0.839393	0.593968
	H23	H	0.276681	0.165989	0.398908
	H24	H	0.888147	0.343293	0.217567
	H25	H	0.095754	0.664973	0.216161
	H26	H	0.097919	0.342734	0.780164
	H27	H	0.890972	0.665604	0.778440
	H28	H	0.207870	0.904724	0.334278
	H29	H	0.206583	0.098115	0.661541
	H30	H	0.778186	0.101779	0.334569
	H31	H	0.780039	0.905874	0.661745
	H32	H	0.328697	0.222674	0.894537
	H33	H	0.657837	0.218597	0.096577
	H34	H	0.327993	0.790190	0.098958
	H35	H	0.656664	0.789389	0.896842
	H36	H	0.328665	0.903078	0.214197
	H37	H	0.656585	0.105873	0.213753
	H38	H	0.326754	0.105559	0.783199
	H39	H	0.656834	0.904796	0.782909
	H40	H	0.886843	0.224937	0.337956
	H41	H	0.097340	0.221159	0.658867
	H42	H	0.095021	0.784373	0.335564
	H43	H	0.892012	0.784751	0.660129
	H44	H	0.209732	0.342015	0.900387
	H45	H	0.205713	0.667907	0.094490
	H46	H	0.778759	0.341092	0.095959
	H47	H	0.778415	0.667808	0.898381
	H48	H	0.398252	0.122659	0.597489
	H49	H	0.578280	0.890545	0.591203
	H50	H	0.584043	0.118760	0.406928
	H51	H	0.401596	0.888707	0.407361
	H52	H	0.588116	0.409631	0.113891
	H53	H	0.577701	0.600061	0.883215
	H54	H	0.397034	0.593789	0.114139
	H55	H	0.399935	0.416208	0.881346
	H56	H	0.113586	0.603528	0.407850
	H57	H	0.874552	0.593239	0.589050
	H58	H	0.106694	0.420727	0.589770
	H59	H	0.879051	0.413559	0.417567
	H60	H	0.115651	0.406815	0.598254
	H61	H	0.874705	0.594318	0.587998
	H62	H	0.105536	0.588399	0.413425
	H63	H	0.876191	0.422788	0.402201
	H64	H	0.405798	0.598713	0.112326
	H65	H	0.586294	0.603056	0.880480
	H66	H	0.582676	0.413658	0.111761
	H67	H	0.407117	0.414815	0.884054
	H68	H	0.585707	0.120871	0.402319
	H69	H	0.589302	0.888599	0.587023
	H70	H	0.406272	0.117676	0.588384
	H71	H	0.399386	0.886586	0.401497
	H72	H	0.900082	0.622721	0.099000
	H73	H	0.081444	0.389258	0.092252
	H74	H	0.085125	0.617102	0.908930
	H75	H	0.904372	0.390612	0.906702
	H76	H	0.092551	0.907847	0.615392
	H77	H	0.085899	0.106285	0.379171
	H78	H	0.900110	0.091597	0.613222
	H79	H	0.900226	0.906249	0.380762
	H80	H	0.615738	0.097428	0.888924
	H81	H	0.373040	0.093261	0.094927
	H82	H	0.609324	0.910677	0.082979
	H83	H	0.374319	0.916488	0.905038
	H84	H	0.608740	0.919031	0.088035
	H85	H	0.373836	0.103669	0.082626
	H86	H	0.612013	0.109250	0.913626
	H87	H	0.372558	0.912673	0.904663
	H88	H	0.906298	0.096865	0.612867
	H89	H	0.089235	0.088011	0.383549
	H90	H	0.081857	0.912527	0.610937
	H91	H	0.898375	0.911012	0.382195
	H92	H	0.089561	0.623326	0.898660
	H93	H	0.084669	0.390117	0.088232
	H94	H	0.910601	0.615686	0.086885
	H95	H	0.898324	0.388215	0.906394
	H96	H	0.394195	0.120357	0.585054
	H97	H	0.586718	0.885924	0.598739
	H98	H	0.580788	0.118479	0.403095
	H99	H	0.405919	0.888722	0.401709
	H100	H	0.580862	0.406915	0.113585
	H101	H	0.584987	0.594325	0.883631
	H102	H	0.397831	0.603913	0.115859
	H103	H	0.402399	0.409371	0.880804
	H104	H	0.112325	0.589614	0.396729
	H105	H	0.874653	0.592864	0.586941
	H106	H	0.110613	0.404723	0.580759
	H107	H	0.870979	0.405026	0.402660
	H108	H	0.893810	0.619629	0.083513
	H109	H	0.086073	0.387901	0.093609
	H110	H	0.077905	0.618622	0.899280
	H111	H	0.901739	0.387148	0.900884
	H112	H	0.082151	0.900254	0.613961
	H113	H	0.071798	0.094873	0.385368
	H114	H	0.898608	0.099735	0.615486
	H115	H	0.903259	0.909256	0.383277
	H116	H	0.604812	0.082774	0.910419
	H117	H	0.379107	0.088514	0.081157
	H118	H	0.612798	0.910988	0.092796
	H119	H	0.375085	0.913881	0.908156
	C120	C	0.370896	0.012720	0.619547
	C121	C	0.614394	0.995389	0.620258
	C122	C	0.614189	0.012515	0.375530
	C123	C	0.371007	0.995105	0.374229
	C124	C	0.614396	0.382524	0.005797
	C125	C	0.614152	0.627550	0.989639
	C126	C	0.370471	0.627575	0.006311
	C127	C	0.371818	0.382826	0.988808
	C128	C	0.001456	0.624452	0.376001
	C129	C	0.983865	0.622500	0.617408
	C130	C	0.002172	0.381306	0.619612
	C131	C	0.984091	0.383120	0.377328
	C132	C	0.871133	0.512384	0.119743
	C133	C	0.114291	0.496247	0.119738
	C134	C	0.114939	0.512692	0.874544
	C135	C	0.871805	0.495786	0.875281
	C136	C	0.114942	0.878932	0.505718
	C137	C	0.113307	0.124230	0.489810
	C138	C	0.871225	0.125585	0.506563
	C139	C	0.871022	0.880132	0.489442
	C140	C	0.501679	0.126751	0.874616
	C141	C	0.484161	0.124708	0.116831
	C142	C	0.501675	0.883910	0.118447
	C143	C	0.483193	0.884431	0.876766
	C144	C	0.371883	0.891106	0.676915
	C145	C	0.613309	0.117594	0.675057
	C146	C	0.614690	0.891108	0.318624
	C147	C	0.369763	0.117082	0.317190
	C148	C	0.670108	0.387444	0.882999
	C149	C	0.669841	0.623498	0.112076
	C150	C	0.315741	0.624578	0.883415
	C151	C	0.315447	0.384791	0.111237
	C152	C	0.877074	0.680617	0.377640
	C153	C	0.108079	0.678078	0.616898
	C154	C	0.878022	0.325055	0.619424
	C155	C	0.108460	0.326346	0.378619
	C156	C	0.877984	0.382065	0.676195
	C157	C	0.108361	0.621191	0.673146
	C158	C	0.877093	0.624005	0.320296
	C159	C	0.108390	0.383195	0.321184
	C160	C	0.370246	0.685064	0.884880
	C161	C	0.614289	0.683525	0.111531
	C162	C	0.615161	0.326823	0.883590
	C163	C	0.370392	0.323973	0.109841
	C164	C	0.669813	0.889749	0.379202
	C165	C	0.669926	0.117947	0.616514
	C166	C	0.318162	0.889135	0.616067
	C167	C	0.314287	0.117310	0.377367
	C168	C	0.870191	0.391293	0.177748
	C169	C	0.114163	0.617154	0.176732
	C170	C	0.116184	0.390957	0.819027
	C171	C	0.871771	0.617667	0.817663
	C172	C	0.170620	0.882798	0.383134
	C173	C	0.169345	0.119945	0.612345
	C174	C	0.815814	0.122720	0.383706
	C175	C	0.816615	0.883702	0.612465
	C176	C	0.377762	0.184021	0.875328
	C177	C	0.608343	0.180758	0.116283
	C178	C	0.377298	0.828286	0.117996
	C179	C	0.607286	0.827932	0.877731
	C180	C	0.377514	0.884560	0.175273
	C181	C	0.607837	0.124671	0.174463
	C182	C	0.376798	0.125779	0.819797
	C183	C	0.607536	0.885366	0.821068
	C184	C	0.869688	0.184173	0.385479
	C185	C	0.115339	0.181457	0.611092
	C186	C	0.114165	0.823282	0.383899
	C187	C	0.872255	0.823567	0.611737
	C188	C	0.171820	0.390630	0.878749
	C189	C	0.168980	0.618704	0.116268
	C190	C	0.815681	0.390222	0.117202
	C191	C	0.816036	0.618784	0.877625
	C192	C	0.392946	0.098085	0.597009
	C193	C	0.591410	0.910379	0.598690
	C194	C	0.590697	0.097242	0.397581
	C195	C	0.395382	0.910000	0.396647
	C196	C	0.590692	0.403689	0.090946
	C197	C	0.590006	0.605692	0.904530
	C198	C	0.393491	0.605223	0.091982
	C199	C	0.396022	0.406532	0.904068
	C200	C	0.088068	0.600769	0.399061
	C201	C	0.897054	0.599924	0.594646
	C202	C	0.088565	0.403951	0.596399
	C203	C	0.897900	0.406783	0.400687
	C204	C	0.894633	0.597393	0.096602
	C205	C	0.090879	0.411115	0.097751
	C206	C	0.090990	0.597774	0.895957
	C207	C	0.894758	0.410831	0.898048
	C208	C	0.092044	0.900430	0.591210
	C209	C	0.089283	0.102681	0.404712
	C210	C	0.894810	0.102834	0.591844
	C211	C	0.893711	0.902343	0.404130
	C212	C	0.588286	0.103222	0.897642
	C213	C	0.397781	0.101791	0.093238
	C214	C	0.587951	0.906972	0.094866
	C215	C	0.396453	0.907669	0.899436
	Zn216	Zn	0.491984	0.004969	0.748608
	Zn217	Zn	0.492536	0.004723	0.245342
	Zn218	Zn	0.742641	0.504771	-0.002190
	Zn219	Zn	0.243173	0.505434	-0.002398
	Zn220	Zn	-0.007220	0.750327	0.498049
	Zn221	Zn	-0.007333	0.254953	0.498103
	Zn222	Zn	-0.006902	0.502996	0.745328
	Zn223	Zn	-0.007281	0.503454	0.248843
	Zn224	Zn	0.492208	0.756960	-0.001672
	Zn225	Zn	0.493204	0.252892	-0.003676
	Zn226	Zn	0.743176	0.003756	0.498008
	Zn227	Zn	0.242972	0.002477	0.497378
	N228	N	0.403782	0.968967	0.679365
	N229	N	0.579401	0.040612	0.677512
	N230	N	0.580561	0.968253	0.316167
	N231	N	0.404222	0.040116	0.315308
	N232	N	0.669749	0.421276	0.959684
	N233	N	0.669789	0.589423	0.035421
	N234	N	0.315696	0.589780	0.960012
	N235	N	0.316200	0.420819	0.035006
	N236	N	0.955568	0.681143	0.411414
	N237	N	0.029744	0.679028	0.582933
	N238	N	0.956260	0.324518	0.584903
	N239	N	0.030033	0.325994	0.412667
	N240	N	0.956245	0.415983	0.676725
	N241	N	0.030080	0.587041	0.673231
	N242	N	0.955622	0.589830	0.319076
	N243	N	0.030068	0.417686	0.320122
	N244	N	0.403408	0.687435	0.962537
	N245	N	0.580370	0.686404	0.034131
	N246	N	0.581265	0.323489	0.960871
	N247	N	0.404774	0.322685	0.032756
	N248	N	0.669651	0.966100	0.413937
	N249	N	0.670605	0.041032	0.582832
	N250	N	0.317436	0.965631	0.580999
	N251	N	0.314639	0.040445	0.412021
	N252	N	0.904228	0.468233	0.179083
	N253	N	0.080648	0.539905	0.178849
	N254	N	0.081495	0.467846	0.816252
	N255	N	0.905653	0.540360	0.815912
	N256	N	0.171188	0.916763	0.459940
	N257	N	0.168359	0.085154	0.535871
	N258	N	0.816704	0.087108	0.460101
	N259	N	0.815643	0.917930	0.535560
	N260	N	0.456460	0.185093	0.908371
	N261	N	0.530358	0.180884	0.081212
	N262	N	0.455418	0.827840	0.083222
	N263	N	0.528982	0.827305	0.911941
	N264	N	0.455861	0.918440	0.175601
	N265	N	0.529494	0.090799	0.175045
	N266	N	0.454903	0.090784	0.819240
	N267	N	0.529183	0.919683	0.820266
	N268	N	0.903362	0.186152	0.462940
	N269	N	0.080896	0.184119	0.533972
	N270	N	0.080503	0.820738	0.461206
	N271	N	0.905345	0.821015	0.534059
	N272	N	0.171306	0.467375	0.912560
	N273	N	0.169175	0.542378	0.081502
	N274	N	0.816130	0.466669	0.081797
	N275	N	0.815639	0.542139	0.912658
	O276	O	1.060282	0.047720	0.996135
	H277	H	1.045688	0.058868	0.989300
	H278	H	1.058363	0.029116	0.999067
	O279	O	0.534125	0.444970	0.584238
	H280	H	0.538390	0.452782	0.583338
	H281	H	0.537744	0.455995	0.586059
	O282	O	0.456649	0.458985	0.473838
	H283	H	0.467498	0.448850	0.466920
	H284	H	0.463326	0.453521	0.472066
	O285	O	0.538364	0.490892	0.614690
	H286	H	0.528614	0.480766	0.608092
	H287	H	0.535928	0.495755	0.608093
	O288	O	0.516869	0.615645	0.383180
	H289	H	0.526720	0.609149	0.378098
	H290	H	0.511925	0.600380	0.398463
	O291	O	0.105467	-0.097237	0.918549
	H292	H	0.105453	-0.092515	0.896605
	H293	H	0.093481	-0.105714	0.916995
	O294	O	0.916484	1.081162	-0.061508
	H295	H	0.909942	1.077930	-0.047126
	H296	H	0.900539	1.092264	-0.061774
	O297	O	1.083880	1.122644	0.056895
	H298	H	1.071423	1.131963	0.054885
	H299	H	1.075917	1.111629	0.048902
	O300	O	0.583047	0.510920	0.472970
	H301	H	0.564773	0.512721	0.468463
	H302	H	0.592807	0.507540	0.481536
	O303	O	1.042120	0.087259	0.917016
	H304	H	1.035460	0.092254	0.919877
	H305	H	1.036148	0.100871	0.918036
	O306	O	0.444112	0.583883	0.538142
	H307	H	0.459456	0.571071	0.546441
	H308	H	0.440104	0.576716	0.537672
	O309	O	0.427910	0.630507	0.530659
	H310	H	0.427148	0.629271	0.516140
	H311	H	0.427542	0.637962	0.536203
	O312	O	0.904053	0.959310	1.008939
	H313	H	0.902721	0.950670	1.007767
	H314	H	0.912674	0.965403	1.006233
	O315	O	1.044887	0.929657	-0.048601
	H316	H	1.051962	0.941400	-0.047466
	H317	H	1.042321	0.937529	-0.058825
	O318	O	0.429956	0.520878	0.523312
	H319	H	0.426208	0.534998	0.520143
	H320	H	0.429018	0.517156	0.526276
	O321	O	0.417487	0.484620	0.502197
	H322	H	0.421789	0.479119	0.503575
	H323	H	0.418657	0.483496	0.511772
	O324	O	0.033462	0.986089	0.837398
	H325	H	0.028830	1.011952	0.852494
	H326	H	0.029507	0.990523	0.821338
	O327	O	-0.031337	0.922485	1.042511
	H328	H	-0.007293	0.917652	1.049806
	H329	H	-0.034744	0.922243	1.053067
	O330	O	0.050318	0.054649	0.131904
	H331	H	0.071713	0.054505	0.124471
	H332	H	0.050340	0.054541	0.125591
	O333	O	0.446870	0.478920	0.397754
	H334	H	0.458988	0.480267	0.388593
	H335	H	0.447671	0.481191	0.383256
	O336	O	-0.088723	0.029966	0.012596
	H337	H	-0.095056	0.023929	0.007867
	H338	H	-0.091601	0.024109	0.026065
	O339	O	-0.098697	-0.092852	-0.055298
	H340	H	-0.087912	-0.099727	-0.056254
	H341	H	-0.090006	-0.095556	-0.044372
	O342	O	0.548524	0.399649	0.446790
	H343	H	0.547202	0.408302	0.451577
	H344	H	0.539790	0.403815	0.442624
	O345	O	-0.077753	1.030405	1.000390
	H346	H	-0.074673	1.032393	1.007783
	H347	H	-0.064958	1.015046	1.001589
	O348	O	0.496989	0.650654	0.560533
	H349	H	0.497113	0.667308	0.563388
	H350	H	0.492990	0.649895	0.552315
	O351	O	0.516604	0.530246	0.547496
	H352	H	0.508273	0.539670	0.546044
	H353	H	0.510292	0.521951	0.557029
	O354	O	-0.130101	0.867527	0.115436
	H355	H	-0.120874	0.852475	0.132497
	H356	H	-0.137486	0.863794	0.122419
	O357	O	0.584932	0.448927	0.342714
	H358	H	0.582530	0.454605	0.359054
	H359	H	0.591512	0.464829	0.338943
	O360	O	1.033651	0.030473	0.990071
	H361	H	1.025371	0.025810	0.996892
	H362	H	1.036905	0.036537	0.967009
	O363	O	0.461138	0.590016	0.479549
	H364	H	0.457299	0.572827	0.482811
	H365	H	0.466576	0.595063	0.488531
	O366	O	0.518748	0.524845	0.559478
	H367	H	0.521116	0.528128	0.552550
	H368	H	0.513699	0.525118	0.556583
	O369	O	0.963635	0.026675	-0.143571
	H370	H	0.970411	0.021747	-0.127053
	H371	H	0.971876	0.016828	-0.147395
	O372	O	0.504150	0.438032	0.470753
	H373	H	0.506350	0.438747	0.463721
	H374	H	0.513291	0.432205	0.477675
	O375	O	0.941447	0.054182	0.944310
	H376	H	0.924396	0.055073	0.947473
	H377	H	0.938279	0.048847	0.947675
	O378	O	0.108200	1.087643	0.117932
	H379	H	0.096572	1.090869	0.108723
	H380	H	0.123224	1.098851	0.126938
	O381	O	0.548404	0.373388	0.455104
	H382	H	0.546582	0.368442	0.466251
	H383	H	0.543369	0.376980	0.448464
	O384	O	0.979724	1.024210	0.025665
	H385	H	0.965652	1.021477	0.032336
	H386	H	0.988555	1.023837	0.036400
	O387	O	1.014503	-0.013423	1.170920
	H388	H	1.028571	-0.001549	1.183816
	H389	H	1.036142	-0.011356	1.161121
	O390	O	0.976839	1.059380	-0.049794
	H391	H	0.966856	1.050172	-0.062888
	H392	H	0.975022	1.063227	-0.051991
	O393	O	0.451890	0.422664	0.614430
	H394	H	0.459922	0.425311	0.620411
	H395	H	0.439264	0.410882	0.624874
