data_Molecule from HDF5

_cell_length_a		16.376218
_cell_length_b		16.436521
_cell_length_c		16.356062
_cell_angle_alpha	90.022434
_cell_angle_beta	89.954926
_cell_angle_gamma	90.193768
_symmetry_space_group_name_H-M	'P 1'
_symmetry_Int_Tables_number		1

loop_
	_symmetry_equiv_pos_as_xyz
	x,y,z

loop_
	_atom_site_label
	_atom_site_type_symbol
	_atom_site_fract_x
	_atom_site_fract_y
	_atom_site_fract_z
	H0	H	0.390027	0.827904	0.720632
	H1	H	0.601257	0.145215	0.720912
	H2	H	0.606743	0.830440	0.275238
	H3	H	0.389378	0.144204	0.273867
	H4	H	0.715293	0.387469	0.840086
	H5	H	0.718957	0.593119	0.159744
	H6	H	0.274369	0.593049	0.843013
	H7	H	0.274654	0.378524	0.159579
	H8	H	0.838469	0.708536	0.393975
	H9	H	0.152950	0.714838	0.611845
	H10	H	0.837982	0.267002	0.606215
	H11	H	0.155022	0.264228	0.392147
	H12	H	0.837718	0.385315	0.719468
	H13	H	0.155408	0.594469	0.722338
	H14	H	0.838361	0.590760	0.280214
	H15	H	0.154904	0.379593	0.277419
	H16	H	0.391196	0.708358	0.841540
	H17	H	0.605407	0.709792	0.159106
	H18	H	0.602993	0.267757	0.840957
	H19	H	0.388941	0.261494	0.157779
	H20	H	0.720638	0.829539	0.391872
	H21	H	0.717289	0.145889	0.603530
	H22	H	0.273484	0.829622	0.606433
	H23	H	0.271782	0.143784	0.388632
	H24	H	0.891515	0.326728	0.221005
	H25	H	0.103176	0.643648	0.224604
	H26	H	0.104937	0.329885	0.776781
	H27	H	0.891591	0.645618	0.778765
	H28	H	0.218907	0.881588	0.341517
	H29	H	0.219371	0.094227	0.659773
	H30	H	0.776745	0.091269	0.341028
	H31	H	0.772689	0.879873	0.658813
	H32	H	0.340028	0.210561	0.890881
	H33	H	0.656618	0.209639	0.105229
	H34	H	0.341229	0.761369	0.109682
	H35	H	0.656452	0.766648	0.894410
	H36	H	0.339297	0.880496	0.222293
	H37	H	0.655679	0.095658	0.223400
	H38	H	0.337873	0.091854	0.778470
	H39	H	0.656521	0.882676	0.779049
	H40	H	0.891628	0.209362	0.341695
	H41	H	0.104504	0.209904	0.660500
	H42	H	0.104183	0.764087	0.343196
	H43	H	0.887027	0.762953	0.658680
	H44	H	0.221684	0.330054	0.891976
	H45	H	0.222548	0.643172	0.112035
	H46	H	0.776570	0.327242	0.102796
	H47	H	0.775366	0.645686	0.893790
	H48	H	0.414029	0.099709	0.592471
	H49	H	0.584315	0.872224	0.593347
	H50	H	0.594316	0.101334	0.415654
	H51	H	0.410601	0.877061	0.414228
	H52	H	0.584208	0.400145	0.113714
	H53	H	0.586093	0.573667	0.888374
	H54	H	0.406379	0.568622	0.113401
	H55	H	0.409631	0.401613	0.888980
	H56	H	0.109493	0.570625	0.411603
	H57	H	0.879197	0.587078	0.588247
	H58	H	0.113296	0.395347	0.590364
	H59	H	0.885540	0.402492	0.414632
	H60	H	0.109982	0.398397	0.586873
	H61	H	0.888720	0.570120	0.580188
	H62	H	0.112344	0.580003	0.411596
	H63	H	0.881202	0.395959	0.408483
	H64	H	0.418302	0.572221	0.110615
	H65	H	0.584425	0.580214	0.886329
	H66	H	0.585546	0.394161	0.115892
	H67	H	0.412400	0.398382	0.887880
	H68	H	0.585168	0.102082	0.403869
	H69	H	0.585028	0.875160	0.586789
	H70	H	0.409850	0.097576	0.583576
	H71	H	0.408195	0.874983	0.412283
	H72	H	0.907992	0.599960	0.091248
	H73	H	0.082252	0.373433	0.093629
	H74	H	0.083263	0.602476	0.901886
	H75	H	0.909580	0.375026	0.911034
	H76	H	0.079668	0.901894	0.611501
	H77	H	0.086976	0.080534	0.386006
	H78	H	0.909356	0.080071	0.614902
	H79	H	0.916432	0.893080	0.389001
	H80	H	0.609529	0.069185	0.906277
	H81	H	0.382374	0.072030	0.096897
	H82	H	0.607628	0.904427	0.083254
	H83	H	0.383548	0.898882	0.907789
	H84	H	0.612383	0.901554	0.094702
	H85	H	0.383710	0.083376	0.081219
	H86	H	0.614676	0.082453	0.906331
	H87	H	0.381986	0.892664	0.912079
	H88	H	0.904753	0.075607	0.615162
	H89	H	0.087124	0.072730	0.388138
	H90	H	0.084347	0.897192	0.615533
	H91	H	0.902409	0.895094	0.384055
	H92	H	0.075594	0.593023	0.920598
	H93	H	0.081830	0.376395	0.084668
	H94	H	0.908493	0.600303	0.092098
	H95	H	0.906262	0.374866	0.913990
	H96	H	0.404530	0.103199	0.590602
	H97	H	0.590077	0.871524	0.589571
	H98	H	0.580251	0.095986	0.416549
	H99	H	0.410968	0.876241	0.411383
	H100	H	0.590106	0.398633	0.115339
	H101	H	0.591074	0.577109	0.884648
	H102	H	0.410128	0.581077	0.115784
	H103	H	0.407596	0.397822	0.886914
	H104	H	0.108295	0.576006	0.419511
	H105	H	0.881602	0.570220	0.599637
	H106	H	0.111473	0.400443	0.591290
	H107	H	0.883721	0.393413	0.417458
	H108	H	0.908789	0.599308	0.090624
	H109	H	0.089711	0.372345	0.087495
	H110	H	0.096608	0.600775	0.919520
	H111	H	0.906069	0.373494	0.909957
	H112	H	0.087404	0.904264	0.612974
	H113	H	0.080277	0.077063	0.389414
	H114	H	0.910692	0.073926	0.612628
	H115	H	0.909648	0.906098	0.390595
	H116	H	0.608169	0.077449	0.917917
	H117	H	0.390996	0.065457	0.080712
	H118	H	0.612489	0.892487	0.085385
	H119	H	0.385284	0.899075	0.915378
	C120	C	0.375878	-0.004488	0.621300
	C121	C	0.618501	0.977892	0.621804
	C122	C	0.619628	-0.004098	0.378378
	C123	C	0.376135	0.979544	0.378201
	C124	C	0.618119	0.366688	0.009241
	C125	C	0.620098	0.609524	0.991573
	C126	C	0.377091	0.607598	0.008919
	C127	C	0.376007	0.364971	0.992106
	C128	C	0.005435	0.607561	0.380931
	C129	C	0.987621	0.609759	0.623116
	C130	C	0.006342	0.365957	0.622288
	C131	C	0.988259	0.364956	0.380137
	C132	C	0.875390	0.494825	0.122601
	C133	C	0.118902	0.477688	0.123154
	C134	C	0.118462	0.494969	0.879931
	C135	C	0.875782	0.479350	0.879195
	C136	C	0.117385	0.866939	0.508942
	C137	C	0.118764	0.109871	0.492524
	C138	C	0.876755	0.108132	0.508810
	C139	C	0.874903	0.864973	0.492253
	C140	C	0.505903	0.108488	0.877627
	C141	C	0.489713	0.107927	0.120324
	C142	C	0.506725	0.865392	0.121858
	C143	C	0.488902	0.865400	0.879265
	C144	C	0.371824	0.876224	0.681600
	C145	C	0.620298	0.097613	0.681333
	C146	C	0.623686	0.877593	0.316247
	C147	C	0.371860	0.097248	0.315121
	C148	C	0.676562	0.366991	0.888301
	C149	C	0.679951	0.611790	0.111601
	C150	C	0.314967	0.610917	0.890386
	C151	C	0.314847	0.360936	0.111562
	C152	C	0.886090	0.668196	0.376989
	C153	C	0.105977	0.672932	0.628098
	C154	C	0.885894	0.306809	0.624472
	C155	C	0.107509	0.304232	0.375081
	C156	C	0.885694	0.365513	0.680870
	C157	C	0.107289	0.612989	0.683316
	C158	C	0.885978	0.609665	0.320034
	C159	C	0.107443	0.362044	0.318136
	C160	C	0.373401	0.668458	0.889752
	C161	C	0.623280	0.669989	0.111067
	C162	C	0.620681	0.307595	0.888985
	C163	C	0.372002	0.302553	0.110716
	C164	C	0.680318	0.876821	0.374870
	C165	C	0.678164	0.097768	0.623227
	C166	C	0.313955	0.876863	0.624357
	C167	C	0.313233	0.096920	0.372379
	C168	C	0.872918	0.374822	0.181522
	C169	C	0.121977	0.596067	0.184936
	C170	C	0.122230	0.377079	0.817645
	C171	C	0.873486	0.598223	0.818836
	C172	C	0.178458	0.863489	0.389644
	C173	C	0.180177	0.112712	0.611908
	C174	C	0.816857	0.109938	0.388671
	C175	C	0.812992	0.861861	0.611171
	C176	C	0.387198	0.169807	0.873787
	C177	C	0.608815	0.169620	0.123697
	C178	C	0.388196	0.802754	0.126489
	C179	C	0.608760	0.806322	0.876610
	C180	C	0.387180	0.862174	0.182467
	C181	C	0.608403	0.112872	0.182516
	C182	C	0.385922	0.110392	0.817992
	C183	C	0.608717	0.864234	0.819201
	C184	C	0.873972	0.168577	0.389226
	C185	C	0.122271	0.169922	0.612240
	C186	C	0.121354	0.804860	0.390336
	C187	C	0.870069	0.803609	0.611080
	C188	C	0.180657	0.377025	0.874985
	C189	C	0.181170	0.595784	0.128567
	C190	C	0.816048	0.374796	0.122417
	C191	C	0.815461	0.598361	0.876173
	C192	C	0.401941	0.078541	0.596055
	C193	C	0.593652	0.894745	0.596969
	C194	C	0.593928	0.078239	0.404346
	C195	C	0.402377	0.897471	0.404985
	C196	C	0.593534	0.390615	0.093065
	C197	C	0.594650	0.584294	0.908155
	C198	C	0.403873	0.581532	0.091859
	C199	C	0.402263	0.391670	0.909575
	C200	C	0.088144	0.582749	0.406632
	C201	C	0.904926	0.583335	0.597045
	C202	C	0.089682	0.390834	0.596821
	C203	C	0.905443	0.390041	0.406142
	C204	C	0.901040	0.578120	0.098275
	C205	C	0.092258	0.395615	0.096153
	C206	C	0.092652	0.577266	0.906561
	C207	C	0.900448	0.396133	0.904354
	C208	C	0.091256	0.893421	0.591839
	C209	C	0.092473	0.084027	0.409490
	C210	C	0.901393	0.083508	0.592319
	C211	C	0.901668	0.890773	0.409353
	C212	C	0.589089	0.083423	0.902882
	C213	C	0.407180	0.081283	0.093981
	C214	C	0.589372	0.891926	0.095435
	C215	C	0.405375	0.889751	0.904457
	Zn216	Zn	0.496425	-0.013772	0.750274
	Zn217	Zn	0.498009	-0.012542	0.249885
	Zn218	Zn	0.746912	0.487448	0.000408
	Zn219	Zn	0.247494	0.486595	0.001721
	Zn220	Zn	-0.003241	0.736875	0.501089
	Zn221	Zn	-0.002627	0.237902	0.501127
	Zn222	Zn	-0.002819	0.487700	0.750159
	Zn223	Zn	-0.003224	0.485642	0.251984
	Zn224	Zn	0.498414	0.737000	0.000405
	Zn225	Zn	0.497676	0.237067	-0.000832
	Zn226	Zn	0.747634	-0.013172	0.500097
	Zn227	Zn	0.247016	-0.011876	0.500434
	N228	N	0.409883	0.950943	0.679706
	N229	N	0.584304	0.022031	0.680875
	N230	N	0.586367	0.952529	0.318357
	N231	N	0.410386	0.023273	0.318713
	N232	N	0.675214	0.402931	0.964161
	N233	N	0.678457	0.575221	0.036112
	N234	N	0.317034	0.574105	0.965772
	N235	N	0.317088	0.398897	0.036726
	N236	N	0.961475	0.667232	0.413934
	N237	N	0.030446	0.671239	0.591645
	N238	N	0.961979	0.306916	0.588899
	N239	N	0.032540	0.305925	0.412763
	N240	N	0.961562	0.401423	0.679808
	N241	N	0.032709	0.574358	0.680247
	N242	N	0.961045	0.572852	0.321994
	N243	N	0.032360	0.399069	0.320884
	N244	N	0.411065	0.666699	0.964772
	N245	N	0.586804	0.668736	0.035341
	N246	N	0.585148	0.307181	0.965102
	N247	N	0.409095	0.304744	0.035314
	N248	N	0.677843	0.951226	0.412879
	N249	N	0.677481	0.022224	0.587264
	N250	N	0.316229	0.952067	0.587683
	N251	N	0.315843	0.022781	0.411129
	N252	N	0.908955	0.450513	0.181921
	N253	N	0.084066	0.521456	0.181915
	N254	N	0.084238	0.451378	0.820631
	N255	N	0.910445	0.523255	0.820708
	N256	N	0.176123	0.901425	0.464508
	N257	N	0.178198	0.076085	0.536234
	N258	N	0.818275	0.073049	0.464041
	N259	N	0.815950	0.899298	0.536127
	N260	N	0.462646	0.168623	0.910314
	N261	N	0.534046	0.166558	0.085834
	N262	N	0.463504	0.804663	0.089627
	N263	N	0.533279	0.807099	0.913245
	N264	N	0.462063	0.900207	0.179861
	N265	N	0.533288	0.075350	0.180771
	N266	N	0.460782	0.072742	0.820352
	N267	N	0.533030	0.900112	0.820479
	N268	N	0.910607	0.167408	0.464900
	N269	N	0.085224	0.168599	0.536989
	N270	N	0.084110	0.806881	0.465645
	N271	N	0.907899	0.805452	0.536104
	N272	N	0.178425	0.451481	0.913189
	N273	N	0.179471	0.521070	0.090961
	N274	N	0.817116	0.450611	0.086965
	N275	N	0.817166	0.523607	0.913550
	O276	O	0.608800	0.632028	0.500965
	H277	H	0.600203	0.650553	0.510930
	H278	H	0.596811	0.631009	0.484366
	O279	O	0.373516	0.525147	0.701424
	H280	H	0.388197	0.539588	0.684757
	H281	H	0.377984	0.542918	0.710821
	O282	O	0.415051	0.573075	0.307340
	H283	H	0.417545	0.579769	0.320158
	H284	H	0.415453	0.570756	0.311765
	O285	O	0.881865	0.800571	0.076832
	H286	H	0.863287	0.795778	0.050032
	H287	H	0.902533	0.796755	0.061345
	O288	O	0.281492	0.266787	0.518616
	H289	H	0.289048	0.276434	0.564993
	H290	H	0.250514	0.237128	0.531976
	O291	O	0.620423	0.542730	0.355357
	H292	H	0.619056	0.544909	0.327088
	H293	H	0.616353	0.543125	0.375373
	O294	O	0.826121	0.786563	0.997791
	H295	H	0.825360	0.789452	0.975851
	H296	H	0.835074	0.773163	0.996010
	O297	O	0.290219	0.462926	0.586595
	H298	H	0.281740	0.455156	0.606038
	H299	H	0.303879	0.477253	0.575944
	O300	O	0.386541	0.413946	0.450161
	H301	H	0.377414	0.408915	0.446273
	H302	H	0.384177	0.397655	0.454262
	O303	O	0.478732	0.326735	0.473916
	H304	H	0.469325	0.343932	0.489382
	H305	H	0.452554	0.319336	0.473585
	O306	O	0.024330	-0.113720	0.801337
	H307	H	-0.003412	-0.103059	0.799165
	H308	H	0.021185	-0.074179	0.796319
	O309	O	1.043817	0.086920	-0.091931
	H310	H	1.058298	0.094010	-0.082854
	H311	H	1.031202	0.093098	-0.067193
	O312	O	0.093868	0.847901	0.789693
	H313	H	0.098479	0.853748	0.764298
	H314	H	0.081518	0.864442	0.781544
	O315	O	0.814252	1.010102	0.162073
	H316	H	0.821090	0.974159	0.163662
	H317	H	0.788169	1.001725	0.164031
	O318	O	0.123687	0.112974	0.185009
	H319	H	0.098172	0.100817	0.186110
	H320	H	0.120317	0.080763	0.195892
	O321	O	0.475429	0.705764	0.289286
	H322	H	0.457951	0.714733	0.269439
	H323	H	0.464502	0.705259	0.278446
	O324	O	1.044973	0.096083	0.831408
	H325	H	1.045580	0.113858	0.838885
	H326	H	1.034269	0.117015	0.835348
	O327	O	0.297277	0.698818	0.481593
	H328	H	0.297717	0.692048	0.502031
	H329	H	0.282012	0.708657	0.496951
	O330	O	0.186093	0.966559	1.018691
	H331	H	0.192488	0.972269	1.011463
	H332	H	0.195414	0.955566	1.011167
	O333	O	0.170384	0.978095	0.143189
	H334	H	0.176987	0.963449	0.154592
	H335	H	0.171381	0.971616	0.116762
	O336	O	0.800959	1.029150	-0.175440
	H337	H	0.805766	1.042963	-0.161119
	H338	H	0.779865	1.024709	-0.193738
	O339	O	0.010431	1.167256	0.803826
	H340	H	0.013114	1.198926	0.785301
	H341	H	0.003035	1.165350	0.824639
	O342	O	0.409810	0.620146	0.534984
	H343	H	0.404373	0.625337	0.538797
	H344	H	0.400938	0.609724	0.511757
	O345	O	-0.155185	0.138415	1.004648
	H346	H	-0.132410	0.127793	1.009091
	H347	H	-0.152485	0.132820	1.031006
	O348	O	0.298429	0.596591	0.302870
	H349	H	0.285978	0.612768	0.325069
	H350	H	0.301317	0.580783	0.290183
	O351	O	0.865837	1.150650	-0.170087
	H352	H	0.858433	1.148737	-0.140508
	H353	H	0.898995	1.146896	-0.163515
	O354	O	1.029133	0.923948	1.053852
	H355	H	1.037328	0.924795	1.071090
	H356	H	1.052543	0.916347	1.047427
	O357	O	-0.499265	0.574971	-0.432770
	H358	H	-0.475849	0.581032	-0.446003
	H359	H	-0.504315	0.587433	-0.428866
	O360	O	0.609334	0.286423	0.311500
	H361	H	0.577039	0.274971	0.328723
	H362	H	0.613566	0.261251	0.316031
	O363	O	1.071875	-0.200883	0.109932
	H364	H	1.082585	-0.193879	0.090511
	H365	H	1.080942	-0.195487	0.091875
	O366	O	-0.201604	-0.085112	1.144149
	H367	H	-0.189825	-0.102451	1.144576
	H368	H	-0.200969	-0.082936	1.121472
	O369	O	1.206599	0.196240	1.055654
	H370	H	1.183352	0.187921	1.097685
	H371	H	1.237215	0.211516	1.062146
	O372	O	0.602265	0.467745	0.571810
	H373	H	0.585011	0.471838	0.563007
	H374	H	0.595568	0.469247	0.548106
	O375	O	-0.146888	-0.061064	0.951592
	H376	H	-0.146078	-0.068570	0.965125
	H377	H	-0.142286	-0.047282	0.945236
	O378	O	0.414898	0.390874	0.339048
	H379	H	0.417001	0.352729	0.346469
	H380	H	0.422823	0.418255	0.334858
	O381	O	-0.198340	1.094453	-0.046534
	H382	H	-0.179540	1.079792	-0.028051
	H383	H	-0.225845	1.108033	-0.055627
	O384	O	0.488540	0.305821	0.699433
	H385	H	0.506230	0.308873	0.704605
	H386	H	0.495473	0.309686	0.698542
	O387	O	0.696477	0.393384	0.302806
	H388	H	0.696811	0.388015	0.300807
	H389	H	0.690589	0.384520	0.282900
	O390	O	1.189125	0.906009	-0.123179
	H391	H	1.180996	0.937330	-0.139475
	H392	H	1.161655	0.915866	-0.124173
	O393	O	1.216215	-0.231615	0.980898
	H394	H	1.219740	-0.234479	0.947490
	H395	H	1.236168	-0.251861	0.956129
	O396	O	0.638158	0.328930	0.640793
	H397	H	0.631314	0.322554	0.634294
	H398	H	0.656423	0.313250	0.621904
	O399	O	0.325908	0.311977	0.670874
	H400	H	0.339493	0.342505	0.680768
	H401	H	0.352115	0.328601	0.681928
	O402	O	1.068754	0.982515	-0.152859
	H403	H	1.057870	1.005984	-0.145433
	H404	H	1.064982	0.978119	-0.155345
	O405	O	0.527924	0.402109	0.302170
	H406	H	0.525194	0.389894	0.306042
	H407	H	0.513090	0.400818	0.303042
	O408	O	0.570179	0.685208	0.699327
	H409	H	0.610751	0.673223	0.682090
	H410	H	0.577053	0.700231	0.718366
	O411	O	0.983033	0.985866	1.173486
	H412	H	0.992030	0.986447	1.173638
	H413	H	0.983085	0.972872	1.177221
	O414	O	0.592316	0.632441	0.465941
	H415	H	0.586179	0.624117	0.466458
	H416	H	0.588178	0.642107	0.473166
	O417	O	0.074596	1.128172	1.197290
	H418	H	0.057932	1.119732	1.206063
	H419	H	0.065753	1.113741	1.210019
	O420	O	0.011598	1.140561	1.053851
	H421	H	0.018484	1.147499	1.071591
	H422	H	-0.003415	1.117558	1.058716
	O423	O	0.000664	0.875249	-0.051267
	H424	H	0.002342	0.881074	-0.060407
	H425	H	0.001093	0.863239	-0.071050
	O426	O	0.664298	0.291728	0.503161
	H427	H	0.656409	0.304903	0.481635
	H428	H	0.668470	0.285725	0.491470
	O429	O	0.291748	0.531007	0.415502
	H430	H	0.301634	0.515485	0.406697
	H431	H	0.273968	0.530137	0.417974
	O432	O	0.662627	0.563497	0.617966
	H433	H	0.661509	0.553799	0.599190
	H434	H	0.672744	0.561375	0.609771
	O435	O	0.596184	0.530517	0.650604
	H436	H	0.590500	0.535465	0.632706
	H437	H	0.605528	0.537559	0.647965
	O438	O	-0.046907	0.862857	1.205812
	H439	H	-0.042608	0.841532	1.196000
	H440	H	-0.039810	0.847452	1.204936
	O441	O	0.683103	0.585167	0.620559
	H442	H	0.695947	0.566028	0.610497
	H443	H	0.688431	0.584576	0.586065
