data_Molecule from HDF5

_cell_length_a		16.324632
_cell_length_b		16.308114
_cell_length_c		16.300776
_cell_angle_alpha	90.347720
_cell_angle_beta	89.951439
_cell_angle_gamma	90.347966
_symmetry_space_group_name_H-M	'P 1'
_symmetry_Int_Tables_number		1

loop_
	_symmetry_equiv_pos_as_xyz
	x,y,z

loop_
	_atom_site_label
	_atom_site_type_symbol
	_atom_site_fract_x
	_atom_site_fract_y
	_atom_site_fract_z
	H0	H	0.392373	0.821096	0.720121
	H1	H	0.599080	0.143921	0.722025
	H2	H	0.596159	0.821545	0.283893
	H3	H	0.391512	0.142781	0.284324
	H4	H	0.714555	0.381876	0.845494
	H5	H	0.712015	0.587639	0.169612
	H6	H	0.275968	0.585802	0.845807
	H7	H	0.275829	0.378381	0.166224
	H8	H	0.833237	0.696879	0.405883
	H9	H	0.156316	0.703779	0.610662
	H10	H	0.832740	0.264565	0.607066
	H11	H	0.155113	0.261247	0.400107
	H12	H	0.832845	0.382044	0.722506
	H13	H	0.157064	0.586074	0.725175
	H14	H	0.834670	0.583759	0.287940
	H15	H	0.154504	0.375009	0.283150
	H16	H	0.397751	0.696055	0.841921
	H17	H	0.598406	0.704203	0.166468
	H18	H	0.599586	0.265267	0.844494
	H19	H	0.389020	0.261489	0.164650
	H20	H	0.709919	0.818608	0.400633
	H21	H	0.715085	0.142981	0.606517
	H22	H	0.275478	0.821352	0.606082
	H23	H	0.274460	0.141913	0.398467
	H24	H	0.888667	0.321390	0.225256
	H25	H	0.101074	0.641997	0.228136
	H26	H	0.099317	0.322215	0.785911
	H27	H	0.895514	0.644508	0.790668
	H28	H	0.214177	0.875272	0.343924
	H29	H	0.214851	0.086278	0.665461
	H30	H	0.779172	0.080597	0.342014
	H31	H	0.775992	0.880334	0.665986
	H32	H	0.335744	0.202789	0.897651
	H33	H	0.656130	0.203853	0.107698
	H34	H	0.334744	0.765083	0.104012
	H35	H	0.658199	0.766438	0.901064
	H36	H	0.335485	0.876886	0.223577
	H37	H	0.657037	0.088622	0.223656
	H38	H	0.334983	0.083644	0.785888
	H39	H	0.657770	0.883229	0.786163
	H40	H	0.889543	0.201162	0.344838
	H41	H	0.096758	0.199590	0.667030
	H42	H	0.097694	0.759606	0.345327
	H43	H	0.893437	0.767813	0.668777
	H44	H	0.215620	0.322763	0.899433
	H45	H	0.216089	0.642806	0.112495
	H46	H	0.772567	0.323169	0.111005
	H47	H	0.782032	0.646144	0.908374
	H48	H	0.407497	0.094128	0.587676
	H49	H	0.591484	0.865459	0.590739
	H50	H	0.585323	0.097898	0.408725
	H51	H	0.409011	0.873199	0.426003
	H52	H	0.586185	0.398700	0.120918
	H53	H	0.588567	0.580154	0.887711
	H54	H	0.404121	0.572295	0.120800
	H55	H	0.404035	0.395922	0.890413
	H56	H	0.111576	0.573059	0.414335
	H57	H	0.879285	0.572149	0.604002
	H58	H	0.112150	0.392220	0.604214
	H59	H	0.876967	0.393359	0.403446
	H60	H	0.111670	0.385144	0.593962
	H61	H	0.878600	0.577844	0.599784
	H62	H	0.107927	0.572903	0.424386
	H63	H	0.878671	0.378338	0.421547
	H64	H	0.409715	0.573061	0.119483
	H65	H	0.597121	0.573460	0.888832
	H66	H	0.579748	0.392854	0.119632
	H67	H	0.408776	0.393755	0.892639
	H68	H	0.585613	0.094096	0.419641
	H69	H	0.585532	0.863978	0.601379
	H70	H	0.398374	0.100135	0.595198
	H71	H	0.392622	0.862546	0.410897
	H72	H	0.905939	0.597415	0.097162
	H73	H	0.080587	0.369828	0.092566
	H74	H	0.076348	0.597456	0.909365
	H75	H	0.901925	0.367342	0.915929
	H76	H	0.079550	0.891905	0.618357
	H77	H	0.089941	0.077994	0.386086
	H78	H	0.905216	0.064074	0.617097
	H79	H	0.901128	0.895411	0.390852
	H80	H	0.612143	0.080467	0.915482
	H81	H	0.378748	0.074542	0.098914
	H82	H	0.610459	0.891043	0.089218
	H83	H	0.379079	0.892543	0.905316
	H84	H	0.609444	0.899225	0.092935
	H85	H	0.383854	0.074786	0.086918
	H86	H	0.607115	0.069443	0.918172
	H87	H	0.377739	0.882415	0.911189
	H88	H	0.910944	0.077029	0.619112
	H89	H	0.087201	0.062537	0.391613
	H90	H	0.088276	0.891173	0.621493
	H91	H	0.911849	0.884776	0.391092
	H92	H	0.086395	0.592394	0.930224
	H93	H	0.087469	0.368224	0.091405
	H94	H	0.904146	0.598389	0.100281
	H95	H	0.905372	0.368041	0.914355
	H96	H	0.410586	0.098395	0.600120
	H97	H	0.580125	0.869945	0.591927
	H98	H	0.594613	0.098979	0.415314
	H99	H	0.414959	0.867978	0.402976
	H100	H	0.587121	0.390519	0.123118
	H101	H	0.587199	0.570601	0.892131
	H102	H	0.406646	0.577648	0.120996
	H103	H	0.405809	0.390694	0.889767
	H104	H	0.107443	0.564846	0.418444
	H105	H	0.881611	0.572163	0.597288
	H106	H	0.106770	0.397442	0.593663
	H107	H	0.885542	0.400732	0.424199
	H108	H	0.907960	0.597303	0.099802
	H109	H	0.084290	0.366490	0.097611
	H110	H	0.098819	0.602497	0.912757
	H111	H	0.904345	0.368198	0.917747
	H112	H	0.085371	0.899764	0.617744
	H113	H	0.075068	0.073485	0.392375
	H114	H	0.897089	0.074304	0.621991
	H115	H	0.897964	0.880920	0.385654
	H116	H	0.612137	0.071622	0.907823
	H117	H	0.383931	0.063861	0.093485
	H118	H	0.612777	0.892752	0.098044
	H119	H	0.382563	0.890823	0.916939
	C120	C	0.374072	-0.008980	0.624677
	C121	C	0.617194	0.973154	0.625287
	C122	C	0.617737	-0.009676	0.382391
	C123	C	0.373995	0.973581	0.382026
	C124	C	0.616481	0.362874	0.014723
	C125	C	0.619484	0.606097	0.997230
	C126	C	0.375764	0.604099	0.014032
	C127	C	0.373893	0.361098	0.996642
	C128	C	0.003082	0.601443	0.387156
	C129	C	0.986775	0.605033	0.630200
	C130	C	0.003432	0.360942	0.627606
	C131	C	0.986225	0.359330	0.384018
	C132	C	0.873517	0.491418	0.129250
	C133	C	0.116658	0.473964	0.127196
	C134	C	0.117818	0.491475	0.884865
	C135	C	0.874588	0.474776	0.886468
	C136	C	0.115833	0.861151	0.513329
	C137	C	0.116129	0.103189	0.496246
	C138	C	0.873845	0.102065	0.512828
	C139	C	0.873135	0.858513	0.496490
	C140	C	0.504407	0.104464	0.882101
	C141	C	0.487793	0.103962	0.125449
	C142	C	0.504490	0.862148	0.124601
	C143	C	0.487179	0.859691	0.881027
	C144	C	0.373350	0.869499	0.681562
	C145	C	0.617988	0.095369	0.682807
	C146	C	0.616249	0.869326	0.323230
	C147	C	0.372715	0.094629	0.323585
	C148	C	0.675151	0.362729	0.893617
	C149	C	0.674468	0.606551	0.120079
	C150	C	0.316658	0.604153	0.893103
	C151	C	0.314657	0.359406	0.117522
	C152	C	0.881953	0.658831	0.386402
	C153	C	0.108104	0.663804	0.629743
	C154	C	0.881263	0.303499	0.626807
	C155	C	0.106966	0.300460	0.381711
	C156	C	0.881502	0.361732	0.684450
	C157	C	0.108645	0.605500	0.686958
	C158	C	0.882738	0.602412	0.327547
	C159	C	0.106672	0.357454	0.323650
	C160	C	0.376923	0.659119	0.891449
	C161	C	0.617863	0.664997	0.118372
	C162	C	0.617727	0.304695	0.892956
	C163	C	0.371346	0.301216	0.116750
	C164	C	0.672683	0.867978	0.381744
	C165	C	0.675780	0.094760	0.625395
	C166	C	0.315079	0.869662	0.624833
	C167	C	0.314377	0.094089	0.380340
	C168	C	0.870792	0.369993	0.186482
	C169	C	0.119243	0.593844	0.188390
	C170	C	0.118236	0.370629	0.825026
	C171	C	0.875869	0.596354	0.829520
	C172	C	0.174641	0.857515	0.392189
	C173	C	0.175187	0.104472	0.617233
	C174	C	0.817218	0.100735	0.391014
	C175	C	0.814962	0.860289	0.617846
	C176	C	0.383847	0.162912	0.880105
	C177	C	0.608380	0.164272	0.126771
	C178	C	0.383306	0.803438	0.124374
	C179	C	0.609405	0.804620	0.881745
	C180	C	0.383581	0.859518	0.183587
	C181	C	0.608673	0.106580	0.184392
	C182	C	0.383381	0.103772	0.823991
	C183	C	0.609218	0.862581	0.824296
	C184	C	0.872691	0.160651	0.392279
	C185	C	0.116485	0.161002	0.618247
	C186	C	0.116936	0.799708	0.393088
	C187	C	0.873767	0.804499	0.619254
	C188	C	0.176293	0.370823	0.881913
	C189	C	0.176525	0.594645	0.130451
	C190	C	0.812712	0.370881	0.129862
	C191	C	0.819380	0.597200	0.888222
	C192	C	0.398379	0.075422	0.601147
	C193	C	0.592766	0.888649	0.601600
	C194	C	0.595165	0.075091	0.407330
	C195	C	0.398344	0.889798	0.406257
	C196	C	0.591582	0.386970	0.099241
	C197	C	0.597142	0.581785	0.911781
	C198	C	0.399773	0.580903	0.098322
	C199	C	0.398907	0.386274	0.912746
	C200	C	0.087145	0.577361	0.411870
	C201	C	0.902021	0.580830	0.607186
	C202	C	0.088126	0.384595	0.603928
	C203	C	0.902289	0.383663	0.409149
	C204	C	0.898828	0.575664	0.105923
	C205	C	0.091435	0.389963	0.101331
	C206	C	0.093967	0.575647	0.910262
	C207	C	0.897346	0.389826	0.909464
	C208	C	0.091656	0.887071	0.597412
	C209	C	0.091385	0.078435	0.411863
	C210	C	0.897686	0.078597	0.597569
	C211	C	0.896774	0.880558	0.411342
	C212	C	0.588493	0.080684	0.906566
	C213	C	0.404003	0.078422	0.100365
	C214	C	0.588899	0.887228	0.100429
	C215	C	0.401934	0.881911	0.904168
	Zn216	Zn	0.495362	-0.017392	0.753637
	Zn217	Zn	0.495996	-0.017069	0.254172
	Zn218	Zn	0.745938	0.484044	0.007915
	Zn219	Zn	0.246008	0.482576	0.006282
	Zn220	Zn	-0.005087	0.731493	0.506849
	Zn221	Zn	-0.005149	0.231658	0.505640
	Zn222	Zn	-0.004696	0.482566	0.757540
	Zn223	Zn	-0.004405	0.481324	0.257051
	Zn224	Zn	0.496924	0.732905	0.003943
	Zn225	Zn	0.495694	0.233202	0.004087
	Zn226	Zn	0.745603	-0.019604	0.503787
	Zn227	Zn	0.244987	-0.017912	0.503448
	N228	N	0.409141	0.946060	0.681880
	N229	N	0.582271	0.019000	0.682942
	N230	N	0.582831	0.946519	0.323582
	N231	N	0.409064	0.018800	0.324388
	N232	N	0.674768	0.397826	0.970557
	N233	N	0.675724	0.570816	0.043511
	N234	N	0.315664	0.570588	0.970199
	N235	N	0.315909	0.395862	0.041676
	N236	N	0.957782	0.658232	0.422865
	N237	N	0.031368	0.663843	0.595442
	N238	N	0.958222	0.302510	0.592374
	N239	N	0.031173	0.301624	0.418775
	N240	N	0.958400	0.396583	0.685091
	N241	N	0.032148	0.569593	0.687309
	N242	N	0.959092	0.567407	0.327906
	N243	N	0.030695	0.393262	0.325017
	N244	N	0.412935	0.659200	0.967566
	N245	N	0.584582	0.664885	0.040884
	N246	N	0.582058	0.304576	0.969347
	N247	N	0.407403	0.302069	0.040476
	N248	N	0.673653	0.944432	0.417846
	N249	N	0.675497	0.017841	0.590295
	N250	N	0.315310	0.946271	0.590328
	N251	N	0.314839	0.017897	0.415945
	N252	N	0.908023	0.445838	0.186213
	N253	N	0.082486	0.517790	0.186371
	N254	N	0.082671	0.446749	0.826640
	N255	N	0.909341	0.519253	0.828364
	N256	N	0.174202	0.894743	0.468050
	N257	N	0.175453	0.069721	0.540181
	N258	N	0.817947	0.064960	0.467041
	N259	N	0.814091	0.892833	0.540373
	N260	N	0.460167	0.163457	0.915634
	N261	N	0.532063	0.163021	0.091050
	N262	N	0.459466	0.805047	0.088386
	N263	N	0.532479	0.802607	0.915917
	N264	N	0.459876	0.895654	0.183568
	N265	N	0.532635	0.069775	0.183685
	N266	N	0.459423	0.068120	0.825056
	N267	N	0.532127	0.896066	0.823630
	N268	N	0.907242	0.161431	0.469282
	N269	N	0.080690	0.160690	0.541951
	N270	N	0.081123	0.801858	0.469384
	N271	N	0.909313	0.803395	0.542639
	N272	N	0.176093	0.446917	0.918654
	N273	N	0.175029	0.518881	0.093160
	N274	N	0.814316	0.447428	0.094992
	N275	N	0.818248	0.520404	0.922801
	O276	O	0.464303	0.338402	0.679286
	H277	H	0.468203	0.353511	0.673423
	H278	H	0.487114	0.337870	0.686289
	O279	O	0.647625	0.575775	0.661464
	H280	H	0.628184	0.588733	0.651256
	H281	H	0.660272	0.585864	0.669571
	O282	O	0.384554	0.631299	0.375799
	H283	H	0.389219	0.639780	0.370150
	H284	H	0.396344	0.617892	0.375657
	O285	O	0.338324	0.344390	0.459377
	H286	H	0.330405	0.331665	0.472130
	H287	H	0.344476	0.347006	0.483030
	O288	O	0.881617	0.866047	1.170238
	H289	H	0.889552	0.882305	1.163340
	H290	H	0.876559	0.862607	1.159832
	O291	O	-0.011824	1.142405	-0.127633
	H292	H	-0.017463	1.143841	-0.129195
	H293	H	-0.014261	1.149805	-0.143732
	O294	O	0.617327	0.582847	0.452803
	H295	H	0.631956	0.594791	0.465544
	H296	H	0.625074	0.559613	0.434938
	O297	O	0.578799	0.630861	0.507718
	H298	H	0.571966	0.630196	0.513775
	H299	H	0.585409	0.631790	0.510880
	O300	O	0.350127	0.384165	0.601438
	H301	H	0.342719	0.407464	0.612871
	H302	H	0.355805	0.370291	0.593711
	O303	O	0.325561	0.495489	0.571866
	H304	H	0.328688	0.497515	0.562086
	H305	H	0.318452	0.497221	0.561250
	O306	O	0.330748	0.549681	0.616064
	H307	H	0.336229	0.565678	0.602106
	H308	H	0.327825	0.562414	0.621612
	O309	O	0.625801	0.344867	0.463585
	H310	H	0.610417	0.341827	0.456998
	H311	H	0.614140	0.336350	0.473316
	O312	O	-0.044019	0.170013	0.143099
	H313	H	-0.031559	0.173100	0.164588
	H314	H	-0.015595	0.169453	0.146383
	O315	O	0.549407	0.360472	0.385523
	H316	H	0.548055	0.359041	0.399464
	H317	H	0.527734	0.366772	0.380918
	O318	O	0.491506	1.346865	1.535204
	H319	H	0.491029	1.342410	1.543779
	H320	H	0.482595	1.343667	1.541758
	O321	O	0.601918	0.518055	0.610255
	H322	H	0.597230	0.525671	0.609550
	H323	H	0.606668	0.516143	0.602426
	O324	O	0.196809	1.036941	-0.017667
	H325	H	0.179381	1.027695	0.000220
	H326	H	0.217375	1.042411	-0.005707
	O327	O	0.574969	0.332926	0.622723
	H328	H	0.580529	0.346572	0.616150
	H329	H	0.578884	0.319383	0.641156
	O330	O	0.126436	-0.097346	0.837456
	H331	H	0.099255	-0.091971	0.837400
	H332	H	0.136327	-0.100444	0.839468
	O333	O	0.069121	-0.097396	1.091694
	H334	H	0.054405	-0.087090	1.088328
	H335	H	0.070014	-0.105510	1.089147
	O336	O	0.352251	0.463060	0.443804
	H337	H	0.349242	0.467805	0.440420
	H338	H	0.357673	0.445105	0.447842
	O339	O	0.986199	-0.199639	-0.107998
	H340	H	0.974831	-0.207753	-0.096837
	H341	H	1.004696	-0.191164	-0.113525
	O342	O	-0.018823	0.170151	0.095039
	H343	H	-0.007362	0.180103	0.119288
	H344	H	-0.011976	0.156162	0.086329
	O345	O	0.879348	0.012969	0.879867
	H346	H	0.880957	0.016522	0.883928
	H347	H	0.894852	0.013252	0.876165
	O348	O	0.956799	0.977484	-0.126569
	H349	H	0.963887	0.966745	-0.120361
	H350	H	0.955985	0.973010	-0.128962
	O351	O	0.431925	0.336934	0.387787
	H352	H	0.425774	0.315239	0.378091
	H353	H	0.418000	0.350686	0.400705
	O354	O	0.799084	-0.055181	1.139899
	H355	H	0.790962	-0.040938	1.148760
	H356	H	0.793538	-0.066562	1.133557
	O357	O	0.472163	0.494876	0.530047
	H358	H	0.459506	0.478523	0.544590
	H359	H	0.461454	0.503377	0.528196
	O360	O	0.650995	0.421556	0.313817
	H361	H	0.654185	0.409946	0.301607
	H362	H	0.649181	0.386349	0.319814
	O363	O	0.124706	1.009863	0.885269
	H364	H	0.119382	1.014517	0.880572
	H365	H	0.126174	1.005085	0.878822
	O366	O	1.145958	1.125799	0.087599
	H367	H	1.145389	1.112457	0.078151
	H368	H	1.141009	1.137669	0.097830
	O369	O	0.115237	0.855302	0.119085
	H370	H	0.116972	0.863951	0.126575
	H371	H	0.112480	0.840094	0.100636
	O372	O	0.481005	0.438135	0.483815
	H373	H	0.469095	0.444695	0.489520
	H374	H	0.481151	0.447410	0.481195
	O375	O	0.599468	0.444816	0.605961
	H376	H	0.578693	0.460154	0.600360
	H377	H	0.615170	0.450708	0.609266
	O378	O	1.137715	0.949304	0.088335
	H379	H	1.156000	0.945478	0.105996
	H380	H	1.130697	0.952224	0.073758
	O381	O	1.132209	-0.110017	-0.057077
	H382	H	1.137017	-0.119132	-0.065657
	H383	H	1.125289	-0.105367	-0.063194
	O384	O	0.878005	0.818905	0.041020
	H385	H	0.864291	0.818566	0.048990
	H386	H	0.876838	0.835208	0.043378
	O387	O	-0.064049	-0.045775	0.086746
	H388	H	-0.072303	-0.030116	0.071871
	H389	H	-0.071127	-0.044000	0.099947
	O390	O	0.089718	1.067711	0.185491
	H391	H	0.090267	1.069176	0.158237
	H392	H	0.103145	1.031845	0.194395
	O393	O	0.809421	1.125480	0.826433
	H394	H	0.809323	1.137772	0.856069
	H395	H	0.797726	1.104749	0.820584
	O396	O	0.345169	0.626151	0.421709
	H397	H	0.333016	0.639814	0.417040
	H398	H	0.358614	0.621320	0.393167
	O399	O	0.003083	1.049933	0.838624
	H400	H	-0.009494	1.048134	0.841349
	H401	H	-0.002510	1.050200	0.842323
	O402	O	0.519503	0.614221	0.406932
	H403	H	0.543621	0.607739	0.411613
	H404	H	0.535742	0.612684	0.424113
	O405	O	0.899329	1.073706	0.029341
	H406	H	0.899959	1.080691	0.022022
	H407	H	0.919462	1.081371	0.037297
	O408	O	1.041865	0.902282	0.052030
	H409	H	1.034069	0.888271	0.054806
	H410	H	1.054807	0.907776	0.047673
	O411	O	0.818621	0.007646	0.888257
	H412	H	0.819567	0.026901	0.898910
	H413	H	0.833210	0.012072	0.894495
	O414	O	0.552971	0.655178	0.616831
	H415	H	0.555294	0.651479	0.604566
	H416	H	0.553640	0.652345	0.617401
	O417	O	0.598784	0.539922	0.527701
	H418	H	0.601544	0.530434	0.525063
	H419	H	0.591569	0.526680	0.544054
