data_Molecule from HDF5

_cell_length_a		16.434624
_cell_length_b		16.190238
_cell_length_c		16.230245
_cell_angle_alpha	90.094843
_cell_angle_beta	90.143441
_cell_angle_gamma	89.925145
_symmetry_space_group_name_H-M	'P 1'
_symmetry_Int_Tables_number		1

loop_
	_symmetry_equiv_pos_as_xyz
	x,y,z

loop_
	_atom_site_label
	_atom_site_type_symbol
	_atom_site_fract_x
	_atom_site_fract_y
	_atom_site_fract_z
	H0	H	0.395936	0.829532	0.712421
	H1	H	0.594140	0.157004	0.709788
	H2	H	0.595962	0.829720	0.279904
	H3	H	0.397766	0.157679	0.282784
	H4	H	0.717792	0.386208	0.836732
	H5	H	0.717728	0.598647	0.158152
	H6	H	0.276110	0.597887	0.836929
	H7	H	0.281426	0.392683	0.161360
	H8	H	0.836049	0.708785	0.395953
	H9	H	0.158992	0.708012	0.597797
	H10	H	0.837223	0.271883	0.598673
	H11	H	0.159576	0.273930	0.398226
	H12	H	0.837386	0.385418	0.717578
	H13	H	0.158069	0.591413	0.715579
	H14	H	0.835963	0.591887	0.280862
	H15	H	0.160322	0.391021	0.282696
	H16	H	0.397275	0.707146	0.833306
	H17	H	0.597221	0.709561	0.159857
	H18	H	0.597279	0.276726	0.834748
	H19	H	0.399898	0.279761	0.162910
	H20	H	0.714750	0.830434	0.391142
	H21	H	0.716445	0.153836	0.600731
	H22	H	0.283079	0.828840	0.595295
	H23	H	0.278370	0.155454	0.394126
	H24	H	0.898898	0.327765	0.211313
	H25	H	0.097267	0.655489	0.215255
	H26	H	0.099580	0.328214	0.781443
	H27	H	0.894810	0.653275	0.779253
	H28	H	0.214918	0.887615	0.333820
	H29	H	0.216811	0.095859	0.658697
	H30	H	0.777374	0.095475	0.335307
	H31	H	0.776587	0.885302	0.657444
	H32	H	0.335666	0.212138	0.896219
	H33	H	0.659275	0.208978	0.098028
	H34	H	0.336871	0.774629	0.098822
	H35	H	0.657921	0.773671	0.893249
	H36	H	0.335664	0.893077	0.212911
	H37	H	0.657690	0.096146	0.216425
	H38	H	0.335441	0.095515	0.779310
	H39	H	0.657879	0.891272	0.778361
	H40	H	0.896218	0.207295	0.334399
	H41	H	0.097160	0.205750	0.660476
	H42	H	0.096063	0.775037	0.333185
	H43	H	0.897798	0.776556	0.660133
	H44	H	0.217508	0.330581	0.894987
	H45	H	0.214868	0.655309	0.102642
	H46	H	0.778100	0.331110	0.102699
	H47	H	0.779027	0.653462	0.892662
	H48	H	0.403757	0.109116	0.584501
	H49	H	0.585628	0.875438	0.591718
	H50	H	0.589113	0.108961	0.407419
	H51	H	0.404904	0.875611	0.403170
	H52	H	0.589518	0.416142	0.109464
	H53	H	0.580873	0.576990	0.885794
	H54	H	0.409159	0.591795	0.113481
	H55	H	0.409891	0.399442	0.883148
	H56	H	0.114368	0.594065	0.408735
	H57	H	0.883979	0.578190	0.589216
	H58	H	0.112506	0.400598	0.592902
	H59	H	0.881446	0.389010	0.410150
	H60	H	0.113019	0.396005	0.588251
	H61	H	0.880881	0.585229	0.591278
	H62	H	0.107097	0.576894	0.414426
	H63	H	0.886681	0.407344	0.408825
	H64	H	0.398645	0.583910	0.116141
	H65	H	0.588404	0.591661	0.877750
	H66	H	0.579090	0.395676	0.112821
	H67	H	0.400329	0.403096	0.880443
	H68	H	0.588188	0.108555	0.407467
	H69	H	0.584298	0.878400	0.581815
	H70	H	0.403115	0.110809	0.588934
	H71	H	0.405580	0.876810	0.403583
	H72	H	0.910156	0.608712	0.093122
	H73	H	0.086567	0.376898	0.088181
	H74	H	0.089731	0.608364	0.907385
	H75	H	0.900768	0.373656	0.908436
	H76	H	0.093847	0.898294	0.613689
	H77	H	0.089975	0.082163	0.379876
	H78	H	0.898305	0.076437	0.613766
	H79	H	0.901992	0.903868	0.380233
	H80	H	0.612522	0.093380	0.907946
	H81	H	0.380833	0.097091	0.084304
	H82	H	0.611977	0.899728	0.089267
	H83	H	0.381081	0.900287	0.901135
	H84	H	0.610511	0.902313	0.084863
	H85	H	0.385854	0.077611	0.083170
	H86	H	0.607815	0.078667	0.909346
	H87	H	0.382252	0.898523	0.908113
	H88	H	0.912026	0.074555	0.608809
	H89	H	0.089986	0.079005	0.381809
	H90	H	0.091545	0.904820	0.611777
	H91	H	0.908085	0.901361	0.382267
	H92	H	0.085062	0.607342	0.906815
	H93	H	0.096088	0.374758	0.086204
	H94	H	0.908662	0.605632	0.083788
	H95	H	0.912132	0.375587	0.903340
	H96	H	0.407327	0.108920	0.587352
	H97	H	0.593643	0.874456	0.584835
	H98	H	0.588130	0.108659	0.407804
	H99	H	0.404347	0.877172	0.404845
	H100	H	0.601002	0.398612	0.118650
	H101	H	0.597707	0.576285	0.879698
	H102	H	0.409358	0.578732	0.110966
	H103	H	0.407854	0.409758	0.885153
	H104	H	0.114148	0.579022	0.396308
	H105	H	0.884000	0.584142	0.584294
	H106	H	0.110120	0.402300	0.587126
	H107	H	0.879760	0.398158	0.393704
	H108	H	0.901941	0.610772	0.089307
	H109	H	0.092556	0.373719	0.095270
	H110	H	0.087202	0.606298	0.910860
	H111	H	0.909815	0.378248	0.915486
	H112	H	0.087354	0.899807	0.611666
	H113	H	0.086994	0.080375	0.381616
	H114	H	0.907368	0.087672	0.615009
	H115	H	0.903204	0.896451	0.379123
	H116	H	0.613451	0.083128	0.895719
	H117	H	0.378790	0.085506	0.100411
	H118	H	0.611219	0.905441	0.088910
	H119	H	0.385040	0.905272	0.905294
	C120	C	0.375525	0.001574	0.617177
	C121	C	0.617906	0.983625	0.617007
	C122	C	0.618225	0.001260	0.375804
	C123	C	0.374988	0.984512	0.374185
	C124	C	0.619832	0.371893	0.006460
	C125	C	0.619337	0.613663	0.988205
	C126	C	0.375127	0.615060	0.006382
	C127	C	0.376887	0.373502	0.990418
	C128	C	0.005654	0.613751	0.375561
	C129	C	0.989059	0.613030	0.619170
	C130	C	0.006126	0.368389	0.619808
	C131	C	0.989519	0.368420	0.375069
	C132	C	0.876568	0.500976	0.118940
	C133	C	0.119903	0.483554	0.120235
	C134	C	0.118615	0.500263	0.877343
	C135	C	0.876335	0.482883	0.876907
	C136	C	0.119408	0.870527	0.504573
	C137	C	0.119004	0.111807	0.488506
	C138	C	0.875626	0.111402	0.505334
	C139	C	0.875106	0.869786	0.487731
	C140	C	0.505217	0.116216	0.874317
	C141	C	0.488499	0.115944	0.119491
	C142	C	0.505207	0.872004	0.117947
	C143	C	0.488944	0.870623	0.873995
	C144	C	0.376419	0.878562	0.674034
	C145	C	0.615777	0.107402	0.673129
	C146	C	0.616414	0.878786	0.318014
	C147	C	0.377005	0.108213	0.319735
	C148	C	0.678041	0.369070	0.884912
	C149	C	0.677451	0.616122	0.110094
	C150	C	0.316374	0.615718	0.884602
	C151	C	0.320355	0.373527	0.112746
	C152	C	0.884475	0.670414	0.376220
	C153	C	0.110482	0.669534	0.618037
	C154	C	0.885306	0.310533	0.618751
	C155	C	0.111244	0.312191	0.377516
	C156	C	0.885294	0.367243	0.677708
	C157	C	0.110165	0.611678	0.676448
	C158	C	0.884465	0.612019	0.318930
	C159	C	0.111765	0.371046	0.320475
	C160	C	0.376471	0.670418	0.882951
	C161	C	0.617846	0.671583	0.110771
	C162	C	0.617991	0.314366	0.883912
	C163	C	0.379430	0.317486	0.113641
	C164	C	0.675351	0.878984	0.373793
	C165	C	0.676435	0.105721	0.618817
	C166	C	0.319998	0.877985	0.616012
	C167	C	0.317510	0.106894	0.375017
	C168	C	0.878315	0.377351	0.174344
	C169	C	0.117646	0.606608	0.177120
	C170	C	0.119274	0.377465	0.819607
	C171	C	0.875675	0.604602	0.818075
	C172	C	0.175882	0.869370	0.382334
	C173	C	0.177338	0.113609	0.610271
	C174	C	0.817143	0.113564	0.383652
	C175	C	0.816638	0.867848	0.609275
	C176	C	0.384067	0.173361	0.875897
	C177	C	0.610481	0.171662	0.118191
	C178	C	0.384605	0.814202	0.117669
	C179	C	0.609726	0.812548	0.874113
	C180	C	0.384130	0.873113	0.174677
	C181	C	0.609860	0.115439	0.177077
	C182	C	0.383982	0.115608	0.817401
	C183	C	0.609731	0.871327	0.816903
	C184	C	0.876344	0.169050	0.383250
	C185	C	0.117929	0.168530	0.611249
	C186	C	0.116606	0.813398	0.382171
	C187	C	0.877160	0.813785	0.610839
	C188	C	0.177896	0.378604	0.876478
	C189	C	0.176035	0.606654	0.120967
	C190	C	0.818267	0.378954	0.119913
	C191	C	0.817748	0.604574	0.874289
	C192	C	0.398126	0.087278	0.593844
	C193	C	0.594709	0.898444	0.593183
	C194	C	0.595279	0.086803	0.400460
	C195	C	0.398112	0.898611	0.397105
	C196	C	0.596662	0.396582	0.091635
	C197	C	0.595758	0.588823	0.903247
	C198	C	0.398656	0.591717	0.091416
	C199	C	0.399363	0.397135	0.905083
	C200	C	0.090197	0.590222	0.399465
	C201	C	0.904835	0.589552	0.595311
	C202	C	0.090023	0.392698	0.596366
	C203	C	0.904779	0.391242	0.397604
	C204	C	0.899825	0.586236	0.095429
	C205	C	0.098099	0.397696	0.096738
	C206	C	0.094361	0.585465	0.901389
	C207	C	0.900332	0.397815	0.901756
	C208	C	0.097466	0.894169	0.590230
	C209	C	0.095552	0.087565	0.403274
	C210	C	0.899337	0.086695	0.590419
	C211	C	0.897820	0.893575	0.402586
	C212	C	0.589540	0.092095	0.897456
	C213	C	0.403902	0.093204	0.096147
	C214	C	0.589514	0.895597	0.094472
	C215	C	0.404440	0.894486	0.898003
	Zn216	Zn	0.496650	-0.006813	0.745198
	Zn217	Zn	0.496853	-0.005665	0.247208
	Zn218	Zn	0.748138	0.492547	-0.002376
	Zn219	Zn	0.246920	0.493491	-0.001069
	Zn220	Zn	-0.002711	0.742705	0.497105
	Zn221	Zn	-0.002298	0.239402	0.497324
	Zn222	Zn	-0.003160	0.490493	0.749085
	Zn223	Zn	-0.002364	0.491141	0.247039
	Zn224	Zn	0.497775	0.741931	-0.003720
	Zn225	Zn	0.497283	0.244692	-0.001582
	Zn226	Zn	0.746915	-0.008548	0.496552
	Zn227	Zn	0.247884	-0.007991	0.496358
	N228	N	0.410035	0.956371	0.674970
	N229	N	0.580381	0.030542	0.672421
	N230	N	0.581603	0.955993	0.319143
	N231	N	0.411843	0.031111	0.319079
	N232	N	0.679354	0.403937	0.962187
	N233	N	0.678448	0.580916	0.032947
	N234	N	0.315113	0.582211	0.962418
	N235	N	0.318770	0.407614	0.035244
	N236	N	0.961060	0.671707	0.410588
	N237	N	0.033980	0.670720	0.583483
	N238	N	0.961270	0.311113	0.583582
	N239	N	0.034310	0.310481	0.410659
	N240	N	0.961484	0.402571	0.678779
	N241	N	0.033699	0.577338	0.677518
	N242	N	0.960961	0.577592	0.318601
	N243	N	0.034943	0.404985	0.318586
	N244	N	0.412316	0.670163	0.959420
	N245	N	0.582285	0.670017	0.033902
	N246	N	0.582534	0.315939	0.960539
	N247	N	0.413648	0.317210	0.036255
	N248	N	0.676537	0.956276	0.409062
	N249	N	0.677990	0.027888	0.584701
	N250	N	0.319233	0.955461	0.581516
	N251	N	0.316220	0.028630	0.408197
	N252	N	0.914091	0.453973	0.173907
	N253	N	0.083534	0.529084	0.176690
	N254	N	0.083129	0.454100	0.820022
	N255	N	0.911297	0.527797	0.819382
	N256	N	0.177909	0.904199	0.459715
	N257	N	0.178242	0.078966	0.532787
	N258	N	0.816633	0.078451	0.460781
	N259	N	0.815045	0.902185	0.531741
	N260	N	0.460600	0.174177	0.910193
	N261	N	0.534133	0.172100	0.083038
	N262	N	0.460968	0.813179	0.083161
	N263	N	0.533325	0.811952	0.908734
	N264	N	0.460139	0.908453	0.174835
	N265	N	0.533108	0.081624	0.178084
	N266	N	0.460440	0.080827	0.816197
	N267	N	0.533611	0.906781	0.816835
	N268	N	0.911796	0.168099	0.460037
	N269	N	0.082395	0.167451	0.534510
	N270	N	0.082381	0.813951	0.459259
	N271	N	0.912799	0.814972	0.534380
	N272	N	0.177686	0.456003	0.911357
	N273	N	0.177555	0.529129	0.086229
	N274	N	0.817046	0.456826	0.086186
	N275	N	0.818159	0.527731	0.910238
	O276	O	-0.060520	-0.074976	-0.015549
	H277	H	-0.080553	-0.061729	-0.019172
	H278	H	-0.056150	-0.069207	-0.018880
	O279	O	0.386938	0.512047	0.642933
	H280	H	0.386993	0.503226	0.641907
	H281	H	0.403924	0.528810	0.641343
	O282	O	1.082829	-0.107602	0.078816
	H283	H	1.080492	-0.127406	0.080536
	H284	H	1.084747	-0.118924	0.097378
	O285	O	0.002166	1.131937	0.127517
	H286	H	0.008773	1.140366	0.141393
	H287	H	0.012072	1.118741	0.136396
	O288	O	0.935111	0.845813	0.163981
	H289	H	0.933224	0.829311	0.141338
	H290	H	0.949458	0.842327	0.168362
	O291	O	0.636901	0.416425	0.460995
	H292	H	0.644062	0.410063	0.454389
	H293	H	0.625180	0.429173	0.469907
	O294	O	1.040202	0.844927	0.820868
	H295	H	1.046838	0.846870	0.816221
	H296	H	1.032306	0.843800	0.822734
	O297	O	-0.167940	0.014272	-0.024159
	H298	H	-0.164576	0.015889	-0.030279
	H299	H	-0.179902	0.023503	-0.007507
	O300	O	0.454133	0.564657	0.412214
	H301	H	0.449484	0.555150	0.414351
	H302	H	0.445729	0.559070	0.408667
	O303	O	0.098119	0.915503	1.116419
	H304	H	0.081964	0.930582	1.135183
	H305	H	0.093946	0.896444	1.112993
	O306	O	0.638555	0.586383	0.483227
	H307	H	0.629542	0.584701	0.477394
	H308	H	0.659532	0.591228	0.473942
	O309	O	1.002451	-0.162307	-0.015795
	H310	H	0.986473	-0.156488	-0.026216
	H311	H	1.019702	-0.163064	-0.027431
	O312	O	-0.043920	0.056944	0.986161
	H313	H	-0.041915	0.054415	0.972093
	H314	H	-0.045293	0.071111	0.988490
	O315	O	0.604121	0.359476	0.396760
	H316	H	0.607269	0.368554	0.390527
	H317	H	0.608631	0.349293	0.409598
	O318	O	0.357622	0.464495	0.462092
	H319	H	0.343854	0.473292	0.463092
	H320	H	0.356768	0.469171	0.466007
	O321	O	0.436562	0.459396	0.356726
	H322	H	0.427682	0.445582	0.354381
	H323	H	0.447893	0.452437	0.357333
	O324	O	0.429351	0.415674	0.549577
	H325	H	0.451236	0.428224	0.554920
	H326	H	0.418368	0.408079	0.555817
	O327	O	0.170379	1.045524	0.963535
	H328	H	0.176170	1.023714	0.971257
	H329	H	0.182998	1.035894	0.942281
	O330	O	0.508379	0.658694	0.561214
	H331	H	0.521079	0.658283	0.563914
	H332	H	0.523189	0.658458	0.556303
	O333	O	0.055590	0.888428	0.827078
	H334	H	0.059339	0.889293	0.832346
	H335	H	0.048885	0.892439	0.824536
	O336	O	1.061409	1.071074	0.883000
	H337	H	1.063529	1.083458	0.888131
	H338	H	1.075752	1.065721	0.895462
	O339	O	0.584822	0.501224	0.528869
	H340	H	0.576349	0.492442	0.527850
	H341	H	0.581419	0.514604	0.524728
	O342	O	0.936891	0.010149	0.094327
	H343	H	0.931442	0.013122	0.091497
	H344	H	0.943759	0.009736	0.095515
	O345	O	0.519159	0.517639	0.639309
	H346	H	0.533012	0.527789	0.630247
	H347	H	0.515041	0.501803	0.638265
	O348	O	1.147506	1.002980	0.999578
	H349	H	1.145887	0.984077	0.989735
	H350	H	1.153743	0.994112	0.996579
	O351	O	1.054592	1.048323	-0.060422
	H352	H	1.067947	1.045341	-0.073187
	H353	H	1.055993	1.037946	-0.059777
	O354	O	0.522274	0.436703	0.536844
	H355	H	0.511138	0.441395	0.546463
	H356	H	0.514515	0.425240	0.535776
	O357	O	0.475818	0.456173	0.417091
	H358	H	0.481233	0.456708	0.421347
	H359	H	0.470117	0.458554	0.419603
	O360	O	0.069319	0.088959	0.166354
	H361	H	0.061272	0.086717	0.183340
	H362	H	0.083824	0.094720	0.164193
	O363	O	0.573597	0.516659	0.516146
	H364	H	0.563217	0.517289	0.507560
	H365	H	0.588158	0.515009	0.513968
	O366	O	0.352463	0.621759	0.401154
	H367	H	0.347223	0.618720	0.404452
	H368	H	0.342060	0.620149	0.399769
	O369	O	0.395132	0.398765	0.581655
	H370	H	0.396544	0.394823	0.585419
	H371	H	0.385615	0.400804	0.579166
	O372	O	-0.105380	0.957098	1.056008
	H373	H	-0.115615	0.974184	1.041257
	H374	H	-0.109248	0.959357	1.055828
	O375	O	0.550210	0.358901	0.497105
	H376	H	0.536517	0.363802	0.497661
	H377	H	0.546503	0.367132	0.504663
	O378	O	0.656631	0.481468	0.594224
	H379	H	0.663491	0.474699	0.601610
	H380	H	0.673401	0.478964	0.589930
	O381	O	0.508812	0.508720	0.624543
	H382	H	0.517447	0.522144	0.632878
	H383	H	0.507591	0.498288	0.626293
	O384	O	0.039550	1.131636	-0.103329
	H385	H	0.043280	1.138649	-0.099739
	H386	H	0.047892	1.127793	-0.089699
	O387	O	0.929196	0.101585	0.841607
	H388	H	0.943193	0.102864	0.843966
	H389	H	0.921291	0.103719	0.852700
	O390	O	-0.125440	1.093842	0.035800
	H391	H	-0.121840	1.093722	0.022652
	H392	H	-0.126301	1.095053	0.039343
	O393	O	1.027651	0.847054	0.037404
	H394	H	1.028254	0.838817	0.030962
	H395	H	1.015587	0.863852	0.025903
	O396	O	0.559999	0.631517	0.576651
	H397	H	0.564783	0.623604	0.572421
	H398	H	0.555798	0.640757	0.565781
	O399	O	-0.101470	0.983964	0.895724
	H400	H	-0.097438	0.994067	0.906477
	H401	H	-0.103217	0.981767	0.876970
	O402	O	0.936151	1.076883	0.984516
	H403	H	0.922490	1.085003	0.987982
	H404	H	0.939318	1.077639	0.975573
	O405	O	0.515712	0.563472	0.426898
	H406	H	0.511780	0.565275	0.427325
	H407	H	0.512668	0.564419	0.432612
