data_Molecule from HDF5

_cell_length_a		16.308031
_cell_length_b		16.202634
_cell_length_c		16.308519
_cell_angle_alpha	90.256720
_cell_angle_beta	90.338692
_cell_angle_gamma	89.703471
_symmetry_space_group_name_H-M	'P 1'
_symmetry_Int_Tables_number		1

loop_
	_symmetry_equiv_pos_as_xyz
	x,y,z

loop_
	_atom_site_label
	_atom_site_type_symbol
	_atom_site_fract_x
	_atom_site_fract_y
	_atom_site_fract_z
	H0	H	0.398975	0.844877	0.689969
	H1	H	0.597754	0.171085	0.693930
	H2	H	0.596499	0.844957	0.260735
	H3	H	0.392138	0.171515	0.258031
	H4	H	0.714697	0.406416	0.813397
	H5	H	0.716261	0.610422	0.137962
	H6	H	0.280310	0.610449	0.813805
	H7	H	0.283742	0.409349	0.139131
	H8	H	0.834226	0.724380	0.376712
	H9	H	0.160427	0.724137	0.578125
	H10	H	0.834050	0.296563	0.574496
	H11	H	0.159229	0.290213	0.377501
	H12	H	0.835723	0.409899	0.692680
	H13	H	0.159898	0.611761	0.695324
	H14	H	0.835665	0.611471	0.257683
	H15	H	0.160541	0.406082	0.261207
	H16	H	0.398297	0.723405	0.812165
	H17	H	0.599875	0.725498	0.138799
	H18	H	0.599402	0.291171	0.813534
	H19	H	0.401195	0.294277	0.139187
	H20	H	0.713490	0.846004	0.374985
	H21	H	0.713761	0.171029	0.580917
	H22	H	0.283870	0.844443	0.574682
	H23	H	0.278859	0.172783	0.376033
	H24	H	0.900195	0.345560	0.189314
	H25	H	0.097842	0.672937	0.193670
	H26	H	0.097807	0.345745	0.761854
	H27	H	0.898101	0.673587	0.762488
	H28	H	0.211152	0.906873	0.314016
	H29	H	0.213414	0.110131	0.638764
	H30	H	0.777340	0.108978	0.314552
	H31	H	0.783626	0.910668	0.640283
	H32	H	0.335951	0.224388	0.876801
	H33	H	0.662425	0.220517	0.075419
	H34	H	0.335239	0.794842	0.071846
	H35	H	0.662407	0.794015	0.878254
	H36	H	0.334650	0.908557	0.189063
	H37	H	0.659327	0.109658	0.195764
	H38	H	0.336097	0.110685	0.759663
	H39	H	0.660962	0.907767	0.760282
	H40	H	0.892967	0.225996	0.313906
	H41	H	0.094966	0.223331	0.640720
	H42	H	0.094965	0.792063	0.314336
	H43	H	0.900404	0.795335	0.639786
	H44	H	0.214406	0.346427	0.875959
	H45	H	0.213649	0.673550	0.077892
	H46	H	0.784792	0.345344	0.074083
	H47	H	0.781143	0.672411	0.876551
	H48	H	0.402240	0.126040	0.565018
	H49	H	0.595947	0.892203	0.560224
	H50	H	0.591510	0.128455	0.380510
	H51	H	0.397165	0.890628	0.385931
	H52	H	0.587804	0.411601	0.091470
	H53	H	0.588104	0.600890	0.860388
	H54	H	0.409456	0.599815	0.090382
	H55	H	0.402597	0.419391	0.859712
	H56	H	0.112786	0.604406	0.392180
	H57	H	0.882705	0.601007	0.566828
	H58	H	0.109133	0.424620	0.564300
	H59	H	0.879833	0.413348	0.381968
	H60	H	0.115763	0.418101	0.579392
	H61	H	0.881533	0.599597	0.572041
	H62	H	0.110952	0.591499	0.384907
	H63	H	0.884031	0.421880	0.385866
	H64	H	0.408200	0.604093	0.091740
	H65	H	0.591680	0.600913	0.859260
	H66	H	0.599699	0.414090	0.094684
	H67	H	0.409790	0.418653	0.862765
	H68	H	0.576430	0.122569	0.384924
	H69	H	0.594613	0.887608	0.575997
	H70	H	0.403656	0.125990	0.571651
	H71	H	0.405242	0.890917	0.375457
	H72	H	0.910998	0.623582	0.064984
	H73	H	0.097264	0.393454	0.061486
	H74	H	0.089329	0.626805	0.884735
	H75	H	0.912677	0.395146	0.885306
	H76	H	0.083814	0.914298	0.591728
	H77	H	0.089979	0.105598	0.358479
	H78	H	0.905389	0.108091	0.593767
	H79	H	0.903199	0.916174	0.360602
	H80	H	0.616745	0.100562	0.879255
	H81	H	0.379851	0.104643	0.071975
	H82	H	0.614648	0.913581	0.068568
	H83	H	0.384919	0.919580	0.886822
	H84	H	0.613130	0.919262	0.067654
	H85	H	0.383600	0.104942	0.061544
	H86	H	0.614636	0.102412	0.887963
	H87	H	0.380995	0.919038	0.877429
	H88	H	0.899158	0.100349	0.593876
	H89	H	0.092079	0.092900	0.361568
	H90	H	0.095879	0.911698	0.596085
	H91	H	0.903001	0.918681	0.360938
	H92	H	0.090116	0.627071	0.886043
	H93	H	0.094415	0.389660	0.074820
	H94	H	0.902231	0.626282	0.063675
	H95	H	0.901049	0.391552	0.886705
	H96	H	0.408271	0.123420	0.567290
	H97	H	0.580941	0.894129	0.568036
	H98	H	0.589763	0.122855	0.396203
	H99	H	0.410300	0.895936	0.386983
	H100	H	0.592977	0.423509	0.089585
	H101	H	0.590964	0.597182	0.860964
	H102	H	0.405671	0.600890	0.091792
	H103	H	0.406280	0.412732	0.859957
	H104	H	0.116701	0.603537	0.378315
	H105	H	0.880351	0.605110	0.570282
	H106	H	0.114767	0.407719	0.564975
	H107	H	0.880239	0.421532	0.376085
	H108	H	0.906312	0.627410	0.072239
	H109	H	0.084224	0.396142	0.066984
	H110	H	0.090688	0.627181	0.884858
	H111	H	0.906406	0.390426	0.875286
	H112	H	0.093309	0.923648	0.591477
	H113	H	0.079533	0.098635	0.363049
	H114	H	0.908335	0.099910	0.590535
	H115	H	0.905096	0.917330	0.360939
	H116	H	0.612494	0.093817	0.884093
	H117	H	0.383716	0.095145	0.066917
	H118	H	0.614899	0.918156	0.072746
	H119	H	0.381640	0.910967	0.882985
	C120	C	0.376405	0.017236	0.596974
	C121	C	0.619210	0.999197	0.598476
	C122	C	0.616476	0.017043	0.356544
	C123	C	0.373712	1.000444	0.353479
	C124	C	0.621478	0.386610	-0.015871
	C125	C	0.620475	0.630128	0.967394
	C126	C	0.377170	0.631033	-0.015827
	C127	C	0.377326	0.387603	0.968075
	C128	C	0.005897	0.630077	0.355362
	C129	C	0.989309	0.631116	0.599087
	C130	C	0.005840	0.388104	0.598133
	C131	C	0.988776	0.387448	0.353585
	C132	C	0.877955	0.517732	0.095887
	C133	C	0.120747	0.501035	0.098287
	C134	C	0.119617	0.518617	0.855453
	C135	C	0.876630	0.500682	0.854262
	C136	C	0.119390	0.886303	0.485760
	C137	C	0.117209	0.129564	0.468409
	C138	C	0.873461	0.132045	0.485106
	C139	C	0.875579	0.888137	0.468411
	C140	C	0.507159	0.129689	0.854254
	C141	C	0.489593	0.130611	0.097874
	C142	C	0.506475	0.887772	0.097085
	C143	C	0.490255	0.886575	0.853597
	C144	C	0.378760	0.893838	0.652255
	C145	C	0.617641	0.122293	0.655562
	C146	C	0.616183	0.894201	0.299068
	C147	C	0.373436	0.122867	0.296615
	C148	C	0.676650	0.387293	0.862007
	C149	C	0.677317	0.629645	0.089675
	C150	C	0.319698	0.629471	0.861903
	C151	C	0.322179	0.389625	0.090561
	C152	C	0.883365	0.686831	0.356328
	C153	C	0.111571	0.686625	0.597584
	C154	C	0.882885	0.333768	0.595144
	C155	C	0.110982	0.329586	0.357091
	C156	C	0.883749	0.390438	0.653760
	C157	C	0.111475	0.630664	0.656222
	C158	C	0.884053	0.630575	0.297098
	C159	C	0.111493	0.386846	0.298709
	C160	C	0.378687	0.685626	0.861145
	C161	C	0.619510	0.687027	0.090021
	C162	C	0.619087	0.329873	0.861958
	C163	C	0.380426	0.332016	0.090365
	C164	C	0.674184	0.894431	0.356246
	C165	C	0.674999	0.122370	0.599045
	C166	C	0.321435	0.893815	0.594806
	C167	C	0.316587	0.123388	0.355027
	C168	C	0.880121	0.394416	0.151300
	C169	C	0.118312	0.624271	0.155040
	C170	C	0.118155	0.395132	0.799359
	C171	C	0.878034	0.624388	0.799971
	C172	C	0.173871	0.887087	0.362777
	C173	C	0.174355	0.129397	0.590581
	C174	C	0.815980	0.129800	0.363167
	C175	C	0.820979	0.890225	0.591200
	C176	C	0.384807	0.186476	0.856338
	C177	C	0.612864	0.184466	0.096452
	C178	C	0.383842	0.832366	0.093156
	C179	C	0.613286	0.831309	0.857012
	C180	C	0.383553	0.889256	0.151230
	C181	C	0.611446	0.129316	0.156127
	C182	C	0.384761	0.129763	0.798032
	C183	C	0.612603	0.888043	0.798560
	C184	C	0.873613	0.187867	0.362850
	C185	C	0.115210	0.185626	0.591465
	C186	C	0.115795	0.830261	0.362897
	C187	C	0.879036	0.832877	0.591090
	C188	C	0.175917	0.395322	0.856490
	C189	C	0.175819	0.624507	0.097480
	C190	C	0.823044	0.394137	0.093756
	C191	C	0.819800	0.623690	0.856400
	C192	C	0.398285	0.102883	0.574608
	C193	C	0.596893	0.913490	0.575045
	C194	C	0.592734	0.102516	0.380193
	C195	C	0.397325	0.914611	0.376024
	C196	C	0.599715	0.409545	0.069719
	C197	C	0.597060	0.606602	0.882245
	C198	C	0.400710	0.608312	0.069143
	C199	C	0.399389	0.410383	0.882846
	C200	C	0.091225	0.606605	0.378342
	C201	C	0.903651	0.608503	0.576334
	C202	C	0.091112	0.410272	0.575880
	C203	C	0.903450	0.411730	0.374918
	C204	C	0.900021	0.603528	0.073464
	C205	C	0.098463	0.415360	0.074502
	C206	C	0.096752	0.604734	0.878504
	C207	C	0.899794	0.414516	0.876107
	C208	C	0.097614	0.909653	0.571148
	C209	C	0.093968	0.106048	0.383205
	C210	C	0.897203	0.109332	0.570738
	C211	C	0.897399	0.910625	0.382907
	C212	C	0.592727	0.105959	0.877162
	C213	C	0.404493	0.108109	0.073883
	C214	C	0.592044	0.910506	0.076009
	C215	C	0.404544	0.909786	0.875714
	Zn216	Zn	0.497748	0.008329	0.725358
	Zn217	Zn	0.496584	0.009226	0.226265
	Zn218	Zn	0.749005	0.508570	-0.024159
	Zn219	Zn	0.248464	0.509972	-0.023496
	Zn220	Zn	-0.002705	0.758785	0.476900
	Zn221	Zn	-0.003493	0.259702	0.476453
	Zn222	Zn	-0.001659	0.509907	0.727261
	Zn223	Zn	-0.001666	0.509229	0.225144
	Zn224	Zn	0.499009	0.758852	-0.024448
	Zn225	Zn	0.499516	0.258571	-0.023991
	Zn226	Zn	0.745738	0.008746	0.477445
	Zn227	Zn	0.246947	0.008828	0.476328
	N228	N	0.412373	0.971597	0.653916
	N229	N	0.583405	0.044947	0.655239
	N230	N	0.580636	0.971289	0.299297
	N231	N	0.408349	0.045374	0.295766
	N232	N	0.678278	0.421861	0.939174
	N233	N	0.678120	0.595165	0.012616
	N234	N	0.318769	0.596008	0.939255
	N235	N	0.320068	0.423399	0.013409
	N236	N	0.960056	0.686585	0.391687
	N237	N	0.034482	0.687110	0.562743
	N238	N	0.959727	0.332624	0.560965
	N239	N	0.033674	0.329821	0.390276
	N240	N	0.961202	0.423381	0.655915
	N241	N	0.034408	0.596683	0.657143
	N242	N	0.961379	0.596034	0.296213
	N243	N	0.034532	0.422171	0.296453
	N244	N	0.413892	0.686614	0.937921
	N245	N	0.584684	0.687357	0.012925
	N246	N	0.585392	0.329538	0.938926
	N247	N	0.413995	0.330769	0.013247
	N248	N	0.674318	0.971753	0.391415
	N249	N	0.675946	0.044944	0.564079
	N250	N	0.319847	0.971455	0.561072
	N251	N	0.316621	0.046083	0.389507
	N252	N	0.913659	0.472194	0.152735
	N253	N	0.085237	0.546360	0.156017
	N254	N	0.083767	0.472895	0.798668
	N255	N	0.912491	0.546757	0.798365
	N256	N	0.176130	0.921434	0.440046
	N257	N	0.175684	0.095276	0.513275
	N258	N	0.815653	0.096096	0.440483
	N259	N	0.818637	0.923622	0.513839
	N260	N	0.462087	0.186769	0.890196
	N261	N	0.536084	0.185458	0.061015
	N262	N	0.461129	0.831346	0.060241
	N263	N	0.535984	0.830320	0.890349
	N264	N	0.460936	0.922847	0.154031
	N265	N	0.533641	0.096691	0.157384
	N266	N	0.462003	0.095216	0.796542
	N267	N	0.534847	0.921524	0.796222
	N268	N	0.908312	0.189503	0.439918
	N269	N	0.080347	0.185966	0.514315
	N270	N	0.082854	0.829442	0.440343
	N271	N	0.912442	0.831587	0.513872
	N272	N	0.176804	0.472946	0.890632
	N273	N	0.177471	0.546886	0.063029
	N274	N	0.821404	0.471796	0.060195
	N275	N	0.818676	0.545624	0.889178
	O276	O	-0.407881	-0.446537	0.618858
	H277	H	-0.401325	-0.449113	0.602724
	H278	H	-0.407758	-0.455426	0.626525
	O279	O	0.512886	0.370518	0.473545
	H280	H	0.510481	0.363145	0.467442
	H281	H	0.519614	0.377687	0.459933
	O282	O	0.576794	0.437378	0.484206
	H283	H	0.571321	0.434668	0.489223
	H284	H	0.584849	0.423311	0.484359
	O285	O	0.056624	1.063520	1.027184
	H286	H	0.055050	1.064909	1.029381
	H287	H	0.058591	1.057533	1.032147
	O288	O	0.501281	0.487908	0.588425
	H289	H	0.503561	0.486095	0.582456
	H290	H	0.501209	0.485273	0.595091
	O291	O	0.513720	1.429327	1.368946
	H292	H	0.508957	1.417767	1.360080
	H293	H	0.501068	1.436881	1.380014
	O294	O	1.067690	1.027309	1.018572
	H295	H	1.071599	1.032122	1.025219
	H296	H	1.071545	1.025544	1.021819
	O297	O	0.984776	-0.006721	1.051951
	H298	H	0.975867	-0.013843	1.048593
	H299	H	0.991129	-0.005522	1.062457
	O300	O	0.581136	0.607304	0.496184
	H301	H	0.583820	0.604087	0.481002
	H302	H	0.584118	0.622629	0.493059
	O303	O	1.041297	0.035794	0.036037
	H304	H	1.040323	0.030353	0.035242
	H305	H	1.040399	0.031393	0.039127
	O306	O	-0.028076	1.037831	0.995110
	H307	H	-0.022015	1.048365	0.988760
	H308	H	-0.031679	1.042791	0.999307
	O309	O	0.398866	0.477101	0.567307
	H310	H	0.392932	0.481280	0.567288
	H311	H	0.413175	0.489786	0.564709
	O312	O	1.066612	-0.017941	1.017945
	H313	H	1.061563	-0.017006	1.012451
	H314	H	1.068570	-0.026362	1.015988
	O315	O	0.530279	0.415570	0.401972
	H316	H	0.532495	0.403627	0.394539
	H317	H	0.507705	0.425920	0.424491
	O318	O	0.118065	0.091731	1.045499
	H319	H	0.123572	0.079747	1.046723
	H320	H	0.121455	0.096115	1.049517
	O321	O	2.004396	0.037680	2.057133
	H322	H	2.007317	0.054756	2.069292
	H323	H	2.008573	0.042417	2.052985
	O324	O	0.406760	0.631156	0.406828
	H325	H	0.393793	0.633263	0.406006
	H326	H	0.417245	0.628994	0.416017
	O327	O	0.531420	0.500979	0.440369
	H328	H	0.535763	0.515598	0.432736
	H329	H	0.523963	0.489465	0.441682
	O330	O	0.562976	-0.412816	0.328347
	H331	H	0.561517	-0.418698	0.344103
	H332	H	0.553867	-0.404360	0.329486
	O333	O	1.046276	1.053335	0.014934
	H334	H	1.047753	1.052905	0.024967
	H335	H	1.044561	1.057190	0.010749
	O336	O	0.369505	0.634405	0.429894
	H337	H	0.374859	0.634104	0.435727
	H338	H	0.362778	0.655412	0.430127
	O339	O	0.509482	0.482485	0.511313
	H340	H	0.497227	0.485524	0.505600
	H341	H	0.508216	0.478033	0.519069
	O342	O	0.367010	1.476429	0.561850
	H343	H	0.373390	1.468194	0.567963
	H344	H	0.366107	1.465458	0.575326
	O345	O	0.687739	0.415769	0.436513
	H346	H	0.703927	0.395751	0.420251
	H347	H	0.682945	0.419979	0.415831
	O348	O	0.395774	0.394214	0.643626
	H349	H	0.395802	0.394718	0.660292
	H350	H	0.412075	0.390813	0.641548
	O351	O	-0.432176	0.598463	0.611309
	H352	H	-0.425557	0.590332	0.617915
	H353	H	-0.421734	0.598582	0.621203
	O354	O	0.552574	0.538845	0.290134
	H355	H	0.546800	0.540936	0.286172
	H356	H	0.559994	0.542700	0.288987
	O357	O	0.355102	0.584518	0.489625
	H358	H	0.366899	0.582288	0.494736
	H359	H	0.353042	0.591059	0.492963
	O360	O	0.054446	0.031524	-0.066340
	H361	H	0.051857	0.025585	-0.072180
	H362	H	0.056147	0.033381	-0.073487
	O363	O	0.427991	0.404559	0.391264
	H364	H	0.418179	0.399595	0.388306
	H365	H	0.435651	0.405193	0.401092
	O366	O	0.518590	-0.469076	1.322453
	H367	H	0.508579	-0.449941	1.311479
	H368	H	0.506647	-0.458525	1.318549
	O369	O	0.442264	0.556853	0.410294
	H370	H	0.446416	0.544506	0.412133
	H371	H	0.451907	0.549431	0.411234
