data_Molecule from HDF5

_cell_length_a		16.618607
_cell_length_b		16.581923
_cell_length_c		16.558627
_cell_angle_alpha	89.984704
_cell_angle_beta	89.924249
_cell_angle_gamma	90.062155
_symmetry_space_group_name_H-M	'P 1'
_symmetry_Int_Tables_number		1

loop_
	_symmetry_equiv_pos_as_xyz
	x,y,z

loop_
	_atom_site_label
	_atom_site_type_symbol
	_atom_site_fract_x
	_atom_site_fract_y
	_atom_site_fract_z
	H0	H	0.394649	0.821786	0.700282
	H1	H	0.602160	0.134683	0.704298
	H2	H	0.599169	0.822033	0.262650
	H3	H	0.389480	0.134316	0.258526
	H4	H	0.716760	0.376064	0.826054
	H5	H	0.718367	0.585153	0.138081
	H6	H	0.273901	0.585951	0.827507
	H7	H	0.272727	0.372023	0.137902
	H8	H	0.840805	0.702255	0.374610
	H9	H	0.153181	0.698165	0.583137
	H10	H	0.840549	0.257079	0.587591
	H11	H	0.152427	0.258682	0.375850
	H12	H	0.841294	0.373289	0.704612
	H13	H	0.152775	0.582073	0.700703
	H14	H	0.842139	0.587723	0.257121
	H15	H	0.151321	0.374633	0.259112
	H16	H	0.392465	0.700011	0.826207
	H17	H	0.600438	0.698992	0.140370
	H18	H	0.600560	0.259019	0.826069
	H19	H	0.387867	0.255298	0.136890
	H20	H	0.716839	0.822465	0.377583
	H21	H	0.718750	0.134585	0.588432
	H22	H	0.278113	0.822186	0.583246
	H23	H	0.272946	0.134420	0.373823
	H24	H	0.889340	0.322582	0.203876
	H25	H	0.099621	0.635231	0.201952
	H26	H	0.099179	0.322084	0.762547
	H27	H	0.893702	0.635722	0.761721
	H28	H	0.213754	0.879821	0.323812
	H29	H	0.216233	0.082726	0.638949
	H30	H	0.776256	0.083329	0.325090
	H31	H	0.776670	0.875601	0.639283
	H32	H	0.339997	0.200578	0.878036
	H33	H	0.650248	0.203352	0.089594
	H34	H	0.339155	0.760382	0.085544
	H35	H	0.653767	0.759979	0.879002
	H36	H	0.340037	0.876554	0.202646
	H37	H	0.651058	0.086288	0.205081
	H38	H	0.338995	0.082382	0.762943
	H39	H	0.653303	0.875769	0.761464
	H40	H	0.894900	0.197524	0.324097
	H41	H	0.098666	0.198230	0.639425
	H42	H	0.095309	0.764110	0.322855
	H43	H	0.892676	0.759299	0.638736
	H44	H	0.218056	0.323243	0.877288
	H45	H	0.214908	0.635770	0.084220
	H46	H	0.772617	0.324056	0.088849
	H47	H	0.776319	0.635915	0.877125
	H48	H	0.402663	0.093373	0.572123
	H49	H	0.587804	0.867801	0.569002
	H50	H	0.586636	0.092457	0.390116
	H51	H	0.405771	0.866961	0.394752
	H52	H	0.585946	0.395333	0.094142
	H53	H	0.590606	0.574964	0.867271
	H54	H	0.409623	0.571185	0.094996
	H55	H	0.405355	0.393160	0.870669
	H56	H	0.110645	0.577836	0.390894
	H57	H	0.883535	0.567237	0.577240
	H58	H	0.109590	0.387657	0.573822
	H59	H	0.882524	0.389648	0.387621
	H60	H	0.107895	0.387709	0.567911
	H61	H	0.882341	0.573634	0.570281
	H62	H	0.104283	0.567311	0.400412
	H63	H	0.884757	0.384939	0.397337
	H64	H	0.402633	0.571935	0.097362
	H65	H	0.588300	0.562988	0.871849
	H66	H	0.579789	0.392914	0.091916
	H67	H	0.410263	0.393674	0.873198
	H68	H	0.581759	0.089613	0.394423
	H69	H	0.586666	0.866443	0.573335
	H70	H	0.408531	0.092479	0.575223
	H71	H	0.406043	0.866615	0.391269
	H72	H	0.906818	0.591475	0.072806
	H73	H	0.090470	0.365273	0.071219
	H74	H	0.092977	0.593866	0.891384
	H75	H	0.900115	0.366221	0.896577
	H76	H	0.085387	0.889856	0.594125
	H77	H	0.080089	0.067206	0.372335
	H78	H	0.902176	0.064506	0.594447
	H79	H	0.902659	0.890884	0.369084
	H80	H	0.607958	0.070207	0.892750
	H81	H	0.385579	0.068119	0.067753
	H82	H	0.610281	0.879832	0.069584
	H83	H	0.387339	0.888011	0.899782
	H84	H	0.604628	0.895618	0.064593
	H85	H	0.385726	0.065707	0.069613
	H86	H	0.606554	0.068872	0.894587
	H87	H	0.385361	0.895284	0.886903
	H88	H	0.913136	0.064894	0.591119
	H89	H	0.086919	0.075989	0.366307
	H90	H	0.086806	0.884542	0.596061
	H91	H	0.909588	0.893670	0.371249
	H92	H	0.081512	0.591716	0.886950
	H93	H	0.080667	0.366425	0.074776
	H94	H	0.911732	0.589241	0.069461
	H95	H	0.907378	0.364887	0.886718
	H96	H	0.408267	0.090721	0.568638
	H97	H	0.583272	0.868333	0.570547
	H98	H	0.588738	0.090196	0.396647
	H99	H	0.408659	0.868349	0.393118
	H100	H	0.584539	0.388258	0.094829
	H101	H	0.579217	0.571800	0.871647
	H102	H	0.404535	0.565273	0.094600
	H103	H	0.408719	0.389378	0.870161
	H104	H	0.107418	0.563214	0.385944
	H105	H	0.886724	0.565626	0.568732
	H106	H	0.106683	0.392524	0.571659
	H107	H	0.887089	0.395231	0.395755
	H108	H	0.906718	0.589552	0.066736
	H109	H	0.083324	0.368537	0.064768
	H110	H	0.084416	0.588323	0.898404
	H111	H	0.911856	0.370311	0.896844
	H112	H	0.090541	0.889060	0.596717
	H113	H	0.092360	0.064286	0.369464
	H114	H	0.907757	0.074445	0.595708
	H115	H	0.908694	0.886103	0.368798
	H116	H	0.607710	0.067834	0.892277
	H117	H	0.385009	0.068463	0.071044
	H118	H	0.610595	0.892736	0.081289
	H119	H	0.380637	0.881381	0.888496
	C120	C	0.375439	-0.011952	0.603077
	C121	C	0.617997	0.970777	0.603351
	C122	C	0.617462	-0.012589	0.361364
	C123	C	0.374959	0.970620	0.360607
	C124	C	0.616247	0.359706	-0.009462
	C125	C	0.617683	0.601243	0.974186
	C126	C	0.374467	0.601025	-0.008138
	C127	C	0.374864	0.358608	0.974057
	C128	C	0.004492	0.601322	0.359941
	C129	C	0.987781	0.600182	0.603062
	C130	C	0.004865	0.357266	0.603532
	C131	C	0.987598	0.357785	0.360427
	C132	C	0.875131	0.487317	0.102942
	C133	C	0.116650	0.470290	0.102529
	C134	C	0.118200	0.487579	0.860417
	C135	C	0.875014	0.470638	0.861180
	C136	C	0.117167	0.858659	0.490379
	C137	C	0.117871	0.100804	0.473375
	C138	C	0.875750	0.100028	0.490038
	C139	C	0.874973	0.858184	0.473321
	C140	C	0.504391	0.100747	0.861202
	C141	C	0.487481	0.101049	0.103632
	C142	C	0.504710	0.858382	0.103248
	C143	C	0.488294	0.857196	0.860547
	C144	C	0.375182	0.869099	0.661062
	C145	C	0.620158	0.088170	0.663621
	C146	C	0.618711	0.869464	0.301846
	C147	C	0.371835	0.087677	0.299095
	C148	C	0.676537	0.357579	0.872832
	C149	C	0.677864	0.603369	0.091497
	C150	C	0.314425	0.603868	0.874202
	C151	C	0.313066	0.354437	0.090908
	C152	C	0.887709	0.662025	0.356624
	C153	C	0.106106	0.658637	0.602997
	C154	C	0.887454	0.297280	0.606055
	C155	C	0.105376	0.298527	0.357765
	C156	C	0.887635	0.354969	0.664220
	C157	C	0.105955	0.600910	0.661024
	C158	C	0.888431	0.604852	0.298165
	C159	C	0.105021	0.356288	0.299878
	C160	C	0.373075	0.660731	0.873674
	C161	C	0.619059	0.659899	0.092565
	C162	C	0.618738	0.299595	0.872866
	C163	C	0.370593	0.296693	0.090758
	C164	C	0.677074	0.869536	0.358960
	C165	C	0.678112	0.088061	0.605929
	C166	C	0.317396	0.869268	0.603157
	C167	C	0.313802	0.087687	0.356449
	C168	C	0.871307	0.370029	0.163919
	C169	C	0.118225	0.588188	0.162020
	C170	C	0.119051	0.369265	0.801774
	C171	C	0.874389	0.588755	0.801465
	C172	C	0.174294	0.859858	0.370929
	C173	C	0.176632	0.101890	0.591724
	C174	C	0.816555	0.101595	0.371930
	C175	C	0.816187	0.856903	0.591872
	C176	C	0.386754	0.160498	0.859344
	C177	C	0.603990	0.162567	0.107346
	C178	C	0.386525	0.799932	0.104280
	C179	C	0.606642	0.799067	0.859890
	C180	C	0.386829	0.857674	0.162410
	C181	C	0.604343	0.104123	0.164481
	C182	C	0.386173	0.101696	0.802218
	C183	C	0.606370	0.856761	0.801615
	C184	C	0.875266	0.158515	0.371482
	C185	C	0.118339	0.159118	0.592157
	C186	C	0.115561	0.802792	0.370289
	C187	C	0.873741	0.799024	0.591736
	C188	C	0.177781	0.369909	0.858599
	C189	C	0.175590	0.588711	0.103758
	C190	C	0.813228	0.370450	0.106649
	C191	C	0.816061	0.588866	0.858867
	C192	C	0.399588	0.070623	0.579090
	C193	C	0.593167	0.888740	0.578222
	C194	C	0.592869	0.069417	0.386541
	C195	C	0.399779	0.888723	0.386030
	C196	C	0.590659	0.384892	0.072423
	C197	C	0.593136	0.576760	0.891451
	C198	C	0.398800	0.576410	0.074107
	C199	C	0.400818	0.384819	0.892410
	C200	C	0.086211	0.576467	0.385187
	C201	C	0.905570	0.575898	0.578915
	C202	C	0.086836	0.382193	0.578144
	C203	C	0.906064	0.382669	0.386175
	C204	C	0.900961	0.568759	0.077159
	C205	C	0.091989	0.388126	0.077403
	C206	C	0.093316	0.569914	0.885059
	C207	C	0.899380	0.388542	0.886313
	C208	C	0.094194	0.881386	0.573733
	C209	C	0.093398	0.076355	0.390908
	C210	C	0.900429	0.075104	0.572100
	C211	C	0.899628	0.882972	0.391023
	C212	C	0.586021	0.075959	0.886042
	C213	C	0.406434	0.074889	0.077198
	C214	C	0.587250	0.882625	0.078934
	C215	C	0.405777	0.881299	0.884750
	Zn216	Zn	0.496456	-0.020319	0.732196
	Zn217	Zn	0.496348	-0.020588	0.232570
	Zn218	Zn	0.746409	0.479979	-0.017536
	Zn219	Zn	0.246254	0.478691	-0.017595
	Zn220	Zn	-0.003765	0.729663	0.481621
	Zn221	Zn	-0.003256	0.229124	0.481776
	Zn222	Zn	-0.003673	0.478800	0.732347
	Zn223	Zn	-0.004794	0.479017	0.231582
	Zn224	Zn	0.496717	0.728793	-0.017344
	Zn225	Zn	0.495801	0.229931	-0.017344
	Zn226	Zn	0.746583	-0.020826	0.481964
	Zn227	Zn	0.246637	-0.020253	0.481958
	N228	N	0.410352	0.944002	0.661271
	N229	N	0.583429	0.014194	0.662122
	N230	N	0.582839	0.943947	0.302826
	N231	N	0.409286	0.014031	0.301736
	N232	N	0.675452	0.393898	0.947210
	N233	N	0.677222	0.567777	0.016740
	N234	N	0.315157	0.567399	0.948591
	N235	N	0.315805	0.392433	0.017345
	N236	N	0.961070	0.660069	0.394406
	N237	N	0.031353	0.658739	0.568000
	N238	N	0.961391	0.298618	0.568978
	N239	N	0.031350	0.299207	0.394692
	N240	N	0.961779	0.391465	0.662831
	N241	N	0.031245	0.565413	0.661350
	N242	N	0.962131	0.567765	0.300106
	N243	N	0.030770	0.392386	0.301305
	N244	N	0.409513	0.659419	0.947967
	N245	N	0.582466	0.658786	0.018270
	N246	N	0.582068	0.300821	0.947171
	N247	N	0.408511	0.299263	0.017099
	N248	N	0.676782	0.944113	0.395150
	N249	N	0.676835	0.013965	0.569037
	N250	N	0.316989	0.944424	0.568229
	N251	N	0.315457	0.013887	0.394069
	N252	N	0.908987	0.443705	0.161774
	N253	N	0.082540	0.513514	0.161614
	N254	N	0.082690	0.443547	0.802758
	N255	N	0.910327	0.514268	0.802667
	N256	N	0.175497	0.893744	0.446542
	N257	N	0.176442	0.066336	0.516862
	N258	N	0.816606	0.066058	0.446735
	N259	N	0.816673	0.892856	0.517089
	N260	N	0.461293	0.160323	0.894969
	N261	N	0.530178	0.160686	0.070086
	N262	N	0.460907	0.800259	0.068216
	N263	N	0.532048	0.799065	0.895755
	N264	N	0.461504	0.893019	0.161995
	N265	N	0.530927	0.066542	0.162360
	N266	N	0.460452	0.065601	0.802760
	N267	N	0.531586	0.891887	0.801704
	N268	N	0.911145	0.157918	0.446076
	N269	N	0.082868	0.158773	0.517326
	N270	N	0.080994	0.801641	0.445669
	N271	N	0.909183	0.799356	0.516782
	N272	N	0.177568	0.444697	0.894033
	N273	N	0.174919	0.514095	0.067735
	N274	N	0.815430	0.444496	0.069510
	N275	N	0.816378	0.514510	0.895222
	O276	O	0.590848	0.605166	-0.488613
	H277	H	0.598430	0.604331	-0.475379
	H278	H	0.606540	0.587844	-0.499499
	O279	O	0.457535	0.249268	0.437660
	H280	H	0.444393	0.259512	0.433119
	H281	H	0.446898	0.239804	0.429940
	O282	O	0.217880	0.947853	0.969347
	H283	H	0.208246	0.933027	0.968166
	H284	H	0.238947	0.934873	0.940530
	O285	O	0.990929	-0.006365	1.190913
	H286	H	1.013257	0.002351	1.179825
	H287	H	0.975247	0.009803	1.192499
	O288	O	-0.182509	1.019431	1.005786
	H289	H	-0.180876	1.026872	1.025652
	H290	H	-0.181713	1.046898	1.007118
	O291	O	0.709957	0.510538	0.697491
	H292	H	0.720231	0.521678	0.710061
	H293	H	0.714400	0.522858	0.691879
	O294	O	1.054418	-0.169752	1.096760
	H295	H	1.040405	-0.173963	1.079849
	H296	H	1.045339	-0.179093	1.089099
	O297	O	0.517933	0.703967	0.523040
	H298	H	0.527265	0.706777	0.531706
	H299	H	0.514863	0.705045	0.517865
	O300	O	-0.219354	0.002313	0.774339
	H301	H	-0.218679	0.026145	0.777111
	H302	H	-0.243075	0.019343	0.763666
	O303	O	0.401948	0.544186	0.520480
	H304	H	0.415673	0.552265	0.512367
	H305	H	0.401712	0.525740	0.522452
	O306	O	0.982896	0.770268	0.169312
	H307	H	0.981454	0.781068	0.158382
	H308	H	0.984399	0.754157	0.176101
	O309	O	0.277716	0.515602	0.258859
	H310	H	0.245917	0.511137	0.235210
	H311	H	0.275139	0.504192	0.285569
	O312	O	1.034936	0.763009	0.773595
	H313	H	1.039911	0.754775	0.758265
	H314	H	1.032901	0.769604	0.767545
	O315	O	0.715985	0.258517	0.407164
	H316	H	0.730503	0.234315	0.405864
	H317	H	0.704400	0.261247	0.418016
	O318	O	0.319968	0.299548	0.637264
	H319	H	0.305334	0.281391	0.655106
	H320	H	0.325809	0.327811	0.645398
	O321	O	-0.114902	1.102874	1.009284
	H322	H	-0.094600	1.101409	1.012463
	H323	H	-0.119165	1.081871	1.007132
	O324	O	1.289073	1.394983	0.401087
	H325	H	1.288168	1.389776	0.422976
	H326	H	1.300746	1.409569	0.415765
	O327	O	0.058332	0.079217	1.136343
	H328	H	0.056275	0.098217	1.142313
	H329	H	0.057697	0.089208	1.134300
	O330	O	0.567743	0.483553	0.474583
	H331	H	0.572787	0.487311	0.463720
	H332	H	0.574621	0.483730	0.474238
	O333	O	0.429036	0.539285	0.702813
	H334	H	0.442478	0.547176	0.700299
	H335	H	0.453126	0.531466	0.696901
	O336	O	1.178640	-0.205849	0.166389
	H337	H	1.150670	-0.194144	0.152238
	H338	H	1.170683	-0.182621	0.143109
	O339	O	1.471458	0.415736	0.526641
	H340	H	1.462399	0.421598	0.527640
	H341	H	1.461490	0.418886	0.518039
	O342	O	0.319649	0.303083	0.291755
	H343	H	0.346527	0.312572	0.300912
	H344	H	0.318853	0.327628	0.305623
	O345	O	0.683762	1.489657	1.263293
	H346	H	0.685533	1.460606	1.258363
	H347	H	0.690434	1.471978	1.248618
	O348	O	0.597658	0.450613	0.656292
	H349	H	0.598645	0.461232	0.637716
	H350	H	0.592844	0.453561	0.669669
	O351	O	0.236740	0.742380	0.748798
	H352	H	0.266246	0.713148	0.726175
	H353	H	0.213958	0.740896	0.732223
	O354	O	-0.178211	0.033717	0.925611
	H355	H	-0.187708	0.056284	0.928735
	H356	H	-0.182563	0.041882	0.908353
	O357	O	0.719304	0.659155	0.501173
	H358	H	0.748580	0.683555	0.492201
	H359	H	0.725950	0.634763	0.474819
	O360	O	0.430870	0.461179	0.385948
	H361	H	0.434157	0.466757	0.386684
	H362	H	0.441387	0.460707	0.391356
	O363	O	-0.301272	-0.316233	-0.312341
	H364	H	-0.313121	-0.330874	-0.325955
	H365	H	-0.278241	-0.297453	-0.324334
	O366	O	0.521558	0.319703	0.452385
	H367	H	0.504633	0.323797	0.449206
	H368	H	0.516666	0.328119	0.453493
	O369	O	1.044065	0.201460	-0.054925
	H370	H	1.053443	0.198732	-0.044758
	H371	H	1.032537	0.202153	-0.045041
	O372	O	1.214064	0.766323	-0.050947
	H373	H	1.221012	0.755201	-0.063840
	H374	H	1.226853	0.762361	-0.061294
	O375	O	0.818820	-0.203796	-0.202344
	H376	H	0.819018	-0.184014	-0.177569
	H377	H	0.820251	-0.201140	-0.206944
	O378	O	0.546238	0.691920	0.400263
	H379	H	0.525403	0.696315	0.375190
	H380	H	0.549591	0.705105	0.401148
	O381	O	-0.719393	0.453435	0.699040
	H382	H	-0.699502	0.454917	0.697633
	H383	H	-0.736112	0.453816	0.723415
	O384	O	1.087435	-0.062789	0.984410
	H385	H	1.086311	-0.051156	0.971097
	H386	H	1.078922	-0.060051	0.993570
	O387	O	0.793483	1.180939	-0.217637
	H388	H	0.834651	1.185372	-0.217444
	H389	H	0.768650	1.211928	-0.251532
	O390	O	0.609246	0.479446	0.266988
	H391	H	0.629407	0.478791	0.263276
	H392	H	0.610348	0.473696	0.257784
	O393	O	0.693517	0.284059	0.677903
	H394	H	0.672134	0.293599	0.657955
	H395	H	0.676450	0.307252	0.665089
	O396	O	-0.068730	1.081859	1.044048
	H397	H	-0.066815	1.071585	1.042747
	H398	H	-0.074600	1.083847	1.044673
	O399	O	0.203725	0.063762	1.136657
	H400	H	0.195977	0.056165	1.139108
	H401	H	0.202392	0.052861	1.128780
	O402	O	0.956991	1.115275	-0.202812
	H403	H	0.960800	1.110350	-0.203388
	H404	H	0.964994	1.120191	-0.206019
	O405	O	1.064466	0.027675	0.774029
	H406	H	1.078301	0.009330	0.774223
	H407	H	1.066062	0.014343	0.773344
	O408	O	0.106456	0.096011	-0.071131
	H409	H	0.099723	0.092772	-0.061339
	H410	H	0.114404	0.089662	-0.083642
	O411	O	0.962182	0.764222	0.963525
	H412	H	0.954371	0.768101	0.944719
	H413	H	0.946616	0.766115	0.963918
	O414	O	0.273307	0.255205	0.510131
	H415	H	0.251184	0.235681	0.526645
	H416	H	0.268028	0.259085	0.520447
	O417	O	0.772191	-0.051932	1.201080
	H418	H	0.775258	-0.063876	1.209035
	H419	H	0.756318	-0.061037	1.217241
	O420	O	-0.111962	0.918476	1.021313
	H421	H	-0.115004	0.919835	1.022291
	H422	H	-0.114108	0.918122	1.032130
	O423	O	0.200994	0.181601	1.180862
	H424	H	0.196469	0.158769	1.180070
	H425	H	0.226736	0.192603	1.198276
	O426	O	0.207709	0.889612	0.768410
	H427	H	0.236851	0.869439	0.744095
	H428	H	0.210444	0.877125	0.792740
	O429	O	0.725170	0.692052	1.232808
	H430	H	0.739245	0.672546	1.229419
	H431	H	0.716780	0.682831	1.233893
	O432	O	0.280293	0.697824	0.267176
	H433	H	0.251059	0.722777	0.246957
	H434	H	0.265450	0.671568	0.266589
	O435	O	-0.181314	1.194076	-0.018555
	H436	H	-0.181314	1.202977	-0.025851
	H437	H	-0.192861	1.199306	-0.042035
	O438	O	0.203280	0.195480	-0.227069
	H439	H	0.205759	0.175671	-0.219921
	H440	H	0.187393	0.188100	-0.209140
	O441	O	-0.191770	-0.228136	0.186906
	H442	H	-0.183423	-0.211640	0.173775
	H443	H	-0.188354	-0.242849	0.197246
	O444	O	0.529976	0.698341	0.707471
	H445	H	0.535898	0.719514	0.723523
	H446	H	0.548175	0.704822	0.703252
	O447	O	-0.312088	1.308793	1.311095
	H448	H	-0.337322	1.304915	1.327235
	H449	H	-0.296923	1.280813	1.299302
	O450	O	0.460888	0.697577	1.265319
	H451	H	0.454774	0.716242	1.235191
	H452	H	0.420296	0.692890	1.263999
	O453	O	0.283305	0.690691	0.426042
	H454	H	0.262845	0.697196	0.414768
	H455	H	0.287988	0.698221	0.410361
	O456	O	0.217181	0.072377	0.971734
	H457	H	0.213297	0.069531	0.976615
	H458	H	0.224149	0.056703	0.965894
	O459	O	0.973926	0.916898	-0.201999
	H460	H	0.954267	0.919834	-0.202149
	H461	H	0.961656	0.919944	-0.206056
	O462	O	0.344100	0.401030	0.611596
	H463	H	0.355686	0.411696	0.620975
	H464	H	0.342522	0.404496	0.622389
	O465	O	0.855048	0.151777	0.099128
	H466	H	0.870127	0.139003	0.107796
	H467	H	0.854483	0.149383	0.082443
	O468	O	0.516237	0.267582	0.270318
	H469	H	0.511036	0.277029	0.272700
	H470	H	0.510001	0.268284	0.250828
	O471	O	-0.183246	0.762421	0.003417
	H472	H	-0.179845	0.773556	0.013448
	H473	H	-0.203279	0.749436	-0.007228
	O474	O	0.307604	0.661630	0.620408
	H475	H	0.341153	0.661351	0.607608
	H476	H	0.316143	0.646224	0.598685
	O477	O	0.507064	0.271365	1.656129
	H478	H	0.490895	0.269313	1.652184
	H479	H	0.489001	0.261874	1.660695
	O480	O	0.652210	0.420570	0.609695
	H481	H	0.661062	0.414527	0.602493
	H482	H	0.651340	0.423284	0.607224
	O483	O	0.713050	0.477123	0.423771
	H484	H	0.701182	0.466119	0.425477
	H485	H	0.708910	0.463724	0.430688
	O486	O	0.407199	0.481199	1.356659
	H487	H	0.400720	0.480490	1.349442
	H488	H	0.402015	0.495549	1.362511
	O489	O	1.102883	1.137388	0.098395
	H490	H	1.115560	1.156218	0.113742
	H491	H	1.120397	1.141936	0.098471
