data_Molecule from HDF5

_cell_length_a		16.242480
_cell_length_b		16.346229
_cell_length_c		16.225939
_cell_angle_alpha	90.165310
_cell_angle_beta	89.650809
_cell_angle_gamma	90.004073
_symmetry_space_group_name_H-M	'P 1'
_symmetry_Int_Tables_number		1

loop_
	_symmetry_equiv_pos_as_xyz
	x,y,z

loop_
	_atom_site_label
	_atom_site_type_symbol
	_atom_site_fract_x
	_atom_site_fract_y
	_atom_site_fract_z
	H0	H	0.400769	0.833488	0.711756
	H1	H	0.601071	0.157862	0.710962
	H2	H	0.602322	0.832986	0.276322
	H3	H	0.400580	0.158011	0.279500
	H4	H	0.717541	0.394548	0.831403
	H5	H	0.715481	0.595741	0.157969
	H6	H	0.285372	0.594852	0.831145
	H7	H	0.283108	0.396000	0.157477
	H8	H	0.838829	0.712978	0.394687
	H9	H	0.163817	0.713709	0.597376
	H10	H	0.839659	0.278590	0.597791
	H11	H	0.164285	0.278734	0.390976
	H12	H	0.838810	0.396045	0.710933
	H13	H	0.164150	0.597289	0.710534
	H14	H	0.837731	0.595766	0.281534
	H15	H	0.165006	0.396589	0.277773
	H16	H	0.398944	0.713319	0.832271
	H17	H	0.601275	0.713337	0.157613
	H18	H	0.603721	0.279122	0.832165
	H19	H	0.398125	0.280377	0.157459
	H20	H	0.720036	0.833635	0.391486
	H21	H	0.716963	0.158440	0.594669
	H22	H	0.285040	0.833842	0.596543
	H23	H	0.284935	0.157359	0.395455
	H24	H	0.898955	0.334361	0.212397
	H25	H	0.100290	0.659092	0.209344
	H26	H	0.101779	0.334138	0.776416
	H27	H	0.900352	0.657938	0.778674
	H28	H	0.220431	0.894139	0.332520
	H29	H	0.215283	0.095450	0.659921
	H30	H	0.786171	0.095972	0.331148
	H31	H	0.786397	0.897891	0.658660
	H32	H	0.338638	0.212384	0.894291
	H33	H	0.664056	0.212945	0.096144
	H34	H	0.337833	0.780490	0.095650
	H35	H	0.662839	0.777714	0.890817
	H36	H	0.338331	0.894885	0.211103
	H37	H	0.664592	0.094923	0.208727
	H38	H	0.337972	0.094090	0.781261
	H39	H	0.664786	0.896039	0.779603
	H40	H	0.900500	0.214025	0.331576
	H41	H	0.102304	0.213858	0.657839
	H42	H	0.104282	0.779315	0.332188
	H43	H	0.899453	0.780353	0.657818
	H44	H	0.218107	0.333206	0.891805
	H45	H	0.217717	0.657824	0.095301
	H46	H	0.784505	0.333217	0.094929
	H47	H	0.782953	0.657134	0.892690
	H48	H	0.401697	0.112028	0.580938
	H49	H	0.598154	0.879996	0.582400
	H50	H	0.591333	0.110795	0.397967
	H51	H	0.408985	0.877574	0.399211
	H52	H	0.586630	0.406278	0.109689
	H53	H	0.595398	0.581588	0.878955
	H54	H	0.417112	0.589036	0.107812
	H55	H	0.402140	0.405276	0.876236
	H56	H	0.117061	0.591507	0.408073
	H57	H	0.883077	0.590771	0.590341
	H58	H	0.121266	0.396232	0.586791
	H59	H	0.883646	0.402921	0.400134
	H60	H	0.114794	0.406493	0.576298
	H61	H	0.885683	0.591306	0.581348
	H62	H	0.116317	0.583085	0.401022
	H63	H	0.885786	0.401068	0.407429
	H64	H	0.404399	0.594971	0.114298
	H65	H	0.586648	0.586391	0.880170
	H66	H	0.592559	0.398462	0.114320
	H67	H	0.415945	0.410118	0.881618
	H68	H	0.590562	0.108172	0.406723
	H69	H	0.596708	0.877548	0.592577
	H70	H	0.406780	0.115167	0.598355
	H71	H	0.416786	0.881556	0.403522
	H72	H	0.904973	0.611972	0.086510
	H73	H	0.083352	0.381192	0.091802
	H74	H	0.096942	0.612747	0.901913
	H75	H	0.907819	0.378894	0.898636
	H76	H	0.088942	0.899516	0.612087
	H77	H	0.094390	0.085170	0.379863
	H78	H	0.911045	0.087354	0.609555
	H79	H	0.911842	0.903439	0.378230
	H80	H	0.618478	0.085609	0.898505
	H81	H	0.381429	0.097291	0.088059
	H82	H	0.616492	0.907522	0.085501
	H83	H	0.384437	0.901953	0.904925
	H84	H	0.619649	0.901374	0.086018
	H85	H	0.388438	0.085621	0.078201
	H86	H	0.619171	0.093639	0.904395
	H87	H	0.385142	0.904845	0.904875
	H88	H	0.910934	0.091029	0.610998
	H89	H	0.091847	0.086376	0.380390
	H90	H	0.097901	0.902867	0.613541
	H91	H	0.910960	0.905970	0.378809
	H92	H	0.089813	0.610928	0.900433
	H93	H	0.092184	0.383324	0.076270
	H94	H	0.909569	0.612124	0.090006
	H95	H	0.914853	0.381774	0.902596
	H96	H	0.418837	0.107609	0.586466
	H97	H	0.588763	0.881886	0.586594
	H98	H	0.598549	0.111315	0.403587
	H99	H	0.407463	0.881208	0.408448
	H100	H	0.597365	0.407591	0.111439
	H101	H	0.594347	0.591350	0.876784
	H102	H	0.404930	0.580186	0.109905
	H103	H	0.414007	0.394606	0.876445
	H104	H	0.119956	0.591898	0.398546
	H105	H	0.886889	0.584272	0.586479
	H106	H	0.117641	0.411743	0.590657
	H107	H	0.887150	0.408538	0.404319
	H108	H	0.910285	0.609309	0.085049
	H109	H	0.100189	0.376838	0.091099
	H110	H	0.092173	0.609357	0.906858
	H111	H	0.907203	0.381351	0.906813
	H112	H	0.090743	0.908805	0.609398
	H113	H	0.093830	0.087447	0.379249
	H114	H	0.907899	0.088993	0.610819
	H115	H	0.913896	0.905429	0.379236
	H116	H	0.615319	0.085533	0.908032
	H117	H	0.384339	0.081483	0.094108
	H118	H	0.616243	0.903502	0.080419
	H119	H	0.384134	0.903859	0.902276
	C120	C	0.379671	0.004335	0.617861
	C121	C	0.623382	0.987083	0.616796
	C122	C	0.623610	0.003324	0.372260
	C123	C	0.380715	0.987109	0.373721
	C124	C	0.622608	0.374169	0.003862
	C125	C	0.622372	0.617058	0.986017
	C126	C	0.379032	0.617489	0.003076
	C127	C	0.379879	0.374238	0.985849
	C128	C	0.010116	0.618184	0.373285
	C129	C	0.992576	0.618532	0.616305
	C130	C	0.010186	0.375099	0.615389
	C131	C	0.993292	0.374611	0.372969
	C132	C	0.878466	0.504260	0.117035
	C133	C	0.121831	0.487682	0.115510
	C134	C	0.123115	0.504252	0.872317
	C135	C	0.879756	0.487369	0.872950
	C136	C	0.123752	0.873984	0.504035
	C137	C	0.122809	0.116722	0.487374
	C138	C	0.879972	0.118643	0.502982
	C139	C	0.881623	0.875538	0.486363
	C140	C	0.509886	0.117139	0.874163
	C141	C	0.492456	0.117765	0.116562
	C142	C	0.509653	0.874450	0.114897
	C143	C	0.492443	0.873806	0.873160
	C144	C	0.380784	0.882201	0.673791
	C145	C	0.621354	0.109346	0.672736
	C146	C	0.622642	0.881705	0.314766
	C147	C	0.381038	0.109181	0.317653
	C148	C	0.679199	0.374877	0.880466
	C149	C	0.677867	0.615969	0.109060
	C150	C	0.323078	0.615662	0.880194
	C151	C	0.321981	0.375922	0.108717
	C152	C	0.887510	0.674465	0.374905
	C153	C	0.115142	0.674998	0.616014
	C154	C	0.888103	0.317403	0.616544
	C155	C	0.115807	0.317694	0.372274
	C156	C	0.887611	0.375794	0.672739
	C157	C	0.115169	0.616975	0.672526
	C158	C	0.886863	0.615955	0.318646
	C159	C	0.115922	0.376156	0.315824
	C160	C	0.379819	0.674196	0.880601
	C161	C	0.620989	0.674396	0.108878
	C162	C	0.622407	0.317458	0.880894
	C163	C	0.379362	0.318512	0.108628
	C164	C	0.680981	0.881919	0.372315
	C165	C	0.679035	0.109614	0.615031
	C166	C	0.323024	0.882358	0.616674
	C167	C	0.323324	0.108872	0.375171
	C168	C	0.879247	0.382673	0.174112
	C169	C	0.120577	0.610163	0.171507
	C170	C	0.122085	0.382573	0.814809
	C171	C	0.880403	0.609246	0.816629
	C172	C	0.181665	0.874439	0.381283
	C173	C	0.178386	0.115634	0.610434
	C174	C	0.823757	0.116941	0.380227
	C175	C	0.824496	0.877425	0.609633
	C176	C	0.387218	0.173572	0.874865
	C177	C	0.614889	0.174700	0.115969
	C178	C	0.387154	0.817976	0.115638
	C179	C	0.614480	0.816545	0.872276
	C180	C	0.387295	0.875047	0.172946
	C181	C	0.615651	0.115577	0.171667
	C182	C	0.386984	0.114857	0.818659
	C183	C	0.615445	0.875580	0.816955
	C184	C	0.880923	0.175224	0.380434
	C185	C	0.121880	0.174474	0.609533
	C186	C	0.123912	0.817267	0.381181
	C187	C	0.881014	0.819136	0.609250
	C188	C	0.179804	0.381952	0.872385
	C189	C	0.178854	0.609575	0.114686
	C190	C	0.822431	0.382063	0.115447
	C191	C	0.821823	0.608925	0.873326
	C192	C	0.402352	0.089519	0.595221
	C193	C	0.601029	0.901945	0.593896
	C194	C	0.600415	0.088139	0.395995
	C195	C	0.404338	0.902200	0.396926
	C196	C	0.599046	0.397316	0.089615
	C197	C	0.599217	0.593502	0.900670
	C198	C	0.401956	0.594745	0.088418
	C199	C	0.403685	0.396834	0.900185
	C200	C	0.095681	0.595400	0.395924
	C201	C	0.907195	0.595456	0.593019
	C202	C	0.095615	0.398063	0.591556
	C203	C	0.907762	0.397506	0.397040
	C204	C	0.901522	0.588989	0.093959
	C205	C	0.098677	0.402517	0.092882
	C206	C	0.099813	0.588877	0.896148
	C207	C	0.903030	0.402675	0.896007
	C208	C	0.099581	0.897049	0.589490
	C209	C	0.099976	0.093169	0.401896
	C210	C	0.902954	0.095803	0.588382
	C211	C	0.905325	0.898421	0.400999
	C212	C	0.595402	0.094790	0.896955
	C213	C	0.407049	0.094797	0.093674
	C214	C	0.595104	0.897469	0.090963
	C215	C	0.406817	0.896699	0.897070
	Zn216	Zn	0.501414	-0.004532	0.745829
	Zn217	Zn	0.501168	-0.004798	0.243619
	Zn218	Zn	0.750511	0.495291	-0.005714
	Zn219	Zn	0.251137	0.495290	-0.005671
	Zn220	Zn	0.001697	0.746320	0.494843
	Zn221	Zn	0.002357	0.246780	0.494294
	Zn222	Zn	0.001393	0.496349	0.743405
	Zn223	Zn	0.001403	0.496776	0.245189
	Zn224	Zn	0.500934	0.745753	-0.005798
	Zn225	Zn	0.501471	0.246498	-0.005128
	Zn226	Zn	0.752209	-0.004506	0.495110
	Zn227	Zn	0.251964	-0.004537	0.495887
	N228	N	0.415167	0.959132	0.674881
	N229	N	0.587624	0.032178	0.674104
	N230	N	0.587742	0.958227	0.314685
	N231	N	0.415747	0.032354	0.316205
	N232	N	0.679477	0.409486	0.957742
	N233	N	0.678809	0.581222	0.031772
	N234	N	0.322536	0.581057	0.957344
	N235	N	0.322040	0.409921	0.031248
	N236	N	0.965144	0.675842	0.408210
	N237	N	0.037884	0.676109	0.581849
	N238	N	0.965367	0.316903	0.581544
	N239	N	0.038272	0.316563	0.406905
	N240	N	0.964463	0.411039	0.672028
	N241	N	0.037966	0.582341	0.672675
	N242	N	0.964227	0.581753	0.317418
	N243	N	0.038776	0.410661	0.316157
	N244	N	0.413757	0.675479	0.958042
	N245	N	0.587422	0.675435	0.031177
	N246	N	0.588080	0.316791	0.958749
	N247	N	0.414525	0.317334	0.031275
	N248	N	0.681874	0.958735	0.407408
	N249	N	0.680333	0.032562	0.580804
	N250	N	0.322147	0.959258	0.582567
	N251	N	0.323033	0.031908	0.409317
	N252	N	0.913525	0.459583	0.175066
	N253	N	0.085784	0.533406	0.172103
	N254	N	0.087646	0.459415	0.814581
	N255	N	0.915633	0.532741	0.816157
	N256	N	0.181734	0.909092	0.458600
	N257	N	0.178988	0.080354	0.533408
	N258	N	0.822810	0.082826	0.457533
	N259	N	0.824805	0.911973	0.532436
	N260	N	0.464769	0.175369	0.908542
	N261	N	0.537409	0.176197	0.082465
	N262	N	0.464367	0.817385	0.080334
	N263	N	0.536935	0.815356	0.906583
	N264	N	0.464602	0.909264	0.172867
	N265	N	0.538270	0.081217	0.172605
	N266	N	0.464216	0.080551	0.818000
	N267	N	0.538444	0.910266	0.817325
	N268	N	0.914949	0.176754	0.457952
	N269	N	0.088176	0.175312	0.531893
	N270	N	0.088952	0.816675	0.458573
	N271	N	0.915797	0.817840	0.531678
	N272	N	0.180824	0.458687	0.907333
	N273	N	0.179768	0.532342	0.080617
	N274	N	0.821501	0.458711	0.080680
	N275	N	0.821201	0.532028	0.907513
	O276	O	-0.036036	-0.017971	0.036970
	H277	H	-0.025440	-0.008153	0.037819
	H278	H	-0.026656	-0.015314	0.047073
	O279	O	0.510820	0.517594	0.513159
	H280	H	0.512867	0.497659	0.518661
	H281	H	0.510977	0.506600	0.502274
	O282	O	1.181684	-0.097657	0.000479
	H283	H	1.179240	-0.113744	-0.003679
	H284	H	1.192013	-0.101336	0.019581
	O285	O	-0.081565	0.828971	0.009721
	H286	H	-0.080747	0.835721	0.018496
	H287	H	-0.081137	0.814284	0.021239
	O288	O	0.941213	0.883771	0.003249
	H289	H	0.935413	0.880871	-0.007271
	H290	H	0.933535	0.877896	0.006114
	O291	O	0.507371	0.400983	0.474591
	H292	H	0.493222	0.391655	0.479744
	H293	H	0.499481	0.403580	0.476307
	O294	O	1.127378	1.058619	0.952039
	H295	H	1.104794	1.051951	0.954153
	H296	H	1.121887	1.051261	0.947316
	O297	O	-0.048758	-0.008825	-0.167752
	H298	H	-0.045580	-0.001271	-0.177331
	H299	H	-0.053463	0.000806	-0.173016
	O300	O	0.478561	0.358247	0.618261
	H301	H	0.474807	0.363306	0.615645
	H302	H	0.464119	0.353474	0.627460
	O303	O	-0.019028	1.114696	0.994767
	H304	H	0.002007	1.118389	0.990468
	H305	H	-0.017480	1.109918	0.980894
	O306	O	0.412917	0.583418	0.402599
	H307	H	0.417191	0.586933	0.393992
	H308	H	0.414871	0.590285	0.398952
	O309	O	0.889079	-0.011671	0.125842
	H310	H	0.895895	-0.024065	0.124557
	H311	H	0.866104	-0.014905	0.136828
	O312	O	-0.130032	0.053914	0.920949
	H313	H	-0.123323	0.055172	0.925118
	H314	H	-0.129297	0.051813	0.919588
	O315	O	0.562492	0.439933	0.465815
	H316	H	0.552522	0.428520	0.462207
	H317	H	0.569149	0.429953	0.460537
	O318	O	0.559279	0.412204	0.356581
	H319	H	0.560055	0.416150	0.370221
	H320	H	0.560189	0.405426	0.352229
	O321	O	0.369974	0.491220	0.632213
	H322	H	0.356110	0.503747	0.633679
	H323	H	0.373027	0.504566	0.633819
	O324	O	0.377838	0.335439	0.568807
	H325	H	0.382445	0.328754	0.569305
	H326	H	0.380550	0.352718	0.576602
	O327	O	0.086298	0.901774	0.899908
	H328	H	0.087373	0.897373	0.887847
	H329	H	0.093240	0.883843	0.893298
	O330	O	0.456033	0.567849	0.517549
	H331	H	0.455801	0.572917	0.500402
	H332	H	0.465209	0.579134	0.515578
	O333	O	-0.008115	1.094754	1.134841
	H334	H	-0.004178	1.092487	1.134422
	H335	H	-0.000885	1.096337	1.129063
	O336	O	1.059071	1.062029	1.121324
	H337	H	1.062021	1.056369	1.127025
	H338	H	1.063771	1.058396	1.131674
	O339	O	0.581134	0.463877	0.657567
	H340	H	0.576411	0.458538	0.651897
	H341	H	0.563048	0.460243	0.657023
	O342	O	0.976986	-0.072006	0.113324
	H343	H	0.967946	-0.055451	0.109753
	H344	H	0.974443	-0.061687	0.117419
	O345	O	0.599192	0.450716	0.406502
	H346	H	0.583127	0.448409	0.396299
	H347	H	0.593014	0.443973	0.419156
	O348	O	1.072951	0.905951	0.841945
	H349	H	1.068467	0.890912	0.857356
	H350	H	1.077694	0.907245	0.837567
	O351	O	0.493783	0.313027	0.390996
	H352	H	0.487948	0.307953	0.394067
	H353	H	0.493787	0.313135	0.413056
	O354	O	0.559030	0.405311	0.442443
	H355	H	0.565247	0.404121	0.431522
	H356	H	0.558909	0.396670	0.430513
	O357	O	0.426999	0.588762	0.422753
	H358	H	0.430823	0.595318	0.430152
	H359	H	0.433553	0.591090	0.412172
	O360	O	-0.082733	-0.026964	0.080406
	H361	H	-0.094803	-0.039507	0.086576
	H362	H	-0.091791	-0.020486	0.081549
	O363	O	0.612635	0.651941	0.571986
	H364	H	0.615964	0.649967	0.579072
	H365	H	0.604444	0.652901	0.579661
	O366	O	0.547408	0.514574	0.490917
	H367	H	0.563648	0.506301	0.481375
	H368	H	0.546137	0.514510	0.491373
	O369	O	0.405397	0.509836	0.425428
	H370	H	0.396891	0.518399	0.415724
	H371	H	0.422978	0.494688	0.418295
	O372	O	-0.051912	0.946730	1.145387
	H373	H	-0.066655	0.940791	1.132499
	H374	H	-0.051786	0.949730	1.149455
	O375	O	0.351204	0.608607	0.394106
	H376	H	0.349047	0.617612	0.380866
	H377	H	0.352371	0.623485	0.389289
	O378	O	0.642278	0.558392	0.408888
	H379	H	0.654781	0.548346	0.406958
	H380	H	0.640685	0.549925	0.425490
	O381	O	0.490078	0.546309	0.413159
	H382	H	0.509914	0.541492	0.419225
	H383	H	0.490706	0.554099	0.417568
	O384	O	0.060997	0.881444	0.102463
	H385	H	0.067126	0.873759	0.103092
	H386	H	0.043535	0.880604	0.098107
	O387	O	1.078451	0.111444	0.986268
	H388	H	1.065956	0.110330	0.978994
	H389	H	1.086547	0.116539	0.988098
	O390	O	-0.115212	1.077750	-0.123831
	H391	H	-0.114302	1.087164	-0.130219
	H392	H	-0.112593	1.080150	-0.131839
	O393	O	1.120829	0.937043	0.010999
	H394	H	1.111446	0.947090	0.020308
	H395	H	1.120133	0.939897	0.013595
	O396	O	0.559607	0.563829	0.564359
	H397	H	0.562559	0.569729	0.575281
	H398	H	0.559125	0.564659	0.564967
	O399	O	0.050833	1.181826	1.051257
	H400	H	0.057405	1.190441	1.035951
	H401	H	0.058455	1.181154	1.068015
	O402	O	0.947157	1.010341	0.879755
	H403	H	0.945714	1.018756	0.883329
	H404	H	0.951047	1.012046	0.873985
	O405	O	0.525327	0.591859	0.633107
	H406	H	0.529277	0.596154	0.644853
	H407	H	0.529169	0.574015	0.623495
