data_Molecule from HDF5

_cell_length_a		16.149089
_cell_length_b		16.501705
_cell_length_c		16.299798
_cell_angle_alpha	90.029193
_cell_angle_beta	89.791704
_cell_angle_gamma	90.017027
_symmetry_space_group_name_H-M	'P 1'
_symmetry_Int_Tables_number		1

loop_
	_symmetry_equiv_pos_as_xyz
	x,y,z

loop_
	_atom_site_label
	_atom_site_type_symbol
	_atom_site_fract_x
	_atom_site_fract_y
	_atom_site_fract_z
	H0	H	0.388943	0.824729	0.724772
	H1	H	0.599542	0.142504	0.724263
	H2	H	0.601105	0.824430	0.282601
	H3	H	0.393001	0.143706	0.286314
	H4	H	0.712559	0.384240	0.843107
	H5	H	0.712078	0.583919	0.167363
	H6	H	0.280777	0.579927	0.843034
	H7	H	0.280288	0.383237	0.169305
	H8	H	0.835005	0.702643	0.401725
	H9	H	0.158526	0.701071	0.609013
	H10	H	0.834914	0.260349	0.614760
	H11	H	0.158096	0.264744	0.401752
	H12	H	0.833983	0.379483	0.725890
	H13	H	0.160872	0.580110	0.718964
	H14	H	0.833712	0.586516	0.289648
	H15	H	0.160044	0.384668	0.291298
	H16	H	0.389787	0.702538	0.845442
	H17	H	0.603146	0.705990	0.164385
	H18	H	0.601824	0.263720	0.844356
	H19	H	0.390800	0.261229	0.166705
	H20	H	0.716560	0.823976	0.399805
	H21	H	0.715296	0.142351	0.607620
	H22	H	0.277409	0.822963	0.604405
	H23	H	0.278147	0.144148	0.404143
	H24	H	0.892049	0.324191	0.227706
	H25	H	0.102318	0.641810	0.226336
	H26	H	0.101570	0.322486	0.785558
	H27	H	0.891626	0.640717	0.784664
	H28	H	0.211438	0.884380	0.342970
	H29	H	0.208771	0.080752	0.668122
	H30	H	0.780171	0.082626	0.341931
	H31	H	0.776028	0.881030	0.666431
	H32	H	0.334253	0.200713	0.902720
	H33	H	0.658505	0.201143	0.107940
	H34	H	0.333895	0.763073	0.110471
	H35	H	0.656359	0.762231	0.897060
	H36	H	0.332633	0.882104	0.221955
	H37	H	0.659158	0.085623	0.221250
	H38	H	0.331695	0.082797	0.790784
	H39	H	0.657577	0.881380	0.784952
	H40	H	0.889070	0.205228	0.345410
	H41	H	0.099020	0.200708	0.666237
	H42	H	0.104183	0.760968	0.346116
	H43	H	0.888949	0.761689	0.665923
	H44	H	0.212920	0.321464	0.906984
	H45	H	0.215100	0.641977	0.107877
	H46	H	0.777170	0.323214	0.109095
	H47	H	0.778571	0.642856	0.904382
	H48	H	0.400631	0.100735	0.604090
	H49	H	0.582036	0.871433	0.595490
	H50	H	0.582531	0.094063	0.417074
	H51	H	0.403290	0.869756	0.413158
	H52	H	0.590972	0.383778	0.125112
	H53	H	0.581007	0.578124	0.890559
	H54	H	0.405116	0.579973	0.123058
	H55	H	0.411955	0.399923	0.896795
	H56	H	0.106484	0.564572	0.424952
	H57	H	0.881548	0.568599	0.594994
	H58	H	0.108087	0.402402	0.593374
	H59	H	0.879696	0.393285	0.416236
	H60	H	0.117030	0.387114	0.606033
	H61	H	0.878259	0.574309	0.599180
	H62	H	0.116021	0.571244	0.403108
	H63	H	0.880394	0.391237	0.420698
	H64	H	0.402565	0.569396	0.121172
	H65	H	0.590946	0.575290	0.888046
	H66	H	0.587372	0.400363	0.117895
	H67	H	0.411832	0.378334	0.888878
	H68	H	0.589402	0.097019	0.414843
	H69	H	0.583559	0.870719	0.592495
	H70	H	0.408485	0.095767	0.597238
	H71	H	0.404784	0.869049	0.410905
	H72	H	0.901303	0.596780	0.097060
	H73	H	0.084014	0.371419	0.092178
	H74	H	0.079547	0.593021	0.916495
	H75	H	0.910158	0.371907	0.920121
	H76	H	0.081175	0.886514	0.620977
	H77	H	0.092465	0.076512	0.386835
	H78	H	0.910076	0.072081	0.617677
	H79	H	0.908743	0.885779	0.389351
	H80	H	0.615014	0.076744	0.911552
	H81	H	0.376784	0.075006	0.102546
	H82	H	0.609223	0.903684	0.095989
	H83	H	0.384441	0.895836	0.926262
	H84	H	0.614507	0.886870	0.095724
	H85	H	0.379646	0.079383	0.089345
	H86	H	0.611532	0.074655	0.917264
	H87	H	0.378570	0.899170	0.905562
	H88	H	0.906704	0.076887	0.620486
	H89	H	0.082844	0.069520	0.391981
	H90	H	0.090584	0.890367	0.622476
	H91	H	0.904169	0.895401	0.391081
	H92	H	0.095566	0.596168	0.918293
	H93	H	0.093393	0.365945	0.100807
	H94	H	0.906469	0.597777	0.101834
	H95	H	0.901326	0.368548	0.917796
	H96	H	0.397832	0.098310	0.593270
	H97	H	0.584949	0.869219	0.595605
	H98	H	0.583528	0.096155	0.409168
	H99	H	0.405608	0.870220	0.413089
	H100	H	0.574079	0.387531	0.117826
	H101	H	0.583725	0.568636	0.892712
	H102	H	0.412476	0.573041	0.117068
	H103	H	0.392886	0.390943	0.887330
	H104	H	0.115263	0.586762	0.421676
	H105	H	0.881310	0.575570	0.591531
	H106	H	0.110901	0.381953	0.585604
	H107	H	0.881467	0.396464	0.419713
	H108	H	0.908316	0.595322	0.095215
	H109	H	0.080838	0.368566	0.105031
	H110	H	0.088448	0.599884	0.903962
	H111	H	0.908761	0.368422	0.911568
	H112	H	0.082966	0.895629	0.618817
	H113	H	0.080598	0.081855	0.388698
	H114	H	0.902896	0.070640	0.619846
	H115	H	0.913858	0.893090	0.394248
	H116	H	0.611745	0.070553	0.911822
	H117	H	0.382652	0.066673	0.092987
	H118	H	0.607105	0.893432	0.081436
	H119	H	0.375256	0.879636	0.914871
	C120	C	0.371771	-0.008014	0.627606
	C121	C	0.615914	0.975111	0.626052
	C122	C	0.617643	-0.008650	0.381932
	C123	C	0.373534	0.975260	0.382258
	C124	C	0.616702	0.361086	0.013641
	C125	C	0.616932	0.605084	0.996623
	C126	C	0.374879	0.603998	0.014018
	C127	C	0.374135	0.359464	0.997901
	C128	C	0.005615	0.604999	0.385159
	C129	C	0.988105	0.602901	0.626078
	C130	C	0.004595	0.360303	0.627223
	C131	C	0.987704	0.363005	0.386622
	C132	C	0.873693	0.491609	0.129395
	C133	C	0.117997	0.474106	0.129075
	C134	C	0.118396	0.490302	0.883613
	C135	C	0.874827	0.474468	0.884736
	C136	C	0.116780	0.861263	0.513996
	C137	C	0.116362	0.104909	0.496349
	C138	C	0.874351	0.104417	0.513146
	C139	C	0.875154	0.860559	0.497239
	C140	C	0.504971	0.103817	0.883955
	C141	C	0.487485	0.104186	0.125692
	C142	C	0.503596	0.862893	0.124346
	C143	C	0.486491	0.860991	0.882872
	C144	C	0.370946	0.872241	0.685216
	C145	C	0.618034	0.094708	0.684960
	C146	C	0.619409	0.871916	0.322419
	C147	C	0.373611	0.095672	0.325106
	C148	C	0.674882	0.363153	0.892059
	C149	C	0.674371	0.604350	0.118465
	C150	C	0.317967	0.601539	0.892014
	C151	C	0.317091	0.361631	0.119952
	C152	C	0.883418	0.663447	0.383384
	C153	C	0.110424	0.660587	0.626798
	C154	C	0.882976	0.301000	0.631117
	C155	C	0.109767	0.304761	0.384273
	C156	C	0.882569	0.359984	0.686816
	C157	C	0.111251	0.600958	0.682091
	C158	C	0.882778	0.605406	0.327593
	C159	C	0.110810	0.364480	0.329187
	C160	C	0.372565	0.662316	0.893151
	C161	C	0.620132	0.665096	0.116844
	C162	C	0.619364	0.303434	0.892341
	C163	C	0.372280	0.301154	0.118740
	C164	C	0.676628	0.871471	0.381052
	C165	C	0.675735	0.094617	0.626816
	C166	C	0.315058	0.871415	0.625521
	C167	C	0.316446	0.096045	0.383937
	C168	C	0.872708	0.371829	0.188129
	C169	C	0.120068	0.594061	0.186793
	C170	C	0.119472	0.370142	0.825819
	C171	C	0.873427	0.593536	0.825067
	C172	C	0.173952	0.863274	0.391891
	C173	C	0.172044	0.101841	0.618976
	C174	C	0.817381	0.103295	0.391079
	C175	C	0.815583	0.861092	0.618331
	C176	C	0.382434	0.161833	0.883782
	C177	C	0.609982	0.161994	0.126375
	C178	C	0.382330	0.802953	0.128012
	C179	C	0.607973	0.801953	0.879511
	C180	C	0.381548	0.862194	0.183481
	C181	C	0.610303	0.104461	0.182746
	C182	C	0.381076	0.103148	0.828312
	C183	C	0.608559	0.861296	0.823611
	C184	C	0.871890	0.164209	0.392865
	C185	C	0.117145	0.161521	0.618277
	C186	C	0.120183	0.802051	0.393488
	C187	C	0.871599	0.801608	0.617899
	C188	C	0.174892	0.369426	0.886004
	C189	C	0.176269	0.594263	0.127562
	C190	C	0.815380	0.371457	0.128985
	C191	C	0.817066	0.594751	0.884571
	C192	C	0.395520	0.076491	0.604823
	C193	C	0.590890	0.892061	0.601538
	C194	C	0.592573	0.074195	0.406493
	C195	C	0.397656	0.891474	0.405632
	C196	C	0.591349	0.384005	0.098259
	C197	C	0.592212	0.580960	0.912298
	C198	C	0.399609	0.580920	0.098487
	C199	C	0.398807	0.382739	0.913072
	C200	C	0.090365	0.581066	0.409360
	C201	C	0.902379	0.579692	0.602121
	C202	C	0.089862	0.383743	0.602218
	C203	C	0.902577	0.386810	0.411569
	C204	C	0.898258	0.575032	0.105176
	C205	C	0.093178	0.390530	0.105999
	C206	C	0.094671	0.574440	0.906219
	C207	C	0.899448	0.391405	0.909296
	C208	C	0.091991	0.884222	0.598728
	C209	C	0.092182	0.082480	0.411212
	C210	C	0.899219	0.080093	0.597450
	C211	C	0.901357	0.884439	0.413257
	C212	C	0.590284	0.080671	0.906868
	C213	C	0.402054	0.080605	0.101889
	C214	C	0.588413	0.887559	0.098458
	C215	C	0.401286	0.884693	0.908155
	Zn216	Zn	0.494462	-0.016342	0.756037
	Zn217	Zn	0.495826	-0.016484	0.252780
	Zn218	Zn	0.744735	0.483282	0.005842
	Zn219	Zn	0.246343	0.482199	0.006319
	Zn220	Zn	-0.003792	0.731721	0.506111
	Zn221	Zn	-0.004405	0.233321	0.505841
	Zn222	Zn	-0.003171	0.481484	0.754658
	Zn223	Zn	-0.003692	0.484104	0.258262
	Zn224	Zn	0.495777	0.733200	0.004890
	Zn225	Zn	0.496558	0.231104	0.005065
	Zn226	Zn	0.746544	-0.017419	0.504530
	Zn227	Zn	0.244346	-0.016337	0.504725
	N228	N	0.405494	0.948394	0.686518
	N229	N	0.581570	0.019432	0.684578
	N230	N	0.583356	0.947344	0.322872
	N231	N	0.408153	0.019616	0.323729
	N232	N	0.673440	0.398195	0.968521
	N233	N	0.672320	0.567378	0.042823
	N234	N	0.319459	0.565831	0.968122
	N235	N	0.318171	0.397057	0.043748
	N236	N	0.960510	0.663222	0.418600
	N237	N	0.032529	0.661990	0.593023
	N238	N	0.959914	0.301128	0.594836
	N239	N	0.032202	0.303869	0.419270
	N240	N	0.959166	0.396199	0.684354
	N241	N	0.034065	0.565881	0.681820
	N242	N	0.959715	0.569852	0.328418
	N243	N	0.033739	0.400041	0.330410
	N244	N	0.407135	0.663957	0.970010
	N245	N	0.585202	0.665541	0.040062
	N246	N	0.583753	0.302121	0.969046
	N247	N	0.407070	0.299617	0.041597
	N248	N	0.675656	0.946508	0.417503
	N249	N	0.674590	0.019402	0.590777
	N250	N	0.315702	0.947070	0.590350
	N251	N	0.316149	0.020136	0.418766
	N252	N	0.907927	0.447689	0.188709
	N253	N	0.084437	0.518423	0.187796
	N254	N	0.084867	0.446226	0.824326
	N255	N	0.908332	0.517664	0.824622
	N256	N	0.171900	0.899245	0.467771
	N257	N	0.171776	0.067592	0.542069
	N258	N	0.818870	0.066999	0.467084
	N259	N	0.817405	0.896770	0.542206
	N260	N	0.460394	0.162528	0.917547
	N261	N	0.532519	0.162209	0.091907
	N262	N	0.459309	0.803485	0.091654
	N263	N	0.530929	0.801611	0.915586
	N264	N	0.458087	0.898614	0.181415
	N265	N	0.533033	0.069352	0.182593
	N266	N	0.458158	0.067904	0.828030
	N267	N	0.531779	0.897036	0.825518
	N268	N	0.906201	0.165207	0.469984
	N269	N	0.083360	0.163669	0.540962
	N270	N	0.085308	0.800591	0.470573
	N271	N	0.907974	0.801290	0.541641
	N272	N	0.174358	0.445074	0.921299
	N273	N	0.174984	0.518687	0.092259
	N274	N	0.815772	0.446917	0.093197
	N275	N	0.817994	0.519754	0.921187
	O276	O	0.646177	0.563138	0.625094
	H277	H	0.661132	0.568408	0.614089
	H278	H	0.648049	0.559803	0.628461
	O279	O	0.685228	0.570703	0.595513
	H280	H	0.677393	0.562191	0.600384
	H281	H	0.680282	0.576850	0.572754
	O282	O	0.385478	0.487941	0.361283
	H283	H	0.378637	0.487768	0.361870
	H284	H	0.398669	0.488086	0.356443
	O285	O	0.450081	0.381824	0.555258
	H286	H	0.451366	0.372401	0.564884
	H287	H	0.454413	0.371627	0.554115
	O288	O	0.952256	0.787064	1.210364
	H289	H	0.947881	0.799483	1.216344
	H290	H	0.958504	0.770230	1.211713
	O291	O	-0.102510	0.942046	-0.134720
	H292	H	-0.095696	0.946116	-0.136864
	H293	H	-0.078509	0.932014	-0.131105
	O294	O	0.484428	0.390149	0.328929
	H295	H	0.474030	0.399087	0.322749
	H296	H	0.477774	0.381995	0.338500
	O297	O	0.616782	0.512570	0.456220
	H298	H	0.628322	0.509787	0.451486
	H299	H	0.598110	0.510503	0.460246
	O300	O	0.482907	0.301235	0.588558
	H301	H	0.466550	0.301209	0.598291
	H302	H	0.488387	0.305591	0.583267
	O303	O	0.358631	0.377380	0.640847
	H304	H	0.365133	0.371974	0.650121
	H305	H	0.363007	0.375779	0.637754
	O306	O	0.345290	0.673487	0.730232
	H307	H	0.354636	0.672729	0.717124
	H308	H	0.350646	0.669876	0.749002
	O309	O	0.607242	0.456483	0.668774
	H310	H	0.619404	0.454472	0.666791
	H311	H	0.613553	0.458262	0.670089
	O312	O	0.029529	0.152634	-0.097068
	H313	H	0.042067	0.136556	-0.105939
	H314	H	0.016629	0.163648	-0.091104
	O315	O	0.634150	0.573609	0.473553
	H316	H	0.625804	0.570346	0.483814
	H317	H	0.647552	0.571676	0.463856
	O318	O	0.336931	1.374709	1.614941
	H319	H	0.347065	1.374846	1.614578
	H320	H	0.339168	1.361393	1.634593
	O321	O	0.532491	0.463728	0.376013
	H322	H	0.541222	0.452475	0.382500
	H323	H	0.539899	0.486196	0.376053
	O324	O	-0.108138	0.901836	0.122070
	H325	H	-0.110497	0.890857	0.132071
	H326	H	-0.123345	0.884896	0.130050
	O327	O	0.478898	0.353813	0.508675
	H328	H	0.488350	0.352478	0.518249
	H329	H	0.475986	0.358858	0.519318
	O330	O	0.071770	-0.186993	0.903126
	H331	H	0.073128	-0.185119	0.884267
	H332	H	0.087898	-0.193782	0.895295
	O333	O	-0.008207	-0.031347	1.044436
	H334	H	0.000188	-0.029975	1.028002
	H335	H	-0.000076	-0.016368	1.061135
	O336	O	0.445073	0.459588	0.527578
	H337	H	0.461028	0.462126	0.521310
	H338	H	0.441736	0.457498	0.512381
	O339	O	1.073167	-0.194953	-0.014629
	H340	H	1.072116	-0.204966	-0.025597
	H341	H	1.067895	-0.181858	-0.007975
	O342	O	-0.039215	0.113768	-0.009041
	H343	H	-0.031640	0.116046	-0.025994
	H344	H	-0.024303	0.100774	-0.018986
	O345	O	0.830698	0.022301	1.034071
	H346	H	0.830497	0.014455	1.058658
	H347	H	0.821824	0.030916	1.015593
	O348	O	1.086733	1.055056	-0.099851
	H349	H	1.095372	1.059399	-0.088563
	H350	H	1.090307	1.044894	-0.098431
	O351	O	0.500677	0.420030	0.367269
	H352	H	0.468289	0.420151	0.370366
	H353	H	0.511781	0.410719	0.375977
	O354	O	1.022943	-0.013815	0.891318
	H355	H	1.028735	-0.026689	0.903479
	H356	H	1.026550	-0.005571	0.905607
	O357	O	0.362386	0.658068	0.380585
	H358	H	0.362152	0.660052	0.403695
	H359	H	0.371220	0.658135	0.376107
	O360	O	0.484540	0.589381	0.564576
	H361	H	0.482756	0.585694	0.562650
	H362	H	0.491932	0.592723	0.555552
	O363	O	0.160171	1.078362	1.106090
	H364	H	0.165484	1.083269	1.117739
	H365	H	0.148114	1.078172	1.097124
	O366	O	1.069281	0.865446	-0.167577
	H367	H	1.077666	0.888703	-0.168569
	H368	H	1.067965	0.845428	-0.178784
	O369	O	-0.075616	0.959807	0.060315
	H370	H	-0.062933	0.962100	0.061192
	H371	H	-0.078028	0.952480	0.074472
	O372	O	0.646868	0.373211	0.340489
	H373	H	0.653827	0.355046	0.351624
	H374	H	0.660524	0.358610	0.307616
	O375	O	0.502347	0.643840	0.669587
	H376	H	0.505862	0.659791	0.696754
	H377	H	0.505184	0.634425	0.656091
	O378	O	1.053182	0.934864	0.176556
	H379	H	1.037114	0.929066	0.186308
	H380	H	1.047650	0.932029	0.174252
	O381	O	0.875178	0.076144	-0.184843
	H382	H	0.875008	0.087589	-0.199424
	H383	H	0.851658	0.073846	-0.184124
	O384	O	0.833764	0.823095	0.124863
	H385	H	0.866689	0.818520	0.132479
	H386	H	0.827746	0.821299	0.092087
	O387	O	0.116715	-0.083372	0.119330
	H388	H	0.121666	-0.084434	0.118309
	H389	H	0.121815	-0.080683	0.109826
	O390	O	-0.071484	1.172356	0.106079
	H391	H	-0.064639	1.167225	0.088526
	H392	H	-0.083246	1.180946	0.114794
	O393	O	1.011677	1.143018	0.977402
	H394	H	1.001140	1.134517	0.982451
	H395	H	1.019297	1.146983	1.002834
	O396	O	0.505033	0.679936	0.392810
	H397	H	0.497891	0.681151	0.399301
	H398	H	0.509098	0.683708	0.383104
	O399	O	0.040477	1.071663	1.019222
	H400	H	0.055292	1.070057	1.005818
	H401	H	0.031061	1.074921	1.007872
	O402	O	0.561930	0.380692	0.555013
	H403	H	0.561246	0.387764	0.547308
	H404	H	0.573320	0.364198	0.554474
	O405	O	0.967141	0.985935	0.000544
	H406	H	0.949819	0.992640	0.006150
	H407	H	0.968643	0.983240	0.019187
	O408	O	0.943855	0.823644	-0.058066
	H409	H	0.933923	0.824345	-0.070150
	H410	H	0.947035	0.821137	-0.070821
	O411	O	1.106143	0.075818	0.960330
	H412	H	1.092148	0.080817	0.981370
	H413	H	1.104667	0.080445	0.961500
	O414	O	0.476014	0.548617	0.375739
	H415	H	0.459905	0.567536	0.374571
	H416	H	0.467255	0.551319	0.379708
	O417	O	0.427120	0.452151	0.519297
	H418	H	0.433768	0.453314	0.511176
	H419	H	0.425068	0.451256	0.534769
