data_Molecule from HDF5

_cell_length_a		16.315847
_cell_length_b		16.274339
_cell_length_c		16.515009
_cell_angle_alpha	89.846881
_cell_angle_beta	90.133524
_cell_angle_gamma	89.870617
_symmetry_space_group_name_H-M	'P 1'
_symmetry_Int_Tables_number		1

loop_
	_symmetry_equiv_pos_as_xyz
	x,y,z

loop_
	_atom_site_label
	_atom_site_type_symbol
	_atom_site_fract_x
	_atom_site_fract_y
	_atom_site_fract_z
	H0	H	0.391787	0.831378	0.709737
	H1	H	0.603003	0.151682	0.706040
	H2	H	0.605488	0.829998	0.266435
	H3	H	0.393217	0.151026	0.264843
	H4	H	0.720991	0.385606	0.829172
	H5	H	0.719957	0.590972	0.146809
	H6	H	0.279047	0.593947	0.828935
	H7	H	0.279369	0.383044	0.147098
	H8	H	0.839813	0.710784	0.383430
	H9	H	0.161421	0.709077	0.590622
	H10	H	0.838108	0.273512	0.590166
	H11	H	0.160862	0.272834	0.388972
	H12	H	0.840664	0.385108	0.708155
	H13	H	0.159580	0.596046	0.708616
	H14	H	0.841129	0.596937	0.265841
	H15	H	0.159823	0.383112	0.268859
	H16	H	0.394008	0.711665	0.829342
	H17	H	0.604854	0.709892	0.146196
	H18	H	0.603039	0.271242	0.827709
	H19	H	0.400574	0.270768	0.148108
	H20	H	0.719100	0.829185	0.384359
	H21	H	0.713214	0.153855	0.585638
	H22	H	0.281289	0.829511	0.589294
	H23	H	0.280212	0.152286	0.384026
	H24	H	0.894596	0.330193	0.210751
	H25	H	0.109939	0.648464	0.212685
	H26	H	0.105606	0.330220	0.767582
	H27	H	0.891749	0.648810	0.764952
	H28	H	0.225448	0.881577	0.331253
	H29	H	0.224355	0.099834	0.642732
	H30	H	0.776894	0.096755	0.328507
	H31	H	0.777290	0.885924	0.644848
	H32	H	0.339484	0.209527	0.886376
	H33	H	0.661435	0.206645	0.090055
	H34	H	0.340291	0.768303	0.092543
	H35	H	0.660315	0.771535	0.885949
	H36	H	0.341754	0.880365	0.211433
	H37	H	0.658093	0.097135	0.210354
	H38	H	0.340653	0.100596	0.765161
	H39	H	0.658156	0.884631	0.766210
	H40	H	0.892944	0.214624	0.329381
	H41	H	0.103776	0.211530	0.645358
	H42	H	0.108707	0.766522	0.330446
	H43	H	0.895708	0.769799	0.645665
	H44	H	0.216912	0.327994	0.888079
	H45	H	0.221996	0.649986	0.094200
	H46	H	0.783486	0.327609	0.089944
	H47	H	0.780029	0.649533	0.884572
	H48	H	0.415329	0.105027	0.579481
	H49	H	0.590576	0.872477	0.585333
	H50	H	0.580830	0.107022	0.384269
	H51	H	0.419432	0.879145	0.396223
	H52	H	0.592716	0.397084	0.101233
	H53	H	0.584741	0.582037	0.875492
	H54	H	0.414765	0.579180	0.099330
	H55	H	0.410343	0.400263	0.875752
	H56	H	0.116401	0.585363	0.400358
	H57	H	0.885944	0.574306	0.582460
	H58	H	0.118195	0.392980	0.581834
	H59	H	0.886282	0.403370	0.400973
	H60	H	0.111595	0.402272	0.571027
	H61	H	0.883261	0.585437	0.578002
	H62	H	0.110614	0.574159	0.404352
	H63	H	0.886358	0.406843	0.396678
	H64	H	0.409444	0.580159	0.101595
	H65	H	0.594164	0.581382	0.872623
	H66	H	0.592447	0.398960	0.101186
	H67	H	0.408400	0.399291	0.874927
	H68	H	0.581302	0.098912	0.405892
	H69	H	0.580191	0.878288	0.577531
	H70	H	0.411501	0.103344	0.571485
	H71	H	0.411262	0.879529	0.406121
	H72	H	0.911720	0.602563	0.072762
	H73	H	0.088622	0.377671	0.074483
	H74	H	0.084004	0.602515	0.900017
	H75	H	0.909467	0.376042	0.904830
	H76	H	0.089172	0.898738	0.600219
	H77	H	0.092457	0.080199	0.373009
	H78	H	0.915059	0.079846	0.597147
	H79	H	0.907437	0.903942	0.374294
	H80	H	0.615452	0.078566	0.892316
	H81	H	0.386263	0.081029	0.072020
	H82	H	0.615410	0.900887	0.082353
	H83	H	0.383788	0.899083	0.898136
	H84	H	0.613177	0.898035	0.073014
	H85	H	0.387699	0.073461	0.076224
	H86	H	0.615535	0.082299	0.897054
	H87	H	0.386751	0.903388	0.900266
	H88	H	0.905627	0.090310	0.604107
	H89	H	0.084398	0.075139	0.377348
	H90	H	0.090937	0.905039	0.598438
	H91	H	0.911654	0.902285	0.374940
	H92	H	0.092801	0.604404	0.901237
	H93	H	0.092513	0.374548	0.080438
	H94	H	0.907096	0.605409	0.079749
	H95	H	0.908391	0.372024	0.891018
	H96	H	0.406901	0.107604	0.578596
	H97	H	0.592875	0.875991	0.571514
	H98	H	0.599876	0.109522	0.396839
	H99	H	0.407601	0.874552	0.395726
	H100	H	0.592013	0.397210	0.100879
	H101	H	0.589802	0.573060	0.876796
	H102	H	0.411033	0.575540	0.099742
	H103	H	0.408480	0.401585	0.875589
	H104	H	0.115174	0.575252	0.392652
	H105	H	0.888372	0.577222	0.570660
	H106	H	0.114872	0.407491	0.584905
	H107	H	0.883683	0.401536	0.396195
	H108	H	0.915974	0.603416	0.080646
	H109	H	0.085110	0.376378	0.080812
	H110	H	0.088067	0.606300	0.892883
	H111	H	0.920664	0.377012	0.896465
	H112	H	0.085142	0.903244	0.597798
	H113	H	0.083593	0.085000	0.374917
	H114	H	0.900598	0.075837	0.600255
	H115	H	0.908695	0.899323	0.373352
	H116	H	0.613795	0.076914	0.897829
	H117	H	0.383856	0.079991	0.079912
	H118	H	0.610776	0.907603	0.075406
	H119	H	0.384681	0.904167	0.894907
	C120	C	0.378075	-0.000596	0.608517
	C121	C	0.619178	0.982435	0.608033
	C122	C	0.619983	-0.001113	0.364800
	C123	C	0.379194	0.982911	0.366389
	C124	C	0.623333	0.366587	-0.003879
	C125	C	0.621627	0.610661	0.979466
	C126	C	0.378229	0.611401	-0.003729
	C127	C	0.378645	0.368225	0.980531
	C128	C	0.009122	0.611942	0.366060
	C129	C	0.991790	0.611384	0.608598
	C130	C	0.008456	0.369009	0.609758
	C131	C	0.991572	0.370552	0.367477
	C132	C	0.879995	0.497700	0.108926
	C133	C	0.121981	0.481546	0.110694
	C134	C	0.120470	0.498322	0.867174
	C135	C	0.879416	0.480725	0.865984
	C136	C	0.121796	0.868974	0.495275
	C137	C	0.119933	0.112248	0.478966
	C138	C	0.876007	0.113847	0.495830
	C139	C	0.877268	0.869166	0.478483
	C140	C	0.508785	0.111865	0.865515
	C141	C	0.491512	0.110579	0.108191
	C142	C	0.508258	0.868489	0.109458
	C143	C	0.490904	0.869506	0.866288
	C144	C	0.374857	0.879110	0.668866
	C145	C	0.620593	0.103703	0.665879
	C146	C	0.623378	0.878153	0.305840
	C147	C	0.375881	0.103252	0.305639
	C148	C	0.681591	0.366257	0.876627
	C149	C	0.680741	0.610818	0.099064
	C150	C	0.318699	0.612775	0.876699
	C151	C	0.319919	0.365887	0.099824
	C152	C	0.888535	0.671887	0.364126
	C153	C	0.112685	0.670369	0.609671
	C154	C	0.887091	0.311567	0.609703
	C155	C	0.112366	0.311226	0.368439
	C156	C	0.888343	0.367294	0.668501
	C157	C	0.112045	0.613907	0.668494
	C158	C	0.888979	0.615006	0.305799
	C159	C	0.112223	0.366671	0.309217
	C160	C	0.376159	0.671273	0.876684
	C161	C	0.623344	0.669968	0.098743
	C162	C	0.623038	0.309157	0.876118
	C163	C	0.380073	0.309613	0.100199
	C164	C	0.679818	0.877715	0.364693
	C165	C	0.675939	0.104538	0.606378
	C166	C	0.318997	0.878415	0.609510
	C167	C	0.319499	0.104032	0.364544
	C168	C	0.877187	0.377597	0.169642
	C169	C	0.126434	0.601099	0.171683
	C170	C	0.123329	0.378043	0.807859
	C171	C	0.874807	0.601176	0.805433
	C172	C	0.184012	0.864741	0.377894
	C173	C	0.182364	0.116148	0.596525
	C174	C	0.816505	0.115755	0.376220
	C175	C	0.817352	0.867051	0.597651
	C176	C	0.387838	0.171247	0.865957
	C177	C	0.612653	0.168452	0.109265
	C178	C	0.388238	0.807942	0.111507
	C179	C	0.611869	0.810440	0.866035
	C180	C	0.389180	0.863691	0.170848
	C181	C	0.610995	0.113899	0.169270
	C182	C	0.388451	0.116339	0.806013
	C183	C	0.610670	0.866390	0.806402
	C184	C	0.874485	0.174121	0.376551
	C185	C	0.122459	0.172174	0.597659
	C186	C	0.125845	0.807227	0.377724
	C187	C	0.876210	0.809426	0.597979
	C188	C	0.178668	0.376789	0.867797
	C189	C	0.182550	0.601768	0.112766
	C190	C	0.821850	0.376295	0.109663
	C191	C	0.819368	0.601465	0.865060
	C192	C	0.403729	0.083438	0.583723
	C193	C	0.594934	0.897657	0.584780
	C194	C	0.594788	0.083150	0.388804
	C195	C	0.405152	0.899474	0.391945
	C196	C	0.599475	0.390701	0.079489
	C197	C	0.596699	0.586037	0.896620
	C198	C	0.404192	0.585765	0.078586
	C199	C	0.402260	0.393042	0.897147
	C200	C	0.092248	0.585834	0.391661
	C201	C	0.907822	0.586175	0.584001
	C202	C	0.092996	0.393573	0.585869
	C203	C	0.907554	0.396472	0.391145
	C204	C	0.904638	0.581896	0.084680
	C205	C	0.096181	0.397923	0.085743
	C206	C	0.095380	0.582517	0.891176
	C207	C	0.905445	0.397015	0.890405
	C208	C	0.095699	0.895199	0.577547
	C209	C	0.094212	0.087171	0.396647
	C210	C	0.900254	0.089000	0.578933
	C211	C	0.902139	0.894449	0.395818
	C212	C	0.593010	0.086504	0.888947
	C213	C	0.407836	0.085408	0.083077
	C214	C	0.591411	0.894543	0.084218
	C215	C	0.406947	0.894807	0.890828
	Zn216	Zn	0.498996	-0.008975	0.737391
	Zn217	Zn	0.499037	-0.009609	0.236468
	Zn218	Zn	0.752102	0.489199	-0.012357
	Zn219	Zn	0.248798	0.489775	-0.011447
	Zn220	Zn	0.000147	0.739838	0.487760
	Zn221	Zn	-0.001442	0.242484	0.487619
	Zn222	Zn	0.000093	0.490662	0.737686
	Zn223	Zn	0.000564	0.489738	0.238065
	Zn224	Zn	0.499950	0.740590	-0.012439
	Zn225	Zn	0.500772	0.238577	-0.012472
	Zn226	Zn	0.747308	-0.009124	0.486937
	Zn227	Zn	0.250050	-0.008674	0.486822
	N228	N	0.410393	0.955633	0.668763
	N229	N	0.586139	0.026683	0.667227
	N230	N	0.587089	0.954498	0.305751
	N231	N	0.411815	0.026738	0.306209
	N232	N	0.682373	0.400884	0.952434
	N233	N	0.679881	0.574760	0.023962
	N234	N	0.319660	0.576425	0.952103
	N235	N	0.318902	0.401535	0.024262
	N236	N	0.964183	0.670307	0.400505
	N237	N	0.036836	0.668914	0.573327
	N238	N	0.963077	0.312407	0.573955
	N239	N	0.036345	0.313653	0.403917
	N240	N	0.965041	0.402102	0.668774
	N241	N	0.035708	0.578203	0.668183
	N242	N	0.965224	0.578625	0.306439
	N243	N	0.035930	0.402857	0.308413
	N244	N	0.412371	0.670771	0.951904
	N245	N	0.587400	0.670017	0.023298
	N246	N	0.587790	0.309029	0.951626
	N247	N	0.415669	0.310982	0.024872
	N248	N	0.678143	0.953921	0.400289
	N249	N	0.675239	0.027969	0.571138
	N250	N	0.320828	0.954312	0.572835
	N251	N	0.321249	0.028215	0.401354
	N252	N	0.912718	0.454074	0.169292
	N253	N	0.089493	0.525239	0.170515
	N254	N	0.087797	0.454726	0.807354
	N255	N	0.911505	0.525063	0.805924
	N256	N	0.181433	0.902642	0.452065
	N257	N	0.180828	0.079347	0.521847
	N258	N	0.817252	0.079012	0.451293
	N259	N	0.817740	0.903298	0.522412
	N260	N	0.463585	0.168610	0.902256
	N261	N	0.537433	0.166404	0.071895
	N262	N	0.463302	0.810513	0.074199
	N263	N	0.536165	0.812137	0.902385
	N264	N	0.464750	0.900754	0.169563
	N265	N	0.534674	0.078431	0.168732
	N266	N	0.464649	0.080194	0.805451
	N267	N	0.534371	0.902160	0.806470
	N268	N	0.910670	0.173158	0.451766
	N269	N	0.084214	0.169807	0.523602
	N270	N	0.087809	0.809864	0.451740
	N271	N	0.912470	0.810463	0.522923
	N272	N	0.177138	0.452706	0.903920
	N273	N	0.179935	0.526420	0.075617
	N274	N	0.823543	0.451883	0.072616
	N275	N	0.822189	0.525813	0.901981
	O276	O	0.522865	0.441883	0.472214
	H277	H	0.527250	0.452672	0.472117
	H278	H	0.508844	0.433979	0.473447
	O279	O	0.660278	0.543355	0.606935
	H280	H	0.666980	0.534191	0.601248
	H281	H	0.657504	0.546461	0.609501
	O282	O	0.343440	0.638178	0.507353
	H283	H	0.343183	0.642222	0.516171
	H284	H	0.340519	0.638681	0.503382
	O285	O	0.809662	0.152709	-0.075023
	H286	H	0.810373	0.122462	-0.061717
	H287	H	0.787062	0.177485	-0.064758
	O288	O	-0.183619	0.156766	0.832939
	H289	H	-0.148702	0.176378	0.827396
	H290	H	-0.185542	0.159985	0.873010
	O291	O	0.458040	0.380297	0.343008
	H292	H	0.452724	0.376043	0.337622
	H293	H	0.463652	0.382755	0.342975
	O294	O	0.428998	0.489696	0.454342
	H295	H	0.429031	0.494725	0.451884
	H296	H	0.424127	0.494295	0.455588
	O297	O	1.132226	1.181146	1.179822
	H298	H	1.138971	1.198869	1.163902
	H299	H	1.131753	1.174580	1.176275
	O300	O	-0.617768	0.333206	0.653603
	H301	H	-0.614169	0.334152	0.666439
	H302	H	-0.628941	0.336899	0.635686
	O303	O	0.472670	0.403999	0.554870
	H304	H	0.464449	0.416658	0.557464
	H305	H	0.491629	0.401219	0.562768
	O306	O	0.849747	-0.013368	-0.223990
	H307	H	0.857659	0.006011	-0.221736
	H308	H	0.839648	-0.001542	-0.245864
	O309	O	0.431716	0.340078	0.538935
	H310	H	0.427336	0.348256	0.523287
	H311	H	0.427701	0.339386	0.517389
	O312	O	0.982061	0.909214	-0.077727
	H313	H	0.978977	0.913920	-0.063875
	H314	H	0.990677	0.903807	-0.093061
	O315	O	0.504078	0.472855	0.360392
	H316	H	0.507140	0.470616	0.366693
	H317	H	0.513033	0.480856	0.360915
	O318	O	0.471792	0.513348	0.559946
	H319	H	0.489723	0.506299	0.570020
	H320	H	0.484193	0.510152	0.558922
	O321	O	1.154448	0.014694	0.975200
	H322	H	1.151334	0.024979	0.970082
	H323	H	1.147842	0.021898	0.964383
	O324	O	0.015935	-0.100068	1.104333
	H325	H	0.034115	-0.093973	1.110900
	H326	H	0.005046	-0.078885	1.109015
	O327	O	0.374716	0.667659	0.329730
	H328	H	0.382618	0.676698	0.341606
	H329	H	0.385938	0.670433	0.335863
	O330	O	0.581025	0.455390	0.627322
	H331	H	0.579377	0.455018	0.612500
	H332	H	0.585006	0.464033	0.629028
	O333	O	0.993895	1.136939	1.189915
	H334	H	1.003042	1.150306	1.202215
	H335	H	0.980589	1.124480	1.180903
	O336	O	0.537755	0.528621	0.416453
	H337	H	0.528055	0.546659	0.427315
	H338	H	0.542074	0.524677	0.428917
	O339	O	0.903925	-0.012748	0.820498
	H340	H	0.921687	0.001436	0.830066
	H341	H	0.888949	-0.008897	0.799492
	O342	O	-0.180583	0.815788	1.161113
	H343	H	-0.170174	0.805031	1.144526
	H344	H	-0.162724	0.806591	1.138176
	O345	O	-0.187055	0.793794	1.003340
	H346	H	-0.201616	0.811253	0.992440
	H347	H	-0.177857	0.788625	0.994704
	O348	O	1.180650	0.812766	0.806503
	H349	H	1.190946	0.801036	0.859444
	H350	H	1.127463	0.799879	0.797025
	O351	O	0.187066	-0.112155	0.047086
	H352	H	0.200954	-0.092826	0.069392
	H353	H	0.195202	-0.106162	0.033861
	O354	O	1.056110	1.140275	-0.024768
	H355	H	1.051844	1.149100	-0.017432
	H356	H	1.048908	1.147201	-0.048526
	O357	O	0.032654	0.787196	0.053361
	H358	H	0.034737	0.790153	0.064241
	H359	H	0.019277	0.787541	0.081870
	O360	O	0.480482	0.626225	0.638483
	H361	H	0.476974	0.628775	0.647406
	H362	H	0.497653	0.628699	0.647949
	O363	O	0.654898	0.587533	0.477948
	H364	H	0.667191	0.589276	0.474905
	H365	H	0.629398	0.589697	0.474032
	O366	O	1.019111	0.783077	0.810173
	H367	H	1.007555	0.771753	0.800584
	H368	H	1.002074	0.777188	0.820340
	O369	O	0.493916	0.577715	0.638826
	H370	H	0.504326	0.584684	0.642686
	H371	H	0.504828	0.595156	0.649714
	O372	O	0.099509	1.066872	-0.075084
	H373	H	0.109301	1.066959	-0.088044
	H374	H	0.096969	1.050916	-0.074308
	O375	O	0.616867	0.679642	0.485713
	H376	H	0.618948	0.675073	0.492903
	H377	H	0.608569	0.679431	0.488742
	O378	O	0.478902	0.587967	0.315330
	H379	H	0.476921	0.592225	0.326480
	H380	H	0.486574	0.587159	0.307004
	O381	O	0.656566	0.349503	0.424070
	H382	H	0.674471	0.338232	0.424253
	H383	H	0.650933	0.352298	0.407473
	O384	O	-0.203637	0.973275	1.194220
	H385	H	-0.217291	0.944848	1.204753
	H386	H	-0.206700	0.947544	1.196351
	O387	O	1.111687	0.840949	-0.025855
	H388	H	1.128485	0.837990	-0.024276
	H389	H	1.099995	0.843236	0.003407
	O390	O	0.218500	-0.030715	0.766032
	H391	H	0.258119	-0.037676	0.729678
	H392	H	0.203188	-0.082452	0.778033
	O393	O	1.529018	0.460894	1.397161
	H394	H	1.521430	0.456575	1.410006
	H395	H	1.524194	0.474614	1.397859
	O396	O	-0.019741	1.186594	0.793971
	H397	H	-0.002938	1.173456	0.780274
	H398	H	-0.006282	1.198049	0.777951
	O399	O	0.389520	0.503862	0.454998
	H400	H	0.387737	0.493750	0.450976
	H401	H	0.385059	0.502767	0.466387
	O402	O	1.092449	0.096957	0.832914
	H403	H	1.082198	0.081960	0.848491
	H404	H	1.121544	0.073871	0.820205
	O405	O	0.005575	-0.004214	0.176478
	H406	H	-0.004813	0.002498	0.190953
	H407	H	0.001009	-0.001544	0.161878
	O408	O	0.979428	0.793036	1.175092
	H409	H	0.979626	0.804576	1.193064
	H410	H	0.988260	0.789869	1.203494
	O411	O	0.790920	0.986843	-0.030072
	H412	H	0.803373	0.988775	-0.033436
	H413	H	0.786613	0.988252	-0.030359
	O414	O	-0.124175	0.139370	1.047725
	H415	H	-0.135867	0.134098	1.059961
	H416	H	-0.114735	0.139800	1.052260
	O417	O	0.523693	0.400724	0.560969
	H418	H	0.534465	0.388874	0.562518
	H419	H	0.530365	0.398419	0.552768
	O420	O	0.182399	1.183743	0.051968
	H421	H	0.171407	1.174307	0.038104
	H422	H	0.183268	1.199089	0.025863
	O423	O	1.213442	0.012527	0.207067
	H424	H	1.224149	0.041736	0.212953
	H425	H	1.226251	0.004313	0.217831
	O426	O	-0.219893	-0.237538	0.740197
	H427	H	-0.211295	-0.242341	0.750484
	H428	H	-0.220824	-0.229720	0.734240
	O429	O	0.494890	0.426415	0.366006
	H430	H	0.489093	0.436511	0.354471
	H431	H	0.478710	0.434950	0.368980
