data_Molecule from HDF5

_cell_length_a		16.145310
_cell_length_b		16.370783
_cell_length_c		16.247502
_cell_angle_alpha	90.453019
_cell_angle_beta	89.702780
_cell_angle_gamma	89.643755
_symmetry_space_group_name_H-M	'P 1'
_symmetry_Int_Tables_number		1

loop_
	_symmetry_equiv_pos_as_xyz
	x,y,z

loop_
	_atom_site_label
	_atom_site_type_symbol
	_atom_site_fract_x
	_atom_site_fract_y
	_atom_site_fract_z
	H0	H	0.399437	0.830010	0.717120
	H1	H	0.596796	0.155580	0.718211
	H2	H	0.599747	0.830625	0.283561
	H3	H	0.397816	0.156300	0.288780
	H4	H	0.714175	0.392900	0.837530
	H5	H	0.708692	0.590214	0.165986
	H6	H	0.283884	0.590731	0.837268
	H7	H	0.285153	0.399084	0.166370
	H8	H	0.833729	0.709018	0.401028
	H9	H	0.162199	0.706666	0.600050
	H10	H	0.833596	0.278035	0.603068
	H11	H	0.160408	0.272526	0.396138
	H12	H	0.833476	0.395773	0.716928
	H13	H	0.162382	0.591221	0.714025
	H14	H	0.831399	0.588658	0.291010
	H15	H	0.161550	0.390747	0.284450
	H16	H	0.399172	0.707497	0.837204
	H17	H	0.599401	0.710499	0.163259
	H18	H	0.601439	0.274564	0.839438
	H19	H	0.397431	0.279745	0.165195
	H20	H	0.714543	0.829768	0.401201
	H21	H	0.710862	0.156691	0.599281
	H22	H	0.284547	0.829069	0.599547
	H23	H	0.281109	0.155289	0.405291
	H24	H	0.898508	0.330258	0.215038
	H25	H	0.096606	0.654333	0.219442
	H26	H	0.101958	0.331193	0.780562
	H27	H	0.897876	0.656446	0.787299
	H28	H	0.214890	0.891378	0.337962
	H29	H	0.208500	0.091062	0.666176
	H30	H	0.784202	0.090045	0.337033
	H31	H	0.782897	0.896510	0.664946
	H32	H	0.334245	0.209948	0.903194
	H33	H	0.663112	0.207767	0.102207
	H34	H	0.334408	0.779073	0.101871
	H35	H	0.662915	0.775305	0.898923
	H36	H	0.333714	0.895558	0.215976
	H37	H	0.662847	0.091533	0.215770
	H38	H	0.331977	0.090553	0.791091
	H39	H	0.662835	0.891677	0.784928
	H40	H	0.895108	0.209364	0.338314
	H41	H	0.099639	0.211710	0.662679
	H42	H	0.101167	0.773735	0.338560
	H43	H	0.895423	0.778205	0.664307
	H44	H	0.217002	0.330594	0.899030
	H45	H	0.210052	0.656563	0.100654
	H46	H	0.785332	0.330323	0.097792
	H47	H	0.782554	0.656421	0.905390
	H48	H	0.410064	0.107732	0.599597
	H49	H	0.592758	0.875439	0.597172
	H50	H	0.589993	0.111174	0.399462
	H51	H	0.409911	0.876950	0.404832
	H52	H	0.594178	0.403961	0.118413
	H53	H	0.586256	0.584221	0.885091
	H54	H	0.410342	0.587229	0.114994
	H55	H	0.416577	0.393313	0.885792
	H56	H	0.117288	0.587444	0.405986
	H57	H	0.878612	0.597141	0.589319
	H58	H	0.113833	0.401330	0.590611
	H59	H	0.882773	0.408871	0.408507
	H60	H	0.115446	0.399162	0.588982
	H61	H	0.884838	0.577924	0.587322
	H62	H	0.113929	0.585260	0.415017
	H63	H	0.876163	0.395685	0.401424
	H64	H	0.403668	0.594120	0.120094
	H65	H	0.591935	0.587538	0.883072
	H66	H	0.586697	0.399783	0.117690
	H67	H	0.399281	0.396921	0.882442
	H68	H	0.582188	0.104307	0.413480
	H69	H	0.585581	0.879572	0.592253
	H70	H	0.402451	0.106388	0.590025
	H71	H	0.408380	0.878565	0.410363
	H72	H	0.905752	0.608462	0.096291
	H73	H	0.084842	0.378421	0.095105
	H74	H	0.095260	0.610021	0.907464
	H75	H	0.894909	0.374124	0.908012
	H76	H	0.097233	0.898411	0.620211
	H77	H	0.082913	0.085427	0.385880
	H78	H	0.909697	0.088402	0.615789
	H79	H	0.907859	0.893624	0.382941
	H80	H	0.613251	0.077198	0.909784
	H81	H	0.377195	0.091311	0.101755
	H82	H	0.611740	0.909133	0.087281
	H83	H	0.380672	0.900056	0.908832
	H84	H	0.618652	0.900422	0.099586
	H85	H	0.381638	0.092425	0.088122
	H86	H	0.618436	0.087471	0.902648
	H87	H	0.381291	0.899049	0.911497
	H88	H	0.903879	0.089800	0.619380
	H89	H	0.093893	0.086027	0.382375
	H90	H	0.086723	0.905383	0.615356
	H91	H	0.902554	0.901345	0.383839
	H92	H	0.086628	0.608485	0.904540
	H93	H	0.091763	0.379665	0.085442
	H94	H	0.901128	0.609972	0.095857
	H95	H	0.914974	0.376469	0.895573
	H96	H	0.398065	0.111151	0.600449
	H97	H	0.593854	0.877712	0.588296
	H98	H	0.598689	0.109705	0.414465
	H99	H	0.403971	0.876970	0.406933
	H100	H	0.593688	0.395432	0.119961
	H101	H	0.593069	0.580617	0.885057
	H102	H	0.400251	0.584050	0.117964
	H103	H	0.410746	0.409140	0.888057
	H104	H	0.113661	0.577788	0.407089
	H105	H	0.876717	0.585550	0.605423
	H106	H	0.112828	0.401390	0.587938
	H107	H	0.880773	0.394793	0.416299
	H108	H	0.903679	0.610488	0.100387
	H109	H	0.096414	0.374600	0.095314
	H110	H	0.088913	0.606231	0.913403
	H111	H	0.913983	0.383006	0.918865
	H112	H	0.084732	0.892904	0.618266
	H113	H	0.089899	0.075741	0.386974
	H114	H	0.904571	0.083594	0.616693
	H115	H	0.911941	0.901202	0.386840
	H116	H	0.614830	0.089370	0.915872
	H117	H	0.383238	0.080029	0.094889
	H118	H	0.615265	0.893000	0.084979
	H119	H	0.382286	0.901869	0.910411
	C120	C	0.375577	0.000902	0.624641
	C121	C	0.619469	0.984827	0.622639
	C122	C	0.620843	0.001421	0.378838
	C123	C	0.376496	0.984591	0.379613
	C124	C	0.621093	0.370237	0.010680
	C125	C	0.619064	0.613520	0.992446
	C126	C	0.376241	0.615985	0.009474
	C127	C	0.378416	0.372388	0.993481
	C128	C	0.005973	0.612744	0.380718
	C129	C	0.988915	0.615155	0.622554
	C130	C	0.005876	0.371966	0.620691
	C131	C	0.988364	0.369515	0.378554
	C132	C	0.875603	0.501611	0.124321
	C133	C	0.119287	0.484675	0.122660
	C134	C	0.121047	0.501366	0.878065
	C135	C	0.877528	0.485309	0.879577
	C136	C	0.119821	0.869595	0.509750
	C137	C	0.118667	0.113281	0.492635
	C138	C	0.876135	0.115255	0.509394
	C139	C	0.877200	0.871177	0.492659
	C140	C	0.506603	0.114086	0.881027
	C141	C	0.489779	0.115691	0.123722
	C142	C	0.506762	0.872172	0.121473
	C143	C	0.489933	0.870422	0.879630
	C144	C	0.378570	0.878597	0.679258
	C145	C	0.617249	0.107139	0.679635
	C146	C	0.619584	0.878995	0.322096
	C147	C	0.377302	0.107267	0.325740
	C148	C	0.676982	0.372082	0.887200
	C149	C	0.672507	0.611199	0.116371
	C150	C	0.321464	0.612141	0.886143
	C151	C	0.322680	0.377262	0.117164
	C152	C	0.882265	0.669578	0.382281
	C153	C	0.112832	0.669385	0.620486
	C154	C	0.882517	0.316638	0.621558
	C155	C	0.111807	0.312007	0.378077
	C156	C	0.882620	0.374788	0.678441
	C157	C	0.113007	0.611804	0.676918
	C158	C	0.881188	0.609774	0.327403
	C159	C	0.112264	0.370559	0.322166
	C160	C	0.378510	0.670371	0.886324
	C161	C	0.618347	0.671112	0.114948
	C162	C	0.620677	0.313315	0.887893
	C163	C	0.378230	0.317855	0.116573
	C164	C	0.677107	0.878901	0.380316
	C165	C	0.673954	0.107630	0.620524
	C166	C	0.321755	0.878059	0.620566
	C167	C	0.319191	0.106644	0.383730
	C168	C	0.878547	0.379080	0.177830
	C169	C	0.116726	0.606164	0.180322
	C170	C	0.121177	0.379493	0.820058
	C171	C	0.878345	0.608061	0.825246
	C172	C	0.176929	0.870959	0.387064
	C173	C	0.172483	0.111665	0.616331
	C174	C	0.821223	0.111223	0.386121
	C175	C	0.820747	0.875369	0.615915
	C176	C	0.383126	0.171071	0.883086
	C177	C	0.613628	0.170253	0.121787
	C178	C	0.383467	0.817097	0.121252
	C179	C	0.613725	0.813796	0.879588
	C180	C	0.383049	0.875211	0.177965
	C181	C	0.613606	0.112523	0.178341
	C182	C	0.381912	0.111728	0.827407
	C183	C	0.613703	0.871627	0.822924
	C184	C	0.876204	0.170762	0.386803
	C185	C	0.118187	0.171851	0.614529
	C186	C	0.120188	0.812504	0.387313
	C187	C	0.876882	0.816600	0.615500
	C188	C	0.178404	0.379141	0.879016
	C189	C	0.173175	0.607430	0.121056
	C190	C	0.822125	0.379014	0.119257
	C191	C	0.820833	0.607854	0.883704
	C192	C	0.397152	0.086290	0.602969
	C193	C	0.597345	0.899777	0.599506
	C194	C	0.597026	0.086354	0.402127
	C195	C	0.400405	0.899466	0.400806
	C196	C	0.598293	0.393130	0.096592
	C197	C	0.596929	0.590809	0.906628
	C198	C	0.398366	0.594809	0.095373
	C199	C	0.401906	0.393491	0.907787
	C200	C	0.092292	0.590090	0.402795
	C201	C	0.902430	0.593267	0.600545
	C202	C	0.091831	0.394209	0.596183
	C203	C	0.902291	0.392748	0.401965
	C204	C	0.897245	0.587505	0.103675
	C205	C	0.097543	0.399509	0.098762
	C206	C	0.097335	0.586256	0.901477
	C207	C	0.901103	0.400173	0.901078
	C208	C	0.096378	0.892388	0.595579
	C209	C	0.095611	0.089269	0.407220
	C210	C	0.899207	0.093681	0.595036
	C211	C	0.900688	0.892488	0.406793
	C212	C	0.593052	0.091238	0.902875
	C213	C	0.403110	0.094232	0.101430
	C214	C	0.592857	0.894413	0.097617
	C215	C	0.403973	0.893599	0.903362
	Zn216	Zn	0.497987	-0.007337	0.752645
	Zn217	Zn	0.498898	-0.006656	0.250111
	Zn218	Zn	0.747900	0.493311	0.001476
	Zn219	Zn	0.249152	0.493204	0.001466
	Zn220	Zn	-0.002306	0.741608	0.501469
	Zn221	Zn	-0.002521	0.242620	0.500259
	Zn222	Zn	-0.001726	0.493587	0.749182
	Zn223	Zn	-0.002413	0.492082	0.252321
	Zn224	Zn	0.498792	0.743078	0.000914
	Zn225	Zn	0.498805	0.242554	0.002384
	Zn226	Zn	0.749205	-0.006980	0.501179
	Zn227	Zn	0.247322	-0.008019	0.501945
	N228	N	0.411061	0.956107	0.682229
	N229	N	0.584271	0.029926	0.681264
	N230	N	0.585554	0.956248	0.320845
	N231	N	0.412097	0.030343	0.322890
	N232	N	0.677253	0.406917	0.964411
	N233	N	0.673231	0.576076	0.039263
	N234	N	0.319619	0.579393	0.963784
	N235	N	0.322612	0.410410	0.039648
	N236	N	0.960954	0.671861	0.414340
	N237	N	0.034558	0.671798	0.587622
	N238	N	0.960416	0.314696	0.586393
	N239	N	0.033761	0.311073	0.412356
	N240	N	0.960399	0.408343	0.678028
	N241	N	0.034845	0.578861	0.678340
	N242	N	0.959010	0.575024	0.326409
	N243	N	0.034582	0.405557	0.322292
	N244	N	0.411718	0.672815	0.964061
	N245	N	0.585713	0.672661	0.036927
	N246	N	0.586598	0.312057	0.965672
	N247	N	0.412283	0.314773	0.038807
	N248	N	0.677925	0.955875	0.414702
	N249	N	0.675370	0.030587	0.585727
	N250	N	0.319779	0.955112	0.587469
	N251	N	0.318746	0.029436	0.416524
	N252	N	0.911062	0.456387	0.181121
	N253	N	0.083973	0.528910	0.181169
	N254	N	0.086225	0.456366	0.819448
	N255	N	0.912778	0.530905	0.822509
	N256	N	0.176804	0.905751	0.464194
	N257	N	0.172965	0.075839	0.539423
	N258	N	0.820831	0.077656	0.463511
	N259	N	0.821031	0.908773	0.538634
	N260	N	0.461619	0.172545	0.915643
	N261	N	0.535277	0.172524	0.088728
	N262	N	0.461378	0.815337	0.086643
	N263	N	0.535771	0.812764	0.913989
	N264	N	0.460905	0.908846	0.178142
	N265	N	0.535603	0.079444	0.179882
	N266	N	0.459856	0.077139	0.825782
	N267	N	0.535644	0.906049	0.822586
	N268	N	0.909702	0.173279	0.464420
	N269	N	0.085373	0.172990	0.536632
	N270	N	0.085325	0.811573	0.464755
	N271	N	0.911232	0.813769	0.537759
	N272	N	0.178538	0.455850	0.914421
	N273	N	0.175005	0.530649	0.085828
	N274	N	0.820241	0.456339	0.086669
	N275	N	0.820257	0.530782	0.916759
	O276	O	0.453172	0.444121	0.490045
	H277	H	0.445709	0.438833	0.491532
	H278	H	0.455460	0.437279	0.482444
	O279	O	0.518211	0.548155	0.469640
	H280	H	0.524240	0.560420	0.474821
	H281	H	0.529003	0.544310	0.466985
	O282	O	0.972256	1.016512	0.100420
	H283	H	0.972967	1.018858	0.090828
	H284	H	0.983080	1.016334	0.112730
	O285	O	0.990329	0.064777	0.976322
	H286	H	0.988154	0.072730	0.972466
	H287	H	0.968122	0.064307	0.978770
	O288	O	0.507978	0.532545	0.477669
	H289	H	0.509643	0.542509	0.480016
	H290	H	0.506711	0.530073	0.478221
	O291	O	0.438620	0.537855	0.549835
	H292	H	0.446860	0.534131	0.549787
	H293	H	0.434218	0.537991	0.561005
	O294	O	0.559093	0.489622	0.551480
	H295	H	0.560754	0.487650	0.549032
	H296	H	0.559879	0.487903	0.551382
	O297	O	0.048530	-0.012755	1.023581
	H298	H	0.044243	-0.011903	1.021340
	H299	H	0.054642	-0.004605	1.037493
	O300	O	0.545211	0.539092	0.584081
	H301	H	0.540906	0.539561	0.591534
	H302	H	0.548523	0.532916	0.585235
	O303	O	1.102511	0.927475	-0.053926
	H304	H	1.086289	0.926282	-0.069509
	H305	H	1.112474	0.909585	-0.061806
	O306	O	0.020978	0.907944	0.962971
	H307	H	0.029923	0.898325	0.965834
	H308	H	0.023272	0.906806	0.986507
	O309	O	0.518012	0.526817	0.430073
	H310	H	0.520143	0.517006	0.435286
	H311	H	0.520640	0.532917	0.432376
	O312	O	0.014193	0.065188	-0.014179
	H313	H	0.020790	0.055650	-0.016988
	H314	H	0.017996	0.075234	-0.023496
	O315	O	0.948153	0.068538	0.024666
	H316	H	0.947359	0.062096	0.013595
	H317	H	0.943067	0.057779	0.020959
	O318	O	1.125110	1.080320	1.059724
	H319	H	1.123351	1.079639	1.058828
	H320	H	1.124141	1.087752	1.048011
	O321	O	-0.064466	0.072505	0.845484
	H322	H	-0.074057	0.087066	0.838480
	H323	H	-0.074092	0.076654	0.838255
	O324	O	0.492713	0.390932	0.535995
	H325	H	0.493517	0.386628	0.533153
	H326	H	0.487300	0.392450	0.543632
	O327	O	-0.001489	-0.022579	-0.025613
	H328	H	-0.000038	-0.024853	-0.026664
	H329	H	0.002572	-0.022139	-0.038561
	O330	O	0.538128	0.598457	0.515239
	H331	H	0.533555	0.591584	0.508172
	H332	H	0.539076	0.591986	0.506824
	O333	O	-0.117242	0.905451	0.958046
	H334	H	-0.113073	0.898719	0.965373
	H335	H	-0.118334	0.904884	0.972590
	O336	O	-0.107396	0.033531	0.024958
	H337	H	-0.106745	0.043375	0.039618
	H338	H	-0.116487	0.020667	0.034086
	O339	O	0.443039	0.490565	0.413802
	H340	H	0.457165	0.479793	0.410491
	H341	H	0.442880	0.475392	0.408823
	O342	O	1.065617	0.933954	0.862927
	H343	H	1.049323	0.926141	0.872289
	H344	H	1.069237	0.925574	0.854797
	O345	O	1.086215	2.082080	-0.007083
	H346	H	1.085606	2.081067	-0.011687
	H347	H	1.085268	2.077222	-0.022187
	O348	O	0.487870	0.414325	0.475877
	H349	H	0.493568	0.411791	0.471608
	H350	H	0.498567	0.407104	0.482236
	O351	O	0.512974	0.463877	0.572422
	H352	H	0.514687	0.463616	0.570771
	H353	H	0.507986	0.463835	0.573860
	O354	O	0.375067	0.535889	0.561031
	H355	H	0.389545	0.542937	0.555212
	H356	H	0.373253	0.542559	0.548268
	O357	O	0.912904	0.067102	0.921072
	H358	H	0.910337	0.063080	0.929855
	H359	H	0.930312	0.065180	0.930917
	O360	O	0.495676	0.420124	0.469402
	H361	H	0.494180	0.422393	0.465470
	H362	H	0.493892	0.420109	0.463545
	O363	O	0.409003	0.384305	0.609959
	H364	H	0.401585	0.390003	0.620918
	H365	H	0.407118	0.383998	0.613806
	O366	O	0.975970	1.028845	1.111818
	H367	H	0.978830	1.031305	1.114427
	H368	H	0.986000	1.039215	1.101979
	O369	O	0.996164	-0.034391	1.120078
	H370	H	1.004028	-0.041310	1.117552
	H371	H	1.001947	-0.025459	1.103158
	O372	O	0.150096	-0.026012	0.064599
	H373	H	0.163226	-0.034729	0.079052
	H374	H	0.145999	-0.019099	0.053083
	O375	O	0.937232	-0.101843	0.064737
	H376	H	0.931976	-0.100137	0.084518
	H377	H	0.942454	-0.106920	0.066599
	O378	O	0.486481	0.496810	0.528943
	H379	H	0.475264	0.492137	0.525193
	H380	H	0.478959	0.499401	0.530906
	O381	O	1.042073	0.848993	-0.026336
	H382	H	1.053162	0.856941	-0.019294
	H383	H	1.047960	0.835494	-0.038110
