data_Molecule from HDF5

_cell_length_a		16.728065
_cell_length_b		16.566438
_cell_length_c		16.602864
_cell_angle_alpha	89.814508
_cell_angle_beta	89.834079
_cell_angle_gamma	90.229152
_symmetry_space_group_name_H-M	'P 1'
_symmetry_Int_Tables_number		1

loop_
	_symmetry_equiv_pos_as_xyz
	x,y,z

loop_
	_atom_site_label
	_atom_site_type_symbol
	_atom_site_fract_x
	_atom_site_fract_y
	_atom_site_fract_z
	H0	H	0.395701	0.841254	0.716045
	H1	H	0.610911	0.150854	0.715758
	H2	H	0.603681	0.838170	0.279161
	H3	H	0.402052	0.153595	0.273765
	H4	H	0.725938	0.391858	0.838239
	H5	H	0.725428	0.601823	0.150248
	H6	H	0.285250	0.599709	0.837804
	H7	H	0.281904	0.387921	0.148939
	H8	H	0.850177	0.719349	0.388831
	H9	H	0.156944	0.721795	0.600460
	H10	H	0.851178	0.272569	0.600962
	H11	H	0.156513	0.273632	0.386466
	H12	H	0.851744	0.388479	0.718289
	H13	H	0.157328	0.605617	0.717596
	H14	H	0.849809	0.602531	0.272227
	H15	H	0.158828	0.392989	0.272640
	H16	H	0.401316	0.716267	0.837838
	H17	H	0.606753	0.714189	0.151405
	H18	H	0.608068	0.277556	0.836603
	H19	H	0.401562	0.275995	0.149780
	H20	H	0.722021	0.839267	0.392215
	H21	H	0.727745	0.150503	0.600371
	H22	H	0.279245	0.842975	0.602295
	H23	H	0.281645	0.151292	0.385940
	H24	H	0.902209	0.339445	0.212227
	H25	H	0.106470	0.653831	0.210337
	H26	H	0.110156	0.340932	0.771968
	H27	H	0.901438	0.651980	0.773136
	H28	H	0.231016	0.886631	0.341771
	H29	H	0.230325	0.107724	0.646016
	H30	H	0.780911	0.104963	0.340667
	H31	H	0.780988	0.888618	0.649398
	H32	H	0.349377	0.218144	0.888446
	H33	H	0.660307	0.216497	0.095268
	H34	H	0.347548	0.779882	0.094914
	H35	H	0.658114	0.775231	0.889541
	H36	H	0.348180	0.895638	0.211846
	H37	H	0.660649	0.100841	0.212709
	H38	H	0.350088	0.103156	0.770386
	H39	H	0.657718	0.890745	0.771140
	H40	H	0.897597	0.220417	0.339921
	H41	H	0.112982	0.221277	0.647518
	H42	H	0.112234	0.773497	0.340925
	H43	H	0.896448	0.773099	0.648454
	H44	H	0.224434	0.340251	0.888653
	H45	H	0.223852	0.652997	0.096354
	H46	H	0.784246	0.340167	0.098894
	H47	H	0.785115	0.652309	0.888527
	H48	H	0.420605	0.105740	0.578397
	H49	H	0.592868	0.882897	0.585592
	H50	H	0.597482	0.110870	0.402768
	H51	H	0.409242	0.883585	0.406896
	H52	H	0.593023	0.407570	0.104844
	H53	H	0.595740	0.586843	0.882388
	H54	H	0.411101	0.584281	0.106385
	H55	H	0.423309	0.407589	0.885008
	H56	H	0.112649	0.583766	0.403810
	H57	H	0.895437	0.583690	0.579621
	H58	H	0.113370	0.413146	0.582181
	H59	H	0.893234	0.407946	0.405947
	H60	H	0.116700	0.408379	0.585127
	H61	H	0.895241	0.580249	0.583729
	H62	H	0.116619	0.587618	0.399712
	H63	H	0.893523	0.409282	0.404368
	H64	H	0.414836	0.583890	0.105799
	H65	H	0.595640	0.583496	0.883310
	H66	H	0.593418	0.404366	0.105779
	H67	H	0.410005	0.401233	0.877550
	H68	H	0.592798	0.109219	0.402001
	H69	H	0.587848	0.885602	0.582133
	H70	H	0.415611	0.107548	0.578610
	H71	H	0.416194	0.883973	0.399954
	H72	H	0.917356	0.609296	0.085386
	H73	H	0.095665	0.384000	0.079787
	H74	H	0.097735	0.610656	0.901489
	H75	H	0.914287	0.384394	0.908361
	H76	H	0.094626	0.909140	0.605986
	H77	H	0.093767	0.084908	0.382759
	H78	H	0.920435	0.084277	0.603824
	H79	H	0.914271	0.909216	0.382901
	H80	H	0.612833	0.081938	0.904067
	H81	H	0.394164	0.088380	0.080194
	H82	H	0.616108	0.904220	0.085074
	H83	H	0.393041	0.901794	0.909857
	H84	H	0.617932	0.905498	0.088406
	H85	H	0.394672	0.080639	0.084538
	H86	H	0.615211	0.085901	0.902579
	H87	H	0.395585	0.913373	0.907196
	H88	H	0.913755	0.086747	0.607550
	H89	H	0.091157	0.081220	0.384099
	H90	H	0.090407	0.917392	0.601526
	H91	H	0.912975	0.905424	0.381360
	H92	H	0.087112	0.605979	0.904444
	H93	H	0.096463	0.381690	0.086744
	H94	H	0.913196	0.609028	0.079273
	H95	H	0.914080	0.382725	0.905246
	H96	H	0.418451	0.108483	0.583043
	H97	H	0.594254	0.884961	0.579008
	H98	H	0.595276	0.108453	0.406405
	H99	H	0.418022	0.886753	0.409129
	H100	H	0.595667	0.407363	0.106295
	H101	H	0.592656	0.585431	0.883098
	H102	H	0.413599	0.587443	0.107042
	H103	H	0.409940	0.417334	0.883485
	H104	H	0.114284	0.589567	0.405489
	H105	H	0.893072	0.585103	0.584039
	H106	H	0.114992	0.407159	0.578865
	H107	H	0.892524	0.408029	0.404403
	H108	H	0.909957	0.610632	0.085838
	H109	H	0.089681	0.384516	0.084805
	H110	H	0.096470	0.605975	0.912515
	H111	H	0.916635	0.384966	0.906155
	H112	H	0.084643	0.908884	0.602679
	H113	H	0.089127	0.085480	0.384119
	H114	H	0.913722	0.079273	0.605280
	H115	H	0.910563	0.909150	0.380677
	H116	H	0.613746	0.085509	0.906984
	H117	H	0.391395	0.087885	0.088381
	H118	H	0.618788	0.901937	0.087034
	H119	H	0.390373	0.906291	0.899140
	C120	C	0.383288	0.005213	0.614449
	C121	C	0.624791	0.987224	0.614976
	C122	C	0.625688	0.005228	0.373321
	C123	C	0.382689	0.987904	0.372439
	C124	C	0.625706	0.375119	0.002250
	C125	C	0.625586	0.617212	0.986378
	C126	C	0.382726	0.616988	0.002679
	C127	C	0.382614	0.375099	0.984969
	C128	C	0.012580	0.619348	0.371401
	C129	C	0.996019	0.617416	0.615353
	C130	C	0.013261	0.375374	0.615401
	C131	C	0.995161	0.376163	0.372558
	C132	C	0.882458	0.505863	0.115427
	C133	C	0.125331	0.487451	0.114647
	C134	C	0.125542	0.504544	0.872902
	C135	C	0.884015	0.487466	0.873829
	C136	C	0.124265	0.877219	0.502200
	C137	C	0.125839	0.118290	0.485112
	C138	C	0.882951	0.117162	0.503350
	C139	C	0.881298	0.874721	0.485030
	C140	C	0.511789	0.117500	0.872171
	C141	C	0.496239	0.117345	0.115291
	C142	C	0.513401	0.874437	0.116367
	C143	C	0.495370	0.875224	0.873125
	C144	C	0.378464	0.888483	0.676195
	C145	C	0.628435	0.104358	0.675432
	C146	C	0.624360	0.885942	0.317107
	C147	C	0.381912	0.106087	0.312669
	C148	C	0.685195	0.373814	0.884721
	C149	C	0.685020	0.619561	0.103581
	C150	C	0.324551	0.618572	0.884832
	C151	C	0.322397	0.370985	0.102057
	C152	C	0.896343	0.679064	0.369854
	C153	C	0.111043	0.680353	0.618476
	C154	C	0.897573	0.313217	0.619381
	C155	C	0.110839	0.315013	0.369084
	C156	C	0.897762	0.370711	0.677638
	C157	C	0.111285	0.622500	0.676649
	C158	C	0.896288	0.621255	0.311873
	C159	C	0.111851	0.374135	0.312312
	C160	C	0.382368	0.676374	0.884886
	C161	C	0.626213	0.675776	0.104071
	C162	C	0.626686	0.316942	0.883984
	C163	C	0.381699	0.315132	0.102575
	C164	C	0.683072	0.886531	0.373182
	C165	C	0.686677	0.103909	0.618426
	C166	C	0.320661	0.889075	0.619223
	C167	C	0.322698	0.105202	0.368779
	C168	C	0.882503	0.387090	0.173539
	C169	C	0.125809	0.606419	0.171723
	C170	C	0.127844	0.387513	0.812419
	C171	C	0.883005	0.605091	0.813585
	C172	C	0.188579	0.870708	0.387476
	C173	C	0.188807	0.124145	0.600158
	C174	C	0.821603	0.122191	0.387034
	C175	C	0.820885	0.870866	0.602190
	C176	C	0.395899	0.178339	0.869646
	C177	C	0.613535	0.176629	0.114727
	C178	C	0.394961	0.818255	0.114912
	C179	C	0.611879	0.815328	0.870812
	C180	C	0.395261	0.875815	0.173056
	C181	C	0.613672	0.119062	0.173187
	C182	C	0.396319	0.120970	0.811114
	C183	C	0.611542	0.872727	0.812122
	C184	C	0.879442	0.179678	0.386770
	C185	C	0.130506	0.180862	0.600800
	C186	C	0.129547	0.814429	0.386927
	C187	C	0.878564	0.813654	0.601863
	C188	C	0.184784	0.387138	0.870414
	C189	C	0.184292	0.605810	0.115215
	C190	C	0.824079	0.387289	0.117044
	C191	C	0.824982	0.605295	0.870732
	C192	C	0.410270	0.086229	0.587520
	C193	C	0.599061	0.905762	0.589576
	C194	C	0.602105	0.087899	0.397048
	C195	C	0.407459	0.906197	0.397893
	C196	C	0.601037	0.399529	0.084376
	C197	C	0.601563	0.592310	0.904196
	C198	C	0.406387	0.592246	0.085066
	C199	C	0.407592	0.401106	0.903342
	C200	C	0.093446	0.594374	0.395974
	C201	C	0.915657	0.590698	0.589650
	C202	C	0.094035	0.402019	0.589529
	C203	C	0.914260	0.401271	0.397714
	C204	C	0.906642	0.588236	0.090638
	C205	C	0.100940	0.404976	0.090796
	C206	C	0.100763	0.586205	0.898698
	C207	C	0.908057	0.405464	0.899370
	C208	C	0.097441	0.904329	0.582337
	C209	C	0.099027	0.091251	0.404508
	C210	C	0.908582	0.090943	0.584375
	C211	C	0.905915	0.900508	0.402888
	C212	C	0.592791	0.091928	0.897553
	C213	C	0.414513	0.092636	0.091422
	C214	C	0.596120	0.897302	0.093564
	C215	C	0.414354	0.899947	0.898125
	Zn216	Zn	0.503460	-0.003658	0.742991
	Zn217	Zn	0.504967	-0.003543	0.245109
	Zn218	Zn	0.754616	0.496707	-0.006006
	Zn219	Zn	0.253891	0.495603	-0.006200
	Zn220	Zn	0.003472	0.747812	0.493915
	Zn221	Zn	0.004038	0.246113	0.494020
	Zn222	Zn	0.004955	0.496076	0.744774
	Zn223	Zn	0.003964	0.497076	0.242693
	Zn224	Zn	0.504410	0.745544	-0.005144
	Zn225	Zn	0.503894	0.246847	-0.006652
	Zn226	Zn	0.753915	-0.004034	0.494422
	Zn227	Zn	0.254449	-0.002743	0.494045
	N228	N	0.416888	0.961826	0.673296
	N229	N	0.590800	0.030598	0.673649
	N230	N	0.589499	0.960970	0.316700
	N231	N	0.418517	0.032101	0.314829
	N232	N	0.685020	0.408866	0.959454
	N233	N	0.684801	0.583650	0.029201
	N234	N	0.324595	0.582259	0.959212
	N235	N	0.322774	0.407480	0.027767
	N236	N	0.969698	0.678198	0.405982
	N237	N	0.038355	0.677191	0.580825
	N238	N	0.970580	0.315760	0.581608
	N239	N	0.037267	0.315907	0.405779
	N240	N	0.970820	0.408514	0.675366
	N241	N	0.038822	0.583699	0.674703
	N242	N	0.969692	0.584898	0.312385
	N243	N	0.038962	0.411601	0.314327
	N244	N	0.417803	0.675636	0.959328
	N245	N	0.590012	0.674622	0.029944
	N246	N	0.590304	0.317369	0.958252
	N247	N	0.418514	0.317480	0.028654
	N248	N	0.684393	0.962001	0.407102
	N249	N	0.684700	0.029899	0.581702
	N250	N	0.323452	0.962767	0.581484
	N251	N	0.322943	0.030680	0.405137
	N252	N	0.917979	0.461920	0.172906
	N253	N	0.090067	0.531724	0.171846
	N254	N	0.091907	0.461579	0.813870
	N255	N	0.918871	0.530693	0.815113
	N256	N	0.185447	0.909366	0.460100
	N257	N	0.186073	0.085903	0.526996
	N258	N	0.823610	0.083921	0.460423
	N259	N	0.822308	0.908163	0.528327
	N260	N	0.468945	0.176211	0.906975
	N261	N	0.539351	0.175978	0.079493
	N262	N	0.469711	0.816956	0.080651
	N263	N	0.538594	0.816573	0.908041
	N264	N	0.470103	0.909827	0.174353
	N265	N	0.539663	0.083026	0.173816
	N266	N	0.469486	0.083968	0.812561
	N267	N	0.538146	0.909167	0.813300
	N268	N	0.917146	0.176698	0.460106
	N269	N	0.091903	0.177450	0.528025
	N270	N	0.089978	0.818492	0.459167
	N271	N	0.915234	0.815823	0.527772
	N272	N	0.183753	0.460992	0.907492
	N273	N	0.184460	0.530598	0.080669
	N274	N	0.823427	0.462403	0.082018
	N275	N	0.825509	0.531073	0.907616
	O276	O	0.076021	0.776781	-0.027839
	H277	H	0.092225	0.793269	-0.027236
	H278	H	0.085002	0.767141	-0.017948
	O279	O	0.316294	0.307802	0.308343
	H280	H	0.322888	0.317871	0.337815
	H281	H	0.313893	0.314073	0.308929
	O282	O	1.134274	0.216589	0.986708
	H283	H	1.132828	0.218077	0.989537
	H284	H	1.136550	0.224907	1.001360
	O285	O	0.643158	0.478023	0.722563
	H286	H	0.658915	0.487262	0.726925
	H287	H	0.630034	0.491146	0.723750
	O288	O	0.540125	0.715969	0.716781
	H289	H	0.536451	0.733072	0.726050
	H290	H	0.563914	0.721845	0.719150
	O291	O	0.289668	0.283442	0.508737
	H292	H	0.291334	0.297715	0.521439
	H293	H	0.274059	0.274225	0.514618
	O294	O	0.790934	0.217683	0.967117
	H295	H	0.773421	0.235094	0.948424
	H296	H	0.788710	0.222059	0.941562
	O297	O	0.463977	0.719591	0.268191
	H298	H	0.440408	0.738358	0.249212
	H299	H	0.453616	0.727962	0.261800
	O300	O	-0.038188	0.145136	0.837571
	H301	H	-0.031403	0.143618	0.840138
	H302	H	-0.039492	0.156055	0.823233
	O303	O	0.644063	0.709451	0.500724
	H304	H	0.643166	0.696534	0.498723
	H305	H	0.654502	0.714933	0.499721
	O306	O	0.588924	0.274172	0.475304
	H307	H	0.594138	0.277350	0.462559
	H308	H	0.587354	0.270555	0.463632
	O309	O	0.316945	0.679652	0.676687
	H310	H	0.313650	0.688652	0.685115
	H311	H	0.327563	0.662676	0.665067
	O312	O	0.454414	0.560208	0.721188
	H313	H	0.452931	0.576506	0.717662
	H314	H	0.479684	0.559783	0.722061
	O315	O	0.926491	0.913968	1.018595
	H316	H	0.938040	0.920127	1.015433
	H317	H	0.912835	0.919994	1.004793
	O318	O	0.515246	0.598589	0.405450
	H319	H	0.523233	0.607326	0.397759
	H320	H	0.512357	0.581768	0.403715
	O321	O	0.220436	0.779491	0.777960
	H322	H	0.216841	0.794610	0.804397
	H323	H	0.227882	0.782466	0.765939
	O324	O	0.982186	0.779578	0.224373
	H325	H	0.964521	0.756942	0.244268
	H326	H	0.957266	0.778847	0.214735
	O327	O	-0.166738	0.055351	1.050840
	H328	H	-0.168641	0.062993	1.063880
	H329	H	-0.173420	0.067087	1.052996
	O330	O	0.703748	0.473630	0.562448
	H331	H	0.696105	0.473886	0.558295
	H332	H	0.708282	0.476149	0.569763
	O333	O	0.479680	0.276834	0.710841
	H334	H	0.474906	0.281395	0.717894
	H335	H	0.478429	0.256001	0.714229
	O336	O	0.561305	0.554757	0.292733
	H337	H	0.574162	0.550758	0.299730
	H338	H	0.543013	0.567271	0.280715
	O339	O	0.922661	-0.006726	0.770756
	H340	H	0.930305	-0.029576	0.782492
	H341	H	0.921561	0.008460	0.770906
	O342	O	-0.066330	0.048733	0.226341
	H343	H	-0.051816	0.042263	0.229354
	H344	H	-0.062582	0.030085	0.222589
	O345	O	0.173344	0.962111	0.860276
	H346	H	0.185157	0.970238	0.860759
	H347	H	0.182128	0.983186	0.889094
	O348	O	0.211935	0.207254	0.205412
	H349	H	0.192814	0.182506	0.206164
	H350	H	0.229155	0.218369	0.218122
	O351	O	0.695888	0.683400	0.309889
	H352	H	0.696030	0.675525	0.323772
	H353	H	0.695596	0.692268	0.300777
	O354	O	0.084091	-0.141990	0.976845
	H355	H	0.084435	-0.143091	0.976566
	H356	H	0.081702	-0.148186	0.970561
	O357	O	0.557306	0.488382	0.579307
	H358	H	0.557146	0.486965	0.567410
	H359	H	0.561419	0.497112	0.573058
	O360	O	0.288402	0.283554	0.711190
	H361	H	0.296869	0.311623	0.699575
	H362	H	0.296751	0.287163	0.708228
	O363	O	-0.179857	0.184605	0.182858
	H364	H	-0.167757	0.175195	0.160502
	H365	H	-0.156239	0.162291	0.173794
	O366	O	0.631985	0.470705	0.355469
	H367	H	0.642135	0.459978	0.335003
	H368	H	0.626758	0.459486	0.353223
	O369	O	0.714046	0.282755	0.282951
	H370	H	0.706982	0.293896	0.308300
	H371	H	0.746858	0.252852	0.258710
	O372	O	0.787381	0.786533	0.024682
	H373	H	0.789412	0.781351	0.011125
	H374	H	0.771535	0.793394	0.005126
	O375	O	0.783689	-0.028304	0.217379
	H376	H	0.802131	-0.022581	0.209848
	H377	H	0.760690	-0.037929	0.248918
	O378	O	0.276371	0.445773	0.420657
	H379	H	0.281435	0.445855	0.429263
	H380	H	0.277869	0.462227	0.429765
	O381	O	0.086382	0.875394	0.786986
	H382	H	0.105908	0.862733	0.804907
	H383	H	0.108891	0.874754	0.789991
	O384	O	0.783787	0.028851	0.778345
	H385	H	0.782602	0.041578	0.763978
	H386	H	0.781894	0.037312	0.763466
	O387	O	1.064466	0.922014	0.214788
	H388	H	1.062864	0.899307	0.199933
	H389	H	1.072778	0.910688	0.221324
	O390	O	0.543655	0.276861	0.275787
	H391	H	0.557126	0.263987	0.270015
	H392	H	0.557261	0.273995	0.263794
	O393	O	0.604620	0.491666	0.565090
	H394	H	0.611163	0.503581	0.571321
	H395	H	0.600075	0.503401	0.551050
	O396	O	0.122116	1.093409	0.814502
	H397	H	0.130247	1.096546	0.834055
	H398	H	0.127918	1.114762	0.799162
	O399	O	0.056762	0.057973	0.760202
	H400	H	0.068802	0.047197	0.764946
	H401	H	0.055379	0.049417	0.752557
	O402	O	0.491336	0.507127	0.375697
	H403	H	0.505534	0.506591	0.381934
	H404	H	0.511485	0.511064	0.359042
	O405	O	0.971555	0.178026	1.044863
	H406	H	0.960639	0.175229	1.037679
	H407	H	0.971577	0.185855	1.035712
	O408	O	0.156260	0.209537	-0.013154
	H409	H	0.162243	0.221123	-0.012090
	H410	H	0.163312	0.228109	-0.026494
	O411	O	0.714323	0.699351	0.705163
	H412	H	0.727906	0.696684	0.724699
	H413	H	0.705920	0.709786	0.676398
	O414	O	0.699032	0.307337	0.680038
	H415	H	0.672245	0.317742	0.660930
	H416	H	0.693078	0.323761	0.661654
	O417	O	0.430487	0.449394	0.264365
	H418	H	0.437222	0.439733	0.259715
	H419	H	0.431704	0.451803	0.265656
	O420	O	0.611055	0.366256	0.457397
	H421	H	0.611716	0.376629	0.457275
	H422	H	0.617814	0.367531	0.462139
	O423	O	-0.006088	0.100474	0.965761
	H424	H	-0.015136	0.121057	0.965394
	H425	H	0.008537	0.102194	0.956675
	O426	O	0.301296	0.559346	0.548792
	H427	H	0.303549	0.575781	0.547059
	H428	H	0.304500	0.559797	0.553796
	O429	O	0.809294	0.805536	0.805701
	H430	H	0.845478	0.807447	0.816700
	H431	H	0.804811	0.814752	0.807366
	O432	O	0.439524	0.728274	0.552186
	H433	H	0.433670	0.732358	0.549781
	H434	H	0.432501	0.725825	0.551507
	O435	O	0.196866	0.807662	0.183701
	H436	H	0.184404	0.816429	0.180345
	H437	H	0.189807	0.809573	0.187274
	O438	O	0.129301	-0.052877	-0.009030
	H439	H	0.118696	-0.047948	-0.023407
	H440	H	0.134367	-0.048609	-0.017574
	O441	O	0.040198	0.211165	0.214154
	H442	H	0.043583	0.203080	0.216807
	H443	H	0.038250	0.224198	0.232945
	O444	O	0.495298	0.295783	0.453563
	H445	H	0.481181	0.297088	0.436664
	H446	H	0.490179	0.296661	0.450745
	O447	O	0.134137	1.015077	0.961517
	H448	H	0.122594	1.024560	0.976621
	H449	H	0.132325	1.031184	0.957591
	O450	O	0.225650	0.874898	1.013154
	H451	H	0.235999	0.874953	1.030938
	H452	H	0.220538	0.895237	1.022971
	O453	O	0.281173	0.493164	0.676375
	H454	H	0.283090	0.507611	0.675787
	H455	H	0.277344	0.492906	0.673601
	O456	O	0.186281	0.181282	0.813042
	H457	H	0.195430	0.168390	0.807709
	H458	H	0.183930	0.188806	0.802918
	O459	O	0.787075	0.788101	0.204701
	H460	H	0.783104	0.785114	0.190355
	H461	H	0.789229	0.808035	0.183296
	O462	O	0.733522	0.492498	0.358550
	H463	H	0.747753	0.505414	0.344664
	H464	H	0.725675	0.486726	0.352403
	O465	O	0.945409	0.022230	0.092971
	H466	H	0.941657	0.030396	0.065786
	H467	H	0.941309	0.003254	0.096817
	O468	O	0.293960	0.709582	0.459349
	H469	H	0.287310	0.710517	0.462153
	H470	H	0.293003	0.711283	0.447555
	O471	O	0.389751	0.392017	0.573399
	H472	H	0.391175	0.405603	0.594333
	H473	H	0.404105	0.404149	0.564802
	O474	O	0.292413	0.704251	0.285598
	H475	H	0.287134	0.659379	0.287184
	H476	H	0.281268	0.722367	0.285929
	O477	O	0.282928	0.536438	1.271403
	H478	H	0.277277	0.520436	1.247653
	H479	H	0.275196	0.531623	1.277493
	O480	O	0.479814	0.352343	0.625554
	H481	H	0.482830	0.358975	0.618187
	H482	H	0.476301	0.357680	0.618934
	O483	O	0.635759	0.540772	0.622672
	H484	H	0.640135	0.545074	0.631115
	H485	H	0.638219	0.536596	0.616709
	O486	O	0.791888	0.207639	0.799067
	H487	H	0.819564	0.191237	0.796045
	H488	H	0.762551	0.239595	0.767453
	O489	O	0.955095	0.834896	-0.045940
	H490	H	0.940294	0.838127	-0.057863
	H491	H	0.955685	0.825522	-0.051455
	O492	O	0.224979	0.023871	0.223046
	H493	H	0.238517	0.031561	0.243515
	H494	H	0.219367	0.026465	0.222846
	O495	O	0.051552	0.822500	1.001235
	H496	H	0.047842	0.824366	1.017287
	H497	H	0.063677	0.827181	1.006148
	O498	O	0.773804	0.935558	0.926047
	H499	H	0.774454	0.958286	0.922747
	H500	H	0.772847	0.941243	0.909844
	O501	O	0.727086	0.637398	0.482756
	H502	H	0.720483	0.626029	0.487721
	H503	H	0.724572	0.642987	0.474698
