data_Molecule from HDF5

_cell_length_a		16.652127
_cell_length_b		16.662554
_cell_length_c		16.446281
_cell_angle_alpha	89.924379
_cell_angle_beta	89.755904
_cell_angle_gamma	90.181925
_symmetry_space_group_name_H-M	'P 1'
_symmetry_Int_Tables_number		1

loop_
	_symmetry_equiv_pos_as_xyz
	x,y,z

loop_
	_atom_site_label
	_atom_site_type_symbol
	_atom_site_fract_x
	_atom_site_fract_y
	_atom_site_fract_z
	H0	H	0.382631	0.843437	0.722354
	H1	H	0.587739	0.157369	0.720478
	H2	H	0.592650	0.846481	0.277593
	H3	H	0.383995	0.155719	0.281433
	H4	H	0.706115	0.396958	0.844641
	H5	H	0.704312	0.602945	0.161154
	H6	H	0.268096	0.603470	0.843407
	H7	H	0.261284	0.392066	0.155625
	H8	H	0.830071	0.721172	0.395638
	H9	H	0.139415	0.723176	0.606919
	H10	H	0.830293	0.278512	0.605751
	H11	H	0.142064	0.277909	0.393918
	H12	H	0.827921	0.399630	0.718991
	H13	H	0.140274	0.605885	0.722748
	H14	H	0.828126	0.600398	0.283300
	H15	H	0.141116	0.394925	0.278110
	H16	H	0.385236	0.718522	0.843874
	H17	H	0.589856	0.719429	0.160970
	H18	H	0.589212	0.282499	0.843774
	H19	H	0.379215	0.278396	0.157670
	H20	H	0.707005	0.845161	0.395798
	H21	H	0.707949	0.155472	0.606554
	H22	H	0.262665	0.845120	0.609478
	H23	H	0.265423	0.155010	0.398394
	H24	H	0.883776	0.342236	0.221512
	H25	H	0.088878	0.655725	0.221589
	H26	H	0.090202	0.344881	0.779330
	H27	H	0.884956	0.657508	0.784012
	H28	H	0.208053	0.895673	0.345347
	H29	H	0.201956	0.100444	0.661573
	H30	H	0.764710	0.106850	0.344629
	H31	H	0.765689	0.895311	0.658722
	H32	H	0.333108	0.224158	0.893310
	H33	H	0.641113	0.223578	0.107093
	H34	H	0.332524	0.776049	0.110799
	H35	H	0.643144	0.780813	0.898291
	H36	H	0.330863	0.896947	0.223369
	H37	H	0.641469	0.107017	0.223308
	H38	H	0.329343	0.099982	0.784336
	H39	H	0.643563	0.899766	0.783821
	H40	H	0.878726	0.224592	0.346382
	H41	H	0.088262	0.218250	0.660565
	H42	H	0.091179	0.779637	0.344407
	H43	H	0.880867	0.780209	0.658669
	H44	H	0.211684	0.348169	0.890464
	H45	H	0.207389	0.655328	0.106242
	H46	H	0.765278	0.342691	0.106823
	H47	H	0.766090	0.656205	0.898667
	H48	H	0.392994	0.113411	0.595751
	H49	H	0.577678	0.887187	0.592625
	H50	H	0.577586	0.113055	0.411790
	H51	H	0.396128	0.889764	0.418969
	H52	H	0.573414	0.411181	0.115171
	H53	H	0.577427	0.593081	0.888766
	H54	H	0.394047	0.587970	0.115250
	H55	H	0.400227	0.416243	0.890178
	H56	H	0.096114	0.592518	0.417455
	H57	H	0.871983	0.591901	0.594019
	H58	H	0.097427	0.407819	0.585733
	H59	H	0.875189	0.406173	0.417185
	H60	H	0.095903	0.414173	0.590535
	H61	H	0.873362	0.592438	0.588326
	H62	H	0.094774	0.585291	0.412972
	H63	H	0.878231	0.413347	0.416832
	H64	H	0.397060	0.586025	0.114019
	H65	H	0.579640	0.588556	0.888994
	H66	H	0.574411	0.408515	0.116631
	H67	H	0.402306	0.409621	0.889141
	H68	H	0.572155	0.110579	0.412497
	H69	H	0.574594	0.888642	0.592770
	H70	H	0.397728	0.110762	0.592705
	H71	H	0.393698	0.887304	0.411311
	H72	H	0.898241	0.611351	0.097568
	H73	H	0.081480	0.386194	0.089817
	H74	H	0.076160	0.611700	0.912032
	H75	H	0.894975	0.388939	0.913707
	H76	H	0.076842	0.917900	0.613439
	H77	H	0.078077	0.083743	0.389939
	H78	H	0.900372	0.085968	0.611753
	H79	H	0.893418	0.911413	0.386544
	H80	H	0.599434	0.094364	0.912126
	H81	H	0.375317	0.087760	0.093878
	H82	H	0.598620	0.903785	0.085473
	H83	H	0.372980	0.908870	0.908467
	H84	H	0.594633	0.916391	0.085148
	H85	H	0.373663	0.093332	0.088322
	H86	H	0.597459	0.090996	0.914287
	H87	H	0.373827	0.903247	0.916226
	H88	H	0.897937	0.089322	0.613547
	H89	H	0.071081	0.091804	0.389596
	H90	H	0.065379	0.909820	0.612029
	H91	H	0.898416	0.912522	0.388480
	H92	H	0.073968	0.610182	0.912541
	H93	H	0.067941	0.389513	0.093988
	H94	H	0.896636	0.608787	0.085692
	H95	H	0.891923	0.386825	0.911949
	H96	H	0.392287	0.112158	0.589533
	H97	H	0.576751	0.888871	0.589821
	H98	H	0.576486	0.110225	0.416882
	H99	H	0.401560	0.889221	0.412712
	H100	H	0.576018	0.411015	0.116017
	H101	H	0.575037	0.589667	0.890706
	H102	H	0.397478	0.589172	0.115540
	H103	H	0.395848	0.411406	0.887332
	H104	H	0.098081	0.591919	0.408671
	H105	H	0.873739	0.587071	0.590764
	H106	H	0.099648	0.407899	0.593907
	H107	H	0.874376	0.410795	0.410758
	H108	H	0.887758	0.613641	0.092690
	H109	H	0.072124	0.392405	0.080259
	H110	H	0.076417	0.610769	0.914662
	H111	H	0.894905	0.387921	0.910267
	H112	H	0.076716	0.904645	0.618383
	H113	H	0.081199	0.093603	0.385485
	H114	H	0.895921	0.085603	0.613332
	H115	H	0.897219	0.907372	0.387036
	H116	H	0.598639	0.090320	0.909415
	H117	H	0.377079	0.086530	0.085884
	H118	H	0.600280	0.911681	0.096367
	H119	H	0.377175	0.912381	0.917034
	C120	C	0.363687	0.008606	0.624622
	C121	C	0.607660	0.992004	0.623162
	C122	C	0.608113	0.009148	0.379881
	C123	C	0.365591	0.991810	0.381909
	C124	C	0.606446	0.379234	0.011250
	C125	C	0.607917	0.621400	0.994429
	C126	C	0.365680	0.620212	0.010373
	C127	C	0.365376	0.379183	0.992240
	C128	C	-0.006387	0.621318	0.380308
	C129	C	0.976215	0.621890	0.622669
	C130	C	-0.005978	0.378818	0.622128
	C131	C	0.978202	0.377879	0.381091
	C132	C	0.863779	0.507523	0.123534
	C133	C	0.106383	0.491967	0.121249
	C134	C	0.107678	0.508876	0.879151
	C135	C	0.863710	0.491507	0.880715
	C136	C	0.106011	0.879322	0.510508
	C137	C	0.107357	0.120670	0.493316
	C138	C	0.865531	0.120493	0.509593
	C139	C	0.864452	0.878840	0.491826
	C140	C	0.495349	0.122345	0.880060
	C141	C	0.478142	0.121523	0.121954
	C142	C	0.495311	0.878672	0.122978
	C143	C	0.478149	0.878051	0.881595
	C144	C	0.363369	0.890481	0.683113
	C145	C	0.607412	0.110102	0.681268
	C146	C	0.610835	0.892831	0.318220
	C147	C	0.364539	0.109066	0.321722
	C148	C	0.665995	0.378584	0.892189
	C149	C	0.665537	0.621970	0.113674
	C150	C	0.307672	0.622102	0.891124
	C151	C	0.302656	0.374767	0.109270
	C152	C	0.876415	0.680523	0.377955
	C153	C	0.093069	0.682535	0.625167
	C154	C	0.876645	0.318950	0.624508
	C155	C	0.095050	0.317761	0.376279
	C156	C	0.875489	0.379046	0.680495
	C157	C	0.093526	0.624091	0.682551
	C158	C	0.875400	0.620693	0.322143
	C159	C	0.094933	0.376233	0.319070
	C160	C	0.365673	0.679398	0.891406
	C161	C	0.608541	0.679833	0.113569
	C162	C	0.608027	0.321435	0.891458
	C163	C	0.361029	0.318170	0.110073
	C164	C	0.667619	0.892074	0.376791
	C165	C	0.667106	0.109158	0.624706
	C166	C	0.303950	0.891409	0.627022
	C167	C	0.305642	0.108549	0.379294
	C168	C	0.863993	0.389191	0.182159
	C169	C	0.107809	0.609093	0.181442
	C170	C	0.109275	0.391939	0.818806
	C171	C	0.864798	0.609928	0.822747
	C172	C	0.167382	0.877342	0.392336
	C173	C	0.163950	0.120548	0.613463
	C174	C	0.804605	0.124639	0.391907
	C175	C	0.805085	0.877050	0.610907
	C176	C	0.378491	0.182311	0.876665
	C177	C	0.594834	0.182590	0.124922
	C178	C	0.378655	0.817412	0.127856
	C179	C	0.596122	0.820373	0.879860
	C180	C	0.377969	0.877143	0.183945
	C181	C	0.594840	0.124524	0.182612
	C182	C	0.376853	0.121129	0.822304
	C183	C	0.596468	0.879434	0.822972
	C184	C	0.861557	0.183050	0.392718
	C185	C	0.107413	0.179035	0.612921
	C186	C	0.109381	0.819839	0.391633
	C187	C	0.862425	0.819797	0.611143
	C188	C	0.169316	0.393199	0.874337
	C189	C	0.166742	0.608654	0.124190
	C190	C	0.805021	0.389672	0.125309
	C191	C	0.805779	0.609333	0.879864
	C192	C	0.387491	0.090734	0.599738
	C193	C	0.583447	0.909656	0.598774
	C194	C	0.582787	0.090359	0.406126
	C195	C	0.390259	0.909962	0.407104
	C196	C	0.581655	0.402947	0.094362
	C197	C	0.584084	0.597455	0.911289
	C198	C	0.389483	0.594997	0.093330
	C199	C	0.391819	0.405177	0.910293
	C200	C	0.075119	0.596966	0.405817
	C201	C	0.894469	0.597331	0.598076
	C202	C	0.076275	0.402883	0.597239
	C203	C	0.897124	0.402793	0.407431
	C204	C	0.887511	0.589843	0.099156
	C205	C	0.081101	0.410585	0.095304
	C206	C	0.082724	0.589789	0.905645
	C207	C	0.887286	0.409349	0.905014
	C208	C	0.080293	0.903828	0.593096
	C209	C	0.083587	0.096651	0.409949
	C210	C	0.891071	0.094340	0.591568
	C211	C	0.889388	0.903249	0.408960
	C212	C	0.577173	0.098802	0.904858
	C213	C	0.396547	0.096271	0.096462
	C214	C	0.576534	0.903693	0.096747
	C215	C	0.396121	0.901299	0.906696
	Zn216	Zn	0.485924	-0.000238	0.752486
	Zn217	Zn	0.486826	0.000718	0.251617
	Zn218	Zn	0.734702	0.500022	0.003105
	Zn219	Zn	0.236727	0.499758	0.000487
	Zn220	Zn	-0.014931	0.751055	0.500953
	Zn221	Zn	-0.013232	0.248570	0.501713
	Zn222	Zn	-0.014377	0.500167	0.751304
	Zn223	Zn	-0.014364	0.499349	0.251781
	Zn224	Zn	0.487244	0.748827	0.003138
	Zn225	Zn	0.485846	0.250681	0.001291
	Zn226	Zn	0.736880	0.000273	0.500822
	Zn227	Zn	0.234956	-0.000574	0.503165
	N228	N	0.399940	0.964388	0.681739
	N229	N	0.571437	0.035898	0.680649
	N230	N	0.574579	0.966646	0.320032
	N231	N	0.400731	0.035298	0.323104
	N232	N	0.665185	0.413658	0.967682
	N233	N	0.665309	0.586457	0.038556
	N234	N	0.307341	0.586170	0.966265
	N235	N	0.305180	0.412068	0.034894
	N236	N	0.950941	0.681141	0.413277
	N237	N	0.019082	0.681647	0.588773
	N238	N	0.951616	0.318466	0.589333
	N239	N	0.021495	0.318442	0.413997
	N240	N	0.949742	0.415084	0.679616
	N241	N	0.019715	0.587361	0.681261
	N242	N	0.949467	0.584529	0.323249
	N243	N	0.021283	0.412897	0.321644
	N244	N	0.400623	0.678858	0.966941
	N245	N	0.573345	0.679587	0.038384
	N246	N	0.571612	0.321653	0.966530
	N247	N	0.399249	0.320629	0.036094
	N248	N	0.666190	0.965544	0.414398
	N249	N	0.667570	0.034539	0.589492
	N250	N	0.303707	0.965853	0.591554
	N251	N	0.306190	0.034466	0.416116
	N252	N	0.899455	0.463614	0.181575
	N253	N	0.071011	0.535358	0.179805
	N254	N	0.071430	0.464782	0.821857
	N255	N	0.899964	0.535564	0.822985
	N256	N	0.165190	0.913613	0.467125
	N257	N	0.164363	0.085278	0.538003
	N258	N	0.806859	0.086338	0.465791
	N259	N	0.805943	0.912888	0.535670
	N260	N	0.453049	0.183108	0.911746
	N261	N	0.521022	0.180913	0.087826
	N262	N	0.452495	0.818164	0.090801
	N263	N	0.521437	0.819039	0.915229
	N264	N	0.451586	0.914279	0.181367
	N265	N	0.521365	0.087074	0.180644
	N266	N	0.450565	0.084497	0.824205
	N267	N	0.522064	0.914655	0.823828
	N268	N	0.898827	0.180378	0.466763
	N269	N	0.073092	0.179368	0.537042
	N270	N	0.071949	0.820786	0.466229
	N271	N	0.898623	0.820497	0.535997
	N272	N	0.168509	0.466883	0.911225
	N273	N	0.165972	0.534672	0.087457
	N274	N	0.804634	0.464335	0.089881
	N275	N	0.804734	0.534571	0.915066
	O276	O	0.375775	0.638379	-0.414301
	H277	H	0.355609	0.652816	-0.396828
	H278	H	0.381917	0.646421	-0.429686
	O279	O	0.688817	0.612982	0.436859
	H280	H	0.686082	0.622686	0.427534
	H281	H	0.688318	0.602229	0.449501
	O282	O	0.710264	0.276493	0.723637
	H283	H	0.693282	0.285279	0.724979
	H284	H	0.689410	0.307646	0.705492
	O285	O	1.204979	0.015209	1.193605
	H286	H	1.201468	0.033420	1.181856
	H287	H	1.214241	0.011236	1.215358
	O288	O	0.676430	0.448851	0.542558
	H289	H	0.668436	0.461749	0.544114
	H290	H	0.680541	0.458183	0.548372
	O291	O	0.420278	0.511782	0.508960
	H292	H	0.429096	0.527308	0.509669
	H293	H	0.419540	0.511445	0.520874
	O294	O	0.954680	-0.213223	1.208941
	H295	H	0.946005	-0.220216	1.223548
	H296	H	0.963387	-0.201779	1.207985
	O297	O	0.458527	0.287330	0.710722
	H298	H	0.463639	0.293599	0.716972
	H299	H	0.443784	0.288655	0.723123
	O300	O	-0.051169	0.220222	0.780332
	H301	H	-0.075184	0.236777	0.767288
	H302	H	-0.076099	0.230904	0.768983
	O303	O	0.263604	0.284305	0.535389
	H304	H	0.254086	0.278982	0.538296
	H305	H	0.251718	0.276648	0.546953
	O306	O	0.807271	0.876532	0.112268
	H307	H	0.808670	0.857539	0.119706
	H308	H	0.791979	0.872197	0.128522
	O309	O	0.699254	0.457120	0.296604
	H310	H	0.706812	0.447357	0.295927
	H311	H	0.712479	0.440984	0.279874
	O312	O	0.708308	0.730047	0.636138
	H313	H	0.715561	0.738813	0.630798
	H314	H	0.725176	0.735599	0.659787
	O315	O	0.698175	0.556373	0.711475
	H316	H	0.704399	0.570379	0.708255
	H317	H	0.697429	0.570246	0.727203
	O318	O	0.287434	0.296880	0.302046
	H319	H	0.309377	0.317558	0.312256
	H320	H	0.305431	0.310046	0.320204
	O321	O	-0.095495	1.021409	1.059296
	H322	H	-0.080165	1.013963	1.074289
	H323	H	-0.092128	1.033283	1.051407
	O324	O	0.778080	0.910303	0.203851
	H325	H	0.759029	0.904300	0.203657
	H326	H	0.758935	0.932514	0.215656
	O327	O	0.173184	-0.185645	1.186545
	H328	H	0.173413	-0.175930	1.183098
	H329	H	0.150205	-0.168031	1.178206
	O330	O	0.705050	0.707017	0.268777
	H331	H	0.727722	0.693233	0.266986
	H332	H	0.692736	0.723427	0.283852
	O333	O	0.534560	0.561776	0.426483
	H334	H	0.538201	0.568262	0.415414
	H335	H	0.540714	0.568703	0.437903
	O336	O	1.054063	-0.039382	0.111059
	H337	H	1.040491	-0.028212	0.109235
	H338	H	1.074561	-0.061758	0.113588
	O339	O	1.457585	0.721738	0.288519
	H340	H	1.435371	0.724111	0.285864
	H341	H	1.447353	0.731024	0.268470
	O342	O	-0.080552	-0.068619	-0.173169
	H343	H	-0.094782	-0.050519	-0.170446
	H344	H	-0.075520	-0.053153	-0.174738
	O345	O	0.059848	0.812640	1.067726
	H346	H	0.068237	0.803858	1.074621
	H347	H	0.052532	0.813131	1.064812
	O348	O	0.443798	0.517603	0.597271
	H349	H	0.426444	0.519781	0.606303
	H350	H	0.443963	0.529141	0.601582
	O351	O	0.470893	0.519854	0.676396
	H352	H	0.474737	0.534174	0.669679
	H353	H	0.455246	0.525631	0.681583
	O354	O	-0.230620	-0.215591	1.031275
	H355	H	-0.240601	-0.227758	1.056963
	H356	H	-0.237757	-0.216795	1.061067
	O357	O	0.591564	0.283818	0.535205
	H358	H	0.588418	0.300439	0.545766
	H359	H	0.595806	0.281919	0.516841
	O360	O	0.567228	0.621458	0.571827
	H361	H	0.569636	0.628057	0.565686
	H362	H	0.558290	0.630786	0.573361
	O363	O	-0.139551	0.019193	0.117369
	H364	H	-0.136873	0.043446	0.115283
	H365	H	-0.158812	0.012598	0.123533
	O366	O	0.644123	0.276936	0.407816
	H367	H	0.657072	0.251712	0.402436
	H368	H	0.646506	0.293714	0.420718
	O369	O	1.064319	0.165776	0.006312
	H370	H	1.079470	0.161205	0.001242
	H371	H	1.063360	0.169422	0.007057
	O372	O	0.767541	1.032452	-0.222056
	H373	H	0.758098	1.052870	-0.231722
	H374	H	0.753512	1.058802	-0.234376
	O375	O	1.020041	-0.208785	-0.205839
	H376	H	0.999574	-0.207689	-0.194763
	H377	H	1.003807	-0.213856	-0.218913
	O378	O	0.361446	0.463857	0.314299
	H379	H	0.379316	0.479756	0.315379
	H380	H	0.348502	0.487496	0.317961
	O381	O	-0.726640	0.714946	0.470337
	H382	H	-0.737222	0.716351	0.480344
	H383	H	-0.725487	0.709730	0.480007
	O384	O	1.207044	0.221632	1.015931
	H385	H	1.234457	0.248284	1.031270
	H386	H	1.202632	0.202761	1.037143
	O387	O	0.765807	1.152665	-0.002820
	H388	H	0.772408	1.161688	0.002477
	H389	H	0.771460	1.154759	0.003445
	O390	O	0.536419	0.594176	0.359346
	H391	H	0.542101	0.596673	0.353543
	H392	H	0.533303	0.603877	0.364112
	O393	O	0.569543	0.422816	0.520707
	H394	H	0.565894	0.416501	0.526945
	H395	H	0.570822	0.426504	0.517978
	O396	O	0.018444	1.218542	1.196553
	H397	H	0.036706	1.228997	1.193266
	H398	H	0.021520	1.212871	1.205772
	O399	O	0.100947	-0.100901	0.876942
	H400	H	0.095328	-0.098985	0.877732
	H401	H	0.089591	-0.104086	0.881734
	O402	O	1.192387	0.793229	-0.205116
	H403	H	1.154375	0.792494	-0.195164
	H404	H	1.184847	0.808800	-0.182423
	O405	O	0.777666	0.210081	0.844800
	H406	H	0.750249	0.237004	0.832207
	H407	H	0.772845	0.210656	0.889526
	O408	O	-0.111019	-0.009078	0.129019
	H409	H	-0.101775	-0.013229	0.115636
	H410	H	-0.106530	-0.006553	0.125793
	O411	O	0.750323	0.778613	0.773623
	H412	H	0.754526	0.780278	0.771816
	H413	H	0.770958	0.801954	0.798312
	O414	O	0.299895	0.548096	0.291926
	H415	H	0.300121	0.558377	0.299647
	H416	H	0.279197	0.553831	0.280446
	O417	O	0.980206	0.175041	1.050137
	H418	H	0.984401	0.171669	1.038675
	H419	H	1.008523	0.173226	1.050107
	O420	O	0.021667	1.018589	0.933079
	H421	H	0.019920	1.037281	0.937233
	H422	H	0.017684	1.008357	0.933293
	O423	O	0.223671	0.206277	0.770566
	H424	H	0.198919	0.185181	0.791376
	H425	H	0.223651	0.198537	0.767627
	O426	O	0.272881	0.368403	0.712409
	H427	H	0.283256	0.350848	0.712791
	H428	H	0.256621	0.344539	0.733001
	O429	O	1.182534	0.961242	0.813550
	H430	H	1.178255	0.948845	0.813580
	H431	H	1.194824	0.957303	0.797859
	O432	O	0.277370	0.492795	0.482575
	H433	H	0.291526	0.483412	0.490640
	H434	H	0.273709	0.482225	0.477896
	O435	O	0.184313	1.201252	0.199435
	H436	H	0.169719	1.185409	0.192976
	H437	H	0.211577	1.225715	0.230251
	O438	O	0.081324	0.010664	-0.010511
	H439	H	0.089448	0.011902	-0.024407
	H440	H	0.081387	-0.000011	-0.002312
	O441	O	-0.188163	-0.118560	-0.106573
	H442	H	-0.183854	-0.107045	-0.108733
	H443	H	-0.179523	-0.126853	-0.095814
	O444	O	0.528728	0.720007	0.720564
	H445	H	0.543784	0.736701	0.736332
	H446	H	0.525920	0.723377	0.726292
	O447	O	0.121253	1.055205	0.982837
	H448	H	0.120155	1.063024	0.983968
	H449	H	0.125123	1.060682	0.980395
	O450	O	0.496008	0.628492	1.536026
	H451	H	0.496978	0.631204	1.538601
	H452	H	0.490038	0.634901	1.538955
	O453	O	0.584644	0.416103	0.707751
	H454	H	0.575251	0.434503	0.706327
	H455	H	0.576571	0.434255	0.700471
	O456	O	-0.063840	-0.039382	1.217619
	H457	H	-0.076307	-0.016957	1.201513
	H458	H	-0.081502	-0.026190	1.220344
	O459	O	1.091821	1.135169	-0.179253
	H460	H	1.075177	1.116149	-0.171809
	H461	H	1.083540	1.154458	-0.165034
	O462	O	0.282701	0.545920	0.538874
	H463	H	0.286674	0.546108	0.555597
	H464	H	0.277398	0.528211	0.531536
	O465	O	1.211452	-0.129070	-0.026769
	H466	H	1.219282	-0.140760	-0.011846
	H467	H	1.213062	-0.129616	-0.047441
	O468	O	0.497863	0.339780	0.303185
	H469	H	0.483624	0.341583	0.316609
	H470	H	0.492964	0.354153	0.300398
	O471	O	0.275431	0.709306	0.295834
	H472	H	0.270196	0.721547	0.319012
	H473	H	0.265176	0.707945	0.294674
	O474	O	0.417029	0.274210	0.449696
	H475	H	0.411736	0.268116	0.471207
	H476	H	0.418931	0.278291	0.452206
	O477	O	0.296455	0.583864	1.697979
	H478	H	0.291224	0.590241	1.698993
	H479	H	0.276620	0.584977	1.711118
	O480	O	0.684351	0.294230	0.306767
	H481	H	0.651137	0.307044	0.302910
	H482	H	0.689162	0.282749	0.337002
	O483	O	0.530789	0.568237	0.477584
	H484	H	0.536069	0.583894	0.475669
	H485	H	0.528935	0.577822	0.473599
	O486	O	0.862587	0.208484	1.106086
	H487	H	0.875672	0.208465	1.109907
	H488	H	0.864958	0.220714	1.110570
	O489	O	0.928226	0.823368	-0.039286
	H490	H	0.921139	0.819865	-0.032846
	H491	H	0.917634	0.826414	-0.023893
