data_Molecule from HDF5

_cell_length_a		16.332438
_cell_length_b		16.170850
_cell_length_c		16.203415
_cell_angle_alpha	90.286714
_cell_angle_beta	90.045573
_cell_angle_gamma	89.965380
_symmetry_space_group_name_H-M	'P 1'
_symmetry_Int_Tables_number		1

loop_
	_symmetry_equiv_pos_as_xyz
	x,y,z

loop_
	_atom_site_label
	_atom_site_type_symbol
	_atom_site_fract_x
	_atom_site_fract_y
	_atom_site_fract_z
	H0	H	0.407997	0.840160	0.704483
	H1	H	0.605486	0.169732	0.706116
	H2	H	0.603644	0.840902	0.275819
	H3	H	0.405432	0.170253	0.278256
	H4	H	0.723324	0.401386	0.829582
	H5	H	0.722581	0.608351	0.154469
	H6	H	0.288760	0.605042	0.827408
	H7	H	0.289466	0.405373	0.154924
	H8	H	0.844091	0.719421	0.392230
	H9	H	0.169398	0.719451	0.590444
	H10	H	0.843297	0.288706	0.590003
	H11	H	0.169194	0.288672	0.391804
	H12	H	0.843553	0.404452	0.707221
	H13	H	0.169439	0.604006	0.707840
	H14	H	0.843451	0.605112	0.276399
	H15	H	0.168964	0.403122	0.274015
	H16	H	0.406616	0.717477	0.826039
	H17	H	0.603238	0.720116	0.155451
	H18	H	0.606017	0.288551	0.828747
	H19	H	0.407433	0.293016	0.156056
	H20	H	0.721375	0.840912	0.388508
	H21	H	0.722889	0.167842	0.594026
	H22	H	0.292043	0.840671	0.590971
	H23	H	0.290034	0.168685	0.391551
	H24	H	0.908467	0.340325	0.203537
	H25	H	0.103027	0.670111	0.204469
	H26	H	0.105675	0.340628	0.777094
	H27	H	0.906441	0.669507	0.778028
	H28	H	0.222887	0.901835	0.327612
	H29	H	0.222311	0.105467	0.654709
	H30	H	0.788564	0.105080	0.327645
	H31	H	0.789578	0.902746	0.654165
	H32	H	0.342528	0.220695	0.893574
	H33	H	0.668333	0.221086	0.091866
	H34	H	0.341375	0.792532	0.087937
	H35	H	0.668836	0.790144	0.893175
	H36	H	0.341863	0.907529	0.205302
	H37	H	0.668279	0.104746	0.207083
	H38	H	0.342380	0.104321	0.776587
	H39	H	0.669019	0.905492	0.776480
	H40	H	0.907828	0.218040	0.326092
	H41	H	0.105461	0.219938	0.655038
	H42	H	0.105383	0.788431	0.326544
	H43	H	0.909073	0.791151	0.655395
	H44	H	0.222153	0.341494	0.889510
	H45	H	0.220372	0.669191	0.091710
	H46	H	0.790783	0.341927	0.092076
	H47	H	0.790613	0.668346	0.892110
	H48	H	0.415008	0.123403	0.589749
	H49	H	0.603234	0.886564	0.583497
	H50	H	0.601350	0.120584	0.407209
	H51	H	0.414244	0.885873	0.392393
	H52	H	0.600135	0.411733	0.110341
	H53	H	0.598267	0.596572	0.874332
	H54	H	0.409501	0.604002	0.110745
	H55	H	0.409252	0.411741	0.873299
	H56	H	0.127425	0.604201	0.392231
	H57	H	0.892967	0.592453	0.578988
	H58	H	0.118823	0.415438	0.576489
	H59	H	0.892150	0.419612	0.397300
	H60	H	0.122749	0.417028	0.589690
	H61	H	0.889050	0.594456	0.590896
	H62	H	0.120301	0.597483	0.408051
	H63	H	0.886818	0.407747	0.390311
	H64	H	0.408901	0.592047	0.107253
	H65	H	0.599723	0.597559	0.873637
	H66	H	0.601579	0.418692	0.109596
	H67	H	0.413053	0.417701	0.875310
	H68	H	0.600992	0.124203	0.395952
	H69	H	0.595621	0.887286	0.586538
	H70	H	0.416920	0.120190	0.580485
	H71	H	0.419557	0.891110	0.401458
	H72	H	0.912974	0.624384	0.087747
	H73	H	0.097488	0.389876	0.076586
	H74	H	0.102550	0.624293	0.897636
	H75	H	0.911950	0.391530	0.914637
	H76	H	0.098970	0.917985	0.605496
	H77	H	0.101759	0.092903	0.372894
	H78	H	0.913606	0.090756	0.605558
	H79	H	0.911955	0.905970	0.372319
	H80	H	0.619925	0.095369	0.902271
	H81	H	0.390222	0.102704	0.078764
	H82	H	0.623789	0.906858	0.085410
	H83	H	0.390011	0.915350	0.898009
	H84	H	0.619183	0.914652	0.078211
	H85	H	0.390975	0.092621	0.085328
	H86	H	0.622034	0.095422	0.896959
	H87	H	0.388102	0.911151	0.894258
	H88	H	0.919271	0.099369	0.606538
	H89	H	0.095988	0.094064	0.375686
	H90	H	0.097108	0.908074	0.608359
	H91	H	0.908425	0.914608	0.373316
	H92	H	0.092450	0.621800	0.897483
	H93	H	0.105410	0.384885	0.083500
	H94	H	0.916427	0.621414	0.082858
	H95	H	0.903204	0.381926	0.891571
	H96	H	0.408078	0.123535	0.583078
	H97	H	0.597691	0.889385	0.577883
	H98	H	0.591515	0.120464	0.400891
	H99	H	0.408697	0.887444	0.401637
	H100	H	0.595330	0.415798	0.107496
	H101	H	0.599679	0.595585	0.874070
	H102	H	0.419302	0.599059	0.105716
	H103	H	0.417169	0.411073	0.874767
	H104	H	0.121895	0.587066	0.393380
	H105	H	0.888868	0.604290	0.582738
	H106	H	0.124764	0.405097	0.584099
	H107	H	0.890955	0.407581	0.404553
	H108	H	0.910605	0.623414	0.082383
	H109	H	0.094924	0.387018	0.087622
	H110	H	0.097883	0.620288	0.907033
	H111	H	0.927891	0.389997	0.892805
	H112	H	0.105521	0.912302	0.610247
	H113	H	0.099511	0.098755	0.373424
	H114	H	0.909395	0.099549	0.609421
	H115	H	0.917253	0.913621	0.375641
	H116	H	0.621562	0.099793	0.900049
	H117	H	0.386252	0.102584	0.090075
	H118	H	0.621253	0.917341	0.088978
	H119	H	0.389358	0.909589	0.899953
	C120	C	0.384728	0.013601	0.612750
	C121	C	0.627793	0.996091	0.612809
	C122	C	0.627216	0.013431	0.370499
	C123	C	0.384367	0.996643	0.369729
	C124	C	0.628065	0.384271	0.000852
	C125	C	0.627685	0.626639	0.982515
	C126	C	0.383078	0.627073	-0.000526
	C127	C	0.384317	0.384848	0.983096
	C128	C	0.015049	0.625702	0.369377
	C129	C	0.997829	0.626334	0.613645
	C130	C	0.014687	0.382893	0.612727
	C131	C	0.997554	0.382017	0.368015
	C132	C	0.884369	0.514268	0.113094
	C133	C	0.127358	0.496337	0.112268
	C134	C	0.127176	0.513746	0.870632
	C135	C	0.884382	0.495981	0.870311
	C136	C	0.128832	0.882634	0.499512
	C137	C	0.128039	0.125360	0.482401
	C138	C	0.884445	0.125834	0.499233
	C139	C	0.884765	0.883155	0.482411
	C140	C	0.513831	0.126585	0.870301
	C141	C	0.496461	0.128240	0.114459
	C142	C	0.513779	0.883918	0.113327
	C143	C	0.497218	0.883017	0.868906
	C144	C	0.387355	0.889489	0.667215
	C145	C	0.625624	0.120161	0.668718
	C146	C	0.624647	0.890220	0.313589
	C147	C	0.385871	0.120884	0.315618
	C148	C	0.684347	0.383387	0.878238
	C149	C	0.683524	0.626742	0.105625
	C150	C	0.326766	0.625322	0.876309
	C151	C	0.328275	0.386249	0.106354
	C152	C	0.892695	0.681473	0.372051
	C153	C	0.120552	0.682048	0.611481
	C154	C	0.891988	0.326702	0.610573
	C155	C	0.120341	0.326238	0.370588
	C156	C	0.892193	0.384405	0.668708
	C157	C	0.120551	0.624294	0.669494
	C158	C	0.892336	0.624196	0.314658
	C159	C	0.120250	0.383617	0.312475
	C160	C	0.385887	0.681129	0.875524
	C161	C	0.624213	0.682404	0.106323
	C162	C	0.626089	0.327059	0.877846
	C163	C	0.386856	0.330292	0.106821
	C164	C	0.682838	0.889991	0.370102
	C165	C	0.684027	0.119382	0.612811
	C166	C	0.329699	0.889806	0.610668
	C167	C	0.328061	0.119811	0.371830
	C168	C	0.887145	0.390175	0.167419
	C169	C	0.124173	0.620538	0.167615
	C170	C	0.125983	0.390138	0.814260
	C171	C	0.886168	0.620099	0.815252
	C172	C	0.184412	0.882968	0.376343
	C173	C	0.184117	0.125118	0.605665
	C174	C	0.827872	0.124374	0.376146
	C175	C	0.828942	0.884264	0.605628
	C176	C	0.391183	0.182384	0.872977
	C177	C	0.619459	0.183746	0.112705
	C178	C	0.390512	0.829470	0.109592
	C179	C	0.620069	0.827912	0.872074
	C180	C	0.390654	0.886881	0.167840
	C181	C	0.619714	0.125466	0.169565
	C182	C	0.391273	0.124536	0.814791
	C183	C	0.620045	0.885339	0.814104
	C184	C	0.886813	0.180775	0.375487
	C185	C	0.126018	0.181943	0.606011
	C186	C	0.125715	0.826897	0.375654
	C187	C	0.887953	0.828357	0.606104
	C188	C	0.183588	0.390421	0.870690
	C189	C	0.182633	0.620053	0.111727
	C190	C	0.829086	0.390705	0.111402
	C191	C	0.828722	0.619627	0.872018
	C192	C	0.406995	0.099883	0.590887
	C193	C	0.605333	0.910084	0.589359
	C194	C	0.604602	0.099465	0.394421
	C195	C	0.407512	0.910461	0.392051
	C196	C	0.605456	0.408364	0.086875
	C197	C	0.605768	0.603416	0.896380
	C198	C	0.405919	0.604919	0.085632
	C199	C	0.406645	0.406965	0.896782
	C200	C	0.100883	0.602771	0.391434
	C201	C	0.912381	0.603690	0.590922
	C202	C	0.099916	0.405738	0.590014
	C203	C	0.912100	0.404803	0.390681
	C204	C	0.906652	0.600630	0.090837
	C205	C	0.105627	0.409717	0.089222
	C206	C	0.104242	0.599879	0.893994
	C207	C	0.907353	0.410147	0.892959
	C208	C	0.106927	0.905897	0.585748
	C209	C	0.105541	0.102083	0.396409
	C210	C	0.907349	0.103316	0.584953
	C211	C	0.906273	0.904870	0.395983
	C212	C	0.599109	0.103598	0.893171
	C213	C	0.411247	0.105943	0.091666
	C214	C	0.599287	0.906238	0.091010
	C215	C	0.411358	0.905365	0.890993
	Zn216	Zn	0.505887	0.004993	0.740169
	Zn217	Zn	0.505367	0.006394	0.242390
	Zn218	Zn	0.756560	0.505239	-0.008141
	Zn219	Zn	0.255514	0.505180	-0.008761
	Zn220	Zn	0.006608	0.754661	0.490836
	Zn221	Zn	0.006539	0.253950	0.490620
	Zn222	Zn	0.005970	0.504599	0.742663
	Zn223	Zn	0.006318	0.504799	0.240324
	Zn224	Zn	0.505266	0.754463	-0.008896
	Zn225	Zn	0.505772	0.256658	-0.007653
	Zn226	Zn	0.755709	0.004271	0.491444
	Zn227	Zn	0.256930	0.004437	0.491269
	N228	N	0.420976	0.967405	0.668496
	N229	N	0.591382	0.042456	0.668800
	N230	N	0.590756	0.967978	0.313698
	N231	N	0.420213	0.043146	0.314068
	N232	N	0.685778	0.418121	0.956025
	N233	N	0.685626	0.592630	0.027704
	N234	N	0.325168	0.592459	0.954386
	N235	N	0.326621	0.419303	0.028233
	N236	N	0.970146	0.682546	0.405392
	N237	N	0.043308	0.683459	0.577504
	N238	N	0.969194	0.325695	0.576419
	N239	N	0.043108	0.325099	0.404400
	N240	N	0.969303	0.418444	0.670156
	N241	N	0.043233	0.590495	0.671010
	N242	N	0.969523	0.590244	0.312953
	N243	N	0.042923	0.417590	0.310686
	N244	N	0.420174	0.682423	0.953168
	N245	N	0.589924	0.682440	0.028827
	N246	N	0.591681	0.327583	0.955159
	N247	N	0.421085	0.329408	0.029253
	N248	N	0.684564	0.967857	0.404882
	N249	N	0.685701	0.041210	0.578833
	N250	N	0.327938	0.967883	0.577352
	N251	N	0.326960	0.041484	0.404567
	N252	N	0.920974	0.468082	0.168582
	N253	N	0.090668	0.542418	0.168282
	N254	N	0.091637	0.467853	0.813967
	N255	N	0.920337	0.542389	0.814214
	N256	N	0.186465	0.916861	0.454463
	N257	N	0.185237	0.090509	0.527951
	N258	N	0.826154	0.091144	0.454204
	N259	N	0.826596	0.917429	0.527544
	N260	N	0.468391	0.183652	0.906808
	N261	N	0.542000	0.185561	0.079078
	N262	N	0.467960	0.827563	0.076318
	N263	N	0.542654	0.826214	0.905193
	N264	N	0.468331	0.919815	0.170465
	N265	N	0.542383	0.092035	0.171060
	N266	N	0.468689	0.090809	0.812814
	N267	N	0.542561	0.918892	0.812135
	N268	N	0.921306	0.181811	0.452953
	N269	N	0.091795	0.182204	0.528260
	N270	N	0.091869	0.826411	0.453349
	N271	N	0.921845	0.827684	0.528526
	N272	N	0.184349	0.468302	0.905126
	N273	N	0.184781	0.541727	0.078175
	N274	N	0.827071	0.468985	0.078545
	N275	N	0.827218	0.541386	0.905232
	O276	O	-0.502040	-0.505517	0.486140
	H277	H	-0.492763	-0.518091	0.485643
	H278	H	-0.499105	-0.504784	0.478653
	O279	O	0.415763	0.490773	0.500375
	H280	H	0.408607	0.489585	0.502374
	H281	H	0.416805	0.490846	0.491870
	O282	O	0.490432	0.520109	0.560683
	H283	H	0.497555	0.530012	0.565817
	H284	H	0.488444	0.517383	0.557406
	O285	O	0.056294	0.991722	0.957850
	H286	H	0.067665	0.980197	0.952853
	H287	H	0.062744	0.999027	0.953776
	O288	O	0.505174	0.641498	0.480964
	H289	H	0.518016	0.646211	0.477204
	H290	H	0.510073	0.633574	0.474541
	O291	O	1.024730	1.023531	0.882314
	H292	H	1.023558	1.011217	0.879768
	H293	H	1.031895	1.022378	0.873361
	O294	O	0.979013	0.982498	1.000903
	H295	H	0.982025	0.985015	1.002873
	H296	H	0.986194	0.989938	1.002064
	O297	O	1.017155	0.014849	1.063059
	H298	H	1.010536	0.015684	1.063098
	H299	H	1.026403	0.009509	1.067323
	O300	O	0.483180	0.543106	0.512424
	H301	H	0.470602	0.550113	0.525636
	H302	H	0.490163	0.552315	0.525805
	O303	O	1.001796	0.032423	-0.080830
	H304	H	0.996240	0.029558	-0.090077
	H305	H	0.992518	0.031540	-0.075228
	O306	O	0.035138	1.021607	0.953737
	H307	H	0.037584	1.023329	0.959279
	H308	H	0.037202	1.016199	0.958235
	O309	O	0.593732	0.495763	0.556399
	H310	H	0.596176	0.501383	0.560424
	H311	H	0.605189	0.503879	0.557160
	O312	O	1.037450	-0.017212	0.942071
	H313	H	1.023516	-0.012545	0.942669
	H314	H	1.039758	-0.007322	0.947314
	O315	O	0.630988	0.368842	0.427571
	H316	H	0.616905	0.362452	0.425981
	H317	H	0.633668	0.356492	0.428307
	O318	O	-0.011210	0.061817	0.920578
	H319	H	-0.006706	0.060920	0.908186
	H320	H	-0.006831	0.057105	0.916417
	O321	O	1.025895	1.065011	1.055963
	H322	H	1.024418	1.067843	1.055607
	H323	H	1.031087	1.062640	1.064711
	O324	O	0.456292	0.576327	0.427730
	H325	H	0.461482	0.591742	0.426489
	H326	H	0.451404	0.565399	0.426347
	O327	O	0.543432	0.447058	0.463764
	H328	H	0.535618	0.442404	0.461191
	H329	H	0.541106	0.438679	0.467110
	O330	O	0.669645	-0.324760	0.681753
	H331	H	0.664126	-0.330412	0.674498
	H332	H	0.670848	-0.317655	0.687199
	O333	O	1.013778	1.038014	-0.061784
	H334	H	1.004977	1.045655	-0.064801
	H335	H	1.010336	1.040411	-0.061456
	O336	O	0.508429	0.582300	0.495323
	H337	H	0.496134	0.590007	0.494974
	H338	H	0.511866	0.577706	0.484804
	O339	O	0.427728	0.538313	0.508990
	H340	H	0.423995	0.533106	0.510859
	H341	H	0.419139	0.529030	0.507909
	O342	O	0.576120	1.455150	0.502872
	H343	H	0.571587	1.453669	0.507828
	H344	H	0.569300	1.446781	0.502395
	O345	O	-0.028288	0.067083	-0.020157
	H346	H	-0.033038	0.062249	-0.023645
	H347	H	-0.034896	0.075905	-0.017901
	O348	O	0.498275	0.500478	0.459861
	H349	H	0.506959	0.500281	0.454456
	H350	H	0.500095	0.509814	0.459341
	O351	O	-0.521532	0.415819	0.579623
	H352	H	-0.511026	0.410921	0.568571
	H353	H	-0.518879	0.421730	0.591008
	O354	O	0.468184	0.498430	0.518270
	H355	H	0.462164	0.507916	0.513458
	H356	H	0.464874	0.488876	0.511568
	O357	O	0.528452	0.494505	0.356890
	H358	H	0.532882	0.504075	0.352171
	H359	H	0.527784	0.493116	0.354795
	O360	O	-0.017333	-0.011199	0.034230
	H361	H	-0.022106	-0.019305	0.027429
	H362	H	-0.016481	-0.021202	0.042337
	O363	O	0.512729	0.510528	0.390419
	H364	H	0.515912	0.520785	0.384659
	H365	H	0.521130	0.511524	0.384779
	O366	O	0.046166	0.008645	1.047170
	H367	H	0.045662	-0.002490	1.049842
	H368	H	0.043934	0.019294	1.040801
	O369	O	0.599818	0.556191	0.581245
	H370	H	0.597101	0.552440	0.581724
	H371	H	0.613030	0.560011	0.589807
