data_Molecule from HDF5

_cell_length_a		16.496639
_cell_length_b		16.540924
_cell_length_c		16.723092
_cell_angle_alpha	89.973163
_cell_angle_beta	89.964469
_cell_angle_gamma	90.228190
_symmetry_space_group_name_H-M	'P 1'
_symmetry_Int_Tables_number		1

loop_
	_symmetry_equiv_pos_as_xyz
	x,y,z

loop_
	_atom_site_label
	_atom_site_type_symbol
	_atom_site_fract_x
	_atom_site_fract_y
	_atom_site_fract_z
	H0	H	0.394412	0.840322	0.712094
	H1	H	0.607252	0.153379	0.717205
	H2	H	0.601465	0.839892	0.275111
	H3	H	0.394628	0.154598	0.272217
	H4	H	0.720772	0.393837	0.837818
	H5	H	0.722865	0.605330	0.146731
	H6	H	0.277430	0.599801	0.839227
	H7	H	0.276311	0.390534	0.147936
	H8	H	0.838669	0.712152	0.394715
	H9	H	0.157304	0.714245	0.594571
	H10	H	0.841873	0.273400	0.602312
	H11	H	0.152835	0.274942	0.388091
	H12	H	0.843211	0.388712	0.719232
	H13	H	0.155998	0.600707	0.712751
	H14	H	0.840785	0.599686	0.274982
	H15	H	0.152629	0.389263	0.271232
	H16	H	0.391722	0.719939	0.840267
	H17	H	0.605429	0.721245	0.147435
	H18	H	0.606669	0.274567	0.838319
	H19	H	0.393227	0.274289	0.147637
	H20	H	0.711741	0.837351	0.396568
	H21	H	0.721041	0.153599	0.599636
	H22	H	0.281758	0.838950	0.592652
	H23	H	0.278606	0.154741	0.388781
	H24	H	0.888772	0.342399	0.217614
	H25	H	0.102635	0.653318	0.213462
	H26	H	0.104511	0.342860	0.770801
	H27	H	0.891903	0.653995	0.771721
	H28	H	0.213345	0.899531	0.335096
	H29	H	0.223175	0.106068	0.647666
	H30	H	0.778031	0.100875	0.338544
	H31	H	0.782230	0.899025	0.653749
	H32	H	0.340297	0.214184	0.893034
	H33	H	0.658816	0.216220	0.094736
	H34	H	0.339870	0.781094	0.094197
	H35	H	0.655520	0.779014	0.890653
	H36	H	0.341604	0.894622	0.212783
	H37	H	0.658627	0.100912	0.211345
	H38	H	0.341054	0.101777	0.774072
	H39	H	0.655594	0.894121	0.773452
	H40	H	0.891690	0.220851	0.339987
	H41	H	0.107765	0.223430	0.647194
	H42	H	0.094765	0.783259	0.335399
	H43	H	0.897756	0.781148	0.652935
	H44	H	0.215499	0.339341	0.891877
	H45	H	0.218130	0.653524	0.095890
	H46	H	0.774749	0.341635	0.098915
	H47	H	0.778569	0.654813	0.889946
	H48	H	0.414326	0.108686	0.581813
	H49	H	0.586924	0.882982	0.590047
	H50	H	0.587493	0.111145	0.398263
	H51	H	0.408342	0.885144	0.400215
	H52	H	0.584203	0.410952	0.102074
	H53	H	0.585592	0.594124	0.880877
	H54	H	0.415556	0.587857	0.103440
	H55	H	0.405413	0.405256	0.880998
	H56	H	0.115271	0.593413	0.397926
	H57	H	0.883755	0.589709	0.586531
	H58	H	0.107390	0.414615	0.580165
	H59	H	0.885127	0.408239	0.407029
	H60	H	0.107675	0.412298	0.583192
	H61	H	0.883705	0.587853	0.585636
	H62	H	0.111276	0.591821	0.406884
	H63	H	0.887357	0.411828	0.410080
	H64	H	0.404980	0.592495	0.108027
	H65	H	0.592809	0.582836	0.882368
	H66	H	0.585532	0.406374	0.103502
	H67	H	0.407981	0.408116	0.881562
	H68	H	0.586596	0.108838	0.405873
	H69	H	0.581309	0.887427	0.583490
	H70	H	0.407033	0.111677	0.581701
	H71	H	0.408747	0.885922	0.402510
	H72	H	0.908173	0.612337	0.090190
	H73	H	0.081710	0.385956	0.084451
	H74	H	0.086397	0.608499	0.906278
	H75	H	0.906444	0.385633	0.908616
	H76	H	0.091742	0.907806	0.606677
	H77	H	0.078816	0.083235	0.387468
	H78	H	0.910755	0.082025	0.603778
	H79	H	0.898674	0.903547	0.380402
	H80	H	0.612515	0.092584	0.908749
	H81	H	0.388574	0.081709	0.084224
	H82	H	0.608037	0.916020	0.077501
	H83	H	0.385963	0.913853	0.900239
	H84	H	0.615492	0.910566	0.095211
	H85	H	0.385274	0.087998	0.088145
	H86	H	0.607611	0.077868	0.907980
	H87	H	0.383060	0.904581	0.899129
	H88	H	0.913383	0.086746	0.603432
	H89	H	0.085676	0.092486	0.382547
	H90	H	0.088820	0.904911	0.606100
	H91	H	0.904997	0.906131	0.383303
	H92	H	0.089299	0.610953	0.904471
	H93	H	0.088428	0.383665	0.080761
	H94	H	0.917987	0.606746	0.084087
	H95	H	0.912050	0.385712	0.900489
	H96	H	0.410621	0.111298	0.588164
	H97	H	0.590682	0.885971	0.581010
	H98	H	0.593713	0.112194	0.403362
	H99	H	0.406671	0.884478	0.401828
	H100	H	0.588494	0.409952	0.103026
	H101	H	0.579795	0.583571	0.886791
	H102	H	0.405491	0.580728	0.104911
	H103	H	0.408966	0.404439	0.881249
	H104	H	0.111707	0.584623	0.400670
	H105	H	0.883630	0.588043	0.587505
	H106	H	0.108774	0.410908	0.579600
	H107	H	0.885754	0.413116	0.405072
	H108	H	0.907283	0.608729	0.078078
	H109	H	0.087379	0.381495	0.088581
	H110	H	0.085908	0.609778	0.902529
	H111	H	0.915582	0.388924	0.909011
	H112	H	0.093049	0.903902	0.607198
	H113	H	0.090715	0.081417	0.384471
	H114	H	0.908576	0.086606	0.605573
	H115	H	0.904980	0.899331	0.380901
	H116	H	0.614222	0.084577	0.895940
	H117	H	0.386991	0.089211	0.080722
	H118	H	0.614483	0.896986	0.079996
	H119	H	0.386319	0.907343	0.908238
	C120	C	0.378362	0.006060	0.613931
	C121	C	0.619475	0.988870	0.616386
	C122	C	0.619350	0.005736	0.373213
	C123	C	0.377475	0.989326	0.371051
	C124	C	0.619757	0.376508	0.001063
	C125	C	0.620178	0.620240	0.984767
	C126	C	0.376821	0.618116	0.002827
	C127	C	0.376120	0.374034	0.984250
	C128	C	0.007188	0.618985	0.372513
	C129	C	0.989051	0.618968	0.616217
	C130	C	0.005840	0.377394	0.615077
	C131	C	0.988995	0.377448	0.374197
	C132	C	0.876808	0.506184	0.116021
	C133	C	0.118833	0.487380	0.115685
	C134	C	0.119172	0.506165	0.872601
	C135	C	0.878530	0.489796	0.873326
	C136	C	0.119791	0.876397	0.502012
	C137	C	0.119616	0.119618	0.485995
	C138	C	0.877398	0.118085	0.501999
	C139	C	0.874635	0.874597	0.486277
	C140	C	0.507521	0.117361	0.872814
	C141	C	0.491479	0.118494	0.114878
	C142	C	0.507675	0.876932	0.114487
	C143	C	0.489301	0.876645	0.871497
	C144	C	0.376125	0.887366	0.672319
	C145	C	0.624031	0.106685	0.676561
	C146	C	0.619613	0.886827	0.315344
	C147	C	0.375714	0.107500	0.311834
	C148	C	0.680672	0.374902	0.884256
	C149	C	0.681846	0.623311	0.100561
	C150	C	0.316946	0.619505	0.885786
	C151	C	0.316600	0.372075	0.101307
	C152	C	0.886851	0.674730	0.374124
	C153	C	0.109153	0.676032	0.614698
	C154	C	0.888849	0.314581	0.619524
	C155	C	0.106397	0.315917	0.370660
	C156	C	0.889169	0.371889	0.677587
	C157	C	0.108657	0.619513	0.673325
	C158	C	0.887942	0.618868	0.314733
	C159	C	0.106139	0.372650	0.312401
	C160	C	0.373787	0.678811	0.886480
	C161	C	0.623541	0.680918	0.101050
	C162	C	0.623435	0.315899	0.884509
	C163	C	0.374713	0.314306	0.101095
	C164	C	0.674745	0.885497	0.375448
	C165	C	0.680649	0.106839	0.618121
	C166	C	0.320298	0.886725	0.612817
	C167	C	0.318461	0.107749	0.370112
	C168	C	0.871973	0.388856	0.176705
	C169	C	0.121382	0.606076	0.173906
	C170	C	0.121594	0.388775	0.812284
	C171	C	0.874770	0.607205	0.812489
	C172	C	0.174845	0.879157	0.382677
	C173	C	0.182333	0.123715	0.601310
	C174	C	0.817706	0.119595	0.385328
	C175	C	0.819705	0.877771	0.605875
	C176	C	0.388140	0.175582	0.873208
	C177	C	0.610901	0.177298	0.114621
	C178	C	0.387772	0.819449	0.114076
	C179	C	0.608169	0.818157	0.871114
	C180	C	0.388807	0.875909	0.172904
	C181	C	0.610986	0.119881	0.172612
	C182	C	0.388558	0.119794	0.813940
	C183	C	0.608140	0.875164	0.812801
	C184	C	0.874148	0.179276	0.386074
	C185	C	0.124817	0.181986	0.601282
	C186	C	0.115850	0.821563	0.382631
	C187	C	0.877391	0.819532	0.605605
	C188	C	0.176932	0.387140	0.872054
	C189	C	0.178335	0.606262	0.115386
	C190	C	0.815128	0.388639	0.117956
	C191	C	0.818566	0.607744	0.871462
	C192	C	0.403439	0.088994	0.590608
	C193	C	0.593579	0.906983	0.591848
	C194	C	0.596073	0.089088	0.396056
	C195	C	0.401423	0.906668	0.394659
	C196	C	0.593638	0.401885	0.081799
	C197	C	0.593758	0.594258	0.904291
	C198	C	0.401620	0.593793	0.084151
	C199	C	0.400539	0.398814	0.902324
	C200	C	0.090943	0.596307	0.395234
	C201	C	0.905474	0.595217	0.593185
	C202	C	0.087139	0.404962	0.588505
	C203	C	0.907332	0.403709	0.400005
	C204	C	0.903603	0.588015	0.091109
	C205	C	0.093204	0.405070	0.091760
	C206	C	0.094291	0.588459	0.897374
	C207	C	0.904114	0.407841	0.898727
	C208	C	0.097549	0.898840	0.585079
	C209	C	0.092853	0.093175	0.405651
	C210	C	0.903475	0.092532	0.583336
	C211	C	0.896471	0.896573	0.403121
	C212	C	0.589990	0.092244	0.896957
	C213	C	0.408560	0.093470	0.091194
	C214	C	0.590930	0.900870	0.091010
	C215	C	0.406524	0.901318	0.895690
	Zn216	Zn	0.498309	-0.002267	0.743746
	Zn217	Zn	0.499950	-0.002240	0.243601
	Zn218	Zn	0.749316	0.498130	-0.006513
	Zn219	Zn	0.247369	0.496223	-0.005903
	Zn220	Zn	-0.002492	0.746927	0.494633
	Zn221	Zn	-0.002217	0.248530	0.494747
	Zn222	Zn	-0.001690	0.497546	0.743949
	Zn223	Zn	-0.002317	0.496873	0.244827
	Zn224	Zn	0.497961	0.748653	-0.006301
	Zn225	Zn	0.499517	0.246274	-0.006736
	Zn226	Zn	0.747046	-0.002645	0.494767
	Zn227	Zn	0.249480	-0.001417	0.493034
	N228	N	0.411263	0.962875	0.673566
	N229	N	0.586462	0.032542	0.675573
	N230	N	0.586172	0.962693	0.313760
	N231	N	0.411694	0.032800	0.312091
	N232	N	0.678378	0.412153	0.957612
	N233	N	0.679941	0.586287	0.027262
	N234	N	0.318680	0.582514	0.959212
	N235	N	0.317083	0.408313	0.027446
	N236	N	0.962111	0.675258	0.409247
	N237	N	0.033602	0.676204	0.580093
	N238	N	0.962395	0.317805	0.581378
	N239	N	0.032703	0.318892	0.408700
	N240	N	0.963009	0.410109	0.675053
	N241	N	0.032788	0.585074	0.674652
	N242	N	0.963923	0.585024	0.313532
	N243	N	0.031975	0.410090	0.314333
	N244	N	0.410215	0.678430	0.960175
	N245	N	0.585836	0.679219	0.027969
	N246	N	0.586283	0.316771	0.957999
	N247	N	0.411023	0.315351	0.027252
	N248	N	0.674907	0.960519	0.410685
	N249	N	0.677968	0.032867	0.581116
	N250	N	0.321369	0.961673	0.577486
	N251	N	0.319264	0.033291	0.406132
	N252	N	0.909535	0.462998	0.175544
	N253	N	0.085187	0.531331	0.174504
	N254	N	0.086186	0.463779	0.812687
	N255	N	0.911160	0.532613	0.813261
	N256	N	0.177718	0.911951	0.458124
	N257	N	0.179176	0.085453	0.528565
	N258	N	0.819359	0.082359	0.458669
	N259	N	0.817523	0.910906	0.530437
	N260	N	0.463176	0.174615	0.908908
	N261	N	0.535528	0.176843	0.079766
	N262	N	0.462945	0.819705	0.078773
	N263	N	0.533192	0.818742	0.906813
	N264	N	0.464535	0.910569	0.173663
	N265	N	0.535462	0.084456	0.173480
	N266	N	0.463814	0.084652	0.813291
	N267	N	0.532927	0.910333	0.812594
	N268	N	0.910353	0.178380	0.459964
	N269	N	0.086311	0.179571	0.528588
	N270	N	0.082662	0.819299	0.458064
	N271	N	0.910602	0.817177	0.530228
	N272	N	0.175714	0.461285	0.908849
	N273	N	0.176970	0.531294	0.079999
	N274	N	0.817729	0.462748	0.081072
	N275	N	0.820795	0.533765	0.908660
	O276	O	0.199236	0.792702	-0.211369
	H277	H	0.234823	0.759408	-0.237259
	H278	H	0.207094	0.786376	-0.156843
	O279	O	0.284145	0.326690	0.479497
	H280	H	0.270873	0.301909	0.496944
	H281	H	0.298608	0.335188	0.494286
	O282	O	1.206505	-0.006712	1.009630
	H283	H	1.203042	0.014034	1.016011
	H284	H	1.211569	0.005170	0.986392
	O285	O	0.496662	0.491015	0.724923
	H286	H	0.514124	0.490678	0.721008
	H287	H	0.507042	0.480408	0.724661
	O288	O	0.474517	0.438072	0.566066
	H289	H	0.480343	0.431326	0.584438
	H290	H	0.498424	0.436762	0.552068
	O291	O	0.311745	0.415324	0.556476
	H292	H	0.312470	0.407208	0.561002
	H293	H	0.317626	0.413165	0.567924
	O294	O	0.780889	0.213103	0.959644
	H295	H	0.794078	0.207543	0.928418
	H296	H	0.749258	0.234615	0.956140
	O297	O	0.460031	0.717787	0.263064
	H298	H	0.450495	0.716371	0.283657
	H299	H	0.459339	0.751512	0.233819
	O300	O	-0.023796	0.204054	0.784130
	H301	H	-0.015260	0.189959	0.777073
	H302	H	-0.025388	0.210561	0.771038
	O303	O	0.683492	0.600964	0.599773
	H304	H	0.691244	0.599294	0.601818
	H305	H	0.681196	0.613506	0.597986
	O306	O	0.719309	0.274899	0.467145
	H307	H	0.750964	0.254607	0.467082
	H308	H	0.717582	0.284336	0.426937
	O309	O	0.491697	0.647665	0.722544
	H310	H	0.504882	0.665470	0.739394
	H311	H	0.531413	0.647471	0.723444
	O312	O	0.551845	0.555897	0.711550
	H313	H	0.567408	0.555436	0.704635
	H314	H	0.553983	0.578679	0.697020
	O315	O	0.951467	0.768305	0.946257
	H316	H	0.952426	0.764582	0.908241
	H317	H	0.927009	0.761496	0.948940
	O318	O	0.501163	0.435133	0.369189
	H319	H	0.502623	0.424675	0.373788
	H320	H	0.496442	0.437369	0.381131
	O321	O	0.218059	0.960382	0.767439
	H322	H	0.232227	0.940625	0.755271
	H323	H	0.230413	0.929550	0.757513
	O324	O	0.969193	0.987501	0.135309
	H325	H	0.950912	0.985796	0.135174
	H326	H	0.973001	0.987860	0.142232
	O327	O	0.030055	0.076055	1.133741
	H328	H	0.018747	0.081844	1.134860
	H329	H	0.028403	0.079639	1.128650
	O330	O	0.659468	0.468304	0.496721
	H331	H	0.653548	0.471822	0.475501
	H332	H	0.656523	0.476434	0.484449
	O333	O	0.470150	0.279774	0.718523
	H334	H	0.479010	0.251977	0.741385
	H335	H	0.494996	0.290445	0.714409
	O336	O	0.699775	0.292715	0.293472
	H337	H	0.664695	0.293252	0.291640
	H338	H	0.714665	0.324660	0.283635
	O339	O	0.922514	0.034931	0.780291
	H340	H	0.926148	0.035516	0.778491
	H341	H	0.942444	0.024817	0.773543
	O342	O	-0.035569	-0.206138	0.211626
	H343	H	-0.016740	-0.174733	0.211593
	H344	H	-0.028379	-0.230296	0.229887
	O345	O	-0.161165	0.975069	1.006429
	H346	H	-0.150455	0.976361	1.010411
	H347	H	-0.161384	0.976325	1.005283
	O348	O	0.309048	0.303768	0.298082
	H349	H	0.275377	0.271106	0.272362
	H350	H	0.301960	0.311935	0.328323
	O351	O	0.690793	0.685871	0.297799
	H352	H	0.660778	0.665490	0.300404
	H353	H	0.682311	0.664254	0.326266
	O354	O	-0.097043	0.086354	1.001760
	H355	H	-0.097919	0.080469	1.009025
	H356	H	-0.107161	0.101630	0.985914
	O357	O	0.603027	0.546688	0.280379
	H358	H	0.580819	0.545021	0.294071
	H359	H	0.582593	0.550879	0.281799
	O360	O	0.281592	0.284277	0.717734
	H361	H	0.285689	0.318307	0.703916
	H362	H	0.321928	0.291985	0.715529
	O363	O	0.021074	0.072911	0.076341
	H364	H	0.024789	0.071843	0.076016
	H365	H	0.006115	0.077721	0.073940
	O366	O	0.679784	0.663951	0.550659
	H367	H	0.688928	0.680085	0.566111
	H368	H	0.685705	0.672753	0.574349
	O369	O	0.907660	0.109348	0.081295
	H370	H	0.891994	0.113180	0.070465
	H371	H	0.890883	0.103506	0.092292
	O372	O	0.786269	0.783491	0.018100
	H373	H	0.768678	0.760654	0.034594
	H374	H	0.783823	0.794678	0.040886
	O375	O	0.775732	-0.035961	0.215825
	H376	H	0.751031	-0.055320	0.237016
	H377	H	0.774849	-0.069345	0.214699
	O378	O	0.425578	0.477618	0.304407
	H379	H	0.407757	0.467680	0.309879
	H380	H	0.422568	0.471751	0.308654
	O381	O	0.030021	0.774543	0.774440
	H382	H	0.055062	0.757037	0.757938
	H383	H	0.060003	0.772394	0.766807
	O384	O	0.957254	-0.038545	0.853901
	H385	H	0.971943	-0.034398	0.865421
	H386	H	0.972044	-0.047146	0.842902
	O387	O	0.947379	0.845358	0.034433
	H388	H	0.935575	0.845332	0.047437
	H389	H	0.945233	0.839157	0.036366
	O390	O	0.535183	0.271625	0.267473
	H391	H	0.539053	0.271768	0.251629
	H392	H	0.520886	0.260767	0.249934
	O393	O	0.376397	0.616549	0.546073
	H394	H	0.370651	0.598464	0.538823
	H395	H	0.362732	0.632358	0.532657
	O396	O	0.019317	0.982637	0.854128
	H397	H	0.034230	0.976859	0.857844
	H398	H	0.029238	0.985602	0.852348
	O399	O	0.200995	-0.207385	0.949148
	H400	H	0.202523	-0.192743	0.973795
	H401	H	0.205697	-0.218185	0.968718
	O402	O	0.448066	0.600980	0.452861
	H403	H	0.452744	0.599412	0.456729
	H404	H	0.453566	0.592749	0.463426
	O405	O	1.004629	0.203825	1.160674
	H406	H	0.992713	0.210232	1.139605
	H407	H	0.993658	0.212460	1.172536
	O408	O	0.206808	0.199959	0.036905
	H409	H	0.199603	0.206225	0.019350
	H410	H	0.201825	0.213438	0.014036
	O411	O	0.706826	0.704440	0.705618
	H412	H	0.704295	0.671705	0.699815
	H413	H	0.731197	0.731932	0.737043
	O414	O	0.653409	0.518119	0.648820
	H415	H	0.662628	0.522183	0.635471
	H416	H	0.655649	0.517140	0.643083
	O417	O	0.472416	0.681534	0.529833
	H418	H	0.450069	0.676556	0.526790
	H419	H	0.468326	0.682134	0.543133
	O420	O	0.306952	0.686375	0.693852
	H421	H	0.320149	0.668715	0.663882
	H422	H	0.331641	0.663019	0.690977
	O423	O	0.017651	0.155428	0.997808
	H424	H	0.009342	0.147223	0.977048
	H425	H	0.007128	0.152752	1.002728
	O426	O	0.270640	0.726068	0.448450
	H427	H	0.259760	0.738534	0.420406
	H428	H	0.253692	0.744691	0.424389
	O429	O	0.819640	1.128700	1.139066
	H430	H	0.821972	1.108749	1.131252
	H431	H	0.807541	1.124046	1.145293
	O432	O	0.591788	0.674416	0.429202
	H433	H	0.602386	0.683095	0.444758
	H434	H	0.573235	0.681449	0.424190
	O435	O	0.131776	0.792326	0.127253
	H436	H	0.099750	0.797029	0.113275
	H437	H	0.125461	0.811029	0.108808
	O438	O	0.201458	0.029147	0.196190
	H439	H	0.191749	0.059514	0.193748
	H440	H	0.215173	0.048466	0.218108
	O441	O	0.195955	0.200177	0.203101
	H442	H	0.198630	0.194236	0.157587
	H443	H	0.151242	0.200536	0.201643
	O444	O	0.464622	0.281216	0.421334
	H445	H	0.465747	0.272644	0.401328
	H446	H	0.448234	0.282158	0.411733
	O447	O	0.151184	1.045520	0.867154
	H448	H	0.157107	1.049520	0.853635
	H449	H	0.157125	1.046999	0.857343
	O450	O	0.177130	0.894040	1.124404
	H451	H	0.180839	0.918718	1.100958
	H452	H	0.168938	0.914694	1.131716
	O453	O	0.296516	0.474414	0.702635
	H454	H	0.317646	0.492160	0.695454
	H455	H	0.284301	0.487587	0.708421
	O456	O	0.178682	0.182071	0.812690
	H457	H	0.189547	0.194679	0.797172
	H458	H	0.172295	0.190484	0.797441
	O459	O	0.789397	0.791638	0.200810
	H460	H	0.835025	0.785247	0.199443
	H461	H	0.760419	0.756380	0.233240
	O462	O	0.688467	0.460355	0.283972
	H463	H	0.677292	0.471112	0.282459
	H464	H	0.687625	0.471168	0.263066
	O465	O	0.919123	0.002828	-0.059142
	H466	H	0.921857	-0.000927	-0.050361
	H467	H	0.912743	-0.010253	-0.066121
	O468	O	0.283052	0.530087	0.273815
	H469	H	0.270938	0.521987	0.265698
	H470	H	0.274082	0.526555	0.273910
	O471	O	0.614997	0.371511	0.638118
	H472	H	0.621782	0.369116	0.623120
	H473	H	0.614323	0.382099	0.643063
	O474	O	0.286845	0.708188	0.283022
	H475	H	0.278765	0.688615	0.264620
	H476	H	0.288157	0.723030	0.258215
	O477	O	0.314628	0.480455	1.401334
	H478	H	0.317201	0.487572	1.402022
	H479	H	0.306259	0.464423	1.405924
	O480	O	0.594784	0.307840	0.548483
	H481	H	0.592644	0.304982	0.524135
	H482	H	0.614601	0.303996	0.524769
	O483	O	0.608451	0.508649	0.492899
	H484	H	0.598984	0.516456	0.483095
	H485	H	0.598130	0.501508	0.491758
	O486	O	0.802282	0.191174	0.793214
	H487	H	0.802389	0.186311	0.790552
	H488	H	0.824197	0.171354	0.787049
	O489	O	0.812362	0.821468	-0.167472
	H490	H	0.836859	0.835771	-0.161971
	H491	H	0.820459	0.843876	-0.144729
