data_Molecule from HDF5

_cell_length_a		16.274155
_cell_length_b		16.224335
_cell_length_c		16.267554
_cell_angle_alpha	89.878730
_cell_angle_beta	91.009657
_cell_angle_gamma	90.137497
_symmetry_space_group_name_H-M	'P 1'
_symmetry_Int_Tables_number		1

loop_
	_symmetry_equiv_pos_as_xyz
	x,y,z

loop_
	_atom_site_label
	_atom_site_type_symbol
	_atom_site_fract_x
	_atom_site_fract_y
	_atom_site_fract_z
	H0	H	0.391340	0.839560	0.715167
	H1	H	0.593621	0.165613	0.718854
	H2	H	0.585124	0.838474	0.287688
	H3	H	0.386311	0.165779	0.281541
	H4	H	0.701690	0.402846	0.836883
	H5	H	0.710934	0.603401	0.162689
	H6	H	0.267275	0.606744	0.840029
	H7	H	0.276376	0.401810	0.165148
	H8	H	0.826291	0.717410	0.396389
	H9	H	0.152466	0.718011	0.603507
	H10	H	0.827253	0.284701	0.598546
	H11	H	0.154490	0.286906	0.404426
	H12	H	0.826224	0.400141	0.713007
	H13	H	0.150959	0.603114	0.721530
	H14	H	0.828092	0.601732	0.280549
	H15	H	0.154921	0.402137	0.288480
	H16	H	0.387887	0.716590	0.836790
	H17	H	0.593166	0.717803	0.164009
	H18	H	0.586068	0.287559	0.837718
	H19	H	0.392461	0.286181	0.164441
	H20	H	0.700486	0.837857	0.403012
	H21	H	0.708542	0.164954	0.603297
	H22	H	0.277343	0.838177	0.597281
	H23	H	0.270989	0.165360	0.396155
	H24	H	0.891714	0.338754	0.214054
	H25	H	0.094372	0.665117	0.219215
	H26	H	0.087751	0.338777	0.787287
	H27	H	0.884914	0.664350	0.779856
	H28	H	0.202277	0.901031	0.336320
	H29	H	0.211383	0.103939	0.662044
	H30	H	0.768751	0.103515	0.337372
	H31	H	0.777139	0.901758	0.664169
	H32	H	0.326994	0.219015	0.896247
	H33	H	0.652527	0.218760	0.104616
	H34	H	0.327265	0.784458	0.098233
	H35	H	0.653080	0.787332	0.903730
	H36	H	0.324964	0.901768	0.210934
	H37	H	0.650808	0.104232	0.221076
	H38	H	0.328411	0.103791	0.779335
	H39	H	0.653437	0.903153	0.788985
	H40	H	0.887024	0.218934	0.336558
	H41	H	0.092940	0.215833	0.664682
	H42	H	0.084329	0.787096	0.336894
	H43	H	0.891471	0.785882	0.662928
	H44	H	0.202903	0.339480	0.903902
	H45	H	0.207214	0.665617	0.104349
	H46	H	0.777150	0.338695	0.097797
	H47	H	0.773413	0.666206	0.897788
	H48	H	0.398151	0.121838	0.598344
	H49	H	0.569572	0.885998	0.608118
	H50	H	0.575002	0.116118	0.414688
	H51	H	0.392517	0.883448	0.400728
	H52	H	0.587773	0.415329	0.116364
	H53	H	0.578354	0.585911	0.888534
	H54	H	0.400832	0.594601	0.117582
	H55	H	0.396597	0.405872	0.884129
	H56	H	0.101023	0.589663	0.423013
	H57	H	0.874855	0.590796	0.586882
	H58	H	0.106854	0.407361	0.596887
	H59	H	0.874697	0.418691	0.398349
	H60	H	0.105457	0.411152	0.592667
	H61	H	0.872547	0.592152	0.593725
	H62	H	0.106954	0.587927	0.401722
	H63	H	0.870950	0.399860	0.402910
	H64	H	0.399971	0.594476	0.117024
	H65	H	0.573127	0.604291	0.883643
	H66	H	0.580254	0.412230	0.115731
	H67	H	0.388039	0.414311	0.883728
	H68	H	0.584884	0.119870	0.413099
	H69	H	0.580192	0.891957	0.578416
	H70	H	0.410653	0.115175	0.588408
	H71	H	0.401339	0.887309	0.405635
	H72	H	0.898896	0.616433	0.081976
	H73	H	0.083265	0.386078	0.094982
	H74	H	0.076460	0.620459	0.904129
	H75	H	0.897836	0.387773	0.911570
	H76	H	0.085547	0.909509	0.617263
	H77	H	0.081653	0.104354	0.380930
	H78	H	0.896498	0.092252	0.616796
	H79	H	0.902539	0.913864	0.388087
	H80	H	0.604482	0.094562	0.916832
	H81	H	0.372068	0.092166	0.096801
	H82	H	0.603698	0.917607	0.097815
	H83	H	0.373387	0.907629	0.907910
	H84	H	0.608364	0.907040	0.100102
	H85	H	0.370919	0.102321	0.088038
	H86	H	0.605765	0.091914	0.908032
	H87	H	0.374936	0.913127	0.906002
	H88	H	0.902265	0.088559	0.613627
	H89	H	0.086652	0.086975	0.384194
	H90	H	0.085572	0.912999	0.615963
	H91	H	0.891362	0.900850	0.379792
	H92	H	0.071538	0.615012	0.915859
	H93	H	0.083346	0.385334	0.094974
	H94	H	0.893464	0.622959	0.096590
	H95	H	0.888245	0.383898	0.907652
	H96	H	0.394601	0.118726	0.581756
	H97	H	0.599825	0.878814	0.600692
	H98	H	0.576929	0.120132	0.404493
	H99	H	0.391627	0.886502	0.411669
	H100	H	0.585551	0.407672	0.118772
	H101	H	0.591175	0.598241	0.879890
	H102	H	0.400250	0.593901	0.116439
	H103	H	0.398838	0.416747	0.888924
	H104	H	0.110834	0.607584	0.412210
	H105	H	0.872323	0.597221	0.588347
	H106	H	0.106050	0.412926	0.598294
	H107	H	0.879077	0.412490	0.416842
	H108	H	0.909354	0.617482	0.094891
	H109	H	0.083723	0.385800	0.095463
	H110	H	0.084396	0.619313	0.915594
	H111	H	0.897079	0.384593	0.900723
	H112	H	0.082754	0.911171	0.615335
	H113	H	0.069834	0.092389	0.387714
	H114	H	0.902557	0.096143	0.615556
	H115	H	0.884779	0.917691	0.383566
	H116	H	0.608854	0.100669	0.910496
	H117	H	0.375754	0.089589	0.084057
	H118	H	0.604412	0.909684	0.088915
	H119	H	0.372144	0.908595	0.902179
	C120	C	0.371221	0.010859	0.619254
	C121	C	0.613286	0.993529	0.624586
	C122	C	0.607841	0.010574	0.381270
	C123	C	0.365326	0.993786	0.376042
	C124	C	0.611279	0.382119	0.009164
	C125	C	0.612470	0.625207	0.991743
	C126	C	0.368287	0.624552	0.009485
	C127	C	0.367188	0.381541	0.993166
	C128	C	-0.001460	0.623783	0.379640
	C129	C	0.980506	0.623963	0.622238
	C130	C	-0.001807	0.380465	0.622751
	C131	C	0.982836	0.381108	0.379303
	C132	C	0.871050	0.510783	0.120153
	C133	C	0.113587	0.493509	0.125216
	C134	C	0.107350	0.510669	0.882316
	C135	C	0.865348	0.493405	0.876431
	C136	C	0.110987	0.881469	0.508092
	C137	C	0.111746	0.124114	0.491812
	C138	C	0.868141	0.123371	0.507825
	C139	C	0.866640	0.881141	0.491793
	C140	C	0.498667	0.124838	0.879201
	C141	C	0.480377	0.124684	0.121958
	C142	C	0.497466	0.881380	0.122038
	C143	C	0.481743	0.881080	0.879058
	C144	C	0.371985	0.887956	0.676099
	C145	C	0.612980	0.116628	0.680646
	C146	C	0.605557	0.887453	0.325467
	C147	C	0.366378	0.116725	0.319610
	C148	C	0.664791	0.383208	0.885922
	C149	C	0.671563	0.623748	0.114071
	C150	C	0.308116	0.624693	0.887988
	C151	C	0.313724	0.382510	0.116147
	C152	C	0.875429	0.679401	0.377766
	C153	C	0.103179	0.680575	0.623505
	C154	C	0.875833	0.322991	0.619316
	C155	C	0.105597	0.324810	0.383007
	C156	C	0.875151	0.380886	0.675777
	C157	C	0.102486	0.623294	0.682035
	C158	C	0.876448	0.621817	0.320110
	C159	C	0.105812	0.382174	0.325379
	C160	C	0.368159	0.679679	0.886362
	C161	C	0.612521	0.680147	0.114845
	C162	C	0.607085	0.325940	0.886306
	C163	C	0.371460	0.324609	0.115598
	C164	C	0.663129	0.887195	0.382653
	C165	C	0.670316	0.116259	0.623431
	C166	C	0.315080	0.887387	0.617671
	C167	C	0.309267	0.116553	0.376694
	C168	C	0.872449	0.387636	0.175858
	C169	C	0.113338	0.616207	0.181505
	C170	C	0.107143	0.387804	0.825758
	C171	C	0.865918	0.615945	0.819019
	C172	C	0.164456	0.882261	0.385148
	C173	C	0.171369	0.123121	0.613906
	C174	C	0.808568	0.122944	0.385775
	C175	C	0.813656	0.882003	0.615116
	C176	C	0.376038	0.181069	0.877566
	C177	C	0.603217	0.180908	0.123637
	C178	C	0.375438	0.823655	0.118390
	C179	C	0.604537	0.825587	0.883153
	C180	C	0.374373	0.882061	0.174773
	C181	C	0.602339	0.123907	0.181745
	C182	C	0.376631	0.123751	0.819444
	C183	C	0.604683	0.882992	0.825958
	C184	C	0.867747	0.180114	0.385334
	C185	C	0.112417	0.179218	0.615044
	C186	C	0.106140	0.825229	0.385461
	C187	C	0.870735	0.824303	0.614398
	C188	C	0.164436	0.387910	0.883779
	C189	C	0.169645	0.616605	0.124231
	C190	C	0.814760	0.387875	0.118320
	C191	C	0.810473	0.616829	0.877672
	C192	C	0.394302	0.096320	0.596221
	C193	C	0.589999	0.907740	0.602295
	C194	C	0.585556	0.096414	0.404138
	C195	C	0.388217	0.908035	0.399317
	C196	C	0.590768	0.405040	0.094515
	C197	C	0.587924	0.602771	0.906135
	C198	C	0.393233	0.601005	0.095096
	C199	C	0.388276	0.405312	0.907728
	C200	C	0.084046	0.601663	0.404952
	C201	C	0.895267	0.600229	0.597024
	C202	C	0.083822	0.403788	0.602193
	C203	C	0.897271	0.403634	0.399986
	C204	C	0.894063	0.596920	0.097636
	C205	C	0.090397	0.407768	0.101879
	C206	C	0.084243	0.595945	0.905138
	C207	C	0.887783	0.407617	0.899530
	C208	C	0.090544	0.904482	0.593835
	C209	C	0.086601	0.101176	0.406426
	C210	C	0.893214	0.099550	0.593124
	C211	C	0.887031	0.904054	0.406075
	C212	C	0.584115	0.102195	0.904279
	C213	C	0.395131	0.101547	0.096644
	C214	C	0.583290	0.904563	0.101543
	C215	C	0.395718	0.903269	0.899368
	Zn216	Zn	0.491216	0.002900	0.751030
	Zn217	Zn	0.487968	0.002578	0.250194
	Zn218	Zn	0.740399	0.502771	-0.000226
	Zn219	Zn	0.238514	0.503490	0.002309
	Zn220	Zn	-0.011006	0.752989	0.500402
	Zn221	Zn	-0.009694	0.252355	0.500493
	Zn222	Zn	-0.012074	0.501798	0.750771
	Zn223	Zn	-0.008365	0.502163	0.250619
	Zn224	Zn	0.489950	0.753059	0.000323
	Zn225	Zn	0.489996	0.253351	0.000975
	Zn226	Zn	0.738402	0.001673	0.500906
	Zn227	Zn	0.240300	0.002835	0.499229
	N228	N	0.406244	0.965632	0.677242
	N229	N	0.578288	0.039275	0.681516
	N230	N	0.571989	0.965272	0.324232
	N231	N	0.400473	0.039306	0.318945
	N232	N	0.667618	0.417416	0.963248
	N233	N	0.671480	0.590147	0.036631
	N234	N	0.308124	0.591117	0.965711
	N235	N	0.310911	0.417379	0.038902
	N236	N	0.952361	0.680759	0.414202
	N237	N	0.026223	0.681105	0.587112
	N238	N	0.953422	0.322262	0.587178
	N239	N	0.028191	0.323738	0.415713
	N240	N	0.952271	0.415691	0.678338
	N241	N	0.024976	0.589132	0.681584
	N242	N	0.954015	0.588290	0.320909
	N243	N	0.028627	0.416453	0.322933
	N244	N	0.404765	0.679742	0.963261
	N245	N	0.576555	0.681316	0.037714
	N246	N	0.574518	0.325145	0.963738
	N247	N	0.403923	0.324033	0.038149
	N248	N	0.664693	0.964725	0.416528
	N249	N	0.670631	0.038790	0.589385
	N250	N	0.314385	0.964796	0.583115
	N251	N	0.308314	0.038981	0.410949
	N252	N	0.906860	0.465353	0.177046
	N253	N	0.079191	0.538542	0.182196
	N254	N	0.072439	0.464934	0.824775
	N255	N	0.899383	0.538145	0.818017
	N256	N	0.167556	0.916491	0.462530
	N257	N	0.171131	0.089646	0.536284
	N258	N	0.809014	0.088221	0.463062
	N259	N	0.810856	0.916407	0.537824
	N260	N	0.453092	0.181974	0.913902
	N261	N	0.526429	0.181356	0.087088
	N262	N	0.453082	0.823067	0.086433
	N263	N	0.527131	0.824289	0.915391
	N264	N	0.451257	0.917473	0.177008
	N265	N	0.524835	0.089817	0.180987
	N266	N	0.453854	0.089559	0.820378
	N267	N	0.527322	0.916980	0.823257
	N268	N	0.903983	0.180451	0.462258
	N269	N	0.076099	0.179993	0.537932
	N270	N	0.073678	0.824505	0.462937
	N271	N	0.902903	0.823383	0.536801
	N272	N	0.164681	0.465221	0.918518
	N273	N	0.170050	0.539352	0.089834
	N274	N	0.813984	0.465459	0.084270
	N275	N	0.809913	0.539636	0.912535
	O276	O	0.968583	0.047682	0.881927
	H277	H	0.971362	0.045381	0.881371
	H278	H	0.954498	0.043197	0.883880
	O279	O	0.500934	0.435694	0.519827
	H280	H	0.496857	0.433389	0.523020
	H281	H	0.513059	0.427183	0.521047
	O282	O	0.439848	0.463095	0.544871
	H283	H	0.443798	0.463558	0.544755
	H284	H	0.444882	0.474037	0.546145
	O285	O	0.440171	0.627607	0.415940
	H286	H	0.432201	0.634162	0.410870
	H287	H	0.433387	0.627803	0.417414
	O288	O	0.518115	0.366987	0.408960
	H289	H	0.510430	0.357987	0.407457
	H290	H	0.514900	0.364065	0.412249
	O291	O	-0.016502	-0.002980	1.142939
	H292	H	-0.022487	-0.005431	1.145651
	H293	H	-0.019017	0.002475	1.143845
	O294	O	0.996383	1.014990	-0.075978
	H295	H	0.995681	1.005151	-0.073907
	H296	H	1.004537	1.018726	-0.072199
	O297	O	1.089393	0.934436	-0.007803
	H298	H	1.096831	0.938389	-0.007763
	H299	H	1.083657	0.934029	0.002924
	O300	O	0.491430	0.601849	0.416947
	H301	H	0.485245	0.595142	0.422859
	H302	H	0.484539	0.596068	0.403800
	O303	O	0.995826	-0.010896	1.005172
	H304	H	1.002697	-0.005485	1.019662
	H305	H	0.984826	-0.015783	0.999127
	O306	O	0.403027	0.515185	0.571401
	H307	H	0.402294	0.522573	0.580961
	H308	H	0.407934	0.517387	0.572402
	O309	O	0.523863	0.566175	0.512790
	H310	H	0.521095	0.560329	0.518543
	H311	H	0.522499	0.566335	0.506619
	O312	O	0.463275	1.501353	0.447334
	H313	H	0.455561	1.510569	0.445180
	H314	H	0.454005	1.494248	0.468133
	O315	O	1.357281	0.529228	0.605915
	H316	H	1.360142	0.513737	0.607760
	H317	H	1.353928	0.536372	0.590442
	O318	O	0.472033	0.459832	0.529636
	H319	H	0.478991	0.457348	0.536814
	H320	H	0.474492	0.446207	0.547878
	O321	O	0.482184	0.541322	0.393256
	H322	H	0.476279	0.537030	0.394978
	H323	H	0.477487	0.552817	0.382469
	O324	O	0.062169	1.041058	1.069685
	H325	H	0.083073	1.047674	1.073934
	H326	H	0.069751	1.057488	1.068295
	O327	O	0.095969	0.933780	1.046879
	H328	H	0.100000	0.941421	1.043086
	H329	H	0.094314	0.940942	1.048892
	O330	O	-0.034870	0.042338	-0.012303
	H331	H	-0.040769	0.049953	-0.014125
	H332	H	-0.028038	0.034864	-0.024565
	O333	O	0.648134	0.551868	0.569162
	H334	H	0.666567	0.542213	0.575222
	H335	H	0.639537	0.557555	0.561248
	O336	O	0.032796	-0.021624	0.068199
	H337	H	0.034895	-0.024940	0.066424
	H338	H	0.026816	-0.028878	0.073991
	O339	O	-0.110335	0.094804	0.014440
	H340	H	-0.109151	0.086061	0.003167
	H341	H	-0.104975	0.096705	0.010291
	O342	O	0.461560	0.388262	0.594654
	H343	H	0.462676	0.393720	0.587524
	H344	H	0.472096	0.384704	0.607065
	O345	O	-0.053788	1.034295	0.981674
	H346	H	-0.061358	1.028399	0.996803
	H347	H	-0.053026	1.038046	0.969859
	O348	O	0.522783	0.566452	0.441504
	H349	H	0.526571	0.557630	0.447784
	H350	H	0.529198	0.555019	0.428516
	O351	O	0.566633	0.373068	0.437013
	H352	H	0.579382	0.367706	0.432320
	H353	H	0.566783	0.383292	0.429693
	O354	O	0.031603	0.983557	0.056786
	H355	H	0.036057	0.993105	0.064485
	H356	H	0.025225	0.985889	0.056227
	O357	O	0.514570	0.474318	0.552484
	H358	H	0.516223	0.486065	0.555713
	H359	H	0.516556	0.479932	0.564944
	O360	O	0.944777	0.092490	0.874428
	H361	H	0.949628	0.096295	0.863429
	H362	H	0.939001	0.087939	0.874092
	O363	O	0.583257	0.607094	0.520529
	H364	H	0.587026	0.613065	0.531230
	H365	H	0.578340	0.607158	0.501938
	O366	O	1.066163	0.951771	0.033042
	H367	H	1.064674	0.970061	0.035793
	H368	H	1.063311	0.955989	0.039140
	O369	O	1.057646	0.043072	-0.046979
	H370	H	1.052308	0.046981	-0.058602
	H371	H	1.069529	0.042010	-0.046987
	O372	O	0.510787	0.536018	0.601097
	H373	H	0.507532	0.537687	0.594413
	H374	H	0.512682	0.535853	0.594878
	O375	O	1.068480	-0.013749	0.949559
	H376	H	1.071829	-0.009779	0.958369
	H377	H	1.062168	-0.026325	0.930821
	O378	O	-0.128997	0.878636	0.083921
	H379	H	-0.136713	0.871034	0.086349
	H380	H	-0.131912	0.873552	0.092480
	O381	O	0.457440	0.451004	0.395239
	H382	H	0.451320	0.459368	0.400564
	H383	H	0.462160	0.449236	0.394026
	O384	O	0.854411	1.065080	-0.062708
	H385	H	0.851589	1.065495	-0.075196
	H386	H	0.849866	1.045522	-0.067775
	O387	O	0.984576	-0.067738	0.965972
	H388	H	0.995924	-0.073876	0.972848
	H389	H	0.989322	-0.059819	0.959174
	O390	O	0.996340	0.905144	-0.129054
	H391	H	0.999339	0.892440	-0.133171
	H392	H	0.999196	0.905318	-0.115990
	O393	O	0.475903	0.505934	0.637233
	H394	H	0.473826	0.509828	0.628039
	H395	H	0.484867	0.503014	0.629417
