data_Molecule from HDF5

_cell_length_a		16.218712
_cell_length_b		16.195842
_cell_length_c		16.394339
_cell_angle_alpha	90.055253
_cell_angle_beta	90.094911
_cell_angle_gamma	89.914734
_symmetry_space_group_name_H-M	'P 1'
_symmetry_Int_Tables_number		1

loop_
	_symmetry_equiv_pos_as_xyz
	x,y,z

loop_
	_atom_site_label
	_atom_site_type_symbol
	_atom_site_fract_x
	_atom_site_fract_y
	_atom_site_fract_z
	H0	H	0.409736	0.833966	0.709471
	H1	H	0.610273	0.161107	0.710980
	H2	H	0.609762	0.833437	0.280213
	H3	H	0.410521	0.161640	0.280078
	H4	H	0.724047	0.396416	0.832830
	H5	H	0.723964	0.594936	0.157591
	H6	H	0.294209	0.594968	0.832186
	H7	H	0.293587	0.398306	0.157643
	H8	H	0.845236	0.710944	0.397651
	H9	H	0.174347	0.707795	0.590507
	H10	H	0.845063	0.284966	0.591044
	H11	H	0.174357	0.283862	0.397497
	H12	H	0.846591	0.395051	0.710581
	H13	H	0.172744	0.597270	0.710607
	H14	H	0.845639	0.599168	0.278041
	H15	H	0.173044	0.396486	0.278488
	H16	H	0.409551	0.711950	0.832851
	H17	H	0.608034	0.711919	0.158127
	H18	H	0.606827	0.281687	0.832114
	H19	H	0.410677	0.281773	0.158316
	H20	H	0.722819	0.832370	0.397284
	H21	H	0.722175	0.162300	0.591324
	H22	H	0.297017	0.832817	0.592517
	H23	H	0.297084	0.163037	0.398126
	H24	H	0.910128	0.333616	0.209331
	H25	H	0.108781	0.661071	0.209219
	H26	H	0.109493	0.333211	0.779244
	H27	H	0.908884	0.661316	0.779436
	H28	H	0.224013	0.899443	0.331928
	H29	H	0.223442	0.094918	0.658222
	H30	H	0.795649	0.094375	0.331871
	H31	H	0.795860	0.899276	0.658128
	H32	H	0.344440	0.208485	0.899980
	H33	H	0.674037	0.210406	0.093059
	H34	H	0.344220	0.786170	0.090552
	H35	H	0.673813	0.783594	0.898577
	H36	H	0.345581	0.898011	0.210006
	H37	H	0.673603	0.097469	0.210763
	H38	H	0.346399	0.098884	0.779190
	H39	H	0.672677	0.897247	0.779740
	H40	H	0.912168	0.210678	0.331667
	H41	H	0.107151	0.211475	0.658056
	H42	H	0.106557	0.783048	0.330926
	H43	H	0.912248	0.782383	0.657750
	H44	H	0.222832	0.331959	0.897091
	H45	H	0.221602	0.661689	0.091080
	H46	H	0.797288	0.332080	0.090654
	H47	H	0.794599	0.661399	0.897503
	H48	H	0.412940	0.115059	0.586621
	H49	H	0.605628	0.879027	0.589097
	H50	H	0.598508	0.110275	0.412720
	H51	H	0.425735	0.881088	0.395731
	H52	H	0.590502	0.406661	0.106550
	H53	H	0.603060	0.595842	0.877032
	H54	H	0.415973	0.583101	0.108278
	H55	H	0.414884	0.401799	0.879444
	H56	H	0.128228	0.585892	0.391587
	H57	H	0.893061	0.586741	0.589191
	H58	H	0.123444	0.417729	0.588719
	H59	H	0.895274	0.410912	0.404652
	H60	H	0.131350	0.399864	0.597269
	H61	H	0.890663	0.591262	0.589660
	H62	H	0.127865	0.596865	0.404751
	H63	H	0.890669	0.406184	0.391447
	H64	H	0.421108	0.597989	0.111394
	H65	H	0.606569	0.585241	0.879491
	H66	H	0.605496	0.389978	0.115445
	H67	H	0.414715	0.404346	0.879834
	H68	H	0.613763	0.118105	0.399548
	H69	H	0.599973	0.879528	0.591786
	H70	H	0.416936	0.116548	0.592161
	H71	H	0.418794	0.883023	0.410818
	H72	H	0.909664	0.616389	0.087470
	H73	H	0.094349	0.379714	0.093986
	H74	H	0.101968	0.614695	0.898171
	H75	H	0.924828	0.378225	0.888141
	H76	H	0.112899	0.904201	0.612819
	H77	H	0.104855	0.093715	0.378052
	H78	H	0.907433	0.090237	0.613105
	H79	H	0.918658	0.904409	0.380418
	H80	H	0.627881	0.086702	0.896528
	H81	H	0.395414	0.089776	0.081030
	H82	H	0.625911	0.908962	0.093720
	H83	H	0.391027	0.902770	0.898933
	H84	H	0.628690	0.897830	0.090011
	H85	H	0.393745	0.081720	0.092659
	H86	H	0.628162	0.094734	0.902696
	H87	H	0.392846	0.903987	0.903264
	H88	H	0.920723	0.085698	0.607615
	H89	H	0.104593	0.087563	0.379704
	H90	H	0.098550	0.910156	0.606738
	H91	H	0.915311	0.901231	0.377808
	H92	H	0.099478	0.613258	0.901920
	H93	H	0.100251	0.382760	0.078965
	H94	H	0.921441	0.615148	0.093569
	H95	H	0.923719	0.385129	0.912348
	H96	H	0.420213	0.114035	0.586984
	H97	H	0.600856	0.881920	0.585953
	H98	H	0.593898	0.115100	0.393163
	H99	H	0.409264	0.877093	0.398319
	H100	H	0.613103	0.412130	0.111320
	H101	H	0.595483	0.588273	0.882053
	H102	H	0.405493	0.593901	0.114322
	H103	H	0.417282	0.403551	0.880459
	H104	H	0.122234	0.581019	0.406143
	H105	H	0.892648	0.589278	0.585408
	H106	H	0.124611	0.399266	0.576907
	H107	H	0.891485	0.397172	0.403217
	H108	H	0.920021	0.611128	0.081227
	H109	H	0.110375	0.375715	0.090692
	H110	H	0.103382	0.614401	0.902246
	H111	H	0.903670	0.375783	0.901590
	H112	H	0.099424	0.894469	0.611673
	H113	H	0.099442	0.091286	0.379714
	H114	H	0.918948	0.100157	0.612501
	H115	H	0.914013	0.906034	0.379425
	H116	H	0.624790	0.085782	0.906595
	H117	H	0.389816	0.095647	0.092714
	H118	H	0.624586	0.906495	0.082323
	H119	H	0.392959	0.907454	0.899669
	C120	C	0.388381	0.006309	0.616622
	C121	C	0.630716	0.988804	0.616683
	C122	C	0.630927	0.005737	0.373520
	C123	C	0.388798	0.989269	0.373395
	C124	C	0.631006	0.374379	0.003371
	C125	C	0.630420	0.618460	0.987012
	C126	C	0.386303	0.619504	0.003724
	C127	C	0.387014	0.374655	0.987457
	C128	C	0.017857	0.617861	0.372561
	C129	C	1.000627	0.617643	0.616138
	C130	C	0.018092	0.376444	0.615826
	C131	C	1.001112	0.375499	0.372030
	C132	C	0.888378	0.505855	0.115730
	C133	C	0.130276	0.488271	0.115793
	C134	C	0.130638	0.505344	0.872729
	C135	C	0.887693	0.488183	0.872294
	C136	C	0.131918	0.874658	0.502911
	C137	C	0.131535	0.119474	0.486744
	C138	C	0.887669	0.119349	0.503010
	C139	C	0.887758	0.874973	0.486750
	C140	C	0.518221	0.118108	0.873790
	C141	C	0.501356	0.118200	0.117099
	C142	C	0.517934	0.875999	0.116773
	C143	C	0.500671	0.875774	0.872868
	C144	C	0.390464	0.882964	0.671649
	C145	C	0.629579	0.112467	0.671939
	C146	C	0.629740	0.882290	0.318069
	C147	C	0.390470	0.112760	0.318265
	C148	C	0.686335	0.376295	0.881270
	C149	C	0.686286	0.616140	0.109222
	C150	C	0.331702	0.616062	0.880915
	C151	C	0.331818	0.377457	0.109429
	C152	C	0.894070	0.673095	0.376072
	C153	C	0.124801	0.671623	0.612728
	C154	C	0.894281	0.322040	0.612020
	C155	C	0.124979	0.320935	0.376250
	C156	C	0.895041	0.376760	0.671545
	C157	C	0.123862	0.616539	0.672120
	C158	C	0.894542	0.617636	0.316739
	C159	C	0.124374	0.376846	0.316992
	C160	C	0.389074	0.674013	0.881240
	C161	C	0.628003	0.673787	0.109560
	C162	C	0.627671	0.319473	0.880884
	C163	C	0.390086	0.319620	0.109666
	C164	C	0.685854	0.881861	0.376486
	C165	C	0.685283	0.113016	0.612707
	C166	C	0.334417	0.882055	0.613163
	C167	C	0.334002	0.113419	0.376983
	C168	C	0.890223	0.382134	0.170738
	C169	C	0.128522	0.612109	0.170877
	C170	C	0.128920	0.381861	0.817652
	C171	C	0.889132	0.612147	0.817540
	C172	C	0.185804	0.878315	0.379961
	C173	C	0.185906	0.115865	0.609463
	C174	C	0.833321	0.115524	0.380424
	C175	C	0.833357	0.878202	0.609439
	C176	C	0.394053	0.172373	0.877819
	C177	C	0.625188	0.172717	0.113831
	C178	C	0.393369	0.822817	0.112565
	C179	C	0.624532	0.820788	0.877080
	C180	C	0.394421	0.878196	0.172001
	C181	C	0.624667	0.116766	0.172548
	C182	C	0.394857	0.117449	0.818419
	C183	C	0.624218	0.877679	0.818365
	C184	C	0.891119	0.173317	0.380328
	C185	C	0.127960	0.173624	0.609531
	C186	C	0.128208	0.819850	0.379952
	C187	C	0.891173	0.820167	0.609293
	C188	C	0.185420	0.381274	0.876048
	C189	C	0.184270	0.612473	0.112238
	C190	C	0.834181	0.381423	0.111914
	C191	C	0.832209	0.612148	0.875902
	C192	C	0.410290	0.092867	0.594992
	C193	C	0.608547	0.902446	0.595326
	C194	C	0.608424	0.092312	0.395165
	C195	C	0.411232	0.902749	0.395327
	C196	C	0.609389	0.396504	0.088942
	C197	C	0.608285	0.596327	0.901651
	C198	C	0.407816	0.597955	0.089190
	C199	C	0.409020	0.396777	0.901941
	C200	C	0.103876	0.594673	0.394453
	C201	C	0.914594	0.595735	0.594341
	C202	C	0.104277	0.399025	0.594171
	C203	C	0.914528	0.398182	0.393476
	C204	C	0.910514	0.592026	0.093849
	C205	C	0.108232	0.401697	0.094094
	C206	C	0.108204	0.591830	0.894310
	C207	C	0.910631	0.401906	0.894210
	C208	C	0.110002	0.896460	0.588311
	C209	C	0.109634	0.097267	0.401196
	C210	C	0.909377	0.098272	0.589167
	C211	C	0.909787	0.897047	0.401260
	C212	C	0.604670	0.095524	0.895381
	C213	C	0.415161	0.095810	0.095176
	C214	C	0.604027	0.897947	0.095132
	C215	C	0.414494	0.898147	0.894292
	Zn216	Zn	0.509408	-0.001803	0.744950
	Zn217	Zn	0.510150	-0.002674	0.245363
	Zn218	Zn	0.759693	0.496680	-0.005257
	Zn219	Zn	0.257895	0.496764	-0.005050
	Zn220	Zn	0.009545	0.745449	0.494671
	Zn221	Zn	0.009303	0.248534	0.494865
	Zn222	Zn	0.009107	0.496871	0.744411
	Zn223	Zn	0.009409	0.497024	0.243785
	Zn224	Zn	0.508475	0.747782	-0.004716
	Zn225	Zn	0.509317	0.245683	-0.004622
	Zn226	Zn	0.758670	-0.002739	0.495148
	Zn227	Zn	0.260790	-0.002741	0.494719
	N228	N	0.423467	0.961242	0.673610
	N229	N	0.596428	0.034412	0.674614
	N230	N	0.596135	0.960392	0.316269
	N231	N	0.423597	0.034666	0.315834
	N232	N	0.688605	0.409855	0.958483
	N233	N	0.687601	0.582219	0.032340
	N234	N	0.329763	0.582723	0.958023
	N235	N	0.329905	0.410926	0.032391
	N236	N	0.971531	0.673482	0.410041
	N237	N	0.047270	0.672466	0.578469
	N238	N	0.971765	0.321882	0.577986
	N239	N	0.047269	0.319992	0.409689
	N240	N	0.972955	0.410030	0.673905
	N241	N	0.045785	0.583559	0.674362
	N242	N	0.972538	0.583672	0.314585
	N243	N	0.046208	0.410114	0.314314
	N244	N	0.422358	0.676210	0.958367
	N245	N	0.593989	0.675427	0.032471
	N246	N	0.594132	0.318089	0.957788
	N247	N	0.423557	0.317779	0.032666
	N248	N	0.686262	0.959383	0.410625
	N249	N	0.686068	0.035115	0.579111
	N250	N	0.332945	0.959764	0.579411
	N251	N	0.332876	0.035391	0.410594
	N252	N	0.922869	0.460321	0.173301
	N253	N	0.095733	0.533832	0.173315
	N254	N	0.095797	0.459990	0.815462
	N255	N	0.922568	0.534026	0.815075
	N256	N	0.188744	0.911214	0.457264
	N257	N	0.188179	0.082727	0.532067
	N258	N	0.831038	0.082751	0.457804
	N259	N	0.831110	0.911672	0.532241
	N260	N	0.471762	0.172897	0.911516
	N261	N	0.547529	0.173652	0.080067
	N262	N	0.470915	0.821235	0.078882
	N263	N	0.546572	0.819489	0.910153
	N264	N	0.472733	0.910731	0.174585
	N265	N	0.546740	0.083278	0.174473
	N266	N	0.473097	0.084308	0.815965
	N267	N	0.546197	0.910801	0.815498
	N268	N	0.924136	0.175653	0.457670
	N269	N	0.094806	0.176005	0.532324
	N270	N	0.095102	0.817846	0.457251
	N271	N	0.924136	0.818012	0.531945
	N272	N	0.186286	0.459084	0.909797
	N273	N	0.185392	0.534503	0.078753
	N274	N	0.833031	0.459227	0.078245
	N275	N	0.831330	0.534237	0.909337
	O276	O	-0.459195	0.533985	1.546879
	H277	H	-0.453591	0.534830	1.553957
	H278	H	-0.463574	0.549649	1.548241
	O279	O	0.549302	0.594811	0.485090
	H280	H	0.547798	0.600721	0.475431
	H281	H	0.556569	0.598767	0.483000
	O282	O	0.500997	0.541816	0.501916
	H283	H	0.488641	0.537966	0.498118
	H284	H	0.496109	0.537619	0.497706
	O285	O	0.531302	0.516582	0.483969
	H286	H	0.528727	0.512584	0.489142
	H287	H	0.538598	0.513930	0.482154
	O288	O	0.491796	0.471706	0.516969
	H289	H	0.492528	0.467823	0.518187
	H290	H	0.490447	0.471312	0.512785
	O291	O	-0.434544	1.543233	0.507253
	H292	H	-0.427707	1.537788	0.511716
	H293	H	-0.430420	1.545281	0.510356
	O294	O	0.504758	0.528334	0.478062
	H295	H	0.500859	0.528285	0.474890
	H296	H	0.507279	0.523833	0.483271
	O297	O	0.560309	-0.470936	0.563161
	H298	H	0.560568	-0.475831	0.560648
	H299	H	0.558779	-0.462704	0.570722
