data_Molecule from HDF5

_cell_length_a		16.713360
_cell_length_b		16.603820
_cell_length_c		16.620935
_cell_angle_alpha	90.044479
_cell_angle_beta	89.981532
_cell_angle_gamma	90.082146
_symmetry_space_group_name_H-M	'P 1'
_symmetry_Int_Tables_number		1

loop_
	_symmetry_equiv_pos_as_xyz
	x,y,z

loop_
	_atom_site_label
	_atom_site_type_symbol
	_atom_site_fract_x
	_atom_site_fract_y
	_atom_site_fract_z
	H0	H	0.399148	0.839808	0.714457
	H1	H	0.608367	0.151685	0.713598
	H2	H	0.608087	0.841526	0.272696
	H3	H	0.401124	0.154179	0.276470
	H4	H	0.728879	0.388804	0.841222
	H5	H	0.726071	0.603505	0.149303
	H6	H	0.283671	0.601496	0.838118
	H7	H	0.285403	0.393944	0.150502
	H8	H	0.849526	0.716579	0.389552
	H9	H	0.159037	0.716688	0.599071
	H10	H	0.849930	0.273703	0.600437
	H11	H	0.159781	0.277388	0.391709
	H12	H	0.850317	0.388755	0.718081
	H13	H	0.159579	0.598981	0.714659
	H14	H	0.849479	0.600606	0.273680
	H15	H	0.159499	0.393130	0.274874
	H16	H	0.399405	0.717146	0.838687
	H17	H	0.608337	0.717933	0.150436
	H18	H	0.611386	0.274471	0.839663
	H19	H	0.401779	0.278616	0.150688
	H20	H	0.725060	0.841842	0.387925
	H21	H	0.725384	0.150551	0.598582
	H22	H	0.282151	0.840796	0.599619
	H23	H	0.285016	0.153796	0.391325
	H24	H	0.899698	0.340072	0.213782
	H25	H	0.106066	0.652879	0.212433
	H26	H	0.105871	0.339629	0.775718
	H27	H	0.896320	0.650067	0.770897
	H28	H	0.222942	0.892822	0.338256
	H29	H	0.224597	0.100322	0.649889
	H30	H	0.784146	0.099730	0.338606
	H31	H	0.781656	0.889579	0.649381
	H32	H	0.349395	0.217422	0.889340
	H33	H	0.657846	0.220658	0.100092
	H34	H	0.348017	0.778788	0.096579
	H35	H	0.658489	0.774386	0.888747
	H36	H	0.346761	0.897140	0.210759
	H37	H	0.657903	0.104462	0.216917
	H38	H	0.350706	0.102656	0.771217
	H39	H	0.658384	0.890222	0.772122
	H40	H	0.901922	0.213997	0.337837
	H41	H	0.108131	0.216459	0.649663
	H42	H	0.105007	0.778564	0.337637
	H43	H	0.898737	0.774100	0.649622
	H44	H	0.223112	0.339616	0.890826
	H45	H	0.223165	0.652728	0.097650
	H46	H	0.779624	0.342507	0.101781
	H47	H	0.779954	0.650207	0.886136
	H48	H	0.417358	0.109071	0.589848
	H49	H	0.595566	0.884138	0.580012
	H50	H	0.591667	0.107781	0.403702
	H51	H	0.418222	0.886470	0.403989
	H52	H	0.586633	0.409482	0.103220
	H53	H	0.593869	0.578245	0.885330
	H54	H	0.411453	0.583458	0.105615
	H55	H	0.414670	0.414128	0.884676
	H56	H	0.115631	0.590777	0.408849
	H57	H	0.891920	0.588424	0.584669
	H58	H	0.116969	0.404651	0.589242
	H59	H	0.892155	0.404247	0.405934
	H60	H	0.114729	0.403392	0.579188
	H61	H	0.893844	0.583430	0.579719
	H62	H	0.113313	0.579789	0.405602
	H63	H	0.893433	0.407384	0.405213
	H64	H	0.415839	0.588767	0.107018
	H65	H	0.585678	0.585133	0.885721
	H66	H	0.593589	0.406794	0.106902
	H67	H	0.418524	0.401266	0.881299
	H68	H	0.594367	0.107554	0.409394
	H69	H	0.592789	0.882412	0.586613
	H70	H	0.418621	0.103606	0.578253
	H71	H	0.408435	0.884968	0.407909
	H72	H	0.912835	0.607412	0.080457
	H73	H	0.093359	0.383870	0.083301
	H74	H	0.100007	0.609938	0.906880
	H75	H	0.925820	0.391683	0.913519
	H76	H	0.101891	0.905817	0.610544
	H77	H	0.095919	0.082260	0.383052
	H78	H	0.917734	0.079528	0.603154
	H79	H	0.909890	0.910820	0.382820
	H80	H	0.618437	0.088689	0.897821
	H81	H	0.395511	0.082424	0.081684
	H82	H	0.615159	0.905879	0.083491
	H83	H	0.392184	0.902994	0.903183
	H84	H	0.615512	0.909137	0.084472
	H85	H	0.391061	0.086655	0.091111
	H86	H	0.613560	0.089965	0.914335
	H87	H	0.395258	0.908146	0.910499
	H88	H	0.917348	0.089168	0.607546
	H89	H	0.091015	0.087220	0.382126
	H90	H	0.090731	0.914303	0.603709
	H91	H	0.919256	0.906121	0.384034
	H92	H	0.093237	0.609975	0.899311
	H93	H	0.098769	0.381963	0.084267
	H94	H	0.914510	0.608871	0.086504
	H95	H	0.908161	0.385506	0.915391
	H96	H	0.407703	0.109804	0.581494
	H97	H	0.588612	0.885364	0.581033
	H98	H	0.596982	0.110045	0.404460
	H99	H	0.411138	0.882518	0.397573
	H100	H	0.593150	0.414187	0.103772
	H101	H	0.595296	0.587815	0.881965
	H102	H	0.409370	0.589399	0.108623
	H103	H	0.405282	0.405565	0.878777
	H104	H	0.118417	0.587514	0.398057
	H105	H	0.893256	0.581805	0.586985
	H106	H	0.112942	0.412184	0.583654
	H107	H	0.891709	0.405487	0.402717
	H108	H	0.918797	0.606269	0.082387
	H109	H	0.095227	0.382329	0.088447
	H110	H	0.090597	0.606085	0.908327
	H111	H	0.917225	0.382793	0.899379
	H112	H	0.088575	0.899645	0.607029
	H113	H	0.097445	0.088437	0.380498
	H114	H	0.908776	0.082851	0.607319
	H115	H	0.911942	0.900754	0.379760
	H116	H	0.611244	0.075477	0.905386
	H117	H	0.391351	0.092964	0.081421
	H118	H	0.616076	0.906730	0.086005
	H119	H	0.393613	0.912536	0.902360
	C120	C	0.382692	0.004542	0.615273
	C121	C	0.624907	0.987039	0.614613
	C122	C	0.625562	0.005823	0.372984
	C123	C	0.381894	0.988399	0.372538
	C124	C	0.624660	0.376386	0.002634
	C125	C	0.624543	0.617244	0.986460
	C126	C	0.381338	0.618713	0.003379
	C127	C	0.382983	0.376118	0.985568
	C128	C	0.013032	0.617368	0.372663
	C129	C	0.995735	0.616747	0.615942
	C130	C	0.012333	0.374329	0.616275
	C131	C	0.995204	0.374435	0.372932
	C132	C	0.882485	0.505033	0.115818
	C133	C	0.125912	0.487240	0.115741
	C134	C	0.125385	0.504844	0.873409
	C135	C	0.883279	0.488372	0.874773
	C136	C	0.125102	0.875234	0.503662
	C137	C	0.125656	0.117444	0.485637
	C138	C	0.883508	0.115901	0.502653
	C139	C	0.881861	0.873751	0.485439
	C140	C	0.512728	0.117813	0.872966
	C141	C	0.495631	0.119024	0.116120
	C142	C	0.512458	0.876283	0.115491
	C143	C	0.495775	0.874909	0.873007
	C144	C	0.380685	0.887092	0.674879
	C145	C	0.627169	0.104520	0.674042
	C146	C	0.626954	0.888460	0.312570
	C147	C	0.382066	0.106766	0.315297
	C148	C	0.687493	0.371556	0.887319
	C149	C	0.685391	0.620958	0.103102
	C150	C	0.323026	0.619903	0.885505
	C151	C	0.324828	0.375183	0.103524
	C152	C	0.896363	0.676780	0.371002
	C153	C	0.112649	0.676367	0.617535
	C154	C	0.896290	0.313737	0.618843
	C155	C	0.112759	0.316246	0.372133
	C156	C	0.896449	0.371177	0.677091
	C157	C	0.112597	0.618208	0.675169
	C158	C	0.896219	0.618947	0.313352
	C159	C	0.112537	0.373685	0.314113
	C160	C	0.380521	0.677720	0.885721
	C161	C	0.626907	0.677755	0.103525
	C162	C	0.628859	0.314910	0.886268
	C163	C	0.382728	0.317948	0.103666
	C164	C	0.684963	0.888319	0.369716
	C165	C	0.685332	0.104064	0.616922
	C166	C	0.322603	0.887387	0.617754
	C167	C	0.323962	0.106442	0.372302
	C168	C	0.880413	0.387391	0.174951
	C169	C	0.125232	0.605726	0.173070
	C170	C	0.125406	0.386565	0.815167
	C171	C	0.879135	0.604045	0.812074
	C172	C	0.183457	0.874005	0.385417
	C173	C	0.184758	0.119168	0.603244
	C174	C	0.824695	0.117736	0.385196
	C175	C	0.821786	0.871238	0.602679
	C176	C	0.396184	0.177919	0.870490
	C177	C	0.611908	0.179675	0.118145
	C178	C	0.394769	0.818475	0.115494
	C179	C	0.611940	0.814620	0.870580
	C180	C	0.394334	0.877115	0.172554
	C181	C	0.611738	0.122232	0.176397
	C182	C	0.396647	0.120569	0.812119
	C183	C	0.612015	0.872410	0.812710
	C184	C	0.883229	0.174601	0.384810
	C185	C	0.126991	0.176697	0.603089
	C186	C	0.124779	0.817369	0.385039
	C187	C	0.879996	0.814175	0.602873
	C188	C	0.183586	0.386681	0.872095
	C189	C	0.183697	0.605574	0.116336
	C190	C	0.821189	0.388427	0.118999
	C191	C	0.821297	0.603967	0.869501
	C192	C	0.407401	0.086312	0.590392
	C193	C	0.599595	0.905312	0.589697
	C194	C	0.601293	0.087423	0.398696
	C195	C	0.405685	0.905852	0.396287
	C196	C	0.598413	0.402558	0.083578
	C197	C	0.598771	0.591151	0.905423
	C198	C	0.405358	0.594210	0.085599
	C199	C	0.406262	0.400109	0.903080
	C200	C	0.094584	0.592903	0.397284
	C201	C	0.914300	0.591697	0.590914
	C202	C	0.093776	0.399547	0.591173
	C203	C	0.913710	0.398799	0.397547
	C204	C	0.907990	0.586372	0.090477
	C205	C	0.102660	0.404183	0.092181
	C206	C	0.101506	0.587086	0.897705
	C207	C	0.909751	0.407498	0.901684
	C208	C	0.100770	0.899706	0.585740
	C209	C	0.101834	0.092766	0.403380
	C210	C	0.907711	0.090921	0.584611
	C211	C	0.906572	0.898639	0.403750
	C212	C	0.593398	0.092148	0.898512
	C213	C	0.414015	0.094387	0.091607
	C214	C	0.594347	0.900291	0.091521
	C215	C	0.414646	0.900412	0.898339
	Zn216	Zn	0.504264	-0.004087	0.743741
	Zn217	Zn	0.504217	-0.002376	0.244989
	Zn218	Zn	0.753983	0.497059	-0.005318
	Zn219	Zn	0.253427	0.496409	-0.006106
	Zn220	Zn	0.004144	0.746223	0.494632
	Zn221	Zn	0.004171	0.245505	0.494764
	Zn222	Zn	0.003548	0.495787	0.745685
	Zn223	Zn	0.003861	0.495670	0.243829
	Zn224	Zn	0.503896	0.746249	-0.005248
	Zn225	Zn	0.504122	0.247390	-0.006268
	Zn226	Zn	0.754119	-0.004679	0.494042
	Zn227	Zn	0.253964	-0.003515	0.494232
	N228	N	0.417230	0.961109	0.673762
	N229	N	0.590424	0.030616	0.672887
	N230	N	0.590643	0.962556	0.314264
	N231	N	0.417372	0.032275	0.315222
	N232	N	0.685031	0.409068	0.960778
	N233	N	0.684095	0.584002	0.029257
	N234	N	0.323102	0.584020	0.959964
	N235	N	0.324551	0.410620	0.028958
	N236	N	0.970056	0.676080	0.407235
	N237	N	0.038719	0.675787	0.581402
	N238	N	0.969567	0.315515	0.581849
	N239	N	0.038689	0.315952	0.407785
	N240	N	0.969923	0.407913	0.675739
	N241	N	0.038692	0.582263	0.674531
	N242	N	0.970132	0.583060	0.313790
	N243	N	0.038252	0.408794	0.314149
	N244	N	0.415907	0.677334	0.960264
	N245	N	0.589762	0.675719	0.029985
	N246	N	0.590302	0.317848	0.959114
	N247	N	0.417733	0.317839	0.029034
	N248	N	0.684446	0.962310	0.406448
	N249	N	0.684126	0.029831	0.580722
	N250	N	0.323383	0.961488	0.581543
	N251	N	0.323660	0.031557	0.407240
	N252	N	0.917950	0.460896	0.173155
	N253	N	0.090221	0.530878	0.173072
	N254	N	0.090066	0.461131	0.815563
	N255	N	0.917207	0.530941	0.815425
	N256	N	0.183961	0.909202	0.460247
	N257	N	0.184370	0.083399	0.528965
	N258	N	0.824542	0.082182	0.459602
	N259	N	0.822796	0.907618	0.528489
	N260	N	0.469464	0.176606	0.907349
	N261	N	0.538576	0.177919	0.081368
	N262	N	0.469295	0.817590	0.080978
	N263	N	0.538400	0.815944	0.907212
	N264	N	0.468741	0.912273	0.173028
	N265	N	0.538275	0.085200	0.175207
	N266	N	0.470168	0.084128	0.813069
	N267	N	0.538667	0.909232	0.813903
	N268	N	0.919131	0.173776	0.459125
	N269	N	0.091372	0.176128	0.528738
	N270	N	0.089464	0.817568	0.459618
	N271	N	0.916416	0.815330	0.528961
	N272	N	0.183916	0.461441	0.907410
	N273	N	0.184277	0.530649	0.081326
	N274	N	0.822272	0.462574	0.082929
	N275	N	0.824066	0.531000	0.907952
	O276	O	-0.031651	0.767731	-0.038440
	H277	H	-0.022193	0.773339	-0.042075
	H278	H	-0.036694	0.767181	-0.047046
	O279	O	0.309058	0.306731	0.300818
	H280	H	0.321626	0.334838	0.312764
	H281	H	0.330656	0.321532	0.324917
	O282	O	1.217640	0.207017	1.039831
	H283	H	1.232512	0.212455	1.047046
	H284	H	1.228464	0.213973	1.059540
	O285	O	0.673060	0.454564	0.592746
	H286	H	0.674163	0.472115	0.581759
	H287	H	0.679891	0.440185	0.576750
	O288	O	0.659132	0.707665	0.628076
	H289	H	0.665988	0.710752	0.605874
	H290	H	0.686815	0.721237	0.624735
	O291	O	0.291042	0.343839	0.484754
	H292	H	0.285935	0.343865	0.516908
	H293	H	0.283092	0.337384	0.482648
	O294	O	0.799404	0.210904	0.969945
	H295	H	0.806523	0.221444	0.957040
	H296	H	0.805669	0.229069	0.961998
	O297	O	0.463781	0.720110	0.266738
	H298	H	0.434051	0.712424	0.268604
	H299	H	0.455452	0.746789	0.237174
	O300	O	0.036546	0.046196	1.080450
	H301	H	0.042076	0.046018	1.077112
	H302	H	0.052339	0.060966	1.078250
	O303	O	0.478114	0.707127	0.496166
	H304	H	0.496707	0.713133	0.478211
	H305	H	0.497365	0.707625	0.503559
	O306	O	0.499010	0.286237	0.663517
	H307	H	0.501653	0.278896	0.684122
	H308	H	0.489351	0.294206	0.655105
	O309	O	0.321204	0.679129	0.677846
	H310	H	0.346416	0.665154	0.664179
	H311	H	0.341526	0.663502	0.666636
	O312	O	0.447166	0.502274	0.668564
	H313	H	0.465159	0.508393	0.660294
	H314	H	0.465968	0.497599	0.671195
	O315	O	1.064984	0.833435	1.056572
	H316	H	1.068340	0.831641	1.030769
	H317	H	1.048510	0.841220	1.043316
	O318	O	0.664728	0.624101	0.641520
	H319	H	0.661405	0.619608	0.632301
	H320	H	0.668649	0.617494	0.615109
	O321	O	0.214015	0.787367	0.784542
	H322	H	0.205474	0.799417	0.797705
	H323	H	0.239874	0.757837	0.762622
	O324	O	0.970298	0.779525	0.208945
	H325	H	0.980486	0.771929	0.223341
	H326	H	0.981670	0.776796	0.200823
	O327	O	-0.183600	-0.058861	1.137268
	H328	H	-0.174444	-0.071161	1.130680
	H329	H	-0.193974	-0.041000	1.135408
	O330	O	0.569672	0.639633	0.430364
	H331	H	0.565356	0.636973	0.415925
	H332	H	0.569050	0.632833	0.432372
	O333	O	0.365763	0.275376	0.611860
	H334	H	0.357189	0.262809	0.618526
	H335	H	0.377490	0.276906	0.622712
	O336	O	0.589308	0.546070	0.269554
	H337	H	0.585628	0.532854	0.263185
	H338	H	0.566918	0.543428	0.274137
	O339	O	0.795941	0.203733	0.786677
	H340	H	0.797046	0.223535	0.761926
	H341	H	0.788346	0.171693	0.802355
	O342	O	-0.059928	0.138939	0.143012
	H343	H	-0.061827	0.141444	0.134332
	H344	H	-0.066346	0.133721	0.136587
	O345	O	0.010868	1.219840	1.008982
	H346	H	0.032907	1.224696	1.018176
	H347	H	0.010996	1.215340	0.994378
	O348	O	0.211973	0.205883	0.204342
	H349	H	0.197235	0.191861	0.193573
	H350	H	0.244408	0.239747	0.235475
	O351	O	0.695458	0.688073	0.315036
	H352	H	0.675479	0.657805	0.306564
	H353	H	0.725281	0.716759	0.278013
	O354	O	0.036603	-0.228492	0.770071
	H355	H	0.040188	-0.256668	0.741704
	H356	H	0.053592	-0.228484	0.783432
	O357	O	0.612436	0.476732	0.664236
	H358	H	0.615414	0.465021	0.662021
	H359	H	0.628641	0.465012	0.654157
	O360	O	0.292112	0.288448	0.702743
	H361	H	0.281981	0.295276	0.708384
	H362	H	0.321441	0.306548	0.708308
	O363	O	-0.187254	0.186518	0.181794
	H364	H	-0.172183	0.166255	0.162662
	H365	H	-0.168319	0.176378	0.161239
	O366	O	0.727296	0.551321	0.401634
	H367	H	0.740920	0.558308	0.374018
	H368	H	0.708371	0.541323	0.394026
	O369	O	0.512218	0.396922	0.314954
	H370	H	0.525310	0.382386	0.307428
	H371	H	0.519131	0.418907	0.313413
	O372	O	0.791614	0.783504	0.015402
	H373	H	0.800649	0.791641	0.012962
	H374	H	0.771047	0.769727	0.021127
	O375	O	0.855359	-0.051046	0.164452
	H376	H	0.848162	-0.051971	0.181552
	H377	H	0.858935	-0.050295	0.146218
	O378	O	0.373317	0.492254	0.464172
	H379	H	0.380188	0.497128	0.479319
	H380	H	0.373619	0.492722	0.478464
	O381	O	0.230676	0.971694	0.772567
	H382	H	0.236647	0.964001	0.750933
	H383	H	0.237700	0.951050	0.771131
	O384	O	0.792266	-0.010872	0.779763
	H385	H	0.792925	-0.013297	0.773605
	H386	H	0.795028	0.004757	0.773321
	O387	O	1.053194	0.929706	0.213815
	H388	H	1.052265	0.928058	0.205298
	H389	H	1.054779	0.936059	0.213493
	O390	O	0.432523	0.345193	0.502740
	H391	H	0.429994	0.343896	0.501438
	H392	H	0.425022	0.335449	0.499813
	O393	O	0.524617	0.491629	0.477913
	H394	H	0.526154	0.492520	0.480861
	H395	H	0.521900	0.507743	0.484205
	O396	O	-0.019818	1.123013	0.772248
	H397	H	-0.012659	1.118694	0.787828
	H398	H	-0.009795	1.130238	0.755057
	O399	O	0.081659	-0.010731	0.790588
	H400	H	0.091750	-0.015784	0.804912
	H401	H	0.070937	-0.027940	0.781378
	O402	O	0.560957	0.281693	0.282490
	H403	H	0.572891	0.252154	0.257690
	H404	H	0.576722	0.283071	0.305231
	O405	O	0.937456	0.155896	0.856159
	H406	H	0.934545	0.149098	0.857027
	H407	H	0.918445	0.157903	0.835827
	O408	O	0.198983	0.037564	-0.065369
	H409	H	0.208272	0.026757	-0.088366
	H410	H	0.201895	0.076207	-0.051177
	O411	O	0.703118	0.590504	0.653069
	H412	H	0.723774	0.588507	0.665062
	H413	H	0.699149	0.587231	0.622447
	O414	O	0.693977	0.303988	0.682804
	H415	H	0.690900	0.318239	0.675845
	H416	H	0.685897	0.301947	0.662247
	O417	O	0.612571	0.445749	0.303570
	H418	H	0.620364	0.460343	0.300913
	H419	H	0.607005	0.443165	0.299427
	O420	O	0.724393	0.312471	0.299586
	H421	H	0.714514	0.337319	0.298862
	H422	H	0.749571	0.281977	0.271446
	O423	O	0.019423	0.033546	0.954570
	H424	H	0.028697	0.038283	0.944988
	H425	H	0.026898	0.028398	0.963184
	O426	O	0.515051	0.419423	0.650230
	H427	H	0.503337	0.417395	0.639645
	H428	H	0.520092	0.413079	0.655976
	O429	O	0.846845	0.801712	0.832238
	H430	H	0.824206	0.796034	0.823005
	H431	H	0.866738	0.805122	0.855627
	O432	O	0.572908	0.524119	0.572515
	H433	H	0.583778	0.516781	0.566098
	H434	H	0.576027	0.526300	0.561011
	O435	O	0.193741	0.805925	0.184202
	H436	H	0.168271	0.823267	0.172707
	H437	H	0.197650	0.801557	0.165974
	O438	O	0.224870	-0.223214	-0.042319
	H439	H	0.243761	-0.225515	-0.050446
	H440	H	0.234655	-0.228629	-0.043029
	O441	O	0.040303	0.216637	0.212515
	H442	H	0.043201	0.227702	0.228291
	H443	H	0.052702	0.223121	0.214321
	O444	O	0.563677	0.281246	0.476851
	H445	H	0.563199	0.271660	0.471010
	H446	H	0.555135	0.284302	0.458464
	O447	O	0.200963	0.950466	1.018525
	H448	H	0.208288	0.946598	1.022258
	H449	H	0.196711	0.966755	1.006339
	O450	O	0.090491	1.064240	0.996396
	H451	H	0.091478	1.078145	0.997833
	H452	H	0.098914	1.080342	1.006589
	O453	O	0.287538	0.502017	0.339474
	H454	H	0.276812	0.502297	0.341798
	H455	H	0.284340	0.527198	0.327739
	O456	O	0.193277	0.182451	0.817207
	H457	H	0.194505	0.177132	0.812046
	H458	H	0.176281	0.179351	0.815743
	O459	O	0.790369	0.779381	0.206707
	H460	H	0.805304	0.792712	0.187529
	H461	H	0.812925	0.798356	0.196411
	O462	O	0.727797	0.323646	0.486412
	H463	H	0.731872	0.311751	0.483253
	H464	H	0.722444	0.313212	0.476089
	O465	O	1.080484	0.007378	0.107981
	H466	H	1.096328	0.017068	0.119250
	H467	H	1.076795	-0.004182	0.099628
	O468	O	0.281663	0.718240	0.453656
	H469	H	0.261458	0.745978	0.456447
	H470	H	0.295589	0.711674	0.467568
	O471	O	0.293453	0.555661	0.528726
	H472	H	0.292861	0.565313	0.533355
	H473	H	0.302088	0.544954	0.536327
	O474	O	0.293913	0.703274	0.281620
	H475	H	0.291157	0.701723	0.323892
	H476	H	0.273749	0.714256	0.258705
	O477	O	0.376183	0.519113	1.278593
	H478	H	0.358092	0.530610	1.268715
	H479	H	0.369203	0.530735	1.289401
	O480	O	0.284155	0.457940	0.712050
	H481	H	0.283130	0.473942	0.724017
	H482	H	0.287339	0.457587	0.724120
	O483	O	0.498573	0.714752	0.647916
	H484	H	0.513557	0.742504	0.661868
	H485	H	0.521561	0.703161	0.634363
	O486	O	0.772926	0.032798	1.018486
	H487	H	0.782101	0.036277	1.007714
	H488	H	0.761576	0.058423	1.007342
	O489	O	0.963302	0.988840	-0.217864
	H490	H	0.971980	0.988915	-0.205836
	H491	H	0.947493	0.978673	-0.220297
	O492	O	0.224877	0.036060	0.212857
	H493	H	0.218981	0.043604	0.217447
	H494	H	0.241586	0.048757	0.233477
	O495	O	-0.075050	0.989046	0.891235
	H496	H	-0.082646	0.977873	0.875262
	H497	H	-0.048313	0.984721	0.896657
	O498	O	0.764383	0.970579	0.958479
	H499	H	0.772176	0.968957	0.967585
	H500	H	0.756759	0.981905	0.936681
	O501	O	0.632419	0.657286	0.533058
	H502	H	0.641695	0.659986	0.513748
	H503	H	0.650695	0.653409	0.529209
