data_Molecule from HDF5

_cell_length_a		16.243071
_cell_length_b		16.225380
_cell_length_c		16.374318
_cell_angle_alpha	89.952627
_cell_angle_beta	89.955718
_cell_angle_gamma	90.053694
_symmetry_space_group_name_H-M	'P 1'
_symmetry_Int_Tables_number		1

loop_
	_symmetry_equiv_pos_as_xyz
	x,y,z

loop_
	_atom_site_label
	_atom_site_type_symbol
	_atom_site_fract_x
	_atom_site_fract_y
	_atom_site_fract_z
	H0	H	0.412103	0.836324	0.713181
	H1	H	0.610802	0.164077	0.714185
	H2	H	0.612099	0.837996	0.282117
	H3	H	0.410264	0.164262	0.283257
	H4	H	0.724141	0.404677	0.835220
	H5	H	0.725415	0.600675	0.160945
	H6	H	0.295199	0.600352	0.835656
	H7	H	0.294324	0.401903	0.161083
	H8	H	0.846037	0.713619	0.401545
	H9	H	0.174653	0.714420	0.595915
	H10	H	0.846487	0.287597	0.596148
	H11	H	0.175995	0.289627	0.402141
	H12	H	0.846981	0.401634	0.714007
	H13	H	0.173622	0.601746	0.714837
	H14	H	0.847120	0.600499	0.283790
	H15	H	0.174371	0.403067	0.284585
	H16	H	0.412599	0.715265	0.835434
	H17	H	0.609139	0.716283	0.160852
	H18	H	0.609003	0.286980	0.835502
	H19	H	0.409737	0.284735	0.161076
	H20	H	0.724474	0.835777	0.400621
	H21	H	0.724041	0.164909	0.595318
	H22	H	0.297960	0.835335	0.595920
	H23	H	0.298155	0.164867	0.401921
	H24	H	0.911548	0.336581	0.212914
	H25	H	0.108581	0.665029	0.213108
	H26	H	0.109600	0.338100	0.783972
	H27	H	0.910163	0.664592	0.782877
	H28	H	0.226060	0.902179	0.335949
	H29	H	0.224884	0.098176	0.662217
	H30	H	0.796575	0.098592	0.335186
	H31	H	0.796714	0.902795	0.661553
	H32	H	0.345451	0.214388	0.900935
	H33	H	0.674879	0.214608	0.095121
	H34	H	0.346614	0.786642	0.096752
	H35	H	0.675351	0.790214	0.902891
	H36	H	0.347251	0.901097	0.214300
	H37	H	0.674206	0.101382	0.213930
	H38	H	0.347313	0.100148	0.782933
	H39	H	0.674502	0.902761	0.784862
	H40	H	0.913140	0.215660	0.334999
	H41	H	0.108912	0.215600	0.662033
	H42	H	0.108791	0.786687	0.335555
	H43	H	0.912097	0.785318	0.661373
	H44	H	0.223796	0.337362	0.901857
	H45	H	0.222539	0.666553	0.095127
	H46	H	0.795684	0.336967	0.096336
	H47	H	0.799489	0.666766	0.903141
	H48	H	0.416635	0.117528	0.590966
	H49	H	0.607882	0.883306	0.588012
	H50	H	0.607670	0.119118	0.403253
	H51	H	0.413596	0.881999	0.405306
	H52	H	0.606318	0.404224	0.115893
	H53	H	0.603901	0.595120	0.882009
	H54	H	0.417764	0.591767	0.112963
	H55	H	0.412120	0.405936	0.880390
	H56	H	0.125321	0.586754	0.406540
	H57	H	0.892596	0.596006	0.592685
	H58	H	0.129999	0.404708	0.596468
	H59	H	0.894485	0.405941	0.411871
	H60	H	0.125966	0.407611	0.587401
	H61	H	0.895084	0.592757	0.588000
	H62	H	0.129781	0.594836	0.398715
	H63	H	0.895178	0.414400	0.403817
	H64	H	0.418403	0.594703	0.113925
	H65	H	0.605773	0.598537	0.880574
	H66	H	0.604293	0.413288	0.113747
	H67	H	0.417239	0.413637	0.884350
	H68	H	0.598962	0.116348	0.403574
	H69	H	0.605769	0.881014	0.598440
	H70	H	0.418885	0.118237	0.594356
	H71	H	0.421327	0.883022	0.401193
	H72	H	0.916337	0.616731	0.087019
	H73	H	0.107111	0.380360	0.100240
	H74	H	0.096613	0.616348	0.906313
	H75	H	0.921738	0.384891	0.901684
	H76	H	0.104658	0.916000	0.612306
	H77	H	0.106532	0.091538	0.383905
	H78	H	0.922271	0.094949	0.612743
	H79	H	0.917410	0.908756	0.383594
	H80	H	0.626606	0.087014	0.900194
	H81	H	0.399383	0.076403	0.090771
	H82	H	0.629674	0.904926	0.094705
	H83	H	0.392549	0.906123	0.903321
	H84	H	0.626000	0.907983	0.085692
	H85	H	0.387867	0.098588	0.107134
	H86	H	0.630478	0.101268	0.902462
	H87	H	0.394009	0.907257	0.907512
	H88	H	0.914351	0.099700	0.616373
	H89	H	0.102268	0.097441	0.383586
	H90	H	0.096400	0.902037	0.613629
	H91	H	0.919582	0.906347	0.382272
	H92	H	0.104893	0.618259	0.910613
	H93	H	0.093361	0.386472	0.092370
	H94	H	0.912540	0.620453	0.096278
	H95	H	0.918225	0.386229	0.910904
	H96	H	0.420857	0.116585	0.590953
	H97	H	0.597955	0.885453	0.592328
	H98	H	0.604002	0.116743	0.411025
	H99	H	0.420322	0.885574	0.410115
	H100	H	0.598130	0.407330	0.112971
	H101	H	0.607903	0.594996	0.881855
	H102	H	0.415809	0.593376	0.113899
	H103	H	0.422298	0.404396	0.883385
	H104	H	0.127290	0.598731	0.409907
	H105	H	0.894049	0.590305	0.593336
	H106	H	0.126678	0.414193	0.594757
	H107	H	0.890511	0.404027	0.401135
	H108	H	0.923023	0.617425	0.095392
	H109	H	0.108104	0.385796	0.083919
	H110	H	0.103634	0.620571	0.901832
	H111	H	0.912285	0.381660	0.903745
	H112	H	0.111657	0.902929	0.617844
	H113	H	0.108386	0.097683	0.381031
	H114	H	0.913372	0.090174	0.613764
	H115	H	0.916387	0.906128	0.381820
	H116	H	0.624565	0.093208	0.912977
	H117	H	0.394579	0.103146	0.078369
	H118	H	0.625799	0.914053	0.093743
	H119	H	0.393063	0.910419	0.904653
	C120	C	0.389937	0.008625	0.620105
	C121	C	0.632236	0.991919	0.620579
	C122	C	0.632246	0.008770	0.377379
	C123	C	0.389666	0.992040	0.377431
	C124	C	0.631901	0.379543	0.006728
	C125	C	0.633353	0.623816	0.989540
	C126	C	0.388702	0.622638	0.006537
	C127	C	0.388303	0.379407	0.990184
	C128	C	0.019004	0.622059	0.376930
	C129	C	1.001735	0.622478	0.620416
	C130	C	0.019285	0.379927	0.620805
	C131	C	1.001950	0.379776	0.377469
	C132	C	0.888486	0.509637	0.120843
	C133	C	0.131653	0.492806	0.120288
	C134	C	0.131194	0.510141	0.877545
	C135	C	0.889341	0.493014	0.877593
	C136	C	0.132596	0.878719	0.506798
	C137	C	0.133764	0.123504	0.490620
	C138	C	0.888940	0.122734	0.506417
	C139	C	0.889432	0.878588	0.490356
	C140	C	0.518748	0.122677	0.876858
	C141	C	0.502161	0.122375	0.120339
	C142	C	0.519113	0.879330	0.120371
	C143	C	0.501808	0.879878	0.877369
	C144	C	0.391850	0.885313	0.675313
	C145	C	0.630546	0.115280	0.675629
	C146	C	0.631126	0.886241	0.321135
	C147	C	0.390902	0.115319	0.321778
	C148	C	0.687109	0.382905	0.884052
	C149	C	0.687376	0.620971	0.112467
	C150	C	0.333359	0.620553	0.884043
	C151	C	0.332509	0.381638	0.112612
	C152	C	0.895314	0.676366	0.380727
	C153	C	0.125510	0.677424	0.617414
	C154	C	0.895549	0.324934	0.617554
	C155	C	0.126246	0.326001	0.380732
	C156	C	0.896077	0.381501	0.676337
	C157	C	0.124869	0.621591	0.676604
	C158	C	0.895754	0.620344	0.321997
	C159	C	0.125437	0.382229	0.322208
	C160	C	0.391943	0.677429	0.883876
	C161	C	0.629568	0.678517	0.112395
	C162	C	0.629798	0.324409	0.884140
	C163	C	0.390055	0.323525	0.112609
	C164	C	0.686869	0.885119	0.380234
	C165	C	0.686491	0.115831	0.616423
	C166	C	0.335205	0.884879	0.616863
	C167	C	0.335273	0.115731	0.380823
	C168	C	0.890755	0.385760	0.175365
	C169	C	0.129251	0.616273	0.175098
	C170	C	0.129600	0.386875	0.822407
	C171	C	0.891122	0.616230	0.822017
	C172	C	0.187942	0.881604	0.384457
	C173	C	0.187595	0.119400	0.613571
	C174	C	0.834342	0.119468	0.383840
	C175	C	0.834242	0.881472	0.612879
	C176	C	0.394970	0.177321	0.879994
	C177	C	0.625710	0.177541	0.116740
	C178	C	0.395640	0.824399	0.117726
	C179	C	0.626006	0.826500	0.881259
	C180	C	0.396028	0.881380	0.175844
	C181	C	0.625423	0.121021	0.175464
	C182	C	0.395857	0.120697	0.821296
	C183	C	0.625557	0.882765	0.822914
	C184	C	0.892501	0.177359	0.383554
	C185	C	0.130115	0.177794	0.613434
	C186	C	0.129733	0.824211	0.384259
	C187	C	0.891969	0.823680	0.612923
	C188	C	0.186255	0.386496	0.880819
	C189	C	0.185875	0.616909	0.116603
	C190	C	0.833249	0.385977	0.117542
	C191	C	0.835842	0.617232	0.881496
	C192	C	0.412111	0.095030	0.598478
	C193	C	0.610188	0.905501	0.599273
	C194	C	0.610098	0.095116	0.399542
	C195	C	0.412025	0.905801	0.398987
	C196	C	0.609523	0.401864	0.092036
	C197	C	0.612207	0.602490	0.903699
	C198	C	0.410755	0.599994	0.091689
	C199	C	0.410608	0.401427	0.904927
	C200	C	0.105138	0.599911	0.398516
	C201	C	0.916166	0.599718	0.598213
	C202	C	0.105343	0.402125	0.598942
	C203	C	0.915896	0.401558	0.399182
	C204	C	0.910805	0.595947	0.099322
	C205	C	0.109483	0.406474	0.098619
	C206	C	0.108333	0.596284	0.899656
	C207	C	0.911119	0.406380	0.899243
	C208	C	0.110576	0.900481	0.592414
	C209	C	0.112102	0.101950	0.404878
	C210	C	0.910409	0.101258	0.592197
	C211	C	0.911382	0.900739	0.404743
	C212	C	0.604904	0.100428	0.898796
	C213	C	0.416137	0.099400	0.098568
	C214	C	0.605024	0.902269	0.098184
	C215	C	0.415478	0.901613	0.898841
	Zn216	Zn	0.510545	0.000338	0.748702
	Zn217	Zn	0.510843	0.000926	0.249083
	Zn218	Zn	0.760872	0.501667	-0.001476
	Zn219	Zn	0.259824	0.501680	-0.001312
	Zn220	Zn	0.010612	0.750007	0.498575
	Zn221	Zn	0.011100	0.251695	0.498654
	Zn222	Zn	0.010339	0.501650	0.749076
	Zn223	Zn	0.010486	0.500419	0.248902
	Zn224	Zn	0.510550	0.751459	-0.002012
	Zn225	Zn	0.510309	0.250493	-0.001436
	Zn226	Zn	0.760041	-0.000068	0.498608
	Zn227	Zn	0.261487	0.000438	0.498653
	N228	N	0.425180	0.963302	0.677463
	N229	N	0.597492	0.037227	0.678270
	N230	N	0.597782	0.964109	0.319236
	N231	N	0.423947	0.037285	0.319390
	N232	N	0.688428	0.416487	0.961285
	N233	N	0.689691	0.587677	0.035427
	N234	N	0.331527	0.586984	0.961133
	N235	N	0.331157	0.415545	0.035542
	N236	N	0.972872	0.677387	0.414254
	N237	N	0.048267	0.678094	0.583154
	N238	N	0.973140	0.323566	0.583882
	N239	N	0.048618	0.324152	0.414295
	N240	N	0.973828	0.415134	0.678144
	N241	N	0.047151	0.587985	0.678404
	N242	N	0.973640	0.587120	0.319474
	N243	N	0.047344	0.415084	0.320064
	N244	N	0.425806	0.678901	0.960970
	N245	N	0.596631	0.680311	0.034949
	N246	N	0.596051	0.322390	0.961255
	N247	N	0.424137	0.321999	0.035620
	N248	N	0.687607	0.962630	0.414477
	N249	N	0.687578	0.038134	0.582836
	N250	N	0.333898	0.962629	0.583349
	N251	N	0.334347	0.038202	0.414699
	N252	N	0.924064	0.463719	0.177774
	N253	N	0.096192	0.538157	0.177496
	N254	N	0.096209	0.464772	0.820238
	N255	N	0.923706	0.537951	0.819583
	N256	N	0.189746	0.914722	0.461692
	N257	N	0.190105	0.086688	0.536045
	N258	N	0.832042	0.086247	0.461178
	N259	N	0.832917	0.915218	0.535763
	N260	N	0.472507	0.178363	0.913900
	N261	N	0.548179	0.178242	0.082928
	N262	N	0.472967	0.823067	0.083771
	N263	N	0.548281	0.824868	0.914696
	N264	N	0.473972	0.914649	0.177756
	N265	N	0.547620	0.087518	0.177795
	N266	N	0.473701	0.087472	0.819115
	N267	N	0.547255	0.915074	0.820387
	N268	N	0.925609	0.179685	0.460851
	N269	N	0.097334	0.180493	0.536025
	N270	N	0.095918	0.822469	0.461338
	N271	N	0.925232	0.821653	0.535651
	N272	N	0.187167	0.464226	0.914430
	N273	N	0.187504	0.539112	0.083263
	N274	N	0.831725	0.463878	0.084387
	N275	N	0.834602	0.539427	0.915212
	O276	O	-0.372597	0.402416	1.354937
	H277	H	-0.374663	0.399523	1.366132
	H278	H	-0.368490	0.402406	1.352984
	O279	O	0.452527	0.521168	0.431270
	H280	H	0.449213	0.526745	0.428508
	H281	H	0.448739	0.528548	0.425097
	O282	O	0.450510	0.469993	0.505361
	H283	H	0.455263	0.464677	0.498263
	H284	H	0.442828	0.471965	0.510321
	O285	O	0.481322	0.470259	0.480809
	H286	H	0.473218	0.485069	0.481130
	H287	H	0.469152	0.466475	0.475348
	O288	O	0.542786	0.460929	0.451423
	H289	H	0.528463	0.451140	0.451124
	H290	H	0.540817	0.455358	0.456304
	O291	O	-0.524821	1.444029	0.399044
	H292	H	-0.516894	1.443323	0.397857
	H293	H	-0.516339	1.441900	0.398482
	O294	O	0.550366	0.406777	0.404236
	H295	H	0.557202	0.409489	0.403312
	H296	H	0.567050	0.399632	0.402998
	O297	O	0.473194	-0.515150	0.465593
	H298	H	0.477209	-0.514643	0.464445
	H299	H	0.476451	-0.521228	0.459916
