data_Molecule from HDF5

_cell_length_a		16.633617
_cell_length_b		16.634331
_cell_length_c		16.476911
_cell_angle_alpha	90.054895
_cell_angle_beta	90.109258
_cell_angle_gamma	90.021219
_symmetry_space_group_name_H-M	'P 1'
_symmetry_Int_Tables_number		1

loop_
	_symmetry_equiv_pos_as_xyz
	x,y,z

loop_
	_atom_site_label
	_atom_site_type_symbol
	_atom_site_fract_x
	_atom_site_fract_y
	_atom_site_fract_z
	H0	H	0.379171	0.833411	0.716790
	H1	H	0.586539	0.144871	0.719053
	H2	H	0.588227	0.833476	0.274939
	H3	H	0.378887	0.146381	0.277715
	H4	H	0.701341	0.385719	0.839247
	H5	H	0.702932	0.594023	0.154338
	H6	H	0.263601	0.590075	0.839164
	H7	H	0.263353	0.385920	0.154722
	H8	H	0.826367	0.710350	0.390356
	H9	H	0.139370	0.708333	0.600545
	H10	H	0.826286	0.267404	0.602126
	H11	H	0.136936	0.266898	0.390718
	H12	H	0.825520	0.385697	0.717067
	H13	H	0.139609	0.590286	0.715797
	H14	H	0.825821	0.592756	0.275746
	H15	H	0.138741	0.385527	0.277478
	H16	H	0.379924	0.706282	0.839155
	H17	H	0.586066	0.708664	0.155059
	H18	H	0.586363	0.268100	0.840378
	H19	H	0.378017	0.268965	0.153866
	H20	H	0.705727	0.834113	0.390155
	H21	H	0.705913	0.143718	0.605828
	H22	H	0.260645	0.834845	0.600920
	H23	H	0.262959	0.146846	0.393722
	H24	H	0.879060	0.332255	0.216263
	H25	H	0.086585	0.644934	0.218017
	H26	H	0.085454	0.332219	0.776054
	H27	H	0.878124	0.645645	0.777271
	H28	H	0.201069	0.886630	0.338014
	H29	H	0.199839	0.091457	0.655565
	H30	H	0.760567	0.092957	0.340421
	H31	H	0.762301	0.883669	0.654012
	H32	H	0.327110	0.210607	0.892399
	H33	H	0.635954	0.214517	0.106521
	H34	H	0.325677	0.768265	0.102063
	H35	H	0.637876	0.767879	0.893637
	H36	H	0.324754	0.886716	0.215787
	H37	H	0.637319	0.095203	0.220860
	H38	H	0.325865	0.091326	0.779028
	H39	H	0.637319	0.884227	0.777347
	H40	H	0.878017	0.207712	0.339067
	H41	H	0.085374	0.209412	0.654550
	H42	H	0.087120	0.769120	0.338580
	H43	H	0.880319	0.770009	0.654460
	H44	H	0.204143	0.333585	0.889937
	H45	H	0.204632	0.643702	0.103341
	H46	H	0.759725	0.333471	0.102071
	H47	H	0.760499	0.644700	0.892754
	H48	H	0.387891	0.103205	0.587767
	H49	H	0.570601	0.878178	0.585311
	H50	H	0.561339	0.097569	0.407166
	H51	H	0.388627	0.877228	0.407849
	H52	H	0.568957	0.403297	0.108232
	H53	H	0.576335	0.580786	0.881595
	H54	H	0.383790	0.575973	0.113289
	H55	H	0.399582	0.407421	0.888539
	H56	H	0.092958	0.576218	0.407492
	H57	H	0.866246	0.591327	0.586879
	H58	H	0.093690	0.399274	0.588054
	H59	H	0.870025	0.398371	0.409294
	H60	H	0.093556	0.397243	0.584191
	H61	H	0.874694	0.576835	0.575845
	H62	H	0.094665	0.581013	0.405940
	H63	H	0.870114	0.400587	0.406288
	H64	H	0.397639	0.572581	0.106887
	H65	H	0.570922	0.572281	0.886456
	H66	H	0.570072	0.399399	0.109244
	H67	H	0.396337	0.389226	0.881348
	H68	H	0.571970	0.096106	0.420650
	H69	H	0.573045	0.877941	0.585734
	H70	H	0.392651	0.103507	0.591513
	H71	H	0.392213	0.876229	0.406039
	H72	H	0.883077	0.602676	0.083698
	H73	H	0.076169	0.375641	0.085840
	H74	H	0.067063	0.598326	0.908792
	H75	H	0.892346	0.377626	0.909117
	H76	H	0.063612	0.900597	0.605485
	H77	H	0.069679	0.078237	0.384327
	H78	H	0.893342	0.072879	0.608437
	H79	H	0.892349	0.904081	0.385130
	H80	H	0.593746	0.077782	0.910556
	H81	H	0.368700	0.081908	0.090470
	H82	H	0.589202	0.904503	0.080469
	H83	H	0.370947	0.900762	0.908161
	H84	H	0.595850	0.901482	0.095394
	H85	H	0.371513	0.081528	0.081922
	H86	H	0.592966	0.077279	0.910565
	H87	H	0.368595	0.896785	0.904896
	H88	H	0.899532	0.079923	0.608772
	H89	H	0.071812	0.082228	0.382492
	H90	H	0.073876	0.891346	0.613149
	H91	H	0.897144	0.900223	0.385268
	H92	H	0.074042	0.599403	0.912633
	H93	H	0.069989	0.376598	0.089600
	H94	H	0.895777	0.602319	0.093899
	H95	H	0.889424	0.376256	0.906912
	H96	H	0.393599	0.101108	0.586006
	H97	H	0.571593	0.877576	0.587506
	H98	H	0.577489	0.103269	0.406066
	H99	H	0.391861	0.878432	0.409538
	H100	H	0.572440	0.402645	0.109976
	H101	H	0.565419	0.582103	0.884438
	H102	H	0.395594	0.586841	0.112999
	H103	H	0.382028	0.402280	0.882080
	H104	H	0.093772	0.579625	0.411121
	H105	H	0.869182	0.573346	0.594559
	H106	H	0.092183	0.401510	0.584764
	H107	H	0.869459	0.397145	0.405626
	H108	H	0.897610	0.596169	0.078701
	H109	H	0.070363	0.378411	0.082077
	H110	H	0.073197	0.600758	0.904669
	H111	H	0.892840	0.376745	0.905513
	H112	H	0.078297	0.905780	0.609603
	H113	H	0.074366	0.077592	0.383252
	H114	H	0.891013	0.080999	0.611958
	H115	H	0.891594	0.898198	0.383445
	H116	H	0.593588	0.077519	0.909939
	H117	H	0.372235	0.073689	0.087016
	H118	H	0.596195	0.890054	0.083879
	H119	H	0.369642	0.895847	0.910843
	C120	C	0.360336	-0.001193	0.619341
	C121	C	0.603869	0.980693	0.619249
	C122	C	0.603473	-0.003135	0.376852
	C123	C	0.360300	0.980910	0.376204
	C124	C	0.602749	0.368572	0.005334
	C125	C	0.602771	0.610031	0.988525
	C126	C	0.360950	0.609764	0.006337
	C127	C	0.360853	0.367839	0.988034
	C128	C	-0.009420	0.610417	0.375322
	C129	C	0.973770	0.611230	0.617802
	C130	C	-0.009871	0.367918	0.617565
	C131	C	0.973136	0.367144	0.374993
	C132	C	0.860627	0.497098	0.117426
	C133	C	0.103893	0.479970	0.118379
	C134	C	0.102819	0.496369	0.876205
	C135	C	0.859998	0.480448	0.875613
	C136	C	0.103577	0.868261	0.504957
	C137	C	0.103209	0.110750	0.488325
	C138	C	0.861366	0.109547	0.506113
	C139	C	0.861755	0.868403	0.488477
	C140	C	0.490763	0.109759	0.877397
	C141	C	0.473513	0.111532	0.119499
	C142	C	0.490482	0.867430	0.118514
	C143	C	0.473148	0.866587	0.876092
	C144	C	0.359675	0.880516	0.677397
	C145	C	0.605614	0.097765	0.679597
	C146	C	0.606262	0.880329	0.315498
	C147	C	0.360138	0.099134	0.317267
	C148	C	0.661851	0.366510	0.886641
	C149	C	0.662802	0.612302	0.107136
	C150	C	0.302933	0.609784	0.886667
	C151	C	0.302492	0.366904	0.107141
	C152	C	0.873232	0.670181	0.372581
	C153	C	0.092334	0.668768	0.619064
	C154	C	0.872816	0.307978	0.620073
	C155	C	0.090334	0.307339	0.372881
	C156	C	0.872526	0.366556	0.677292
	C157	C	0.092212	0.610323	0.676493
	C158	C	0.872822	0.611552	0.315571
	C159	C	0.091108	0.366167	0.316219
	C160	C	0.360505	0.667383	0.886659
	C161	C	0.604636	0.669311	0.107506
	C162	C	0.605061	0.308032	0.887385
	C163	C	0.359401	0.308735	0.106741
	C164	C	0.664891	0.880510	0.372762
	C165	C	0.664957	0.097285	0.623163
	C166	C	0.301052	0.881176	0.620040
	C167	C	0.302351	0.099524	0.374992
	C168	C	0.859988	0.379054	0.176423
	C169	C	0.105262	0.597755	0.178108
	C170	C	0.104206	0.379378	0.815789
	C171	C	0.859056	0.598448	0.816802
	C172	C	0.162170	0.867675	0.385930
	C173	C	0.161036	0.111175	0.607932
	C174	C	0.801086	0.111197	0.387449
	C175	C	0.802427	0.865749	0.606867
	C176	C	0.373457	0.169609	0.874570
	C177	C	0.590013	0.172981	0.123601
	C178	C	0.372638	0.808264	0.120387
	C179	C	0.590910	0.807589	0.874531
	C180	C	0.372188	0.867122	0.177239
	C181	C	0.590616	0.113765	0.180374
	C182	C	0.372841	0.110803	0.818038
	C183	C	0.590567	0.865426	0.816787
	C184	C	0.859222	0.168357	0.386837
	C185	C	0.104014	0.169439	0.607345
	C186	C	0.105479	0.809216	0.385971
	C187	C	0.860883	0.808993	0.606995
	C188	C	0.163345	0.379895	0.872539
	C189	C	0.163966	0.597248	0.121182
	C190	C	0.800487	0.379909	0.119987
	C191	C	0.800560	0.598023	0.873998
	C192	C	0.384527	0.081204	0.595379
	C193	C	0.578888	0.899194	0.593427
	C194	C	0.577659	0.078044	0.403698
	C195	C	0.384077	0.898632	0.400920
	C196	C	0.577770	0.394349	0.087664
	C197	C	0.578076	0.585362	0.905710
	C198	C	0.385268	0.585693	0.089390
	C199	C	0.385507	0.392510	0.905239
	C200	C	0.072454	0.585980	0.400700
	C201	C	0.891450	0.587413	0.592905
	C202	C	0.071958	0.392268	0.592791
	C203	C	0.890870	0.391675	0.399880
	C204	C	0.885276	0.579050	0.092606
	C205	C	0.079392	0.398115	0.093017
	C206	C	0.078365	0.578264	0.901605
	C207	C	0.884430	0.398282	0.900215
	C208	C	0.078934	0.892292	0.587775
	C209	C	0.078981	0.086263	0.404998
	C210	C	0.887235	0.084908	0.588300
	C211	C	0.886494	0.893718	0.406034
	C212	C	0.572175	0.084747	0.903205
	C213	C	0.392041	0.086295	0.093754
	C214	C	0.572495	0.891729	0.093674
	C215	C	0.391125	0.890748	0.900875
	Zn216	Zn	0.481967	-0.010744	0.748168
	Zn217	Zn	0.482032	-0.011054	0.247556
	Zn218	Zn	0.731188	0.489219	-0.003257
	Zn219	Zn	0.233020	0.488560	-0.003018
	Zn220	Zn	-0.017450	0.740139	0.496197
	Zn221	Zn	-0.018268	0.238447	0.496774
	Zn222	Zn	-0.018453	0.489435	0.746546
	Zn223	Zn	-0.018110	0.488559	0.246445
	Zn224	Zn	0.481799	0.737661	-0.002472
	Zn225	Zn	0.482193	0.239854	-0.002386
	Zn226	Zn	0.732948	-0.011164	0.498287
	Zn227	Zn	0.231573	-0.009742	0.497115
	N228	N	0.395897	0.954593	0.677022
	N229	N	0.568407	0.024215	0.677498
	N230	N	0.568903	0.953769	0.317786
	N231	N	0.395388	0.024388	0.317690
	N232	N	0.660655	0.403398	0.961182
	N233	N	0.661883	0.576294	0.032112
	N234	N	0.302908	0.574867	0.962115
	N235	N	0.303073	0.402772	0.032179
	N236	N	0.947551	0.669753	0.409127
	N237	N	0.017542	0.669686	0.583494
	N238	N	0.946953	0.308598	0.583737
	N239	N	0.015808	0.307627	0.408519
	N240	N	0.946426	0.403098	0.675979
	N241	N	0.017385	0.575443	0.676072
	N242	N	0.946904	0.575268	0.316972
	N243	N	0.017023	0.402545	0.317232
	N244	N	0.395689	0.667590	0.962125
	N245	N	0.568031	0.668104	0.032678
	N246	N	0.569219	0.309127	0.962415
	N247	N	0.394957	0.309201	0.031687
	N248	N	0.663247	0.954261	0.410319
	N249	N	0.664121	0.023371	0.586506
	N250	N	0.301218	0.955902	0.585013
	N251	N	0.302069	0.024979	0.410735
	N252	N	0.896626	0.452971	0.175048
	N253	N	0.068697	0.523827	0.176533
	N254	N	0.067008	0.453026	0.818000
	N255	N	0.895079	0.524136	0.817303
	N256	N	0.161408	0.903505	0.461091
	N257	N	0.160880	0.075831	0.532574
	N258	N	0.801878	0.075748	0.462735
	N259	N	0.802864	0.901933	0.532053
	N260	N	0.447661	0.169111	0.910748
	N261	N	0.516127	0.171785	0.086488
	N262	N	0.447222	0.808045	0.084840
	N263	N	0.516624	0.807815	0.910378
	N264	N	0.446536	0.903178	0.176460
	N265	N	0.517237	0.076228	0.177903
	N266	N	0.446811	0.074077	0.819672
	N267	N	0.516312	0.901288	0.817423
	N268	N	0.895924	0.167699	0.461573
	N269	N	0.068998	0.169435	0.531829
	N270	N	0.069713	0.809258	0.461047
	N271	N	0.896895	0.810283	0.532069
	N272	N	0.162647	0.453775	0.909483
	N273	N	0.163429	0.522866	0.084702
	N274	N	0.800921	0.454298	0.083964
	N275	N	0.800739	0.523429	0.909422
	O276	O	0.271925	0.710449	-0.526424
	H277	H	0.255798	0.730829	-0.537441
	H278	H	0.265704	0.706490	-0.547227
	O279	O	0.468595	0.574801	0.443162
	H280	H	0.454822	0.582997	0.441948
	H281	H	0.473279	0.575052	0.443943
	O282	O	0.666423	0.305121	0.680531
	H283	H	0.647689	0.310446	0.649899
	H284	H	0.647758	0.331415	0.673805
	O285	O	0.962482	0.215298	0.993943
	H286	H	0.950941	0.210365	0.994620
	H287	H	0.971318	0.224085	1.016357
	O288	O	0.247365	0.726658	0.736198
	H289	H	0.258601	0.720928	0.737909
	H290	H	0.277296	0.712172	0.707514
	O291	O	0.259196	0.270512	0.529232
	H292	H	0.250403	0.261183	0.551236
	H293	H	0.246402	0.256462	0.550319
	O294	O	0.952161	-0.223194	1.207909
	H295	H	0.946262	-0.222741	1.212848
	H296	H	0.940390	-0.239245	1.214586
	O297	O	0.535362	0.432992	0.716077
	H298	H	0.539632	0.455179	0.716304
	H299	H	0.540450	0.445825	0.712951
	O300	O	0.027110	0.128029	0.920293
	H301	H	0.007958	0.143472	0.927531
	H302	H	0.008992	0.115811	0.921670
	O303	O	0.443423	0.282697	0.705988
	H304	H	0.466079	0.302552	0.702249
	H305	H	0.453784	0.271339	0.712385
	O306	O	1.050806	0.953501	-0.133915
	H307	H	1.047240	0.939303	-0.133335
	H308	H	1.031313	0.960161	-0.149320
	O309	O	0.448227	0.326662	0.413091
	H310	H	0.445356	0.329784	0.396941
	H311	H	0.440677	0.326626	0.400422
	O312	O	1.028593	1.007642	0.909339
	H313	H	1.040010	1.017097	0.918590
	H314	H	1.006552	1.007665	0.898187
	O315	O	0.464667	0.393512	0.499807
	H316	H	0.463981	0.388348	0.486926
	H317	H	0.461713	0.385593	0.491631
	O318	O	0.286065	0.346929	0.587841
	H319	H	0.278913	0.372751	0.590280
	H320	H	0.300734	0.331951	0.587150
	O321	O	-0.239891	1.174543	0.987125
	H322	H	-0.237535	1.163024	0.997803
	H323	H	-0.254722	1.179367	0.978936
	O324	O	0.791755	0.947818	0.185659
	H325	H	0.788214	0.946582	0.204375
	H326	H	0.795207	0.943960	0.190399
	O327	O	0.050182	-0.098361	1.165116
	H328	H	0.045174	-0.096854	1.174236
	H329	H	0.064250	-0.096547	1.166174
	O330	O	0.775245	0.779755	0.205276
	H331	H	0.778084	0.782531	0.166556
	H332	H	0.774532	0.788008	0.201715
	O333	O	0.273711	0.430062	0.438675
	H334	H	0.274641	0.419625	0.456800
	H335	H	0.272498	0.433694	0.442702
	O336	O	0.865012	-0.111537	-0.034396
	H337	H	0.873147	-0.099702	-0.041413
	H338	H	0.867897	-0.112816	-0.038435
	O339	O	1.500754	0.559906	0.643348
	H340	H	1.508483	0.565303	0.630519
	H341	H	1.506682	0.577460	0.643226
	O342	O	-0.212344	-0.203082	-0.192914
	H343	H	-0.199738	-0.169806	-0.183581
	H344	H	-0.187610	-0.196341	-0.165729
	O345	O	0.267431	1.278285	1.281803
	H346	H	0.288519	1.291323	1.285119
	H347	H	0.263773	1.298724	1.295833
	O348	O	0.704746	0.482296	0.643896
	H349	H	0.717070	0.497204	0.667205
	H350	H	0.703013	0.497631	0.643965
	O351	O	0.433195	0.651096	0.483905
	H352	H	0.448414	0.665519	0.479878
	H353	H	0.442246	0.648632	0.478872
	O354	O	-0.226666	-0.223015	1.033675
	H355	H	-0.220412	-0.216995	1.010161
	H356	H	-0.227536	-0.233740	1.021537
	O357	O	0.701305	0.269120	0.460498
	H358	H	0.699339	0.253415	0.474286
	H359	H	0.697962	0.264662	0.464563
	O360	O	0.694626	0.706038	0.530025
	H361	H	0.701360	0.705725	0.521051
	H362	H	0.705190	0.708229	0.544681
	O363	O	0.040336	0.014226	-0.009061
	H364	H	0.041705	0.024927	-0.014665
	H365	H	0.033780	0.006900	-0.023594
	O366	O	0.507751	0.271674	0.280003
	H367	H	0.523053	0.294144	0.276639
	H368	H	0.520674	0.245488	0.250139
	O369	O	0.809925	0.161948	0.186740
	H370	H	0.824265	0.146504	0.170353
	H371	H	0.816221	0.152995	0.190489
	O372	O	0.913994	1.181830	-0.150839
	H373	H	0.909505	1.176592	-0.153341
	H374	H	0.914196	1.202816	-0.171367
	O375	O	1.020357	-0.234475	-0.221750
	H376	H	1.052494	-0.238635	-0.231961
	H377	H	1.038050	-0.249130	-0.242906
	O378	O	0.268561	0.527303	0.295948
	H379	H	0.261375	0.530094	0.291448
	H380	H	0.264731	0.524438	0.295764
	O381	O	-0.679285	0.481484	0.468571
	H382	H	-0.680126	0.485769	0.464209
	H383	H	-0.672781	0.474796	0.480502
	O384	O	1.193486	0.199947	1.027173
	H385	H	1.190327	0.178288	1.007181
	H386	H	1.205794	0.224461	1.025840
	O387	O	0.769949	1.201745	-0.174966
	H388	H	0.736227	1.234597	-0.195596
	H389	H	0.782750	1.193882	-0.148798
	O390	O	0.576951	0.493133	0.530967
	H391	H	0.577095	0.514778	0.531684
	H392	H	0.589685	0.508551	0.535879
	O393	O	0.360115	0.619871	0.609623
	H394	H	0.370634	0.625543	0.598413
	H395	H	0.353278	0.622391	0.585908
	O396	O	0.016318	1.205342	1.213352
	H397	H	0.032059	1.213879	1.219961
	H398	H	0.022432	1.216711	1.220362
	O399	O	-0.065516	-0.191425	0.884562
	H400	H	-0.037604	-0.197999	0.861896
	H401	H	-0.050321	-0.179712	0.890655
	O402	O	1.196763	0.858428	-0.218070
	H403	H	1.231730	0.841721	-0.252590
	H404	H	1.189848	0.851297	-0.185539
	O405	O	0.760617	0.015691	0.846197
	H406	H	0.753804	0.039565	0.836428
	H407	H	0.749174	0.031631	0.855554
	O408	O	-0.252276	0.018279	0.032877
	H409	H	-0.243248	0.019615	0.041564
	H410	H	-0.258630	0.022064	0.028363
	O411	O	0.961664	1.043297	0.985143
	H412	H	0.972920	1.047351	0.985936
	H413	H	0.957741	1.036990	0.978398
	O414	O	0.579465	0.654527	0.404874
	H415	H	0.578549	0.659611	0.387873
	H416	H	0.583672	0.646404	0.422762
	O417	O	1.163506	0.052380	1.175528
	H418	H	1.170624	0.076089	1.176302
	H419	H	1.176268	0.063275	1.182342
	O420	O	-0.150086	0.986104	0.932739
	H421	H	-0.147069	0.991346	0.918992
	H422	H	-0.153503	1.005333	0.936612
	O423	O	0.244075	0.247783	0.736427
	H424	H	0.264880	0.248102	0.738830
	H425	H	0.254633	0.234975	0.757539
	O426	O	0.293253	0.579841	0.689238
	H427	H	0.288837	0.557134	0.694715
	H428	H	0.317700	0.559589	0.680326
	O429	O	1.100134	1.039328	0.794854
	H430	H	1.111394	1.035325	0.784256
	H431	H	1.093329	1.024687	0.785032
	O432	O	0.682133	0.561932	0.469939
	H433	H	0.688946	0.547209	0.475716
	H434	H	0.681892	0.579457	0.456509
	O435	O	0.147212	0.828623	0.190192
	H436	H	0.133657	0.848576	0.186682
	H437	H	0.139462	0.842255	0.161968
	O438	O	0.140809	-0.059443	0.094823
	H439	H	0.143026	-0.052177	0.083630
	H440	H	0.141761	-0.045962	0.096496
	O441	O	0.054700	-0.217818	0.068695
	H442	H	0.054443	-0.197940	0.052520
	H443	H	0.046780	-0.223898	0.085908
	O444	O	0.689253	0.694987	0.702825
	H445	H	0.720372	0.727839	0.735232
	H446	H	0.668848	0.703683	0.677644
	O447	O	-0.105862	1.034282	1.187562
	H448	H	-0.094389	1.026897	1.196690
	H449	H	-0.081870	1.030604	1.190852
	O450	O	0.700765	0.448140	1.445384
	H451	H	0.704452	0.446474	1.426600
	H452	H	0.697257	0.434022	1.455148
	O453	O	0.509233	0.706801	0.703084
	H454	H	0.509792	0.733975	0.728855
	H455	H	0.509385	0.703610	0.682907
	O456	O	0.194612	0.159858	1.212473
	H457	H	0.214776	0.189736	1.226298
	H458	H	0.203328	0.172387	1.195023
	O459	O	1.169762	1.145782	-0.117155
	H460	H	1.157971	1.126685	-0.109525
	H461	H	1.154118	1.127616	-0.102510
	O462	O	0.448137	0.706401	0.282777
	H463	H	0.452009	0.723236	0.268879
	H464	H	0.431559	0.711861	0.284156
	O465	O	1.198698	-0.234161	-0.040159
	H466	H	1.203211	-0.245854	-0.028772
	H467	H	1.203814	-0.233873	-0.036695
	O468	O	0.647863	0.422348	0.358566
	H469	H	0.662104	0.430892	0.343821
	H470	H	0.656305	0.416550	0.354406
	O471	O	0.280727	0.690418	0.298293
	H472	H	0.276386	0.712371	0.271693
	H473	H	0.276699	0.665442	0.303848
	O474	O	0.535677	0.264600	0.546600
	H475	H	0.511246	0.253305	0.538062
	H476	H	0.524632	0.286385	0.531709
	O477	O	0.460395	0.570231	1.577007
	H478	H	0.464860	0.570376	1.580598
	H479	H	0.460765	0.567400	1.566815
	O480	O	0.520330	0.448446	0.297144
	H481	H	0.513313	0.484302	0.296235
	H482	H	0.531664	0.452030	0.290111
	O483	O	0.627557	0.598864	0.330990
	H484	H	0.646879	0.608428	0.326154
	H485	H	0.628401	0.581975	0.333409
	O486	O	0.713351	0.270038	1.269933
	H487	H	0.722582	0.247792	1.261132
	H488	H	0.718783	0.273616	1.305187
	O489	O	1.030484	1.021988	-0.211950
	H490	H	1.012891	1.038961	-0.218893
	H491	H	1.037079	1.018339	-0.215548
