data_Molecule from HDF5

_cell_length_a		16.695463
_cell_length_b		16.474198
_cell_length_c		16.733366
_cell_angle_alpha	90.041817
_cell_angle_beta	89.959725
_cell_angle_gamma	90.050045
_symmetry_space_group_name_H-M	'P 1'
_symmetry_Int_Tables_number		1

loop_
	_symmetry_equiv_pos_as_xyz
	x,y,z

loop_
	_atom_site_label
	_atom_site_type_symbol
	_atom_site_fract_x
	_atom_site_fract_y
	_atom_site_fract_z
	H0	H	0.396179	0.839997	0.717271
	H1	H	0.603916	0.155070	0.715915
	H2	H	0.602215	0.838799	0.280416
	H3	H	0.397630	0.154076	0.278861
	H4	H	0.720813	0.392850	0.842095
	H5	H	0.723458	0.604083	0.151453
	H6	H	0.280686	0.600194	0.841410
	H7	H	0.279846	0.391945	0.151770
	H8	H	0.843087	0.714065	0.396454
	H9	H	0.153730	0.721257	0.603103
	H10	H	0.847233	0.275490	0.600047
	H11	H	0.157059	0.277690	0.391870
	H12	H	0.849259	0.387122	0.721520
	H13	H	0.151611	0.609754	0.724305
	H14	H	0.844628	0.600410	0.277072
	H15	H	0.155947	0.393477	0.274616
	H16	H	0.399291	0.715329	0.841054
	H17	H	0.607167	0.721063	0.151288
	H18	H	0.600925	0.279549	0.840406
	H19	H	0.399778	0.279460	0.153826
	H20	H	0.718820	0.839107	0.395052
	H21	H	0.718729	0.155269	0.599791
	H22	H	0.282844	0.838541	0.599752
	H23	H	0.279975	0.152549	0.392745
	H24	H	0.896039	0.340848	0.216645
	H25	H	0.103546	0.655544	0.214209
	H26	H	0.104201	0.340331	0.776544
	H27	H	0.893326	0.653349	0.775178
	H28	H	0.221176	0.891763	0.342836
	H29	H	0.223222	0.102955	0.650433
	H30	H	0.777207	0.105054	0.344247
	H31	H	0.778302	0.891694	0.651986
	H32	H	0.345259	0.214951	0.896532
	H33	H	0.657984	0.214485	0.099275
	H34	H	0.345088	0.776125	0.101723
	H35	H	0.656507	0.777679	0.894062
	H36	H	0.347225	0.889778	0.220897
	H37	H	0.655901	0.100744	0.218261
	H38	H	0.346412	0.103631	0.775398
	H39	H	0.654678	0.891191	0.775187
	H40	H	0.896884	0.218400	0.341924
	H41	H	0.106620	0.220527	0.649772
	H42	H	0.099789	0.780120	0.340747
	H43	H	0.896107	0.776385	0.652106
	H44	H	0.219244	0.339386	0.892842
	H45	H	0.219872	0.654210	0.099473
	H46	H	0.782272	0.339449	0.099001
	H47	H	0.778235	0.653179	0.890685
	H48	H	0.413139	0.109924	0.588413
	H49	H	0.589266	0.884900	0.584313
	H50	H	0.590166	0.110132	0.407763
	H51	H	0.404850	0.880803	0.407435
	H52	H	0.588483	0.403938	0.108234
	H53	H	0.597390	0.583623	0.884591
	H54	H	0.408773	0.585390	0.107876
	H55	H	0.410772	0.406429	0.886418
	H56	H	0.114055	0.587546	0.399789
	H57	H	0.889739	0.583318	0.587273
	H58	H	0.110744	0.413901	0.582813
	H59	H	0.888854	0.410558	0.401551
	H60	H	0.111702	0.412639	0.587964
	H61	H	0.890019	0.584914	0.585145
	H62	H	0.113836	0.592936	0.405969
	H63	H	0.888438	0.403919	0.405591
	H64	H	0.410855	0.585840	0.107781
	H65	H	0.585797	0.577299	0.890891
	H66	H	0.596370	0.402646	0.112126
	H67	H	0.408993	0.404124	0.884951
	H68	H	0.590668	0.110620	0.407049
	H69	H	0.592060	0.883151	0.587653
	H70	H	0.412359	0.108686	0.583476
	H71	H	0.416766	0.883332	0.402914
	H72	H	0.914477	0.611107	0.090317
	H73	H	0.092885	0.384507	0.082977
	H74	H	0.090283	0.609386	0.908341
	H75	H	0.907685	0.385483	0.913947
	H76	H	0.092331	0.907758	0.609989
	H77	H	0.088514	0.086074	0.386351
	H78	H	0.911856	0.082824	0.605840
	H79	H	0.908069	0.905984	0.385462
	H80	H	0.613073	0.083946	0.902428
	H81	H	0.390230	0.085891	0.087474
	H82	H	0.608348	0.915978	0.085437
	H83	H	0.389026	0.905086	0.911462
	H84	H	0.613683	0.907126	0.093464
	H85	H	0.389431	0.085316	0.089013
	H86	H	0.613742	0.089010	0.904907
	H87	H	0.391482	0.912975	0.906572
	H88	H	0.914766	0.087888	0.607144
	H89	H	0.093070	0.088012	0.384803
	H90	H	0.091093	0.910540	0.607379
	H91	H	0.908018	0.908026	0.385963
	H92	H	0.089309	0.609524	0.908086
	H93	H	0.092018	0.382096	0.090089
	H94	H	0.913330	0.608934	0.081894
	H95	H	0.911084	0.382486	0.902422
	H96	H	0.408405	0.111072	0.586073
	H97	H	0.587698	0.884351	0.588999
	H98	H	0.589728	0.110808	0.407121
	H99	H	0.414085	0.886241	0.415019
	H100	H	0.594288	0.410771	0.108991
	H101	H	0.585047	0.591242	0.886641
	H102	H	0.409212	0.586649	0.108690
	H103	H	0.407366	0.407370	0.884965
	H104	H	0.111510	0.585318	0.406932
	H105	H	0.890954	0.581955	0.585418
	H106	H	0.111880	0.409039	0.584327
	H107	H	0.891980	0.409588	0.408804
	H108	H	0.906292	0.612295	0.086794
	H109	H	0.086939	0.385187	0.086504
	H110	H	0.089182	0.609225	0.908967
	H111	H	0.919105	0.387932	0.909919
	H112	H	0.088869	0.907573	0.608278
	H113	H	0.092561	0.082873	0.385589
	H114	H	0.909984	0.087284	0.608763
	H115	H	0.910223	0.907315	0.385665
	H116	H	0.611591	0.084850	0.907945
	H117	H	0.388693	0.086643	0.088559
	H118	H	0.611069	0.903895	0.081651
	H119	H	0.386971	0.905584	0.902503
	C120	C	0.379838	0.005621	0.618040
	C121	C	0.621243	0.988350	0.618153
	C122	C	0.621556	0.005924	0.376390
	C123	C	0.379936	0.987495	0.376633
	C124	C	0.623068	0.374945	0.006369
	C125	C	0.622134	0.617845	0.989288
	C126	C	0.379062	0.617795	0.005324
	C127	C	0.378593	0.374974	0.988522
	C128	C	0.009119	0.618816	0.374725
	C129	C	0.991824	0.618096	0.618621
	C130	C	0.009671	0.377696	0.617142
	C131	C	0.992884	0.376390	0.374261
	C132	C	0.880005	0.506304	0.117466
	C133	C	0.121277	0.488535	0.117284
	C134	C	0.121281	0.505668	0.876014
	C135	C	0.879833	0.488641	0.875996
	C136	C	0.122036	0.875639	0.506133
	C137	C	0.123121	0.118664	0.487635
	C138	C	0.879877	0.118897	0.505466
	C139	C	0.877737	0.875557	0.488560
	C140	C	0.509579	0.117818	0.875211
	C141	C	0.492397	0.117620	0.119099
	C142	C	0.508938	0.875610	0.118995
	C143	C	0.491943	0.875865	0.875499
	C144	C	0.378027	0.887166	0.677407
	C145	C	0.622498	0.107453	0.676621
	C146	C	0.621987	0.886513	0.318943
	C147	C	0.378534	0.106360	0.317939
	C148	C	0.681072	0.374165	0.888735
	C149	C	0.683160	0.622036	0.105231
	C150	C	0.320651	0.618980	0.887922
	C151	C	0.319906	0.373697	0.105301
	C152	C	0.890590	0.675708	0.376029
	C153	C	0.107263	0.681142	0.621965
	C154	C	0.893563	0.315839	0.619180
	C155	C	0.110215	0.317355	0.373011
	C156	C	0.894659	0.371225	0.679360
	C157	C	0.106404	0.625424	0.681858
	C158	C	0.891373	0.619324	0.316799
	C159	C	0.109687	0.374912	0.314811
	C160	C	0.379383	0.676231	0.887907
	C161	C	0.625118	0.679779	0.105119
	C162	C	0.621587	0.317921	0.887865
	C163	C	0.379734	0.317761	0.106263
	C164	C	0.679818	0.886740	0.375992
	C165	C	0.679789	0.107456	0.618938
	C166	C	0.321648	0.886402	0.619070
	C167	C	0.320115	0.105694	0.374461
	C168	C	0.877917	0.387752	0.176636
	C169	C	0.122321	0.607738	0.175293
	C170	C	0.122998	0.387325	0.816331
	C171	C	0.876198	0.606175	0.815529
	C172	C	0.180752	0.873699	0.389041
	C173	C	0.182977	0.121732	0.604036
	C174	C	0.818482	0.122467	0.389985
	C175	C	0.818487	0.873504	0.605426
	C176	C	0.392064	0.176160	0.876424
	C177	C	0.610495	0.175701	0.118938
	C178	C	0.392104	0.815642	0.120797
	C179	C	0.609220	0.816789	0.874611
	C180	C	0.393054	0.872185	0.179811
	C181	C	0.609589	0.119131	0.177984
	C182	C	0.392686	0.120896	0.816200
	C183	C	0.608435	0.873352	0.815610
	C184	C	0.877811	0.178947	0.388796
	C185	C	0.125176	0.179948	0.603777
	C186	C	0.120686	0.818101	0.388127
	C187	C	0.877044	0.816303	0.605794
	C188	C	0.179715	0.386942	0.874428
	C189	C	0.180255	0.607148	0.118322
	C190	C	0.821319	0.387247	0.118392
	C191	C	0.818771	0.606140	0.873068
	C192	C	0.404249	0.088266	0.593114
	C193	C	0.596660	0.905640	0.593851
	C194	C	0.597162	0.088850	0.400479
	C195	C	0.404876	0.905071	0.401478
	C196	C	0.599841	0.398892	0.088369
	C197	C	0.596759	0.591382	0.908352
	C198	C	0.402626	0.593127	0.086763
	C199	C	0.402130	0.399176	0.906660
	C200	C	0.091693	0.595457	0.397503
	C201	C	0.911351	0.590974	0.593176
	C202	C	0.090242	0.404577	0.592120
	C203	C	0.911062	0.400965	0.398433
	C204	C	0.904359	0.589128	0.093327
	C205	C	0.097213	0.405672	0.093451
	C206	C	0.096351	0.588031	0.901172
	C207	C	0.905444	0.406510	0.901472
	C208	C	0.098003	0.901256	0.587391
	C209	C	0.098486	0.092792	0.406567
	C210	C	0.905227	0.093403	0.586365
	C211	C	0.901826	0.900109	0.406927
	C212	C	0.591439	0.093069	0.898401
	C213	C	0.410717	0.092927	0.095260
	C214	C	0.589886	0.901403	0.093910
	C215	C	0.410364	0.900675	0.899929
	Zn216	Zn	0.500333	-0.003035	0.746067
	Zn217	Zn	0.500771	-0.003172	0.248531
	Zn218	Zn	0.751499	0.497355	-0.002612
	Zn219	Zn	0.249458	0.496617	-0.003394
	Zn220	Zn	-0.000452	0.747032	0.497234
	Zn221	Zn	0.001687	0.247846	0.495837
	Zn222	Zn	0.000717	0.497478	0.747781
	Zn223	Zn	0.000580	0.497667	0.245439
	Zn224	Zn	0.500870	0.747047	-0.002580
	Zn225	Zn	0.501141	0.246295	-0.002440
	Zn226	Zn	0.749552	-0.002455	0.497414
	Zn227	Zn	0.251698	-0.003831	0.497467
	N228	N	0.413019	0.962504	0.677350
	N229	N	0.586988	0.032180	0.676668
	N230	N	0.586956	0.961921	0.318600
	N231	N	0.414743	0.031583	0.318750
	N232	N	0.682339	0.408784	0.963436
	N233	N	0.681411	0.584337	0.031973
	N234	N	0.319998	0.583498	0.962027
	N235	N	0.318891	0.408480	0.030916
	N236	N	0.964927	0.675805	0.411119
	N237	N	0.035032	0.676757	0.583221
	N238	N	0.966215	0.319483	0.581059
	N239	N	0.036410	0.318041	0.409171
	N240	N	0.967909	0.408791	0.678425
	N241	N	0.033573	0.586912	0.679954
	N242	N	0.966371	0.585110	0.315384
	N243	N	0.035624	0.410713	0.315298
	N244	N	0.414688	0.675903	0.961822
	N245	N	0.587943	0.677472	0.031976
	N246	N	0.586467	0.317916	0.962039
	N247	N	0.415539	0.318293	0.032490
	N248	N	0.680104	0.962210	0.410716
	N249	N	0.679391	0.032327	0.583476
	N250	N	0.322292	0.961243	0.582910
	N251	N	0.320534	0.030630	0.409928
	N252	N	0.913616	0.462870	0.176411
	N253	N	0.086462	0.532796	0.174967
	N254	N	0.087542	0.462442	0.816905
	N255	N	0.913249	0.531800	0.817026
	N256	N	0.181951	0.908487	0.463607
	N257	N	0.182056	0.084389	0.530774
	N258	N	0.819397	0.085681	0.463606
	N259	N	0.818620	0.909578	0.531493
	N260	N	0.465863	0.174692	0.912232
	N261	N	0.536474	0.175024	0.083180
	N262	N	0.465339	0.817468	0.083570
	N263	N	0.535715	0.818023	0.911072
	N264	N	0.466756	0.908637	0.178980
	N265	N	0.535078	0.083936	0.178640
	N266	N	0.466817	0.085434	0.815107
	N267	N	0.534258	0.909228	0.815798
	N268	N	0.915334	0.176761	0.461719
	N269	N	0.088828	0.178160	0.530283
	N270	N	0.084876	0.819020	0.462000
	N271	N	0.912888	0.817284	0.531985
	N272	N	0.179029	0.461641	0.910645
	N273	N	0.179950	0.531989	0.082986
	N274	N	0.822542	0.461908	0.082121
	N275	N	0.820671	0.531767	0.909975
	O276	O	0.066410	0.874426	0.161842
	H277	H	0.048600	0.882610	0.153332
	H278	H	0.044681	0.853872	0.158496
	O279	O	0.314477	0.312434	0.307020
	H280	H	0.339475	0.322655	0.327595
	H281	H	0.327441	0.339683	0.317241
	O282	O	1.139089	0.180046	0.886000
	H283	H	1.136775	0.173598	0.909290
	H284	H	1.118773	0.155852	0.889416
	O285	O	0.513588	0.355310	0.436184
	H286	H	0.510245	0.367740	0.430976
	H287	H	0.507196	0.361206	0.418392
	O288	O	0.716352	0.703185	0.706918
	H289	H	0.689346	0.696507	0.701378
	H290	H	0.743758	0.736218	0.740121
	O291	O	0.534193	0.333960	0.573312
	H292	H	0.512499	0.342328	0.556629
	H293	H	0.544767	0.326790	0.564717
	O294	O	0.872810	0.216375	0.964184
	H295	H	0.873956	0.200983	0.936171
	H296	H	0.856643	0.233764	0.973101
	O297	O	0.442697	0.710048	0.272473
	H298	H	0.413968	0.710174	0.289769
	H299	H	0.429737	0.738447	0.251623
	O300	O	-0.137271	0.175595	1.001724
	H301	H	-0.142714	0.195739	0.989121
	H302	H	-0.139813	0.175562	1.002654
	O303	O	0.507543	0.568618	0.616163
	H304	H	0.506980	0.566659	0.630828
	H305	H	0.506232	0.567580	0.606086
	O306	O	0.444696	0.415572	0.630347
	H307	H	0.455381	0.400672	0.628850
	H308	H	0.443207	0.418582	0.631001
	O309	O	0.323478	0.683719	0.680687
	H310	H	0.308034	0.693191	0.697986
	H311	H	0.316908	0.658171	0.658307
	O312	O	0.477141	0.502360	0.527750
	H313	H	0.487132	0.510873	0.520981
	H314	H	0.475990	0.511517	0.519674
	O315	O	1.231190	0.946970	1.059469
	H316	H	1.224961	0.948311	1.054663
	H317	H	1.234006	0.951742	1.088776
	O318	O	0.727096	0.521209	0.716799
	H319	H	0.724170	0.535726	0.728199
	H320	H	0.738285	0.542600	0.733853
	O321	O	0.206654	0.792586	0.786972
	H322	H	0.208911	0.828128	0.794662
	H323	H	0.178825	0.792019	0.780533
	O324	O	0.959758	0.773664	0.223775
	H325	H	0.944365	0.749644	0.239150
	H326	H	0.930667	0.764345	0.232040
	O327	O	-0.224505	-0.042156	1.221308
	H328	H	-0.244370	-0.032776	1.251301
	H329	H	-0.195598	-0.021810	1.226329
	O330	O	0.612148	0.711744	0.507190
	H331	H	0.597332	0.715577	0.521167
	H332	H	0.624010	0.722310	0.531760
	O333	O	0.270989	0.426937	0.516038
	H334	H	0.263112	0.413739	0.510093
	H335	H	0.277145	0.433944	0.515270
	O336	O	0.544921	0.586102	0.266068
	H337	H	0.547878	0.586755	0.267396
	H338	H	0.537579	0.609951	0.253419
	O339	O	0.824510	0.204752	0.784524
	H340	H	0.791872	0.232400	0.757286
	H341	H	0.832411	0.187901	0.778847
	O342	O	-0.030022	-0.111384	-0.055766
	H343	H	-0.040403	-0.107034	-0.048392
	H344	H	-0.025146	-0.109710	-0.052034
	O345	O	-0.115328	1.059931	0.961881
	H346	H	-0.124145	1.057103	0.969001
	H347	H	-0.122024	1.064175	0.953640
	O348	O	0.126907	0.160654	0.019421
	H349	H	0.103927	0.161372	0.022172
	H350	H	0.142867	0.182443	0.034089
	O351	O	0.687352	0.684101	0.309383
	H352	H	0.654353	0.671558	0.316537
	H353	H	0.691953	0.669711	0.330648
	O354	O	0.084207	-0.198361	0.984333
	H355	H	0.076895	-0.203281	0.992007
	H356	H	0.100610	-0.209350	0.967152
	O357	O	0.731478	0.371116	0.511710
	H358	H	0.717878	0.383693	0.517795
	H359	H	0.746286	0.374137	0.519984
	O360	O	0.281829	0.291138	0.604759
	H361	H	0.266009	0.269590	0.626265
	H362	H	0.299917	0.295753	0.610671
	O363	O	-0.081178	0.075335	0.214637
	H364	H	-0.079756	0.091618	0.206279
	H365	H	-0.064019	0.093452	0.216926
	O366	O	0.651611	0.714310	0.496389
	H367	H	0.653708	0.730119	0.498534
	H368	H	0.652158	0.723428	0.518595
	O369	O	0.537850	0.279162	0.276687
	H370	H	0.543723	0.270277	0.260744
	H371	H	0.548363	0.272691	0.273466
	O372	O	0.788796	0.781589	0.025618
	H373	H	0.776230	0.772778	0.042340
	H374	H	0.780014	0.790368	0.042513
	O375	O	0.954833	-0.054691	0.052785
	H376	H	0.954303	-0.051916	0.060192
	H377	H	0.964813	-0.060243	0.054710
	O378	O	0.485604	0.472106	0.311128
	H379	H	0.491938	0.467163	0.315282
	H380	H	0.483283	0.487968	0.306604
	O381	O	0.224450	0.966779	0.777078
	H382	H	0.242576	0.974020	0.762914
	H383	H	0.226598	0.977991	0.789952
	O384	O	0.809301	-0.189043	0.808522
	H385	H	0.817918	-0.170152	0.838260
	H386	H	0.834577	-0.167974	0.813877
	O387	O	1.073350	1.001604	0.143243
	H388	H	1.073635	0.991719	0.145663
	H389	H	1.081086	0.992636	0.143685
	O390	O	0.389703	0.632663	0.496183
	H391	H	0.378144	0.614494	0.504857
	H392	H	0.399221	0.626144	0.496560
	O393	O	0.394054	0.453530	0.361855
	H394	H	0.377184	0.451021	0.354439
	H395	H	0.409697	0.468518	0.349661
	O396	O	0.008565	0.813669	0.781734
	H397	H	0.007285	0.818576	0.793810
	H398	H	0.004356	0.803855	0.774581
	O399	O	0.070377	0.029251	0.760851
	H400	H	0.065961	0.016438	0.764700
	H401	H	0.059882	0.034929	0.759564
	O402	O	0.803813	0.195110	0.196298
	H403	H	0.797224	0.170523	0.175520
	H404	H	0.786250	0.217709	0.214849
	O405	O	0.986880	0.208665	0.808807
	H406	H	0.978124	0.213727	0.805260
	H407	H	0.977407	0.217533	0.807089
	O408	O	0.229311	0.168971	0.007854
	H409	H	0.246577	0.186080	0.005199
	H410	H	0.227503	0.172554	0.032402
	O411	O	0.476674	0.652404	0.597859
	H412	H	0.464512	0.646590	0.594112
	H413	H	0.453569	0.651185	0.610980
	O414	O	0.697566	0.307077	0.690046
	H415	H	0.669527	0.335075	0.691701
	H416	H	0.689120	0.320420	0.655826
	O417	O	0.724183	0.557546	0.432376
	H418	H	0.721644	0.557898	0.440039
	H419	H	0.720402	0.573621	0.448225
	O420	O	0.719393	0.456372	0.284236
	H421	H	0.740519	0.469272	0.288406
	H422	H	0.714026	0.446770	0.277867
	O423	O	-0.052025	0.144985	1.036436
	H424	H	-0.059370	0.161694	1.041091
	H425	H	-0.059048	0.136311	1.032399
	O426	O	0.642026	0.291310	0.497085
	H427	H	0.646186	0.292182	0.507412
	H428	H	0.650704	0.322327	0.494331
	O429	O	0.943632	0.804016	1.012312
	H430	H	0.934109	0.799218	1.008173
	H431	H	0.931746	0.800238	1.034225
	O432	O	0.485715	0.302647	0.707683
	H433	H	0.477713	0.299038	0.697099
	H434	H	0.485201	0.300985	0.713923
	O435	O	0.192396	0.808256	0.192885
	H436	H	0.186794	0.844642	0.182442
	H437	H	0.171269	0.804974	0.164265
	O438	O	0.228998	-0.223825	-0.038128
	H439	H	0.260592	-0.253260	-0.048471
	H440	H	0.225973	-0.207254	-0.057018
	O441	O	0.041132	0.212125	0.220452
	H442	H	0.057754	0.221840	0.229056
	H443	H	0.042301	0.225812	0.222049
	O444	O	0.602785	0.440498	0.520216
	H445	H	0.606192	0.442665	0.526558
	H446	H	0.598991	0.432323	0.525031
	O447	O	0.220481	1.205339	1.154880
	H448	H	0.204156	1.180686	1.155884
	H449	H	0.251394	1.239670	1.180806
	O450	O	-0.064627	0.957991	0.789443
	H451	H	-0.070718	0.967035	0.788694
	H452	H	-0.061592	0.957823	0.791531
	O453	O	0.279219	0.524828	0.274402
	H454	H	0.260154	0.533863	0.244249
	H455	H	0.285817	0.567049	0.278955
	O456	O	0.252300	0.246929	0.749410
	H457	H	0.259067	0.243163	0.752325
	H458	H	0.215116	0.220030	0.767383
	O459	O	0.789635	0.786372	0.208992
	H460	H	0.769367	0.782246	0.216405
	H461	H	0.773462	0.815851	0.223531
	O462	O	0.706156	0.288713	0.301426
	H463	H	0.710434	0.298894	0.326305
	H464	H	0.693848	0.305202	0.315680
	O465	O	1.189348	0.005610	-0.069295
	H466	H	1.187620	0.026673	-0.060015
	H467	H	1.195348	-0.005574	-0.038861
	O468	O	0.282433	0.698874	0.472776
	H469	H	0.259555	0.710502	0.482373
	H470	H	0.292269	0.685049	0.487405
	O471	O	0.351009	0.337849	0.444167
	H472	H	0.344277	0.335676	0.452852
	H473	H	0.364860	0.321312	0.456464
	O474	O	0.286817	0.705556	0.311387
	H475	H	0.282603	0.709161	0.363592
	H476	H	0.261117	0.738416	0.290530
	O477	O	0.507042	0.644385	1.587985
	H478	H	0.497792	0.635492	1.596085
	H479	H	0.503412	0.656283	1.596087
	O480	O	0.271478	0.470975	0.718590
	H481	H	0.260556	0.444953	0.727388
	H482	H	0.255737	0.459240	0.724294
	O483	O	0.427567	0.598765	0.660236
	H484	H	0.416036	0.598099	0.675131
	H485	H	0.432966	0.597389	0.657926
	O486	O	0.772118	-0.039866	0.953692
	H487	H	0.778353	-0.038863	0.954053
	H488	H	0.773495	-0.038602	0.972364
	O489	O	1.007006	1.042244	-0.076816
	H490	H	1.016866	1.058129	-0.064601
	H491	H	0.997834	1.045862	-0.073660
	O492	O	0.224730	0.025188	0.218045
	H493	H	0.235993	0.023777	0.241630
	H494	H	0.211784	0.043567	0.224086
	O495	O	-0.221438	1.027481	0.771357
	H496	H	-0.240112	1.049152	0.758202
	H497	H	-0.227436	1.017592	0.772913
	O498	O	0.806444	1.020507	1.097284
	H499	H	0.810076	1.020325	1.107631
	H500	H	0.814740	1.028392	1.082827
	O501	O	0.575930	0.507629	0.666762
	H502	H	0.555888	0.494696	0.665038
	H503	H	0.570100	0.532317	0.665385
