data_Molecule from HDF5

_cell_length_a		16.558625
_cell_length_b		16.564583
_cell_length_c		16.485286
_cell_angle_alpha	90.094193
_cell_angle_beta	89.954999
_cell_angle_gamma	90.108444
_symmetry_space_group_name_H-M	'P 1'
_symmetry_Int_Tables_number		1

loop_
	_symmetry_equiv_pos_as_xyz
	x,y,z

loop_
	_atom_site_label
	_atom_site_type_symbol
	_atom_site_fract_x
	_atom_site_fract_y
	_atom_site_fract_z
	H0	H	0.387121	0.849628	0.718316
	H1	H	0.604103	0.159366	0.719620
	H2	H	0.602744	0.847650	0.272038
	H3	H	0.393307	0.161373	0.274131
	H4	H	0.720866	0.395738	0.838970
	H5	H	0.718218	0.609931	0.152891
	H6	H	0.276189	0.607666	0.837465
	H7	H	0.274487	0.398791	0.152719
	H8	H	0.839886	0.728292	0.387733
	H9	H	0.153179	0.726411	0.599216
	H10	H	0.840107	0.281392	0.602950
	H11	H	0.150845	0.282730	0.387930
	H12	H	0.839276	0.399985	0.716512
	H13	H	0.154399	0.608474	0.713411
	H14	H	0.839836	0.612189	0.271569
	H15	H	0.151987	0.400203	0.273731
	H16	H	0.391504	0.725093	0.838612
	H17	H	0.603201	0.726587	0.152474
	H18	H	0.602820	0.281421	0.838753
	H19	H	0.391807	0.283238	0.152929
	H20	H	0.719781	0.848381	0.386884
	H21	H	0.720542	0.159498	0.603507
	H22	H	0.270618	0.850038	0.603296
	H23	H	0.274774	0.160779	0.387994
	H24	H	0.889019	0.348492	0.219284
	H25	H	0.099170	0.662733	0.214005
	H26	H	0.099447	0.346760	0.775052
	H27	H	0.891650	0.660928	0.774428
	H28	H	0.214625	0.902616	0.336360
	H29	H	0.217743	0.110669	0.650852
	H30	H	0.775338	0.108911	0.337023
	H31	H	0.774371	0.900629	0.651717
	H32	H	0.339756	0.223666	0.893473
	H33	H	0.652582	0.227724	0.102809
	H34	H	0.338849	0.784787	0.097222
	H35	H	0.652853	0.782807	0.889009
	H36	H	0.338537	0.901294	0.213045
	H37	H	0.653847	0.108035	0.215904
	H38	H	0.340099	0.108524	0.775218
	H39	H	0.652078	0.899108	0.773021
	H40	H	0.891202	0.226236	0.337821
	H41	H	0.099151	0.224458	0.652723
	H42	H	0.097763	0.786121	0.336419
	H43	H	0.890170	0.783438	0.651184
	H44	H	0.214134	0.345848	0.892979
	H45	H	0.216937	0.660764	0.099356
	H46	H	0.772731	0.348423	0.102861
	H47	H	0.775112	0.660945	0.890364
	H48	H	0.407538	0.116842	0.584498
	H49	H	0.586178	0.893929	0.577659
	H50	H	0.591536	0.116462	0.408056
	H51	H	0.407137	0.893254	0.407687
	H52	H	0.580872	0.417392	0.105778
	H53	H	0.579607	0.593049	0.885866
	H54	H	0.399977	0.596032	0.111365
	H55	H	0.403755	0.418006	0.883004
	H56	H	0.106552	0.596426	0.408076
	H57	H	0.883901	0.593808	0.586205
	H58	H	0.104850	0.418915	0.577684
	H59	H	0.889494	0.424304	0.413151
	H60	H	0.109569	0.418401	0.591792
	H61	H	0.883672	0.596674	0.583390
	H62	H	0.107771	0.592425	0.403432
	H63	H	0.880063	0.418076	0.397290
	H64	H	0.407609	0.586344	0.106061
	H65	H	0.587766	0.596939	0.880937
	H66	H	0.585596	0.414146	0.108474
	H67	H	0.411457	0.413245	0.884016
	H68	H	0.582418	0.116567	0.400562
	H69	H	0.584843	0.891516	0.585784
	H70	H	0.408530	0.116103	0.583735
	H71	H	0.401999	0.890839	0.405842
	H72	H	0.916890	0.613328	0.085226
	H73	H	0.088847	0.390070	0.086178
	H74	H	0.087450	0.616743	0.905234
	H75	H	0.913306	0.394259	0.907699
	H76	H	0.080515	0.913582	0.606805
	H77	H	0.089299	0.093383	0.380228
	H78	H	0.909784	0.090419	0.605153
	H79	H	0.910502	0.915361	0.383320
	H80	H	0.610596	0.098671	0.907863
	H81	H	0.386711	0.091334	0.081088
	H82	H	0.610261	0.909234	0.082473
	H83	H	0.383486	0.912586	0.907969
	H84	H	0.606422	0.918404	0.079456
	H85	H	0.383697	0.092005	0.088622
	H86	H	0.605489	0.089731	0.912848
	H87	H	0.385037	0.915864	0.908898
	H88	H	0.908473	0.095320	0.606828
	H89	H	0.082725	0.091647	0.383135
	H90	H	0.088709	0.913909	0.609857
	H91	H	0.905144	0.914059	0.380101
	H92	H	0.088563	0.617458	0.905739
	H93	H	0.083220	0.391621	0.088248
	H94	H	0.906371	0.613131	0.073920
	H95	H	0.905133	0.393047	0.911100
	H96	H	0.407259	0.116378	0.583133
	H97	H	0.578637	0.895634	0.581495
	H98	H	0.581391	0.112552	0.411606
	H99	H	0.406556	0.891978	0.401692
	H100	H	0.586863	0.419893	0.105921
	H101	H	0.587916	0.586705	0.884036
	H102	H	0.412461	0.598862	0.107830
	H103	H	0.404070	0.409411	0.880326
	H104	H	0.109317	0.598593	0.403548
	H105	H	0.884671	0.592584	0.582766
	H106	H	0.111059	0.406587	0.583303
	H107	H	0.882123	0.407226	0.413160
	H108	H	0.902842	0.619400	0.088165
	H109	H	0.084929	0.392585	0.082738
	H110	H	0.088079	0.617849	0.904658
	H111	H	0.906374	0.390531	0.902837
	H112	H	0.085138	0.921420	0.606669
	H113	H	0.083774	0.098678	0.380746
	H114	H	0.905062	0.091615	0.607640
	H115	H	0.906256	0.919976	0.382613
	H116	H	0.609574	0.088985	0.902085
	H117	H	0.383569	0.098691	0.083583
	H118	H	0.610166	0.917533	0.089339
	H119	H	0.384301	0.915226	0.905456
	C120	C	0.374016	0.013575	0.616714
	C121	C	0.617070	0.996179	0.615824
	C122	C	0.617981	0.012139	0.373246
	C123	C	0.374488	0.995748	0.373335
	C124	C	0.617776	0.383398	0.003549
	C125	C	0.617828	0.625255	0.987365
	C126	C	0.375352	0.624863	0.003806
	C127	C	0.374752	0.382140	0.986853
	C128	C	0.004032	0.627601	0.373044
	C129	C	0.987792	0.626450	0.616345
	C130	C	0.004755	0.382641	0.616756
	C131	C	0.986963	0.384175	0.374422
	C132	C	0.874943	0.512483	0.116441
	C133	C	0.117394	0.495576	0.116790
	C134	C	0.117974	0.512630	0.873954
	C135	C	0.875555	0.495885	0.874405
	C136	C	0.116339	0.884775	0.503230
	C137	C	0.117221	0.126604	0.485426
	C138	C	0.874727	0.125669	0.503130
	C139	C	0.874303	0.883568	0.485678
	C140	C	0.505227	0.125076	0.875187
	C141	C	0.488120	0.126440	0.117463
	C142	C	0.505280	0.883344	0.115463
	C143	C	0.487398	0.882048	0.873576
	C144	C	0.370023	0.896303	0.677875
	C145	C	0.621370	0.112688	0.678512
	C146	C	0.620933	0.894631	0.312178
	C147	C	0.374137	0.114181	0.313926
	C148	C	0.679468	0.378962	0.885726
	C149	C	0.678048	0.628016	0.105545
	C150	C	0.315908	0.626477	0.885154
	C151	C	0.314546	0.380202	0.105508
	C152	C	0.886665	0.687964	0.369820
	C153	C	0.106050	0.686136	0.617550
	C154	C	0.886904	0.321908	0.620409
	C155	C	0.104007	0.323085	0.370691
	C156	C	0.886686	0.381096	0.676672
	C157	C	0.106719	0.627483	0.674461
	C158	C	0.886465	0.629886	0.312285
	C159	C	0.104690	0.381577	0.313768
	C160	C	0.373313	0.684664	0.885504
	C161	C	0.620877	0.686241	0.105361
	C162	C	0.621053	0.321770	0.885682
	C163	C	0.373055	0.323017	0.105837
	C164	C	0.679180	0.895143	0.369472
	C165	C	0.679225	0.112812	0.620626
	C166	C	0.311842	0.896831	0.620568
	C167	C	0.315244	0.113860	0.370617
	C168	C	0.871612	0.395270	0.178259
	C169	C	0.118346	0.614633	0.175157
	C170	C	0.118077	0.393921	0.815105
	C171	C	0.872995	0.613662	0.814103
	C172	C	0.175198	0.883409	0.383816
	C173	C	0.177346	0.128773	0.603946
	C174	C	0.814685	0.127898	0.384457
	C175	C	0.814065	0.881379	0.604318
	C176	C	0.386860	0.184096	0.874030
	C177	C	0.605856	0.187143	0.120608
	C178	C	0.386255	0.824453	0.116193
	C179	C	0.605451	0.822516	0.870690
	C180	C	0.386002	0.882423	0.173693
	C181	C	0.606374	0.127493	0.176538
	C182	C	0.387126	0.127063	0.815275
	C183	C	0.605159	0.880383	0.813030
	C184	C	0.872520	0.185872	0.384680
	C185	C	0.118776	0.185712	0.604632
	C186	C	0.117048	0.825733	0.383748
	C187	C	0.871674	0.823452	0.604215
	C188	C	0.175373	0.393337	0.873419
	C189	C	0.176926	0.613837	0.118016
	C190	C	0.813559	0.395016	0.120519
	C191	C	0.815046	0.613730	0.871868
	C192	C	0.400298	0.095231	0.591038
	C193	C	0.590577	0.914822	0.589201
	C194	C	0.592219	0.093876	0.399355
	C195	C	0.398422	0.913538	0.398093
	C196	C	0.591785	0.409551	0.085315
	C197	C	0.592293	0.599589	0.905014
	C198	C	0.399837	0.600525	0.086777
	C199	C	0.399404	0.406455	0.904114
	C200	C	0.086455	0.602881	0.397931
	C201	C	0.905564	0.601465	0.591355
	C202	C	0.087010	0.407475	0.591394
	C203	C	0.905119	0.409412	0.400347
	C204	C	0.901073	0.593938	0.089865
	C205	C	0.092918	0.412777	0.092648
	C206	C	0.094678	0.595365	0.898178
	C207	C	0.900888	0.413957	0.899873
	C208	C	0.091931	0.909233	0.585976
	C209	C	0.092411	0.101781	0.402802
	C210	C	0.900400	0.099879	0.585203
	C211	C	0.900055	0.908869	0.403422
	C212	C	0.587278	0.099865	0.900498
	C213	C	0.405896	0.101378	0.091785
	C214	C	0.587582	0.908051	0.090965
	C215	C	0.405465	0.907133	0.899698
	Zn216	Zn	0.495814	0.004218	0.745308
	Zn217	Zn	0.496270	0.003932	0.244638
	Zn218	Zn	0.746408	0.504060	-0.004807
	Zn219	Zn	0.246591	0.503883	-0.004896
	Zn220	Zn	-0.004451	0.755587	0.495035
	Zn221	Zn	-0.004615	0.254855	0.495209
	Zn222	Zn	-0.003141	0.504993	0.744973
	Zn223	Zn	-0.004231	0.505118	0.245317
	Zn224	Zn	0.497031	0.753971	-0.004717
	Zn225	Zn	0.496951	0.254774	-0.004066
	Zn226	Zn	0.746394	0.004548	0.494471
	Zn227	Zn	0.245832	0.005132	0.494779
	N228	N	0.408240	0.969959	0.675570
	N229	N	0.583211	0.039026	0.675625
	N230	N	0.583542	0.968445	0.314335
	N231	N	0.410302	0.039804	0.315443
	N232	N	0.677580	0.416596	0.960019
	N233	N	0.676493	0.590847	0.031118
	N234	N	0.316962	0.590107	0.959901
	N235	N	0.315222	0.416123	0.030487
	N236	N	0.960974	0.686791	0.406769
	N237	N	0.030983	0.685905	0.582234
	N238	N	0.961410	0.322660	0.583910
	N239	N	0.029719	0.324562	0.407695
	N240	N	0.960884	0.418232	0.674669
	N241	N	0.031952	0.591424	0.674179
	N242	N	0.960610	0.592911	0.314236
	N243	N	0.030768	0.418923	0.315876
	N244	N	0.409607	0.684006	0.960469
	N245	N	0.584232	0.684781	0.030639
	N246	N	0.583711	0.324273	0.960065
	N247	N	0.409813	0.324106	0.031232
	N248	N	0.677328	0.969290	0.406914
	N249	N	0.676805	0.039283	0.582357
	N250	N	0.314650	0.970536	0.582689
	N251	N	0.315321	0.039320	0.406968
	N252	N	0.908717	0.469431	0.176030
	N253	N	0.082270	0.539870	0.174687
	N254	N	0.083290	0.469105	0.815131
	N255	N	0.909920	0.539467	0.815629
	N256	N	0.175023	0.918983	0.459136
	N257	N	0.176931	0.093105	0.528636
	N258	N	0.815834	0.091469	0.459277
	N259	N	0.815514	0.917707	0.529551
	N260	N	0.461438	0.183282	0.910264
	N261	N	0.531034	0.186660	0.084453
	N262	N	0.461426	0.824614	0.080948
	N263	N	0.531092	0.823359	0.907507
	N264	N	0.461003	0.918000	0.173648
	N265	N	0.532223	0.090445	0.174462
	N266	N	0.461795	0.091072	0.815917
	N267	N	0.530581	0.916448	0.814429
	N268	N	0.908805	0.184872	0.459506
	N269	N	0.082179	0.184651	0.529949
	N270	N	0.081434	0.826048	0.459126
	N271	N	0.908095	0.824446	0.529356
	N272	N	0.175934	0.468278	0.908893
	N273	N	0.176706	0.538644	0.082605
	N274	N	0.815531	0.468827	0.082728
	N275	N	0.816213	0.539237	0.908458
	O276	O	0.988816	0.998649	-0.147146
	H277	H	1.008953	0.979956	-0.138141
	H278	H	0.981683	0.972160	-0.146518
	O279	O	-0.014700	0.133862	0.913437
	H280	H	-0.019015	0.152584	0.905315
	H281	H	-0.014488	0.121530	0.898781
	O282	O	0.708225	0.534745	0.707933
	H283	H	0.703702	0.518449	0.713791
	H284	H	0.718929	0.530068	0.717433
	O285	O	0.278570	0.287430	0.523680
	H286	H	0.275291	0.283217	0.531628
	H287	H	0.271559	0.268919	0.523285
	O288	O	1.289995	-0.290554	1.291348
	H289	H	1.283819	-0.269801	1.289819
	H290	H	1.278051	-0.304557	1.289588
	O291	O	0.717074	0.723017	0.521281
	H292	H	0.704695	0.730140	0.520645
	H293	H	0.732061	0.743782	0.527923
	O294	O	-0.180934	-0.173388	-0.188902
	H295	H	-0.200062	-0.176054	-0.187492
	H296	H	-0.175161	-0.184617	-0.201324
	O297	O	1.069165	0.213409	0.206365
	H298	H	1.054540	0.225804	0.205718
	H299	H	1.079650	0.228754	0.197481
	O300	O	0.166691	0.005392	-0.013375
	H301	H	0.158593	0.005081	-0.017834
	H302	H	0.167222	0.016567	-0.005798
	O303	O	-0.218572	-0.206192	0.024280
	H304	H	-0.231996	-0.230389	0.026158
	H305	H	-0.219588	-0.207383	0.067285
	O306	O	0.985996	0.131783	-0.072230
	H307	H	0.978779	0.126380	-0.067191
	H308	H	0.962170	0.138615	-0.071962
	O309	O	0.521038	0.312649	0.294078
	H310	H	0.499722	0.340970	0.294894
	H311	H	0.520523	0.298605	0.270756
	O312	O	0.530534	0.536126	0.536808
	H313	H	0.531441	0.524761	0.528279
	H314	H	0.525489	0.534487	0.530495
	O315	O	0.506018	0.687224	0.485477
	H316	H	0.484424	0.682600	0.480489
	H317	H	0.500088	0.682346	0.466506
	O318	O	0.892771	0.995151	-0.202290
	H319	H	0.896062	0.978186	-0.201094
	H320	H	0.882305	0.965554	-0.208232
	O321	O	-0.146058	0.809571	1.193521
	H322	H	-0.147248	0.841643	1.203274
	H323	H	-0.156372	0.804458	1.214076
	O324	O	0.779952	-0.015372	0.972436
	H325	H	0.776754	-0.014097	0.980210
	H326	H	0.780263	-0.031173	0.985645
	O327	O	1.077852	0.839895	0.867442
	H328	H	1.093876	0.837568	0.875191
	H329	H	1.062262	0.859254	0.860231
	O330	O	0.653771	0.582296	0.383899
	H331	H	0.654655	0.592041	0.406268
	H332	H	0.655434	0.581334	0.393511
	O333	O	0.518874	0.343367	0.526056
	H334	H	0.514980	0.342439	0.524228
	H335	H	0.523173	0.351276	0.523007
	O336	O	0.489936	0.610740	0.478290
	H337	H	0.476019	0.614700	0.480225
	H338	H	0.467501	0.609649	0.473911
	O339	O	0.274547	0.728865	0.463619
	H340	H	0.268892	0.749474	0.462305
	H341	H	0.265994	0.727743	0.455565
	O342	O	-0.197205	0.934793	0.193977
	H343	H	-0.190584	0.947902	0.200588
	H344	H	-0.190718	0.958175	0.185804
	O345	O	0.350140	0.435479	0.412892
	H346	H	0.347397	0.437435	0.410573
	H347	H	0.345286	0.428623	0.428917
	O348	O	0.285013	0.513593	0.709812
	H349	H	0.268145	0.501299	0.726424
	H350	H	0.279718	0.492002	0.713044
	O351	O	0.200502	0.150469	1.197138
	H352	H	0.224314	0.175905	1.206797
	H353	H	0.175925	0.166506	1.191158
	O354	O	1.157773	0.208086	0.995117
	H355	H	1.151254	0.224360	1.001676
	H356	H	1.149303	0.204261	0.983710
	O357	O	0.465141	0.722608	0.275236
	H358	H	0.460662	0.756682	0.247424
	H359	H	0.441850	0.708842	0.287418
	O360	O	0.286515	0.420338	0.336082
	H361	H	0.294761	0.429572	0.335601
	H362	H	0.287485	0.440415	0.357246
	O363	O	0.710208	0.286812	0.458719
	H364	H	0.734399	0.262855	0.447151
	H365	H	0.699517	0.298069	0.441541
	O366	O	0.782565	0.217392	0.934307
	H367	H	0.774346	0.221035	0.903466
	H368	H	0.772498	0.224093	0.916807
	O369	O	0.116688	-0.082069	1.130705
	H370	H	0.117175	-0.053111	1.137646
	H371	H	0.096723	-0.088775	1.122261
	O372	O	-0.072860	1.144574	0.793182
	H373	H	-0.084179	1.131792	0.788950
	H374	H	-0.068471	1.159081	0.788094
	O375	O	1.013062	0.017829	0.144074
	H376	H	1.002210	0.026056	0.157158
	H377	H	0.999990	0.030608	0.131460
	O378	O	0.472066	0.361772	0.678691
	H379	H	0.453522	0.354345	0.678599
	H380	H	0.471019	0.346865	0.687012
	O381	O	-0.002454	0.852175	0.194453
	H382	H	-0.002107	0.845201	0.207564
	H383	H	-0.024514	0.870104	0.196187
	O384	O	0.510541	0.444741	0.633445
	H385	H	0.503592	0.433101	0.640994
	H386	H	0.512581	0.463144	0.628662
	O387	O	0.202356	0.987761	0.793151
	H388	H	0.220533	0.977697	0.774534
	H389	H	0.198058	0.978897	0.811710
	O390	O	0.177544	1.186144	0.810022
	H391	H	0.161068	1.173742	0.830492
	H392	H	0.161953	1.160492	0.820343
	O393	O	1.103763	0.084893	0.016330
	H394	H	1.093824	0.088966	0.012482
	H395	H	1.115702	0.067175	0.005019
	O396	O	0.449173	0.485099	0.369406
	H397	H	0.445833	0.504418	0.369363
	H398	H	0.464939	0.499405	0.369381
	O399	O	0.390571	0.494937	0.359831
	H400	H	0.379861	0.509166	0.366395
	H401	H	0.401570	0.509319	0.357842
	O402	O	0.790752	0.114305	0.794930
	H403	H	0.773547	0.118564	0.770914
	H404	H	0.782888	0.080528	0.811275
	O405	O	0.490944	0.386418	0.419887
	H406	H	0.484799	0.378719	0.405586
	H407	H	0.502705	0.388058	0.423831
	O408	O	1.018059	1.210442	0.959344
	H409	H	0.999600	1.200746	0.977421
	H410	H	0.997074	1.219226	0.942268
	O411	O	0.930853	0.827594	-0.024182
	H412	H	0.925695	0.813701	-0.031445
	H413	H	0.928444	0.826096	-0.039158
	O414	O	0.087953	-0.153927	0.091361
	H415	H	0.074279	-0.148022	0.100909
	H416	H	0.067265	-0.152631	0.080241
	O417	O	0.480854	0.462320	0.481989
	H418	H	0.470417	0.452606	0.488984
	H419	H	0.492859	0.475383	0.484956
	O420	O	1.050053	0.005196	1.088964
	H421	H	1.065326	0.010395	1.101200
	H422	H	1.058927	0.016901	1.082882
	O423	O	1.028326	0.782921	-0.227612
	H424	H	1.045541	0.777347	-0.238456
	H425	H	1.057129	0.767670	-0.241861
	O426	O	0.678284	0.298804	0.298160
	H427	H	0.686128	0.315613	0.292756
	H428	H	0.642537	0.287064	0.294216
	O429	O	0.398985	0.501792	0.657867
	H430	H	0.380750	0.495763	0.660397
	H431	H	0.400141	0.491954	0.660963
	O432	O	0.855435	0.132778	1.086034
	H433	H	0.849588	0.161652	1.074448
	H434	H	0.864591	0.133493	1.081358
	O435	O	0.618309	0.533309	0.532767
	H436	H	0.631158	0.529410	0.543141
	H437	H	0.619488	0.525915	0.532555
	O438	O	0.362377	0.557574	0.287249
	H439	H	0.351867	0.563383	0.277568
	H440	H	0.359714	0.543568	0.291689
	O441	O	0.643786	0.621115	0.320208
	H442	H	0.637876	0.609688	0.324062
	H443	H	0.655318	0.615851	0.332823
	O444	O	0.709514	0.449492	0.331435
	H445	H	0.723927	0.459962	0.338840
	H446	H	0.715731	0.443314	0.324016
	O447	O	0.687542	0.379618	0.626930
	H448	H	0.691104	0.391707	0.602573
	H449	H	0.662684	0.386685	0.624759
	O450	O	0.844745	0.172441	0.124364
	H451	H	0.832011	0.182137	0.111927
	H452	H	0.862755	0.151518	0.114292
	O453	O	0.476514	0.501671	0.634896
	H454	H	0.486949	0.502203	0.644380
	H455	H	0.470345	0.494388	0.622729
	O456	O	0.200217	0.799573	0.876752
	H457	H	0.205664	0.786264	0.874541
	H458	H	0.202011	0.796211	0.912293
	O459	O	0.701224	0.708540	0.701268
	H460	H	0.683061	0.691364	0.691930
	H461	H	0.689340	0.692543	0.683551
	O462	O	0.552993	0.417529	0.599498
	H463	H	0.536536	0.423796	0.608268
	H464	H	0.548704	0.414575	0.593396
	O465	O	0.307770	0.637292	0.638093
	H466	H	0.307879	0.617376	0.640115
	H467	H	0.321494	0.631915	0.626840
	O468	O	0.165352	1.006172	0.175037
	H469	H	0.162269	1.022327	0.182373
	H470	H	0.176080	1.016507	0.188218
	O471	O	0.521070	0.725903	0.712127
	H472	H	0.523322	0.735424	0.708241
	H473	H	0.522054	0.730108	0.733126
	O474	O	1.088349	0.792341	-0.011476
	H475	H	1.064403	0.797444	-0.000660
	H476	H	1.084951	0.786074	-0.009032
	O477	O	0.293603	0.300239	0.700607
	H478	H	0.294520	0.291454	0.695058
	H479	H	0.286666	0.275526	0.714800
