data_Molecule from HDF5

_cell_length_a		16.434642
_cell_length_b		16.719435
_cell_length_c		16.777886
_cell_angle_alpha	89.923492
_cell_angle_beta	90.088045
_cell_angle_gamma	90.140764
_symmetry_space_group_name_H-M	'P 1'
_symmetry_Int_Tables_number		1

loop_
	_symmetry_equiv_pos_as_xyz
	x,y,z

loop_
	_atom_site_label
	_atom_site_type_symbol
	_atom_site_fract_x
	_atom_site_fract_y
	_atom_site_fract_z
	H0	H	0.411105	0.833831	0.723067
	H1	H	0.625547	0.141101	0.720570
	H2	H	0.624588	0.832694	0.277322
	H3	H	0.411240	0.139594	0.276520
	H4	H	0.740103	0.381917	0.846001
	H5	H	0.735468	0.586360	0.156047
	H6	H	0.299932	0.588525	0.842863
	H7	H	0.298899	0.384839	0.153944
	H8	H	0.858587	0.700208	0.400675
	H9	H	0.176247	0.704691	0.603590
	H10	H	0.859006	0.268450	0.600356
	H11	H	0.176554	0.267705	0.396224
	H12	H	0.859621	0.382762	0.716400
	H13	H	0.176179	0.588687	0.718865
	H14	H	0.859661	0.588015	0.282057
	H15	H	0.175974	0.382964	0.280153
	H16	H	0.414864	0.706826	0.843165
	H17	H	0.624210	0.707951	0.153594
	H18	H	0.627320	0.261558	0.848451
	H19	H	0.412387	0.264727	0.152927
	H20	H	0.739909	0.832446	0.393919
	H21	H	0.737147	0.142937	0.599581
	H22	H	0.298629	0.831175	0.602645
	H23	H	0.300362	0.142694	0.398317
	H24	H	0.914022	0.331500	0.219210
	H25	H	0.123841	0.642014	0.219091
	H26	H	0.120340	0.329780	0.781361
	H27	H	0.912403	0.641130	0.777313
	H28	H	0.234183	0.887058	0.343919
	H29	H	0.234810	0.086344	0.656115
	H30	H	0.802596	0.083974	0.341545
	H31	H	0.799633	0.884804	0.655672
	H32	H	0.360753	0.204292	0.896972
	H33	H	0.676389	0.204163	0.102036
	H34	H	0.359609	0.769570	0.098820
	H35	H	0.679022	0.772245	0.899536
	H36	H	0.358568	0.885326	0.213655
	H37	H	0.675288	0.088934	0.218419
	H38	H	0.361489	0.090297	0.780320
	H39	H	0.677716	0.885625	0.782146
	H40	H	0.914725	0.204633	0.343060
	H41	H	0.121778	0.205500	0.654610
	H42	H	0.119949	0.766911	0.345260
	H43	H	0.912621	0.764530	0.655104
	H44	H	0.234574	0.329920	0.900034
	H45	H	0.235997	0.643689	0.099451
	H46	H	0.801211	0.330054	0.098385
	H47	H	0.803264	0.644750	0.899591
	H48	H	0.425867	0.100405	0.593836
	H49	H	0.613338	0.872118	0.595966
	H50	H	0.603831	0.097794	0.402970
	H51	H	0.424045	0.872017	0.403715
	H52	H	0.604309	0.391578	0.110958
	H53	H	0.608842	0.586249	0.886819
	H54	H	0.434890	0.574282	0.105671
	H55	H	0.433917	0.398496	0.890952
	H56	H	0.132283	0.578854	0.411679
	H57	H	0.904925	0.573263	0.590071
	H58	H	0.129773	0.395485	0.584288
	H59	H	0.904805	0.397246	0.407602
	H60	H	0.130446	0.400900	0.591935
	H61	H	0.904403	0.576002	0.589538
	H62	H	0.130760	0.573291	0.410321
	H63	H	0.904291	0.394366	0.408355
	H64	H	0.430520	0.587390	0.111982
	H65	H	0.614124	0.576548	0.886807
	H66	H	0.612033	0.395975	0.111815
	H67	H	0.429673	0.389225	0.886967
	H68	H	0.603561	0.094152	0.412371
	H69	H	0.598871	0.877021	0.594922
	H70	H	0.435873	0.096819	0.591110
	H71	H	0.431059	0.875450	0.406089
	H72	H	0.928773	0.599669	0.093285
	H73	H	0.108910	0.374598	0.094332
	H74	H	0.107110	0.597496	0.909124
	H75	H	0.925373	0.372085	0.902408
	H76	H	0.102176	0.888226	0.611533
	H77	H	0.108681	0.079104	0.386362
	H78	H	0.928523	0.078895	0.610469
	H79	H	0.933365	0.894724	0.391410
	H80	H	0.631352	0.070568	0.907477
	H81	H	0.400534	0.081529	0.093900
	H82	H	0.628311	0.903165	0.083757
	H83	H	0.405980	0.900005	0.909043
	H84	H	0.633649	0.899919	0.098459
	H85	H	0.406091	0.078581	0.081994
	H86	H	0.633224	0.081440	0.909504
	H87	H	0.404345	0.896166	0.907888
	H88	H	0.928534	0.077688	0.609303
	H89	H	0.109326	0.077273	0.387691
	H90	H	0.114324	0.892600	0.615292
	H91	H	0.928453	0.887745	0.387564
	H92	H	0.107418	0.599180	0.905163
	H93	H	0.104760	0.375788	0.091194
	H94	H	0.928569	0.598958	0.091264
	H95	H	0.933963	0.377071	0.906827
	H96	H	0.427399	0.096470	0.583775
	H97	H	0.608315	0.877966	0.583198
	H98	H	0.612257	0.098324	0.408977
	H99	H	0.424592	0.874990	0.411324
	H100	H	0.605056	0.399858	0.108386
	H101	H	0.603857	0.577170	0.890287
	H102	H	0.420228	0.575894	0.111343
	H103	H	0.423139	0.398724	0.887697
	H104	H	0.133258	0.576664	0.406126
	H105	H	0.906164	0.574432	0.587851
	H106	H	0.133761	0.391710	0.591360
	H107	H	0.905983	0.396314	0.410045
	H108	H	0.926516	0.599113	0.092635
	H109	H	0.109416	0.375767	0.089298
	H110	H	0.104162	0.597247	0.906041
	H111	H	0.924532	0.375580	0.912703
	H112	H	0.105342	0.900816	0.609134
	H113	H	0.107366	0.078443	0.388329
	H114	H	0.930047	0.078529	0.609988
	H115	H	0.924145	0.895673	0.389125
	H116	H	0.630187	0.074642	0.917373
	H117	H	0.405592	0.068813	0.091792
	H118	H	0.633453	0.888212	0.087099
	H119	H	0.405751	0.896411	0.911918
	C120	C	0.397534	-0.004521	0.621240
	C121	C	0.639289	0.978577	0.620981
	C122	C	0.638661	-0.005534	0.377625
	C123	C	0.395210	0.977181	0.376668
	C124	C	0.639831	0.364494	0.008468
	C125	C	0.640037	0.609330	0.990964
	C126	C	0.397320	0.609028	0.006786
	C127	C	0.396964	0.364843	0.990986
	C128	C	0.026934	0.606597	0.379222
	C129	C	1.009706	0.605765	0.620614
	C130	C	0.026433	0.365205	0.619558
	C131	C	1.009810	0.365188	0.378198
	C132	C	0.897127	0.495365	0.121516
	C133	C	0.139170	0.478518	0.121089
	C134	C	0.137951	0.494600	0.877590
	C135	C	0.896505	0.477998	0.876958
	C136	C	0.138795	0.864180	0.508988
	C137	C	0.139423	0.108175	0.490773
	C138	C	0.897704	0.107569	0.506828
	C139	C	0.896304	0.863002	0.491877
	C140	C	0.527601	0.107347	0.879410
	C141	C	0.508969	0.106982	0.120445
	C142	C	0.526927	0.865891	0.119707
	C143	C	0.510451	0.866975	0.878734
	C144	C	0.393825	0.879633	0.682025
	C145	C	0.642670	0.095149	0.679720
	C146	C	0.642035	0.878602	0.317812
	C147	C	0.393625	0.093642	0.317315
	C148	C	0.700287	0.362675	0.892608
	C149	C	0.697408	0.607393	0.108851
	C150	C	0.339199	0.608068	0.889593
	C151	C	0.337957	0.364817	0.107353
	C152	C	0.906702	0.662564	0.380188
	C153	C	0.128834	0.664799	0.622024
	C154	C	0.906900	0.307277	0.619559
	C155	C	0.129013	0.306980	0.377330
	C156	C	0.907117	0.364113	0.677247
	C157	C	0.128800	0.607377	0.679438
	C158	C	0.907310	0.606845	0.321488
	C159	C	0.128669	0.364287	0.319762
	C160	C	0.396012	0.667244	0.890077
	C161	C	0.641884	0.667513	0.107693
	C162	C	0.644237	0.302970	0.893593
	C163	C	0.394434	0.305339	0.106874
	C164	C	0.699261	0.878511	0.375789
	C165	C	0.698173	0.095729	0.619695
	C166	C	0.337847	0.878297	0.622324
	C167	C	0.338072	0.095121	0.377383
	C168	C	0.895685	0.377953	0.179088
	C169	C	0.141464	0.595507	0.179268
	C170	C	0.139081	0.376920	0.820460
	C171	C	0.894682	0.594971	0.817799
	C172	C	0.196014	0.865946	0.391137
	C173	C	0.196631	0.106687	0.608653
	C174	C	0.840678	0.104708	0.388814
	C175	C	0.838304	0.864448	0.608893
	C176	C	0.408704	0.165745	0.877963
	C177	C	0.628569	0.165125	0.121396
	C178	C	0.407253	0.808251	0.118814
	C179	C	0.630717	0.810446	0.879680
	C180	C	0.406892	0.865601	0.175983
	C181	C	0.627982	0.107844	0.178940
	C182	C	0.408898	0.109013	0.820049
	C183	C	0.630187	0.866896	0.821301
	C184	C	0.896655	0.164629	0.389485
	C185	C	0.140371	0.166014	0.607932
	C186	C	0.139321	0.806514	0.391676
	C187	C	0.894637	0.804980	0.608813
	C188	C	0.195770	0.376956	0.879504
	C189	C	0.197402	0.596271	0.119831
	C190	C	0.839675	0.377124	0.119316
	C191	C	0.840291	0.596518	0.878603
	C192	C	0.422573	0.076791	0.596578
	C193	C	0.613970	0.896909	0.597853
	C194	C	0.613554	0.075631	0.401357
	C195	C	0.419485	0.895389	0.400310
	C196	C	0.614306	0.388947	0.089332
	C197	C	0.615821	0.586540	0.909459
	C198	C	0.421594	0.585728	0.088395
	C199	C	0.421819	0.388671	0.909589
	C200	C	0.110281	0.583027	0.402679
	C201	C	0.926727	0.581464	0.596160
	C202	C	0.109715	0.389308	0.595968
	C203	C	0.926793	0.389052	0.402039
	C204	C	0.921107	0.577970	0.098886
	C205	C	0.114662	0.396820	0.097968
	C206	C	0.113439	0.576482	0.900364
	C207	C	0.920925	0.396277	0.900541
	C208	C	0.114418	0.887170	0.590733
	C209	C	0.115339	0.085041	0.408956
	C210	C	0.922010	0.085034	0.588631
	C211	C	0.921408	0.886068	0.410380
	C212	C	0.610234	0.082558	0.904006
	C213	C	0.425661	0.083105	0.096127
	C214	C	0.610084	0.890189	0.096459
	C215	C	0.427174	0.890526	0.902542
	Zn216	Zn	0.519182	-0.012507	0.750788
	Zn217	Zn	0.517578	-0.014245	0.248156
	Zn218	Zn	0.768546	0.487241	-0.000597
	Zn219	Zn	0.267635	0.487005	-0.001107
	Zn220	Zn	0.017612	0.734066	0.500492
	Zn221	Zn	0.018002	0.237531	0.498870
	Zn222	Zn	0.017579	0.485425	0.747786
	Zn223	Zn	0.018503	0.486695	0.250868
	Zn224	Zn	0.518960	0.738687	-0.001123
	Zn225	Zn	0.518546	0.235289	0.000270
	Zn226	Zn	0.768111	-0.014352	0.498837
	Zn227	Zn	0.267904	-0.013870	0.500101
	N228	N	0.430143	0.953608	0.681643
	N229	N	0.607011	0.020989	0.680968
	N230	N	0.604874	0.951662	0.318637
	N231	N	0.428334	0.019035	0.316533
	N232	N	0.697714	0.400478	0.965041
	N233	N	0.696731	0.572114	0.035130
	N234	N	0.339663	0.572563	0.963255
	N235	N	0.339397	0.401195	0.034167
	N236	N	0.982282	0.662833	0.415234
	N237	N	0.053678	0.664241	0.586215
	N238	N	0.982353	0.307573	0.584452
	N239	N	0.053911	0.307322	0.412943
	N240	N	0.982685	0.399181	0.677705
	N241	N	0.053701	0.571414	0.678606
	N242	N	0.983344	0.572917	0.320320
	N243	N	0.053433	0.399548	0.319908
	N244	N	0.431392	0.668208	0.964064
	N245	N	0.606944	0.669102	0.033413
	N246	N	0.607240	0.303944	0.966673
	N247	N	0.430406	0.305093	0.033306
	N248	N	0.697340	0.951500	0.412527
	N249	N	0.696382	0.022066	0.583875
	N250	N	0.339923	0.951385	0.585020
	N251	N	0.338677	0.021455	0.413508
	N252	N	0.930323	0.452786	0.180929
	N253	N	0.106122	0.521185	0.180576
	N254	N	0.104161	0.451401	0.818680
	N255	N	0.928710	0.520085	0.816217
	N256	N	0.195994	0.900814	0.465196
	N257	N	0.196549	0.071620	0.534635
	N258	N	0.840832	0.070079	0.462900
	N259	N	0.838909	0.899515	0.534977
	N260	N	0.483688	0.165132	0.914031
	N261	N	0.553206	0.164942	0.085942
	N262	N	0.483171	0.807751	0.084874
	N263	N	0.554983	0.810017	0.914396
	N264	N	0.482574	0.900210	0.177151
	N265	N	0.552410	0.072701	0.178791
	N266	N	0.484017	0.073452	0.820688
	N267	N	0.554201	0.901003	0.820200
	N268	N	0.931112	0.166837	0.464038
	N269	N	0.105905	0.167594	0.533394
	N270	N	0.104963	0.804695	0.466176
	N271	N	0.929694	0.803633	0.534761
	N272	N	0.195550	0.451222	0.913980
	N273	N	0.196786	0.522297	0.084644
	N274	N	0.840226	0.451499	0.084604
	N275	N	0.841011	0.522708	0.914666
	O276	O	-0.203837	0.764691	0.037351
	H277	H	-0.220925	0.745933	0.061372
	H278	H	-0.211174	0.758072	0.060843
	O279	O	-0.158797	0.949450	0.217701
	H280	H	-0.171532	0.934995	0.231707
	H281	H	-0.167545	0.920741	0.223033
	O282	O	1.227924	0.204398	1.039898
	H283	H	1.227705	0.211871	1.042593
	H284	H	1.233969	0.213941	1.048852
	O285	O	0.345806	0.541750	0.625896
	H286	H	0.360166	0.532122	0.614043
	H287	H	0.333826	0.530303	0.634983
	O288	O	0.301734	0.686619	0.461959
	H289	H	0.292693	0.674144	0.477002
	H290	H	0.297765	0.697279	0.460782
	O291	O	0.551694	0.283149	0.565213
	H292	H	0.547546	0.275726	0.587411
	H293	H	0.574764	0.290761	0.560216
	O294	O	1.047036	0.210464	1.220762
	H295	H	1.072506	0.217887	1.230660
	H296	H	1.073075	0.220711	1.232488
	O297	O	0.007055	0.927253	-0.098118
	H298	H	-0.000719	0.931610	-0.089633
	H299	H	0.005786	0.927212	-0.102930
	O300	O	0.117976	-0.094755	1.202425
	H301	H	0.113994	-0.091866	1.189407
	H302	H	0.105422	-0.070167	1.206418
	O303	O	0.453870	0.619063	0.466658
	H304	H	0.465756	0.616101	0.453638
	H305	H	0.457585	0.628861	0.466302
	O306	O	0.503861	0.556328	0.713624
	H307	H	0.495195	0.578063	0.719600
	H308	H	0.490666	0.572521	0.704601
	O309	O	0.322895	0.284621	0.296708
	H310	H	0.338490	0.303269	0.321672
	H311	H	0.346704	0.299272	0.308778
	O312	O	0.708902	0.292593	0.703692
	H313	H	0.685702	0.300756	0.679963
	H314	H	0.691111	0.322392	0.693290
	O315	O	1.129662	0.883707	1.016695
	H316	H	1.140872	0.910214	1.022196
	H317	H	1.149315	0.870016	0.992998
	O318	O	0.547155	0.259167	0.271136
	H319	H	0.567381	0.242066	0.255893
	H320	H	0.567639	0.253173	0.266408
	O321	O	0.003544	0.881622	1.004734
	H322	H	0.000051	0.889651	0.988056
	H323	H	0.017473	0.884991	0.997081
	O324	O	1.229180	0.938867	-0.207555
	H325	H	1.229691	0.954545	-0.206852
	H326	H	1.227471	0.955951	-0.211221
	O327	O	0.222598	0.029076	1.152512
	H328	H	0.226325	0.042109	1.168330
	H329	H	0.218863	0.040469	1.163590
	O330	O	0.482820	0.420633	0.266875
	H331	H	0.463683	0.417030	0.278217
	H332	H	0.482501	0.400313	0.262845
	O333	O	0.232354	0.764218	0.959789
	H334	H	0.251165	0.759727	0.951686
	H335	H	0.241412	0.757288	0.935258
	O336	O	0.494362	0.716869	0.438578
	H337	H	0.492448	0.721903	0.434146
	H338	H	0.487165	0.713805	0.419811
	O339	O	0.830804	0.177697	1.186622
	H340	H	0.838352	0.148912	1.166920
	H341	H	0.860026	0.170376	1.168423
	O342	O	0.004291	0.080884	0.133870
	H343	H	0.008953	0.093092	0.136500
	H344	H	0.002278	0.074376	0.126028
	O345	O	-0.186633	0.779139	1.205493
	H346	H	-0.217384	0.746731	1.238933
	H347	H	-0.135655	0.771927	1.213786
	O348	O	-0.183548	0.193993	-0.207053
	H349	H	-0.219580	0.228881	-0.233153
	H350	H	-0.189801	0.199906	-0.153255
	O351	O	0.454426	0.264827	0.423749
	H352	H	0.468281	0.259741	0.443236
	H353	H	0.458506	0.263164	0.409909
	O354	O	-0.018583	-0.232573	1.219415
	H355	H	-0.003801	-0.241597	1.186610
	H356	H	-0.008557	-0.255279	1.233667
	O357	O	0.539694	0.514859	0.524619
	H358	H	0.545491	0.512641	0.510578
	H359	H	0.544330	0.511075	0.537472
	O360	O	0.294386	0.448648	0.724196
	H361	H	0.293498	0.430666	0.723182
	H362	H	0.272890	0.454584	0.745486
	O363	O	0.468164	0.411228	0.634003
	H364	H	0.459367	0.411143	0.629176
	H365	H	0.478850	0.412124	0.626103
	O366	O	0.225820	0.043963	-0.067762
	H367	H	0.226047	0.056806	-0.067942
	H368	H	0.214440	0.051383	-0.056466
	O369	O	0.686490	0.361400	0.534818
	H370	H	0.683723	0.363019	0.531135
	H371	H	0.703039	0.351461	0.513806
	O372	O	1.235737	0.970670	0.099736
	H373	H	1.228645	0.972116	0.099076
	H374	H	1.246924	0.979739	0.112995
	O375	O	0.976867	0.195243	0.059964
	H376	H	0.996875	0.191676	0.065256
	H377	H	0.985914	0.191148	0.060700
	O378	O	0.071298	1.209540	0.938971
	H379	H	0.073908	1.207885	0.936605
	H380	H	0.061653	1.209372	0.924627
	O381	O	0.251401	0.751398	1.236527
	H382	H	0.241638	0.771944	1.257744
	H383	H	0.220252	0.769787	1.209728
	O384	O	-0.006420	-0.047501	-0.219181
	H385	H	0.004763	-0.083438	-0.228041
	H386	H	-0.026835	-0.044270	-0.212309
	O387	O	1.301636	1.490562	0.489222
	H388	H	1.307323	1.477896	0.496892
	H389	H	1.305521	1.491351	0.483284
	O390	O	0.299187	0.613432	0.278891
	H391	H	0.266441	0.631707	0.248245
	H392	H	0.311152	0.641315	0.294060
	O393	O	0.491592	0.255362	0.726284
	H394	H	0.485797	0.225204	0.760556
	H395	H	0.499527	0.289239	0.730352
	O396	O	-0.446414	0.714786	0.727794
	H397	H	-0.426127	0.711948	0.706376
	H398	H	-0.444651	0.753715	0.757934
	O399	O	-0.184677	0.026074	1.120516
	H400	H	-0.185257	0.003518	1.113179
	H401	H	-0.191806	-0.004903	1.132122
	O402	O	0.726405	0.272085	0.285023
	H403	H	0.724007	0.306436	0.288702
	H404	H	0.760770	0.242596	0.251938
	O405	O	1.044648	-0.235342	0.783471
	H406	H	1.062272	-0.250678	0.776914
	H407	H	1.066415	-0.240929	0.784380
	O408	O	0.079101	0.030782	-0.204141
	H409	H	0.056721	0.049825	-0.213745
	H410	H	0.061856	0.014779	-0.206180
	O411	O	0.597849	0.412099	0.711103
	H412	H	0.574241	0.439116	0.709142
	H413	H	0.605661	0.428607	0.701066
	O414	O	0.647106	0.607697	0.436970
	H415	H	0.661232	0.619161	0.447233
	H416	H	0.632425	0.615625	0.437770
	O417	O	0.336027	0.674823	0.685424
	H418	H	0.355066	0.671477	0.674292
	H419	H	0.346212	0.658900	0.662590
	O420	O	0.539335	0.474969	0.399537
	H421	H	0.532658	0.468932	0.396708
	H422	H	0.534224	0.466822	0.400550
	O423	O	0.063841	-0.047598	1.206484
	H424	H	0.039232	-0.035267	1.206831
	H425	H	0.049632	-0.042008	1.206847
	O426	O	0.735631	0.719647	0.529986
	H427	H	0.738570	0.710637	0.564228
	H428	H	0.765516	0.734057	0.540243
	O429	O	1.220423	0.772671	0.789693
	H430	H	1.244866	0.755201	0.777975
	H431	H	1.221163	0.815352	0.785236
	O432	O	0.671762	0.442124	0.415304
	H433	H	0.645417	0.429460	0.411949
	H434	H	0.662800	0.462625	0.417992
	O435	O	0.205657	1.172371	-0.185314
	H436	H	0.198901	1.159215	-0.173149
	H437	H	0.180156	1.164106	-0.196533
	O438	O	0.022682	-0.207353	0.072541
	H439	H	0.027820	-0.203251	0.046223
	H440	H	0.029575	-0.205083	0.060708
	O441	O	-0.062802	0.017147	-0.029368
	H442	H	-0.077097	0.020181	-0.035019
	H443	H	-0.066289	0.008581	-0.038130
	O444	O	0.487921	0.718386	0.269885
	H445	H	0.453930	0.717945	0.262091
	H446	H	0.485196	0.731942	0.242455
	O447	O	-0.262500	0.517882	0.730386
	H448	H	-0.253700	0.508510	0.726636
	H449	H	-0.244022	0.527335	0.731923
	O450	O	0.304356	1.270594	0.712776
	H451	H	0.336496	1.277909	0.711603
	H452	H	0.289199	1.256702	0.727387
	O453	O	0.739525	0.440807	0.271847
	H454	H	0.732395	0.444604	0.282330
	H455	H	0.763333	0.447109	0.243988
	O456	O	0.720806	0.534501	0.569960
	H457	H	0.686807	0.544441	0.566591
	H458	H	0.728151	0.511508	0.547311
	O459	O	0.712627	0.682634	0.302883
	H460	H	0.697791	0.662156	0.320407
	H461	H	0.688111	0.668449	0.323795
	O462	O	0.398503	0.425329	0.500534
	H463	H	0.391591	0.412991	0.511438
	H464	H	0.397656	0.418089	0.508987
	O465	O	0.987060	0.206037	-0.220211
	H466	H	0.970333	0.220494	-0.226306
	H467	H	0.953381	0.213534	-0.229239
	O468	O	0.296939	0.264777	0.540219
	H469	H	0.287020	0.252915	0.535279
	H470	H	0.287485	0.254347	0.565918
	O471	O	0.721308	0.695581	0.716415
	H472	H	0.711532	0.681839	0.720732
	H473	H	0.741783	0.687376	0.724055
	O474	O	0.321449	0.475226	0.328719
	H475	H	0.312588	0.491495	0.335572
	H476	H	0.306189	0.489524	0.315977
	O477	O	-0.150943	0.814886	1.827417
	H478	H	-0.140064	0.821322	1.829362
	H479	H	-0.136263	0.829342	1.844497
	O480	O	0.739486	0.259815	0.451372
	H481	H	0.731009	0.258527	0.417746
	H482	H	0.766218	0.231159	0.448840
	O483	O	0.586934	0.561933	0.286764
	H484	H	0.569548	0.574451	0.276001
	H485	H	0.563075	0.536951	0.287161
	O486	O	0.936951	-0.132437	0.963937
	H487	H	0.920473	-0.148939	0.973403
	H488	H	0.935671	-0.115882	0.961298
	O489	O	1.214452	1.190690	0.200922
	H490	H	1.219328	1.163754	0.183009
	H491	H	1.249797	1.220776	0.229107
	O492	O	-0.200695	-0.030157	-0.010573
	H493	H	-0.197310	-0.027259	-0.027403
	H494	H	-0.200789	-0.061870	-0.009233
	O495	O	-0.200501	1.020952	0.773316
	H496	H	-0.228555	1.029671	0.744057
	H497	H	-0.198352	1.062748	0.782429
	O498	O	0.811895	1.193832	0.961222
	H499	H	0.812260	1.191822	0.978417
	H500	H	0.814327	1.193756	0.986274
	O501	O	0.479406	0.661971	0.558378
	H502	H	0.481141	0.666655	0.554908
	H503	H	0.481400	0.659888	0.549357
