data_Molecule from HDF5

_cell_length_a		16.250916
_cell_length_b		16.234753
_cell_length_c		16.347439
_cell_angle_alpha	89.801689
_cell_angle_beta	89.678595
_cell_angle_gamma	90.034211
_symmetry_space_group_name_H-M	'P 1'
_symmetry_Int_Tables_number		1

loop_
	_symmetry_equiv_pos_as_xyz
	x,y,z

loop_
	_atom_site_label
	_atom_site_type_symbol
	_atom_site_fract_x
	_atom_site_fract_y
	_atom_site_fract_z
	H0	H	0.403542	0.847823	0.723693
	H1	H	0.601653	0.174630	0.720669
	H2	H	0.603726	0.847181	0.292451
	H3	H	0.404898	0.174095	0.293856
	H4	H	0.718935	0.411911	0.844436
	H5	H	0.716520	0.609518	0.171260
	H6	H	0.288937	0.609736	0.843749
	H7	H	0.285226	0.410077	0.170221
	H8	H	0.839234	0.726113	0.409371
	H9	H	0.166560	0.724691	0.604821
	H10	H	0.837918	0.296779	0.605929
	H11	H	0.167209	0.297938	0.409386
	H12	H	0.839218	0.410314	0.724099
	H13	H	0.166671	0.608621	0.720429
	H14	H	0.838382	0.611052	0.293250
	H15	H	0.165563	0.411668	0.291656
	H16	H	0.404989	0.726720	0.844227
	H17	H	0.600049	0.725441	0.171551
	H18	H	0.601974	0.296371	0.844677
	H19	H	0.402226	0.295404	0.170688
	H20	H	0.717023	0.846796	0.409049
	H21	H	0.715059	0.175169	0.603511
	H22	H	0.287716	0.847043	0.608534
	H23	H	0.290945	0.175048	0.411005
	H24	H	0.901397	0.347358	0.224211
	H25	H	0.100914	0.674108	0.221351
	H26	H	0.101614	0.346342	0.793910
	H27	H	0.903173	0.674117	0.792174
	H28	H	0.219526	0.912195	0.344203
	H29	H	0.215964	0.108692	0.670823
	H30	H	0.789516	0.109413	0.343842
	H31	H	0.787108	0.912282	0.670494
	H32	H	0.337999	0.225029	0.911269
	H33	H	0.667823	0.222977	0.102940
	H34	H	0.338283	0.798313	0.106471
	H35	H	0.666340	0.797162	0.909046
	H36	H	0.339448	0.911213	0.224362
	H37	H	0.667031	0.109674	0.221411
	H38	H	0.339279	0.112104	0.792451
	H39	H	0.666180	0.910918	0.791109
	H40	H	0.906496	0.225218	0.343944
	H41	H	0.099714	0.224846	0.670235
	H42	H	0.102072	0.796587	0.343725
	H43	H	0.903047	0.795060	0.670921
	H44	H	0.217338	0.346630	0.909809
	H45	H	0.215355	0.674859	0.103956
	H46	H	0.787722	0.346971	0.107010
	H47	H	0.789063	0.674952	0.909650
	H48	H	0.404252	0.131260	0.606693
	H49	H	0.597585	0.893316	0.599485
	H50	H	0.589135	0.126734	0.412890
	H51	H	0.407526	0.890660	0.408952
	H52	H	0.593328	0.418647	0.122553
	H53	H	0.606607	0.606311	0.888679
	H54	H	0.400429	0.600292	0.124980
	H55	H	0.413086	0.420116	0.893955
	H56	H	0.114375	0.592580	0.418052
	H57	H	0.884435	0.610707	0.597675
	H58	H	0.117283	0.420020	0.597247
	H59	H	0.890144	0.426792	0.420479
	H60	H	0.119664	0.419704	0.604513
	H61	H	0.890015	0.595577	0.596517
	H62	H	0.123268	0.604200	0.400889
	H63	H	0.882928	0.419958	0.404680
	H64	H	0.414509	0.598950	0.119842
	H65	H	0.593375	0.594211	0.896701
	H66	H	0.593970	0.414014	0.124322
	H67	H	0.410949	0.414198	0.890807
	H68	H	0.599648	0.126871	0.418908
	H69	H	0.594963	0.892684	0.604222
	H70	H	0.417321	0.126721	0.603381
	H71	H	0.421124	0.896444	0.417061
	H72	H	0.902053	0.628683	0.096141
	H73	H	0.098181	0.392179	0.103173
	H74	H	0.094589	0.625638	0.918434
	H75	H	0.906511	0.393412	0.916738
	H76	H	0.099520	0.916923	0.624169
	H77	H	0.099256	0.096685	0.392589
	H78	H	0.908110	0.112246	0.625725
	H79	H	0.907550	0.910140	0.388371
	H80	H	0.617829	0.098360	0.913196
	H81	H	0.386124	0.104222	0.100848
	H82	H	0.616661	0.922889	0.096478
	H83	H	0.388973	0.928101	0.915927
	H84	H	0.620963	0.920063	0.106763
	H85	H	0.387150	0.101045	0.102207
	H86	H	0.621293	0.106269	0.909396
	H87	H	0.383235	0.916450	0.909135
	H88	H	0.900168	0.098832	0.624639
	H89	H	0.089912	0.108008	0.391329
	H90	H	0.093062	0.921528	0.620688
	H91	H	0.905587	0.925051	0.393254
	H92	H	0.099954	0.628976	0.912130
	H93	H	0.089735	0.394527	0.102135
	H94	H	0.910426	0.629579	0.108831
	H95	H	0.910580	0.392816	0.911693
	H96	H	0.407479	0.126386	0.593402
	H97	H	0.591981	0.893952	0.599693
	H98	H	0.599664	0.130553	0.407356
	H99	H	0.407038	0.895018	0.424495
	H100	H	0.598185	0.417780	0.123781
	H101	H	0.588858	0.611662	0.891822
	H102	H	0.409875	0.611947	0.124627
	H103	H	0.406438	0.419850	0.890872
	H104	H	0.120741	0.613464	0.420352
	H105	H	0.884048	0.601551	0.609803
	H106	H	0.120411	0.413772	0.600236
	H107	H	0.884185	0.408326	0.419768
	H108	H	0.917097	0.623956	0.096150
	H109	H	0.095536	0.394996	0.095990
	H110	H	0.091749	0.627147	0.909870
	H111	H	0.912570	0.394994	0.916789
	H112	H	0.092107	0.913416	0.623313
	H113	H	0.104781	0.110514	0.387433
	H114	H	0.915769	0.099995	0.619975
	H115	H	0.919046	0.918486	0.394526
	H116	H	0.617895	0.106382	0.918143
	H117	H	0.384851	0.103717	0.103766
	H118	H	0.620800	0.912810	0.097872
	H119	H	0.386699	0.915493	0.923534
	C120	C	0.380630	0.019843	0.630384
	C121	C	0.623197	1.002249	0.628786
	C122	C	0.624916	0.019325	0.385070
	C123	C	0.382927	1.002052	0.387760
	C124	C	0.624454	0.388784	0.015589
	C125	C	0.624335	0.632981	0.999916
	C126	C	0.380186	0.633016	0.015499
	C127	C	0.381027	0.389355	0.999528
	C128	C	0.010808	0.632349	0.385463
	C129	C	0.994486	0.631305	0.628960
	C130	C	0.010863	0.388793	0.629398
	C131	C	0.993902	0.389472	0.386211
	C132	C	0.880316	0.519189	0.129635
	C133	C	0.123288	0.502150	0.128563
	C134	C	0.124179	0.518932	0.885800
	C135	C	0.881306	0.502100	0.886530
	C136	C	0.124948	0.888919	0.515269
	C137	C	0.124820	0.132587	0.498805
	C138	C	0.880654	0.132667	0.515721
	C139	C	0.881113	0.888869	0.499512
	C140	C	0.511078	0.132978	0.885589
	C141	C	0.494586	0.132032	0.129787
	C142	C	0.511298	0.889578	0.129907
	C143	C	0.494330	0.890541	0.886515
	C144	C	0.383061	0.896487	0.685859
	C145	C	0.621407	0.125660	0.683094
	C146	C	0.623258	0.896185	0.330367
	C147	C	0.384716	0.125234	0.331818
	C148	C	0.680509	0.391648	0.893219
	C149	C	0.678898	0.630127	0.122543
	C150	C	0.326094	0.630680	0.892697
	C151	C	0.324308	0.390888	0.121880
	C152	C	0.887802	0.687847	0.388754
	C153	C	0.117813	0.686395	0.625559
	C154	C	0.887038	0.334113	0.626503
	C155	C	0.117941	0.335341	0.389080
	C156	C	0.887666	0.390687	0.684991
	C157	C	0.117598	0.629217	0.683438
	C158	C	0.887711	0.630698	0.330819
	C159	C	0.116998	0.391619	0.330293
	C160	C	0.383616	0.688894	0.892949
	C161	C	0.620949	0.687788	0.122650
	C162	C	0.622366	0.334215	0.893188
	C163	C	0.382106	0.333505	0.122012
	C164	C	0.679684	0.895874	0.388407
	C165	C	0.677775	0.126018	0.624831
	C166	C	0.325400	0.896365	0.628669
	C167	C	0.328497	0.125954	0.390465
	C168	C	0.881831	0.395977	0.185557
	C169	C	0.121353	0.625267	0.183505
	C170	C	0.121869	0.395392	0.831362
	C171	C	0.883254	0.625371	0.830578
	C172	C	0.181366	0.891436	0.392927
	C173	C	0.178476	0.129215	0.621985
	C174	C	0.827048	0.129680	0.392538
	C175	C	0.825116	0.891406	0.621829
	C176	C	0.387272	0.187964	0.889538
	C177	C	0.618408	0.186120	0.124896
	C178	C	0.387720	0.835016	0.127547
	C179	C	0.617573	0.835069	0.888449
	C180	C	0.388189	0.891360	0.185990
	C181	C	0.618214	0.129540	0.183456
	C182	C	0.387895	0.131647	0.830690
	C183	C	0.617564	0.891670	0.830008
	C184	C	0.884757	0.187569	0.392661
	C185	C	0.120679	0.186872	0.621866
	C186	C	0.122589	0.834300	0.392605
	C187	C	0.882984	0.833467	0.622195
	C188	C	0.179387	0.395330	0.888717
	C189	C	0.178145	0.625687	0.125081
	C190	C	0.825413	0.395847	0.127366
	C191	C	0.826863	0.625958	0.889341
	C192	C	0.403063	0.105799	0.607843
	C193	C	0.601338	0.915621	0.607441
	C194	C	0.602669	0.105756	0.406694
	C195	C	0.405332	0.916145	0.410080
	C196	C	0.601951	0.410574	0.101492
	C197	C	0.602758	0.610640	0.914478
	C198	C	0.401785	0.610444	0.100975
	C199	C	0.403572	0.411735	0.913940
	C200	C	0.097288	0.610070	0.406903
	C201	C	0.908441	0.609262	0.607362
	C202	C	0.096804	0.410979	0.607233
	C203	C	0.907864	0.411618	0.408615
	C204	C	0.902968	0.605324	0.106822
	C205	C	0.101010	0.415962	0.106863
	C206	C	0.102050	0.605012	0.907299
	C207	C	0.903392	0.415925	0.908551
	C208	C	0.101635	0.910824	0.600704
	C209	C	0.104110	0.111536	0.412752
	C210	C	0.901814	0.110335	0.601209
	C211	C	0.904103	0.911154	0.413958
	C212	C	0.596805	0.110374	0.907176
	C213	C	0.408525	0.109577	0.108688
	C214	C	0.597362	0.912040	0.107209
	C215	C	0.408656	0.913534	0.909315
	Zn216	Zn	0.502545	0.011324	0.757879
	Zn217	Zn	0.503204	0.010295	0.258070
	Zn218	Zn	0.752818	0.510941	0.008138
	Zn219	Zn	0.252027	0.510653	0.007101
	Zn220	Zn	0.002992	0.760077	0.507481
	Zn221	Zn	0.002740	0.261207	0.507344
	Zn222	Zn	0.002787	0.510214	0.757937
	Zn223	Zn	0.001677	0.510627	0.257544
	Zn224	Zn	0.502438	0.761976	0.007889
	Zn225	Zn	0.502456	0.260391	0.007773
	Zn226	Zn	0.751439	0.011057	0.507147
	Zn227	Zn	0.253626	0.010725	0.507548
	N228	N	0.416687	0.974192	0.687056
	N229	N	0.588130	0.047790	0.685409
	N230	N	0.590018	0.973925	0.328222
	N231	N	0.418060	0.047451	0.330164
	N232	N	0.681751	0.424931	0.970536
	N233	N	0.680863	0.596661	0.045433
	N234	N	0.323701	0.596907	0.969879
	N235	N	0.323426	0.424840	0.044602
	N236	N	0.965368	0.689080	0.421907
	N237	N	0.040263	0.687666	0.592150
	N238	N	0.964782	0.332833	0.592601
	N239	N	0.040370	0.334039	0.423203
	N240	N	0.965438	0.423840	0.686964
	N241	N	0.039871	0.595781	0.685686
	N242	N	0.965301	0.596976	0.328796
	N243	N	0.038977	0.424497	0.328322
	N244	N	0.416803	0.690151	0.970243
	N245	N	0.587601	0.689734	0.045446
	N246	N	0.588391	0.332374	0.970427
	N247	N	0.416626	0.332353	0.044950
	N248	N	0.680743	0.973664	0.421656
	N249	N	0.678803	0.048251	0.591543
	N250	N	0.323788	0.974068	0.594818
	N251	N	0.327074	0.048316	0.424340
	N252	N	0.915474	0.473804	0.187057
	N253	N	0.087971	0.547428	0.185749
	N254	N	0.088462	0.473217	0.829246
	N255	N	0.916284	0.547416	0.828724
	N256	N	0.182799	0.924503	0.470359
	N257	N	0.181071	0.096122	0.544522
	N258	N	0.824287	0.096312	0.470063
	N259	N	0.823668	0.925086	0.544540
	N260	N	0.464728	0.188864	0.922936
	N261	N	0.540530	0.187836	0.092278
	N262	N	0.465251	0.834002	0.093185
	N263	N	0.540186	0.834261	0.922868
	N264	N	0.466055	0.924389	0.187509
	N265	N	0.540213	0.096506	0.186567
	N266	N	0.465725	0.098175	0.828126
	N267	N	0.539916	0.925552	0.828878
	N268	N	0.917230	0.189549	0.470089
	N269	N	0.088111	0.189134	0.544475
	N270	N	0.088341	0.832631	0.469886
	N271	N	0.917087	0.831771	0.544900
	N272	N	0.181078	0.473141	0.921585
	N273	N	0.179561	0.547990	0.091789
	N274	N	0.824222	0.473531	0.093681
	N275	N	0.825455	0.548344	0.923299
	O276	O	0.521883	0.479373	0.484964
	H277	H	0.506217	0.472474	0.488249
	H278	H	0.529678	0.477062	0.487142
	O279	O	-0.014654	-0.092710	-0.020025
	H280	H	-0.008402	-0.089204	-0.022347
	H281	H	-0.013392	-0.100831	-0.015748
	O282	O	0.483758	0.508678	0.525832
	H283	H	0.478970	0.505020	0.533089
	H284	H	0.481424	0.523125	0.524023
	O285	O	0.433625	0.526183	0.459760
	H286	H	0.428615	0.525664	0.458787
	H287	H	0.437563	0.526286	0.450290
	O288	O	1.027383	-0.071792	-0.021440
	H289	H	1.032107	-0.081947	-0.024137
	H290	H	1.032517	-0.057219	-0.017645
	O291	O	-0.563173	0.552228	-0.465159
	H292	H	-0.562746	0.555236	-0.480357
	H293	H	-0.561787	0.561379	-0.468178
	O294	O	0.508468	0.450854	0.435812
	H295	H	0.516385	0.452946	0.444561
	H296	H	0.504302	0.451630	0.436430
	O297	O	0.033391	0.931380	-0.002429
	H298	H	0.018659	0.936254	-0.007849
	H299	H	0.037042	0.917537	0.004997
	O300	O	1.489520	-0.463314	0.495958
	H301	H	1.486243	-0.464748	0.486699
	H302	H	1.492796	-0.457708	0.501356
	O303	O	0.523552	0.568236	0.467073
	H304	H	0.522356	0.558171	0.470423
	H305	H	0.530054	0.571090	0.465771
	O306	O	-0.029558	0.900260	0.975085
	H307	H	-0.025548	0.888493	0.959714
	H308	H	-0.039515	0.906603	0.979885
	O309	O	0.548462	0.444628	0.463348
	H310	H	0.550141	0.435058	0.465700
	H311	H	0.546285	0.439229	0.463856
