data_Molecule from HDF5

_cell_length_a		16.226390
_cell_length_b		16.336759
_cell_length_c		16.309878
_cell_angle_alpha	90.024608
_cell_angle_beta	90.108516
_cell_angle_gamma	90.187213
_symmetry_space_group_name_H-M	'P 1'
_symmetry_Int_Tables_number		1

loop_
	_symmetry_equiv_pos_as_xyz
	x,y,z

loop_
	_atom_site_label
	_atom_site_type_symbol
	_atom_site_fract_x
	_atom_site_fract_y
	_atom_site_fract_z
	H0	H	0.392984	0.829123	0.711228
	H1	H	0.591221	0.155367	0.711915
	H2	H	0.590812	0.829259	0.282490
	H3	H	0.392908	0.154934	0.281043
	H4	H	0.704693	0.394925	0.832675
	H5	H	0.705673	0.589201	0.160337
	H6	H	0.279268	0.587561	0.832571
	H7	H	0.277092	0.395025	0.160516
	H8	H	0.828561	0.706609	0.397107
	H9	H	0.156580	0.707228	0.595928
	H10	H	0.827879	0.277323	0.593305
	H11	H	0.157146	0.279036	0.398022
	H12	H	0.827431	0.393960	0.708698
	H13	H	0.156397	0.589840	0.710274
	H14	H	0.827810	0.590046	0.282744
	H15	H	0.156875	0.395268	0.282437
	H16	H	0.393149	0.706031	0.833528
	H17	H	0.590796	0.707133	0.159917
	H18	H	0.590594	0.277008	0.834390
	H19	H	0.393560	0.278694	0.160892
	H20	H	0.703708	0.828465	0.400951
	H21	H	0.706860	0.155344	0.594751
	H22	H	0.279314	0.828858	0.592903
	H23	H	0.279459	0.156271	0.399507
	H24	H	0.893128	0.329154	0.211166
	H25	H	0.089962	0.656079	0.211156
	H26	H	0.089893	0.328730	0.781727
	H27	H	0.892515	0.655678	0.780834
	H28	H	0.205588	0.896142	0.332731
	H29	H	0.206429	0.090187	0.660312
	H30	H	0.777914	0.089401	0.332429
	H31	H	0.779727	0.894484	0.660389
	H32	H	0.327822	0.205597	0.898667
	H33	H	0.655247	0.208886	0.097397
	H34	H	0.327550	0.778735	0.094698
	H35	H	0.656297	0.779330	0.900588
	H36	H	0.327801	0.895031	0.209995
	H37	H	0.656266	0.090601	0.210930
	H38	H	0.327687	0.089297	0.783304
	H39	H	0.655679	0.893407	0.783325
	H40	H	0.894057	0.206193	0.332593
	H41	H	0.093091	0.208029	0.659305
	H42	H	0.090796	0.777415	0.333225
	H43	H	0.893602	0.777332	0.659307
	H44	H	0.203712	0.328339	0.900922
	H45	H	0.204738	0.656941	0.092769
	H46	H	0.777302	0.329260	0.094514
	H47	H	0.779923	0.656298	0.900430
	H48	H	0.397378	0.108076	0.586006
	H49	H	0.588866	0.873884	0.592911
	H50	H	0.588500	0.107135	0.412427
	H51	H	0.401809	0.876378	0.401365
	H52	H	0.584694	0.400169	0.113490
	H53	H	0.596261	0.585540	0.877099
	H54	H	0.403669	0.589143	0.112991
	H55	H	0.390551	0.402499	0.879764
	H56	H	0.111888	0.598191	0.407562
	H57	H	0.874915	0.585118	0.591383
	H58	H	0.108872	0.395431	0.582456
	H59	H	0.876144	0.402334	0.401917
	H60	H	0.106864	0.408021	0.590445
	H61	H	0.874513	0.588088	0.587879
	H62	H	0.104305	0.576669	0.412709
	H63	H	0.873870	0.395070	0.398982
	H64	H	0.394238	0.591047	0.115639
	H65	H	0.578705	0.578581	0.884701
	H66	H	0.585456	0.400585	0.113389
	H67	H	0.405057	0.401213	0.883441
	H68	H	0.589918	0.111570	0.398143
	H69	H	0.582678	0.875534	0.593731
	H70	H	0.396418	0.110853	0.595414
	H71	H	0.398908	0.877693	0.407002
	H72	H	0.889932	0.611123	0.089956
	H73	H	0.074322	0.379646	0.088890
	H74	H	0.088989	0.611816	0.894318
	H75	H	0.905985	0.379836	0.905182
	H76	H	0.089874	0.896731	0.614933
	H77	H	0.089527	0.083068	0.380110
	H78	H	0.902434	0.092906	0.613771
	H79	H	0.898814	0.899763	0.379532
	H80	H	0.610574	0.088574	0.902214
	H81	H	0.375282	0.088799	0.087821
	H82	H	0.606329	0.908766	0.089849
	H83	H	0.374032	0.902759	0.896692
	H84	H	0.611815	0.896308	0.099016
	H85	H	0.376226	0.081755	0.087747
	H86	H	0.607875	0.086748	0.909301
	H87	H	0.372662	0.891074	0.903430
	H88	H	0.893536	0.084152	0.613501
	H89	H	0.081703	0.085670	0.381166
	H90	H	0.084385	0.903072	0.611999
	H91	H	0.899736	0.896386	0.379126
	H92	H	0.076853	0.606036	0.902994
	H93	H	0.090437	0.377132	0.082361
	H94	H	0.903326	0.609844	0.098816
	H95	H	0.891366	0.375069	0.906918
	H96	H	0.404833	0.107519	0.592230
	H97	H	0.585548	0.876612	0.588538
	H98	H	0.576618	0.106348	0.402380
	H99	H	0.395855	0.875064	0.401831
	H100	H	0.584607	0.401047	0.112099
	H101	H	0.579777	0.597829	0.877669
	H102	H	0.396592	0.582206	0.113426
	H103	H	0.397323	0.389758	0.877535
	H104	H	0.111258	0.581559	0.390818
	H105	H	0.876572	0.583690	0.586861
	H106	H	0.112055	0.395926	0.597558
	H107	H	0.876343	0.395679	0.407098
	H108	H	0.903294	0.605301	0.083407
	H109	H	0.087486	0.373585	0.099403
	H110	H	0.090939	0.607431	0.909490
	H111	H	0.897783	0.374048	0.893670
	H112	H	0.081246	0.894457	0.612356
	H113	H	0.087440	0.090864	0.378076
	H114	H	0.905161	0.080675	0.609920
	H115	H	0.896370	0.897807	0.379195
	H116	H	0.608083	0.081005	0.903920
	H117	H	0.373796	0.085258	0.093817
	H118	H	0.608822	0.893709	0.082622
	H119	H	0.377607	0.901747	0.910285
	C120	C	0.371093	0.000998	0.618903
	C121	C	0.614598	0.983416	0.619810
	C122	C	0.613475	0.000523	0.375650
	C123	C	0.370758	0.984094	0.375026
	C124	C	0.613241	0.371583	0.004920
	C125	C	0.613909	0.615055	0.988083
	C126	C	0.370200	0.614294	0.005555
	C127	C	0.369457	0.370229	0.988726
	C128	C	0.000770	0.613407	0.375424
	C129	C	0.983950	0.613762	0.617590
	C130	C	0.000407	0.370488	0.617742
	C131	C	0.984151	0.370354	0.374624
	C132	C	0.870578	0.500816	0.118414
	C133	C	0.113073	0.484535	0.118453
	C134	C	0.113380	0.500312	0.874427
	C135	C	0.870197	0.484342	0.874288
	C136	C	0.113433	0.870799	0.504891
	C137	C	0.114392	0.114376	0.487970
	C138	C	0.871328	0.113864	0.504236
	C139	C	0.870641	0.870279	0.487948
	C140	C	0.500555	0.113668	0.876116
	C141	C	0.483400	0.113770	0.118425
	C142	C	0.500252	0.871212	0.118454
	C143	C	0.483284	0.870275	0.875599
	C144	C	0.372900	0.877932	0.673480
	C145	C	0.612088	0.106409	0.674403
	C146	C	0.610615	0.877955	0.320709
	C147	C	0.373015	0.106783	0.319880
	C148	C	0.667384	0.374188	0.881757
	C149	C	0.668553	0.610890	0.111202
	C150	C	0.316445	0.609116	0.881659
	C151	C	0.314802	0.373841	0.111762
	C152	C	0.876957	0.668007	0.377828
	C153	C	0.107509	0.669007	0.615641
	C154	C	0.877028	0.315174	0.613935
	C155	C	0.108174	0.316912	0.377731
	C156	C	0.876702	0.372975	0.671283
	C157	C	0.107409	0.610998	0.672635
	C158	C	0.876764	0.610357	0.320707
	C159	C	0.108045	0.374574	0.320390
	C160	C	0.372899	0.667975	0.882048
	C161	C	0.611555	0.669352	0.111173
	C162	C	0.610715	0.315518	0.882648
	C163	C	0.372600	0.315967	0.111952
	C164	C	0.666918	0.877422	0.379567
	C165	C	0.669452	0.106594	0.616040
	C166	C	0.316089	0.877928	0.615030
	C167	C	0.316664	0.107370	0.378625
	C168	C	0.872756	0.377866	0.173202
	C169	C	0.110411	0.607656	0.172989
	C170	C	0.110371	0.377489	0.819773
	C171	C	0.872884	0.607096	0.819393
	C172	C	0.168179	0.874646	0.381653
	C173	C	0.168895	0.111168	0.611334
	C174	C	0.816034	0.110273	0.381252
	C175	C	0.816941	0.873963	0.611179
	C176	C	0.376698	0.167810	0.878594
	C177	C	0.606721	0.169969	0.116722
	C178	C	0.376610	0.816411	0.115401
	C179	C	0.607177	0.816679	0.879515
	C180	C	0.376795	0.874026	0.172832
	C181	C	0.607208	0.111406	0.173273
	C182	C	0.376705	0.110232	0.821060
	C183	C	0.606829	0.873286	0.821254
	C184	C	0.873938	0.168030	0.381272
	C185	C	0.112819	0.169859	0.610745
	C186	C	0.111113	0.816072	0.381644
	C187	C	0.873404	0.815455	0.610736
	C188	C	0.167407	0.377475	0.878540
	C189	C	0.167410	0.607949	0.114549
	C190	C	0.814998	0.377980	0.115359
	C191	C	0.816598	0.607325	0.878477
	C192	C	0.393204	0.086587	0.597644
	C193	C	0.592355	0.897665	0.598104
	C194	C	0.591465	0.086267	0.397679
	C195	C	0.392562	0.898422	0.396923
	C196	C	0.591276	0.394146	0.090838
	C197	C	0.591564	0.593683	0.902020
	C198	C	0.391761	0.593616	0.091810
	C199	C	0.391345	0.391559	0.902515
	C200	C	0.086960	0.591832	0.397307
	C201	C	0.897618	0.591894	0.595482
	C202	C	0.086919	0.393047	0.596338
	C203	C	0.897725	0.391437	0.396079
	C204	C	0.892408	0.586568	0.097108
	C205	C	0.090619	0.399103	0.096760
	C206	C	0.091868	0.586298	0.895884
	C207	C	0.892047	0.398471	0.895709
	C208	C	0.091798	0.892088	0.590930
	C209	C	0.092444	0.092977	0.402032
	C210	C	0.893616	0.092103	0.590214
	C211	C	0.892034	0.891617	0.401461
	C212	C	0.586524	0.091856	0.898494
	C213	C	0.397402	0.091747	0.096291
	C214	C	0.586725	0.892946	0.096717
	C215	C	0.396758	0.892009	0.897197
	Zn216	Zn	0.492163	-0.007847	0.747987
	Zn217	Zn	0.492073	-0.007431	0.246820
	Zn218	Zn	0.741785	0.492622	-0.003807
	Zn219	Zn	0.241469	0.492588	-0.002835
	Zn220	Zn	-0.007906	0.742128	0.496172
	Zn221	Zn	-0.006684	0.242607	0.496221
	Zn222	Zn	-0.008337	0.492508	0.745486
	Zn223	Zn	-0.007900	0.492630	0.247457
	Zn224	Zn	0.491653	0.742673	-0.003179
	Zn225	Zn	0.492118	0.242258	-0.002797
	Zn226	Zn	0.742535	-0.008004	0.496645
	Zn227	Zn	0.242101	-0.006936	0.496826
	N228	N	0.406574	0.955359	0.675834
	N229	N	0.578744	0.028928	0.676752
	N230	N	0.578122	0.955692	0.318173
	N231	N	0.405814	0.029238	0.317583
	N232	N	0.668947	0.408310	0.958895
	N233	N	0.670049	0.577913	0.033626
	N234	N	0.314791	0.576276	0.959488
	N235	N	0.313010	0.407003	0.034354
	N236	N	0.955006	0.670286	0.410959
	N237	N	0.029712	0.670745	0.581817
	N238	N	0.955253	0.313785	0.581324
	N239	N	0.030270	0.314356	0.410817
	N240	N	0.954249	0.406800	0.673597
	N241	N	0.029613	0.577542	0.673912
	N242	N	0.954430	0.576998	0.319236
	N243	N	0.029853	0.406935	0.318183
	N244	N	0.405398	0.671459	0.959896
	N245	N	0.578351	0.671981	0.033543
	N246	N	0.577833	0.313882	0.960357
	N247	N	0.405727	0.313533	0.034304
	N248	N	0.668508	0.954508	0.413404
	N249	N	0.671405	0.029097	0.583052
	N250	N	0.314768	0.955234	0.581763
	N251	N	0.315160	0.030150	0.412355
	N252	N	0.906276	0.455170	0.175504
	N253	N	0.077456	0.529947	0.175610
	N254	N	0.077544	0.455087	0.817105
	N255	N	0.905561	0.529366	0.816619
	N256	N	0.169753	0.907795	0.459288
	N257	N	0.170184	0.077455	0.534150
	N258	N	0.814526	0.077000	0.458775
	N259	N	0.814954	0.907229	0.533655
	N260	N	0.454564	0.170137	0.912139
	N261	N	0.528885	0.171630	0.083322
	N262	N	0.454546	0.814492	0.082392
	N263	N	0.529119	0.814732	0.912511
	N264	N	0.454599	0.907487	0.174669
	N265	N	0.529652	0.077180	0.174507
	N266	N	0.454612	0.077114	0.819522
	N267	N	0.528941	0.905907	0.818940
	N268	N	0.907416	0.170467	0.458840
	N269	N	0.079512	0.171785	0.533067
	N270	N	0.077778	0.813582	0.459157
	N271	N	0.906120	0.813179	0.533041
	N272	N	0.169352	0.454850	0.911702
	N273	N	0.169153	0.530578	0.081370
	N274	N	0.813745	0.455243	0.081624
	N275	N	0.814819	0.530082	0.911673
	O276	O	0.941241	0.061779	0.939964
	H277	H	0.937754	0.071193	0.938439
	H278	H	0.936822	0.065862	0.939837
	O279	O	0.880873	1.004582	0.879807
	H280	H	0.879657	1.020025	0.877120
	H281	H	0.890079	1.003289	0.884175
	O282	O	0.970437	1.058947	-0.044096
	H283	H	0.970295	1.055695	-0.039257
	H284	H	0.971281	1.059054	-0.040053
	O285	O	0.918635	0.974873	0.866419
	H286	H	0.916959	0.974688	0.859741
	H287	H	0.918431	0.972718	0.864448
