data_Molecule from HDF5

_cell_length_a		16.266331
_cell_length_b		16.141915
_cell_length_c		16.413551
_cell_angle_alpha	89.921042
_cell_angle_beta	89.686279
_cell_angle_gamma	90.339068
_symmetry_space_group_name_H-M	'P 1'
_symmetry_Int_Tables_number		1

loop_
	_symmetry_equiv_pos_as_xyz
	x,y,z

loop_
	_atom_site_label
	_atom_site_type_symbol
	_atom_site_fract_x
	_atom_site_fract_y
	_atom_site_fract_z
	H0	H	0.393649	0.833495	0.714505
	H1	H	0.602965	0.160127	0.708962
	H2	H	0.602564	0.834843	0.274056
	H3	H	0.400396	0.160258	0.279023
	H4	H	0.720631	0.397912	0.835243
	H5	H	0.718580	0.603378	0.156287
	H6	H	0.282630	0.600487	0.835877
	H7	H	0.283501	0.395905	0.157760
	H8	H	0.838604	0.707584	0.397566
	H9	H	0.164962	0.713623	0.595567
	H10	H	0.838854	0.277877	0.596435
	H11	H	0.166975	0.283308	0.398034
	H12	H	0.840184	0.389195	0.716984
	H13	H	0.165167	0.598626	0.713955
	H14	H	0.842542	0.600243	0.278623
	H15	H	0.164276	0.393938	0.277358
	H16	H	0.401048	0.712215	0.833207
	H17	H	0.600234	0.716072	0.155724
	H18	H	0.599332	0.284756	0.833029
	H19	H	0.398218	0.279396	0.157706
	H20	H	0.714664	0.831075	0.391997
	H21	H	0.719131	0.159047	0.593177
	H22	H	0.285161	0.830280	0.593327
	H23	H	0.286425	0.159116	0.394328
	H24	H	0.898747	0.334063	0.214860
	H25	H	0.104124	0.660261	0.213609
	H26	H	0.105303	0.333053	0.779862
	H27	H	0.900377	0.657738	0.777325
	H28	H	0.218715	0.892487	0.332476
	H29	H	0.218699	0.094870	0.655757
	H30	H	0.787481	0.096375	0.332355
	H31	H	0.780003	0.891433	0.655223
	H32	H	0.335945	0.211186	0.898383
	H33	H	0.663683	0.211263	0.090591
	H34	H	0.336864	0.781434	0.092471
	H35	H	0.663762	0.782213	0.892248
	H36	H	0.337668	0.895092	0.211429
	H37	H	0.661197	0.103236	0.210953
	H38	H	0.337099	0.099147	0.776631
	H39	H	0.661904	0.894792	0.773392
	H40	H	0.902901	0.213651	0.333808
	H41	H	0.101586	0.210003	0.657572
	H42	H	0.100152	0.778962	0.332900
	H43	H	0.899470	0.778406	0.657263
	H44	H	0.215461	0.332403	0.899334
	H45	H	0.217823	0.661658	0.097393
	H46	H	0.783126	0.334993	0.099007
	H47	H	0.791058	0.662327	0.898078
	H48	H	0.401508	0.113450	0.579683
	H49	H	0.587626	0.880707	0.581913
	H50	H	0.595300	0.114758	0.396597
	H51	H	0.405021	0.876755	0.398166
	H52	H	0.587432	0.398541	0.112516
	H53	H	0.594147	0.592415	0.879675
	H54	H	0.407051	0.585946	0.109906
	H55	H	0.403713	0.410713	0.881472
	H56	H	0.118366	0.588526	0.404269
	H57	H	0.889378	0.577057	0.589034
	H58	H	0.114413	0.414783	0.585930
	H59	H	0.886001	0.401462	0.405988
	H60	H	0.121569	0.402752	0.600617
	H61	H	0.884749	0.585405	0.596128
	H62	H	0.118567	0.585911	0.404867
	H63	H	0.888305	0.406582	0.408353
	H64	H	0.413151	0.588377	0.108871
	H65	H	0.600219	0.590907	0.877791
	H66	H	0.600283	0.407161	0.113163
	H67	H	0.414275	0.405602	0.882168
	H68	H	0.589343	0.111597	0.402683
	H69	H	0.591676	0.878975	0.585161
	H70	H	0.411159	0.114424	0.594207
	H71	H	0.415300	0.878881	0.398500
	H72	H	0.902955	0.614300	0.080716
	H73	H	0.087698	0.379478	0.095125
	H74	H	0.095051	0.614212	0.903710
	H75	H	0.909346	0.380697	0.912312
	H76	H	0.093386	0.907295	0.608358
	H77	H	0.098241	0.079125	0.380816
	H78	H	0.904648	0.078751	0.608394
	H79	H	0.912750	0.904236	0.382088
	H80	H	0.618150	0.092929	0.895777
	H81	H	0.384781	0.085636	0.086132
	H82	H	0.614038	0.912884	0.086184
	H83	H	0.383903	0.902411	0.902572
	H84	H	0.618047	0.905602	0.088570
	H85	H	0.382110	0.086824	0.092151
	H86	H	0.614390	0.091593	0.905269
	H87	H	0.386689	0.907444	0.905501
	H88	H	0.915008	0.083181	0.607175
	H89	H	0.085891	0.090197	0.382467
	H90	H	0.089715	0.902776	0.608498
	H91	H	0.909164	0.894758	0.377857
	H92	H	0.089297	0.612472	0.902643
	H93	H	0.089296	0.382621	0.083685
	H94	H	0.908680	0.619632	0.102066
	H95	H	0.908238	0.377915	0.904853
	H96	H	0.417728	0.107547	0.579796
	H97	H	0.586440	0.880255	0.587715
	H98	H	0.597900	0.113085	0.404932
	H99	H	0.409562	0.880029	0.406519
	H100	H	0.587902	0.413303	0.107176
	H101	H	0.596822	0.586664	0.880842
	H102	H	0.408550	0.592631	0.111977
	H103	H	0.404862	0.399530	0.878987
	H104	H	0.119389	0.586709	0.403230
	H105	H	0.886908	0.588787	0.585111
	H106	H	0.119042	0.395510	0.582207
	H107	H	0.886520	0.406515	0.403191
	H108	H	0.924569	0.610554	0.087496
	H109	H	0.098870	0.378267	0.089809
	H110	H	0.092118	0.612909	0.908170
	H111	H	0.915891	0.381501	0.907230
	H112	H	0.094985	0.901673	0.610318
	H113	H	0.100480	0.095205	0.376179
	H114	H	0.906965	0.089831	0.611335
	H115	H	0.903377	0.903685	0.378084
	H116	H	0.614185	0.084170	0.899196
	H117	H	0.382780	0.091366	0.087084
	H118	H	0.615311	0.906324	0.080452
	H119	H	0.384798	0.908795	0.900066
	C120	C	0.378923	0.003931	0.615103
	C121	C	0.620628	0.987521	0.614613
	C122	C	0.622670	0.004898	0.371480
	C123	C	0.380178	0.987003	0.372411
	C124	C	0.622400	0.376953	0.004349
	C125	C	0.624860	0.620517	0.986192
	C126	C	0.379971	0.618704	0.003874
	C127	C	0.377668	0.374944	0.987648
	C128	C	0.011066	0.616503	0.375458
	C129	C	0.994239	0.615786	0.618811
	C130	C	0.010782	0.372589	0.619404
	C131	C	0.994312	0.375116	0.375699
	C132	C	0.880401	0.506877	0.119961
	C133	C	0.122626	0.488413	0.118635
	C134	C	0.122638	0.505254	0.876179
	C135	C	0.882014	0.487794	0.876995
	C136	C	0.122531	0.873292	0.502526
	C137	C	0.124482	0.117555	0.486661
	C138	C	0.880188	0.115666	0.502506
	C139	C	0.877972	0.871538	0.486252
	C140	C	0.507954	0.119183	0.871471
	C141	C	0.490910	0.118754	0.116224
	C142	C	0.508496	0.876820	0.114848
	C143	C	0.492218	0.875948	0.872264
	C144	C	0.376545	0.881665	0.674129
	C145	C	0.621926	0.110885	0.670792
	C146	C	0.621512	0.882527	0.313837
	C147	C	0.381093	0.111031	0.317318
	C148	C	0.680720	0.378170	0.883234
	C149	C	0.680040	0.621605	0.107892
	C150	C	0.322168	0.618574	0.883302
	C151	C	0.321516	0.376026	0.109461
	C152	C	0.888170	0.671120	0.377475
	C153	C	0.116195	0.674579	0.616247
	C154	C	0.887964	0.315383	0.617610
	C155	C	0.117564	0.320122	0.377248
	C156	C	0.888615	0.370954	0.677471
	C157	C	0.116370	0.617418	0.675080
	C158	C	0.890001	0.617480	0.318271
	C159	C	0.116360	0.375162	0.317280
	C160	C	0.380769	0.674933	0.882075
	C161	C	0.621021	0.677594	0.107551
	C162	C	0.620389	0.321862	0.881977
	C163	C	0.379095	0.318259	0.109319
	C164	C	0.677626	0.880961	0.372384
	C165	C	0.679407	0.110515	0.612920
	C166	C	0.322360	0.879922	0.613923
	C167	C	0.324394	0.110335	0.374541
	C168	C	0.879473	0.383525	0.176496
	C169	C	0.123021	0.611619	0.174885
	C170	C	0.123325	0.381688	0.819267
	C171	C	0.881948	0.609720	0.817571
	C172	C	0.179796	0.873184	0.381024
	C173	C	0.180324	0.115081	0.607829
	C174	C	0.825472	0.115495	0.380879
	C175	C	0.819317	0.872135	0.607211
	C176	C	0.385160	0.174276	0.875906
	C177	C	0.614263	0.174629	0.112368
	C178	C	0.385939	0.819602	0.113121
	C179	C	0.614847	0.820160	0.872642
	C180	C	0.386473	0.875923	0.172580
	C181	C	0.613114	0.120549	0.171918
	C182	C	0.385537	0.118348	0.815749
	C183	C	0.613789	0.876218	0.813503
	C184	C	0.882913	0.174127	0.381825
	C185	C	0.122047	0.172356	0.608696
	C186	C	0.120793	0.816603	0.381267
	C187	C	0.878697	0.815663	0.608243
	C188	C	0.178210	0.381454	0.878467
	C189	C	0.179813	0.612235	0.117254
	C190	C	0.821688	0.384060	0.119156
	C191	C	0.827569	0.612013	0.877654
	C192	C	0.402854	0.089575	0.591332
	C193	C	0.595871	0.902135	0.591586
	C194	C	0.600480	0.090724	0.394663
	C195	C	0.403285	0.900985	0.394431
	C196	C	0.598805	0.399852	0.088866
	C197	C	0.603330	0.596862	0.901557
	C198	C	0.402910	0.595660	0.088344
	C199	C	0.400778	0.398447	0.902801
	C200	C	0.096552	0.593570	0.397682
	C201	C	0.909099	0.590900	0.596576
	C202	C	0.095963	0.397218	0.596280
	C203	C	0.909167	0.398071	0.398971
	C204	C	0.905018	0.592597	0.096869
	C205	C	0.098910	0.402306	0.096079
	C206	C	0.099123	0.590759	0.898425
	C207	C	0.904549	0.402205	0.901112
	C208	C	0.099362	0.897066	0.587133
	C209	C	0.101659	0.094970	0.401754
	C210	C	0.902229	0.091106	0.587195
	C211	C	0.901416	0.894247	0.401493
	C212	C	0.593497	0.096071	0.893387
	C213	C	0.405452	0.095066	0.094822
	C214	C	0.593996	0.901154	0.091805
	C215	C	0.407073	0.899340	0.896091
	Zn216	Zn	0.499284	-0.003455	0.742854
	Zn217	Zn	0.500684	-0.001893	0.244391
	Zn218	Zn	0.753287	0.498899	-0.002735
	Zn219	Zn	0.250048	0.497566	-0.002809
	Zn220	Zn	0.001070	0.743646	0.495281
	Zn221	Zn	0.002356	0.245639	0.496128
	Zn222	Zn	0.002200	0.494709	0.748154
	Zn223	Zn	0.002760	0.496901	0.247164
	Zn224	Zn	0.500936	0.747183	-0.006141
	Zn225	Zn	0.499743	0.246812	-0.004444
	Zn226	Zn	0.749689	-0.005686	0.493405
	Zn227	Zn	0.252021	-0.005902	0.493679
	N228	N	0.410747	0.959743	0.675180
	N229	N	0.586028	0.033526	0.671882
	N230	N	0.588176	0.960530	0.312954
	N231	N	0.415117	0.033262	0.315733
	N232	N	0.682285	0.411349	0.960385
	N233	N	0.682625	0.587053	0.031572
	N234	N	0.321396	0.584342	0.960000
	N235	N	0.320572	0.410470	0.032886
	N236	N	0.964467	0.670453	0.412661
	N237	N	0.039072	0.673803	0.582108
	N238	N	0.964855	0.316312	0.582559
	N239	N	0.040822	0.320021	0.412914
	N240	N	0.966044	0.405852	0.678955
	N241	N	0.039517	0.581580	0.676656
	N242	N	0.967531	0.584295	0.316870
	N243	N	0.038622	0.408505	0.315800
	N244	N	0.416101	0.675086	0.957992
	N245	N	0.587494	0.677483	0.030789
	N246	N	0.584925	0.320704	0.958306
	N247	N	0.413098	0.317255	0.032400
	N248	N	0.678430	0.958161	0.407741
	N249	N	0.678847	0.032787	0.578723
	N250	N	0.323753	0.956934	0.577732
	N251	N	0.323434	0.032125	0.408029
	N252	N	0.915142	0.460914	0.177253
	N253	N	0.088454	0.533635	0.176139
	N254	N	0.089470	0.459502	0.817487
	N255	N	0.915240	0.531648	0.817352
	N256	N	0.180991	0.907507	0.457546
	N257	N	0.181914	0.081697	0.530868
	N258	N	0.823419	0.080030	0.457241
	N259	N	0.818353	0.905698	0.529969
	N260	N	0.462361	0.175108	0.909487
	N261	N	0.537394	0.173587	0.078387
	N262	N	0.462814	0.820043	0.078089
	N263	N	0.538150	0.819836	0.908620
	N264	N	0.463866	0.910912	0.173677
	N265	N	0.535340	0.086529	0.174743
	N266	N	0.463308	0.085306	0.812696
	N267	N	0.536507	0.910121	0.813362
	N268	N	0.916037	0.174292	0.458745
	N269	N	0.088080	0.173878	0.532164
	N270	N	0.085899	0.816407	0.457890
	N271	N	0.914405	0.815280	0.532238
	N272	N	0.178107	0.459009	0.913073
	N273	N	0.179634	0.534465	0.082930
	N274	N	0.822023	0.461866	0.084817
	N275	N	0.827464	0.535192	0.914106
	O276	O	0.098756	-0.123097	-0.175779
	H277	H	0.101322	-0.129236	-0.178598
	H278	H	0.090092	-0.117513	-0.175243
	O279	O	0.593029	0.472230	0.410307
	H280	H	0.602482	0.487473	0.404483
	H281	H	0.595188	0.473529	0.417824
	O282	O	0.899380	0.064306	0.024403
	H283	H	0.890827	0.079517	0.015720
	H284	H	0.895387	0.055212	0.018456
	O285	O	-0.173468	1.068193	-0.070663
	H286	H	-0.177240	1.070268	-0.076574
	H287	H	-0.188484	1.080693	-0.062896
	O288	O	1.111484	1.001234	-0.135183
	H289	H	1.107952	1.015009	-0.133541
	H290	H	1.108912	1.008404	-0.137231
	O291	O	0.587494	0.507203	0.656701
	H292	H	0.582679	0.519980	0.660191
	H293	H	0.582340	0.507502	0.657987
	O294	O	1.156039	1.053846	0.994916
	H295	H	1.152847	1.045256	1.008271
	H296	H	1.164870	1.055859	1.010209
	O297	O	-0.059978	0.043008	0.040090
	H298	H	-0.068117	0.036006	0.020332
	H299	H	-0.052722	0.031811	0.052465
	O300	O	0.393804	0.401957	0.433259
	H301	H	0.407755	0.407831	0.433094
	H302	H	0.395572	0.399998	0.436665
	O303	O	-0.014606	1.037707	1.141431
	H304	H	-0.020982	1.049019	1.137307
	H305	H	-0.021445	1.037662	1.126096
	O306	O	0.525246	0.454344	0.505469
	H307	H	0.513168	0.451655	0.512190
	H308	H	0.536749	0.453066	0.512442
	O309	O	0.845348	-0.081328	0.028803
	H310	H	0.846528	-0.076051	0.034622
	H311	H	0.859172	-0.077614	0.029865
	O312	O	0.133364	0.021681	1.137985
	H313	H	0.126862	0.031441	1.140069
	H314	H	0.126772	0.024744	1.139182
	O315	O	0.513707	0.610391	0.493514
	H316	H	0.513586	0.612298	0.499426
	H317	H	0.519203	0.619287	0.490475
	O318	O	0.529615	0.481543	0.562622
	H319	H	0.529095	0.479100	0.565610
	H320	H	0.517160	0.462192	0.562750
	O321	O	0.423584	0.568132	0.503017
	H322	H	0.417578	0.560506	0.504341
	H323	H	0.425630	0.579951	0.498930
	O324	O	0.587654	0.466624	0.490337
	H325	H	0.589648	0.472724	0.494527
	H326	H	0.587601	0.469464	0.482441
	O327	O	-0.196150	0.922752	1.004259
	H328	H	-0.191845	0.927146	1.007806
	H329	H	-0.195810	0.909704	0.998123
	O330	O	0.506108	0.529776	0.470941
	H331	H	0.505393	0.529035	0.480544
	H332	H	0.500841	0.538034	0.477055
	O333	O	-0.054647	1.044927	1.085479
	H334	H	-0.049100	1.040357	1.081319
	H335	H	-0.056662	1.060044	1.087261
	O336	O	1.088770	0.938901	1.022381
	H337	H	1.090368	0.938586	1.017880
	H338	H	1.087968	0.944131	1.028428
	O339	O	0.415113	0.448570	0.499583
	H340	H	0.396593	0.453718	0.496310
	H341	H	0.421142	0.455469	0.479944
	O342	O	1.056695	0.060075	0.048134
	H343	H	1.072392	0.064740	0.050587
	H344	H	1.061446	0.060303	0.058352
	O345	O	0.378713	0.357656	0.621728
	H346	H	0.363524	0.362878	0.616944
	H347	H	0.368160	0.341845	0.618987
	O348	O	0.950610	1.039478	0.813340
	H349	H	0.942302	1.059880	0.796314
	H350	H	0.926139	1.037189	0.820422
	O351	O	0.690927	0.433384	0.306028
	H352	H	0.678797	0.439531	0.308276
	H353	H	0.707538	0.426943	0.278986
	O354	O	0.610241	0.564371	0.403118
	H355	H	0.614586	0.577757	0.410649
	H356	H	0.607098	0.558778	0.384630
	O357	O	0.498482	0.353829	0.597569
	H358	H	0.497559	0.355659	0.582890
	H359	H	0.503043	0.355503	0.590309
	O360	O	-0.014680	-0.105726	-0.128738
	H361	H	-0.009465	-0.116370	-0.133965
	H362	H	0.000666	-0.101500	-0.125328
	O363	O	0.378612	0.473361	0.629985
	H364	H	0.379346	0.465002	0.637583
	H365	H	0.377632	0.471371	0.613395
	O366	O	0.378580	0.478675	0.370456
	H367	H	0.375556	0.487992	0.374206
	H368	H	0.391856	0.478776	0.367659
	O369	O	0.550644	0.423426	0.418252
	H370	H	0.551983	0.420353	0.418662
	H371	H	0.552042	0.425474	0.429266
	O372	O	-0.108917	0.846927	1.124687
	H373	H	-0.125418	0.847694	1.129166
	H374	H	-0.104585	0.840554	1.138900
	O375	O	0.384058	0.600570	0.498227
	H376	H	0.382385	0.593387	0.504783
	H377	H	0.386846	0.607426	0.495658
	O378	O	0.634585	0.557385	0.574086
	H379	H	0.644045	0.550315	0.564477
	H380	H	0.647033	0.559281	0.569074
	O381	O	0.544948	0.529594	0.620184
	H382	H	0.539802	0.513390	0.626471
	H383	H	0.524635	0.525022	0.618849
	O384	O	-0.015046	1.137098	-0.066496
	H385	H	-0.024152	1.145794	-0.056540
	H386	H	-0.025205	1.137327	-0.081972
	O387	O	1.086165	-0.047041	1.129588
	H388	H	1.088556	-0.058277	1.137446
	H389	H	1.074829	-0.055995	1.125353
	O390	O	0.157665	0.992716	-0.076788
	H391	H	0.166419	0.994848	-0.083729
	H392	H	0.139074	0.981630	-0.090736
	O393	O	0.891152	0.987439	-0.026294
	H394	H	0.892302	0.973984	-0.032932
	H395	H	0.890453	0.991539	-0.034509
	O396	O	0.545157	0.503846	0.531765
	H397	H	0.558570	0.506613	0.535071
	H398	H	0.547045	0.497225	0.547758
	O399	O	-0.049632	1.080812	0.984819
	H400	H	-0.046544	1.098115	0.988732
	H401	H	-0.046155	1.081313	0.975540
	O402	O	1.072335	0.880502	0.918920
	H403	H	1.070407	0.879124	0.909695
	H404	H	1.095850	0.882834	0.920681
	O405	O	0.543764	0.540832	0.381551
	H406	H	0.526148	0.554199	0.384121
	H407	H	0.551367	0.536915	0.394958
