data_Molecule from HDF5

_cell_length_a		16.210740
_cell_length_b		16.344818
_cell_length_c		16.302488
_cell_angle_alpha	89.935687
_cell_angle_beta	89.938677
_cell_angle_gamma	90.060463
_symmetry_space_group_name_H-M	'P 1'
_symmetry_Int_Tables_number		1

loop_
	_symmetry_equiv_pos_as_xyz
	x,y,z

loop_
	_atom_site_label
	_atom_site_type_symbol
	_atom_site_fract_x
	_atom_site_fract_y
	_atom_site_fract_z
	H0	H	0.401993	0.837080	0.715232
	H1	H	0.598893	0.163159	0.715452
	H2	H	0.598649	0.836514	0.285283
	H3	H	0.401367	0.162837	0.284597
	H4	H	0.713129	0.403532	0.835819
	H5	H	0.713823	0.596834	0.164102
	H6	H	0.287528	0.596474	0.835290
	H7	H	0.286462	0.402698	0.163506
	H8	H	0.835435	0.714737	0.401786
	H9	H	0.163768	0.714731	0.598265
	H10	H	0.835696	0.286198	0.598222
	H11	H	0.164168	0.286207	0.401835
	H12	H	0.836314	0.401281	0.714849
	H13	H	0.164730	0.597893	0.712335
	H14	H	0.834730	0.598085	0.286308
	H15	H	0.164476	0.402143	0.285437
	H16	H	0.402424	0.714592	0.836536
	H17	H	0.598794	0.714727	0.163362
	H18	H	0.597928	0.285689	0.836773
	H19	H	0.400414	0.284350	0.163394
	H20	H	0.712634	0.836106	0.404439
	H21	H	0.713465	0.163877	0.597840
	H22	H	0.288084	0.835426	0.596570
	H23	H	0.287641	0.163921	0.403657
	H24	H	0.901512	0.337005	0.215506
	H25	H	0.099562	0.663412	0.214075
	H26	H	0.098560	0.337127	0.784352
	H27	H	0.901064	0.663010	0.784773
	H28	H	0.212778	0.904700	0.336565
	H29	H	0.213466	0.096796	0.664901
	H30	H	0.787309	0.096823	0.336476
	H31	H	0.785538	0.902010	0.664647
	H32	H	0.336414	0.214897	0.899920
	H33	H	0.664301	0.213818	0.098662
	H34	H	0.335203	0.786492	0.097498
	H35	H	0.664859	0.786584	0.902055
	H36	H	0.335249	0.902420	0.213100
	H37	H	0.664593	0.097015	0.213379
	H38	H	0.335267	0.096590	0.787468
	H39	H	0.664873	0.902318	0.786008
	H40	H	0.901874	0.214397	0.337196
	H41	H	0.099494	0.215950	0.663517
	H42	H	0.098956	0.786193	0.337012
	H43	H	0.900410	0.784253	0.663356
	H44	H	0.213823	0.336406	0.902269
	H45	H	0.214096	0.663795	0.095739
	H46	H	0.786468	0.336566	0.097550
	H47	H	0.785323	0.663418	0.901987
	H48	H	0.403053	0.115874	0.588651
	H49	H	0.590531	0.880770	0.606661
	H50	H	0.594801	0.116025	0.406986
	H51	H	0.402538	0.885089	0.412001
	H52	H	0.590318	0.407692	0.114861
	H53	H	0.598335	0.598503	0.881036
	H54	H	0.410369	0.581171	0.111552
	H55	H	0.405479	0.415305	0.885975
	H56	H	0.116460	0.588577	0.402361
	H57	H	0.878402	0.602137	0.596290
	H58	H	0.118039	0.404458	0.590880
	H59	H	0.885127	0.409626	0.412669
	H60	H	0.116288	0.408777	0.590495
	H61	H	0.886315	0.592185	0.582679
	H62	H	0.118526	0.600301	0.404150
	H63	H	0.882734	0.410484	0.402768
	H64	H	0.415388	0.603456	0.116612
	H65	H	0.594686	0.586423	0.885529
	H66	H	0.592564	0.401598	0.117796
	H67	H	0.416460	0.402775	0.885262
	H68	H	0.593684	0.117057	0.403677
	H69	H	0.582427	0.889594	0.587035
	H70	H	0.403073	0.118660	0.599802
	H71	H	0.402194	0.880676	0.399181
	H72	H	0.906800	0.618704	0.100240
	H73	H	0.092865	0.387423	0.082374
	H74	H	0.099145	0.617151	0.907058
	H75	H	0.907838	0.382305	0.899002
	H76	H	0.090349	0.902510	0.617451
	H77	H	0.101703	0.098381	0.380355
	H78	H	0.898182	0.089162	0.618087
	H79	H	0.910649	0.917029	0.388403
	H80	H	0.617046	0.097911	0.913927
	H81	H	0.385131	0.085328	0.093075
	H82	H	0.617968	0.904266	0.092947
	H83	H	0.383417	0.908714	0.905714
	H84	H	0.617040	0.907083	0.092493
	H85	H	0.380339	0.096799	0.098488
	H86	H	0.614571	0.084741	0.907959
	H87	H	0.382009	0.903569	0.903668
	H88	H	0.913285	0.089811	0.613889
	H89	H	0.093797	0.085266	0.387361
	H90	H	0.096848	0.905077	0.619604
	H91	H	0.913279	0.897300	0.383648
	H92	H	0.091864	0.616606	0.900513
	H93	H	0.103343	0.380026	0.098653
	H94	H	0.912427	0.614229	0.091525
	H95	H	0.912167	0.386522	0.909433
	H96	H	0.412973	0.114905	0.594782
	H97	H	0.604231	0.882314	0.588304
	H98	H	0.591651	0.116036	0.405606
	H99	H	0.413572	0.885062	0.404307
	H100	H	0.597040	0.407341	0.117712
	H101	H	0.585754	0.596165	0.885507
	H102	H	0.393644	0.595351	0.120630
	H103	H	0.400551	0.400412	0.880163
	H104	H	0.114707	0.593349	0.413803
	H105	H	0.883209	0.584560	0.599531
	H106	H	0.117757	0.407540	0.594219
	H107	H	0.881655	0.401048	0.408144
	H108	H	0.901159	0.617202	0.090341
	H109	H	0.083335	0.384579	0.100172
	H110	H	0.089937	0.614123	0.909433
	H111	H	0.900373	0.382788	0.909213
	H112	H	0.092304	0.909100	0.615976
	H113	H	0.085699	0.099445	0.384860
	H114	H	0.906486	0.102212	0.619482
	H115	H	0.895739	0.905484	0.380162
	H116	H	0.619916	0.095696	0.899429
	H117	H	0.383647	0.096568	0.085500
	H118	H	0.618007	0.906630	0.095492
	H119	H	0.382375	0.904449	0.909574
	C120	C	0.378336	0.008194	0.622203
	C121	C	0.620911	0.992083	0.622024
	C122	C	0.621666	0.008115	0.377958
	C123	C	0.378040	0.991519	0.377639
	C124	C	0.621685	0.377853	0.008446
	C125	C	0.621519	0.621505	0.991983
	C126	C	0.378380	0.621613	0.007888
	C127	C	0.378612	0.377701	0.991972
	C128	C	0.007767	0.622522	0.378173
	C129	C	0.991561	0.621344	0.621067
	C130	C	0.008583	0.378575	0.620927
	C131	C	0.991638	0.378669	0.378676
	C132	C	0.878499	0.508625	0.121727
	C133	C	0.121819	0.491993	0.121421
	C134	C	0.122284	0.508317	0.877258
	C135	C	0.878406	0.491789	0.878047
	C136	C	0.121245	0.878401	0.509034
	C137	C	0.122003	0.122070	0.492417
	C138	C	0.878254	0.121607	0.508953
	C139	C	0.877695	0.878123	0.492148
	C140	C	0.508552	0.121105	0.878508
	C141	C	0.491697	0.121021	0.120665
	C142	C	0.508440	0.878441	0.121102
	C143	C	0.491922	0.878375	0.878608
	C144	C	0.381519	0.885514	0.677101
	C145	C	0.618952	0.114865	0.677045
	C146	C	0.618846	0.885169	0.323486
	C147	C	0.381194	0.114501	0.323030
	C148	C	0.675867	0.382073	0.884953
	C149	C	0.675995	0.617676	0.115325
	C150	C	0.324888	0.617532	0.884302
	C151	C	0.323943	0.381574	0.114817
	C152	C	0.884051	0.676762	0.381367
	C153	C	0.114856	0.676852	0.618645
	C154	C	0.884978	0.323762	0.618603
	C155	C	0.115349	0.324322	0.381405
	C156	C	0.885098	0.381097	0.676422
	C157	C	0.115353	0.618791	0.675273
	C158	C	0.884085	0.618969	0.323936
	C159	C	0.115415	0.382023	0.323775
	C160	C	0.381825	0.676339	0.884829
	C161	C	0.618796	0.676049	0.115117
	C162	C	0.618937	0.323264	0.885431
	C163	C	0.380314	0.322524	0.114497
	C164	C	0.675940	0.884964	0.382285
	C165	C	0.675769	0.115187	0.618694
	C166	C	0.324657	0.884677	0.618516
	C167	C	0.324231	0.114692	0.381834
	C168	C	0.880896	0.385663	0.177081
	C169	C	0.119606	0.614825	0.175906
	C170	C	0.119301	0.385715	0.822043
	C171	C	0.880811	0.614576	0.823017
	C172	C	0.175458	0.883090	0.385431
	C173	C	0.176041	0.118069	0.615873
	C174	C	0.824155	0.118437	0.385506
	C175	C	0.822985	0.881195	0.615523
	C176	C	0.385155	0.176238	0.880608
	C177	C	0.615518	0.175902	0.118453
	C178	C	0.384335	0.823870	0.118347
	C179	C	0.615646	0.823857	0.881174
	C180	C	0.384262	0.881503	0.175570
	C181	C	0.615454	0.117938	0.175443
	C182	C	0.384442	0.117550	0.824553
	C183	C	0.615881	0.881788	0.823970
	C184	C	0.880976	0.176790	0.385933
	C185	C	0.119269	0.177058	0.615291
	C186	C	0.118707	0.824496	0.385618
	C187	C	0.880045	0.822723	0.614974
	C188	C	0.176168	0.385230	0.880905
	C189	C	0.176725	0.614972	0.117439
	C190	C	0.824006	0.385314	0.118345
	C191	C	0.823321	0.614619	0.881304
	C192	C	0.399923	0.094328	0.600689
	C193	C	0.598943	0.906454	0.600398
	C194	C	0.599954	0.094105	0.399175
	C195	C	0.399708	0.905887	0.398896
	C196	C	0.599773	0.399193	0.094648
	C197	C	0.599375	0.600156	0.906105
	C198	C	0.400185	0.600025	0.094064
	C199	C	0.400885	0.399571	0.905783
	C200	C	0.094318	0.600639	0.400204
	C201	C	0.905046	0.599452	0.599321
	C202	C	0.095022	0.400438	0.598592
	C203	C	0.905186	0.400569	0.401063
	C204	C	0.900302	0.594349	0.100397
	C205	C	0.099685	0.406065	0.100018
	C206	C	0.100200	0.594020	0.899228
	C207	C	0.900316	0.406060	0.899640
	C208	C	0.099564	0.899448	0.595070
	C209	C	0.100282	0.100620	0.406360
	C210	C	0.899518	0.100173	0.595001
	C211	C	0.900010	0.900082	0.406347
	C212	C	0.594879	0.099156	0.900584
	C213	C	0.405357	0.099401	0.098688
	C214	C	0.595166	0.899647	0.099922
	C215	C	0.404972	0.899329	0.900190
	Zn216	Zn	0.500264	0.000011	0.750820
	Zn217	Zn	0.499896	-0.000475	0.248839
	Zn218	Zn	0.749759	0.500016	0.000078
	Zn219	Zn	0.250459	0.499558	-0.000295
	Zn220	Zn	-0.000326	0.749968	0.500046
	Zn221	Zn	-0.000198	0.250169	0.500197
	Zn222	Zn	0.000313	0.500488	0.748964
	Zn223	Zn	0.000314	0.500717	0.250305
	Zn224	Zn	0.499888	0.750427	0.000248
	Zn225	Zn	0.500106	0.249242	-0.000172
	Zn226	Zn	0.749728	0.000377	0.500701
	Zn227	Zn	0.250164	-0.000282	0.500976
	N228	N	0.414143	0.963266	0.679428
	N229	N	0.585636	0.037553	0.679202
	N230	N	0.585889	0.962668	0.320620
	N231	N	0.413733	0.036908	0.320042
	N232	N	0.677538	0.415286	0.962429
	N233	N	0.677481	0.584390	0.037895
	N234	N	0.322766	0.584358	0.961759
	N235	N	0.322995	0.415157	0.037473
	N236	N	0.962147	0.678994	0.414301
	N237	N	0.036869	0.678357	0.585452
	N238	N	0.962800	0.322268	0.584985
	N239	N	0.037370	0.322053	0.414734
	N240	N	0.962947	0.414636	0.677879
	N241	N	0.037772	0.584939	0.676793
	N242	N	0.961899	0.585768	0.322205
	N243	N	0.037530	0.415292	0.322353
	N244	N	0.414375	0.678945	0.962707
	N245	N	0.585639	0.678626	0.037527
	N246	N	0.585980	0.320791	0.963199
	N247	N	0.413716	0.320194	0.036946
	N248	N	0.677754	0.962418	0.415240
	N249	N	0.677163	0.037820	0.585243
	N250	N	0.322825	0.961808	0.584997
	N251	N	0.322190	0.037377	0.415135
	N252	N	0.914175	0.463044	0.179222
	N253	N	0.086140	0.537480	0.178323
	N254	N	0.086464	0.463219	0.819806
	N255	N	0.914299	0.537338	0.820784
	N256	N	0.177083	0.915942	0.462996
	N257	N	0.177792	0.084663	0.538495
	N258	N	0.822442	0.084826	0.462762
	N259	N	0.821433	0.915070	0.538255
	N260	N	0.463257	0.178458	0.913559
	N261	N	0.537582	0.177768	0.085154
	N262	N	0.462374	0.822173	0.085019
	N263	N	0.537693	0.821838	0.914475
	N264	N	0.462352	0.914664	0.177511
	N265	N	0.537619	0.084540	0.177109
	N266	N	0.462148	0.083798	0.823389
	N267	N	0.537889	0.914897	0.822364
	N268	N	0.914081	0.178709	0.463678
	N269	N	0.086220	0.179454	0.537591
	N270	N	0.086010	0.821295	0.463502
	N271	N	0.913377	0.820824	0.537451
	N272	N	0.178110	0.462431	0.914392
	N273	N	0.178209	0.537542	0.084347
	N274	N	0.822318	0.462588	0.084664
	N275	N	0.821739	0.537366	0.914667
