data_Molecule from HDF5

_cell_length_a		16.302330
_cell_length_b		16.246752
_cell_length_c		16.312836
_cell_angle_alpha	89.967111
_cell_angle_beta	90.000579
_cell_angle_gamma	89.943463
_symmetry_space_group_name_H-M	'P 1'
_symmetry_Int_Tables_number		1

loop_
	_symmetry_equiv_pos_as_xyz
	x,y,z

loop_
	_atom_site_label
	_atom_site_type_symbol
	_atom_site_fract_x
	_atom_site_fract_y
	_atom_site_fract_z
	H0	H	0.401177	0.836187	0.715608
	H1	H	0.596923	0.164705	0.713380
	H2	H	0.598322	0.836060	0.285595
	H3	H	0.402055	0.164010	0.286076
	H4	H	0.714605	0.401959	0.836718
	H5	H	0.715822	0.598907	0.163071
	H6	H	0.287541	0.597348	0.836639
	H7	H	0.285473	0.402639	0.163639
	H8	H	0.836083	0.714363	0.401649
	H9	H	0.164118	0.713033	0.596679
	H10	H	0.835884	0.286502	0.597521
	H11	H	0.163395	0.285569	0.402590
	H12	H	0.836821	0.400855	0.715224
	H13	H	0.163751	0.596788	0.712882
	H14	H	0.836671	0.598679	0.284745
	H15	H	0.163979	0.401773	0.285873
	H16	H	0.402949	0.713909	0.836813
	H17	H	0.598438	0.713939	0.163719
	H18	H	0.598425	0.286000	0.837634
	H19	H	0.403549	0.287044	0.164498
	H20	H	0.711256	0.834895	0.403762
	H21	H	0.713946	0.163608	0.598717
	H22	H	0.287477	0.835630	0.597448
	H23	H	0.286160	0.163347	0.402833
	H24	H	0.901636	0.336219	0.214721
	H25	H	0.098907	0.663912	0.214300
	H26	H	0.097339	0.336087	0.786241
	H27	H	0.901266	0.664028	0.785360
	H28	H	0.215042	0.901011	0.337335
	H29	H	0.214387	0.097977	0.663779
	H30	H	0.784954	0.098237	0.336413
	H31	H	0.784630	0.900509	0.663231
	H32	H	0.336562	0.214731	0.902421
	H33	H	0.663967	0.213231	0.097778
	H34	H	0.336420	0.787415	0.096920
	H35	H	0.664010	0.785973	0.902649
	H36	H	0.337406	0.902255	0.213944
	H37	H	0.663827	0.098423	0.214191
	H38	H	0.336044	0.099501	0.786208
	H39	H	0.663426	0.902052	0.784651
	H40	H	0.902281	0.213381	0.336056
	H41	H	0.097053	0.213049	0.663619
	H42	H	0.096683	0.787156	0.335509
	H43	H	0.902879	0.785627	0.663789
	H44	H	0.213560	0.336299	0.902274
	H45	H	0.211711	0.664873	0.095947
	H46	H	0.785368	0.336652	0.098656
	H47	H	0.785938	0.664105	0.901536
	H48	H	0.404952	0.120079	0.600844
	H49	H	0.598326	0.879043	0.602062
	H50	H	0.601012	0.120343	0.403419
	H51	H	0.412967	0.883780	0.402781
	H52	H	0.595600	0.407903	0.116732
	H53	H	0.595593	0.595242	0.882692
	H54	H	0.413591	0.595431	0.115307
	H55	H	0.408395	0.398383	0.881996
	H56	H	0.118851	0.599953	0.404151
	H57	H	0.884279	0.592143	0.592262
	H58	H	0.114048	0.411162	0.589685
	H59	H	0.885264	0.405479	0.411792
	H60	H	0.117776	0.407011	0.599249
	H61	H	0.883689	0.592597	0.593010
	H62	H	0.114293	0.592557	0.412852
	H63	H	0.884837	0.411821	0.405018
	H64	H	0.400571	0.600381	0.119942
	H65	H	0.594344	0.591504	0.884120
	H66	H	0.592818	0.407926	0.116474
	H67	H	0.398765	0.410916	0.882295
	H68	H	0.585416	0.116722	0.401041
	H69	H	0.581762	0.885824	0.594813
	H70	H	0.413710	0.114847	0.591832
	H71	H	0.406982	0.884089	0.412601
	H72	H	0.896953	0.618419	0.085696
	H73	H	0.085875	0.386194	0.088907
	H74	H	0.093496	0.617690	0.906155
	H75	H	0.912534	0.383881	0.903507
	H76	H	0.103190	0.903334	0.620185
	H77	H	0.100285	0.084936	0.383892
	H78	H	0.903369	0.081145	0.613049
	H79	H	0.894157	0.909157	0.381456
	H80	H	0.616343	0.090375	0.904031
	H81	H	0.385258	0.095592	0.085419
	H82	H	0.616998	0.900118	0.085980
	H83	H	0.381809	0.899969	0.908044
	H84	H	0.613780	0.916151	0.092224
	H85	H	0.385263	0.084792	0.096746
	H86	H	0.617468	0.096153	0.904738
	H87	H	0.387128	0.912256	0.914074
	H88	H	0.916374	0.097865	0.614193
	H89	H	0.084014	0.091344	0.387218
	H90	H	0.091583	0.915122	0.612798
	H91	H	0.911969	0.914652	0.387993
	H92	H	0.093985	0.617503	0.905231
	H93	H	0.100569	0.382617	0.088628
	H94	H	0.909069	0.619361	0.104858
	H95	H	0.906678	0.384574	0.911866
	H96	H	0.400742	0.116379	0.588139
	H97	H	0.597361	0.884776	0.583035
	H98	H	0.591694	0.114183	0.415512
	H99	H	0.401893	0.880765	0.403223
	H100	H	0.593758	0.405641	0.117310
	H101	H	0.591433	0.594632	0.883973
	H102	H	0.401949	0.586521	0.116896
	H103	H	0.413254	0.412078	0.887926
	H104	H	0.115801	0.587973	0.401164
	H105	H	0.883365	0.593307	0.592115
	H106	H	0.116369	0.400916	0.591411
	H107	H	0.881718	0.403256	0.403357
	H108	H	0.918621	0.611495	0.086117
	H109	H	0.093378	0.380746	0.101608
	H110	H	0.092977	0.617566	0.905061
	H111	H	0.902510	0.380761	0.903113
	H112	H	0.086413	0.898195	0.616461
	H113	H	0.096571	0.101426	0.380532
	H114	H	0.896598	0.099629	0.621346
	H115	H	0.908593	0.896046	0.381086
	H116	H	0.615251	0.093063	0.909319
	H117	H	0.380310	0.099864	0.099357
	H118	H	0.621037	0.903906	0.102923
	H119	H	0.383441	0.911858	0.900140
	C120	C	0.378438	0.008374	0.621771
	C121	C	0.620561	0.991816	0.621611
	C122	C	0.620909	0.008362	0.378589
	C123	C	0.379094	0.991384	0.378352
	C124	C	0.622072	0.378858	0.008878
	C125	C	0.621844	0.621637	0.991601
	C126	C	0.378105	0.621921	0.009086
	C127	C	0.378465	0.378873	0.992202
	C128	C	0.008306	0.621939	0.377779
	C129	C	0.991729	0.621112	0.620752
	C130	C	0.008098	0.377874	0.621752
	C131	C	0.992097	0.378727	0.378682
	C132	C	0.878973	0.508424	0.121453
	C133	C	0.121642	0.491493	0.121212
	C134	C	0.121811	0.508965	0.877753
	C135	C	0.878768	0.491782	0.878036
	C136	C	0.121650	0.877883	0.508256
	C137	C	0.121322	0.120689	0.492094
	C138	C	0.877515	0.121219	0.507807
	C139	C	0.877486	0.877931	0.491782
	C140	C	0.508391	0.121975	0.878086
	C141	C	0.492092	0.121480	0.121825
	C142	C	0.509020	0.878659	0.121771
	C143	C	0.492168	0.879164	0.878958
	C144	C	0.381021	0.885098	0.677094
	C145	C	0.617400	0.115722	0.675644
	C146	C	0.618533	0.884909	0.323720
	C147	C	0.381587	0.114911	0.323825
	C148	C	0.676684	0.381433	0.885770
	C149	C	0.677292	0.619189	0.114503
	C150	C	0.324104	0.618924	0.885665
	C151	C	0.323316	0.381806	0.114971
	C152	C	0.885062	0.676538	0.380930
	C153	C	0.115154	0.675192	0.617311
	C154	C	0.884881	0.323539	0.618566
	C155	C	0.114858	0.323173	0.381501
	C156	C	0.885252	0.380493	0.676822
	C157	C	0.115096	0.617975	0.675316
	C158	C	0.885278	0.619126	0.322825
	C159	C	0.115042	0.381106	0.323850
	C160	C	0.382015	0.676154	0.885547
	C161	C	0.618911	0.676079	0.115088
	C162	C	0.619029	0.323874	0.886001
	C163	C	0.381727	0.324415	0.115495
	C164	C	0.675030	0.884335	0.381973
	C165	C	0.675228	0.115124	0.618621
	C166	C	0.324419	0.884569	0.618628
	C167	C	0.324186	0.114705	0.381904
	C168	C	0.881012	0.385252	0.176833
	C169	C	0.119044	0.615167	0.175935
	C170	C	0.118465	0.385205	0.823564
	C171	C	0.880890	0.614963	0.823066
	C172	C	0.176879	0.880523	0.385525
	C173	C	0.176158	0.118322	0.615065
	C174	C	0.822605	0.118561	0.385174
	C175	C	0.822887	0.880314	0.614791
	C176	C	0.385219	0.176736	0.881790
	C177	C	0.615112	0.176014	0.118605
	C178	C	0.385592	0.824932	0.118009
	C179	C	0.615386	0.824426	0.882318
	C180	C	0.385915	0.881604	0.176270
	C181	C	0.615000	0.118881	0.176516
	C182	C	0.385132	0.119692	0.823820
	C183	C	0.614997	0.881455	0.823369
	C184	C	0.881271	0.175720	0.384951
	C185	C	0.117860	0.175344	0.615052
	C186	C	0.118040	0.824067	0.384867
	C187	C	0.881525	0.823150	0.614820
	C188	C	0.176113	0.385343	0.881189
	C189	C	0.175235	0.615660	0.117454
	C190	C	0.823641	0.385246	0.118928
	C191	C	0.823610	0.615112	0.880734
	C192	C	0.400033	0.094779	0.599957
	C193	C	0.598859	0.905461	0.599753
	C194	C	0.599173	0.094675	0.400210
	C195	C	0.400954	0.905049	0.399900
	C196	C	0.600477	0.400739	0.094798
	C197	C	0.600094	0.600133	0.905885
	C198	C	0.399185	0.600465	0.095153
	C199	C	0.400331	0.400738	0.906091
	C200	C	0.094274	0.599999	0.399547
	C201	C	0.905949	0.599227	0.599004
	C202	C	0.093926	0.399774	0.599912
	C203	C	0.906083	0.400603	0.400383
	C204	C	0.901385	0.594374	0.098829
	C205	C	0.099774	0.405447	0.099594
	C206	C	0.099863	0.595303	0.899207
	C207	C	0.900586	0.405339	0.899843
	C208	C	0.100068	0.899230	0.594268
	C209	C	0.099897	0.098970	0.406051
	C210	C	0.899094	0.099294	0.594178
	C211	C	0.898602	0.900096	0.405575
	C212	C	0.594120	0.099799	0.899595
	C213	C	0.405767	0.099786	0.100273
	C214	C	0.595131	0.900380	0.100114
	C215	C	0.406284	0.901471	0.900903
	Zn216	Zn	0.499731	0.000648	0.749666
	Zn217	Zn	0.500501	0.000071	0.249996
	Zn218	Zn	0.750583	0.500120	-0.000143
	Zn219	Zn	0.249660	0.500560	0.000065
	Zn220	Zn	-0.000095	0.749920	0.499760
	Zn221	Zn	-0.000408	0.249435	0.500068
	Zn222	Zn	-0.000131	0.500089	0.749712
	Zn223	Zn	0.000566	0.500001	0.249411
	Zn224	Zn	0.500300	0.749721	0.000521
	Zn225	Zn	0.500350	0.250189	0.000616
	Zn226	Zn	0.748721	-0.000499	0.500160
	Zn227	Zn	0.250378	-0.000440	0.500356
	N228	N	0.413840	0.962898	0.678985
	N229	N	0.584321	0.037943	0.677590
	N230	N	0.585689	0.962819	0.321642
	N231	N	0.414925	0.037265	0.321569
	N232	N	0.678704	0.414717	0.963131
	N233	N	0.679429	0.586166	0.036950
	N234	N	0.321621	0.585855	0.963271
	N235	N	0.321053	0.414626	0.037315
	N236	N	0.962418	0.678316	0.414207
	N237	N	0.037684	0.677187	0.584130
	N238	N	0.962201	0.321938	0.584840
	N239	N	0.037412	0.321462	0.414862
	N240	N	0.962809	0.413579	0.678806
	N241	N	0.037433	0.584956	0.677470
	N242	N	0.962907	0.585680	0.320890
	N243	N	0.037608	0.414432	0.321730
	N244	N	0.414681	0.678387	0.963162
	N245	N	0.585432	0.677910	0.037786
	N246	N	0.585819	0.322138	0.963527
	N247	N	0.415162	0.322485	0.038117
	N248	N	0.676480	0.961953	0.415610
	N249	N	0.677348	0.037143	0.585818
	N250	N	0.322459	0.962290	0.585210
	N251	N	0.322471	0.036926	0.414928
	N252	N	0.914667	0.462769	0.178294
	N253	N	0.086385	0.537150	0.178456
	N254	N	0.085234	0.462942	0.821612
	N255	N	0.914369	0.537286	0.821338
	N256	N	0.179080	0.913428	0.463111
	N257	N	0.178393	0.085109	0.537523
	N258	N	0.820467	0.085303	0.462805
	N259	N	0.820481	0.913767	0.537308
	N260	N	0.462862	0.178445	0.914901
	N261	N	0.537620	0.177663	0.085310
	N262	N	0.463118	0.822817	0.084945
	N263	N	0.538050	0.822873	0.916036
	N264	N	0.463608	0.914305	0.178566
	N265	N	0.537494	0.085622	0.178383
	N266	N	0.462580	0.086220	0.821510
	N267	N	0.537513	0.914909	0.821458
	N268	N	0.914559	0.177226	0.462300
	N269	N	0.084351	0.176719	0.537764
	N270	N	0.084570	0.822174	0.462228
	N271	N	0.914543	0.821652	0.537323
	N272	N	0.178652	0.463320	0.913876
	N273	N	0.176720	0.538040	0.084006
	N274	N	0.822438	0.462769	0.085064
	N275	N	0.822239	0.537482	0.914323
