data_Molecule from HDF5

_cell_length_a		16.499309
_cell_length_b		16.572619
_cell_length_c		16.552533
_cell_angle_alpha	89.893286
_cell_angle_beta	90.035151
_cell_angle_gamma	90.028663
_symmetry_space_group_name_H-M	'P 1'
_symmetry_Int_Tables_number		1

loop_
	_symmetry_equiv_pos_as_xyz
	x,y,z

loop_
	_atom_site_label
	_atom_site_type_symbol
	_atom_site_fract_x
	_atom_site_fract_y
	_atom_site_fract_z
	H0	H	0.374400	0.842518	0.723613
	H1	H	0.585482	0.155580	0.720844
	H2	H	0.586301	0.841924	0.277891
	H3	H	0.374282	0.153555	0.277014
	H4	H	0.701744	0.394859	0.842826
	H5	H	0.699599	0.600850	0.157251
	H6	H	0.259599	0.603069	0.842742
	H7	H	0.259483	0.393106	0.156916
	H8	H	0.823988	0.719250	0.396392
	H9	H	0.138879	0.721286	0.606553
	H10	H	0.824309	0.276907	0.606582
	H11	H	0.138294	0.277614	0.395317
	H12	H	0.824194	0.393540	0.722526
	H13	H	0.139419	0.604699	0.722238
	H14	H	0.824449	0.604776	0.278459
	H15	H	0.138601	0.394885	0.279642
	H16	H	0.373001	0.721543	0.843486
	H17	H	0.584843	0.719178	0.155921
	H18	H	0.583962	0.278844	0.842768
	H19	H	0.375788	0.276892	0.157104
	H20	H	0.702740	0.842103	0.395834
	H21	H	0.701689	0.155271	0.604715
	H22	H	0.259493	0.841337	0.606234
	H23	H	0.258722	0.154698	0.394260
	H24	H	0.877083	0.343001	0.221424
	H25	H	0.085604	0.656734	0.219862
	H26	H	0.088326	0.343697	0.777177
	H27	H	0.874870	0.655138	0.777154
	H28	H	0.202052	0.893823	0.344231
	H29	H	0.203074	0.103724	0.657645
	H30	H	0.761446	0.101541	0.343340
	H31	H	0.759917	0.893411	0.658256
	H32	H	0.323142	0.218799	0.895725
	H33	H	0.638012	0.218668	0.104919
	H34	H	0.324016	0.774712	0.106982
	H35	H	0.638690	0.778168	0.895068
	H36	H	0.325149	0.888731	0.224493
	H37	H	0.637258	0.100513	0.220655
	H38	H	0.322229	0.101669	0.781057
	H39	H	0.639359	0.895389	0.779770
	H40	H	0.878178	0.218802	0.343471
	H41	H	0.086728	0.219975	0.657937
	H42	H	0.085038	0.778193	0.344216
	H43	H	0.873553	0.774419	0.656612
	H44	H	0.204809	0.343369	0.894162
	H45	H	0.202665	0.656460	0.104142
	H46	H	0.760930	0.342167	0.104207
	H47	H	0.759147	0.655742	0.894973
	H48	H	0.390530	0.112486	0.593094
	H49	H	0.564291	0.888298	0.590125
	H50	H	0.567899	0.109545	0.409434
	H51	H	0.395408	0.888395	0.414282
	H52	H	0.567184	0.410319	0.110810
	H53	H	0.566098	0.588833	0.887580
	H54	H	0.391905	0.579068	0.109606
	H55	H	0.393616	0.404840	0.887342
	H56	H	0.093444	0.587715	0.411417
	H57	H	0.868005	0.591598	0.590977
	H58	H	0.092836	0.414061	0.590957
	H59	H	0.867990	0.405061	0.411847
	H60	H	0.094941	0.407206	0.591688
	H61	H	0.871443	0.586277	0.584247
	H62	H	0.093849	0.588457	0.411118
	H63	H	0.870968	0.411263	0.414731
	H64	H	0.400948	0.591005	0.110487
	H65	H	0.571737	0.590737	0.885999
	H66	H	0.570096	0.403524	0.113803
	H67	H	0.388118	0.411365	0.887381
	H68	H	0.571323	0.110562	0.412074
	H69	H	0.572986	0.887128	0.585965
	H70	H	0.395558	0.108838	0.588680
	H71	H	0.388552	0.886432	0.414721
	H72	H	0.893646	0.611820	0.091127
	H73	H	0.068756	0.388423	0.088412
	H74	H	0.068424	0.609461	0.912694
	H75	H	0.896737	0.388190	0.912015
	H76	H	0.069565	0.917077	0.611397
	H77	H	0.072582	0.085957	0.389007
	H78	H	0.891693	0.094268	0.614544
	H79	H	0.888754	0.907256	0.387170
	H80	H	0.595411	0.089038	0.907023
	H81	H	0.367291	0.088415	0.089422
	H82	H	0.594182	0.901256	0.086194
	H83	H	0.367811	0.903356	0.914149
	H84	H	0.588417	0.914937	0.082113
	H85	H	0.368751	0.087326	0.085113
	H86	H	0.593656	0.091802	0.912847
	H87	H	0.372449	0.914637	0.915598
	H88	H	0.885529	0.085207	0.613960
	H89	H	0.065815	0.087068	0.391229
	H90	H	0.062836	0.906883	0.611932
	H91	H	0.891052	0.913371	0.390560
	H92	H	0.071052	0.610325	0.912984
	H93	H	0.072194	0.386735	0.089309
	H94	H	0.891153	0.611076	0.086860
	H95	H	0.889752	0.388504	0.915612
	H96	H	0.388756	0.110602	0.585719
	H97	H	0.571758	0.884329	0.595030
	H98	H	0.570810	0.111195	0.407997
	H99	H	0.392231	0.884925	0.408788
	H100	H	0.574825	0.409866	0.113289
	H101	H	0.571247	0.584910	0.888644
	H102	H	0.386051	0.591903	0.115002
	H103	H	0.396467	0.412564	0.890626
	H104	H	0.093813	0.588141	0.411600
	H105	H	0.870352	0.582557	0.592063
	H106	H	0.091536	0.409780	0.585078
	H107	H	0.868339	0.411764	0.407729
	H108	H	0.888628	0.612527	0.090767
	H109	H	0.069295	0.387022	0.091853
	H110	H	0.069387	0.611139	0.910129
	H111	H	0.890338	0.385580	0.908352
	H112	H	0.074323	0.906918	0.615726
	H113	H	0.069060	0.092178	0.387648
	H114	H	0.896399	0.084847	0.610693
	H115	H	0.895449	0.907619	0.389833
	H116	H	0.592358	0.085807	0.911765
	H117	H	0.368727	0.084427	0.088392
	H118	H	0.594085	0.912477	0.095950
	H119	H	0.366722	0.911899	0.905222
	C120	C	0.359419	0.007213	0.621863
	C121	C	0.601861	0.990342	0.622003
	C122	C	0.602159	0.006475	0.378575
	C123	C	0.358904	0.989666	0.379092
	C124	C	0.602452	0.376688	0.008722
	C125	C	0.601547	0.619793	0.991164
	C126	C	0.359596	0.620421	0.008438
	C127	C	0.359981	0.377109	0.992061
	C128	C	-0.010259	0.620213	0.379411
	C129	C	0.973671	0.619768	0.621647
	C130	C	-0.010409	0.377619	0.622214
	C131	C	0.973096	0.377367	0.379131
	C132	C	0.859284	0.508157	0.121968
	C133	C	0.102529	0.491056	0.121311
	C134	C	0.102775	0.507104	0.879072
	C135	C	0.859795	0.490863	0.879174
	C136	C	0.101208	0.878225	0.509263
	C137	C	0.102281	0.120489	0.492809
	C138	C	0.859772	0.119858	0.509157
	C139	C	0.858814	0.876505	0.492461
	C140	C	0.489253	0.120150	0.878793
	C141	C	0.472105	0.118833	0.120522
	C142	C	0.488586	0.876694	0.120949
	C143	C	0.472750	0.877409	0.878792
	C144	C	0.356341	0.889382	0.682960
	C145	C	0.603998	0.108387	0.681406
	C146	C	0.604365	0.888758	0.318735
	C147	C	0.355856	0.106886	0.317634
	C148	C	0.661798	0.375723	0.890047
	C149	C	0.660190	0.620415	0.109864
	C150	C	0.299393	0.622024	0.889997
	C151	C	0.299728	0.374915	0.109960
	C152	C	0.871138	0.679856	0.377568
	C153	C	0.091883	0.680752	0.624584
	C154	C	0.871370	0.317236	0.624946
	C155	C	0.091176	0.317562	0.376913
	C156	C	0.871379	0.375127	0.682688
	C157	C	0.091823	0.622984	0.682514
	C158	C	0.871526	0.622836	0.319066
	C159	C	0.091186	0.375488	0.319065
	C160	C	0.355687	0.681120	0.890281
	C161	C	0.603297	0.679209	0.109285
	C162	C	0.603420	0.318209	0.889960
	C163	C	0.357456	0.316941	0.109988
	C164	C	0.662303	0.888848	0.376883
	C165	C	0.661868	0.108168	0.623664
	C166	C	0.299004	0.888988	0.624585
	C167	C	0.298467	0.107458	0.375944
	C168	C	0.858243	0.389900	0.181595
	C169	C	0.104319	0.609552	0.180217
	C170	C	0.106383	0.390219	0.817791
	C171	C	0.856818	0.608475	0.818182
	C172	C	0.161537	0.875946	0.391198
	C173	C	0.162741	0.122279	0.610644
	C174	C	0.801031	0.120899	0.390623
	C175	C	0.799304	0.874593	0.610744
	C176	C	0.370578	0.179465	0.877091
	C177	C	0.590717	0.178327	0.123129
	C178	C	0.371098	0.815326	0.124411
	C179	C	0.591586	0.818072	0.876607
	C180	C	0.371453	0.872432	0.182730
	C181	C	0.590571	0.119771	0.180422
	C182	C	0.370234	0.121240	0.819859
	C183	C	0.591566	0.876299	0.819221
	C184	C	0.858959	0.179040	0.390828
	C185	C	0.104813	0.180158	0.610860
	C186	C	0.103602	0.818307	0.391039
	C187	C	0.856065	0.815514	0.610139
	C188	C	0.164042	0.390035	0.876052
	C189	C	0.162466	0.609222	0.122528
	C190	C	0.800419	0.389541	0.123387
	C191	C	0.799294	0.608712	0.876416
	C192	C	0.384622	0.089213	0.596521
	C193	C	0.576831	0.907956	0.597438
	C194	C	0.577162	0.088964	0.403003
	C195	C	0.384650	0.907890	0.405064
	C196	C	0.577859	0.400942	0.091198
	C197	C	0.576684	0.595179	0.908753
	C198	C	0.385603	0.594810	0.090293
	C199	C	0.385465	0.402468	0.909782
	C200	C	0.072353	0.595307	0.404220
	C201	C	0.891451	0.594394	0.596191
	C202	C	0.071677	0.403097	0.596556
	C203	C	0.890616	0.402337	0.404269
	C204	C	0.883975	0.590319	0.096678
	C205	C	0.077367	0.408844	0.096770
	C206	C	0.076971	0.589090	0.904622
	C207	C	0.884956	0.408936	0.904740
	C208	C	0.076124	0.903080	0.591463
	C209	C	0.076640	0.095493	0.410748
	C210	C	0.884235	0.095088	0.591738
	C211	C	0.884415	0.902018	0.410484
	C212	C	0.572310	0.095835	0.903453
	C213	C	0.389768	0.093955	0.095077
	C214	C	0.570850	0.902319	0.095314
	C215	C	0.390454	0.902470	0.904205
	Zn216	Zn	0.480705	-0.000917	0.750585
	Zn217	Zn	0.480078	-0.002293	0.250015
	Zn218	Zn	0.730635	0.499037	-0.000243
	Zn219	Zn	0.231838	0.498967	0.000102
	Zn220	Zn	-0.018794	0.748751	0.500875
	Zn221	Zn	-0.018704	0.249105	0.501093
	Zn222	Zn	-0.018629	0.499061	0.750742
	Zn223	Zn	-0.018395	0.499739	0.250779
	Zn224	Zn	0.480459	0.748505	-0.000717
	Zn225	Zn	0.480715	0.248169	-0.000046
	Zn226	Zn	0.730280	-0.001580	0.500620
	Zn227	Zn	0.230535	-0.001418	0.500784
	N228	N	0.392965	0.963890	0.681730
	N229	N	0.567411	0.034000	0.680546
	N230	N	0.567826	0.963090	0.319706
	N231	N	0.392411	0.032430	0.319154
	N232	N	0.661724	0.411070	0.965085
	N233	N	0.659356	0.584269	0.035290
	N234	N	0.301440	0.585318	0.964385
	N235	N	0.301091	0.411650	0.035545
	N236	N	0.945666	0.678319	0.414465
	N237	N	0.017212	0.679249	0.587839
	N238	N	0.945999	0.318524	0.588301
	N239	N	0.016595	0.318633	0.413483
	N240	N	0.946082	0.411755	0.681343
	N241	N	0.017278	0.585836	0.680912
	N242	N	0.946294	0.586454	0.320097
	N243	N	0.016545	0.412187	0.320352
	N244	N	0.392354	0.680350	0.964962
	N245	N	0.567689	0.678978	0.034320
	N246	N	0.567585	0.318417	0.964790
	N247	N	0.394002	0.318160	0.035436
	N248	N	0.660890	0.963148	0.413456
	N249	N	0.660781	0.033620	0.587537
	N250	N	0.300744	0.963260	0.587347
	N251	N	0.300186	0.033488	0.413336
	N252	N	0.893942	0.464777	0.181117
	N253	N	0.067959	0.534994	0.179817
	N254	N	0.069103	0.464226	0.819729
	N255	N	0.893947	0.534247	0.819830
	N256	N	0.160018	0.912441	0.465596
	N257	N	0.161183	0.085926	0.536264
	N258	N	0.801310	0.084924	0.465300
	N259	N	0.800924	0.911757	0.536521
	N260	N	0.445722	0.178938	0.912879
	N261	N	0.515895	0.178069	0.086762
	N262	N	0.445114	0.817826	0.086585
	N263	N	0.516626	0.818487	0.912765
	N264	N	0.445533	0.910109	0.180536
	N265	N	0.515795	0.083567	0.179005
	N266	N	0.445160	0.085151	0.820810
	N267	N	0.516489	0.912304	0.820311
	N268	N	0.894521	0.178647	0.465801
	N269	N	0.068194	0.179414	0.536329
	N270	N	0.066779	0.819403	0.465457
	N271	N	0.892192	0.816386	0.535418
	N272	N	0.161905	0.463962	0.913325
	N273	N	0.161596	0.534570	0.086587
	N274	N	0.800763	0.464076	0.087144
	N275	N	0.800977	0.534542	0.913587
	O276	O	1.192827	1.024504	0.216168
	H277	H	1.229227	1.031715	0.249642
	H278	H	1.176932	1.061048	0.203157
	O279	O	0.016712	0.095931	1.130139
	H280	H	0.016908	0.101718	1.126188
	H281	H	0.020462	0.101524	1.136047
	O282	O	1.194167	1.011834	0.981669
	H283	H	1.191440	1.004943	0.980926
	H284	H	1.194034	1.024075	0.995361
	O285	O	0.513925	0.467895	0.343294
	H286	H	0.516341	0.468111	0.345615
	H287	H	0.508611	0.475376	0.338040
	O288	O	1.645428	-0.582505	1.553381
	H289	H	1.636436	-0.575775	1.545006
	H290	H	1.652826	-0.597248	1.539684
	O291	O	0.409869	0.658948	0.294003
	H292	H	0.397617	0.656097	0.288182
	H293	H	0.409733	0.667586	0.295317
	O294	O	-0.219435	-0.205298	0.095099
	H295	H	-0.183343	-0.209465	0.095291
	H296	H	-0.231711	-0.216004	0.089554
	O297	O	1.324400	0.283062	-0.278431
	H298	H	1.329503	0.272345	-0.301503
	H299	H	1.311085	0.280851	-0.261308
	O300	O	-0.036790	0.214330	0.110447
	H301	H	-0.048495	0.207328	0.106486
	H302	H	-0.055727	0.224276	0.107404
	O303	O	-0.155067	0.057305	0.060719
	H304	H	-0.156486	0.058163	0.054788
	H305	H	-0.165291	0.057199	0.059651
	O306	O	0.989303	0.142723	-0.043123
	H307	H	0.993274	0.133012	-0.047440
	H308	H	0.972987	0.148874	-0.036885
	O309	O	0.692824	0.715744	0.533355
	H310	H	0.708798	0.730304	0.526303
	H311	H	0.702088	0.703584	0.533101
	O312	O	0.444761	0.407962	0.546870
	H313	H	0.455046	0.397348	0.531814
	H314	H	0.433191	0.418686	0.544032
	O315	O	0.769731	0.972020	0.116853
	H316	H	0.759040	0.961383	0.129800
	H317	H	0.768101	0.954718	0.109745
	O318	O	1.112594	1.124617	-0.061713
	H319	H	1.104739	1.120391	-0.054662
	H320	H	1.118296	1.124281	-0.051261
	O321	O	-0.199917	1.181189	1.185428
	H322	H	-0.184425	1.175894	1.160338
	H323	H	-0.191931	1.162228	1.176884
	O324	O	0.961546	-0.057105	0.945100
	H325	H	0.957817	-0.064254	0.946638
	H326	H	0.955461	-0.064339	0.940986
	O327	O	1.674985	0.692193	0.696747
	H328	H	1.652515	0.691304	0.682037
	H329	H	1.683539	0.662414	0.682263
	O330	O	0.497494	0.331939	0.284420
	H331	H	0.488784	0.331602	0.289741
	H332	H	0.488621	0.330917	0.278075
	O333	O	0.303418	0.447103	0.404572
	H334	H	0.304901	0.457928	0.391533
	H335	H	0.309002	0.451636	0.417671
	O336	O	0.081316	0.871645	0.169104
	H337	H	0.076516	0.879080	0.162388
	H338	H	0.073761	0.883454	0.159082
	O339	O	0.643407	0.551914	0.471501
	H340	H	0.649194	0.550737	0.485961
	H341	H	0.637331	0.544157	0.458681
	O342	O	-0.049771	0.785615	0.177710
	H343	H	-0.040283	0.772088	0.186483
	H344	H	-0.046325	0.790921	0.173488
	O345	O	0.175950	0.192397	0.194430
	H346	H	0.180219	0.205316	0.202520
	H347	H	0.146199	0.205066	0.192745
	O348	O	0.599670	0.511477	0.612943
	H349	H	0.604514	0.510420	0.603979
	H350	H	0.602199	0.515416	0.631022
	O351	O	0.058696	-0.074218	1.060225
	H352	H	0.058299	-0.084290	1.073694
	H353	H	0.061085	-0.067879	1.058604
	O354	O	0.763869	0.218542	0.978565
	H355	H	0.743348	0.235665	0.956443
	H356	H	0.758450	0.218277	0.947796
	O357	O	0.673468	0.625222	0.373069
	H358	H	0.669450	0.616055	0.369175
	H359	H	0.680961	0.613850	0.375245
	O360	O	0.378911	0.441893	0.315512
	H361	H	0.383026	0.457700	0.303993
	H362	H	0.355674	0.448294	0.324705
	O363	O	0.361761	0.569464	0.591135
	H364	H	0.351693	0.556624	0.581487
	H365	H	0.378302	0.571851	0.600199
	O366	O	0.863944	-0.200236	0.885818
	H367	H	0.860665	-0.204250	0.914112
	H368	H	0.857289	-0.210059	0.880819
	O369	O	-0.046825	0.218793	0.782797
	H370	H	-0.050440	0.251912	0.748995
	H371	H	-0.049089	0.206745	0.799574
	O372	O	0.269867	0.709737	0.466060
	H373	H	0.277093	0.694619	0.493207
	H374	H	0.259109	0.731884	0.477290
	O375	O	1.327836	0.519769	0.297127
	H376	H	1.317816	0.536599	0.288062
	H377	H	1.320412	0.551557	0.290597
	O378	O	-0.042057	0.025198	0.782988
	H379	H	-0.043443	0.030088	0.782405
	H380	H	-0.034149	0.009504	0.782438
	O381	O	0.186842	0.947233	-0.210178
	H382	H	0.182415	0.943225	-0.206992
	H383	H	0.202771	0.938935	-0.215112
	O384	O	0.691096	0.294190	0.292421
	H385	H	0.642891	0.294735	0.285119
	H386	H	0.715476	0.275484	0.262220
	O387	O	0.322997	0.580917	1.535537
	H388	H	0.323206	0.574901	1.524003
	H389	H	0.329351	0.577526	1.551837
	O390	O	0.113967	1.100248	0.830213
	H391	H	0.103972	1.103716	0.838750
	H392	H	0.121297	1.100785	0.836063
	O393	O	1.008544	-0.217445	-0.215173
	H394	H	1.026848	-0.228235	-0.224394
	H395	H	1.004533	-0.227524	-0.212868
	O396	O	0.430367	0.350441	0.632677
	H397	H	0.435926	0.340025	0.645376
	H398	H	0.433787	0.354663	0.635650
	O399	O	0.716243	0.738465	0.245393
	H400	H	0.709651	0.731584	0.237241
	H401	H	0.718181	0.750896	0.247935
	O402	O	1.282505	-0.299979	1.297085
	H403	H	1.282695	-0.289810	1.288572
	H404	H	1.284517	-0.292300	1.342653
	O405	O	0.355549	0.293405	0.367842
	H406	H	0.360524	0.307553	0.386663
	H407	H	0.357709	0.301572	0.381948
	O408	O	0.880813	0.992367	1.202171
	H409	H	0.863170	0.988039	1.202422
	H410	H	0.881806	0.993226	1.193513
	O411	O	1.561499	1.527310	0.396402
	H412	H	1.562239	1.521175	0.394226
	H413	H	1.553026	1.527408	0.385484
	O414	O	-0.198937	0.036286	-0.167984
	H415	H	-0.221072	0.024454	-0.184625
	H416	H	-0.184786	0.010800	-0.163853
	O417	O	0.403652	0.367539	0.496173
	H418	H	0.396622	0.366167	0.521832
	H419	H	0.417357	0.361555	0.507157
	O420	O	1.168812	-0.188881	0.838101
	H421	H	1.172909	-0.188581	0.853770
	H422	H	1.158015	-0.186959	0.845413
	O423	O	0.783354	1.194480	-0.198766
	H424	H	0.769440	1.167516	-0.212282
	H425	H	0.803253	1.188269	-0.210808
	O426	O	-0.035645	0.807710	0.008257
	H427	H	-0.020438	0.809568	0.006137
	H428	H	-0.026865	0.812255	-0.002546
	O429	O	0.699707	0.278225	0.466966
	H430	H	0.697408	0.284516	0.426716
	H431	H	0.729639	0.254009	0.454963
	O432	O	0.844345	0.087506	1.025088
	H433	H	0.825879	0.076975	1.010005
	H434	H	0.859373	0.097556	1.002892
	O435	O	0.530698	0.721277	0.453596
	H436	H	0.523492	0.711262	0.455842
	H437	H	0.550874	0.726717	0.443780
	O438	O	0.393055	0.690510	0.588496
	H439	H	0.402374	0.688823	0.588875
	H440	H	0.399254	0.688014	0.592116
	O441	O	0.882932	0.905983	-0.008733
	H442	H	0.879164	0.914952	-0.007156
	H443	H	0.885741	0.894380	-0.010895
	O444	O	0.695546	0.473092	0.290930
	H445	H	0.693342	0.449105	0.297108
	H446	H	0.706472	0.466210	0.266885
	O447	O	0.458381	0.382353	0.705784
	H448	H	0.437965	0.386210	0.707208
	H449	H	0.453519	0.378837	0.711219
	O450	O	1.190950	-0.189515	-0.010934
	H451	H	1.205670	-0.199277	-0.003102
	H452	H	1.193138	-0.175953	-0.010761
	O453	O	0.624085	0.344936	0.689918
	H454	H	0.593276	0.336435	0.672353
	H455	H	0.620533	0.349373	0.689776
	O456	O	0.131478	0.930876	1.131827
	H457	H	0.122450	0.963840	1.136530
	H458	H	0.154067	0.936932	1.140992
	O459	O	0.677448	0.521305	0.699281
	H460	H	0.694732	0.515878	0.711947
	H461	H	0.678695	0.502023	0.679655
	O462	O	0.264544	0.282032	0.531922
	H463	H	0.248838	0.278859	0.532705
	H464	H	0.254181	0.278727	0.548466
	O465	O	0.280835	0.419571	0.698688
	H466	H	0.278709	0.424979	0.713768
	H467	H	0.294892	0.399385	0.702687
	O468	O	-0.119164	0.937940	-0.014858
	H469	H	-0.119474	0.935767	-0.011316
	H470	H	-0.104061	0.922946	-0.015406
	O471	O	0.440116	0.523883	0.672203
	H472	H	0.457127	0.520358	0.674794
	H473	H	0.441537	0.525199	0.667696
	O474	O	1.195300	1.213315	0.029391
	H475	H	1.213199	1.236857	0.027734
	H476	H	1.188157	1.210775	0.049421
	O477	O	0.506096	0.719738	0.712136
	H478	H	0.509687	0.734506	0.720121
	H479	H	0.518256	0.727146	0.718144
