data_Molecule from HDF5

_cell_length_a		16.570159
_cell_length_b		16.490221
_cell_length_c		16.542813
_cell_angle_alpha	89.967239
_cell_angle_beta	89.834548
_cell_angle_gamma	90.136294
_symmetry_space_group_name_H-M	'P 1'
_symmetry_Int_Tables_number		1

loop_
	_symmetry_equiv_pos_as_xyz
	x,y,z

loop_
	_atom_site_label
	_atom_site_type_symbol
	_atom_site_fract_x
	_atom_site_fract_y
	_atom_site_fract_z
	H0	H	0.384371	0.837126	0.722552
	H1	H	0.590106	0.155143	0.722305
	H2	H	0.591761	0.835800	0.284190
	H3	H	0.384225	0.152365	0.284818
	H4	H	0.708981	0.389622	0.847217
	H5	H	0.710863	0.602623	0.160955
	H6	H	0.268993	0.598947	0.846415
	H7	H	0.263265	0.387882	0.159614
	H8	H	0.828520	0.716117	0.397633
	H9	H	0.143625	0.714846	0.605570
	H10	H	0.828267	0.276628	0.605737
	H11	H	0.143851	0.275141	0.399766
	H12	H	0.829370	0.391061	0.723813
	H13	H	0.143202	0.597623	0.722448
	H14	H	0.829646	0.600791	0.280875
	H15	H	0.143026	0.390387	0.281428
	H16	H	0.387174	0.714237	0.845933
	H17	H	0.593741	0.717696	0.161742
	H18	H	0.592925	0.273116	0.847577
	H19	H	0.381239	0.272993	0.161173
	H20	H	0.708411	0.837316	0.399117
	H21	H	0.705862	0.154560	0.605267
	H22	H	0.266533	0.837576	0.608121
	H23	H	0.267075	0.151991	0.400350
	H24	H	0.880121	0.338881	0.226329
	H25	H	0.094879	0.651842	0.227366
	H26	H	0.094382	0.337866	0.781373
	H27	H	0.887138	0.652704	0.785686
	H28	H	0.211549	0.886559	0.348276
	H29	H	0.208784	0.101120	0.658983
	H30	H	0.765326	0.100748	0.346951
	H31	H	0.765269	0.890102	0.661058
	H32	H	0.329945	0.214523	0.902645
	H33	H	0.643838	0.217888	0.110119
	H34	H	0.330521	0.772646	0.110259
	H35	H	0.646912	0.780158	0.904246
	H36	H	0.330632	0.887880	0.227380
	H37	H	0.643593	0.101597	0.227170
	H38	H	0.329609	0.099278	0.784814
	H39	H	0.645558	0.894077	0.784690
	H40	H	0.882844	0.216375	0.346561
	H41	H	0.090999	0.216846	0.659115
	H42	H	0.093376	0.771885	0.347580
	H43	H	0.881929	0.773736	0.660638
	H44	H	0.210636	0.339034	0.896439
	H45	H	0.210988	0.652038	0.110151
	H46	H	0.764187	0.339016	0.110371
	H47	H	0.768953	0.652686	0.900693
	H48	H	0.395992	0.108879	0.593082
	H49	H	0.572708	0.881777	0.601835
	H50	H	0.573341	0.105169	0.417927
	H51	H	0.405302	0.884938	0.417271
	H52	H	0.572371	0.405238	0.115398
	H53	H	0.580043	0.588504	0.891320
	H54	H	0.396836	0.591918	0.119406
	H55	H	0.399930	0.406979	0.892418
	H56	H	0.097257	0.584849	0.416641
	H57	H	0.873175	0.580483	0.597743
	H58	H	0.100758	0.405886	0.597613
	H59	H	0.874345	0.408299	0.412944
	H60	H	0.099717	0.402011	0.589817
	H61	H	0.871837	0.589341	0.594227
	H62	H	0.096321	0.582199	0.415233
	H63	H	0.873677	0.404049	0.413724
	H64	H	0.392485	0.576126	0.116349
	H65	H	0.581580	0.584876	0.891618
	H66	H	0.580098	0.405654	0.117868
	H67	H	0.398668	0.406571	0.891915
	H68	H	0.579577	0.107078	0.416125
	H69	H	0.572187	0.886254	0.587603
	H70	H	0.395900	0.109573	0.595029
	H71	H	0.394711	0.882973	0.421795
	H72	H	0.897831	0.607491	0.089653
	H73	H	0.069296	0.385592	0.093188
	H74	H	0.081686	0.609952	0.911941
	H75	H	0.900509	0.380162	0.910588
	H76	H	0.078282	0.902829	0.617406
	H77	H	0.072507	0.081308	0.393222
	H78	H	0.894834	0.092793	0.619036
	H79	H	0.895417	0.906882	0.390943
	H80	H	0.598007	0.082172	0.915172
	H81	H	0.375058	0.082432	0.096759
	H82	H	0.599463	0.904306	0.092754
	H83	H	0.375924	0.908192	0.913910
	H84	H	0.598436	0.909322	0.093026
	H85	H	0.375385	0.086628	0.091800
	H86	H	0.600467	0.085041	0.910065
	H87	H	0.373000	0.903119	0.909293
	H88	H	0.890377	0.080452	0.616443
	H89	H	0.075742	0.087000	0.389918
	H90	H	0.077077	0.911630	0.614143
	H91	H	0.899412	0.909380	0.393234
	H92	H	0.072667	0.607296	0.910772
	H93	H	0.075321	0.386174	0.085168
	H94	H	0.899686	0.608242	0.093554
	H95	H	0.896535	0.382558	0.918877
	H96	H	0.397575	0.109066	0.594440
	H97	H	0.585177	0.880765	0.592951
	H98	H	0.574401	0.107425	0.411810
	H99	H	0.397212	0.879894	0.411186
	H100	H	0.575825	0.412635	0.114943
	H101	H	0.578226	0.585963	0.893032
	H102	H	0.408163	0.581935	0.112882
	H103	H	0.398514	0.407292	0.893037
	H104	H	0.097616	0.584305	0.413438
	H105	H	0.876040	0.582330	0.588810
	H106	H	0.096815	0.410303	0.591492
	H107	H	0.875514	0.406842	0.416846
	H108	H	0.902028	0.606824	0.090090
	H109	H	0.078350	0.381990	0.093549
	H110	H	0.077187	0.604723	0.918653
	H111	H	0.890846	0.378924	0.911401
	H112	H	0.070203	0.905261	0.613613
	H113	H	0.079301	0.080596	0.391140
	H114	H	0.902869	0.083645	0.613098
	H115	H	0.899941	0.904547	0.391114
	H116	H	0.600277	0.087525	0.915696
	H117	H	0.378217	0.080712	0.091602
	H118	H	0.599811	0.906816	0.096817
	H119	H	0.374836	0.901486	0.915961
	C120	C	0.365091	0.004405	0.625647
	C121	C	0.608186	0.987811	0.624942
	C122	C	0.608179	0.002584	0.383041
	C123	C	0.366304	0.986293	0.383929
	C124	C	0.608411	0.374868	0.012341
	C125	C	0.610881	0.618030	0.996203
	C126	C	0.367682	0.615915	0.012343
	C127	C	0.366062	0.374020	0.995814
	C128	C	-0.005886	0.616918	0.381659
	C129	C	0.977742	0.615728	0.624546
	C130	C	-0.004710	0.373587	0.625056
	C131	C	0.978284	0.374306	0.382286
	C132	C	0.866341	0.504128	0.124466
	C133	C	0.108121	0.487692	0.124028
	C134	C	0.109269	0.503485	0.881512
	C135	C	0.865977	0.485562	0.882742
	C136	C	0.108366	0.873063	0.512154
	C137	C	0.107524	0.115490	0.495002
	C138	C	0.864587	0.117243	0.512216
	C139	C	0.865745	0.874391	0.495368
	C140	C	0.495664	0.116912	0.882733
	C141	C	0.479392	0.116487	0.126104
	C142	C	0.495728	0.873574	0.126422
	C143	C	0.479326	0.874492	0.882803
	C144	C	0.364626	0.885080	0.683900
	C145	C	0.609067	0.107229	0.683127
	C146	C	0.610057	0.883673	0.323808
	C147	C	0.364677	0.104707	0.323982
	C148	C	0.669016	0.371856	0.894335
	C149	C	0.670500	0.620373	0.114186
	C150	C	0.308992	0.617519	0.893653
	C151	C	0.304359	0.370508	0.113363
	C152	C	0.876325	0.677022	0.378935
	C153	C	0.096338	0.675002	0.624800
	C154	C	0.876164	0.315384	0.625280
	C155	C	0.096455	0.314713	0.380379
	C156	C	0.876501	0.372314	0.684011
	C157	C	0.096284	0.616976	0.682913
	C158	C	0.876848	0.619526	0.320648
	C159	C	0.096315	0.372274	0.322050
	C160	C	0.367305	0.675223	0.893658
	C161	C	0.612371	0.677838	0.114448
	C162	C	0.611245	0.313934	0.894466
	C163	C	0.363255	0.313582	0.113918
	C164	C	0.668024	0.884084	0.381171
	C165	C	0.666859	0.107030	0.625048
	C166	C	0.306309	0.885059	0.626795
	C167	C	0.306694	0.104609	0.381714
	C168	C	0.862378	0.386148	0.185834
	C169	C	0.112182	0.605177	0.185878
	C170	C	0.111932	0.385322	0.821422
	C171	C	0.866610	0.605104	0.824368
	C172	C	0.170570	0.869182	0.394902
	C173	C	0.168062	0.118983	0.612512
	C174	C	0.805459	0.118905	0.393812
	C175	C	0.805612	0.871850	0.613912
	C176	C	0.377025	0.175309	0.883022
	C177	C	0.596905	0.177445	0.128496
	C178	C	0.377747	0.812700	0.128656
	C179	C	0.599007	0.818240	0.883929
	C180	C	0.377742	0.869919	0.187109
	C181	C	0.596650	0.119539	0.186699
	C182	C	0.376966	0.118136	0.824424
	C183	C	0.598383	0.875066	0.824613
	C184	C	0.863556	0.176650	0.393745
	C185	C	0.109718	0.176482	0.612560
	C186	C	0.111525	0.812299	0.394478
	C187	C	0.863405	0.813948	0.613746
	C188	C	0.169984	0.385827	0.878624
	C189	C	0.170272	0.605257	0.127912
	C190	C	0.804615	0.386038	0.128333
	C191	C	0.808223	0.605041	0.881667
	C192	C	0.389303	0.087537	0.601160
	C193	C	0.583699	0.904625	0.601021
	C194	C	0.583068	0.084884	0.408148
	C195	C	0.391684	0.903957	0.409375
	C196	C	0.583209	0.400385	0.094467
	C197	C	0.586830	0.593538	0.913625
	C198	C	0.392197	0.590632	0.094728
	C199	C	0.391659	0.399543	0.913811
	C200	C	0.075739	0.591299	0.407648
	C201	C	0.895058	0.591014	0.600627
	C202	C	0.077674	0.398774	0.600298
	C203	C	0.895885	0.399213	0.407369
	C204	C	0.892442	0.586245	0.098500
	C205	C	0.081839	0.405893	0.098145
	C206	C	0.084193	0.585974	0.906771
	C207	C	0.889336	0.402336	0.906708
	C208	C	0.082611	0.899077	0.593760
	C209	C	0.082699	0.090019	0.412877
	C210	C	0.889093	0.092492	0.594681
	C211	C	0.890945	0.899647	0.413246
	C212	C	0.578212	0.092077	0.906656
	C213	C	0.397552	0.090592	0.100694
	C214	C	0.577671	0.899277	0.101393
	C215	C	0.396207	0.897583	0.906278
	Zn216	Zn	0.486887	-0.003855	0.753098
	Zn217	Zn	0.487330	-0.005598	0.254974
	Zn218	Zn	0.737866	0.495030	0.004585
	Zn219	Zn	0.237361	0.495378	0.003443
	Zn220	Zn	-0.013991	0.744940	0.503465
	Zn221	Zn	-0.013200	0.245129	0.503136
	Zn222	Zn	-0.012973	0.494004	0.754107
	Zn223	Zn	-0.013646	0.495404	0.253146
	Zn224	Zn	0.488463	0.745552	0.004889
	Zn225	Zn	0.487773	0.245824	0.004706
	Zn226	Zn	0.736823	-0.004742	0.503762
	Zn227	Zn	0.236925	-0.005489	0.504405
	N228	N	0.400082	0.960417	0.683635
	N229	N	0.573487	0.031886	0.683230
	N230	N	0.573658	0.958427	0.324647
	N231	N	0.401081	0.029975	0.325295
	N232	N	0.667399	0.409007	0.968678
	N233	N	0.669651	0.583624	0.039658
	N234	N	0.308805	0.581790	0.968590
	N235	N	0.306233	0.407736	0.039096
	N236	N	0.950424	0.675703	0.416086
	N237	N	0.021454	0.674424	0.589483
	N238	N	0.951179	0.315834	0.589605
	N239	N	0.021967	0.315734	0.417013
	N240	N	0.951678	0.407548	0.684233
	N241	N	0.021407	0.581090	0.683130
	N242	N	0.951296	0.583054	0.322084
	N243	N	0.021772	0.408543	0.323138
	N244	N	0.402900	0.674495	0.968622
	N245	N	0.576005	0.676544	0.040048
	N246	N	0.574414	0.315567	0.968957
	N247	N	0.400672	0.315532	0.039739
	N248	N	0.667206	0.959178	0.417062
	N249	N	0.666439	0.031688	0.589690
	N250	N	0.306109	0.960606	0.591619
	N251	N	0.307516	0.029714	0.418022
	N252	N	0.899930	0.460469	0.183492
	N253	N	0.074278	0.531054	0.183787
	N254	N	0.074527	0.459489	0.823319
	N255	N	0.901624	0.529615	0.824829
	N256	N	0.168583	0.906392	0.469195
	N257	N	0.166863	0.081590	0.538428
	N258	N	0.806123	0.082752	0.468549
	N259	N	0.806622	0.908424	0.539245
	N260	N	0.451906	0.174688	0.918576
	N261	N	0.522780	0.175870	0.091690
	N262	N	0.451989	0.814931	0.091566
	N263	N	0.523917	0.817675	0.919207
	N264	N	0.452090	0.907004	0.185941
	N265	N	0.522515	0.082345	0.185303
	N266	N	0.451864	0.082725	0.823956
	N267	N	0.522874	0.909078	0.823525
	N268	N	0.899709	0.175623	0.468290
	N269	N	0.072845	0.174398	0.538541
	N270	N	0.073430	0.814661	0.468147
	N271	N	0.900075	0.815411	0.539144
	N272	N	0.168658	0.460508	0.915300
	N273	N	0.167792	0.531113	0.090384
	N274	N	0.806807	0.460461	0.090959
	N275	N	0.807294	0.529611	0.916883
	O276	O	0.926535	0.782611	-0.015828
	H277	H	0.933853	0.790237	-0.009844
	H278	H	0.943915	0.785157	-0.009061
	O279	O	0.203587	0.027992	1.224382
	H280	H	0.211227	0.015112	1.229404
	H281	H	0.207779	0.029220	1.233934
	O282	O	0.824130	1.146909	1.094889
	H283	H	0.845585	1.138639	1.089585
	H284	H	0.828371	1.134797	1.101082
	O285	O	0.601864	0.457333	0.294925
	H286	H	0.595284	0.474151	0.295160
	H287	H	0.604786	0.473601	0.301692
	O288	O	1.280369	-0.307151	1.474689
	H289	H	1.287832	-0.303636	1.485856
	H290	H	1.280089	-0.303811	1.490405
	O291	O	0.455668	0.499297	0.456597
	H292	H	0.451376	0.508902	0.454210
	H293	H	0.443358	0.491175	0.445283
	O294	O	-0.185743	-0.022071	-0.062938
	H295	H	-0.169039	-0.009069	-0.044775
	H296	H	-0.201824	-0.024854	-0.057049
	O297	O	1.279758	0.288283	-0.288866
	H298	H	1.270472	0.285217	-0.308897
	H299	H	1.272706	0.281752	-0.295163
	O300	O	-0.224151	0.206205	-0.026957
	H301	H	-0.240299	0.217954	-0.012278
	H302	H	-0.212039	0.203542	-0.001404
	O303	O	-0.234240	-0.033994	0.224871
	H304	H	-0.238758	-0.071989	0.230570
	H305	H	-0.247463	-0.046719	0.247321
	O306	O	1.129140	-0.008796	0.097403
	H307	H	1.120428	0.002983	0.088982
	H308	H	1.132329	-0.002038	0.092043
	O309	O	0.694254	0.706132	0.543828
	H310	H	0.709427	0.717917	0.573380
	H311	H	0.703315	0.707590	0.565572
	O312	O	0.698779	0.703332	0.707424
	H313	H	0.705658	0.650770	0.713642
	H314	H	0.733488	0.729112	0.740515
	O315	O	1.013859	1.213718	0.217572
	H316	H	1.049983	1.217360	0.225762
	H317	H	1.012457	1.221028	0.234465
	O318	O	1.113025	1.161162	0.011153
	H319	H	1.117961	1.155938	0.003306
	H320	H	1.104273	1.169623	0.010002
	O321	O	0.087544	1.167533	0.915877
	H322	H	0.090541	1.170560	0.908713
	H323	H	0.080196	1.166290	0.918724
	O324	O	0.921392	-0.163753	0.995280
	H325	H	0.940320	-0.166451	0.989515
	H326	H	0.930882	-0.164376	0.996140
	O327	O	1.449602	0.692797	0.558011
	H328	H	1.465834	0.680065	0.551668
	H329	H	1.481009	0.702667	0.578872
	O330	O	0.292591	0.338011	0.353111
	H331	H	0.299215	0.356076	0.371567
	H332	H	0.311347	0.346042	0.356394
	O333	O	0.273416	0.515725	0.383147
	H334	H	0.268622	0.530327	0.388151
	H335	H	0.269017	0.527782	0.369754
	O336	O	0.026348	0.780919	-0.211114
	H337	H	0.025710	0.777156	-0.219722
	H338	H	0.026144	0.784574	-0.217180
	O339	O	0.652428	0.420949	0.471549
	H340	H	0.668840	0.407584	0.472132
	H341	H	0.657381	0.431856	0.461712
	O342	O	-0.151627	1.180846	0.150946
	H343	H	-0.133871	1.175502	0.166207
	H344	H	-0.127157	1.170662	0.132059
	O345	O	0.174221	0.177282	-0.185742
	H346	H	0.171406	0.160124	-0.163514
	H347	H	0.167502	0.173196	-0.189056
	O348	O	0.655092	0.554864	0.433155
	H349	H	0.648215	0.545449	0.433558
	H350	H	0.657191	0.558947	0.449242
	O351	O	-0.101892	0.040899	1.179243
	H352	H	-0.108781	0.039448	1.177983
	H353	H	-0.119238	0.031787	1.173495
	O354	O	0.655735	0.285727	1.297822
	H355	H	0.658604	0.311540	1.294451
	H356	H	0.672049	0.270095	1.283542
	O357	O	0.458726	0.707714	0.289010
	H358	H	0.464838	0.713949	0.298858
	H359	H	0.467075	0.726500	0.270068
	O360	O	0.461426	0.289908	0.477087
	H361	H	0.476186	0.288276	0.469598
	H362	H	0.474889	0.282779	0.482497
	O363	O	1.005051	0.974783	0.968708
	H364	H	0.990747	0.986627	0.958839
	H365	H	1.018309	0.965921	0.966151
	O366	O	0.973709	0.047447	0.843374
	H367	H	0.971004	0.066362	0.852886
	H368	H	0.980289	0.044236	0.846817
	O369	O	-0.041973	0.214827	0.781529
	H370	H	-0.060581	0.222051	0.772744
	H371	H	-0.049630	0.224200	0.767259
	O372	O	0.686049	0.360078	0.457730
	H373	H	0.678741	0.359988	0.452243
	H374	H	0.687189	0.354577	0.467985
	O375	O	1.197003	0.207638	0.177405
	H376	H	1.226719	0.237576	0.204047
	H377	H	1.205306	0.174820	0.181500
	O378	O	-0.215597	0.016144	0.781923
	H379	H	-0.209395	0.022472	0.776769
	H380	H	-0.234671	0.008465	0.776620
	O381	O	0.195839	0.786385	-0.204484
	H382	H	0.164842	0.780306	-0.189749
	H383	H	0.226046	0.752339	-0.237753
	O384	O	0.582253	0.348937	0.288470
	H385	H	0.600394	0.335777	0.273688
	H386	H	0.606071	0.338047	0.278381
	O387	O	0.496169	0.504811	1.709458
	H388	H	0.480493	0.516320	1.712391
	H389	H	0.494077	0.501788	1.715266
	O390	O	0.207209	0.969198	0.783878
	H391	H	0.232003	0.956160	0.763094
	H392	H	0.200597	0.931193	0.781452
	O393	O	0.809001	-0.192506	-0.183835
	H394	H	0.834367	-0.185557	-0.163344
	H395	H	0.827568	-0.169436	-0.171385
	O396	O	0.319126	0.437782	0.557106
	H397	H	0.319876	0.427472	0.544602
	H398	H	0.319474	0.428502	0.557095
	O399	O	0.772386	0.826626	0.016401
	H400	H	0.778475	0.829818	0.012108
	H401	H	0.768240	0.812763	0.018775
	O402	O	1.293457	-0.313972	1.310675
	H403	H	1.313894	-0.292952	1.293854
	H404	H	1.292360	-0.307382	1.358317
	O405	O	0.191691	-0.212381	0.058255
	H406	H	0.202057	-0.202100	0.043196
	H407	H	0.185174	-0.210499	0.060830
	O408	O	1.162315	1.026599	1.095107
	H409	H	1.162067	1.027135	1.091404
	H410	H	1.154535	1.030126	1.078056
	O411	O	1.294313	1.484200	0.351044
	H412	H	1.289729	1.495093	0.337341
	H413	H	1.294714	1.509606	0.345675
	O414	O	0.200260	-0.086466	-0.042925
	H415	H	0.199517	-0.077747	-0.066893
	H416	H	0.205732	-0.110425	-0.048089
	O417	O	0.515513	0.311200	0.527692
	H418	H	0.537465	0.314242	0.535987
	H419	H	0.507296	0.319059	0.539134
	O420	O	0.975310	-0.170036	1.219161
	H421	H	0.994553	-0.149304	1.211937
	H422	H	0.976121	-0.194451	1.244175
	O423	O	0.484969	1.535784	-0.480334
	H424	H	0.492741	1.535869	-0.498733
	H425	H	0.491203	1.529126	-0.477193
	O426	O	-0.204939	1.191178	-0.190765
	H427	H	-0.192913	1.157074	-0.200479
	H428	H	-0.214841	1.198761	-0.136531
	O429	O	0.644891	0.343735	0.671723
	H430	H	0.629711	0.345369	0.671152
	H431	H	0.646604	0.338541	0.674480
	O432	O	0.965519	0.179404	0.970710
	H433	H	0.972895	0.171001	0.975308
	H434	H	0.969091	0.187084	0.956607
	O435	O	0.380013	0.505505	0.535136
	H436	H	0.383097	0.498005	0.538160
	H437	H	0.388197	0.506314	0.516816
	O438	O	0.292890	0.681698	0.692264
	H439	H	0.310931	0.670039	0.665467
	H440	H	0.309180	0.652497	0.681380
	O441	O	1.091379	0.919595	0.089233
	H442	H	1.087872	0.940274	0.101028
	H443	H	1.093904	0.943239	0.083967
	O444	O	0.400384	0.440554	0.708523
	H445	H	0.390992	0.409495	0.728489
	H446	H	0.406456	0.441030	0.700657
	O447	O	0.360218	0.320976	0.563203
	H448	H	0.369574	0.312430	0.568813
	H449	H	0.351472	0.320493	0.560051
	O450	O	0.805918	-0.190421	0.193951
	H451	H	0.825235	-0.200788	0.173114
	H452	H	0.818664	-0.204668	0.191919
	O453	O	0.588059	0.515242	0.479979
	H454	H	0.588398	0.519230	0.476601
	H455	H	0.577015	0.504669	0.470386
	O456	O	-0.029470	0.918266	1.018548
	H457	H	-0.021621	0.928042	1.018598
	H458	H	-0.006140	0.915542	1.015623
	O459	O	0.566227	0.641742	0.441168
	H460	H	0.573724	0.637668	0.434006
	H461	H	0.570859	0.642775	0.455495
	O462	O	0.418711	0.306495	0.676209
	H463	H	0.419191	0.279228	0.699010
	H464	H	0.387150	0.315971	0.658695
	O465	O	0.489566	0.495303	0.350161
	H466	H	0.480111	0.489545	0.360149
	H467	H	0.486931	0.512107	0.342296
	O468	O	0.051273	0.885813	0.182857
	H469	H	0.050841	0.905948	0.189248
	H470	H	0.058960	0.902927	0.177874
	O471	O	0.699892	0.534795	0.714344
	H472	H	0.710020	0.519071	0.733792
	H473	H	0.686468	0.505567	0.712757
	O474	O	0.980059	0.943114	-0.168765
	H475	H	0.986762	0.942276	-0.163931
	H476	H	0.996474	0.964239	-0.163230
	O477	O	0.530931	0.716594	0.720779
	H478	H	0.559268	0.715038	0.727749
	H479	H	0.553561	0.738660	0.741985
