data_Molecule from HDF5

_cell_length_a		16.204514
_cell_length_b		16.146856
_cell_length_c		16.305159
_cell_angle_alpha	90.404621
_cell_angle_beta	89.180630
_cell_angle_gamma	89.815900
_symmetry_space_group_name_H-M	'P 1'
_symmetry_Int_Tables_number		1

loop_
	_symmetry_equiv_pos_as_xyz
	x,y,z

loop_
	_atom_site_label
	_atom_site_type_symbol
	_atom_site_fract_x
	_atom_site_fract_y
	_atom_site_fract_z
	H0	H	0.405399	0.840485	0.711907
	H1	H	0.601947	0.170199	0.712071
	H2	H	0.608061	0.840832	0.278435
	H3	H	0.407381	0.170042	0.287948
	H4	H	0.721900	0.404146	0.832875
	H5	H	0.715509	0.605651	0.160010
	H6	H	0.292956	0.604628	0.830272
	H7	H	0.284422	0.408174	0.157138
	H8	H	0.840612	0.718180	0.400254
	H9	H	0.170443	0.715125	0.589416
	H10	H	0.839935	0.292154	0.593383
	H11	H	0.169821	0.290300	0.393048
	H12	H	0.840489	0.404855	0.713253
	H13	H	0.168578	0.604467	0.708752
	H14	H	0.838908	0.601864	0.285282
	H15	H	0.166326	0.400103	0.273958
	H16	H	0.407680	0.720974	0.832241
	H17	H	0.599558	0.720541	0.159587
	H18	H	0.606099	0.287810	0.832623
	H19	H	0.402116	0.294480	0.160237
	H20	H	0.719850	0.838502	0.396824
	H21	H	0.717812	0.170462	0.595061
	H22	H	0.290642	0.839622	0.597125
	H23	H	0.293069	0.169643	0.403514
	H24	H	0.902445	0.338755	0.209041
	H25	H	0.099927	0.669045	0.210533
	H26	H	0.106426	0.340864	0.778234
	H27	H	0.904167	0.668949	0.782577
	H28	H	0.225824	0.901914	0.334789
	H29	H	0.215055	0.103063	0.661184
	H30	H	0.793336	0.101940	0.332526
	H31	H	0.788669	0.906469	0.659997
	H32	H	0.338655	0.216337	0.903883
	H33	H	0.668880	0.220896	0.093755
	H34	H	0.338951	0.795093	0.096261
	H35	H	0.669537	0.792204	0.896443
	H36	H	0.341209	0.907893	0.214964
	H37	H	0.670164	0.105251	0.209602
	H38	H	0.340370	0.105668	0.785424
	H39	H	0.667316	0.903039	0.777082
	H40	H	0.909329	0.216055	0.331310
	H41	H	0.102009	0.221259	0.658496
	H42	H	0.106232	0.789580	0.331791
	H43	H	0.906325	0.792255	0.660687
	H44	H	0.221523	0.341636	0.892038
	H45	H	0.214346	0.671248	0.091886
	H46	H	0.787514	0.339551	0.094339
	H47	H	0.792505	0.670784	0.901261
	H48	H	0.401885	0.124396	0.591352
	H49	H	0.591178	0.892085	0.580851
	H50	H	0.597895	0.122244	0.401644
	H51	H	0.423473	0.886793	0.399176
	H52	H	0.596854	0.414401	0.112456
	H53	H	0.599880	0.596109	0.879056
	H54	H	0.412197	0.609476	0.113671
	H55	H	0.414813	0.413650	0.879795
	H56	H	0.121232	0.591262	0.398213
	H57	H	0.888635	0.596212	0.586845
	H58	H	0.119305	0.420643	0.588044
	H59	H	0.887394	0.415017	0.400749
	H60	H	0.125890	0.406975	0.592464
	H61	H	0.888123	0.593134	0.593899
	H62	H	0.122741	0.596129	0.398141
	H63	H	0.883965	0.404427	0.398614
	H64	H	0.396759	0.598776	0.114335
	H65	H	0.598073	0.598647	0.879900
	H66	H	0.593527	0.414530	0.111955
	H67	H	0.415687	0.405625	0.878276
	H68	H	0.599527	0.121336	0.406773
	H69	H	0.606047	0.885859	0.585726
	H70	H	0.414192	0.124991	0.599800
	H71	H	0.416110	0.889502	0.413281
	H72	H	0.901927	0.626441	0.099829
	H73	H	0.089220	0.388658	0.086418
	H74	H	0.095404	0.625473	0.893717
	H75	H	0.920081	0.389962	0.905644
	H76	H	0.095169	0.903280	0.615259
	H77	H	0.107846	0.093594	0.378747
	H78	H	0.906085	0.100194	0.614355
	H79	H	0.906467	0.911495	0.377209
	H80	H	0.623383	0.102352	0.904431
	H81	H	0.388393	0.085674	0.104743
	H82	H	0.621076	0.900972	0.074437
	H83	H	0.386072	0.905234	0.910323
	H84	H	0.616731	0.929603	0.086034
	H85	H	0.381919	0.113097	0.102464
	H86	H	0.618465	0.091325	0.908621
	H87	H	0.389730	0.921594	0.909163
	H88	H	0.910747	0.092917	0.611302
	H89	H	0.097218	0.089887	0.382357
	H90	H	0.103829	0.911036	0.615004
	H91	H	0.918261	0.915516	0.381982
	H92	H	0.091664	0.620576	0.905768
	H93	H	0.096153	0.389543	0.078614
	H94	H	0.920416	0.619497	0.094394
	H95	H	0.906707	0.386607	0.908623
	H96	H	0.415003	0.119449	0.585962
	H97	H	0.593657	0.885901	0.596730
	H98	H	0.602136	0.124001	0.403535
	H99	H	0.407004	0.883782	0.400143
	H100	H	0.594595	0.411597	0.111995
	H101	H	0.600783	0.598583	0.879177
	H102	H	0.413243	0.590902	0.107833
	H103	H	0.408696	0.409676	0.876363
	H104	H	0.120609	0.594084	0.402620
	H105	H	0.886105	0.600542	0.593162
	H106	H	0.120677	0.408587	0.578219
	H107	H	0.887415	0.407047	0.409217
	H108	H	0.904971	0.619318	0.082063
	H109	H	0.099452	0.385412	0.086768
	H110	H	0.104714	0.625008	0.903735
	H111	H	0.912243	0.384399	0.895038
	H112	H	0.094216	0.913695	0.611469
	H113	H	0.099095	0.100814	0.378391
	H114	H	0.915181	0.102459	0.611563
	H115	H	0.917163	0.902131	0.378620
	H116	H	0.622559	0.092936	0.896857
	H117	H	0.392510	0.098115	0.079353
	H118	H	0.628547	0.907385	0.103944
	H119	H	0.383297	0.911730	0.895433
	C120	C	0.382489	0.013667	0.620117
	C121	C	0.625466	0.996735	0.617499
	C122	C	0.628473	0.013152	0.374284
	C123	C	0.385991	0.995983	0.377752
	C124	C	0.625862	0.383204	0.004385
	C125	C	0.626153	0.627038	0.987543
	C126	C	0.381435	0.628029	0.003161
	C127	C	0.382160	0.383327	0.986610
	C128	C	0.012826	0.623596	0.373762
	C129	C	0.996372	0.625144	0.617670
	C130	C	0.013423	0.383180	0.616370
	C131	C	0.995230	0.380064	0.372083
	C132	C	0.880105	0.512635	0.119207
	C133	C	0.123539	0.496528	0.114245
	C134	C	0.126463	0.514520	0.871867
	C135	C	0.883785	0.496022	0.875589
	C136	C	0.128265	0.880676	0.505424
	C137	C	0.127283	0.124617	0.487833
	C138	C	0.883531	0.126100	0.504394
	C139	C	0.884169	0.881855	0.487800
	C140	C	0.512636	0.124929	0.876802
	C141	C	0.496471	0.127928	0.121232
	C142	C	0.513383	0.884404	0.118520
	C143	C	0.495338	0.883413	0.874784
	C144	C	0.385183	0.889326	0.674372
	C145	C	0.622631	0.121035	0.673459
	C146	C	0.627271	0.889493	0.317463
	C147	C	0.387446	0.120526	0.324761
	C148	C	0.683109	0.384349	0.881485
	C149	C	0.678734	0.625370	0.111007
	C150	C	0.329472	0.625144	0.879690
	C151	C	0.324078	0.387636	0.108951
	C152	C	0.889379	0.680115	0.378819
	C153	C	0.120726	0.678710	0.611492
	C154	C	0.889414	0.328876	0.614605
	C155	C	0.119696	0.326308	0.372745
	C156	C	0.889771	0.384761	0.674250
	C157	C	0.119836	0.624155	0.671242
	C158	C	0.888205	0.621911	0.322098
	C159	C	0.117885	0.380943	0.313229
	C160	C	0.386167	0.683160	0.880730
	C161	C	0.621068	0.682526	0.110822
	C162	C	0.625911	0.326084	0.881441
	C163	C	0.382611	0.331042	0.110361
	C164	C	0.682814	0.888410	0.376346
	C165	C	0.680109	0.121059	0.615239
	C166	C	0.328172	0.888997	0.617172
	C167	C	0.330383	0.120201	0.382112
	C168	C	0.882457	0.388032	0.171943
	C169	C	0.120727	0.620081	0.171771
	C170	C	0.125990	0.390207	0.815975
	C171	C	0.884745	0.620051	0.820840
	C172	C	0.186224	0.882586	0.382807
	C173	C	0.179017	0.123746	0.611655
	C174	C	0.830539	0.122376	0.381025
	C175	C	0.827379	0.885667	0.611059
	C176	C	0.388189	0.179466	0.882142
	C177	C	0.620000	0.183278	0.115523
	C178	C	0.388998	0.831071	0.116956
	C179	C	0.619862	0.829159	0.876156
	C180	C	0.390031	0.887303	0.175829
	C181	C	0.620506	0.126113	0.173665
	C182	C	0.389019	0.124557	0.823169
	C183	C	0.618655	0.884077	0.816514
	C184	C	0.888180	0.179319	0.380713
	C185	C	0.122756	0.182338	0.610289
	C186	C	0.127029	0.826078	0.381542
	C187	C	0.885925	0.828888	0.611561
	C188	C	0.183025	0.390579	0.872801
	C189	C	0.177484	0.621351	0.112671
	C190	C	0.825090	0.388670	0.114959
	C191	C	0.828957	0.620779	0.879490
	C192	C	0.404119	0.100458	0.598818
	C193	C	0.603469	0.910228	0.594714
	C194	C	0.606319	0.100100	0.397086
	C195	C	0.408800	0.909163	0.398128
	C196	C	0.601965	0.406589	0.089888
	C197	C	0.605642	0.604569	0.901706
	C198	C	0.401382	0.605987	0.089463
	C199	C	0.405944	0.403662	0.900319
	C200	C	0.099144	0.600500	0.393633
	C201	C	0.909872	0.602985	0.597360
	C202	C	0.099673	0.405581	0.593038
	C203	C	0.908763	0.402263	0.395862
	C204	C	0.902593	0.599409	0.098407
	C205	C	0.101486	0.410222	0.090663
	C206	C	0.103789	0.601222	0.894314
	C207	C	0.906457	0.409351	0.897001
	C208	C	0.104653	0.902783	0.591668
	C209	C	0.107391	0.101378	0.401985
	C210	C	0.904367	0.104776	0.590066
	C211	C	0.907339	0.903154	0.401714
	C212	C	0.599032	0.102331	0.897322
	C213	C	0.409910	0.105461	0.101609
	C214	C	0.599731	0.906259	0.095064
	C215	C	0.408759	0.906007	0.898234
	Zn216	Zn	0.503572	0.005331	0.747472
	Zn217	Zn	0.505973	0.005329	0.248447
	Zn218	Zn	0.754554	0.505210	-0.003402
	Zn219	Zn	0.253450	0.506255	-0.006727
	Zn220	Zn	0.005390	0.752333	0.495877
	Zn221	Zn	0.005549	0.254424	0.494685
	Zn222	Zn	0.004853	0.504482	0.746080
	Zn223	Zn	0.002680	0.502294	0.245102
	Zn224	Zn	0.504040	0.755874	-0.003704
	Zn225	Zn	0.504147	0.254211	-0.003220
	Zn226	Zn	0.755412	0.004417	0.496134
	Zn227	Zn	0.256280	0.003796	0.498008
	N228	N	0.418108	0.967849	0.676482
	N229	N	0.589198	0.042745	0.674945
	N230	N	0.594118	0.968219	0.316188
	N231	N	0.421193	0.042220	0.321842
	N232	N	0.683334	0.418982	0.958794
	N233	N	0.682037	0.591425	0.033242
	N234	N	0.326280	0.591610	0.957115
	N235	N	0.323549	0.419544	0.030839
	N236	N	0.967663	0.681355	0.410099
	N237	N	0.042827	0.679616	0.579217
	N238	N	0.967067	0.327905	0.579302
	N239	N	0.042331	0.325819	0.408588
	N240	N	0.968117	0.417776	0.675452
	N241	N	0.041582	0.591321	0.675098
	N242	N	0.966130	0.587634	0.318653
	N243	N	0.039446	0.414035	0.312808
	N244	N	0.417773	0.685076	0.958626
	N245	N	0.589130	0.683639	0.033274
	N246	N	0.590894	0.325223	0.958949
	N247	N	0.418322	0.328393	0.033356
	N248	N	0.683770	0.966392	0.410819
	N249	N	0.682142	0.042681	0.581436
	N250	N	0.326434	0.967126	0.584087
	N251	N	0.329368	0.041658	0.414227
	N252	N	0.916184	0.466151	0.174659
	N253	N	0.087889	0.541337	0.172941
	N254	N	0.091730	0.468194	0.815231
	N255	N	0.918177	0.541518	0.818325
	N256	N	0.187291	0.915407	0.460902
	N257	N	0.182001	0.088504	0.534658
	N258	N	0.827378	0.090086	0.458891
	N259	N	0.826100	0.917777	0.533053
	N260	N	0.466034	0.179922	0.914800
	N261	N	0.541896	0.184664	0.083765
	N262	N	0.466815	0.829048	0.081920
	N263	N	0.542176	0.828382	0.911497
	N264	N	0.468447	0.919551	0.176995
	N265	N	0.542487	0.092344	0.177266
	N266	N	0.467369	0.091186	0.819904
	N267	N	0.540161	0.917175	0.815727
	N268	N	0.920526	0.181805	0.458218
	N269	N	0.091128	0.182885	0.532314
	N270	N	0.091549	0.824940	0.458801
	N271	N	0.920462	0.826329	0.533857
	N272	N	0.183626	0.468841	0.906924
	N273	N	0.179214	0.543588	0.077680
	N274	N	0.823874	0.467102	0.082735
	N275	N	0.828351	0.542744	0.913072
	O276	O	-0.012745	0.064846	0.016455
	H277	H	-0.010291	0.064662	0.020790
	H278	H	-0.014628	0.066329	0.016130
	O279	O	0.459166	0.493058	0.548427
	H280	H	0.471235	0.497216	0.555843
	H281	H	0.455290	0.498802	0.550545
	O282	O	0.520745	0.518857	0.402095
	H283	H	0.527337	0.507219	0.397422
	H284	H	0.514044	0.522414	0.399186
	O285	O	0.934480	-0.054530	1.058362
	H286	H	0.931211	-0.052900	1.048621
	H287	H	0.929853	-0.065951	1.054343
	O288	O	0.964760	-0.015464	0.113082
	H289	H	0.962054	-0.016918	0.109211
	H290	H	0.970327	-0.007628	0.125202
	O291	O	0.557215	0.525494	0.591210
	H292	H	0.549716	0.524175	0.593704
	H293	H	0.557723	0.515107	0.592007
	O294	O	1.032565	0.029320	0.939599
	H295	H	1.025393	0.031874	0.944565
	H296	H	1.043756	0.038164	0.935082
	O297	O	0.057612	0.019449	0.051562
	H298	H	0.063366	0.020463	0.058012
	H299	H	0.060806	0.020164	0.059027
	O300	O	0.599270	0.420874	0.355300
	H301	H	0.603671	0.413287	0.367004
	H302	H	0.594951	0.410650	0.342031
	O303	O	0.440126	0.576223	0.464088
	H304	H	0.444131	0.588635	0.460022
	H305	H	0.444525	0.574502	0.463421
	O306	O	1.031887	-0.037883	-0.041923
	H307	H	1.033361	-0.036498	-0.045084
	H308	H	1.027860	-0.044110	-0.025943
	O309	O	-0.051294	-0.055463	1.075571
	H310	H	-0.049159	-0.056194	1.071109
	H311	H	-0.045114	-0.055456	1.071262
	O312	O	1.060963	1.113924	1.031864
	H313	H	1.051510	1.112913	1.035490
	H314	H	1.059609	1.110000	1.037306
	O315	O	0.607710	0.487000	0.498496
	H316	H	0.610712	0.494949	0.501967
	H317	H	0.606602	0.496876	0.491277
	O318	O	0.609228	0.553381	0.529717
	H319	H	0.612648	0.561267	0.534109
	H320	H	0.605385	0.564299	0.525519
	O321	O	0.037455	1.048730	1.012241
	H322	H	0.041050	1.049140	1.012495
	H323	H	0.029268	1.050287	1.009366
	O324	O	0.549530	0.415810	0.481117
	H325	H	0.558087	0.419012	0.484616
	H326	H	0.555116	0.417584	0.469277
	O327	O	0.427053	0.547862	0.460978
	H328	H	0.424287	0.550991	0.450711
	H329	H	0.415708	0.551903	0.461701
	O330	O	0.432020	0.472778	0.439996
	H331	H	0.425439	0.494652	0.438578
	H332	H	0.425720	0.468486	0.453235
	O333	O	0.430632	0.442901	0.500026
	H334	H	0.432188	0.439237	0.496770
	H335	H	0.423997	0.437257	0.511075
	O336	O	0.528894	0.549817	0.537906
	H337	H	0.528268	0.547695	0.545285
	H338	H	0.534767	0.547048	0.541240
	O339	O	1.060386	1.022553	0.049435
	H340	H	1.070365	1.025482	0.046115
	H341	H	1.062427	1.036046	0.055768
	O342	O	0.522358	0.505735	0.483627
	H343	H	0.517211	0.512724	0.480632
	H344	H	0.513873	0.498156	0.479381
	O345	O	0.458200	0.461801	0.440472
	H346	H	0.457267	0.465804	0.456699
	H347	H	0.461997	0.461247	0.439373
	O348	O	0.016990	0.028645	-0.003483
	H349	H	0.013607	0.019710	-0.006658
	H350	H	0.018322	0.031621	0.000298
	O351	O	-0.058538	1.015318	0.976301
	H352	H	-0.063167	1.017504	0.970118
	H353	H	-0.064065	1.022964	0.982861
	O354	O	0.480159	0.533634	0.477208
	H355	H	0.491560	0.525719	0.469729
	H356	H	0.488857	0.535313	0.469559
	O357	O	-0.041701	0.945208	1.040244
	H358	H	-0.046064	0.938488	1.027918
	H359	H	-0.039443	0.957152	1.047639
