data_Molecule from HDF5

_cell_length_a		16.342907
_cell_length_b		16.219410
_cell_length_c		16.246852
_cell_angle_alpha	89.896289
_cell_angle_beta	89.994511
_cell_angle_gamma	89.954848
_symmetry_space_group_name_H-M	'P 1'
_symmetry_Int_Tables_number		1

loop_
	_symmetry_equiv_pos_as_xyz
	x,y,z

loop_
	_atom_site_label
	_atom_site_type_symbol
	_atom_site_fract_x
	_atom_site_fract_y
	_atom_site_fract_z
	H0	H	0.413038	0.833738	0.710577
	H1	H	0.608780	0.163317	0.708067
	H2	H	0.609967	0.832754	0.283077
	H3	H	0.413851	0.161742	0.281637
	H4	H	0.726877	0.398619	0.831768
	H5	H	0.726261	0.597163	0.159292
	H6	H	0.296411	0.598391	0.831485
	H7	H	0.297615	0.399443	0.159385
	H8	H	0.847278	0.711717	0.397629
	H9	H	0.174722	0.712198	0.592539
	H10	H	0.847081	0.284038	0.593697
	H11	H	0.174038	0.283321	0.397368
	H12	H	0.848287	0.399423	0.711066
	H13	H	0.174693	0.595154	0.708873
	H14	H	0.847427	0.595630	0.281061
	H15	H	0.174612	0.399288	0.281160
	H16	H	0.414145	0.712910	0.831115
	H17	H	0.608057	0.709854	0.160897
	H18	H	0.608702	0.285375	0.830955
	H19	H	0.414527	0.285053	0.160088
	H20	H	0.726361	0.834444	0.396531
	H21	H	0.725302	0.162485	0.593463
	H22	H	0.296152	0.833944	0.596272
	H23	H	0.295600	0.161434	0.394566
	H24	H	0.914270	0.333879	0.209963
	H25	H	0.109258	0.662762	0.208091
	H26	H	0.109922	0.333462	0.781398
	H27	H	0.913932	0.662057	0.781540
	H28	H	0.225742	0.898931	0.331712
	H29	H	0.227125	0.098379	0.659036
	H30	H	0.795731	0.098944	0.331800
	H31	H	0.795834	0.898798	0.658905
	H32	H	0.347646	0.212748	0.896895
	H33	H	0.674898	0.212211	0.093123
	H34	H	0.348199	0.782982	0.094043
	H35	H	0.675014	0.784552	0.898213
	H36	H	0.348269	0.898895	0.210541
	H37	H	0.674963	0.094839	0.209842
	H38	H	0.348930	0.097957	0.779555
	H39	H	0.675087	0.900942	0.782646
	H40	H	0.914412	0.210929	0.331267
	H41	H	0.106371	0.209927	0.660310
	H42	H	0.107530	0.785505	0.330855
	H43	H	0.915474	0.785748	0.660263
	H44	H	0.226376	0.334147	0.896302
	H45	H	0.226099	0.661793	0.093769
	H46	H	0.795408	0.334269	0.096511
	H47	H	0.797121	0.662492	0.896383
	H48	H	0.419962	0.113932	0.585562
	H49	H	0.599100	0.880964	0.593306
	H50	H	0.607495	0.115913	0.403301
	H51	H	0.416230	0.878562	0.399076
	H52	H	0.607269	0.407848	0.112845
	H53	H	0.605872	0.589754	0.879542
	H54	H	0.417455	0.593218	0.112718
	H55	H	0.414781	0.412056	0.879822
	H56	H	0.127076	0.600816	0.411498
	H57	H	0.893847	0.590541	0.593979
	H58	H	0.127375	0.398842	0.585077
	H59	H	0.892932	0.399572	0.399225
	H60	H	0.124849	0.408592	0.586449
	H61	H	0.894376	0.596722	0.587515
	H62	H	0.123038	0.578877	0.403658
	H63	H	0.896406	0.404793	0.408117
	H64	H	0.415573	0.587502	0.111772
	H65	H	0.603182	0.592040	0.878979
	H66	H	0.600626	0.407841	0.110160
	H67	H	0.423816	0.404086	0.879553
	H68	H	0.602371	0.115701	0.399048
	H69	H	0.603184	0.883521	0.582143
	H70	H	0.415491	0.115162	0.586602
	H71	H	0.421840	0.882477	0.403960
	H72	H	0.917136	0.619818	0.103049
	H73	H	0.100893	0.382774	0.087437
	H74	H	0.102232	0.614448	0.900570
	H75	H	0.922119	0.382322	0.904869
	H76	H	0.116793	0.912664	0.613759
	H77	H	0.102783	0.093955	0.378269
	H78	H	0.916369	0.080887	0.609720
	H79	H	0.917186	0.900677	0.377082
	H80	H	0.629556	0.096951	0.900129
	H81	H	0.396369	0.088155	0.088551
	H82	H	0.628715	0.903636	0.092662
	H83	H	0.396664	0.915950	0.895245
	H84	H	0.627853	0.901554	0.087590
	H85	H	0.394004	0.092456	0.092813
	H86	H	0.625594	0.091879	0.907448
	H87	H	0.390987	0.894895	0.897185
	H88	H	0.925732	0.095263	0.611449
	H89	H	0.108360	0.089261	0.377911
	H90	H	0.092864	0.911014	0.607086
	H91	H	0.912344	0.906627	0.376828
	H92	H	0.106057	0.615410	0.904312
	H93	H	0.109132	0.380517	0.085891
	H94	H	0.931868	0.609034	0.081326
	H95	H	0.914914	0.380977	0.906729
	H96	H	0.418647	0.114857	0.589859
	H97	H	0.610779	0.878751	0.590837
	H98	H	0.601830	0.113159	0.405411
	H99	H	0.414741	0.880544	0.406768
	H100	H	0.603770	0.401864	0.112926
	H101	H	0.606430	0.593520	0.877912
	H102	H	0.421586	0.589091	0.110410
	H103	H	0.413704	0.400799	0.875599
	H104	H	0.131483	0.594965	0.389189
	H105	H	0.897376	0.588153	0.586642
	H106	H	0.128462	0.403555	0.594163
	H107	H	0.895713	0.410552	0.397887
	H108	H	0.904636	0.615849	0.078302
	H109	H	0.105578	0.379059	0.093108
	H110	H	0.106737	0.616215	0.899626
	H111	H	0.916815	0.379653	0.899280
	H112	H	0.104375	0.890881	0.616379
	H113	H	0.102213	0.086766	0.380977
	H114	H	0.909028	0.094949	0.616273
	H115	H	0.919829	0.907598	0.379380
	H116	H	0.627881	0.087758	0.898832
	H117	H	0.395252	0.094238	0.086724
	H118	H	0.626746	0.907037	0.088536
	H119	H	0.398810	0.905605	0.915192
	C120	C	0.389634	0.005972	0.616853
	C121	C	0.632647	0.990121	0.616771
	C122	C	0.632468	0.006261	0.374299
	C123	C	0.389507	0.988910	0.374177
	C124	C	0.632464	0.377332	0.003339
	C125	C	0.633443	0.619985	0.987236
	C126	C	0.389995	0.619222	0.003475
	C127	C	0.389770	0.376840	0.987080
	C128	C	0.019226	0.619704	0.373262
	C129	C	1.003039	0.619661	0.616804
	C130	C	0.019228	0.375613	0.617313
	C131	C	1.002750	0.375923	0.373282
	C132	C	0.889923	0.506323	0.116360
	C133	C	0.133510	0.489743	0.117039
	C134	C	0.132775	0.506513	0.873781
	C135	C	0.889947	0.489401	0.874524
	C136	C	0.132600	0.876664	0.503931
	C137	C	0.132654	0.119140	0.487343
	C138	C	0.889015	0.119484	0.504045
	C139	C	0.889300	0.876695	0.486648
	C140	C	0.519827	0.120873	0.873217
	C141	C	0.503228	0.119346	0.117180
	C142	C	0.519767	0.875658	0.117721
	C143	C	0.503409	0.876731	0.874293
	C144	C	0.392331	0.882804	0.672746
	C145	C	0.629653	0.113936	0.670960
	C146	C	0.630041	0.882364	0.320224
	C147	C	0.392590	0.112581	0.318844
	C148	C	0.688030	0.379355	0.880298
	C149	C	0.688252	0.617444	0.110621
	C150	C	0.334521	0.618159	0.880268
	C151	C	0.334849	0.378619	0.110263
	C152	C	0.896208	0.674209	0.376531
	C153	C	0.126057	0.674250	0.613559
	C154	C	0.896238	0.320882	0.614925
	C155	C	0.125495	0.321220	0.376454
	C156	C	0.896749	0.378227	0.673094
	C157	C	0.126020	0.616210	0.671409
	C158	C	0.896277	0.616760	0.318469
	C159	C	0.125783	0.378898	0.318788
	C160	C	0.393097	0.674890	0.879885
	C161	C	0.629250	0.673431	0.111366
	C162	C	0.629298	0.322915	0.879958
	C163	C	0.393464	0.322381	0.110874
	C164	C	0.687943	0.882981	0.376704
	C165	C	0.687546	0.113494	0.614157
	C166	C	0.334248	0.882894	0.615641
	C167	C	0.334171	0.112483	0.375215
	C168	C	0.893533	0.382498	0.171633
	C169	C	0.130013	0.613565	0.170848
	C170	C	0.130018	0.382308	0.819507
	C171	C	0.893481	0.613344	0.819784
	C172	C	0.187443	0.878809	0.380461
	C173	C	0.188065	0.117330	0.610656
	C174	C	0.834152	0.117719	0.380666
	C175	C	0.834386	0.878640	0.610244
	C176	C	0.396683	0.175242	0.876051
	C177	C	0.626223	0.174151	0.113926
	C178	C	0.396835	0.820750	0.114907
	C179	C	0.626210	0.821910	0.877369
	C180	C	0.396913	0.878333	0.172444
	C181	C	0.626312	0.116033	0.171756
	C182	C	0.397266	0.118234	0.817811
	C183	C	0.626119	0.879763	0.819605
	C184	C	0.892570	0.173821	0.380197
	C185	C	0.129000	0.173677	0.610896
	C186	C	0.128813	0.822588	0.380093
	C187	C	0.893205	0.822223	0.610773
	C188	C	0.187863	0.382668	0.876670
	C189	C	0.188269	0.613099	0.114265
	C190	C	0.834364	0.382939	0.115622
	C191	C	0.835184	0.613410	0.876392
	C192	C	0.411507	0.092587	0.593932
	C193	C	0.610745	0.903459	0.595163
	C194	C	0.610351	0.092664	0.396209
	C195	C	0.411148	0.902861	0.396720
	C196	C	0.610391	0.399397	0.089694
	C197	C	0.611702	0.598210	0.900993
	C198	C	0.411672	0.596603	0.089397
	C199	C	0.411249	0.398965	0.900679
	C200	C	0.104965	0.597941	0.394898
	C201	C	0.917271	0.598313	0.595487
	C202	C	0.104789	0.397329	0.595022
	C203	C	0.917022	0.398278	0.395311
	C204	C	0.911478	0.592652	0.094011
	C205	C	0.111718	0.403009	0.095243
	C206	C	0.111243	0.592937	0.895083
	C207	C	0.911475	0.403345	0.897066
	C208	C	0.111140	0.898559	0.590091
	C209	C	0.110758	0.096718	0.401328
	C210	C	0.910727	0.097025	0.590275
	C211	C	0.910331	0.898378	0.400284
	C212	C	0.605696	0.098637	0.895501
	C213	C	0.417443	0.097815	0.095568
	C214	C	0.605486	0.897578	0.096121
	C215	C	0.417521	0.898940	0.896234
	Zn216	Zn	0.511224	-0.001457	0.745177
	Zn217	Zn	0.511266	-0.002904	0.246452
	Zn218	Zn	0.761277	0.497988	-0.004369
	Zn219	Zn	0.260874	0.498106	-0.004951
	Zn220	Zn	0.010956	0.748617	0.495436
	Zn221	Zn	0.010465	0.247184	0.495200
	Zn222	Zn	0.011359	0.497482	0.745825
	Zn223	Zn	0.011387	0.497976	0.244570
	Zn224	Zn	0.511350	0.747718	-0.004116
	Zn225	Zn	0.510892	0.248525	-0.004767
	Zn226	Zn	0.760540	-0.002033	0.495518
	Zn227	Zn	0.261333	-0.002415	0.495549
	N228	N	0.426047	0.960542	0.673530
	N229	N	0.596047	0.036030	0.672746
	N230	N	0.595949	0.959958	0.318976
	N231	N	0.426137	0.034786	0.317848
	N232	N	0.690060	0.412250	0.958291
	N233	N	0.690807	0.584641	0.032519
	N234	N	0.332496	0.584219	0.957994
	N235	N	0.332582	0.412046	0.032366
	N236	N	0.973712	0.676571	0.409657
	N237	N	0.048702	0.676504	0.580416
	N238	N	0.973291	0.319401	0.580572
	N239	N	0.048027	0.319257	0.409552
	N240	N	0.974032	0.411533	0.674562
	N241	N	0.048599	0.583048	0.673584
	N242	N	0.973741	0.583487	0.316356
	N243	N	0.048398	0.412432	0.316727
	N244	N	0.426883	0.675640	0.957379
	N245	N	0.595942	0.675092	0.033623
	N246	N	0.595459	0.321512	0.957457
	N247	N	0.426715	0.321093	0.032990
	N248	N	0.689749	0.961063	0.409671
	N249	N	0.689361	0.035507	0.581187
	N250	N	0.332715	0.960655	0.581552
	N251	N	0.332122	0.034730	0.409123
	N252	N	0.927281	0.460262	0.172288
	N253	N	0.096317	0.535770	0.172346
	N254	N	0.096564	0.460096	0.817698
	N255	N	0.926704	0.535351	0.818368
	N256	N	0.189987	0.911676	0.458485
	N257	N	0.190612	0.084174	0.532659
	N258	N	0.831808	0.084412	0.458676
	N259	N	0.831857	0.911733	0.532308
	N260	N	0.473923	0.176822	0.909838
	N261	N	0.548728	0.176347	0.080829
	N262	N	0.474231	0.818901	0.081570
	N263	N	0.548824	0.819966	0.910561
	N264	N	0.474273	0.911522	0.174465
	N265	N	0.548817	0.082899	0.174125
	N266	N	0.474774	0.085053	0.816156
	N267	N	0.548595	0.913019	0.817604
	N268	N	0.926169	0.174854	0.457681
	N269	N	0.095303	0.174723	0.533394
	N270	N	0.095637	0.820833	0.457838
	N271	N	0.926452	0.820886	0.532862
	N272	N	0.189858	0.460907	0.909517
	N273	N	0.190394	0.534960	0.081569
	N274	N	0.832364	0.460767	0.081936
	N275	N	0.832940	0.535469	0.909886
	O276	O	-0.544208	0.505398	1.457569
	H277	H	-0.546964	0.501174	1.464327
	H278	H	-0.551572	0.497112	1.470914
	O279	O	0.490898	0.468707	0.522995
	H280	H	0.484342	0.475160	0.523244
	H281	H	0.486925	0.468408	0.530101
	O282	O	0.473587	0.509605	0.564772
	H283	H	0.476760	0.508988	0.572191
	H284	H	0.474941	0.514079	0.563462
	O285	O	0.552759	0.485337	0.514845
	H286	H	0.550125	0.491537	0.511918
	H287	H	0.556821	0.482190	0.515548
	O288	O	0.529546	0.554049	0.504287
	H289	H	0.532088	0.550024	0.502598
	H290	H	0.529749	0.556217	0.495819
	O291	O	-0.499245	1.540633	0.430428
	H292	H	-0.499476	1.538982	0.427367
	H293	H	-0.503848	1.537379	0.427921
	O294	O	0.482791	0.518275	0.480091
	H295	H	0.491199	0.520540	0.486431
	H296	H	0.476919	0.519329	0.479966
	O297	O	0.481555	-0.463480	0.509389
	H298	H	0.477256	-0.457056	0.507353
	H299	H	0.487725	-0.457832	0.496502
