data_Molecule from HDF5

_cell_length_a		16.302131
_cell_length_b		16.265203
_cell_length_c		16.249344
_cell_angle_alpha	89.891545
_cell_angle_beta	89.863376
_cell_angle_gamma	89.999184
_symmetry_space_group_name_H-M	'P 1'
_symmetry_Int_Tables_number		1

loop_
	_symmetry_equiv_pos_as_xyz
	x,y,z

loop_
	_atom_site_label
	_atom_site_type_symbol
	_atom_site_fract_x
	_atom_site_fract_y
	_atom_site_fract_z
	H0	H	0.412101	0.834229	0.712363
	H1	H	0.607341	0.162995	0.709611
	H2	H	0.610772	0.834998	0.282730
	H3	H	0.412166	0.162459	0.282346
	H4	H	0.725636	0.400290	0.833562
	H5	H	0.725171	0.597146	0.161155
	H6	H	0.296926	0.597578	0.832938
	H7	H	0.294716	0.398192	0.160084
	H8	H	0.847154	0.713488	0.398199
	H9	H	0.173669	0.712920	0.596742
	H10	H	0.847532	0.281279	0.597793
	H11	H	0.173879	0.283934	0.398260
	H12	H	0.846224	0.398875	0.711557
	H13	H	0.174240	0.595557	0.710110
	H14	H	0.846556	0.596503	0.283534
	H15	H	0.173815	0.398799	0.282104
	H16	H	0.412808	0.712950	0.833353
	H17	H	0.609980	0.711988	0.161239
	H18	H	0.609545	0.285228	0.833084
	H19	H	0.410628	0.283019	0.160606
	H20	H	0.725836	0.835012	0.398893
	H21	H	0.725486	0.161681	0.596114
	H22	H	0.296230	0.834988	0.596836
	H23	H	0.296567	0.162784	0.399183
	H24	H	0.912830	0.333071	0.211083
	H25	H	0.107060	0.662386	0.210018
	H26	H	0.108178	0.334201	0.782824
	H27	H	0.912992	0.661762	0.783471
	H28	H	0.227147	0.899209	0.334832
	H29	H	0.223283	0.095588	0.661645
	H30	H	0.797248	0.096089	0.333192
	H31	H	0.795290	0.898371	0.661519
	H32	H	0.347732	0.212314	0.899827
	H33	H	0.674332	0.212580	0.095607
	H34	H	0.347853	0.782161	0.097958
	H35	H	0.674408	0.784348	0.899566
	H36	H	0.347011	0.900335	0.211932
	H37	H	0.674930	0.094878	0.210248
	H38	H	0.346472	0.095378	0.785098
	H39	H	0.674409	0.901358	0.784243
	H40	H	0.913250	0.211854	0.333118
	H41	H	0.108964	0.212144	0.661100
	H42	H	0.110466	0.784233	0.333527
	H43	H	0.912720	0.783437	0.661405
	H44	H	0.226166	0.334811	0.896997
	H45	H	0.224901	0.662068	0.094811
	H46	H	0.795422	0.334046	0.096736
	H47	H	0.796336	0.661818	0.898708
	H48	H	0.420758	0.117445	0.599500
	H49	H	0.609582	0.880065	0.590227
	H50	H	0.608850	0.117245	0.403666
	H51	H	0.423092	0.881447	0.396871
	H52	H	0.594579	0.401601	0.112793
	H53	H	0.609927	0.595139	0.877104
	H54	H	0.420719	0.585474	0.111960
	H55	H	0.411441	0.413068	0.880187
	H56	H	0.126680	0.583297	0.397003
	H57	H	0.892759	0.594828	0.591893
	H58	H	0.122756	0.406013	0.580145
	H59	H	0.894991	0.411367	0.398917
	H60	H	0.125904	0.412371	0.596742
	H61	H	0.895721	0.590647	0.585150
	H62	H	0.129988	0.600504	0.400404
	H63	H	0.890725	0.396349	0.401134
	H64	H	0.420692	0.594192	0.113855
	H65	H	0.605097	0.582625	0.883414
	H66	H	0.609646	0.399336	0.117882
	H67	H	0.427017	0.406930	0.883680
	H68	H	0.600304	0.115060	0.400085
	H69	H	0.600432	0.881201	0.596275
	H70	H	0.421762	0.111907	0.584696
	H71	H	0.423590	0.886176	0.413453
	H72	H	0.906817	0.618442	0.094486
	H73	H	0.112235	0.378671	0.091041
	H74	H	0.109539	0.616544	0.905280
	H75	H	0.921392	0.384152	0.911522
	H76	H	0.109183	0.906753	0.615498
	H77	H	0.100428	0.098742	0.379964
	H78	H	0.911507	0.085491	0.614170
	H79	H	0.913552	0.907498	0.380149
	H80	H	0.625935	0.090386	0.908838
	H81	H	0.394196	0.090250	0.093196
	H82	H	0.626325	0.907517	0.090490
	H83	H	0.396956	0.911021	0.908099
	H84	H	0.628279	0.902718	0.092645
	H85	H	0.393819	0.093296	0.088783
	H86	H	0.628602	0.087928	0.897454
	H87	H	0.391778	0.905148	0.898644
	H88	H	0.923466	0.087927	0.611585
	H89	H	0.112224	0.092049	0.377206
	H90	H	0.099865	0.908586	0.611708
	H91	H	0.921215	0.907845	0.382846
	H92	H	0.101565	0.615937	0.898341
	H93	H	0.098006	0.381294	0.096656
	H94	H	0.926666	0.613524	0.097801
	H95	H	0.909670	0.378694	0.905772
	H96	H	0.407739	0.117519	0.590236
	H97	H	0.599767	0.884442	0.585284
	H98	H	0.602425	0.112873	0.409033
	H99	H	0.408788	0.880097	0.406590
	H100	H	0.605210	0.413647	0.111704
	H101	H	0.595932	0.594160	0.882467
	H102	H	0.412697	0.589374	0.115394
	H103	H	0.415684	0.396392	0.876396
	H104	H	0.123491	0.590705	0.413334
	H105	H	0.893976	0.587110	0.592659
	H106	H	0.130613	0.395548	0.593334
	H107	H	0.896354	0.404855	0.413191
	H108	H	0.918187	0.610899	0.079558
	H109	H	0.101182	0.384088	0.082009
	H110	H	0.100376	0.611883	0.908398
	H111	H	0.921703	0.380314	0.897574
	H112	H	0.102253	0.899175	0.615752
	H113	H	0.101258	0.085291	0.383455
	H114	H	0.916648	0.097161	0.616189
	H115	H	0.918682	0.901212	0.379640
	H116	H	0.630226	0.099130	0.901621
	H117	H	0.396179	0.088389	0.088180
	H118	H	0.626754	0.902973	0.087170
	H119	H	0.393692	0.898880	0.909201
	C120	C	0.388596	0.007074	0.619692
	C121	C	0.631924	0.990081	0.618903
	C122	C	0.632558	0.007004	0.376118
	C123	C	0.389547	0.990629	0.376686
	C124	C	0.632357	0.376868	0.005857
	C125	C	0.632319	0.619316	0.989359
	C126	C	0.389478	0.619220	0.005607
	C127	C	0.389116	0.376690	0.988253
	C128	C	0.018707	0.619890	0.375469
	C129	C	1.002454	0.619258	0.618451
	C130	C	0.018349	0.375930	0.619004
	C131	C	1.001970	0.376124	0.375886
	C132	C	0.888264	0.506006	0.119478
	C133	C	0.131978	0.489692	0.118365
	C134	C	0.132231	0.506599	0.875215
	C135	C	0.889334	0.489586	0.876450
	C136	C	0.132621	0.876515	0.506163
	C137	C	0.132033	0.119615	0.488876
	C138	C	0.889014	0.119336	0.505487
	C139	C	0.889285	0.876746	0.489429
	C140	C	0.519760	0.120286	0.875223
	C141	C	0.502750	0.119189	0.118454
	C142	C	0.519367	0.875760	0.119580
	C143	C	0.502353	0.876800	0.876431
	C144	C	0.391393	0.883446	0.674874
	C145	C	0.628199	0.113966	0.672453
	C146	C	0.630366	0.883724	0.321038
	C147	C	0.391874	0.113823	0.320919
	C148	C	0.687794	0.379945	0.882381
	C149	C	0.687383	0.617280	0.112222
	C150	C	0.334562	0.617772	0.882192
	C151	C	0.333340	0.378599	0.111496
	C152	C	0.895814	0.675279	0.378040
	C153	C	0.125040	0.674593	0.616538
	C154	C	0.895987	0.319959	0.617284
	C155	C	0.125194	0.321608	0.378185
	C156	C	0.895281	0.378407	0.674016
	C157	C	0.125216	0.616519	0.673167
	C158	C	0.895517	0.616980	0.321056
	C159	C	0.125032	0.378597	0.320149
	C160	C	0.392021	0.675159	0.882304
	C161	C	0.629821	0.674285	0.112302
	C162	C	0.630157	0.322624	0.882162
	C163	C	0.390759	0.321066	0.111560
	C164	C	0.687744	0.883685	0.378646
	C165	C	0.687146	0.113279	0.616138
	C166	C	0.333773	0.883795	0.617475
	C167	C	0.334201	0.113759	0.378712
	C168	C	0.891606	0.382253	0.173824
	C169	C	0.128108	0.613527	0.172501
	C170	C	0.129267	0.383119	0.820607
	C171	C	0.891801	0.612912	0.820980
	C172	C	0.188420	0.879016	0.383059
	C173	C	0.186380	0.116777	0.612458
	C174	C	0.834254	0.117192	0.382228
	C175	C	0.833500	0.878334	0.612578
	C176	C	0.396559	0.175005	0.878519
	C177	C	0.625740	0.174264	0.115876
	C178	C	0.396262	0.820763	0.117815
	C179	C	0.625621	0.822043	0.878953
	C180	C	0.396240	0.878934	0.174929
	C181	C	0.626047	0.115893	0.172836
	C182	C	0.395956	0.116590	0.822009
	C183	C	0.625468	0.879777	0.821284
	C184	C	0.891993	0.174508	0.382122
	C185	C	0.129324	0.174448	0.612234
	C186	C	0.130521	0.821963	0.382526
	C187	C	0.891652	0.821102	0.612652
	C188	C	0.187784	0.383482	0.877237
	C189	C	0.186681	0.613367	0.115368
	C190	C	0.833268	0.382678	0.117175
	C191	C	0.834194	0.612869	0.878500
	C192	C	0.410465	0.093253	0.597873
	C193	C	0.609887	0.904131	0.596950
	C194	C	0.610518	0.092878	0.397859
	C195	C	0.411860	0.904833	0.398962
	C196	C	0.609820	0.398576	0.091822
	C197	C	0.610117	0.597059	0.903045
	C198	C	0.411553	0.596529	0.091603
	C199	C	0.411342	0.399043	0.902280
	C200	C	0.104529	0.598090	0.397143
	C201	C	0.916282	0.597323	0.596344
	C202	C	0.104367	0.398086	0.596663
	C203	C	0.916204	0.397991	0.397916
	C204	C	0.910577	0.592144	0.097118
	C205	C	0.110465	0.403644	0.096274
	C206	C	0.110281	0.592500	0.897456
	C207	C	0.911120	0.403320	0.898521
	C208	C	0.110188	0.898335	0.592032
	C209	C	0.111010	0.098303	0.402518
	C210	C	0.910851	0.096871	0.591910
	C211	C	0.911358	0.898942	0.403230
	C212	C	0.606016	0.098904	0.896486
	C213	C	0.416826	0.097125	0.096615
	C214	C	0.605030	0.897769	0.096826
	C215	C	0.416223	0.898451	0.898697
	Zn216	Zn	0.510559	-0.001607	0.747568
	Zn217	Zn	0.511199	-0.001497	0.247661
	Zn218	Zn	0.760560	0.497902	-0.002461
	Zn219	Zn	0.261011	0.498265	-0.003554
	Zn220	Zn	0.010910	0.748002	0.497320
	Zn221	Zn	0.010501	0.247641	0.497125
	Zn222	Zn	0.010185	0.497697	0.747251
	Zn223	Zn	0.009946	0.497643	0.247124
	Zn224	Zn	0.510827	0.747534	-0.002150
	Zn225	Zn	0.511077	0.248556	-0.002744
	Zn226	Zn	0.760762	-0.001515	0.497372
	Zn227	Zn	0.260570	-0.001464	0.497710
	N228	N	0.424807	0.961076	0.676286
	N229	N	0.594778	0.036331	0.674169
	N230	N	0.596782	0.961401	0.319166
	N231	N	0.425474	0.036194	0.319403
	N232	N	0.689340	0.412738	0.960353
	N233	N	0.688823	0.583764	0.034608
	N234	N	0.332918	0.583671	0.959728
	N235	N	0.332193	0.412539	0.033832
	N236	N	0.973427	0.677264	0.411180
	N237	N	0.047563	0.676419	0.583104
	N238	N	0.973544	0.318583	0.583566
	N239	N	0.047792	0.319958	0.411986
	N240	N	0.972473	0.412444	0.675328
	N241	N	0.047863	0.582596	0.674268
	N242	N	0.972895	0.583127	0.319362
	N243	N	0.047599	0.412057	0.318592
	N244	N	0.425475	0.676156	0.960061
	N245	N	0.596114	0.675475	0.034695
	N246	N	0.596138	0.320735	0.959762
	N247	N	0.424972	0.319937	0.034105
	N248	N	0.688941	0.961134	0.412319
	N249	N	0.689667	0.035271	0.583565
	N250	N	0.331912	0.961566	0.583741
	N251	N	0.332907	0.036253	0.412843
	N252	N	0.925202	0.459890	0.175250
	N253	N	0.094817	0.535795	0.174303
	N254	N	0.095596	0.460622	0.819233
	N255	N	0.925318	0.535354	0.819676
	N256	N	0.189705	0.912230	0.460640
	N257	N	0.188201	0.083373	0.534788
	N258	N	0.832683	0.083468	0.459998
	N259	N	0.831873	0.912187	0.534918
	N260	N	0.474469	0.177309	0.911087
	N261	N	0.548119	0.176420	0.082830
	N262	N	0.473794	0.818694	0.084143
	N263	N	0.547948	0.819965	0.912434
	N264	N	0.473751	0.912328	0.176327
	N265	N	0.548512	0.082479	0.174592
	N266	N	0.473572	0.083567	0.819738
	N267	N	0.548051	0.913308	0.820000
	N268	N	0.925254	0.175811	0.459758
	N269	N	0.096130	0.176228	0.534471
	N270	N	0.096305	0.820305	0.460104
	N271	N	0.925642	0.820211	0.535115
	N272	N	0.189600	0.461294	0.910619
	N273	N	0.189278	0.535451	0.082505
	N274	N	0.831114	0.460652	0.084274
	N275	N	0.832773	0.535296	0.912531
	O276	O	-0.488578	0.509723	1.496298
	H277	H	-0.486479	0.511926	1.498375
	H278	H	-0.484460	0.507489	1.493275
	O279	O	0.464383	0.484410	0.444143
	H280	H	0.469174	0.484391	0.445426
	H281	H	0.464244	0.485220	0.445706
	O282	O	0.515319	0.515113	0.477487
	H283	H	0.502470	0.518364	0.474085
	H284	H	0.509469	0.514973	0.477555
	O285	O	0.531590	0.533596	0.422308
	H286	H	0.531271	0.534874	0.417469
	H287	H	0.529132	0.527902	0.421042
	O288	O	0.562929	0.514119	0.471613
	H289	H	0.568488	0.520835	0.474746
	H290	H	0.561613	0.511409	0.468800
	O291	O	-0.500686	1.507234	0.472495
	H292	H	-0.502276	1.506662	0.472272
	H293	H	-0.506889	1.504256	0.479488
	O294	O	0.467206	0.501616	0.432440
	H295	H	0.474262	0.499164	0.420927
	H296	H	0.458090	0.513062	0.434232
	O297	O	0.494712	-0.466164	0.478217
	H298	H	0.502799	-0.466249	0.473963
	H299	H	0.497943	-0.462066	0.477108
