data_Molecule from HDF5

_cell_length_a		16.262922
_cell_length_b		16.294391
_cell_length_c		16.300346
_cell_angle_alpha	90.072305
_cell_angle_beta	89.975726
_cell_angle_gamma	89.914699
_symmetry_space_group_name_H-M	'P 1'
_symmetry_Int_Tables_number		1

loop_
	_symmetry_equiv_pos_as_xyz
	x,y,z

loop_
	_atom_site_label
	_atom_site_type_symbol
	_atom_site_fract_x
	_atom_site_fract_y
	_atom_site_fract_z
	H0	H	0.400480	0.836406	0.714148
	H1	H	0.598690	0.163271	0.714983
	H2	H	0.598273	0.836389	0.285210
	H3	H	0.400909	0.164049	0.285341
	H4	H	0.714448	0.402130	0.836319
	H5	H	0.713227	0.597166	0.164508
	H6	H	0.285534	0.598223	0.836073
	H7	H	0.286082	0.403051	0.163366
	H8	H	0.836627	0.714453	0.402578
	H9	H	0.163866	0.713439	0.598462
	H10	H	0.835956	0.286817	0.598126
	H11	H	0.163950	0.286739	0.402541
	H12	H	0.836320	0.402460	0.713920
	H13	H	0.163671	0.597495	0.714428
	H14	H	0.835974	0.596823	0.288166
	H15	H	0.163698	0.402470	0.286547
	H16	H	0.402683	0.713784	0.835527
	H17	H	0.598385	0.714512	0.163621
	H18	H	0.598738	0.284790	0.836344
	H19	H	0.402511	0.286821	0.163681
	H20	H	0.713479	0.836272	0.402234
	H21	H	0.713353	0.163663	0.597286
	H22	H	0.286377	0.835715	0.596802
	H23	H	0.286062	0.163768	0.402757
	H24	H	0.902017	0.336480	0.213894
	H25	H	0.097357	0.663942	0.214131
	H26	H	0.099109	0.336643	0.785339
	H27	H	0.901878	0.662919	0.786187
	H28	H	0.213549	0.902481	0.336210
	H29	H	0.214240	0.097433	0.663529
	H30	H	0.786925	0.096531	0.335977
	H31	H	0.785378	0.903013	0.663745
	H32	H	0.335718	0.214583	0.901654
	H33	H	0.664015	0.213274	0.097631
	H34	H	0.336365	0.787046	0.097073
	H35	H	0.664567	0.786107	0.901985
	H36	H	0.335759	0.903139	0.212767
	H37	H	0.664228	0.096905	0.212508
	H38	H	0.336158	0.098502	0.785275
	H39	H	0.663612	0.901636	0.785188
	H40	H	0.901611	0.214442	0.336528
	H41	H	0.099033	0.215139	0.664111
	H42	H	0.098384	0.785430	0.337059
	H43	H	0.902244	0.786589	0.664630
	H44	H	0.213985	0.336108	0.902065
	H45	H	0.214048	0.663500	0.098336
	H46	H	0.787042	0.336013	0.096892
	H47	H	0.786166	0.663445	0.902244
	H48	H	0.416074	0.112157	0.590036
	H49	H	0.588028	0.886906	0.586593
	H50	H	0.589191	0.116429	0.404831
	H51	H	0.414353	0.886009	0.407773
	H52	H	0.588568	0.400747	0.116259
	H53	H	0.597035	0.592794	0.882446
	H54	H	0.408624	0.599945	0.117016
	H55	H	0.415814	0.407328	0.886168
	H56	H	0.115381	0.589432	0.407669
	H57	H	0.885509	0.585445	0.593174
	H58	H	0.117698	0.404767	0.593624
	H59	H	0.885340	0.413356	0.410799
	H60	H	0.115771	0.407322	0.590506
	H61	H	0.879746	0.596195	0.601039
	H62	H	0.118953	0.594476	0.402925
	H63	H	0.880454	0.407790	0.399359
	H64	H	0.400679	0.592052	0.117040
	H65	H	0.592438	0.590024	0.884728
	H66	H	0.600544	0.403111	0.119074
	H67	H	0.404034	0.399043	0.880246
	H68	H	0.594642	0.116554	0.408989
	H69	H	0.600512	0.881313	0.591604
	H70	H	0.398628	0.117055	0.587351
	H71	H	0.399619	0.882637	0.410674
	H72	H	0.901097	0.619437	0.096534
	H73	H	0.092938	0.385325	0.086912
	H74	H	0.106150	0.619584	0.910167
	H75	H	0.903027	0.382183	0.905215
	H76	H	0.092566	0.905130	0.617179
	H77	H	0.091704	0.098123	0.382675
	H78	H	0.903030	0.096352	0.618365
	H79	H	0.905940	0.905979	0.383478
	H80	H	0.616095	0.088438	0.903654
	H81	H	0.380941	0.097962	0.097135
	H82	H	0.613240	0.917553	0.089995
	H83	H	0.383394	0.907776	0.907665
	H84	H	0.621819	0.903217	0.104963
	H85	H	0.383895	0.095578	0.086957
	H86	H	0.617600	0.097134	0.904396
	H87	H	0.383478	0.907078	0.906316
	H88	H	0.906221	0.089492	0.615721
	H89	H	0.096443	0.092169	0.382687
	H90	H	0.095720	0.905010	0.617917
	H91	H	0.907833	0.906674	0.384494
	H92	H	0.087589	0.618784	0.894465
	H93	H	0.099109	0.381137	0.095458
	H94	H	0.910103	0.616739	0.098516
	H95	H	0.910624	0.382648	0.903774
	H96	H	0.405803	0.119396	0.603494
	H97	H	0.589911	0.882475	0.600007
	H98	H	0.594938	0.118469	0.402755
	H99	H	0.405342	0.880524	0.396299
	H100	H	0.594111	0.412905	0.114799
	H101	H	0.591882	0.595677	0.883322
	H102	H	0.411317	0.589688	0.113745
	H103	H	0.402357	0.413753	0.883535
	H104	H	0.117452	0.596198	0.410214
	H105	H	0.884008	0.598852	0.587670
	H106	H	0.117046	0.409127	0.594720
	H107	H	0.881949	0.399897	0.410439
	H108	H	0.907408	0.614685	0.089185
	H109	H	0.088336	0.384196	0.097250
	H110	H	0.084099	0.611114	0.917240
	H111	H	0.907799	0.384818	0.910499
	H112	H	0.093886	0.907752	0.616241
	H113	H	0.089384	0.091318	0.386122
	H114	H	0.910764	0.096277	0.615947
	H115	H	0.907615	0.904554	0.384052
	H116	H	0.615070	0.092273	0.911280
	H117	H	0.384154	0.088341	0.094741
	H118	H	0.617146	0.897082	0.084096
	H119	H	0.384048	0.906023	0.907461
	C120	C	0.378414	0.007938	0.621445
	C121	C	0.621093	0.991665	0.621184
	C122	C	0.621414	0.008581	0.377713
	C123	C	0.378413	0.991840	0.377874
	C124	C	0.622432	0.377700	0.008371
	C125	C	0.621845	0.621250	0.991809
	C126	C	0.378557	0.621908	0.008025
	C127	C	0.378789	0.378518	0.991397
	C128	C	0.008831	0.621555	0.378857
	C129	C	0.991419	0.621189	0.621977
	C130	C	0.008647	0.378725	0.621589
	C131	C	0.991355	0.378789	0.378932
	C132	C	0.878344	0.508525	0.122138
	C133	C	0.121234	0.491662	0.121656
	C134	C	0.121673	0.508154	0.878393
	C135	C	0.878828	0.491613	0.878927
	C136	C	0.121598	0.878361	0.508788
	C137	C	0.121314	0.121989	0.492091
	C138	C	0.878102	0.121892	0.508278
	C139	C	0.878480	0.878165	0.492111
	C140	C	0.507885	0.121227	0.878224
	C141	C	0.491674	0.121684	0.120789
	C142	C	0.508690	0.878525	0.120979
	C143	C	0.491726	0.878182	0.878260
	C144	C	0.380129	0.885069	0.676477
	C145	C	0.618605	0.114655	0.676661
	C146	C	0.619059	0.885400	0.322860
	C147	C	0.381210	0.115260	0.324053
	C148	C	0.676642	0.381294	0.884966
	C149	C	0.676266	0.618456	0.115270
	C150	C	0.323573	0.618908	0.884788
	C151	C	0.324117	0.382281	0.114846
	C152	C	0.885415	0.676091	0.382316
	C153	C	0.115175	0.675617	0.618937
	C154	C	0.885074	0.324245	0.618835
	C155	C	0.114737	0.324017	0.381881
	C156	C	0.885231	0.381454	0.676524
	C157	C	0.114919	0.618452	0.676768
	C158	C	0.885015	0.618090	0.325216
	C159	C	0.114833	0.381498	0.324333
	C160	C	0.381398	0.676523	0.884578
	C161	C	0.618685	0.676331	0.115149
	C162	C	0.619578	0.322836	0.885206
	C163	C	0.381703	0.324382	0.114897
	C164	C	0.676330	0.885166	0.381022
	C165	C	0.676066	0.114697	0.618772
	C166	C	0.323452	0.884882	0.617893
	C167	C	0.323313	0.115002	0.381564
	C168	C	0.880993	0.385201	0.176716
	C169	C	0.118162	0.615003	0.176334
	C170	C	0.119258	0.385305	0.823252
	C171	C	0.881271	0.614364	0.824033
	C172	C	0.175620	0.881662	0.385165
	C173	C	0.176707	0.118849	0.614903
	C174	C	0.824054	0.117742	0.384962
	C175	C	0.823338	0.881764	0.615193
	C176	C	0.384694	0.176427	0.881216
	C177	C	0.615133	0.175815	0.118047
	C178	C	0.384934	0.824580	0.117611
	C179	C	0.615235	0.823146	0.880683
	C180	C	0.384889	0.881986	0.175172
	C181	C	0.614989	0.118336	0.175322
	C182	C	0.384702	0.118885	0.823386
	C183	C	0.615014	0.880766	0.823020
	C184	C	0.880987	0.176341	0.385350
	C185	C	0.118861	0.176715	0.615286
	C186	C	0.118290	0.823859	0.385335
	C187	C	0.881239	0.824008	0.615604
	C188	C	0.176461	0.385112	0.881142
	C189	C	0.175843	0.614952	0.118593
	C190	C	0.824220	0.385139	0.118392
	C191	C	0.823935	0.614590	0.881945
	C192	C	0.400379	0.094222	0.600012
	C193	C	0.599255	0.905631	0.599160
	C194	C	0.599611	0.094817	0.399341
	C195	C	0.400066	0.905380	0.398797
	C196	C	0.600788	0.399261	0.094591
	C197	C	0.600151	0.599277	0.905703
	C198	C	0.400429	0.600269	0.093897
	C199	C	0.400748	0.400268	0.905525
	C200	C	0.095110	0.599747	0.400345
	C201	C	0.905431	0.599819	0.600361
	C202	C	0.094582	0.400759	0.599581
	C203	C	0.904898	0.400736	0.400537
	C204	C	0.899804	0.594694	0.101113
	C205	C	0.099571	0.405761	0.099726
	C206	C	0.099156	0.594210	0.900718
	C207	C	0.900663	0.405205	0.900105
	C208	C	0.100344	0.899715	0.594870
	C209	C	0.099090	0.100353	0.406031
	C210	C	0.900145	0.100236	0.594481
	C211	C	0.900401	0.899469	0.406091
	C212	C	0.594172	0.099055	0.900069
	C213	C	0.405312	0.100343	0.099324
	C214	C	0.594925	0.899600	0.099509
	C215	C	0.405922	0.900483	0.900426
	Zn216	Zn	0.499512	-0.000368	0.749787
	Zn217	Zn	0.499810	0.000188	0.249318
	Zn218	Zn	0.750388	0.499821	0.000383
	Zn219	Zn	0.249888	0.500081	-0.000322
	Zn220	Zn	0.000130	0.749717	0.500961
	Zn221	Zn	-0.000405	0.250738	0.500263
	Zn222	Zn	0.000200	0.500066	0.750153
	Zn223	Zn	-0.000028	0.499856	0.250339
	Zn224	Zn	0.500196	0.749986	-0.000087
	Zn225	Zn	0.500105	0.249844	-0.000498
	Zn226	Zn	0.749440	0.000149	0.499940
	Zn227	Zn	0.250326	-0.000094	0.499713
	N228	N	0.413620	0.962488	0.678599
	N229	N	0.585026	0.037194	0.678162
	N230	N	0.585741	0.962975	0.320645
	N231	N	0.414316	0.037540	0.321271
	N232	N	0.678608	0.414515	0.962535
	N233	N	0.678064	0.584797	0.037751
	N234	N	0.321499	0.585834	0.962482
	N235	N	0.322151	0.415217	0.037034
	N236	N	0.963388	0.678351	0.415007
	N237	N	0.037310	0.677705	0.585870
	N238	N	0.962680	0.322398	0.585514
	N239	N	0.036947	0.322478	0.415133
	N240	N	0.962977	0.414713	0.678431
	N241	N	0.037330	0.585057	0.678519
	N242	N	0.962754	0.584788	0.322967
	N243	N	0.036968	0.414614	0.322144
	N244	N	0.414852	0.678492	0.962132
	N245	N	0.585540	0.678230	0.037427
	N246	N	0.586393	0.320791	0.962817
	N247	N	0.414850	0.321984	0.037411
	N248	N	0.677759	0.962881	0.414491
	N249	N	0.677590	0.037459	0.584893
	N250	N	0.322483	0.962350	0.584336
	N251	N	0.321953	0.037397	0.414605
	N252	N	0.913931	0.462908	0.179163
	N253	N	0.084910	0.537473	0.178200
	N254	N	0.085901	0.462836	0.821697
	N255	N	0.914859	0.536836	0.822207
	N256	N	0.177803	0.915188	0.462646
	N257	N	0.178117	0.085148	0.537449
	N258	N	0.822050	0.084753	0.462723
	N259	N	0.821653	0.914795	0.537608
	N260	N	0.462291	0.177657	0.914715
	N261	N	0.537365	0.177913	0.084976
	N262	N	0.462800	0.822448	0.084492
	N263	N	0.537758	0.821512	0.914411
	N264	N	0.462549	0.914807	0.177431
	N265	N	0.537191	0.085221	0.177165
	N266	N	0.462461	0.085390	0.821339
	N267	N	0.537313	0.914310	0.821315
	N268	N	0.914059	0.178791	0.462923
	N269	N	0.085330	0.178827	0.537856
	N270	N	0.085700	0.821393	0.463174
	N271	N	0.914812	0.821766	0.538105
	N272	N	0.178126	0.462664	0.914588
	N273	N	0.177854	0.537289	0.085125
	N274	N	0.822578	0.462584	0.085106
	N275	N	0.822426	0.537229	0.915289
