data_Molecule from HDF5

_cell_length_a		16.273792
_cell_length_b		16.406760
_cell_length_c		16.275385
_cell_angle_alpha	90.308602
_cell_angle_beta	90.078653
_cell_angle_gamma	90.110628
_symmetry_space_group_name_H-M	'P 1'
_symmetry_Int_Tables_number		1

loop_
	_symmetry_equiv_pos_as_xyz
	x,y,z

loop_
	_atom_site_label
	_atom_site_type_symbol
	_atom_site_fract_x
	_atom_site_fract_y
	_atom_site_fract_z
	H0	H	0.398847	0.817517	0.715586
	H1	H	0.606171	0.136210	0.725397
	H2	H	0.601450	0.817460	0.283218
	H3	H	0.396200	0.138467	0.282774
	H4	H	0.715862	0.375319	0.841195
	H5	H	0.714468	0.583233	0.165486
	H6	H	0.279628	0.576614	0.839543
	H7	H	0.278872	0.377838	0.164754
	H8	H	0.837900	0.698823	0.402368
	H9	H	0.160676	0.698798	0.608645
	H10	H	0.838228	0.259353	0.608065
	H11	H	0.160419	0.262143	0.400290
	H12	H	0.834523	0.379122	0.718520
	H13	H	0.159193	0.582907	0.723693
	H14	H	0.835811	0.581751	0.289298
	H15	H	0.159221	0.377602	0.284055
	H16	H	0.390433	0.696908	0.840813
	H17	H	0.598488	0.698496	0.163941
	H18	H	0.601560	0.257759	0.841804
	H19	H	0.391302	0.258133	0.163040
	H20	H	0.717976	0.817744	0.400446
	H21	H	0.717370	0.139512	0.605606
	H22	H	0.281639	0.819105	0.602663
	H23	H	0.279390	0.139119	0.397237
	H24	H	0.891562	0.320073	0.224785
	H25	H	0.099401	0.641370	0.222065
	H26	H	0.097891	0.320246	0.783626
	H27	H	0.893767	0.640452	0.785795
	H28	H	0.216840	0.877475	0.341005
	H29	H	0.219321	0.083572	0.664782
	H30	H	0.780683	0.081892	0.341456
	H31	H	0.782340	0.878036	0.664894
	H32	H	0.337246	0.197780	0.894422
	H33	H	0.656717	0.201712	0.109922
	H34	H	0.335718	0.761086	0.104285
	H35	H	0.658224	0.756570	0.898196
	H36	H	0.337119	0.874540	0.221571
	H37	H	0.660062	0.081237	0.220062
	H38	H	0.337566	0.078829	0.781656
	H39	H	0.661231	0.873798	0.785582
	H40	H	0.894669	0.199041	0.342552
	H41	H	0.105267	0.201791	0.664110
	H42	H	0.107337	0.756337	0.344471
	H43	H	0.897433	0.762695	0.664769
	H44	H	0.213919	0.318704	0.898102
	H45	H	0.217214	0.639573	0.105999
	H46	H	0.775288	0.319860	0.108836
	H47	H	0.778887	0.641026	0.903051
	H48	H	0.407001	0.094800	0.592316
	H49	H	0.594344	0.862124	0.593377
	H50	H	0.588306	0.092086	0.411745
	H51	H	0.401089	0.861245	0.408437
	H52	H	0.585907	0.383337	0.119169
	H53	H	0.592117	0.568041	0.886701
	H54	H	0.408964	0.568375	0.116234
	H55	H	0.398181	0.391620	0.887028
	H56	H	0.114705	0.571851	0.414411
	H57	H	0.883818	0.566049	0.597133
	H58	H	0.114309	0.394484	0.600113
	H59	H	0.882379	0.391160	0.409126
	H60	H	0.115015	0.385011	0.593196
	H61	H	0.879856	0.578642	0.597304
	H62	H	0.113260	0.568435	0.415218
	H63	H	0.882415	0.383418	0.417652
	H64	H	0.408055	0.572354	0.117713
	H65	H	0.585059	0.562750	0.889722
	H66	H	0.589625	0.393771	0.117777
	H67	H	0.414333	0.391462	0.891074
	H68	H	0.591800	0.092716	0.413001
	H69	H	0.590286	0.863023	0.594481
	H70	H	0.413422	0.094089	0.597119
	H71	H	0.416552	0.865616	0.406761
	H72	H	0.904361	0.596263	0.103170
	H73	H	0.077117	0.369094	0.092877
	H74	H	0.090363	0.595299	0.911839
	H75	H	0.907994	0.367016	0.913889
	H76	H	0.087050	0.887685	0.618587
	H77	H	0.091603	0.071696	0.386917
	H78	H	0.910771	0.068456	0.616647
	H79	H	0.907526	0.890256	0.387751
	H80	H	0.609874	0.066716	0.919061
	H81	H	0.381907	0.069080	0.093289
	H82	H	0.611759	0.887553	0.087388
	H83	H	0.385012	0.892088	0.910469
	H84	H	0.613217	0.890779	0.094285
	H85	H	0.383437	0.068223	0.088409
	H86	H	0.612766	0.064563	0.910862
	H87	H	0.380392	0.885269	0.903713
	H88	H	0.912702	0.072243	0.618560
	H89	H	0.089201	0.068854	0.389221
	H90	H	0.095442	0.888016	0.620964
	H91	H	0.913657	0.891267	0.390349
	H92	H	0.084691	0.594011	0.913004
	H93	H	0.092771	0.366108	0.086887
	H94	H	0.912544	0.591521	0.093791
	H95	H	0.903577	0.365934	0.912969
	H96	H	0.413528	0.091616	0.589567
	H97	H	0.592171	0.863660	0.590137
	H98	H	0.590959	0.093613	0.409428
	H99	H	0.409410	0.868951	0.420944
	H100	H	0.578641	0.391463	0.114799
	H101	H	0.583412	0.571739	0.887786
	H102	H	0.404924	0.569557	0.117909
	H103	H	0.407475	0.377477	0.884539
	H104	H	0.114155	0.569581	0.412081
	H105	H	0.884888	0.573807	0.586760
	H106	H	0.109524	0.394292	0.589408
	H107	H	0.886677	0.394009	0.420069
	H108	H	0.899803	0.593588	0.090806
	H109	H	0.088770	0.362315	0.102871
	H110	H	0.088875	0.593376	0.917542
	H111	H	0.906849	0.364825	0.909593
	H112	H	0.091913	0.894749	0.617064
	H113	H	0.087517	0.072699	0.388540
	H114	H	0.908331	0.071447	0.619113
	H115	H	0.911736	0.885527	0.387998
	H116	H	0.613865	0.073108	0.914036
	H117	H	0.384093	0.064404	0.092471
	H118	H	0.614772	0.883573	0.093048
	H119	H	0.382161	0.881819	0.913835
	C120	C	0.379858	-0.012677	0.622848
	C121	C	0.622927	0.969136	0.624273
	C122	C	0.621214	-0.013121	0.380198
	C123	C	0.377724	0.970669	0.380548
	C124	C	0.617294	0.357613	0.010779
	C125	C	0.617651	0.599825	0.994684
	C126	C	0.375591	0.599656	0.010428
	C127	C	0.374682	0.355989	0.993765
	C128	C	0.007590	0.601509	0.383045
	C129	C	0.989801	0.603042	0.625817
	C130	C	0.006431	0.359640	0.624892
	C131	C	0.990286	0.358662	0.383074
	C132	C	0.874122	0.488441	0.127053
	C133	C	0.118092	0.471587	0.125292
	C134	C	0.117995	0.488343	0.882047
	C135	C	0.875150	0.471892	0.881914
	C136	C	0.121821	0.858843	0.512050
	C137	C	0.121275	0.102035	0.494795
	C138	C	0.878539	0.101025	0.511345
	C139	C	0.879700	0.858994	0.495100
	C140	C	0.506222	0.098914	0.881167
	C141	C	0.489165	0.099470	0.123517
	C142	C	0.506417	0.857034	0.122837
	C143	C	0.489540	0.855308	0.879623
	C144	C	0.379384	0.866212	0.678492
	C145	C	0.624112	0.088842	0.684908
	C146	C	0.621017	0.865715	0.322119
	C147	C	0.377473	0.090836	0.321965
	C148	C	0.676625	0.356481	0.889817
	C149	C	0.675397	0.601637	0.116640
	C150	C	0.317675	0.597501	0.888365
	C151	C	0.316672	0.357013	0.115608
	C152	C	0.886262	0.659845	0.383217
	C153	C	0.111830	0.660094	0.627477
	C154	C	0.885803	0.299867	0.625868
	C155	C	0.111788	0.300800	0.381443
	C156	C	0.883968	0.359609	0.681018
	C157	C	0.111003	0.602490	0.684887
	C158	C	0.885012	0.601293	0.326900
	C159	C	0.111191	0.358366	0.323619
	C160	C	0.372989	0.657239	0.889009
	C161	C	0.618008	0.659246	0.115775
	C162	C	0.619382	0.298109	0.889747
	C163	C	0.373074	0.297874	0.114914
	C164	C	0.678905	0.865882	0.380502
	C165	C	0.679557	0.090665	0.625050
	C166	C	0.321019	0.867020	0.621979
	C167	C	0.319241	0.091154	0.378933
	C168	C	0.872768	0.367888	0.185486
	C169	C	0.118763	0.592850	0.183225
	C170	C	0.117874	0.367946	0.822609
	C171	C	0.875067	0.592637	0.824883
	C172	C	0.179072	0.858042	0.390080
	C173	C	0.180230	0.103022	0.616321
	C174	C	0.819436	0.101363	0.390145
	C175	C	0.821425	0.859103	0.616360
	C176	C	0.385330	0.157560	0.877618
	C177	C	0.609444	0.160560	0.126662
	C178	C	0.384327	0.799672	0.123345
	C179	C	0.610474	0.796469	0.879460
	C180	C	0.385112	0.856245	0.181711
	C181	C	0.611001	0.100641	0.181567
	C182	C	0.385462	0.098298	0.821251
	C183	C	0.611922	0.855012	0.823234
	C184	C	0.876315	0.159700	0.390527
	C185	C	0.123136	0.161399	0.616172
	C186	C	0.124395	0.797704	0.391815
	C187	C	0.878763	0.801584	0.616406
	C188	C	0.175135	0.367113	0.880027
	C189	C	0.177415	0.591970	0.125431
	C190	C	0.814837	0.367791	0.127673
	C191	C	0.817484	0.592609	0.882954
	C192	C	0.404313	0.071780	0.599717
	C193	C	0.599242	0.884702	0.599617
	C194	C	0.597403	0.071009	0.404322
	C195	C	0.401979	0.886983	0.405065
	C196	C	0.592077	0.382252	0.095360
	C197	C	0.593734	0.574861	0.910074
	C198	C	0.400072	0.576780	0.095187
	C199	C	0.399402	0.379773	0.909286
	C200	C	0.092200	0.577069	0.406842
	C201	C	0.904970	0.579721	0.600837
	C202	C	0.090943	0.384272	0.601192
	C203	C	0.905914	0.382655	0.408322
	C204	C	0.898491	0.572083	0.102982
	C205	C	0.093366	0.387757	0.101162
	C206	C	0.094661	0.572435	0.906910
	C207	C	0.899053	0.387710	0.905417
	C208	C	0.098235	0.883139	0.596861
	C209	C	0.096462	0.078210	0.410360
	C210	C	0.903416	0.077433	0.595904
	C211	C	0.904072	0.882308	0.410495
	C212	C	0.590251	0.075011	0.907041
	C213	C	0.405175	0.074420	0.098749
	C214	C	0.591209	0.880608	0.098637
	C215	C	0.404575	0.879298	0.902548
	Zn216	Zn	0.500213	-0.022605	0.752211
	Zn217	Zn	0.498813	-0.022113	0.251473
	Zn218	Zn	0.746350	0.479574	0.004058
	Zn219	Zn	0.246744	0.478668	0.002296
	Zn220	Zn	0.000536	0.730317	0.504253
	Zn221	Zn	-0.000853	0.229992	0.503849
	Zn222	Zn	-0.003304	0.480539	0.753063
	Zn223	Zn	-0.002887	0.479943	0.255110
	Zn224	Zn	0.496655	0.728402	0.001664
	Zn225	Zn	0.496937	0.228093	0.002822
	Zn226	Zn	0.750436	-0.020740	0.502435
	Zn227	Zn	0.249967	-0.019526	0.502791
	N228	N	0.415318	0.942103	0.678890
	N229	N	0.589718	0.012201	0.684623
	N230	N	0.586140	0.941928	0.321674
	N231	N	0.413147	0.014889	0.322977
	N232	N	0.675542	0.392593	0.966368
	N233	N	0.675380	0.565642	0.040227
	N234	N	0.319107	0.562328	0.964877
	N235	N	0.317353	0.392271	0.039121
	N236	N	0.963748	0.660270	0.417130
	N237	N	0.035392	0.660510	0.591670
	N238	N	0.963027	0.299577	0.591645
	N239	N	0.035465	0.300789	0.417614
	N240	N	0.960092	0.395988	0.680608
	N241	N	0.034049	0.567599	0.683809
	N242	N	0.961557	0.565926	0.326405
	N243	N	0.034542	0.393408	0.324591
	N244	N	0.408210	0.658802	0.965767
	N245	N	0.582722	0.658198	0.038891
	N246	N	0.583705	0.298469	0.966235
	N247	N	0.407808	0.296744	0.037877
	N248	N	0.679171	0.942217	0.415787
	N249	N	0.678764	0.015135	0.588285
	N250	N	0.321245	0.943626	0.588008
	N251	N	0.319116	0.015396	0.414521
	N252	N	0.908830	0.443746	0.185253
	N253	N	0.082603	0.516965	0.183257
	N254	N	0.083032	0.444241	0.823607
	N255	N	0.910152	0.516496	0.824119
	N256	N	0.177602	0.895569	0.465823
	N257	N	0.179339	0.066821	0.539858
	N258	N	0.820930	0.065452	0.466156
	N259	N	0.821844	0.894270	0.539843
	N260	N	0.461408	0.158043	0.914323
	N261	N	0.532790	0.159712	0.091053
	N262	N	0.460812	0.799935	0.087452
	N263	N	0.533389	0.796341	0.913580
	N264	N	0.461870	0.891256	0.181260
	N265	N	0.535377	0.063314	0.179820
	N266	N	0.461730	0.062565	0.823386
	N267	N	0.535625	0.890897	0.823255
	N268	N	0.912598	0.159405	0.466968
	N269	N	0.087287	0.160896	0.539706
	N270	N	0.089573	0.798060	0.468648
	N271	N	0.914519	0.801637	0.539968
	N272	N	0.175329	0.442879	0.916329
	N273	N	0.177177	0.515648	0.090345
	N274	N	0.815415	0.443704	0.092122
	N275	N	0.817276	0.516372	0.917576
	O276	O	0.595583	0.641126	0.585445
	H277	H	0.611960	0.636384	0.564708
	H278	H	0.612264	0.641420	0.585985
	O279	O	0.355386	0.517526	0.409046
	H280	H	0.350162	0.539031	0.412880
	H281	H	0.348087	0.519846	0.424719
	O282	O	0.511522	0.635924	0.654378
	H283	H	0.525135	0.626206	0.658624
	H284	H	0.513882	0.647508	0.656276
	O285	O	0.641937	0.409472	0.431815
	H286	H	0.621944	0.393882	0.451153
	H287	H	0.670274	0.395590	0.424193
	O288	O	0.859192	1.126306	0.943690
	H289	H	0.846385	1.130317	0.934473
	H290	H	0.877702	1.129859	0.940971
	O291	O	0.025085	1.020475	-0.124028
	H292	H	0.017925	1.014424	-0.134422
	H293	H	0.043494	1.032344	-0.117729
	O294	O	0.645710	0.423477	0.375510
	H295	H	0.636329	0.423851	0.375558
	H296	H	0.645430	0.403550	0.390966
	O297	O	0.537497	0.564746	0.402348
	H298	H	0.550014	0.554735	0.395782
	H299	H	0.534397	0.556695	0.411436
	O300	O	0.600588	0.371337	0.637213
	H301	H	0.585743	0.368259	0.627928
	H302	H	0.586650	0.364466	0.648779
	O303	O	0.608459	0.340153	0.569199
	H304	H	0.592371	0.327631	0.564292
	H305	H	0.606117	0.343710	0.583265
	O306	O	0.017061	0.826062	0.907393
	H307	H	0.016019	0.812974	0.909199
	H308	H	0.031169	0.825811	0.907963
	O309	O	0.432900	0.464463	0.456307
	H310	H	0.417399	0.482337	0.460843
	H311	H	0.425306	0.463329	0.465228
	O312	O	0.110440	-0.167644	-0.010613
	H313	H	0.112618	-0.168816	-0.022323
	H314	H	0.103127	-0.177322	-0.003512
	O315	O	0.368267	0.352836	0.551240
	H316	H	0.362796	0.357080	0.557084
	H317	H	0.358699	0.367839	0.545594
	O318	O	0.491023	1.338881	1.437475
	H319	H	0.486251	1.338356	1.426638
	H320	H	0.494835	1.330802	1.448187
	O321	O	0.400567	0.537025	0.633011
	H322	H	0.401212	0.547626	0.639695
	H323	H	0.413537	0.548371	0.630490
	O324	O	-0.177307	0.883621	0.178498
	H325	H	-0.183834	0.904123	0.182829
	H326	H	-0.174342	0.878450	0.179539
	O327	O	0.578285	0.467296	0.507929
	H328	H	0.573252	0.467621	0.507131
	H329	H	0.577567	0.461981	0.517329
	O330	O	-0.168568	0.003750	1.009288
	H331	H	-0.167843	0.014131	0.999146
	H332	H	-0.179094	-0.004270	1.000974
	O333	O	0.141868	-0.143150	0.999844
	H334	H	0.133716	-0.157035	0.996291
	H335	H	0.153311	-0.144366	1.015872
	O336	O	0.469562	0.443263	0.616725
	H337	H	0.477915	0.433037	0.616882
	H338	H	0.459244	0.449780	0.609767
	O339	O	0.912522	0.081944	-0.152553
	H340	H	0.924847	0.083219	-0.161867
	H341	H	0.920691	0.048099	-0.164354
	O342	O	0.152680	0.113221	-0.064379
	H343	H	0.157404	0.093170	-0.056550
	H344	H	0.167892	0.131688	-0.037509
	O345	O	1.180932	0.042431	1.187757
	H346	H	1.156706	0.029634	1.199936
	H347	H	1.184388	0.036014	1.197925
	O348	O	1.004094	1.044661	0.118481
	H349	H	1.007869	1.037039	0.112825
	H350	H	0.984409	1.049881	0.127413
	O351	O	0.325264	0.398612	0.584048
	H352	H	0.323342	0.417936	0.597966
	H353	H	0.307625	0.383391	0.568657
	O354	O	0.902967	0.112509	0.894759
	H355	H	0.907208	0.105886	0.876394
	H356	H	0.904735	0.117974	0.883447
	O357	O	0.500934	0.624911	0.396231
	H358	H	0.497627	0.613271	0.394148
	H359	H	0.518451	0.622154	0.396713
	O360	O	0.457213	0.374573	0.559550
	H361	H	0.443808	0.384969	0.555850
	H362	H	0.467745	0.385392	0.557915
	O363	O	0.205766	1.188202	1.052434
	H364	H	0.210754	1.206201	1.068904
	H365	H	0.211289	1.184415	1.082936
	O366	O	0.933488	1.129510	0.046681
	H367	H	0.935650	1.138345	0.029641
	H368	H	0.937081	1.144798	0.049088
	O369	O	-0.099391	0.856210	-0.000998
	H370	H	-0.100451	0.858396	0.001668
	H371	H	-0.101178	0.853214	0.003955
	O372	O	0.650786	0.482309	0.598136
	H373	H	0.642554	0.488764	0.585937
	H374	H	0.656149	0.480291	0.607468
	O375	O	0.392132	0.631697	0.420678
	H376	H	0.402167	0.642472	0.411529
	H377	H	0.404795	0.644415	0.433396
	O378	O	1.079763	0.941737	0.101515
	H379	H	1.064181	0.944716	0.094001
	H380	H	1.068768	0.940637	0.104321
	O381	O	1.077850	0.000452	-0.190756
	H382	H	1.089770	0.012580	-0.197041
	H383	H	1.090050	-0.006718	-0.173863
	O384	O	0.985274	0.782483	0.131873
	H385	H	0.983346	0.786053	0.137596
	H386	H	0.974656	0.776108	0.141805
	O387	O	-0.151750	-0.119736	-0.068595
	H388	H	-0.157602	-0.129866	-0.078115
	H389	H	-0.152410	-0.116368	-0.058655
	O390	O	-0.164819	0.956800	-0.143295
	H391	H	-0.158874	0.931402	-0.129825
	H392	H	-0.179352	0.955346	-0.154824
	O393	O	0.945623	1.057460	1.117553
	H394	H	0.932103	1.060216	1.107306
	H395	H	0.942099	1.065606	1.109531
	O396	O	0.428235	0.295660	0.410119
	H397	H	0.421026	0.296574	0.416786
	H398	H	0.428923	0.291804	0.405453
	O399	O	0.061507	1.171644	1.148010
	H400	H	0.024346	1.183452	1.136885
	H401	H	0.070549	1.152982	1.152621
	O402	O	0.665068	0.571338	0.388564
	H403	H	0.660947	0.560917	0.380576
	H404	H	0.668094	0.551465	0.385418
	O405	O	1.039978	0.998833	0.031239
	H406	H	1.041318	1.023943	0.022603
	H407	H	1.033685	0.986657	0.025285
	O408	O	0.878457	0.816096	0.096487
	H409	H	0.871230	0.809638	0.113649
	H410	H	0.883473	0.834394	0.101886
	O411	O	1.102877	-0.048904	0.921453
	H412	H	1.102254	-0.039341	0.937462
	H413	H	1.112927	-0.045437	0.907284
	O414	O	0.462487	0.578092	0.547617
	H415	H	0.466054	0.569871	0.550617
	H416	H	0.465381	0.574731	0.541290
	O417	O	0.453067	0.563707	0.368244
	H418	H	0.450607	0.553515	0.364189
	H419	H	0.446791	0.571940	0.364252
