data_Molecule from HDF5

_cell_length_a		16.219770
_cell_length_b		16.205029
_cell_length_c		16.272841
_cell_angle_alpha	89.375960
_cell_angle_beta	89.797116
_cell_angle_gamma	89.762997
_symmetry_space_group_name_H-M	'P 1'
_symmetry_Int_Tables_number		1

loop_
	_symmetry_equiv_pos_as_xyz
	x,y,z

loop_
	_atom_site_label
	_atom_site_type_symbol
	_atom_site_fract_x
	_atom_site_fract_y
	_atom_site_fract_z
	H0	H	0.401713	0.832702	0.720045
	H1	H	0.599964	0.160596	0.710180
	H2	H	0.603424	0.830501	0.288345
	H3	H	0.400958	0.157309	0.282290
	H4	H	0.715671	0.396800	0.836950
	H5	H	0.715081	0.591928	0.164030
	H6	H	0.284562	0.597953	0.836566
	H7	H	0.284548	0.392491	0.163536
	H8	H	0.837311	0.714147	0.401179
	H9	H	0.165419	0.706953	0.596493
	H10	H	0.837134	0.280394	0.600923
	H11	H	0.166055	0.283368	0.401097
	H12	H	0.836488	0.396042	0.716136
	H13	H	0.163828	0.595324	0.715354
	H14	H	0.835947	0.599155	0.284345
	H15	H	0.163689	0.396108	0.282307
	H16	H	0.401269	0.714493	0.837532
	H17	H	0.601304	0.708539	0.163983
	H18	H	0.598914	0.285606	0.835067
	H19	H	0.399237	0.275012	0.161956
	H20	H	0.718667	0.832088	0.403529
	H21	H	0.714723	0.159938	0.597316
	H22	H	0.286901	0.831557	0.603827
	H23	H	0.285599	0.158211	0.397341
	H24	H	0.897532	0.333907	0.220257
	H25	H	0.098766	0.660285	0.211953
	H26	H	0.101906	0.332356	0.785709
	H27	H	0.899347	0.659977	0.783656
	H28	H	0.219197	0.895574	0.338302
	H29	H	0.216134	0.092607	0.663297
	H30	H	0.785723	0.099737	0.337533
	H31	H	0.788372	0.896503	0.664401
	H32	H	0.338432	0.212409	0.898594
	H33	H	0.666112	0.207913	0.095148
	H34	H	0.337669	0.780138	0.102298
	H35	H	0.666600	0.780317	0.901909
	H36	H	0.339749	0.891741	0.220380
	H37	H	0.666323	0.092850	0.213263
	H38	H	0.339097	0.098427	0.781708
	H39	H	0.668092	0.899152	0.786836
	H40	H	0.901931	0.214894	0.337361
	H41	H	0.101164	0.209329	0.663784
	H42	H	0.102504	0.782869	0.336962
	H43	H	0.901142	0.779391	0.663476
	H44	H	0.216701	0.332342	0.901044
	H45	H	0.215778	0.657945	0.100461
	H46	H	0.789298	0.330089	0.100405
	H47	H	0.783424	0.658822	0.900051
	H48	H	0.406870	0.112762	0.589785
	H49	H	0.602546	0.876437	0.594550
	H50	H	0.585351	0.110890	0.403418
	H51	H	0.412275	0.879630	0.413882
	H52	H	0.583431	0.396344	0.115896
	H53	H	0.599616	0.578378	0.885204
	H54	H	0.397965	0.591760	0.120093
	H55	H	0.407077	0.406858	0.884761
	H56	H	0.116396	0.581564	0.399102
	H57	H	0.884987	0.583521	0.591708
	H58	H	0.114947	0.405681	0.586983
	H59	H	0.885255	0.413395	0.406103
	H60	H	0.117850	0.408117	0.598239
	H61	H	0.881002	0.591082	0.599687
	H62	H	0.121192	0.596523	0.400541
	H63	H	0.881185	0.399361	0.406040
	H64	H	0.406071	0.575574	0.113088
	H65	H	0.580668	0.586950	0.888608
	H66	H	0.600861	0.391641	0.121254
	H67	H	0.409694	0.404864	0.883573
	H68	H	0.596489	0.110933	0.414121
	H69	H	0.593226	0.877542	0.600706
	H70	H	0.411272	0.111925	0.592082
	H71	H	0.408253	0.877456	0.411538
	H72	H	0.905312	0.613997	0.094688
	H73	H	0.088299	0.379249	0.094286
	H74	H	0.093665	0.617863	0.894995
	H75	H	0.913446	0.379061	0.903970
	H76	H	0.094556	0.899466	0.618604
	H77	H	0.094804	0.087875	0.383916
	H78	H	0.905591	0.080714	0.615409
	H79	H	0.906964	0.907261	0.383098
	H80	H	0.620890	0.094898	0.906074
	H81	H	0.384105	0.082491	0.098116
	H82	H	0.624177	0.893805	0.100174
	H83	H	0.386306	0.907314	0.908972
	H84	H	0.616801	0.898752	0.083028
	H85	H	0.383753	0.091835	0.090564
	H86	H	0.617769	0.086599	0.907482
	H87	H	0.386722	0.905176	0.909976
	H88	H	0.916237	0.091026	0.615525
	H89	H	0.092060	0.089558	0.384832
	H90	H	0.096099	0.901545	0.617511
	H91	H	0.912250	0.908053	0.384744
	H92	H	0.079023	0.607951	0.908649
	H93	H	0.090612	0.379508	0.089233
	H94	H	0.908557	0.611608	0.089582
	H95	H	0.907875	0.380521	0.914471
	H96	H	0.410285	0.110851	0.587796
	H97	H	0.593172	0.880373	0.589191
	H98	H	0.599302	0.116507	0.399294
	H99	H	0.413076	0.877601	0.409224
	H100	H	0.596446	0.408937	0.115957
	H101	H	0.596025	0.599017	0.879664
	H102	H	0.417479	0.591251	0.114681
	H103	H	0.406426	0.403961	0.883598
	H104	H	0.114607	0.588694	0.413232
	H105	H	0.882746	0.594578	0.588318
	H106	H	0.119794	0.397396	0.593326
	H107	H	0.887443	0.405723	0.417766
	H108	H	0.901672	0.614346	0.088830
	H109	H	0.093871	0.377323	0.094013
	H110	H	0.099221	0.612552	0.916074
	H111	H	0.901743	0.374845	0.905788
	H112	H	0.092681	0.902118	0.617189
	H113	H	0.094427	0.091140	0.383432
	H114	H	0.902055	0.094142	0.621547
	H115	H	0.911239	0.902783	0.382836
	H116	H	0.619965	0.089776	0.899292
	H117	H	0.388425	0.081438	0.086574
	H118	H	0.616677	0.911294	0.097363
	H119	H	0.387595	0.907455	0.910559
	C120	C	0.380027	0.004125	0.621909
	C121	C	0.623690	0.987176	0.621725
	C122	C	0.624082	0.004061	0.378147
	C123	C	0.380846	0.985898	0.379628
	C124	C	0.622381	0.372344	0.008784
	C125	C	0.621652	0.616063	0.992097
	C126	C	0.377895	0.617737	0.008612
	C127	C	0.378345	0.373604	0.991489
	C128	C	0.008865	0.619113	0.376700
	C129	C	0.991708	0.617371	0.621073
	C130	C	0.009484	0.373878	0.622795
	C131	C	0.992624	0.376051	0.379291
	C132	C	0.877550	0.504875	0.121590
	C133	C	0.120101	0.487122	0.120944
	C134	C	0.121313	0.504654	0.878191
	C135	C	0.877952	0.486535	0.878403
	C136	C	0.124160	0.873040	0.509897
	C137	C	0.123094	0.117255	0.491867
	C138	C	0.879261	0.118958	0.509200
	C139	C	0.880784	0.875520	0.491767
	C140	C	0.511091	0.119291	0.875704
	C141	C	0.493613	0.114766	0.119979
	C142	C	0.511077	0.871814	0.123547
	C143	C	0.494620	0.876052	0.879848
	C144	C	0.381822	0.881326	0.680564
	C145	C	0.620385	0.111223	0.674129
	C146	C	0.623193	0.880248	0.325069
	C147	C	0.381439	0.108529	0.321177
	C148	C	0.677581	0.376621	0.885731
	C149	C	0.677288	0.612593	0.115292
	C150	C	0.322408	0.617963	0.885761
	C151	C	0.322379	0.373128	0.114321
	C152	C	0.886081	0.675967	0.380222
	C153	C	0.115862	0.670786	0.617699
	C154	C	0.886049	0.318221	0.621205
	C155	C	0.116325	0.320560	0.380684
	C156	C	0.885922	0.375568	0.678579
	C157	C	0.114978	0.614882	0.676572
	C158	C	0.885350	0.618627	0.322226
	C159	C	0.115090	0.376870	0.321503
	C160	C	0.380121	0.676088	0.886136
	C161	C	0.620831	0.670832	0.115161
	C162	C	0.619466	0.321224	0.884700
	C163	C	0.379608	0.314604	0.113573
	C164	C	0.680748	0.881100	0.382257
	C165	C	0.677263	0.110991	0.617581
	C166	C	0.324619	0.880917	0.623095
	C167	C	0.324051	0.109029	0.378738
	C168	C	0.878906	0.382143	0.180388
	C169	C	0.118596	0.610714	0.175143
	C170	C	0.121062	0.381436	0.823329
	C171	C	0.879346	0.610630	0.822017
	C172	C	0.180923	0.875521	0.386961
	C173	C	0.178231	0.113568	0.614790
	C174	C	0.823717	0.118868	0.386344
	C175	C	0.825545	0.876416	0.615132
	C176	C	0.387554	0.174908	0.877873
	C177	C	0.616939	0.170643	0.116672
	C178	C	0.387245	0.816842	0.122547
	C179	C	0.617899	0.819292	0.881693
	C180	C	0.388226	0.872603	0.181312
	C181	C	0.617083	0.113393	0.175279
	C182	C	0.387838	0.118012	0.819976
	C183	C	0.618407	0.877886	0.824091
	C184	C	0.881674	0.176158	0.386244
	C185	C	0.121126	0.171683	0.614919
	C186	C	0.122809	0.819467	0.386260
	C187	C	0.882041	0.818447	0.614828
	C188	C	0.178432	0.381465	0.880694
	C189	C	0.176657	0.609770	0.119400
	C190	C	0.824848	0.380245	0.120667
	C191	C	0.821485	0.609976	0.879549
	C192	C	0.402860	0.089578	0.597175
	C193	C	0.602355	0.900434	0.600977
	C194	C	0.600465	0.090630	0.399227
	C195	C	0.404393	0.900203	0.404538
	C196	C	0.600126	0.392918	0.095363
	C197	C	0.598752	0.594460	0.906755
	C198	C	0.400468	0.593291	0.093721
	C199	C	0.400980	0.398145	0.906028
	C200	C	0.095124	0.595845	0.398168
	C201	C	0.905415	0.596114	0.599443
	C202	C	0.095361	0.396966	0.599782
	C203	C	0.906668	0.399410	0.403133
	C204	C	0.898795	0.590864	0.097893
	C205	C	0.097473	0.401073	0.099007
	C206	C	0.097603	0.590530	0.900268
	C207	C	0.900873	0.400521	0.901278
	C208	C	0.101222	0.894558	0.595297
	C209	C	0.100311	0.095919	0.406297
	C210	C	0.901478	0.095546	0.595132
	C211	C	0.903440	0.899083	0.405965
	C212	C	0.597253	0.096836	0.897740
	C213	C	0.407686	0.092035	0.098172
	C214	C	0.596828	0.894521	0.100256
	C215	C	0.408977	0.899593	0.902969
	Zn216	Zn	0.503094	-0.003228	0.749296
	Zn217	Zn	0.502366	-0.006146	0.250658
	Zn218	Zn	0.749784	0.494058	0.000833
	Zn219	Zn	0.249063	0.495400	0.000682
	Zn220	Zn	0.001758	0.746639	0.500218
	Zn221	Zn	0.001908	0.246721	0.500663
	Zn222	Zn	-0.000058	0.495928	0.750011
	Zn223	Zn	-0.000620	0.497052	0.248874
	Zn224	Zn	0.501742	0.745535	0.001188
	Zn225	Zn	0.501467	0.245562	-0.001071
	Zn226	Zn	0.751533	-0.003644	0.500755
	Zn227	Zn	0.251861	-0.005176	0.500793
	N228	N	0.415617	0.959118	0.680095
	N229	N	0.587725	0.033099	0.676825
	N230	N	0.588736	0.958041	0.322558
	N231	N	0.416063	0.030942	0.321771
	N232	N	0.679914	0.407312	0.964178
	N233	N	0.677961	0.579152	0.037909
	N234	N	0.320588	0.582680	0.963041
	N235	N	0.321480	0.409198	0.037312
	N236	N	0.964152	0.676541	0.413359
	N237	N	0.038287	0.672419	0.583827
	N238	N	0.963981	0.316862	0.587335
	N239	N	0.039024	0.320071	0.416061
	N240	N	0.963597	0.409262	0.679725
	N241	N	0.036817	0.582274	0.678713
	N242	N	0.962764	0.583995	0.319989
	N243	N	0.037088	0.410584	0.320519
	N244	N	0.413743	0.676116	0.963547
	N245	N	0.586806	0.672978	0.037779
	N246	N	0.585756	0.318516	0.962337
	N247	N	0.413436	0.314818	0.036205
	N248	N	0.681487	0.959226	0.414353
	N249	N	0.679517	0.032737	0.585867
	N250	N	0.323492	0.958233	0.587425
	N251	N	0.323265	0.031457	0.414207
	N252	N	0.911157	0.460376	0.181071
	N253	N	0.084106	0.533371	0.176150
	N254	N	0.086335	0.458988	0.821692
	N255	N	0.913715	0.532735	0.821064
	N256	N	0.182128	0.908019	0.464695
	N257	N	0.179782	0.080624	0.537270
	N258	N	0.822064	0.083953	0.463907
	N259	N	0.824581	0.911317	0.537597
	N260	N	0.465135	0.175927	0.911718
	N261	N	0.539073	0.171665	0.082831
	N262	N	0.464568	0.816153	0.087454
	N263	N	0.539841	0.818003	0.915524
	N264	N	0.466286	0.905800	0.182236
	N265	N	0.539606	0.079385	0.177326
	N266	N	0.465693	0.084298	0.818486
	N267	N	0.540785	0.912501	0.822906
	N268	N	0.915562	0.176232	0.463517
	N269	N	0.087512	0.174111	0.537408
	N270	N	0.088229	0.817641	0.463497
	N271	N	0.915766	0.817760	0.537144
	N272	N	0.178952	0.459182	0.914089
	N273	N	0.177834	0.531888	0.086492
	N274	N	0.823501	0.457655	0.084935
	N275	N	0.820628	0.532193	0.913931
	O276	O	0.598148	0.479302	0.473804
	H277	H	0.599238	0.481061	0.477716
	H278	H	0.583018	0.487097	0.465305
	O279	O	0.449706	0.532974	0.467820
	H280	H	0.449496	0.518469	0.471970
	H281	H	0.454079	0.535655	0.469544
	O282	O	1.027636	0.914807	-0.057702
	H283	H	1.030427	0.915691	-0.050921
	H284	H	1.023664	0.913707	-0.066237
	O285	O	1.051157	0.112649	1.062684
	H286	H	1.056232	0.123705	1.063623
	H287	H	1.038958	0.111120	1.069311
	O288	O	0.426221	0.537639	0.490133
	H289	H	0.439933	0.539264	0.495070
	H290	H	0.413467	0.545839	0.492818
	O291	O	0.532969	0.549277	0.471858
	H292	H	0.514137	0.549914	0.461423
	H293	H	0.544457	0.553910	0.476747
	O294	O	0.559179	0.450827	0.425927
	H295	H	0.581974	0.448046	0.416789
	H296	H	0.552957	0.457028	0.431974
	O297	O	0.055466	-0.113069	1.018917
	H298	H	0.058253	-0.108699	1.017136
	H299	H	0.066738	-0.110991	1.028626
	O300	O	0.398469	0.515469	0.404081
	H301	H	0.385178	0.522532	0.394755
	H302	H	0.398349	0.505894	0.412420
	O303	O	1.129662	0.978516	0.029190
	H304	H	1.125468	0.979738	0.023857
	H305	H	1.134831	0.980601	0.040308
	O306	O	-0.014841	1.068027	0.960327
	H307	H	-0.003625	1.074566	0.966329
	H308	H	-0.017318	1.043919	0.972163
	O309	O	0.489141	0.584496	0.554961
	H310	H	0.480350	0.597997	0.544656
	H311	H	0.488490	0.593360	0.562883
	O312	O	-0.106420	-0.029537	0.071639
	H313	H	-0.114900	-0.022189	0.073433
	H314	H	-0.110241	-0.034596	0.071875
	O315	O	0.412042	-0.508508	0.456420
	H316	H	0.399658	-0.514691	0.467425
	H317	H	0.412743	-0.517291	0.472354
	O318	O	1.008430	0.996597	0.922349
	H319	H	1.000652	1.000755	0.915505
	H320	H	1.007256	1.006794	0.921686
	O321	O	0.037469	-0.058933	0.919210
	H322	H	0.057511	-0.048433	0.905148
	H323	H	0.044664	-0.070728	0.916101
	O324	O	0.428058	0.503480	0.494991
	H325	H	0.436165	0.506122	0.485042
	H326	H	0.423349	0.509117	0.501039
	O327	O	-0.117063	-0.065584	0.132182
	H328	H	-0.122790	-0.069218	0.125969
	H329	H	-0.118237	-0.074539	0.119927
	O330	O	0.603960	0.550168	0.497353
	H331	H	0.608835	0.541557	0.494927
	H332	H	0.598687	0.562457	0.500457
	O333	O	-0.095928	1.131195	0.934994
	H334	H	-0.100590	1.128528	0.925662
	H335	H	-0.101088	1.146804	0.932840
	O336	O	-0.008074	-0.072180	0.003391
	H337	H	-0.016850	-0.070384	-0.002318
	H338	H	-0.007045	-0.068788	-0.009326
	O339	O	0.523337	0.500006	0.496323
	H340	H	0.534586	0.500078	0.488746
	H341	H	0.522981	0.510795	0.498357
	O342	O	0.998631	0.906052	1.016681
	H343	H	1.008356	0.911047	1.018192
	H344	H	1.011107	0.903643	1.014524
	O345	O	1.086004	2.041106	0.023665
	H346	H	1.092908	2.051067	0.022573
	H347	H	1.087545	2.034406	0.033105
	O348	O	0.567043	0.445334	0.518115
	H349	H	0.574726	0.443180	0.527051
	H350	H	0.574514	0.440804	0.501324
	O351	O	0.410078	0.552061	0.410335
	H352	H	0.406138	0.548461	0.417829
	H353	H	0.401774	0.527170	0.411269
	O354	O	0.551462	0.513282	0.501790
	H355	H	0.559417	0.516978	0.486854
	H356	H	0.542313	0.519675	0.493494
	O357	O	1.052464	0.055241	1.065512
	H358	H	1.051842	0.046577	1.077633
	H359	H	1.044717	0.058690	1.068859
	O360	O	0.429045	0.383741	0.647230
	H361	H	0.436118	0.397187	0.640170
	H362	H	0.437140	0.385640	0.646272
	O363	O	0.505128	0.465090	0.436590
	H364	H	0.505467	0.466918	0.423871
	H365	H	0.494989	0.455622	0.438939
	O366	O	0.979411	0.965768	0.973680
	H367	H	0.983569	0.963673	0.973732
	H368	H	0.987199	0.961944	0.980568
	O369	O	1.003968	-0.093458	1.012713
	H370	H	0.993132	-0.097877	1.003354
	H371	H	0.994099	-0.101652	1.016590
	O372	O	-0.053898	0.080282	-0.050893
	H373	H	-0.046468	0.072695	-0.056885
	H374	H	-0.043455	0.070575	-0.053664
	O375	O	1.061489	0.052102	0.064893
	H376	H	1.056302	0.058307	0.065794
	H377	H	1.060423	0.047107	0.069680
	O378	O	0.390867	0.365758	0.574786
	H379	H	0.400626	0.365563	0.576632
	H380	H	0.386095	0.351711	0.583342
	O381	O	1.060292	0.976827	-0.036767
	H382	H	1.073754	0.988458	-0.024024
	H383	H	1.055023	0.981226	-0.042066
