data_Molecule from HDF5

_cell_length_a		16.280678
_cell_length_b		16.227529
_cell_length_c		16.170988
_cell_angle_alpha	90.400247
_cell_angle_beta	89.198231
_cell_angle_gamma	89.327604
_symmetry_space_group_name_H-M	'P 1'
_symmetry_Int_Tables_number		1

loop_
	_symmetry_equiv_pos_as_xyz
	x,y,z

loop_
	_atom_site_label
	_atom_site_type_symbol
	_atom_site_fract_x
	_atom_site_fract_y
	_atom_site_fract_z
	H0	H	0.404137	0.842107	0.712097
	H1	H	0.594570	0.171130	0.709716
	H2	H	0.605862	0.842795	0.280721
	H3	H	0.405692	0.172595	0.287997
	H4	H	0.723341	0.403142	0.834419
	H5	H	0.713794	0.605290	0.162765
	H6	H	0.289954	0.607509	0.832214
	H7	H	0.287324	0.410367	0.161794
	H8	H	0.840137	0.724027	0.400821
	H9	H	0.167653	0.720443	0.594156
	H10	H	0.838285	0.297166	0.597644
	H11	H	0.164830	0.288129	0.394136
	H12	H	0.840018	0.411982	0.714846
	H13	H	0.168652	0.603899	0.709518
	H14	H	0.838563	0.605569	0.287737
	H15	H	0.166023	0.404738	0.280734
	H16	H	0.406099	0.720880	0.832422
	H17	H	0.597395	0.719990	0.162603
	H18	H	0.608723	0.289108	0.833456
	H19	H	0.406073	0.297887	0.163697
	H20	H	0.722875	0.843823	0.394155
	H21	H	0.713216	0.170340	0.598244
	H22	H	0.288739	0.841000	0.597193
	H23	H	0.285442	0.170174	0.399770
	H24	H	0.904530	0.342016	0.211545
	H25	H	0.096189	0.670551	0.211580
	H26	H	0.107919	0.342697	0.780510
	H27	H	0.905201	0.671603	0.787972
	H28	H	0.221922	0.904333	0.333411
	H29	H	0.213071	0.106465	0.663129
	H30	H	0.789406	0.105595	0.332473
	H31	H	0.787532	0.910400	0.661607
	H32	H	0.341746	0.226117	0.901250
	H33	H	0.669501	0.218840	0.093815
	H34	H	0.339757	0.795457	0.098697
	H35	H	0.666978	0.788671	0.893948
	H36	H	0.339878	0.912352	0.214065
	H37	H	0.669222	0.102683	0.209474
	H38	H	0.338053	0.106840	0.788470
	H39	H	0.666204	0.903526	0.777080
	H40	H	0.904261	0.221287	0.332158
	H41	H	0.095150	0.220056	0.662719
	H42	H	0.106199	0.790187	0.332471
	H43	H	0.903014	0.795779	0.661689
	H44	H	0.223157	0.343163	0.895154
	H45	H	0.214409	0.670930	0.097574
	H46	H	0.790286	0.341520	0.096183
	H47	H	0.786640	0.669244	0.900322
	H48	H	0.403004	0.125537	0.598541
	H49	H	0.593727	0.892120	0.580299
	H50	H	0.592802	0.126583	0.393269
	H51	H	0.415001	0.889846	0.402738
	H52	H	0.587743	0.412184	0.113579
	H53	H	0.590146	0.608280	0.878489
	H54	H	0.412225	0.602088	0.113180
	H55	H	0.418699	0.420016	0.883690
	H56	H	0.116757	0.590386	0.405027
	H57	H	0.891076	0.596615	0.586749
	H58	H	0.119982	0.410043	0.583925
	H59	H	0.885752	0.410776	0.413628
	H60	H	0.119419	0.414737	0.587818
	H61	H	0.886608	0.598784	0.602251
	H62	H	0.122733	0.598754	0.395569
	H63	H	0.887248	0.422936	0.403348
	H64	H	0.405505	0.604249	0.116759
	H65	H	0.611756	0.595228	0.876267
	H66	H	0.601810	0.406202	0.119078
	H67	H	0.417791	0.408913	0.879180
	H68	H	0.588258	0.119374	0.412569
	H69	H	0.603622	0.886929	0.587520
	H70	H	0.410755	0.122323	0.592628
	H71	H	0.412903	0.890125	0.407491
	H72	H	0.909156	0.622115	0.091527
	H73	H	0.094957	0.385799	0.100861
	H74	H	0.089411	0.623137	0.903278
	H75	H	0.909808	0.387947	0.906150
	H76	H	0.082827	0.913861	0.610988
	H77	H	0.109535	0.094200	0.377012
	H78	H	0.906026	0.095865	0.613554
	H79	H	0.903997	0.911200	0.375833
	H80	H	0.616149	0.087385	0.906080
	H81	H	0.389084	0.097792	0.094663
	H82	H	0.622151	0.912725	0.093084
	H83	H	0.389467	0.921995	0.907596
	H84	H	0.621473	0.906929	0.085324
	H85	H	0.385516	0.107277	0.098012
	H86	H	0.623032	0.097995	0.891058
	H87	H	0.383562	0.913438	0.899634
	H88	H	0.911424	0.105482	0.614023
	H89	H	0.088418	0.085803	0.385317
	H90	H	0.099038	0.901106	0.620233
	H91	H	0.914205	0.923697	0.382625
	H92	H	0.100949	0.623017	0.910656
	H93	H	0.088115	0.394651	0.078641
	H94	H	0.904208	0.623750	0.092423
	H95	H	0.917432	0.388973	0.900939
	H96	H	0.401043	0.122897	0.588187
	H97	H	0.590757	0.887794	0.592640
	H98	H	0.607399	0.126611	0.408222
	H99	H	0.410230	0.889059	0.404127
	H100	H	0.601169	0.421572	0.115160
	H101	H	0.591045	0.585056	0.885265
	H102	H	0.405720	0.597575	0.113386
	H103	H	0.408668	0.416268	0.879043
	H104	H	0.120213	0.602904	0.408308
	H105	H	0.884684	0.611029	0.591513
	H106	H	0.121238	0.408589	0.589672
	H107	H	0.881274	0.409397	0.398525
	H108	H	0.908184	0.624521	0.095212
	H109	H	0.110236	0.387139	0.082014
	H110	H	0.101565	0.626858	0.897525
	H111	H	0.917433	0.390483	0.910009
	H112	H	0.102619	0.923165	0.614950
	H113	H	0.090507	0.108581	0.378849
	H114	H	0.900472	0.105914	0.617133
	H115	H	0.920775	0.908244	0.379642
	H116	H	0.621630	0.105536	0.908724
	H117	H	0.389412	0.105683	0.087979
	H118	H	0.618458	0.915944	0.084340
	H119	H	0.387656	0.909195	0.911918
	C120	C	0.378245	0.014838	0.620847
	C121	C	0.622457	0.997695	0.617088
	C122	C	0.626109	0.015657	0.375080
	C123	C	0.382795	0.998488	0.377002
	C124	C	0.627149	0.383666	0.006882
	C125	C	0.624281	0.626370	0.989293
	C126	C	0.380273	0.630050	0.005714
	C127	C	0.384473	0.386768	0.989299
	C128	C	0.011868	0.627424	0.375884
	C129	C	0.995554	0.629640	0.620287
	C130	C	0.011725	0.385017	0.618281
	C131	C	0.993173	0.384138	0.374821
	C132	C	0.879550	0.514978	0.121021
	C133	C	0.123873	0.497909	0.117014
	C134	C	0.127795	0.515663	0.874252
	C135	C	0.884383	0.497699	0.877622
	C136	C	0.125510	0.883673	0.506097
	C137	C	0.122702	0.126368	0.489126
	C138	C	0.879038	0.129898	0.505976
	C139	C	0.883006	0.886551	0.488537
	C140	C	0.512103	0.127727	0.875996
	C141	C	0.496492	0.129930	0.120183
	C142	C	0.512254	0.885238	0.118477
	C143	C	0.494680	0.883867	0.875061
	C144	C	0.382594	0.891099	0.675134
	C145	C	0.616648	0.121747	0.672523
	C146	C	0.625876	0.891988	0.318507
	C147	C	0.384882	0.122839	0.324346
	C148	C	0.684806	0.383865	0.883303
	C149	C	0.676855	0.624986	0.113471
	C150	C	0.327109	0.627379	0.881708
	C151	C	0.326613	0.389826	0.112891
	C152	C	0.888720	0.684787	0.380042
	C153	C	0.118864	0.683196	0.615588
	C154	C	0.887682	0.333483	0.617860
	C155	C	0.116157	0.326890	0.374966
	C156	C	0.888787	0.390404	0.676283
	C157	C	0.119416	0.625164	0.672830
	C158	C	0.887898	0.625934	0.323880
	C159	C	0.116529	0.384551	0.318057
	C160	C	0.384957	0.684037	0.881739
	C161	C	0.619222	0.682340	0.113221
	C162	C	0.627531	0.327280	0.882872
	C163	C	0.385590	0.333745	0.113659
	C164	C	0.683817	0.892482	0.375065
	C165	C	0.675656	0.121339	0.616885
	C166	C	0.325613	0.890738	0.617499
	C167	C	0.324909	0.121539	0.379785
	C168	C	0.883478	0.391080	0.174708
	C169	C	0.118352	0.621591	0.173614
	C170	C	0.127427	0.391948	0.818266
	C171	C	0.885182	0.621713	0.824225
	C172	C	0.183061	0.884531	0.382389
	C173	C	0.175526	0.125520	0.613566
	C174	C	0.825902	0.126571	0.381785
	C175	C	0.825844	0.889683	0.612316
	C176	C	0.389540	0.185996	0.880878
	C177	C	0.620331	0.182291	0.115473
	C178	C	0.388698	0.832456	0.118220
	C179	C	0.617770	0.826520	0.874158
	C180	C	0.388784	0.890780	0.175492
	C181	C	0.620095	0.124512	0.172813
	C182	C	0.387969	0.126945	0.824410
	C183	C	0.617512	0.884120	0.816494
	C184	C	0.882999	0.183997	0.381606
	C185	C	0.117054	0.182399	0.613415
	C186	C	0.125515	0.827909	0.381962
	C187	C	0.883514	0.832887	0.612505
	C188	C	0.185024	0.392352	0.875178
	C189	C	0.177237	0.621668	0.117021
	C190	C	0.826801	0.390889	0.117198
	C191	C	0.826384	0.620828	0.880375
	C192	C	0.398855	0.101166	0.599426
	C193	C	0.602038	0.911220	0.593714
	C194	C	0.602844	0.101953	0.397939
	C195	C	0.405838	0.912152	0.398561
	C196	C	0.603753	0.406636	0.093452
	C197	C	0.603820	0.603068	0.902421
	C198	C	0.401611	0.607876	0.092104
	C199	C	0.408060	0.408598	0.902976
	C200	C	0.097758	0.604311	0.396812
	C201	C	0.909843	0.608459	0.599630
	C202	C	0.097881	0.405167	0.594098
	C203	C	0.906974	0.407536	0.398431
	C204	C	0.900659	0.601058	0.099319
	C205	C	0.103742	0.411494	0.093851
	C206	C	0.104297	0.601978	0.897176
	C207	C	0.908102	0.411529	0.899237
	C208	C	0.101889	0.906194	0.592902
	C209	C	0.102276	0.102983	0.402759
	C210	C	0.899722	0.108753	0.592541
	C211	C	0.906203	0.908025	0.401786
	C212	C	0.598162	0.103885	0.895938
	C213	C	0.410317	0.109773	0.099725
	C214	C	0.598262	0.905702	0.094616
	C215	C	0.409094	0.907842	0.899395
	Zn216	Zn	0.501921	0.005760	0.746662
	Zn217	Zn	0.504697	0.007396	0.248177
	Zn218	Zn	0.753956	0.505186	-0.001795
	Zn219	Zn	0.254200	0.507398	-0.003427
	Zn220	Zn	0.003645	0.757262	0.497101
	Zn221	Zn	0.001696	0.256128	0.496410
	Zn222	Zn	0.004753	0.506887	0.747959
	Zn223	Zn	0.002112	0.505657	0.247071
	Zn224	Zn	0.503422	0.755884	-0.002917
	Zn225	Zn	0.505559	0.257455	-0.002162
	Zn226	Zn	0.752987	0.007117	0.497019
	Zn227	Zn	0.251975	0.005423	0.498154
	N228	N	0.414625	0.969322	0.677525
	N229	N	0.584136	0.043893	0.672688
	N230	N	0.590646	0.969556	0.318453
	N231	N	0.420292	0.045398	0.322567
	N232	N	0.684663	0.418220	0.961371
	N233	N	0.679840	0.590553	0.035370
	N234	N	0.323896	0.594696	0.959847
	N235	N	0.325889	0.422143	0.034491
	N236	N	0.966662	0.685643	0.411805
	N237	N	0.040945	0.686323	0.583719
	N238	N	0.965031	0.330036	0.582502
	N239	N	0.038302	0.326484	0.409405
	N240	N	0.967063	0.421746	0.676609
	N241	N	0.041768	0.592523	0.675911
	N242	N	0.965347	0.591035	0.320839
	N243	N	0.039004	0.419440	0.317902
	N244	N	0.417197	0.685923	0.959999
	N245	N	0.587340	0.683341	0.034790
	N246	N	0.592235	0.327082	0.960711
	N247	N	0.420949	0.331712	0.035778
	N248	N	0.684165	0.970291	0.409386
	N249	N	0.679551	0.043174	0.583244
	N250	N	0.322778	0.968548	0.584607
	N251	N	0.323607	0.043121	0.411788
	N252	N	0.915724	0.469042	0.177178
	N253	N	0.085908	0.543643	0.173738
	N254	N	0.092656	0.469651	0.817366
	N255	N	0.920556	0.544164	0.822465
	N256	N	0.182975	0.918469	0.460690
	N257	N	0.179135	0.091384	0.535427
	N258	N	0.823355	0.093704	0.459940
	N259	N	0.825454	0.922336	0.534035
	N260	N	0.467846	0.186760	0.911774
	N261	N	0.542600	0.185677	0.083375
	N262	N	0.466382	0.829046	0.083392
	N263	N	0.540466	0.826385	0.909964
	N264	N	0.466618	0.922815	0.175791
	N265	N	0.542052	0.092683	0.175975
	N266	N	0.465106	0.091169	0.821313
	N267	N	0.539994	0.919224	0.816888
	N268	N	0.915338	0.186328	0.459800
	N269	N	0.085061	0.183186	0.535050
	N270	N	0.090329	0.827443	0.460029
	N271	N	0.918419	0.830663	0.534422
	N272	N	0.185221	0.470325	0.909301
	N273	N	0.180653	0.543868	0.082516
	N274	N	0.824184	0.468960	0.084644
	N275	N	0.825872	0.542800	0.913066
	O276	O	0.110526	0.005947	-0.116159
	H277	H	0.117042	-0.000255	-0.112036
	H278	H	0.105644	-0.002811	-0.120909
	O279	O	0.508889	0.550057	0.502319
	H280	H	0.504282	0.543447	0.491722
	H281	H	0.507794	0.544824	0.494151
	O282	O	0.421520	0.524978	0.530897
	H283	H	0.425302	0.534000	0.526862
	H284	H	0.409587	0.526113	0.538976
	O285	O	1.015783	-0.005522	1.002110
	H286	H	1.012507	-0.003364	0.996158
	H287	H	1.014505	-0.007291	1.003453
	O288	O	1.053244	0.053734	-0.031949
	H289	H	1.051215	0.062010	-0.034377
	H290	H	1.051543	0.054197	-0.029765
	O291	O	0.542136	0.530655	0.448253
	H292	H	0.544786	0.540138	0.431006
	H293	H	0.543038	0.532254	0.453014
	O294	O	0.990754	-0.004001	0.923064
	H295	H	0.997263	-0.003680	0.926245
	H296	H	0.997384	-0.004196	0.914322
	O297	O	-0.019203	0.020918	0.056143
	H298	H	-0.018717	0.022855	0.058531
	H299	H	-0.031546	0.021813	0.057193
	O300	O	0.500175	0.423090	0.506252
	H301	H	0.499857	0.415906	0.507014
	H302	H	0.496214	0.425704	0.503777
	O303	O	0.442972	0.435700	0.506465
	H304	H	0.457160	0.427176	0.507829
	H305	H	0.428553	0.430133	0.515624
	O306	O	1.014150	-0.040835	-0.035889
	H307	H	1.014987	-0.037077	-0.035589
	H308	H	1.013143	-0.042589	-0.031620
	O309	O	-0.034729	-0.011939	1.033399
	H310	H	-0.023390	-0.010009	1.040561
	H311	H	-0.033505	-0.008215	1.030018
	O312	O	1.083290	0.954084	0.950553
	H313	H	1.090736	0.958537	0.939593
	H314	H	1.090612	0.963657	0.941473
	O315	O	0.564551	0.463262	0.437617
	H316	H	0.560486	0.461529	0.440385
	H317	H	0.554779	0.459678	0.428317
	O318	O	0.449495	0.497944	0.535972
	H319	H	0.452885	0.503051	0.542169
	H320	H	0.443148	0.495032	0.545229
	O321	O	0.042674	0.944074	0.952984
	H322	H	0.043003	0.945865	0.956000
	H323	H	0.042601	0.935094	0.949563
	O324	O	0.532518	0.558093	0.557657
	H325	H	0.541429	0.567291	0.561330
	H326	H	0.536184	0.559774	0.557836
	O327	O	0.527779	0.512490	0.528945
	H328	H	0.536937	0.516593	0.527347
	H329	H	0.534169	0.510867	0.527943
	O330	O	0.511330	0.474988	0.432156
	H331	H	0.512673	0.477450	0.421930
	H332	H	0.510502	0.468590	0.433383
	O333	O	0.540287	0.622368	0.580945
	H334	H	0.549112	0.626953	0.586957
	H335	H	0.547340	0.630017	0.575827
	O336	O	0.546715	0.454967	0.407991
	H337	H	0.542143	0.439290	0.411525
	H338	H	0.558990	0.448558	0.400621
	O339	O	1.027503	0.974697	0.017239
	H340	H	1.021779	0.970212	0.009336
	H341	H	1.025462	0.968171	0.022842
	O342	O	0.482015	0.392357	0.539032
	H343	H	0.479744	0.393074	0.543182
	H344	H	0.482901	0.391399	0.545406
	O345	O	0.468757	0.493381	0.603714
	H346	H	0.464944	0.482128	0.606518
	H347	H	0.464712	0.488320	0.602930
	O348	O	0.024773	-0.031398	0.034604
	H349	H	0.027448	-0.035382	0.030300
	H350	H	0.033195	-0.031838	0.024626
	O351	O	0.048573	0.978882	0.994592
	H352	H	0.037235	0.969627	0.996806
	H353	H	0.058344	0.972646	1.005373
	O354	O	0.436023	0.536928	0.482136
	H355	H	0.435568	0.524202	0.480550
	H356	H	0.443195	0.545366	0.477829
	O357	O	0.014775	1.014367	0.962140
	H358	H	0.025588	1.004979	0.948109
	H359	H	0.016848	1.013763	0.967003
