data_Molecule from HDF5

_cell_length_a		16.343597
_cell_length_b		16.424703
_cell_length_c		16.290145
_cell_angle_alpha	89.645073
_cell_angle_beta	90.091420
_cell_angle_gamma	89.813504
_symmetry_space_group_name_H-M	'P 1'
_symmetry_Int_Tables_number		1

loop_
	_symmetry_equiv_pos_as_xyz
	x,y,z

loop_
	_atom_site_label
	_atom_site_type_symbol
	_atom_site_fract_x
	_atom_site_fract_y
	_atom_site_fract_z
	H0	H	0.399835	0.839633	0.713195
	H1	H	0.603350	0.160451	0.714749
	H2	H	0.602294	0.840050	0.280895
	H3	H	0.395300	0.159645	0.274363
	H4	H	0.714797	0.399680	0.832659
	H5	H	0.717252	0.598975	0.157381
	H6	H	0.283145	0.603809	0.833417
	H7	H	0.280198	0.396239	0.156147
	H8	H	0.841072	0.724167	0.388036
	H9	H	0.160899	0.717530	0.597415
	H10	H	0.837848	0.283760	0.596435
	H11	H	0.159497	0.283052	0.390433
	H12	H	0.836933	0.401518	0.710166
	H13	H	0.160572	0.600508	0.711229
	H14	H	0.838415	0.605464	0.275289
	H15	H	0.160234	0.399795	0.277193
	H16	H	0.396608	0.721543	0.835084
	H17	H	0.603678	0.716387	0.158337
	H18	H	0.604553	0.279853	0.835732
	H19	H	0.395971	0.280175	0.156460
	H20	H	0.722599	0.843106	0.390630
	H21	H	0.720038	0.160669	0.599182
	H22	H	0.277985	0.843250	0.603020
	H23	H	0.280776	0.161557	0.391875
	H24	H	0.894724	0.341806	0.217172
	H25	H	0.102915	0.661318	0.212865
	H26	H	0.100095	0.339729	0.777938
	H27	H	0.897044	0.662382	0.776246
	H28	H	0.218994	0.900484	0.334679
	H29	H	0.217617	0.103980	0.656321
	H30	H	0.778427	0.107631	0.334035
	H31	H	0.782976	0.898515	0.655299
	H32	H	0.340487	0.222526	0.889133
	H33	H	0.660192	0.220503	0.102312
	H34	H	0.340373	0.779801	0.102688
	H35	H	0.660813	0.782901	0.895996
	H36	H	0.340116	0.895916	0.218016
	H37	H	0.661479	0.100958	0.215013
	H38	H	0.339853	0.104913	0.775306
	H39	H	0.661696	0.898313	0.779193
	H40	H	0.893959	0.222985	0.333742
	H41	H	0.101781	0.218962	0.655757
	H42	H	0.106363	0.783123	0.334791
	H43	H	0.895061	0.779959	0.653811
	H44	H	0.221474	0.341968	0.889890
	H45	H	0.220790	0.659608	0.099093
	H46	H	0.780743	0.340170	0.099659
	H47	H	0.780187	0.661322	0.892430
	H48	H	0.406749	0.117352	0.589276
	H49	H	0.594536	0.885684	0.588484
	H50	H	0.585440	0.112158	0.411623
	H51	H	0.409285	0.886376	0.406712
	H52	H	0.595589	0.413985	0.110974
	H53	H	0.599935	0.593263	0.877078
	H54	H	0.411264	0.587482	0.109772
	H55	H	0.411411	0.415179	0.882651
	H56	H	0.116122	0.592892	0.399668
	H57	H	0.885921	0.591498	0.581038
	H58	H	0.114018	0.411844	0.585913
	H59	H	0.883071	0.412740	0.398849
	H60	H	0.115728	0.407213	0.587732
	H61	H	0.884429	0.591055	0.585531
	H62	H	0.113945	0.594322	0.407081
	H63	H	0.883634	0.406856	0.409708
	H64	H	0.411622	0.592500	0.110706
	H65	H	0.585067	0.584615	0.884269
	H66	H	0.582469	0.410617	0.108230
	H67	H	0.414360	0.408843	0.882248
	H68	H	0.594956	0.115863	0.406680
	H69	H	0.589527	0.887486	0.587879
	H70	H	0.414087	0.113972	0.585827
	H71	H	0.410547	0.888045	0.408707
	H72	H	0.905436	0.615843	0.086665
	H73	H	0.088695	0.389304	0.081235
	H74	H	0.090886	0.616362	0.899536
	H75	H	0.913685	0.387648	0.899713
	H76	H	0.085603	0.905739	0.610200
	H77	H	0.094247	0.089332	0.378987
	H78	H	0.905205	0.086026	0.608919
	H79	H	0.906782	0.918296	0.379920
	H80	H	0.613616	0.094279	0.911497
	H81	H	0.389636	0.083431	0.081614
	H82	H	0.618817	0.902149	0.093170
	H83	H	0.385610	0.911593	0.904480
	H84	H	0.612981	0.905370	0.080169
	H85	H	0.385210	0.088275	0.089649
	H86	H	0.612082	0.084261	0.908142
	H87	H	0.385001	0.909558	0.905476
	H88	H	0.917821	0.091876	0.606784
	H89	H	0.084748	0.090240	0.382363
	H90	H	0.094336	0.908509	0.612957
	H91	H	0.918090	0.916790	0.383386
	H92	H	0.086288	0.612726	0.904115
	H93	H	0.091100	0.386964	0.084126
	H94	H	0.912656	0.612553	0.084022
	H95	H	0.906082	0.388036	0.909900
	H96	H	0.406517	0.114158	0.581353
	H97	H	0.593478	0.886963	0.584323
	H98	H	0.584970	0.115312	0.400726
	H99	H	0.408076	0.887112	0.408879
	H100	H	0.591413	0.401525	0.113103
	H101	H	0.583534	0.602187	0.880035
	H102	H	0.406791	0.590356	0.111408
	H103	H	0.408382	0.410359	0.879511
	H104	H	0.112947	0.588229	0.404195
	H105	H	0.883607	0.595592	0.583483
	H106	H	0.113718	0.407707	0.583111
	H107	H	0.887863	0.418561	0.408384
	H108	H	0.905567	0.613371	0.078797
	H109	H	0.086463	0.388766	0.085807
	H110	H	0.092702	0.614802	0.906651
	H111	H	0.901598	0.383480	0.898366
	H112	H	0.088509	0.915188	0.608284
	H113	H	0.089157	0.097947	0.377763
	H114	H	0.907120	0.099488	0.611846
	H115	H	0.912127	0.907650	0.378098
	H116	H	0.616521	0.092214	0.901506
	H117	H	0.386488	0.093641	0.080705
	H118	H	0.613196	0.915369	0.091041
	H119	H	0.385777	0.911298	0.906863
	C120	C	0.378502	0.009762	0.617532
	C121	C	0.622741	0.992442	0.617400
	C122	C	0.620773	0.009315	0.375123
	C123	C	0.377949	0.992499	0.375124
	C124	C	0.620863	0.378502	0.004087
	C125	C	0.620035	0.621666	0.987934
	C126	C	0.378541	0.622372	0.004271
	C127	C	0.379144	0.379140	0.987218
	C128	C	0.008415	0.623903	0.371902
	C129	C	0.991054	0.622323	0.614650
	C130	C	0.007574	0.379530	0.615861
	C131	C	0.990559	0.380883	0.373598
	C132	C	0.877147	0.508802	0.115956
	C133	C	0.120534	0.493168	0.115458
	C134	C	0.121254	0.508951	0.872457
	C135	C	0.876405	0.492284	0.872166
	C136	C	0.121969	0.879801	0.504441
	C137	C	0.120343	0.123021	0.486257
	C138	C	0.877742	0.124034	0.502715
	C139	C	0.879985	0.881452	0.485791
	C140	C	0.508462	0.122587	0.874095
	C141	C	0.492590	0.120147	0.116737
	C142	C	0.509045	0.877237	0.119574
	C143	C	0.491801	0.880049	0.875751
	C144	C	0.378877	0.888828	0.675937
	C145	C	0.623132	0.112590	0.675771
	C146	C	0.621705	0.888483	0.318438
	C147	C	0.376847	0.112279	0.314521
	C148	C	0.677631	0.379302	0.881945
	C149	C	0.678057	0.619161	0.109259
	C150	C	0.321213	0.623227	0.882356
	C151	C	0.319989	0.377802	0.108022
	C152	C	0.888389	0.683889	0.370067
	C153	C	0.112542	0.678875	0.615755
	C154	C	0.886251	0.322386	0.615708
	C155	C	0.111292	0.322165	0.372274
	C156	C	0.885599	0.381282	0.672070
	C157	C	0.112323	0.620572	0.672404
	C158	C	0.887324	0.624855	0.313731
	C159	C	0.111686	0.380329	0.315555
	C160	C	0.377771	0.681744	0.883049
	C161	C	0.621547	0.677725	0.109719
	C162	C	0.622156	0.320154	0.883211
	C163	C	0.377464	0.319905	0.108180
	C164	C	0.681665	0.890109	0.373264
	C165	C	0.680881	0.112757	0.617961
	C166	C	0.318703	0.890229	0.620430
	C167	C	0.319702	0.113079	0.373063
	C168	C	0.876239	0.389148	0.176774
	C169	C	0.121727	0.613115	0.173879
	C170	C	0.120739	0.388347	0.815536
	C171	C	0.876848	0.613746	0.814681
	C172	C	0.180758	0.880489	0.383205
	C173	C	0.178581	0.122945	0.607814
	C174	C	0.818181	0.125701	0.382160
	C175	C	0.821405	0.879551	0.606888
	C176	C	0.388484	0.182660	0.871265
	C177	C	0.612524	0.180093	0.119652
	C178	C	0.388419	0.818867	0.121387
	C179	C	0.612909	0.821938	0.876259
	C180	C	0.388253	0.876768	0.178710
	C181	C	0.613309	0.120780	0.175949
	C182	C	0.388234	0.124176	0.814359
	C183	C	0.613276	0.879477	0.818291
	C184	C	0.875523	0.183304	0.381962
	C185	C	0.120942	0.180533	0.607499
	C186	C	0.124531	0.821976	0.383340
	C187	C	0.877480	0.820749	0.606184
	C188	C	0.180927	0.389336	0.871415
	C189	C	0.180527	0.612382	0.117135
	C190	C	0.819251	0.388398	0.118418
	C191	C	0.818823	0.613239	0.872577
	C192	C	0.402306	0.093333	0.592836
	C193	C	0.599305	0.908556	0.593691
	C194	C	0.595559	0.092851	0.399267
	C195	C	0.402204	0.908945	0.400693
	C196	C	0.596838	0.401874	0.088666
	C197	C	0.596306	0.599688	0.902620
	C198	C	0.402773	0.597433	0.088716
	C199	C	0.404228	0.404146	0.903157
	C200	C	0.092498	0.599186	0.396498
	C201	C	0.906562	0.599609	0.590350
	C202	C	0.092514	0.402317	0.592452
	C203	C	0.906649	0.405508	0.398495
	C204	C	0.900934	0.592251	0.090625
	C205	C	0.095734	0.409901	0.090853
	C206	C	0.097048	0.592720	0.896413
	C207	C	0.900217	0.408313	0.895729
	C208	C	0.096975	0.903013	0.588531
	C209	C	0.096347	0.099363	0.401776
	C210	C	0.902775	0.099432	0.587086
	C211	C	0.904905	0.907010	0.402217
	C212	C	0.592286	0.097501	0.899583
	C213	C	0.408951	0.095568	0.091346
	C214	C	0.592965	0.900866	0.095257
	C215	C	0.407391	0.903941	0.899024
	Zn216	Zn	0.500746	0.000546	0.746016
	Zn217	Zn	0.500275	0.000208	0.246741
	Zn218	Zn	0.748548	0.500109	-0.005024
	Zn219	Zn	0.250530	0.500709	-0.005335
	Zn220	Zn	0.000672	0.752149	0.494391
	Zn221	Zn	-0.000694	0.251819	0.494091
	Zn222	Zn	-0.001144	0.501197	0.743704
	Zn223	Zn	-0.000675	0.501369	0.244862
	Zn224	Zn	0.499853	0.750662	-0.003149
	Zn225	Zn	0.500115	0.250281	-0.003699
	Zn226	Zn	0.750747	0.001883	0.494685
	Zn227	Zn	0.249054	0.001735	0.495991
	N228	N	0.415338	0.964129	0.674255
	N229	N	0.587810	0.036801	0.675710
	N230	N	0.584528	0.963579	0.319627
	N231	N	0.412303	0.036223	0.315560
	N232	N	0.677225	0.414600	0.958335
	N233	N	0.677135	0.585112	0.032524
	N234	N	0.321548	0.587131	0.958716
	N235	N	0.320751	0.413729	0.031582
	N236	N	0.964852	0.683572	0.405362
	N237	N	0.035982	0.680206	0.580655
	N238	N	0.963196	0.321079	0.581564
	N239	N	0.034793	0.322204	0.407402
	N240	N	0.962147	0.415636	0.672645
	N241	N	0.035778	0.586147	0.672008
	N242	N	0.963078	0.588508	0.314657
	N243	N	0.035508	0.416153	0.316164
	N244	N	0.412268	0.681583	0.960039
	N245	N	0.586246	0.679339	0.033003
	N246	N	0.587907	0.319181	0.960235
	N247	N	0.413330	0.320530	0.031855
	N248	N	0.681212	0.966203	0.407892
	N249	N	0.680863	0.036925	0.582507
	N250	N	0.318182	0.966295	0.584944
	N251	N	0.320221	0.037574	0.409884
	N252	N	0.911530	0.464956	0.175562
	N253	N	0.085205	0.537813	0.173184
	N254	N	0.084406	0.463906	0.816168
	N255	N	0.912045	0.537756	0.814279
	N256	N	0.179499	0.915672	0.459466
	N257	N	0.178374	0.087937	0.531356
	N258	N	0.819336	0.089712	0.458464
	N259	N	0.822908	0.916787	0.531202
	N260	N	0.464461	0.181981	0.907541
	N261	N	0.536520	0.179731	0.083518
	N262	N	0.464419	0.819009	0.085438
	N263	N	0.536488	0.822154	0.911275
	N264	N	0.464244	0.912377	0.177967
	N265	N	0.537785	0.083961	0.174042
	N266	N	0.463989	0.087663	0.815873
	N267	N	0.536965	0.914963	0.817717
	N268	N	0.912064	0.182093	0.457921
	N269	N	0.085554	0.180740	0.530982
	N270	N	0.088789	0.821319	0.459656
	N271	N	0.913223	0.821780	0.529891
	N272	N	0.181537	0.465500	0.906000
	N273	N	0.180103	0.536833	0.081538
	N274	N	0.819711	0.463730	0.081336
	N275	N	0.818250	0.536616	0.907376
	O276	O	0.507478	0.679378	0.374556
	H277	H	0.508118	0.681657	0.378038
	H278	H	0.517325	0.692912	0.369622
	O279	O	0.307193	0.641807	0.445569
	H280	H	0.307896	0.646482	0.444783
	H281	H	0.297009	0.654529	0.447658
	O282	O	0.634008	0.566319	0.497625
	H283	H	0.639314	0.570363	0.506900
	H284	H	0.628092	0.565620	0.495075
	O285	O	1.181963	0.066075	0.002553
	H286	H	1.161861	0.059585	0.006922
	H287	H	1.188171	0.047757	0.004463
	O288	O	0.136028	-0.195018	0.861418
	H289	H	0.130323	-0.207552	0.866366
	H290	H	0.129823	-0.196780	0.835475
	O291	O	0.689460	0.552420	0.544196
	H292	H	0.693433	0.563321	0.535556
	H293	H	0.687232	0.546751	0.544988
	O294	O	0.674980	0.421257	0.316820
	H295	H	0.682023	0.418781	0.316024
	H296	H	0.657846	0.431930	0.313078
	O297	O	0.934563	1.173609	0.971264
	H298	H	0.949370	1.169516	0.969898
	H299	H	0.941330	1.173228	0.969002
	O300	O	-0.173709	0.079515	-0.095637
	H301	H	-0.160290	0.100878	-0.103246
	H302	H	-0.190072	0.090524	-0.107495
	O303	O	0.507462	0.397740	0.493427
	H304	H	0.513209	0.403798	0.501423
	H305	H	0.509908	0.397447	0.479515
	O306	O	0.927389	0.155031	0.079840
	H307	H	0.939475	0.149970	0.081116
	H308	H	0.939843	0.157901	0.075861
	O309	O	0.548990	0.594656	0.567167
	H310	H	0.549742	0.603317	0.562513
	H311	H	0.553227	0.610187	0.565293
	O312	O	0.875367	0.881561	0.188379
	H313	H	0.871605	0.886512	0.190922
	H314	H	0.876550	0.879566	0.162090
	O315	O	0.447841	0.355132	0.670916
	H316	H	0.444532	0.362396	0.672834
	H317	H	0.442517	0.353288	0.661594
	O318	O	0.522919	0.688604	0.570585
	H319	H	0.515138	0.697655	0.571036
	H320	H	0.522256	0.670971	0.565104
	O321	O	0.878548	0.104684	0.945768
	H322	H	0.877783	0.107993	0.949407
	H323	H	0.884723	0.118174	0.956931
	O324	O	-0.027899	-0.070863	0.934510
	H325	H	-0.020223	-0.082063	0.921939
	H326	H	-0.030057	-0.056819	0.923623
	O327	O	0.302215	0.401001	0.593187
	H328	H	0.292326	0.388081	0.596172
	H329	H	0.300397	0.392316	0.578677
	O330	O	0.360213	0.488349	0.330393
	H331	H	0.378083	0.487919	0.327509
	H332	H	0.341074	0.488267	0.321954
	O333	O	1.167609	1.087608	0.900610
	H334	H	1.179620	1.102002	0.911126
	H335	H	1.157682	1.087947	0.917020
	O336	O	0.409458	0.420282	0.453016
	H337	H	0.417109	0.426557	0.448330
	H338	H	0.403531	0.405075	0.458052
	O339	O	1.112133	-0.022337	1.100157
	H340	H	1.110403	-0.034868	1.097806
	H341	H	1.115259	-0.033768	1.105518
	O342	O	-0.038351	0.968069	1.108015
	H343	H	-0.032686	0.964620	1.102205
	H344	H	-0.035901	0.957394	1.107992
	O345	O	0.201411	0.931324	0.874810
	H346	H	0.207259	0.956805	0.875474
	H347	H	0.193153	0.929308	0.860965
	O348	O	0.555528	0.615862	0.590962
	H349	H	0.537403	0.607931	0.592801
	H350	H	0.549660	0.617571	0.586485
	O351	O	-0.082548	-0.070549	0.186859
	H352	H	-0.108333	-0.065382	0.178240
	H353	H	-0.079866	-0.079026	0.206052
	O354	O	1.136425	0.792390	-0.022641
	H355	H	1.164706	0.769392	-0.027590
	H356	H	1.133858	0.806123	-0.044317
	O357	O	0.134054	1.122559	0.032000
	H358	H	0.137103	1.139053	0.046417
	H359	H	0.127349	1.120313	0.036295
	O360	O	0.464024	0.380156	0.397279
	H361	H	0.464689	0.383450	0.389867
	H362	H	0.477486	0.387718	0.396039
	O363	O	0.407420	0.682945	0.342504
	H364	H	0.433833	0.688508	0.326251
	H365	H	0.401344	0.671423	0.345282
	O366	O	0.397778	0.563448	0.653482
	H367	H	0.391891	0.554252	0.661828
	H368	H	0.408716	0.554703	0.666449
	O369	O	0.440700	0.357779	0.683091
	H370	H	0.437344	0.346557	0.693174
	H371	H	0.442238	0.356844	0.679704
	O372	O	0.594571	0.542906	0.437300
	H373	H	0.592819	0.543821	0.454371
	H374	H	0.596744	0.554713	0.437183
	O375	O	0.672490	0.305283	0.401121
	H376	H	0.690669	0.291679	0.418145
	H377	H	0.667369	0.324704	0.387592
	O378	O	0.519796	0.501081	0.628201
	H379	H	0.525338	0.498303	0.640007
	H380	H	0.509538	0.495036	0.642532
	O381	O	0.624143	0.397154	0.607103
	H382	H	0.613989	0.408183	0.601252
	H383	H	0.604946	0.390787	0.607818
	O384	O	0.001651	1.176683	0.837315
	H385	H	-0.000162	1.181948	0.844942
	H386	H	0.002565	1.184581	0.830695
	O387	O	0.909972	0.848702	-0.127181
	H388	H	0.897695	0.849083	-0.130663
	H389	H	0.909900	0.868957	-0.119901
	O390	O	0.263599	0.264092	0.591653
	H391	H	0.239262	0.258437	0.595272
	H392	H	0.253105	0.281242	0.585482
	O393	O	1.042062	0.025944	1.110218
	H394	H	1.047134	0.004603	1.112330
	H395	H	1.046292	0.020526	1.109809
	O396	O	-0.188317	1.114012	0.999679
	H397	H	-0.184610	1.126583	1.001787
	H398	H	-0.197138	1.113933	1.009986
	O399	O	0.407371	0.402488	0.420727
	H400	H	0.416198	0.413268	0.429374
	H401	H	0.420732	0.398283	0.421826
	O402	O	0.847956	0.116802	0.798719
	H403	H	0.838081	0.126354	0.807252
	H404	H	0.860646	0.133498	0.802697
	O405	O	0.136236	0.166091	-0.002056
	H406	H	0.155924	0.173568	-0.000525
	H407	H	0.135578	0.163863	0.029703
	O408	O	1.040686	0.903524	0.804351
	H409	H	1.021672	0.905175	0.802396
	H410	H	1.035399	0.911284	0.807747
	O411	O	0.808100	0.868150	0.057526
	H412	H	0.800238	0.865955	0.053748
	H413	H	0.817538	0.890434	0.042315
	O414	O	-0.056218	-0.172541	1.169823
	H415	H	-0.071066	-0.182663	1.163386
	H416	H	-0.071555	-0.163959	1.176726
	O417	O	0.515021	0.484129	0.328744
	H418	H	0.503515	0.482113	0.333561
	H419	H	0.505694	0.504063	0.335653
	O420	O	-0.039234	0.902325	0.049433
	H421	H	-0.039339	0.887561	0.050199
	H422	H	-0.033848	0.907095	0.040921
	O423	O	1.111475	0.113761	0.184881
	H424	H	1.108658	0.107529	0.189012
	H425	H	1.105793	0.110709	0.175202
	O426	O	0.098444	-0.101824	0.949512
	H427	H	0.102444	-0.098084	0.942748
	H428	H	0.095537	-0.114965	0.964575
	O429	O	0.543615	0.565911	0.623594
	H430	H	0.552564	0.566021	0.616057
	H431	H	0.550174	0.565291	0.620407
