data_Molecule from HDF5

_cell_length_a		16.325076
_cell_length_b		16.379942
_cell_length_c		16.421023
_cell_angle_alpha	89.993173
_cell_angle_beta	90.200389
_cell_angle_gamma	90.181776
_symmetry_space_group_name_H-M	'P 1'
_symmetry_Int_Tables_number		1

loop_
	_symmetry_equiv_pos_as_xyz
	x,y,z

loop_
	_atom_site_label
	_atom_site_type_symbol
	_atom_site_fract_x
	_atom_site_fract_y
	_atom_site_fract_z
	H0	H	0.396815	0.828166	0.707322
	H1	H	0.602591	0.150332	0.705892
	H2	H	0.604910	0.830054	0.267472
	H3	H	0.393059	0.147353	0.265775
	H4	H	0.716008	0.384979	0.826388
	H5	H	0.721178	0.592299	0.145669
	H6	H	0.281015	0.592631	0.826824
	H7	H	0.279174	0.385498	0.146432
	H8	H	0.836705	0.705854	0.383540
	H9	H	0.158719	0.708526	0.589975
	H10	H	0.839127	0.267051	0.591631
	H11	H	0.158928	0.270237	0.383768
	H12	H	0.839070	0.382588	0.707390
	H13	H	0.158517	0.594064	0.707185
	H14	H	0.837764	0.591924	0.265758
	H15	H	0.157837	0.384128	0.266229
	H16	H	0.395769	0.709616	0.828736
	H17	H	0.607248	0.710347	0.146554
	H18	H	0.602684	0.267354	0.828713
	H19	H	0.394990	0.268497	0.147282
	H20	H	0.715283	0.827205	0.387925
	H21	H	0.720053	0.148916	0.591961
	H22	H	0.278712	0.828874	0.591764
	H23	H	0.280396	0.148997	0.384914
	H24	H	0.890673	0.330020	0.208283
	H25	H	0.106475	0.646708	0.209008
	H26	H	0.103199	0.330143	0.764956
	H27	H	0.893807	0.648623	0.765123
	H28	H	0.220255	0.884350	0.329056
	H29	H	0.219839	0.095521	0.646075
	H30	H	0.776235	0.093263	0.329523
	H31	H	0.779395	0.882539	0.647483
	H32	H	0.339572	0.207668	0.883341
	H33	H	0.658348	0.211291	0.094546
	H34	H	0.340768	0.765184	0.095108
	H35	H	0.660194	0.769970	0.885151
	H36	H	0.340633	0.881062	0.211193
	H37	H	0.659321	0.094577	0.209233
	H38	H	0.341450	0.095231	0.765805
	H39	H	0.659699	0.883385	0.768130
	H40	H	0.890011	0.211544	0.329476
	H41	H	0.106319	0.212605	0.644001
	H42	H	0.102595	0.768640	0.327339
	H43	H	0.893372	0.765889	0.645927
	H44	H	0.219425	0.329810	0.880350
	H45	H	0.221378	0.647344	0.091152
	H46	H	0.778292	0.329215	0.088837
	H47	H	0.778391	0.648963	0.880878
	H48	H	0.404357	0.107211	0.584741
	H49	H	0.588803	0.875958	0.574103
	H50	H	0.597269	0.103246	0.406076
	H51	H	0.409931	0.875011	0.399731
	H52	H	0.589196	0.402332	0.100158
	H53	H	0.587101	0.576157	0.874760
	H54	H	0.410083	0.578268	0.101908
	H55	H	0.412015	0.398599	0.874361
	H56	H	0.113188	0.580358	0.396053
	H57	H	0.881107	0.582477	0.580310
	H58	H	0.112603	0.399312	0.573109
	H59	H	0.883691	0.399000	0.395531
	H60	H	0.110744	0.403849	0.575881
	H61	H	0.886243	0.579762	0.568644
	H62	H	0.112462	0.578887	0.397561
	H63	H	0.884439	0.399773	0.399339
	H64	H	0.410389	0.575054	0.100186
	H65	H	0.584797	0.582845	0.872770
	H66	H	0.586677	0.399848	0.099774
	H67	H	0.408680	0.394545	0.872201
	H68	H	0.587770	0.106171	0.389588
	H69	H	0.593894	0.872774	0.582348
	H70	H	0.418032	0.100846	0.581988
	H71	H	0.410705	0.875102	0.399160
	H72	H	0.909862	0.601459	0.073481
	H73	H	0.087974	0.373957	0.077271
	H74	H	0.085192	0.599290	0.903433
	H75	H	0.891608	0.370385	0.897294
	H76	H	0.089219	0.896172	0.602294
	H77	H	0.090179	0.082765	0.371450
	H78	H	0.914736	0.075572	0.598829
	H79	H	0.906053	0.901360	0.374615
	H80	H	0.613025	0.077178	0.901810
	H81	H	0.384837	0.080477	0.074575
	H82	H	0.614127	0.893979	0.075387
	H83	H	0.382963	0.893730	0.895413
	H84	H	0.609451	0.906223	0.073934
	H85	H	0.386810	0.072853	0.076056
	H86	H	0.614479	0.078240	0.897183
	H87	H	0.387804	0.899684	0.905765
	H88	H	0.912100	0.082559	0.601759
	H89	H	0.091922	0.074882	0.373361
	H90	H	0.089320	0.903710	0.599693
	H91	H	0.911047	0.897858	0.374758
	H92	H	0.096570	0.604970	0.897826
	H93	H	0.086334	0.375381	0.076135
	H94	H	0.909195	0.603131	0.077179
	H95	H	0.917696	0.372922	0.880479
	H96	H	0.407056	0.101146	0.570577
	H97	H	0.584243	0.875459	0.582867
	H98	H	0.578959	0.097641	0.404280
	H99	H	0.410664	0.876304	0.400007
	H100	H	0.589419	0.399045	0.101092
	H101	H	0.591340	0.580886	0.872574
	H102	H	0.412758	0.577215	0.099979
	H103	H	0.407091	0.399976	0.873040
	H104	H	0.113131	0.578150	0.395266
	H105	H	0.885149	0.570162	0.577388
	H106	H	0.113533	0.399514	0.578580
	H107	H	0.885417	0.402582	0.396574
	H108	H	0.912753	0.601819	0.075775
	H109	H	0.088141	0.375169	0.075065
	H110	H	0.084948	0.603977	0.890489
	H111	H	0.917152	0.382720	0.910090
	H112	H	0.083005	0.899398	0.598719
	H113	H	0.084195	0.077658	0.374693
	H114	H	0.907283	0.076481	0.601146
	H115	H	0.905479	0.894958	0.372394
	H116	H	0.615291	0.080790	0.901256
	H117	H	0.383593	0.077444	0.081408
	H118	H	0.614825	0.903055	0.084809
	H119	H	0.386530	0.905787	0.895045
	C120	C	0.377463	-0.002625	0.610644
	C121	C	0.621471	0.980538	0.610979
	C122	C	0.619842	-0.003115	0.368270
	C123	C	0.378072	0.980424	0.367246
	C124	C	0.619695	0.367926	-0.004705
	C125	C	0.621084	0.611140	0.978474
	C126	C	0.378717	0.609388	-0.004389
	C127	C	0.377432	0.366435	0.978770
	C128	C	0.006722	0.610044	0.364704
	C129	C	0.990022	0.609787	0.607370
	C130	C	0.007027	0.368037	0.607818
	C131	C	0.989881	0.368344	0.365410
	C132	C	0.877663	0.497250	0.107014
	C133	C	0.120392	0.480199	0.108278
	C134	C	0.120657	0.497683	0.864615
	C135	C	0.876604	0.480657	0.863777
	C136	C	0.119846	0.867398	0.495398
	C137	C	0.120928	0.111097	0.478052
	C138	C	0.877573	0.110105	0.496071
	C139	C	0.876394	0.866064	0.478856
	C140	C	0.508518	0.110209	0.867260
	C141	C	0.490538	0.110048	0.110012
	C142	C	0.508134	0.866994	0.110958
	C143	C	0.491605	0.868219	0.867673
	C144	C	0.376999	0.876720	0.668649
	C145	C	0.622327	0.101540	0.668031
	C146	C	0.622061	0.877371	0.308177
	C147	C	0.375499	0.100057	0.306587
	C148	C	0.677493	0.366436	0.874927
	C149	C	0.681505	0.611759	0.098165
	C150	C	0.319872	0.611252	0.875271
	C151	C	0.318532	0.366252	0.098696
	C152	C	0.885266	0.667493	0.364188
	C153	C	0.110638	0.669389	0.608810
	C154	C	0.886905	0.307356	0.609640
	C155	C	0.110675	0.309681	0.364813
	C156	C	0.886929	0.364955	0.667490
	C157	C	0.110487	0.612359	0.666972
	C158	C	0.885845	0.610766	0.305671
	C159	C	0.110319	0.366439	0.306434
	C160	C	0.377160	0.669531	0.876058
	C161	C	0.624663	0.670249	0.098570
	C162	C	0.620973	0.307666	0.875981
	C163	C	0.376059	0.308020	0.099222
	C164	C	0.677322	0.875920	0.368117
	C165	C	0.680573	0.100918	0.611015
	C166	C	0.318476	0.876877	0.610903
	C167	C	0.319664	0.101038	0.366026
	C168	C	0.873701	0.377566	0.167615
	C169	C	0.123871	0.599398	0.168439
	C170	C	0.121544	0.377836	0.804998
	C171	C	0.875104	0.600760	0.804635
	C172	C	0.180147	0.865727	0.376352
	C173	C	0.180758	0.114027	0.597826
	C174	C	0.816467	0.111743	0.376759
	C175	C	0.818690	0.864459	0.599370
	C176	C	0.388000	0.169009	0.864876
	C177	C	0.610673	0.171060	0.112886
	C178	C	0.388554	0.805444	0.113599
	C179	C	0.612114	0.809165	0.866526
	C180	C	0.388614	0.863148	0.171497
	C181	C	0.610868	0.112980	0.169983
	C182	C	0.389070	0.112594	0.806360
	C183	C	0.611720	0.865601	0.807838
	C184	C	0.873108	0.170772	0.376926
	C185	C	0.123709	0.172143	0.596948
	C186	C	0.121552	0.808114	0.375648
	C187	C	0.875426	0.806052	0.598548
	C188	C	0.179764	0.377792	0.862368
	C189	C	0.181226	0.599720	0.109913
	C190	C	0.817764	0.376995	0.108036
	C191	C	0.817442	0.600708	0.862252
	C192	C	0.402466	0.081258	0.586246
	C193	C	0.596322	0.896418	0.586863
	C194	C	0.594986	0.080595	0.392864
	C195	C	0.403133	0.897234	0.392391
	C196	C	0.595314	0.392998	0.078682
	C197	C	0.595208	0.587047	0.895108
	C198	C	0.404037	0.584173	0.078887
	C199	C	0.402191	0.390498	0.895001
	C200	C	0.090993	0.586041	0.389116
	C201	C	0.906005	0.584668	0.582560
	C202	C	0.090481	0.393566	0.583100
	C203	C	0.906147	0.393242	0.389901
	C204	C	0.903346	0.580453	0.082491
	C205	C	0.094967	0.396762	0.083276
	C206	C	0.095901	0.581030	0.889824
	C207	C	0.901619	0.396974	0.888633
	C208	C	0.094468	0.892422	0.578445
	C209	C	0.095908	0.085760	0.394888
	C210	C	0.903815	0.085274	0.578868
	C211	C	0.900479	0.890874	0.395569
	C212	C	0.592519	0.085800	0.892774
	C213	C	0.407160	0.084414	0.084493
	C214	C	0.591050	0.893294	0.085355
	C215	C	0.407574	0.892695	0.891933
	Zn216	Zn	0.500567	-0.010763	0.739441
	Zn217	Zn	0.499181	-0.010541	0.238553
	Zn218	Zn	0.748692	0.488595	-0.014390
	Zn219	Zn	0.249153	0.488497	-0.013812
	Zn220	Zn	-0.002144	0.738177	0.486248
	Zn221	Zn	-0.000974	0.239284	0.486379
	Zn222	Zn	-0.001636	0.489346	0.736307
	Zn223	Zn	-0.001845	0.488452	0.236554
	Zn224	Zn	0.499425	0.739115	-0.011797
	Zn225	Zn	0.499347	0.237973	-0.011689
	Zn226	Zn	0.749235	-0.011570	0.489106
	Zn227	Zn	0.248859	-0.010626	0.488120
	N228	N	0.412806	0.952844	0.668700
	N229	N	0.586470	0.025412	0.668210
	N230	N	0.586880	0.953495	0.308245
	N231	N	0.410897	0.023950	0.306968
	N232	N	0.676747	0.403233	0.950107
	N233	N	0.679665	0.576039	0.022386
	N234	N	0.320770	0.574614	0.950560
	N235	N	0.319030	0.401468	0.022657
	N236	N	0.961500	0.667409	0.400085
	N237	N	0.034749	0.667944	0.572413
	N238	N	0.962494	0.309011	0.573127
	N239	N	0.034721	0.310609	0.400615
	N240	N	0.962499	0.401985	0.666378
	N241	N	0.034430	0.576217	0.666208
	N242	N	0.962371	0.575936	0.305745
	N243	N	0.034173	0.401835	0.306568
	N244	N	0.412822	0.668752	0.952219
	N245	N	0.587727	0.669999	0.023258
	N246	N	0.585678	0.308413	0.951933
	N247	N	0.411573	0.307765	0.023507
	N248	N	0.676147	0.951452	0.404773
	N249	N	0.680039	0.024460	0.576402
	N250	N	0.318556	0.953018	0.575951
	N251	N	0.321082	0.025799	0.402932
	N252	N	0.910309	0.453239	0.167003
	N253	N	0.086947	0.524049	0.167555
	N254	N	0.085441	0.453578	0.806380
	N255	N	0.911122	0.525059	0.805582
	N256	N	0.179441	0.901645	0.452023
	N257	N	0.178930	0.076351	0.523060
	N258	N	0.819183	0.074828	0.451729
	N259	N	0.819070	0.901273	0.524181
	N260	N	0.463482	0.167585	0.902218
	N261	N	0.534862	0.169576	0.076229
	N262	N	0.463959	0.807564	0.076839
	N263	N	0.536426	0.810536	0.903002
	N264	N	0.463868	0.900782	0.169862
	N265	N	0.535291	0.075711	0.168309
	N266	N	0.464932	0.076683	0.807916
	N267	N	0.535654	0.901607	0.808286
	N268	N	0.910695	0.169791	0.451958
	N269	N	0.087243	0.170452	0.521482
	N270	N	0.084822	0.809129	0.450699
	N271	N	0.910492	0.806797	0.522638
	N272	N	0.179345	0.453272	0.898776
	N273	N	0.179162	0.524377	0.073116
	N274	N	0.820010	0.452206	0.071140
	N275	N	0.818159	0.524793	0.898182
	O276	O	0.450053	0.516300	0.488239
	H277	H	0.441306	0.513106	0.469174
	H278	H	0.451872	0.522026	0.488051
	O279	O	0.653190	0.375392	0.488500
	H280	H	0.671862	0.369758	0.502866
	H281	H	0.641045	0.381171	0.476737
	O282	O	0.459476	0.542653	0.407605
	H283	H	0.464792	0.535310	0.412699
	H284	H	0.454717	0.536455	0.400426
	O285	O	0.848587	0.130558	-0.031138
	H286	H	0.830858	0.130310	-0.029177
	H287	H	0.850800	0.110312	-0.021849
	O288	O	-0.178918	0.164682	0.856894
	H289	H	-0.178277	0.163541	0.883989
	H290	H	-0.138307	0.176478	0.858541
	O291	O	0.352093	0.441380	0.421560
	H292	H	0.355227	0.441536	0.433099
	H293	H	0.353034	0.436561	0.423775
	O294	O	0.530553	0.670789	0.519181
	H295	H	0.515785	0.677961	0.501479
	H296	H	0.521749	0.661598	0.527191
	O297	O	1.178385	1.173037	1.175888
	H298	H	1.155550	1.161786	1.177666
	H299	H	1.189320	1.141723	1.163448
	O300	O	-0.603823	0.366929	0.581236
	H301	H	-0.593174	0.369229	0.579741
	H302	H	-0.597016	0.366606	0.574427
	O303	O	0.378412	0.485096	0.603570
	H304	H	0.389757	0.473656	0.600315
	H305	H	0.373582	0.486053	0.614319
	O306	O	0.785338	0.012244	-0.226130
	H307	H	0.776591	0.045240	-0.229994
	H308	H	0.767734	0.035613	-0.240882
	O309	O	0.539239	0.385844	0.514892
	H310	H	0.538254	0.404206	0.520940
	H311	H	0.551565	0.373900	0.508283
	O312	O	1.101698	0.885530	-0.042697
	H313	H	1.107317	0.863021	-0.054620
	H314	H	1.099915	0.894920	-0.052750
	O315	O	0.490544	0.415565	0.360362
	H316	H	0.479336	0.415396	0.356020
	H317	H	0.495555	0.424092	0.351060
	O318	O	0.509232	0.420033	0.614148
	H319	H	0.523456	0.408744	0.627287
	H320	H	0.510782	0.428215	0.612316
	O321	O	1.205547	-0.015114	1.117724
	H322	H	1.196067	-0.018502	1.099445
	H323	H	1.221825	-0.026353	1.119152
	O324	O	0.000201	-0.180746	1.190885
	H325	H	-0.005180	-0.191736	1.212245
	H326	H	0.037216	-0.171263	1.181484
	O327	O	0.470752	0.675562	0.354135
	H328	H	0.463692	0.667288	0.353419
	H329	H	0.466192	0.685421	0.342578
	O330	O	0.519914	0.584088	0.636957
	H331	H	0.521004	0.588459	0.626167
	H332	H	0.512353	0.586150	0.639755
	O333	O	1.016149	1.200846	1.194039
	H334	H	1.027340	1.217509	1.204189
	H335	H	1.004815	1.196104	1.203753
	O336	O	0.419244	0.423192	0.632688
	H337	H	0.410255	0.425365	0.620154
	H338	H	0.422402	0.417535	0.628716
	O339	O	0.880227	-0.044022	0.930110
	H340	H	0.865901	-0.045470	0.929578
	H341	H	0.883053	-0.033413	0.922249
	O342	O	-0.195039	0.937196	1.187921
	H343	H	-0.187344	0.906384	1.167643
	H344	H	-0.201969	0.935769	1.210523
	O345	O	-0.027319	0.981279	1.172585
	H346	H	-0.042273	0.985848	1.176382
	H347	H	-0.039297	0.979339	1.161642
	O348	O	1.102378	0.803764	0.798865
	H349	H	1.096937	0.824189	0.797365
	H350	H	1.073985	0.792586	0.787403
	O351	O	0.152250	-0.100908	-0.057989
	H352	H	0.142557	-0.102417	-0.061018
	H353	H	0.155863	-0.093305	-0.068480
	O354	O	1.124813	1.078456	-0.130593
	H355	H	1.127181	1.073475	-0.158252
	H356	H	1.112528	1.065273	-0.125189
	O357	O	-0.148078	0.800063	0.181875
	H358	H	-0.133615	0.805778	0.180140
	H359	H	-0.133501	0.780350	0.171062
	O360	O	0.386978	0.428968	0.488987
	H361	H	0.375579	0.428189	0.478249
	H362	H	0.386714	0.427722	0.487651
	O363	O	0.539207	0.426915	0.530854
	H364	H	0.545544	0.421506	0.533419
	H365	H	0.528635	0.426520	0.522589
	O366	O	1.071252	0.829857	1.009334
	H367	H	1.056756	0.833100	1.018650
	H368	H	1.070569	0.834426	1.013099
	O369	O	0.676379	0.536841	0.434227
	H370	H	0.672640	0.538530	0.420436
	H371	H	0.674065	0.532472	0.448621
	O372	O	0.041769	1.172358	-0.151839
	H373	H	0.044092	1.167020	-0.137893
	H374	H	0.049640	1.175977	-0.134659
	O375	O	0.495743	0.616304	0.398741
	H376	H	0.511477	0.605636	0.401449
	H377	H	0.497327	0.614950	0.411998
	O378	O	0.477842	0.543901	0.322807
	H379	H	0.482955	0.554347	0.335223
	H380	H	0.474951	0.558206	0.322021
	O381	O	0.675053	0.334958	0.356477
	H382	H	0.673038	0.324454	0.358874
	H383	H	0.669000	0.340558	0.364971
	O384	O	0.125841	0.857543	1.005029
	H385	H	0.120808	0.856407	0.998241
	H386	H	0.128800	0.848049	1.017298
	O387	O	0.797539	0.780364	0.011009
	H388	H	0.772531	0.767575	0.004618
	H389	H	0.800225	0.789311	0.006478
	O390	O	0.218600	-0.040326	0.768493
	H391	H	0.229898	-0.056305	0.756200
	H392	H	0.225903	-0.052081	0.753229
	O393	O	1.499392	0.607475	1.413843
	H394	H	1.510036	0.605547	1.415099
	H395	H	1.486018	0.609109	1.401959
	O396	O	0.030968	1.154879	0.833087
	H397	H	0.036653	1.175635	0.845400
	H398	H	0.046660	1.149151	0.838277
	O399	O	0.323838	0.636594	0.427302
	H400	H	0.326729	0.614850	0.442180
	H401	H	0.341585	0.629194	0.428578
	O402	O	0.991842	-0.009544	0.779089
	H403	H	0.974596	0.007974	0.778999
	H404	H	1.002067	-0.001688	0.778409
	O405	O	-0.161710	-0.043555	-0.015304
	H406	H	-0.160822	-0.038898	-0.000265
	H407	H	-0.158518	-0.046275	-0.034645
	O408	O	0.860091	1.049887	1.036334
	H409	H	0.852974	1.047228	1.045799
	H410	H	0.872985	1.037178	1.038694
	O411	O	0.928366	0.969600	0.007016
	H412	H	0.931893	0.981861	-0.002460
	H413	H	0.935078	0.952465	0.003161
	O414	O	0.050650	0.201842	1.011546
	H415	H	0.061284	0.211124	1.033287
	H416	H	0.043457	0.204540	1.028050
	O417	O	0.566896	0.427891	0.442520
	H418	H	0.575886	0.437524	0.447992
	H419	H	0.570946	0.428807	0.443223
	O420	O	0.161906	1.204530	-0.003541
	H421	H	0.190361	1.214423	0.002594
	H422	H	0.166767	1.195628	-0.005995
	O423	O	1.109332	-0.026656	0.196289
	H424	H	1.121150	-0.029531	0.204602
	H425	H	1.115313	-0.034756	0.195588
	O426	O	0.016772	-0.210254	0.888692
	H427	H	0.012604	-0.194584	0.886935
	H428	H	0.007134	-0.227705	0.874687
	O429	O	0.605582	0.515034	0.524579
	H430	H	0.594566	0.516410	0.536780
	H431	H	0.613014	0.521645	0.505739
