data_Molecule from HDF5

_cell_length_a		16.332234
_cell_length_b		16.269775
_cell_length_c		16.257157
_cell_angle_alpha	90.325315
_cell_angle_beta	90.053805
_cell_angle_gamma	90.489510
_symmetry_space_group_name_H-M	'P 1'
_symmetry_Int_Tables_number		1

loop_
	_symmetry_equiv_pos_as_xyz
	x,y,z

loop_
	_atom_site_label
	_atom_site_type_symbol
	_atom_site_fract_x
	_atom_site_fract_y
	_atom_site_fract_z
	H0	H	0.399300	0.840792	0.716038
	H1	H	0.603403	0.167054	0.714571
	H2	H	0.603301	0.842512	0.278082
	H3	H	0.403858	0.166622	0.284947
	H4	H	0.718673	0.398947	0.834609
	H5	H	0.722451	0.606946	0.158982
	H6	H	0.287964	0.602853	0.834312
	H7	H	0.284485	0.403006	0.160134
	H8	H	0.841940	0.715761	0.392673
	H9	H	0.164627	0.721529	0.598415
	H10	H	0.841802	0.282733	0.594326
	H11	H	0.166250	0.284218	0.393500
	H12	H	0.842462	0.395252	0.713636
	H13	H	0.165142	0.603554	0.713339
	H14	H	0.841566	0.596581	0.280647
	H15	H	0.167304	0.402932	0.279776
	H16	H	0.402856	0.719273	0.835275
	H17	H	0.605487	0.721149	0.159930
	H18	H	0.601061	0.286015	0.835610
	H19	H	0.402247	0.289475	0.161788
	H20	H	0.717867	0.840569	0.393217
	H21	H	0.725051	0.163590	0.603027
	H22	H	0.282045	0.841732	0.602515
	H23	H	0.287802	0.165452	0.399938
	H24	H	0.902833	0.338680	0.208666
	H25	H	0.107332	0.664588	0.213809
	H26	H	0.104684	0.339743	0.776963
	H27	H	0.901201	0.662730	0.774876
	H28	H	0.221145	0.899984	0.335903
	H29	H	0.218590	0.105128	0.660944
	H30	H	0.784745	0.101356	0.335615
	H31	H	0.783224	0.896585	0.659032
	H32	H	0.339367	0.216520	0.901201
	H33	H	0.663901	0.225205	0.101739
	H34	H	0.342011	0.784541	0.100956
	H35	H	0.664458	0.786248	0.894322
	H36	H	0.340806	0.903552	0.213857
	H37	H	0.664782	0.109029	0.217555
	H38	H	0.340153	0.103659	0.782859
	H39	H	0.664233	0.903593	0.779810
	H40	H	0.904263	0.212590	0.332128
	H41	H	0.106064	0.222345	0.657651
	H42	H	0.101989	0.787536	0.333090
	H43	H	0.899634	0.781243	0.658130
	H44	H	0.221569	0.341416	0.891606
	H45	H	0.220743	0.665219	0.098177
	H46	H	0.784515	0.340614	0.095558
	H47	H	0.786683	0.664183	0.891895
	H48	H	0.408508	0.118516	0.585315
	H49	H	0.600653	0.887116	0.582325
	H50	H	0.602848	0.119279	0.414502
	H51	H	0.418942	0.891468	0.412279
	H52	H	0.591141	0.414265	0.112646
	H53	H	0.592048	0.599427	0.881067
	H54	H	0.409325	0.599994	0.115679
	H55	H	0.412067	0.407871	0.881460
	H56	H	0.118339	0.592063	0.407807
	H57	H	0.888074	0.584036	0.591624
	H58	H	0.117361	0.420413	0.591353
	H59	H	0.886757	0.408969	0.395798
	H60	H	0.122711	0.402698	0.588281
	H61	H	0.886287	0.597539	0.584087
	H62	H	0.120854	0.593510	0.398854
	H63	H	0.886652	0.400062	0.400176
	H64	H	0.407220	0.588914	0.113087
	H65	H	0.600529	0.594780	0.879280
	H66	H	0.596562	0.414980	0.114991
	H67	H	0.408283	0.410809	0.881001
	H68	H	0.594072	0.120937	0.402666
	H69	H	0.592570	0.884322	0.599866
	H70	H	0.408481	0.121054	0.595846
	H71	H	0.401973	0.886376	0.411330
	H72	H	0.914377	0.616897	0.082546
	H73	H	0.094649	0.386945	0.083458
	H74	H	0.095395	0.618552	0.903186
	H75	H	0.913971	0.388042	0.903021
	H76	H	0.091520	0.911202	0.612932
	H77	H	0.102184	0.086459	0.381159
	H78	H	0.912390	0.090120	0.612191
	H79	H	0.911477	0.908182	0.382776
	H80	H	0.616837	0.096049	0.910379
	H81	H	0.388124	0.090118	0.093398
	H82	H	0.615676	0.915737	0.082514
	H83	H	0.388986	0.915277	0.907458
	H84	H	0.618943	0.918797	0.094299
	H85	H	0.384426	0.099961	0.096586
	H86	H	0.618351	0.094729	0.905350
	H87	H	0.386345	0.909382	0.904456
	H88	H	0.916606	0.091420	0.611173
	H89	H	0.089534	0.089671	0.382937
	H90	H	0.092624	0.912544	0.612819
	H91	H	0.908007	0.906950	0.380726
	H92	H	0.090281	0.616065	0.905138
	H93	H	0.097401	0.385432	0.086794
	H94	H	0.909872	0.620441	0.089601
	H95	H	0.909327	0.387065	0.908806
	H96	H	0.417124	0.117447	0.592076
	H97	H	0.582046	0.892279	0.585425
	H98	H	0.588175	0.115086	0.414179
	H99	H	0.412397	0.884637	0.396551
	H100	H	0.594821	0.419393	0.111417
	H101	H	0.592752	0.589532	0.883714
	H102	H	0.418021	0.593250	0.111492
	H103	H	0.412048	0.412189	0.883437
	H104	H	0.120802	0.600190	0.405363
	H105	H	0.892887	0.586025	0.576470
	H106	H	0.114631	0.412530	0.574198
	H107	H	0.890358	0.407514	0.405445
	H108	H	0.918350	0.617633	0.090782
	H109	H	0.093061	0.386232	0.087537
	H110	H	0.095007	0.616742	0.908317
	H111	H	0.907276	0.385418	0.901641
	H112	H	0.090936	0.912493	0.612074
	H113	H	0.098117	0.098635	0.377787
	H114	H	0.913968	0.094034	0.612479
	H115	H	0.908711	0.911648	0.381110
	H116	H	0.619439	0.099054	0.907244
	H117	H	0.388451	0.098182	0.086411
	H118	H	0.620191	0.907595	0.090168
	H119	H	0.389070	0.909323	0.911151
	C120	C	0.380214	0.011886	0.621406
	C121	C	0.624196	0.994344	0.620305
	C122	C	0.624296	0.011625	0.377937
	C123	C	0.381460	0.994944	0.377628
	C124	C	0.623631	0.383660	0.005954
	C125	C	0.625702	0.625851	0.988584
	C126	C	0.381997	0.624086	0.005979
	C127	C	0.380198	0.381366	0.989580
	C128	C	0.012799	0.622661	0.373921
	C129	C	0.995185	0.622032	0.616520
	C130	C	0.011842	0.379985	0.615139
	C131	C	0.995395	0.377510	0.371828
	C132	C	0.883043	0.510744	0.116221
	C133	C	0.125676	0.493656	0.117224
	C134	C	0.124204	0.510550	0.874469
	C135	C	0.880580	0.493360	0.872892
	C136	C	0.122937	0.881296	0.505622
	C137	C	0.126077	0.123327	0.488183
	C138	C	0.883447	0.121172	0.504871
	C139	C	0.879265	0.878282	0.488523
	C140	C	0.510761	0.125004	0.878338
	C141	C	0.493976	0.127363	0.122471
	C142	C	0.511333	0.883114	0.119422
	C143	C	0.494687	0.881754	0.876403
	C144	C	0.379968	0.889754	0.678192
	C145	C	0.624413	0.117585	0.677058
	C146	C	0.622835	0.890483	0.317874
	C147	C	0.383822	0.117553	0.322596
	C148	C	0.679537	0.381740	0.883357
	C149	C	0.683764	0.626244	0.110344
	C150	C	0.325981	0.622721	0.883157
	C151	C	0.323159	0.383298	0.111672
	C152	C	0.890492	0.677639	0.374079
	C153	C	0.116273	0.681993	0.617722
	C154	C	0.890065	0.321725	0.614251
	C155	C	0.117941	0.322718	0.374063
	C156	C	0.890552	0.377729	0.673545
	C157	C	0.116550	0.623322	0.674862
	C158	C	0.890387	0.618589	0.317885
	C159	C	0.118121	0.381215	0.316815
	C160	C	0.383263	0.680754	0.883798
	C161	C	0.625411	0.683050	0.111001
	C162	C	0.621345	0.324921	0.884002
	C163	C	0.381768	0.326958	0.112743
	C164	C	0.679676	0.889363	0.375624
	C165	C	0.684545	0.115758	0.621567
	C166	C	0.321525	0.890091	0.621752
	C167	C	0.325910	0.116982	0.379920
	C168	C	0.883368	0.387675	0.170976
	C169	C	0.126047	0.615859	0.175060
	C170	C	0.124096	0.388389	0.816035
	C171	C	0.881917	0.614747	0.814503
	C172	C	0.181495	0.881306	0.383899
	C173	C	0.181248	0.124477	0.611230
	C174	C	0.824561	0.120321	0.383404
	C175	C	0.822193	0.877970	0.610361
	C176	C	0.388321	0.179550	0.880462
	C177	C	0.615643	0.185917	0.121694
	C178	C	0.390282	0.824170	0.119738
	C179	C	0.616000	0.824935	0.875684
	C180	C	0.389596	0.883625	0.175940
	C181	C	0.616087	0.128097	0.179244
	C182	C	0.388689	0.123091	0.821662
	C183	C	0.615913	0.883304	0.818512
	C184	C	0.884328	0.175364	0.381465
	C185	C	0.124963	0.182610	0.609718
	C186	C	0.122548	0.824924	0.382572
	C187	C	0.879893	0.820233	0.609850
	C188	C	0.182273	0.389417	0.873248
	C189	C	0.182827	0.616164	0.117758
	C190	C	0.824041	0.388912	0.115094
	C191	C	0.824364	0.615251	0.872284
	C192	C	0.404304	0.096736	0.598121
	C193	C	0.599202	0.910101	0.596281
	C194	C	0.601620	0.096519	0.403060
	C195	C	0.404289	0.909570	0.400226
	C196	C	0.600785	0.408784	0.090863
	C197	C	0.602001	0.601756	0.903422
	C198	C	0.405058	0.601073	0.091260
	C199	C	0.403861	0.403626	0.904178
	C200	C	0.098016	0.601446	0.397232
	C201	C	0.911116	0.596660	0.591334
	C202	C	0.096263	0.404796	0.591475
	C203	C	0.909957	0.398936	0.393995
	C204	C	0.907208	0.596128	0.094029
	C205	C	0.101927	0.408363	0.093003
	C206	C	0.100426	0.595114	0.898411
	C207	C	0.903479	0.408931	0.897308
	C208	C	0.098684	0.905131	0.590572
	C209	C	0.103267	0.098655	0.402732
	C210	C	0.907206	0.098404	0.589843
	C211	C	0.902512	0.901966	0.403741
	C212	C	0.595976	0.102865	0.901071
	C213	C	0.409111	0.103072	0.098889
	C214	C	0.596315	0.907186	0.095815
	C215	C	0.410017	0.904666	0.900635
	Zn216	Zn	0.502219	0.004395	0.748824
	Zn217	Zn	0.503367	0.004555	0.248904
	Zn218	Zn	0.753482	0.503596	-0.004265
	Zn219	Zn	0.252718	0.503129	-0.003928
	Zn220	Zn	0.002825	0.751590	0.495820
	Zn221	Zn	0.003815	0.249880	0.494874
	Zn222	Zn	0.003152	0.500422	0.745176
	Zn223	Zn	0.004784	0.501568	0.244825
	Zn224	Zn	0.503166	0.753079	-0.001679
	Zn225	Zn	0.502240	0.254564	-0.000926
	Zn226	Zn	0.752710	0.001438	0.498070
	Zn227	Zn	0.252938	0.002103	0.499161
	N228	N	0.415876	0.966343	0.677952
	N229	N	0.587544	0.041313	0.676550
	N230	N	0.588883	0.967487	0.319319
	N231	N	0.417983	0.040593	0.321150
	N232	N	0.680837	0.417806	0.960080
	N233	N	0.684440	0.591794	0.032950
	N234	N	0.324979	0.588313	0.960132
	N235	N	0.322028	0.416291	0.033923
	N236	N	0.967667	0.680606	0.407998
	N237	N	0.039796	0.681265	0.582112
	N238	N	0.966304	0.323110	0.578542
	N239	N	0.040510	0.320070	0.407341
	N240	N	0.967235	0.413318	0.674205
	N241	N	0.040177	0.587090	0.674463
	N242	N	0.967370	0.585213	0.317749
	N243	N	0.041234	0.414630	0.315356
	N244	N	0.417221	0.681749	0.961246
	N245	N	0.590195	0.682961	0.034201
	N246	N	0.587022	0.326102	0.961177
	N247	N	0.416495	0.325639	0.035890
	N248	N	0.680525	0.965685	0.412443
	N249	N	0.684799	0.038303	0.587166
	N250	N	0.321717	0.966823	0.586986
	N251	N	0.324538	0.039557	0.413374
	N252	N	0.919300	0.464447	0.172072
	N253	N	0.091117	0.538540	0.174919
	N254	N	0.088625	0.464541	0.816602
	N255	N	0.915936	0.537787	0.814542
	N256	N	0.182137	0.915395	0.461518
	N257	N	0.182139	0.088464	0.534532
	N258	N	0.824094	0.087305	0.461023
	N259	N	0.821645	0.913155	0.533713
	N260	N	0.465149	0.180874	0.915133
	N261	N	0.538638	0.185827	0.087424
	N262	N	0.467242	0.823482	0.085602
	N263	N	0.539552	0.824066	0.911180
	N264	N	0.466172	0.919403	0.175910
	N265	N	0.539387	0.092497	0.179770
	N266	N	0.465882	0.089981	0.820184
	N267	N	0.539387	0.917895	0.818807
	N268	N	0.920273	0.176072	0.457937
	N269	N	0.091506	0.182153	0.532042
	N270	N	0.086744	0.824930	0.459039
	N271	N	0.914717	0.820275	0.532972
	N272	N	0.182357	0.466275	0.908801
	N273	N	0.182630	0.539199	0.082509
	N274	N	0.823941	0.466447	0.081761
	N275	N	0.823413	0.538877	0.907910
	O276	O	-0.090173	-0.029761	-0.081819
	H277	H	-0.086568	-0.024523	-0.085861
	H278	H	-0.086659	-0.033408	-0.082508
	O279	O	0.431736	0.455338	0.444034
	H280	H	0.425752	0.446254	0.450714
	H281	H	0.428657	0.461573	0.458484
	O282	O	0.818382	-0.097311	0.041010
	H283	H	0.809478	-0.112501	0.048640
	H284	H	0.817213	-0.106324	0.049972
	O285	O	0.138712	1.167609	0.150891
	H286	H	0.155786	1.178689	0.151267
	H287	H	0.144126	1.167441	0.134072
	O288	O	1.109799	0.934310	0.129388
	H289	H	1.126712	0.937476	0.134097
	H290	H	1.106661	0.934506	0.131628
	O291	O	0.547966	0.455724	0.521354
	H292	H	0.548720	0.467178	0.523799
	H293	H	0.539809	0.447634	0.538554
	O294	O	1.006972	1.047658	1.056156
	H295	H	0.996572	1.058696	1.060224
	H296	H	1.003044	1.040927	1.050651
	O297	O	0.001122	0.023685	-0.112865
	H298	H	-0.000406	0.013283	-0.098988
	H299	H	-0.015067	0.016487	-0.114845
	O300	O	0.622420	0.518055	0.555257
	H301	H	0.630661	0.521737	0.565065
	H302	H	0.616008	0.521702	0.555735
	O303	O	-0.058670	0.976654	1.073306
	H304	H	-0.055783	0.992295	1.068300
	H305	H	-0.047747	0.968666	1.081129
	O306	O	0.548688	0.374782	0.481673
	H307	H	0.551249	0.378265	0.492461
	H308	H	0.555933	0.381415	0.486970
	O309	O	0.866662	-0.064365	0.114453
	H310	H	0.861503	-0.067885	0.109527
	H311	H	0.881406	-0.065626	0.126821
	O312	O	0.028646	-0.102666	0.941963
	H313	H	0.030827	-0.110686	0.923969
	H314	H	0.042432	-0.099272	0.930905
	O315	O	0.657611	0.568125	0.680067
	H316	H	0.663086	0.567059	0.698444
	H317	H	0.656658	0.592624	0.680699
	O318	O	0.617042	0.449496	0.479574
	H319	H	0.636591	0.443809	0.488620
	H320	H	0.614889	0.459697	0.485078
	O321	O	0.367226	0.445137	0.566048
	H322	H	0.361603	0.449820	0.563998
	H323	H	0.368367	0.449307	0.555052
	O324	O	0.428173	0.447501	0.394469
	H325	H	0.423373	0.447804	0.383457
	H326	H	0.436091	0.440247	0.394136
	O327	O	0.108967	1.136814	0.893664
	H328	H	0.107269	1.149691	0.884016
	H329	H	0.088322	1.137137	0.893727
	O330	O	0.048640	-0.032201	0.103892
	H331	H	0.050394	-0.038678	0.107951
	H332	H	0.057692	-0.020333	0.093926
	O333	O	0.037469	0.960701	1.125602
	H334	H	0.051847	0.957809	1.123213
	H335	H	0.038223	0.959076	1.133860
	O336	O	1.163689	1.014769	0.958640
	H337	H	1.145642	1.016473	0.950233
	H338	H	1.169182	1.017400	0.955277
	O339	O	0.499462	0.458802	0.409240
	H340	H	0.504943	0.458128	0.405092
	H341	H	0.493786	0.444533	0.406090
	O342	O	0.896294	0.094925	0.070029
	H343	H	0.889907	0.081351	0.073917
	H344	H	0.898383	0.106706	0.084309
	O345	O	0.600836	0.560946	0.401041
	H346	H	0.598514	0.558782	0.387785
	H347	H	0.598891	0.575136	0.403650
	O348	O	0.994849	1.141521	1.083324
	H349	H	1.000165	1.135687	1.080294
	H350	H	1.003530	1.149722	1.097830
	O351	O	0.682794	0.693314	0.604415
	H352	H	0.699248	0.718738	0.587050
	H353	H	0.655947	0.696092	0.610313
	O354	O	0.591415	0.480010	0.580073
	H355	H	0.599978	0.462048	0.580159
	H356	H	0.608180	0.481125	0.591792
	O357	O	0.460757	0.506158	0.523012
	H358	H	0.471094	0.507115	0.523674
	H359	H	0.462321	0.500629	0.528810
	O360	O	0.160938	-0.048978	-0.043066
	H361	H	0.159417	-0.035935	-0.044295
	H362	H	0.163140	-0.036830	-0.044135
	O363	O	0.489868	0.407149	0.505622
	H364	H	0.502350	0.401747	0.505840
	H365	H	0.486295	0.390778	0.497026
	O366	O	0.995517	-0.150616	0.917376
	H367	H	0.999638	-0.135318	0.919788
	H368	H	0.980773	-0.150586	0.916792
	O369	O	0.541010	0.562662	0.485098
	H370	H	0.553620	0.558885	0.469721
	H371	H	0.526270	0.562215	0.474418
	O372	O	0.059119	1.046747	0.946818
	H373	H	0.061129	1.038129	0.955240
	H374	H	0.058145	1.052664	0.943270
	O375	O	0.478347	0.661658	0.559404
	H376	H	0.478828	0.668343	0.561801
	H377	H	0.467179	0.667652	0.551911
	O378	O	0.466452	0.567108	0.456586
	H379	H	0.464842	0.566597	0.464733
	H380	H	0.474979	0.547858	0.459100
	O381	O	0.341915	0.448666	0.612452
	H382	H	0.342753	0.454273	0.608647
	H383	H	0.328350	0.444953	0.617878
	O384	O	-0.111625	1.088828	-0.133201
	H385	H	-0.125595	1.092204	-0.137662
	H386	H	-0.103526	1.067988	-0.132744
	O387	O	0.897698	0.102546	0.963167
	H388	H	0.886590	0.103890	0.959250
	H389	H	0.895243	0.099811	0.958050
	O390	O	-0.032784	0.862826	-0.178826
	H391	H	-0.034472	0.858798	-0.166643
	H392	H	-0.037345	0.842578	-0.177955
	O393	O	0.521299	0.644844	-0.553746
	H394	H	0.509798	0.635763	-0.562149
	H395	H	0.522636	0.653370	-0.555895
	O396	O	0.405795	0.500304	0.437730
	H397	H	0.399412	0.502107	0.437580
	H398	H	0.413540	0.503410	0.440866
	O399	O	-0.014416	0.937082	0.997240
	H400	H	-0.014593	0.935014	1.010296
	H401	H	-0.013768	0.938477	0.996953
	O402	O	1.043345	0.948890	0.889694
	H403	H	1.054206	0.946704	0.894787
	H404	H	1.039744	0.950611	0.901673
	O405	O	0.414831	0.522317	0.489879
	H406	H	0.426149	0.515925	0.491171
	H407	H	0.411516	0.522300	0.493720
