data_Molecule from HDF5

_cell_length_a		16.248168
_cell_length_b		16.297029
_cell_length_c		16.308511
_cell_angle_alpha	90.167943
_cell_angle_beta	89.941906
_cell_angle_gamma	90.063483
_symmetry_space_group_name_H-M	'P 1'
_symmetry_Int_Tables_number		1

loop_
	_symmetry_equiv_pos_as_xyz
	x,y,z

loop_
	_atom_site_label
	_atom_site_type_symbol
	_atom_site_fract_x
	_atom_site_fract_y
	_atom_site_fract_z
	H0	H	0.389384	0.828154	0.706710
	H1	H	0.586141	0.155540	0.707880
	H2	H	0.587510	0.830327	0.277267
	H3	H	0.390344	0.156495	0.278598
	H4	H	0.701833	0.395080	0.829653
	H5	H	0.702566	0.590803	0.156856
	H6	H	0.275041	0.590036	0.828790
	H7	H	0.273470	0.395805	0.156881
	H8	H	0.823721	0.704914	0.396932
	H9	H	0.152160	0.706103	0.591275
	H10	H	0.823740	0.279754	0.589860
	H11	H	0.153712	0.279250	0.395748
	H12	H	0.823713	0.395222	0.706421
	H13	H	0.152368	0.590372	0.707190
	H14	H	0.824136	0.589412	0.280128
	H15	H	0.152933	0.395107	0.278692
	H16	H	0.391807	0.706037	0.829322
	H17	H	0.586417	0.707418	0.156875
	H18	H	0.586196	0.278330	0.829500
	H19	H	0.389237	0.278511	0.156968
	H20	H	0.700767	0.828366	0.395464
	H21	H	0.701608	0.156182	0.591047
	H22	H	0.275395	0.828525	0.588581
	H23	H	0.275514	0.156957	0.396362
	H24	H	0.890433	0.328198	0.206114
	H25	H	0.087564	0.656362	0.208359
	H26	H	0.086383	0.329086	0.778112
	H27	H	0.890536	0.656133	0.779077
	H28	H	0.202340	0.894333	0.329239
	H29	H	0.202994	0.090914	0.657287
	H30	H	0.774645	0.088073	0.329347
	H31	H	0.773249	0.894113	0.656944
	H32	H	0.324411	0.206791	0.894555
	H33	H	0.652591	0.207732	0.091530
	H34	H	0.323939	0.779525	0.089737
	H35	H	0.652876	0.778604	0.894133
	H36	H	0.324397	0.894801	0.206717
	H37	H	0.652742	0.092873	0.207590
	H38	H	0.324368	0.089194	0.780166
	H39	H	0.652337	0.894284	0.778519
	H40	H	0.889660	0.205946	0.329725
	H41	H	0.086105	0.207533	0.657318
	H42	H	0.087135	0.776767	0.329796
	H43	H	0.890005	0.778682	0.657247
	H44	H	0.201736	0.328988	0.894695
	H45	H	0.201692	0.657066	0.090514
	H46	H	0.775464	0.328112	0.089062
	H47	H	0.775794	0.656492	0.896236
	H48	H	0.394116	0.109514	0.587411
	H49	H	0.583439	0.873689	0.590566
	H50	H	0.580496	0.110201	0.395825
	H51	H	0.396518	0.877294	0.398833
	H52	H	0.578826	0.402020	0.108180
	H53	H	0.578643	0.586748	0.877597
	H54	H	0.398072	0.586709	0.108195
	H55	H	0.397514	0.410862	0.881197
	H56	H	0.105382	0.580196	0.395638
	H57	H	0.874127	0.580372	0.580900
	H58	H	0.110280	0.393513	0.598020
	H59	H	0.870447	0.400552	0.394439
	H60	H	0.103289	0.391225	0.574126
	H61	H	0.869533	0.582623	0.595637
	H62	H	0.107665	0.591374	0.398263
	H63	H	0.870255	0.392198	0.399433
	H64	H	0.393835	0.589742	0.110394
	H65	H	0.584947	0.588676	0.875173
	H66	H	0.581831	0.395531	0.110665
	H67	H	0.404216	0.390397	0.877680
	H68	H	0.579051	0.107714	0.403290
	H69	H	0.576727	0.876556	0.586521
	H70	H	0.395246	0.109596	0.588934
	H71	H	0.393587	0.876476	0.399646
	H72	H	0.898179	0.608591	0.087763
	H73	H	0.078941	0.375400	0.090210
	H74	H	0.079538	0.608697	0.900312
	H75	H	0.902083	0.379354	0.903335
	H76	H	0.082097	0.898277	0.609555
	H77	H	0.076986	0.090905	0.377177
	H78	H	0.892513	0.091871	0.611763
	H79	H	0.895637	0.895639	0.376647
	H80	H	0.605607	0.078850	0.890946
	H81	H	0.370215	0.092960	0.085015
	H82	H	0.608527	0.892774	0.090319
	H83	H	0.371899	0.897651	0.901809
	H84	H	0.603315	0.898672	0.077323
	H85	H	0.375667	0.081413	0.080693
	H86	H	0.608272	0.097077	0.899131
	H87	H	0.372421	0.900637	0.899506
	H88	H	0.890128	0.081831	0.608884
	H89	H	0.088378	0.086545	0.375095
	H90	H	0.081263	0.900831	0.608267
	H91	H	0.892453	0.898029	0.376389
	H92	H	0.083306	0.608400	0.901635
	H93	H	0.077450	0.379141	0.082286
	H94	H	0.895081	0.608401	0.084673
	H95	H	0.886623	0.374155	0.903095
	H96	H	0.395799	0.108165	0.587843
	H97	H	0.584145	0.875469	0.582417
	H98	H	0.586408	0.110712	0.400830
	H99	H	0.394860	0.875202	0.397154
	H100	H	0.585530	0.401808	0.110933
	H101	H	0.583891	0.582289	0.877069
	H102	H	0.392707	0.584350	0.109014
	H103	H	0.383835	0.395860	0.872532
	H104	H	0.102723	0.584830	0.406069
	H105	H	0.868886	0.594502	0.585700
	H106	H	0.101436	0.413347	0.585773
	H107	H	0.874060	0.400541	0.403893
	H108	H	0.893909	0.609204	0.088767
	H109	H	0.086330	0.375962	0.084245
	H110	H	0.082255	0.609962	0.897661
	H111	H	0.896421	0.373623	0.890107
	H112	H	0.079584	0.899119	0.609508
	H113	H	0.080235	0.078489	0.380430
	H114	H	0.900449	0.085923	0.608227
	H115	H	0.895932	0.899934	0.377970
	H116	H	0.601303	0.081736	0.910301
	H117	H	0.370457	0.082804	0.093354
	H118	H	0.604154	0.907285	0.089456
	H119	H	0.370337	0.897234	0.897895
	C120	C	0.366965	0.000568	0.615153
	C121	C	0.609849	0.983668	0.614963
	C122	C	0.609979	0.001101	0.371660
	C123	C	0.367003	0.984583	0.371158
	C124	C	0.609882	0.371382	0.001702
	C125	C	0.610487	0.614735	0.984644
	C126	C	0.367051	0.614491	0.001120
	C127	C	0.366262	0.370671	0.985141
	C128	C	-0.003563	0.613163	0.372506
	C129	C	0.979561	0.614095	0.615425
	C130	C	-0.003420	0.371136	0.614273
	C131	C	0.980357	0.370243	0.371210
	C132	C	0.867173	0.500001	0.114335
	C133	C	0.109712	0.485145	0.114468
	C134	C	0.109817	0.501167	0.871347
	C135	C	0.866756	0.483927	0.871219
	C136	C	0.109867	0.870531	0.501256
	C137	C	0.110138	0.114156	0.485635
	C138	C	0.866013	0.114280	0.501662
	C139	C	0.866216	0.870037	0.485181
	C140	C	0.496454	0.113842	0.872328
	C141	C	0.480419	0.114493	0.114731
	C142	C	0.496947	0.871131	0.114038
	C143	C	0.480240	0.870701	0.871364
	C144	C	0.369316	0.877177	0.669086
	C145	C	0.606903	0.106780	0.670064
	C146	C	0.607196	0.878517	0.316032
	C147	C	0.369834	0.107814	0.316403
	C148	C	0.664404	0.374182	0.878372
	C149	C	0.664666	0.611596	0.108133
	C150	C	0.312608	0.611016	0.877577
	C151	C	0.311754	0.374856	0.108433
	C152	C	0.872780	0.667419	0.375888
	C153	C	0.103074	0.668953	0.612589
	C154	C	0.872714	0.316962	0.611171
	C155	C	0.104463	0.316819	0.374751
	C156	C	0.872777	0.374479	0.668799
	C157	C	0.103292	0.611175	0.669757
	C158	C	0.872829	0.609946	0.318089
	C159	C	0.104038	0.373971	0.316516
	C160	C	0.370727	0.668344	0.877804
	C161	C	0.607042	0.669557	0.107981
	C162	C	0.606860	0.316339	0.878384
	C163	C	0.368726	0.316246	0.108079
	C164	C	0.663651	0.877622	0.374782
	C165	C	0.664084	0.107294	0.611925
	C166	C	0.312321	0.877299	0.610649
	C167	C	0.312589	0.108019	0.374737
	C168	C	0.869691	0.377111	0.168781
	C169	C	0.107903	0.607516	0.170430
	C170	C	0.107229	0.377915	0.816039
	C171	C	0.869756	0.607430	0.816977
	C172	C	0.164777	0.873240	0.378069
	C173	C	0.164595	0.111134	0.608717
	C174	C	0.812229	0.109560	0.378328
	C175	C	0.811438	0.873659	0.608235
	C176	C	0.373278	0.168622	0.874936
	C177	C	0.603647	0.169990	0.112381
	C178	C	0.373041	0.816744	0.110868
	C179	C	0.603805	0.816293	0.873943
	C180	C	0.373414	0.873906	0.169117
	C181	C	0.603811	0.112647	0.169764
	C182	C	0.373200	0.110433	0.817706
	C183	C	0.603594	0.873923	0.816568
	C184	C	0.869231	0.168132	0.378490
	C185	C	0.106827	0.169176	0.608623
	C186	C	0.107333	0.815068	0.378310
	C187	C	0.869278	0.816068	0.608329
	C188	C	0.164397	0.377793	0.874049
	C189	C	0.164914	0.607759	0.112104
	C190	C	0.812341	0.377172	0.110595
	C191	C	0.812576	0.607292	0.874816
	C192	C	0.388741	0.086774	0.594324
	C193	C	0.587894	0.897510	0.592958
	C194	C	0.588315	0.087531	0.393656
	C195	C	0.388664	0.898565	0.392270
	C196	C	0.588320	0.393268	0.087677
	C197	C	0.588930	0.592445	0.898790
	C198	C	0.388495	0.593104	0.087000
	C199	C	0.388468	0.392489	0.899440
	C200	C	0.082914	0.591726	0.393665
	C201	C	0.893206	0.592367	0.593778
	C202	C	0.082766	0.392957	0.592395
	C203	C	0.893981	0.391335	0.392808
	C204	C	0.889113	0.586472	0.093191
	C205	C	0.087390	0.399027	0.092034
	C206	C	0.088055	0.586938	0.893511
	C207	C	0.888484	0.397877	0.892520
	C208	C	0.087658	0.892865	0.586886
	C209	C	0.088253	0.091910	0.399738
	C210	C	0.888012	0.092854	0.587577
	C211	C	0.888158	0.891541	0.399238
	C212	C	0.582799	0.092317	0.893728
	C213	C	0.394251	0.092398	0.092854
	C214	C	0.583053	0.893224	0.092150
	C215	C	0.393720	0.892195	0.893357
	Zn216	Zn	0.488483	-0.008261	0.743316
	Zn217	Zn	0.488864	-0.006947	0.242459
	Zn218	Zn	0.738648	0.492666	-0.006998
	Zn219	Zn	0.238112	0.493111	-0.007139
	Zn220	Zn	-0.011867	0.741745	0.493488
	Zn221	Zn	-0.011626	0.242560	0.493296
	Zn222	Zn	-0.011908	0.492464	0.742841
	Zn223	Zn	-0.011467	0.492324	0.243286
	Zn224	Zn	0.488495	0.742932	-0.007294
	Zn225	Zn	0.488608	0.242604	-0.006471
	Zn226	Zn	0.738043	-0.007897	0.493681
	Zn227	Zn	0.238747	-0.007577	0.493111
	N228	N	0.402484	0.954836	0.671868
	N229	N	0.574059	0.029057	0.671971
	N230	N	0.574801	0.956366	0.313987
	N231	N	0.402805	0.030084	0.313916
	N232	N	0.666157	0.407849	0.955791
	N233	N	0.667060	0.578422	0.030597
	N234	N	0.310256	0.578090	0.955124
	N235	N	0.310094	0.407964	0.030992
	N236	N	0.950536	0.669483	0.408995
	N237	N	0.025430	0.670467	0.579069
	N238	N	0.950539	0.314817	0.578067
	N239	N	0.026540	0.314334	0.407825
	N240	N	0.950718	0.407625	0.670798
	N241	N	0.025473	0.577951	0.671708
	N242	N	0.950732	0.577055	0.315945
	N243	N	0.026029	0.406435	0.314147
	N244	N	0.403897	0.670479	0.955283
	N245	N	0.574030	0.671464	0.030285
	N246	N	0.573594	0.314563	0.955966
	N247	N	0.401992	0.313785	0.030569
	N248	N	0.665243	0.954986	0.408829
	N249	N	0.666185	0.029661	0.578569
	N250	N	0.310678	0.955002	0.578066
	N251	N	0.310582	0.030525	0.407876
	N252	N	0.903184	0.454684	0.170933
	N253	N	0.074332	0.529954	0.171930
	N254	N	0.074012	0.455420	0.814211
	N255	N	0.902705	0.529754	0.814489
	N256	N	0.166367	0.907112	0.455430
	N257	N	0.166528	0.077614	0.531125
	N258	N	0.810390	0.076612	0.455783
	N259	N	0.809486	0.906408	0.530637
	N260	N	0.450948	0.170534	0.908361
	N261	N	0.526110	0.171049	0.078810
	N262	N	0.450883	0.814738	0.077577
	N263	N	0.526081	0.814550	0.907348
	N264	N	0.451301	0.907080	0.171047
	N265	N	0.526263	0.078458	0.171082
	N266	N	0.450781	0.076961	0.815905
	N267	N	0.525771	0.907039	0.814979
	N268	N	0.901943	0.171136	0.456210
	N269	N	0.073594	0.170940	0.531138
	N270	N	0.073905	0.813212	0.455840
	N271	N	0.902731	0.813886	0.530835
	N272	N	0.165978	0.455273	0.907884
	N273	N	0.166194	0.530470	0.078246
	N274	N	0.810945	0.454804	0.077428
	N275	N	0.810527	0.529615	0.907699
	O276	O	1.060403	0.014857	1.030481
	H277	H	1.056527	0.014162	1.030626
	H278	H	1.068126	0.006968	1.035311
	O279	O	1.079315	1.039388	1.060544
	H280	H	1.084747	1.038063	1.061049
	H281	H	1.076158	1.046470	1.057818
	O282	O	1.073261	0.995463	0.058607
	H283	H	1.073939	0.991319	0.059059
	H284	H	1.075653	1.003674	0.069009
	O285	O	1.060671	1.038959	1.034603
	H286	H	1.058726	1.041647	1.034912
	H287	H	1.065989	1.038579	1.031489
