data_Molecule from HDF5

_cell_length_a		16.413154
_cell_length_b		16.667666
_cell_length_c		16.384870
_cell_angle_alpha	89.970874
_cell_angle_beta	90.012145
_cell_angle_gamma	89.919473
_symmetry_space_group_name_H-M	'P 1'
_symmetry_Int_Tables_number		1

loop_
	_symmetry_equiv_pos_as_xyz
	x,y,z

loop_
	_atom_site_label
	_atom_site_type_symbol
	_atom_site_fract_x
	_atom_site_fract_y
	_atom_site_fract_z
	H0	H	0.388457	0.850878	0.745861
	H1	H	0.599952	0.162665	0.744450
	H2	H	0.605180	0.852955	0.295535
	H3	H	0.389386	0.162294	0.301609
	H4	H	0.715618	0.402592	0.863236
	H5	H	0.717568	0.612853	0.180554
	H6	H	0.272996	0.613658	0.864744
	H7	H	0.277443	0.406365	0.181473
	H8	H	0.836767	0.734132	0.409907
	H9	H	0.148870	0.732584	0.631236
	H10	H	0.837352	0.282637	0.633710
	H11	H	0.151077	0.287221	0.417842
	H12	H	0.835713	0.402901	0.744716
	H13	H	0.151544	0.612930	0.742166
	H14	H	0.835259	0.614290	0.298146
	H15	H	0.153478	0.408803	0.307462
	H16	H	0.385667	0.732112	0.866587
	H17	H	0.606696	0.732984	0.178974
	H18	H	0.603880	0.283654	0.864642
	H19	H	0.390519	0.287189	0.179589
	H20	H	0.722037	0.853986	0.411158
	H21	H	0.716537	0.163393	0.628127
	H22	H	0.271483	0.850386	0.629031
	H23	H	0.272701	0.162589	0.419072
	H24	H	0.887262	0.350862	0.246166
	H25	H	0.101977	0.662170	0.248183
	H26	H	0.101626	0.353408	0.798746
	H27	H	0.885747	0.662971	0.798563
	H28	H	0.213485	0.903602	0.362840
	H29	H	0.210484	0.106714	0.682077
	H30	H	0.770739	0.115714	0.363273
	H31	H	0.771797	0.902698	0.679758
	H32	H	0.337543	0.226449	0.918980
	H33	H	0.651784	0.232528	0.132802
	H34	H	0.339425	0.783190	0.132334
	H35	H	0.650305	0.779395	0.909345
	H36	H	0.336356	0.905396	0.240602
	H37	H	0.652368	0.114509	0.245975
	H38	H	0.336190	0.108325	0.804472
	H39	H	0.652171	0.899813	0.798217
	H40	H	0.883775	0.233272	0.364970
	H41	H	0.098096	0.226157	0.680865
	H42	H	0.102373	0.784285	0.363926
	H43	H	0.881591	0.780677	0.676134
	H44	H	0.217935	0.353710	0.917060
	H45	H	0.220548	0.661727	0.133247
	H46	H	0.770542	0.350665	0.129942
	H47	H	0.767893	0.661283	0.913544
	H48	H	0.400527	0.117506	0.608436
	H49	H	0.578586	0.895584	0.615218
	H50	H	0.574311	0.112331	0.439470
	H51	H	0.401891	0.894123	0.434201
	H52	H	0.584040	0.412067	0.137867
	H53	H	0.579979	0.589793	0.912579
	H54	H	0.407799	0.593108	0.134712
	H55	H	0.405212	0.417802	0.907690
	H56	H	0.104172	0.593203	0.434154
	H57	H	0.883373	0.595900	0.600132
	H58	H	0.107649	0.415459	0.610542
	H59	H	0.879488	0.421283	0.432802
	H60	H	0.105693	0.417556	0.607835
	H61	H	0.881911	0.589492	0.611591
	H62	H	0.106919	0.599992	0.432711
	H63	H	0.877548	0.415447	0.434884
	H64	H	0.410867	0.596743	0.135157
	H65	H	0.575533	0.596678	0.911910
	H66	H	0.586113	0.423750	0.134638
	H67	H	0.407853	0.417984	0.907807
	H68	H	0.591248	0.119730	0.438472
	H69	H	0.579325	0.899816	0.603499
	H70	H	0.399718	0.120275	0.615776
	H71	H	0.404094	0.892992	0.428757
	H72	H	0.907389	0.616524	0.109470
	H73	H	0.086808	0.397116	0.107526
	H74	H	0.081340	0.617909	0.936142
	H75	H	0.908545	0.398818	0.935912
	H76	H	0.081180	0.916053	0.636077
	H77	H	0.083346	0.102034	0.405780
	H78	H	0.904207	0.098497	0.636331
	H79	H	0.905312	0.920611	0.408382
	H80	H	0.609430	0.095790	0.934204
	H81	H	0.383153	0.095415	0.109544
	H82	H	0.605435	0.919590	0.103228
	H83	H	0.385528	0.923225	0.938354
	H84	H	0.607626	0.923281	0.108465
	H85	H	0.381198	0.098687	0.113093
	H86	H	0.610635	0.096964	0.933797
	H87	H	0.381903	0.918844	0.931945
	H88	H	0.904958	0.093422	0.633338
	H89	H	0.086018	0.096759	0.406923
	H90	H	0.082362	0.919151	0.634485
	H91	H	0.910652	0.925845	0.412119
	H92	H	0.083857	0.620209	0.934303
	H93	H	0.087894	0.394178	0.115395
	H94	H	0.906266	0.615794	0.108656
	H95	H	0.903596	0.395602	0.934476
	H96	H	0.407103	0.117066	0.613257
	H97	H	0.588816	0.894074	0.608425
	H98	H	0.579996	0.120319	0.424029
	H99	H	0.407606	0.895430	0.432437
	H100	H	0.574783	0.418585	0.132288
	H101	H	0.583160	0.596211	0.908885
	H102	H	0.406582	0.596851	0.136827
	H103	H	0.406883	0.415914	0.906822
	H104	H	0.104372	0.598314	0.439374
	H105	H	0.878157	0.601744	0.610658
	H106	H	0.106552	0.419350	0.611479
	H107	H	0.881791	0.419023	0.438488
	H108	H	0.906122	0.617025	0.109581
	H109	H	0.080643	0.397436	0.113494
	H110	H	0.081082	0.619272	0.932356
	H111	H	0.907866	0.395935	0.930780
	H112	H	0.078570	0.918206	0.634321
	H113	H	0.079978	0.097349	0.408526
	H114	H	0.909074	0.097382	0.633672
	H115	H	0.912966	0.918089	0.410564
	H116	H	0.609217	0.096760	0.934790
	H117	H	0.381789	0.100300	0.108319
	H118	H	0.609136	0.917406	0.108321
	H119	H	0.382716	0.914806	0.939021
	C120	C	0.371607	0.014961	0.644556
	C121	C	0.615533	0.998979	0.642845
	C122	C	0.616971	0.015665	0.399279
	C123	C	0.372702	0.997904	0.400531
	C124	C	0.615847	0.385383	0.030604
	C125	C	0.615195	0.628436	1.014579
	C126	C	0.374356	0.628970	0.031527
	C127	C	0.374786	0.386507	1.012809
	C128	C	0.001553	0.630236	0.399998
	C129	C	0.984898	0.629094	0.641701
	C130	C	0.002497	0.385365	0.643982
	C131	C	0.984437	0.387170	0.402708
	C132	C	0.872493	0.514317	0.143681
	C133	C	0.117477	0.498886	0.145373
	C134	C	0.115979	0.516986	0.900673
	C135	C	0.872309	0.498996	0.900183
	C136	C	0.114257	0.885526	0.530353
	C137	C	0.114162	0.128447	0.513104
	C138	C	0.872260	0.129526	0.530085
	C139	C	0.873814	0.887359	0.513301
	C140	C	0.504718	0.127849	0.902028
	C141	C	0.486174	0.130347	0.144063
	C142	C	0.504047	0.887015	0.141548
	C143	C	0.486528	0.884733	0.900818
	C144	C	0.370206	0.897473	0.705159
	C145	C	0.618240	0.116179	0.704012
	C146	C	0.622375	0.899751	0.336292
	C147	C	0.371007	0.115547	0.341394
	C148	C	0.676326	0.383568	0.911114
	C149	C	0.677691	0.631437	0.132776
	C150	C	0.312770	0.632337	0.912643
	C151	C	0.316208	0.386415	0.133030
	C152	C	0.883716	0.692600	0.393918
	C153	C	0.102389	0.691183	0.647312
	C154	C	0.884277	0.323981	0.649617
	C155	C	0.103744	0.327630	0.400087
	C156	C	0.883552	0.383670	0.705212
	C157	C	0.103522	0.631449	0.702789
	C158	C	0.883029	0.632945	0.338068
	C159	C	0.105187	0.387888	0.345217
	C160	C	0.368952	0.691275	0.913700
	C161	C	0.621985	0.691129	0.132037
	C162	C	0.620598	0.324450	0.911847
	C163	C	0.372400	0.327248	0.132225
	C164	C	0.680767	0.900132	0.393899
	C165	C	0.676368	0.116247	0.646041
	C166	C	0.311887	0.897175	0.647036
	C167	C	0.312978	0.115518	0.399818
	C168	C	0.869772	0.397414	0.205241
	C169	C	0.120395	0.615555	0.207315
	C170	C	0.119632	0.400260	0.839435
	C171	C	0.868118	0.615909	0.838897
	C172	C	0.174771	0.884094	0.410728
	C173	C	0.172188	0.127265	0.633695
	C174	C	0.810797	0.133328	0.411232
	C175	C	0.811649	0.884013	0.631782
	C176	C	0.385113	0.186965	0.900055
	C177	C	0.604474	0.191787	0.149320
	C178	C	0.385996	0.825118	0.147943
	C179	C	0.603591	0.821403	0.893972
	C180	C	0.384622	0.885735	0.202007
	C181	C	0.604789	0.132955	0.206007
	C182	C	0.384280	0.128268	0.843412
	C183	C	0.604639	0.881249	0.838349
	C184	C	0.867510	0.191934	0.412033
	C185	C	0.115837	0.186322	0.633094
	C186	C	0.118618	0.825144	0.411252
	C187	C	0.866319	0.823432	0.630119
	C188	C	0.177656	0.400204	0.898019
	C189	C	0.179253	0.615544	0.149807
	C190	C	0.811372	0.397329	0.147421
	C191	C	0.809483	0.615174	0.896442
	C192	C	0.395732	0.096942	0.619496
	C193	C	0.589851	0.917735	0.616752
	C194	C	0.589641	0.096402	0.426362
	C195	C	0.397490	0.915587	0.424859
	C196	C	0.589359	0.410958	0.113291
	C197	C	0.587485	0.601985	0.932463
	C198	C	0.400853	0.602938	0.113961
	C199	C	0.399631	0.410402	0.929246
	C200	C	0.083718	0.604634	0.427451
	C201	C	0.902417	0.603314	0.614957
	C202	C	0.084968	0.410268	0.617393
	C203	C	0.901276	0.411652	0.427895
	C204	C	0.898820	0.595407	0.116935
	C205	C	0.092149	0.417494	0.119463
	C206	C	0.089708	0.597973	0.926972
	C207	C	0.898989	0.417889	0.926270
	C208	C	0.088124	0.910554	0.613066
	C209	C	0.089972	0.105268	0.429069
	C210	C	0.898484	0.103708	0.612718
	C211	C	0.901632	0.914009	0.431747
	C212	C	0.587974	0.103416	0.926932
	C213	C	0.403605	0.105359	0.117903
	C214	C	0.585914	0.912383	0.114423
	C215	C	0.404834	0.911363	0.928383
	Zn216	Zn	0.494817	0.006892	0.773178
	Zn217	Zn	0.495152	0.006868	0.270607
	Zn218	Zn	0.743085	0.506501	0.022638
	Zn219	Zn	0.246290	0.508292	0.022619
	Zn220	Zn	-0.006741	0.757931	0.521224
	Zn221	Zn	-0.006813	0.257490	0.522481
	Zn222	Zn	-0.006589	0.508212	0.770590
	Zn223	Zn	-0.006469	0.507214	0.273511
	Zn224	Zn	0.495132	0.757330	0.022945
	Zn225	Zn	0.495832	0.257308	0.021697
	Zn226	Zn	0.745273	0.007718	0.521663
	Zn227	Zn	0.242117	0.006025	0.522233
	N228	N	0.406646	0.971646	0.703725
	N229	N	0.581342	0.042279	0.702377
	N230	N	0.583702	0.972845	0.339303
	N231	N	0.407320	0.041269	0.341652
	N232	N	0.673521	0.420743	0.986033
	N233	N	0.673714	0.593306	0.058427
	N234	N	0.315932	0.594356	0.987106
	N235	N	0.317275	0.422360	0.057529
	N236	N	0.958746	0.691143	0.431475
	N237	N	0.027508	0.689867	0.610120
	N238	N	0.959275	0.324778	0.612366
	N239	N	0.027511	0.326777	0.434680
	N240	N	0.958080	0.420927	0.702121
	N241	N	0.029328	0.593407	0.699391
	N242	N	0.957346	0.595185	0.341405
	N243	N	0.029837	0.424100	0.346549
	N244	N	0.406365	0.689353	0.988650
	N245	N	0.583863	0.689181	0.057460
	N246	N	0.584050	0.325314	0.987310
	N247	N	0.408131	0.327091	0.056390
	N248	N	0.677874	0.973415	0.432057
	N249	N	0.674974	0.042297	0.608835
	N250	N	0.312391	0.971173	0.610094
	N251	N	0.313793	0.041285	0.435936
	N252	N	0.906891	0.471317	0.203268
	N253	N	0.082597	0.542076	0.204849
	N254	N	0.082163	0.473969	0.840742
	N255	N	0.906365	0.542638	0.841092
	N256	N	0.172324	0.920777	0.485824
	N257	N	0.171413	0.091894	0.557880
	N258	N	0.813681	0.095296	0.485535
	N259	N	0.816232	0.922951	0.558110
	N260	N	0.461107	0.187129	0.935316
	N261	N	0.529610	0.190296	0.111544
	N262	N	0.461267	0.825536	0.111210
	N263	N	0.529068	0.823522	0.932137
	N264	N	0.458974	0.923291	0.198547
	N265	N	0.530453	0.095309	0.202791
	N266	N	0.459671	0.092284	0.844307
	N267	N	0.530762	0.919974	0.842454
	N268	N	0.904747	0.189978	0.487248
	N269	N	0.080943	0.187542	0.556920
	N270	N	0.081979	0.825769	0.486759
	N271	N	0.904213	0.825298	0.555340
	N272	N	0.175567	0.473837	0.935306
	N273	N	0.177462	0.542140	0.111794
	N274	N	0.812961	0.471110	0.109947
	N275	N	0.812036	0.541501	0.934066
	O276	O	0.347369	0.624231	0.630443
	H277	H	0.361213	0.624948	0.644471
	H278	H	0.355404	0.612006	0.629746
	O279	O	0.672885	0.577780	0.459254
	H280	H	0.670946	0.568998	0.478405
	H281	H	0.670509	0.581806	0.472104
	O282	O	1.202693	0.995194	-0.139558
	H283	H	1.195231	0.982091	-0.142958
	H284	H	1.219974	0.990648	-0.136043
	O285	O	0.317618	0.696054	0.336514
	H286	H	0.304030	0.687276	0.361558
	H287	H	0.304538	0.666210	0.342308
	O288	O	0.203179	0.014550	0.225473
	H289	H	0.208816	0.033348	0.225194
	H290	H	0.216975	0.017536	0.224856
	O291	O	0.294808	0.301189	0.718624
	H292	H	0.271209	0.273495	0.745845
	H293	H	0.316551	0.327005	0.728871
	O294	O	0.196541	1.214342	0.223098
	H295	H	0.174130	1.216731	0.234427
	H296	H	0.213200	1.235182	0.249907
	O297	O	0.950054	0.222183	-0.012011
	H298	H	0.940035	0.241173	0.008763
	H299	H	0.968150	0.212983	0.006356
	O300	O	0.297967	0.530066	0.328248
	H301	H	0.299944	0.513709	0.327582
	H302	H	0.298293	0.512095	0.338638
	O303	O	0.773268	1.026383	0.036064
	H304	H	0.778086	1.017761	0.031823
	H305	H	0.773112	1.039053	0.023626
	O306	O	0.392133	0.447654	1.393404
	H307	H	0.412343	0.454326	1.396185
	H308	H	0.395525	0.433698	1.414093
	O309	O	0.492301	0.307791	0.520041
	H310	H	0.515563	0.312943	0.524978
	H311	H	0.474869	0.305253	0.530429
	O312	O	0.307088	0.317085	0.334352
	H313	H	0.328885	0.322238	0.361199
	H314	H	0.322820	0.343487	0.348466
	O315	O	0.001158	0.050968	1.046581
	H316	H	0.007975	0.039095	1.046644
	H317	H	0.015196	0.058100	1.047781
	O318	O	0.029698	1.135789	-0.116334
	H319	H	0.045616	1.135011	-0.097601
	H320	H	0.015485	1.144152	-0.104666
	O321	O	0.285021	0.475955	0.733297
	H322	H	0.282488	0.475458	0.719037
	H323	H	0.264369	0.470504	0.752561
	O324	O	0.776339	0.014770	0.831142
	H325	H	0.748196	0.027302	0.806314
	H326	H	0.786587	0.049584	0.848982
	O327	O	0.810083	-0.171417	1.200083
	H328	H	0.799472	-0.118508	1.211520
	H329	H	0.829017	-0.180399	1.177556
	O330	O	0.702299	0.683766	-0.465425
	H331	H	0.706622	0.685098	-0.477295
	H332	H	0.702593	0.710228	-0.473239
	O333	O	1.054289	1.001555	0.978317
	H334	H	1.054365	1.015538	0.969747
	H335	H	1.036725	0.990820	0.984527
	O336	O	1.185466	-0.184092	0.834973
	H337	H	1.179825	-0.194820	0.868785
	H338	H	1.163183	-0.163536	0.833426
	O339	O	0.023743	0.223560	0.235470
	H340	H	0.016382	0.200611	0.244394
	H341	H	0.023152	0.241110	0.256000
	O342	O	0.512036	0.323378	0.407973
	H343	H	0.494399	0.331248	0.418020
	H344	H	0.503669	0.308662	0.397314
	O345	O	0.190036	0.199470	0.076731
	H346	H	0.199209	0.204286	0.108831
	H347	H	0.208047	0.197571	0.087659
	O348	O	0.975797	-0.142441	0.805756
	H349	H	0.972274	-0.140517	0.790010
	H350	H	0.973970	-0.117907	0.806024
	O351	O	0.880710	0.933072	-0.052260
	H352	H	0.865383	0.915774	-0.051568
	H353	H	0.876990	0.939255	-0.058998
	O354	O	0.545730	0.475834	0.690098
	H355	H	0.534519	0.478600	0.670070
	H356	H	0.565700	0.483016	0.699878
	O357	O	0.952020	1.071767	1.070955
	H358	H	0.959042	1.055704	1.067938
	H359	H	0.968279	1.060826	1.074607
	O360	O	0.937974	0.209594	0.080073
	H361	H	0.946615	0.213147	0.101643
	H362	H	0.917639	0.203122	0.071883
	O363	O	1.186326	0.006700	1.022386
	H364	H	1.166815	-0.003907	1.025554
	H365	H	1.187305	0.003380	1.034593
	O366	O	1.480031	0.732088	0.306768
	H367	H	1.474924	0.765406	0.269196
	H368	H	1.428702	0.721559	0.322466
	O369	O	0.282314	0.291491	0.549614
	H370	H	0.260034	0.265286	0.557964
	H371	H	0.294699	0.291308	0.587277
	O372	O	0.477814	0.719164	0.538451
	H373	H	0.481688	0.721781	0.565280
	H374	H	0.459510	0.724369	0.536221
	O375	O	0.077382	0.795989	1.103555
	H376	H	0.076000	0.794928	1.084866
	H377	H	0.080139	0.795309	1.109193
	O378	O	1.088581	-0.095668	0.155844
	H379	H	1.075939	-0.117180	0.175113
	H380	H	1.098920	-0.075203	0.152600
	O381	O	0.811928	0.188912	-0.162910
	H382	H	0.815142	0.199127	-0.122506
	H383	H	0.850657	0.197446	-0.175218
	O384	O	-0.021119	-0.186599	0.897514
	H385	H	-0.047584	-0.173106	0.881462
	H386	H	-0.027627	-0.194123	0.879576
	O387	O	-0.295763	1.452936	0.616624
	H388	H	-0.303977	1.441795	0.632437
	H389	H	-0.289272	1.433261	0.629717
	O390	O	-0.032828	-0.211562	1.239127
	H391	H	-0.055817	-0.228863	1.253838
	H392	H	-0.027544	-0.230506	1.232817
	O393	O	0.827993	1.167403	0.083920
	H394	H	0.800987	1.180025	0.085885
	H395	H	0.827179	1.134339	0.083475
	O396	O	0.285455	0.722538	0.501144
	H397	H	0.269893	0.744491	0.513340
	H398	H	0.288487	0.713030	0.509499
	O399	O	-0.220218	-0.011605	0.235339
	H400	H	-0.211497	0.007257	0.241915
	H401	H	-0.232198	-0.003627	0.261643
	O402	O	-0.008543	-0.002546	1.240163
	H403	H	0.015086	-0.018931	1.241926
	H404	H	0.001909	-0.013109	1.232394
	O405	O	0.314751	-0.388937	0.653819
	H406	H	0.334315	-0.390453	0.647795
	H407	H	0.296122	-0.393174	0.668665
	O408	O	0.469146	0.289003	0.734720
	H409	H	0.465982	0.284933	0.751442
	H410	H	0.473790	0.284124	0.738189
	O411	O	0.482469	0.570536	0.671477
	H412	H	0.489390	0.559732	0.670890
	H413	H	0.499554	0.569714	0.668466
	O414	O	0.676305	0.325031	0.344899
	H415	H	0.639513	0.329743	0.333278
	H416	H	0.668892	0.361861	0.330811
	O417	O	0.446570	0.533378	0.572469
	H418	H	0.455258	0.528586	0.564914
	H419	H	0.444029	0.543334	0.567692
	O420	O	0.684560	0.695528	0.676795
	H421	H	0.684924	0.712106	0.653844
	H422	H	0.665556	0.690469	0.662452
	O423	O	-0.225389	0.789529	0.040846
	H424	H	-0.214254	0.786406	0.056299
	H425	H	-0.249730	0.766536	0.037722
	O426	O	0.513407	1.675667	0.660748
	H427	H	0.521469	1.689923	0.685464
	H428	H	0.516593	1.658823	0.663565
	O429	O	0.345935	0.471178	-0.516317
	H430	H	0.350707	0.454349	-0.505093
	H431	H	0.349414	0.485349	-0.503878
	O432	O	0.639775	0.468205	0.367099
	H433	H	0.645478	0.487110	0.378664
	H434	H	0.658456	0.477356	0.350534
	O435	O	0.015141	0.075760	-0.175145
	H436	H	0.015907	0.076189	-0.177103
	H437	H	0.018315	0.071309	-0.176530
	O438	O	0.931559	0.051430	-0.184276
	H439	H	0.927477	0.058407	-0.192211
	H440	H	0.932811	0.069814	-0.163947
	O441	O	0.593350	0.683641	0.440917
	H442	H	0.579210	0.677051	0.453003
	H443	H	0.574503	0.689262	0.415562
	O444	O	0.006539	0.839615	1.048349
	H445	H	-0.005687	0.847889	1.034705
	H446	H	0.006272	0.846391	1.035578
	O447	O	0.714060	0.289691	-0.497397
	H448	H	0.742679	0.263261	-0.514263
	H449	H	0.710039	0.296165	-0.538673
	O450	O	0.705353	0.562801	0.731660
	H451	H	0.723682	0.556436	0.755531
	H452	H	0.701756	0.595398	0.723726
	O453	O	0.545540	0.300021	0.564804
	H454	H	0.553877	0.305877	0.566035
	H455	H	0.568106	0.297681	0.568521
	O456	O	1.147436	1.207889	-0.169983
	H457	H	1.143953	1.191656	-0.141319
	H458	H	1.130671	1.201911	-0.160551
	O459	O	0.522052	0.480710	0.313843
	H460	H	0.520453	0.501080	0.315718
	H461	H	0.519157	0.480255	0.322231
	O462	O	0.593296	0.483579	0.415268
	H463	H	0.602092	0.493055	0.414772
	H464	H	0.598535	0.500580	0.411353
	O465	O	1.207605	-0.207549	0.005494
	H466	H	1.184638	-0.203855	0.016567
	H467	H	1.232271	-0.234096	-0.002697
