data_Molecule from HDF5

_cell_length_a		16.367022
_cell_length_b		16.176524
_cell_length_c		16.188865
_cell_angle_alpha	89.727826
_cell_angle_beta	90.333892
_cell_angle_gamma	89.775990
_symmetry_space_group_name_H-M	'P 1'
_symmetry_Int_Tables_number		1

loop_
	_symmetry_equiv_pos_as_xyz
	x,y,z

loop_
	_atom_site_label
	_atom_site_type_symbol
	_atom_site_fract_x
	_atom_site_fract_y
	_atom_site_fract_z
	H0	H	0.398478	0.836273	0.713624
	H1	H	0.594288	0.165138	0.714532
	H2	H	0.596008	0.836749	0.288135
	H3	H	0.397550	0.166274	0.284393
	H4	H	0.709152	0.398121	0.836694
	H5	H	0.713511	0.601646	0.163154
	H6	H	0.275037	0.604788	0.837978
	H7	H	0.278394	0.397043	0.164222
	H8	H	0.833229	0.720722	0.398122
	H9	H	0.158454	0.715000	0.599253
	H10	H	0.834501	0.283789	0.600792
	H11	H	0.157939	0.286627	0.399542
	H12	H	0.831395	0.403863	0.712746
	H13	H	0.154852	0.603728	0.720199
	H14	H	0.833410	0.606550	0.281251
	H15	H	0.156287	0.403131	0.284383
	H16	H	0.391340	0.718263	0.837157
	H17	H	0.592834	0.712810	0.165638
	H18	H	0.591376	0.286872	0.836366
	H19	H	0.398217	0.286550	0.165706
	H20	H	0.714720	0.838564	0.400026
	H21	H	0.712887	0.165464	0.602169
	H22	H	0.280874	0.838984	0.601398
	H23	H	0.277547	0.165133	0.395175
	H24	H	0.893395	0.339257	0.217715
	H25	H	0.092152	0.666875	0.213204
	H26	H	0.092668	0.337749	0.785944
	H27	H	0.893388	0.665870	0.785734
	H28	H	0.213813	0.899080	0.337163
	H29	H	0.215295	0.104444	0.662230
	H30	H	0.777373	0.105755	0.337863
	H31	H	0.782965	0.900092	0.663374
	H32	H	0.332500	0.218267	0.898585
	H33	H	0.658174	0.215858	0.100204
	H34	H	0.331991	0.785769	0.101154
	H35	H	0.656468	0.783187	0.902589
	H36	H	0.333997	0.900377	0.218951
	H37	H	0.659405	0.099548	0.215089
	H38	H	0.334148	0.103304	0.779690
	H39	H	0.658698	0.899397	0.787377
	H40	H	0.895377	0.218360	0.336505
	H41	H	0.096714	0.215057	0.664069
	H42	H	0.094798	0.787655	0.335657
	H43	H	0.899187	0.788329	0.663744
	H44	H	0.211198	0.338066	0.898234
	H45	H	0.213734	0.663389	0.104538
	H46	H	0.781854	0.336249	0.099701
	H47	H	0.774334	0.662684	0.895650
	H48	H	0.403326	0.121100	0.598185
	H49	H	0.588927	0.885350	0.589306
	H50	H	0.597574	0.119240	0.413930
	H51	H	0.401995	0.885735	0.413256
	H52	H	0.590573	0.400671	0.120572
	H53	H	0.580059	0.577611	0.890545
	H54	H	0.388047	0.587991	0.121503
	H55	H	0.409782	0.409815	0.887525
	H56	H	0.112103	0.597253	0.406588
	H57	H	0.879901	0.590682	0.593151
	H58	H	0.112939	0.403413	0.594693
	H59	H	0.879459	0.411264	0.409484
	H60	H	0.107962	0.412865	0.588115
	H61	H	0.875892	0.600331	0.597396
	H62	H	0.108932	0.593924	0.410098
	H63	H	0.878878	0.411254	0.408830
	H64	H	0.411271	0.578733	0.110743
	H65	H	0.574195	0.602901	0.883108
	H66	H	0.595642	0.412136	0.118250
	H67	H	0.396631	0.402620	0.880059
	H68	H	0.587174	0.121456	0.398669
	H69	H	0.596290	0.882850	0.592181
	H70	H	0.413698	0.114755	0.588435
	H71	H	0.402574	0.884089	0.406925
	H72	H	0.908502	0.616253	0.088350
	H73	H	0.075616	0.387089	0.096054
	H74	H	0.093537	0.620077	0.913886
	H75	H	0.898857	0.382131	0.906633
	H76	H	0.089066	0.906767	0.617261
	H77	H	0.090944	0.095355	0.381110
	H78	H	0.907190	0.085885	0.613446
	H79	H	0.897789	0.918548	0.382588
	H80	H	0.611157	0.092240	0.905461
	H81	H	0.380802	0.088171	0.093744
	H82	H	0.613299	0.906026	0.103602
	H83	H	0.382654	0.914589	0.910917
	H84	H	0.611660	0.897723	0.088470
	H85	H	0.378013	0.096707	0.095164
	H86	H	0.611954	0.096238	0.908550
	H87	H	0.378431	0.912321	0.900912
	H88	H	0.910474	0.100303	0.617468
	H89	H	0.086986	0.089521	0.383997
	H90	H	0.092456	0.911881	0.616912
	H91	H	0.912158	0.915324	0.385789
	H92	H	0.080904	0.618544	0.902253
	H93	H	0.089710	0.387133	0.080759
	H94	H	0.897700	0.617962	0.082392
	H95	H	0.901251	0.382605	0.904474
	H96	H	0.399681	0.118312	0.583392
	H97	H	0.589739	0.883909	0.597802
	H98	H	0.579615	0.114200	0.414232
	H99	H	0.407697	0.886305	0.410057
	H100	H	0.582683	0.410218	0.115538
	H101	H	0.598110	0.592455	0.879424
	H102	H	0.409927	0.604265	0.118618
	H103	H	0.396187	0.418581	0.884832
	H104	H	0.110739	0.592531	0.405223
	H105	H	0.879064	0.599292	0.585870
	H106	H	0.111436	0.414418	0.600248
	H107	H	0.879858	0.410211	0.408538
	H108	H	0.897480	0.621359	0.094346
	H109	H	0.094968	0.380119	0.100239
	H110	H	0.078201	0.613385	0.918285
	H111	H	0.901554	0.383895	0.907386
	H112	H	0.086893	0.913057	0.614174
	H113	H	0.083745	0.096195	0.383298
	H114	H	0.896791	0.094793	0.620659
	H115	H	0.902398	0.905086	0.380158
	H116	H	0.609356	0.092111	0.910251
	H117	H	0.381318	0.093968	0.087883
	H118	H	0.607299	0.914827	0.089754
	H119	H	0.378254	0.904568	0.909125
	C120	C	0.376208	0.010042	0.619958
	C121	C	0.619810	0.992543	0.622465
	C122	C	0.618118	0.010068	0.379811
	C123	C	0.374325	0.993347	0.378689
	C124	C	0.616940	0.378702	0.009465
	C125	C	0.614596	0.620678	0.992394
	C126	C	0.372180	0.621883	0.009146
	C127	C	0.372596	0.379587	0.992433
	C128	C	0.003796	0.625369	0.377516
	C129	C	0.985885	0.624948	0.622032
	C130	C	0.003743	0.380266	0.622857
	C131	C	0.986474	0.381182	0.378795
	C132	C	0.872784	0.510093	0.119532
	C133	C	0.115776	0.493243	0.121845
	C134	C	0.114578	0.509814	0.880379
	C135	C	0.870885	0.491270	0.876937
	C136	C	0.118555	0.880434	0.508310
	C137	C	0.117893	0.123483	0.491033
	C138	C	0.874256	0.124315	0.509519
	C139	C	0.875776	0.882210	0.490996
	C140	C	0.503710	0.123667	0.877649
	C141	C	0.487444	0.122189	0.121826
	C142	C	0.503693	0.877620	0.123415
	C143	C	0.486656	0.879515	0.878786
	C144	C	0.378253	0.885999	0.676162
	C145	C	0.615633	0.116142	0.677469
	C146	C	0.616517	0.886244	0.325240
	C147	C	0.376286	0.116791	0.321725
	C148	C	0.671304	0.379286	0.885778
	C149	C	0.673171	0.620339	0.114767
	C150	C	0.314150	0.622876	0.886669
	C151	C	0.316971	0.378740	0.115571
	C152	C	0.881615	0.682261	0.378467
	C153	C	0.108967	0.678767	0.620344
	C154	C	0.882182	0.323360	0.620447
	C155	C	0.108860	0.324941	0.380071
	C156	C	0.880837	0.382592	0.676489
	C157	C	0.107243	0.623325	0.680458
	C158	C	0.881494	0.625049	0.320754
	C159	C	0.108102	0.382861	0.322352
	C160	C	0.372230	0.679547	0.886189
	C161	C	0.613366	0.675684	0.116168
	C162	C	0.612512	0.324111	0.885413
	C163	C	0.376593	0.323850	0.116317
	C164	C	0.675678	0.887312	0.380707
	C165	C	0.674630	0.116212	0.621597
	C166	C	0.319498	0.887430	0.620308
	C167	C	0.316985	0.116323	0.377152
	C168	C	0.874199	0.387510	0.178360
	C169	C	0.113360	0.616880	0.176628
	C170	C	0.112877	0.386985	0.823470
	C171	C	0.872443	0.615916	0.822259
	C172	C	0.175124	0.880243	0.385828
	C173	C	0.175977	0.123014	0.613545
	C174	C	0.816366	0.125070	0.386533
	C175	C	0.820782	0.881637	0.614229
	C176	C	0.381268	0.180077	0.878492
	C177	C	0.609792	0.177660	0.120096
	C178	C	0.381190	0.822693	0.121823
	C179	C	0.608355	0.821792	0.881804
	C180	C	0.382176	0.879973	0.180129
	C181	C	0.610355	0.119990	0.177617
	C182	C	0.382138	0.122716	0.819519
	C183	C	0.609595	0.879695	0.824613
	C184	C	0.875151	0.180881	0.385947
	C185	C	0.117015	0.178343	0.614627
	C186	C	0.116049	0.824516	0.385067
	C187	C	0.878821	0.825984	0.614648
	C188	C	0.172076	0.387000	0.879439
	C189	C	0.173661	0.615396	0.122508
	C190	C	0.818425	0.386088	0.119597
	C191	C	0.813414	0.614316	0.876840
	C192	C	0.398789	0.095724	0.596693
	C193	C	0.598149	0.906288	0.599777
	C194	C	0.594990	0.096058	0.402211
	C195	C	0.397365	0.907503	0.402962
	C196	C	0.595838	0.400990	0.095842
	C197	C	0.590784	0.597799	0.906562
	C198	C	0.396042	0.597461	0.094895
	C199	C	0.394278	0.403349	0.906499
	C200	C	0.088477	0.601715	0.400577
	C201	C	0.900593	0.603303	0.599034
	C202	C	0.088752	0.403296	0.600740
	C203	C	0.901564	0.404100	0.402037
	C204	C	0.894661	0.596123	0.095273
	C205	C	0.093169	0.407109	0.099046
	C206	C	0.091049	0.595121	0.904607
	C207	C	0.893802	0.405344	0.899613
	C208	C	0.096012	0.903643	0.594019
	C209	C	0.094122	0.100524	0.405008
	C210	C	0.897802	0.100617	0.595188
	C211	C	0.897694	0.906098	0.405161
	C212	C	0.588668	0.100350	0.901278
	C213	C	0.402149	0.099523	0.098802
	C214	C	0.588666	0.899596	0.100494
	C215	C	0.401840	0.903497	0.900690
	Zn216	Zn	0.496897	0.000227	0.748922
	Zn217	Zn	0.496753	0.001125	0.251353
	Zn218	Zn	0.744740	0.500043	-0.000792
	Zn219	Zn	0.244110	0.500644	0.001320
	Zn220	Zn	-0.004186	0.753421	0.499204
	Zn221	Zn	-0.003373	0.251517	0.500629
	Zn222	Zn	-0.006591	0.502763	0.751079
	Zn223	Zn	-0.006518	0.502849	0.249062
	Zn224	Zn	0.493912	0.749832	0.000851
	Zn225	Zn	0.494864	0.251961	0.000935
	Zn226	Zn	0.747221	0.002710	0.500554
	Zn227	Zn	0.246169	0.002532	0.499566
	N228	N	0.413373	0.963103	0.675873
	N229	N	0.582499	0.038049	0.678385
	N230	N	0.581145	0.963461	0.324628
	N231	N	0.411402	0.039200	0.322599
	N232	N	0.674146	0.412591	0.963774
	N233	N	0.674043	0.586900	0.036763
	N234	N	0.314390	0.587556	0.964161
	N235	N	0.314332	0.412607	0.037488
	N236	N	0.958551	0.682723	0.413152
	N237	N	0.032626	0.679759	0.584540
	N238	N	0.959597	0.321594	0.587936
	N239	N	0.032090	0.323560	0.414320
	N240	N	0.957425	0.417217	0.678180
	N241	N	0.029686	0.590816	0.681776
	N242	N	0.958153	0.590200	0.320103
	N243	N	0.031157	0.417141	0.321533
	N244	N	0.407514	0.679283	0.963563
	N245	N	0.577642	0.676072	0.038963
	N246	N	0.579503	0.323332	0.963413
	N247	N	0.410317	0.324021	0.038785
	N248	N	0.676805	0.965399	0.413904
	N249	N	0.677278	0.038405	0.588195
	N250	N	0.318039	0.965392	0.586088
	N251	N	0.315531	0.038603	0.411440
	N252	N	0.907428	0.465552	0.178497
	N253	N	0.078214	0.539723	0.176481
	N254	N	0.077924	0.464484	0.823774
	N255	N	0.907638	0.538666	0.822062
	N256	N	0.176671	0.914250	0.463473
	N257	N	0.176586	0.089785	0.535557
	N258	N	0.815618	0.090744	0.464391
	N259	N	0.818753	0.916042	0.536338
	N260	N	0.457783	0.180718	0.914012
	N261	N	0.532418	0.179182	0.086241
	N262	N	0.457697	0.821206	0.087286
	N263	N	0.530892	0.821342	0.914547
	N264	N	0.459211	0.913387	0.181524
	N265	N	0.533338	0.085945	0.178685
	N266	N	0.459339	0.088571	0.818726
	N267	N	0.533031	0.915035	0.822615
	N268	N	0.910539	0.180505	0.463330
	N269	N	0.081521	0.178700	0.537320
	N270	N	0.081606	0.824381	0.462307
	N271	N	0.912410	0.826287	0.537083
	N272	N	0.173295	0.464406	0.914036
	N273	N	0.175355	0.537307	0.089079
	N274	N	0.817340	0.463368	0.083859
	N275	N	0.812095	0.535866	0.909957
	O276	O	1.066271	0.048917	0.887907
	H277	H	1.057886	0.049046	0.880130
	H278	H	1.052485	0.053426	0.883991
	O279	O	0.487545	0.427550	0.507431
	H280	H	0.496577	0.415371	0.508077
	H281	H	0.485050	0.430693	0.502550
	O282	O	0.463865	0.469854	0.514384
	H283	H	0.471811	0.453425	0.511368
	H284	H	0.456637	0.477143	0.512068
	O285	O	0.406934	0.534022	0.485561
	H286	H	0.400999	0.528000	0.483733
	H287	H	0.406096	0.533756	0.483804
	O288	O	0.575248	0.537760	0.659742
	H289	H	0.581448	0.540411	0.656785
	H290	H	0.579497	0.535904	0.667573
	O291	O	0.013747	-0.057323	0.910219
	H292	H	0.026142	-0.055698	0.918551
	H293	H	-0.006946	-0.073881	0.921684
	O294	O	0.991224	1.075578	0.144006
	H295	H	0.998702	1.078860	0.146735
	H296	H	0.998163	1.083810	0.145946
	O297	O	1.074359	0.847416	-0.060955
	H298	H	1.069422	0.844033	-0.070862
	H299	H	1.075705	0.853761	-0.060710
	O300	O	0.533265	0.527290	0.391134
	H301	H	0.519817	0.537198	0.392527
	H302	H	0.535631	0.533720	0.400118
	O303	O	0.981361	0.146510	0.869435
	H304	H	0.992834	0.142478	0.868681
	H305	H	0.982358	0.139385	0.869137
	O306	O	0.483604	0.423665	0.566851
	H307	H	0.468165	0.415446	0.547800
	H308	H	0.486623	0.418254	0.565040
	O309	O	0.562554	0.628970	0.450124
	H310	H	0.557325	0.635373	0.437139
	H311	H	0.555442	0.622341	0.442111
	O312	O	0.486388	1.532687	0.440936
	H313	H	0.488904	1.536738	0.447686
	H314	H	0.485505	1.532309	0.446057
	O315	O	0.921902	1.051845	-0.049896
	H316	H	0.912577	1.039815	-0.046518
	H317	H	0.929607	1.058578	-0.042214
	O318	O	0.544560	0.538589	0.450773
	H319	H	0.545510	0.548975	0.444283
	H320	H	0.555256	0.539769	0.454069
	O321	O	0.621457	0.605797	0.639584
	H322	H	0.631331	0.596437	0.636339
	H323	H	0.622018	0.613209	0.638687
	O324	O	0.049751	1.123713	1.096228
	H325	H	0.056346	1.114210	1.085743
	H326	H	0.063406	1.138497	1.095445
	O327	O	-0.135075	0.885069	1.075086
	H328	H	-0.132341	0.891959	1.085896
	H329	H	-0.147589	0.881595	1.074246
	O330	O	0.146907	0.072165	0.010117
	H331	H	0.157617	0.080995	0.013016
	H332	H	0.144032	0.076388	0.002623
	O333	O	0.439505	0.577792	0.414680
	H334	H	0.439833	0.571480	0.417076
	H335	H	0.437970	0.594342	0.420382
	O336	O	0.008015	-0.057539	-0.072999
	H337	H	0.000780	-0.062085	-0.073386
	H338	H	0.009084	-0.053237	-0.081314
	O339	O	0.189184	-0.041514	0.079007
	H340	H	0.201596	-0.063933	0.075232
	H341	H	0.185238	-0.025360	0.090308
	O342	O	0.530322	0.565506	0.474602
	H343	H	0.529162	0.559782	0.476664
	H344	H	0.540515	0.572987	0.478543
	O345	O	-0.012821	0.852337	1.094059
	H346	H	-0.007345	0.858048	1.089554
	H347	H	-0.015976	0.855824	1.088261
	O348	O	0.409609	0.399505	0.497561
	H349	H	0.405637	0.401223	0.503717
	H350	H	0.415850	0.407239	0.490369
	O351	O	0.467161	0.400940	0.460254
	H352	H	0.462962	0.391116	0.454998
	H353	H	0.462822	0.396240	0.458525
	O354	O	-0.104270	1.115057	-0.058974
	H355	H	-0.090413	1.123497	-0.058098
	H356	H	-0.106952	1.112869	-0.051653
	O357	O	0.605201	0.446072	0.507793
	H358	H	0.603769	0.450225	0.510879
	H359	H	0.607339	0.445043	0.501172
	O360	O	1.056625	0.026177	0.904112
	H361	H	1.051108	0.029478	0.912123
	H362	H	1.063584	0.018302	0.913478
	O363	O	0.552814	0.424845	0.529734
	H364	H	0.537626	0.422646	0.531263
	H365	H	0.549893	0.437341	0.546779
	O366	O	0.415169	0.577616	0.620161
	H367	H	0.415681	0.582155	0.627082
	H368	H	0.410194	0.578246	0.623192
	O369	O	0.990794	-0.068553	-0.109172
	H370	H	0.995676	-0.070642	-0.116279
	H371	H	0.986970	-0.076088	-0.114094
	O372	O	0.489478	0.423069	0.580016
	H373	H	0.494403	0.425018	0.579436
	H374	H	0.496768	0.423927	0.577468
	O375	O	0.817586	0.076651	0.885075
	H376	H	0.809848	0.086271	0.883312
	H377	H	0.800402	0.095887	0.869747
	O378	O	-0.027656	0.995468	0.112388
	H379	H	-0.015437	0.984483	0.115594
	H380	H	-0.029800	0.996328	0.110934
	O381	O	0.393011	0.386519	0.549350
	H382	H	0.387326	0.397000	0.559048
	H383	H	0.401041	0.369110	0.547143
	O384	O	0.867755	1.025914	0.058142
	H385	H	0.877390	1.041361	0.059093
	H386	H	0.866889	1.010972	0.064227
	O387	O	1.076077	0.024682	1.012776
	H388	H	1.086144	0.026438	1.016420
	H389	H	1.080227	0.025554	1.011686
	O390	O	0.978453	0.976445	0.107450
	H391	H	0.970770	0.970570	0.116939
	H392	H	0.967733	0.990728	0.098965
	O393	O	0.457358	0.609042	0.374195
	H394	H	0.453670	0.619384	0.373415
	H395	H	0.460012	0.596164	0.386354
