data_Molecule from HDF5

_cell_length_a		16.581110
_cell_length_b		16.779792
_cell_length_c		16.542311
_cell_angle_alpha	89.866811
_cell_angle_beta	89.944372
_cell_angle_gamma	90.107264
_symmetry_space_group_name_H-M	'P 1'
_symmetry_Int_Tables_number		1

loop_
	_symmetry_equiv_pos_as_xyz
	x,y,z

loop_
	_atom_site_label
	_atom_site_type_symbol
	_atom_site_fract_x
	_atom_site_fract_y
	_atom_site_fract_z
	H0	H	0.393940	0.842495	0.720728
	H1	H	0.606881	0.150059	0.724088
	H2	H	0.598829	0.842680	0.282146
	H3	H	0.394224	0.153180	0.277447
	H4	H	0.714046	0.399375	0.840829
	H5	H	0.716376	0.599585	0.156962
	H6	H	0.278290	0.602157	0.842979
	H7	H	0.276134	0.391770	0.155064
	H8	H	0.841973	0.718817	0.393572
	H9	H	0.152786	0.721640	0.605702
	H10	H	0.843296	0.278691	0.602101
	H11	H	0.151765	0.272731	0.386125
	H12	H	0.840949	0.397772	0.714721
	H13	H	0.154096	0.603966	0.720090
	H14	H	0.840756	0.599796	0.281397
	H15	H	0.153501	0.392278	0.275389
	H16	H	0.391427	0.720677	0.844056
	H17	H	0.601312	0.716001	0.156947
	H18	H	0.601511	0.280364	0.842912
	H19	H	0.389978	0.274755	0.154369
	H20	H	0.716631	0.842987	0.398396
	H21	H	0.721643	0.152568	0.605055
	H22	H	0.276006	0.843376	0.605149
	H23	H	0.276087	0.152350	0.393149
	H24	H	0.895104	0.343073	0.220017
	H25	H	0.107434	0.650956	0.223751
	H26	H	0.103549	0.344558	0.777970
	H27	H	0.898182	0.654808	0.781152
	H28	H	0.218738	0.895021	0.342583
	H29	H	0.219641	0.102418	0.655371
	H30	H	0.782504	0.100062	0.341279
	H31	H	0.784851	0.900813	0.658442
	H32	H	0.343763	0.221442	0.890519
	H33	H	0.655693	0.218797	0.102605
	H34	H	0.342355	0.778014	0.104394
	H35	H	0.655438	0.779835	0.897159
	H36	H	0.341171	0.897347	0.217421
	H37	H	0.657300	0.098948	0.214783
	H38	H	0.342521	0.102512	0.777997
	H39	H	0.656196	0.897278	0.781905
	H40	H	0.896088	0.218174	0.342000
	H41	H	0.107894	0.221697	0.652988
	H42	H	0.105036	0.776810	0.343213
	H43	H	0.896369	0.780407	0.656580
	H44	H	0.219572	0.344187	0.894508
	H45	H	0.224557	0.650164	0.108242
	H46	H	0.780447	0.342024	0.100695
	H47	H	0.781302	0.654257	0.897982
	H48	H	0.408693	0.107775	0.587075
	H49	H	0.592403	0.888160	0.585309
	H50	H	0.591472	0.112084	0.402329
	H51	H	0.411622	0.889292	0.409658
	H52	H	0.590045	0.409936	0.112408
	H53	H	0.586480	0.591516	0.886928
	H54	H	0.408726	0.584223	0.110788
	H55	H	0.409118	0.406723	0.886516
	H56	H	0.109962	0.586228	0.408055
	H57	H	0.884271	0.593820	0.587636
	H58	H	0.112296	0.408705	0.589032
	H59	H	0.888561	0.411504	0.410245
	H60	H	0.112035	0.408065	0.586610
	H61	H	0.887693	0.586350	0.586077
	H62	H	0.111159	0.592063	0.412360
	H63	H	0.887080	0.405905	0.411339
	H64	H	0.415336	0.585349	0.109848
	H65	H	0.591526	0.591686	0.884921
	H66	H	0.585038	0.406568	0.112554
	H67	H	0.409136	0.414106	0.888768
	H68	H	0.588723	0.108730	0.408185
	H69	H	0.591234	0.886401	0.593059
	H70	H	0.412178	0.107151	0.589354
	H71	H	0.408093	0.888091	0.412594
	H72	H	0.908415	0.609905	0.090536
	H73	H	0.081842	0.392112	0.083191
	H74	H	0.095391	0.611904	0.908350
	H75	H	0.906894	0.386405	0.907495
	H76	H	0.085523	0.906613	0.611784
	H77	H	0.081565	0.082273	0.390606
	H78	H	0.912023	0.089654	0.612350
	H79	H	0.913562	0.907286	0.387184
	H80	H	0.612969	0.094217	0.908262
	H81	H	0.387897	0.082606	0.089633
	H82	H	0.614665	0.904842	0.097612
	H83	H	0.389019	0.906320	0.918202
	H84	H	0.612108	0.899236	0.086852
	H85	H	0.384028	0.092090	0.091765
	H86	H	0.607335	0.088690	0.920085
	H87	H	0.386637	0.914489	0.907432
	H88	H	0.909456	0.091021	0.612630
	H89	H	0.084012	0.092772	0.386023
	H90	H	0.088719	0.908571	0.611817
	H91	H	0.906305	0.901083	0.383694
	H92	H	0.082932	0.608700	0.905075
	H93	H	0.088522	0.388109	0.084394
	H94	H	0.907602	0.610019	0.089749
	H95	H	0.903036	0.385393	0.907380
	H96	H	0.411928	0.106314	0.585559
	H97	H	0.585167	0.889658	0.588953
	H98	H	0.595779	0.111903	0.408737
	H99	H	0.407674	0.886799	0.408058
	H100	H	0.590578	0.404017	0.114315
	H101	H	0.589882	0.587444	0.886633
	H102	H	0.411293	0.590354	0.111443
	H103	H	0.416477	0.410119	0.889674
	H104	H	0.107664	0.585783	0.414783
	H105	H	0.885076	0.588151	0.593856
	H106	H	0.111055	0.409670	0.586919
	H107	H	0.888754	0.409264	0.415758
	H108	H	0.906822	0.609526	0.090481
	H109	H	0.082922	0.388684	0.090228
	H110	H	0.087710	0.605950	0.917026
	H111	H	0.905325	0.385259	0.903941
	H112	H	0.085233	0.910237	0.609616
	H113	H	0.092510	0.083753	0.385997
	H114	H	0.909361	0.088424	0.611603
	H115	H	0.904505	0.911019	0.384858
	H116	H	0.608095	0.080982	0.908465
	H117	H	0.388467	0.089612	0.081617
	H118	H	0.610363	0.911578	0.087759
	H119	H	0.383204	0.901444	0.907055
	C120	C	0.377818	0.005153	0.620187
	C121	C	0.621367	0.989904	0.621112
	C122	C	0.621108	0.007407	0.376976
	C123	C	0.377222	0.990296	0.377739
	C124	C	0.619031	0.377312	0.008517
	C125	C	0.619929	0.620280	0.990663
	C126	C	0.378310	0.618816	0.007770
	C127	C	0.377897	0.377351	0.991108
	C128	C	0.006401	0.619397	0.379058
	C129	C	0.989178	0.620874	0.620964
	C130	C	0.007896	0.377793	0.618948
	C131	C	0.990602	0.376890	0.378357
	C132	C	0.876878	0.506466	0.120975
	C133	C	0.119384	0.490019	0.120355
	C134	C	0.120704	0.507077	0.877528
	C135	C	0.876542	0.489664	0.876990
	C136	C	0.119196	0.876885	0.507682
	C137	C	0.119672	0.119016	0.490344
	C138	C	0.879003	0.120124	0.507829
	C139	C	0.878004	0.877044	0.490146
	C140	C	0.506719	0.119830	0.878287
	C141	C	0.490495	0.119365	0.119398
	C142	C	0.507611	0.875894	0.121329
	C143	C	0.490036	0.876682	0.879029
	C144	C	0.375381	0.889111	0.680723
	C145	C	0.624341	0.104923	0.682435
	C146	C	0.619238	0.889606	0.320719
	C147	C	0.375342	0.106591	0.317296
	C148	C	0.675783	0.379070	0.888773
	C149	C	0.677507	0.619321	0.109508
	C150	C	0.318037	0.620914	0.890091
	C151	C	0.316712	0.374136	0.108128
	C152	C	0.888830	0.678589	0.376118
	C153	C	0.106363	0.681139	0.623531
	C154	C	0.889954	0.318935	0.620188
	C155	C	0.106159	0.314887	0.371374
	C156	C	0.888902	0.377891	0.676370
	C157	C	0.107078	0.622682	0.680335
	C158	C	0.888377	0.619663	0.320003
	C159	C	0.106783	0.374247	0.315922
	C160	C	0.374573	0.679550	0.890476
	C161	C	0.620409	0.677217	0.109520
	C162	C	0.619647	0.320203	0.889666
	C163	C	0.373310	0.315870	0.107790
	C164	C	0.677645	0.889732	0.378392
	C165	C	0.681430	0.105902	0.623468
	C166	C	0.316939	0.889445	0.623077
	C167	C	0.316911	0.106213	0.375017
	C168	C	0.876276	0.389507	0.179926
	C169	C	0.124423	0.604950	0.182652
	C170	C	0.122469	0.390961	0.817585
	C171	C	0.878054	0.607563	0.820119
	C172	C	0.179090	0.875832	0.389605
	C173	C	0.180363	0.121364	0.607920
	C174	C	0.820887	0.119999	0.389053
	C175	C	0.822478	0.879860	0.610505
	C176	C	0.390271	0.180529	0.873688
	C177	C	0.608612	0.178477	0.120965
	C178	C	0.389147	0.818157	0.122636
	C179	C	0.608361	0.818965	0.877987
	C180	C	0.388570	0.877153	0.178769
	C181	C	0.609587	0.118912	0.176695
	C182	C	0.389696	0.121636	0.817502
	C183	C	0.608767	0.877455	0.821005
	C184	C	0.877625	0.178435	0.389353
	C185	C	0.124497	0.180337	0.606749
	C186	C	0.122508	0.817291	0.389963
	C187	C	0.877974	0.820351	0.609705
	C188	C	0.180035	0.390719	0.875651
	C189	C	0.182853	0.604433	0.125163
	C190	C	0.819144	0.389019	0.120945
	C191	C	0.820015	0.607460	0.878180
	C192	C	0.403615	0.085984	0.594578
	C193	C	0.596517	0.909094	0.596219
	C194	C	0.598422	0.089741	0.399738
	C195	C	0.401912	0.909127	0.402969
	C196	C	0.595368	0.400166	0.091448
	C197	C	0.595997	0.597036	0.907749
	C198	C	0.404139	0.593768	0.089499
	C199	C	0.404213	0.403027	0.909433
	C200	C	0.088408	0.595116	0.404515
	C201	C	0.907036	0.596361	0.596279
	C202	C	0.090226	0.402005	0.594617
	C203	C	0.909330	0.401780	0.405076
	C204	C	0.900499	0.588426	0.096950
	C205	C	0.092038	0.410382	0.093545
	C206	C	0.095801	0.587868	0.902923
	C207	C	0.898935	0.407119	0.899612
	C208	C	0.094015	0.901326	0.589696
	C209	C	0.093578	0.093548	0.408836
	C210	C	0.903251	0.096495	0.590682
	C211	C	0.901396	0.899837	0.406970
	C212	C	0.588133	0.094958	0.904651
	C213	C	0.408150	0.095193	0.094709
	C214	C	0.590638	0.898590	0.097512
	C215	C	0.407694	0.900629	0.903662
	Zn216	Zn	0.498675	-0.002079	0.750302
	Zn217	Zn	0.499001	-0.001379	0.248119
	Zn218	Zn	0.747602	0.498381	-0.000447
	Zn219	Zn	0.249502	0.498036	-0.000565
	Zn220	Zn	-0.001853	0.748480	0.498487
	Zn221	Zn	0.000016	0.248328	0.498823
	Zn222	Zn	-0.001325	0.498149	0.748088
	Zn223	Zn	-0.001487	0.498296	0.250305
	Zn224	Zn	0.498205	0.747959	0.000028
	Zn225	Zn	0.498046	0.248285	-0.000804
	Zn226	Zn	0.750517	-0.001493	0.499026
	Zn227	Zn	0.247674	-0.002058	0.499427
	N228	N	0.412663	0.962218	0.679069
	N229	N	0.587423	0.031812	0.681062
	N230	N	0.585054	0.964064	0.319548
	N231	N	0.412233	0.033483	0.318818
	N232	N	0.675783	0.413914	0.963804
	N233	N	0.677581	0.584564	0.034376
	N234	N	0.320104	0.583798	0.964184
	N235	N	0.319592	0.411654	0.034557
	N236	N	0.963489	0.678791	0.411757
	N237	N	0.031977	0.680227	0.587273
	N238	N	0.965073	0.318457	0.585412
	N239	N	0.032812	0.316437	0.409661
	N240	N	0.963385	0.413746	0.675967
	N241	N	0.033223	0.585964	0.679023
	N242	N	0.962664	0.583558	0.321451
	N243	N	0.033816	0.412178	0.320011
	N244	N	0.411364	0.678409	0.964772
	N245	N	0.585541	0.678120	0.034318
	N246	N	0.585285	0.318742	0.965132
	N247	N	0.410924	0.317683	0.033830
	N248	N	0.679390	0.964189	0.412368
	N249	N	0.679846	0.033343	0.586007
	N250	N	0.318257	0.962861	0.586316
	N251	N	0.317963	0.032885	0.411997
	N252	N	0.911112	0.463721	0.180296
	N253	N	0.085484	0.532730	0.179852
	N254	N	0.086487	0.464626	0.818203
	N255	N	0.912139	0.533172	0.819110
	N256	N	0.177359	0.911995	0.463831
	N257	N	0.177540	0.083807	0.534434
	N258	N	0.821110	0.084780	0.464061
	N259	N	0.822044	0.914183	0.534944
	N260	N	0.464310	0.179894	0.910617
	N261	N	0.533345	0.179205	0.086506
	N262	N	0.464273	0.817032	0.087851
	N263	N	0.533363	0.818078	0.913175
	N264	N	0.463451	0.912350	0.178211
	N265	N	0.535072	0.082955	0.176091
	N266	N	0.463323	0.084609	0.820008
	N267	N	0.533985	0.912343	0.821307
	N268	N	0.912611	0.178937	0.464557
	N269	N	0.087758	0.179365	0.532483
	N270	N	0.086017	0.817492	0.464560
	N271	N	0.911215	0.818108	0.533819
	N272	N	0.179344	0.463995	0.912005
	N273	N	0.179765	0.532077	0.086926
	N274	N	0.819095	0.462896	0.085244
	N275	N	0.818493	0.532882	0.912627
	O276	O	0.043659	0.920028	0.214279
	H277	H	0.028064	0.922714	0.204767
	H278	H	0.022146	0.935237	0.213720
	O279	O	0.312637	0.309300	0.313993
	H280	H	0.326902	0.313601	0.344650
	H281	H	0.331255	0.335312	0.316462
	O282	O	1.146714	0.154148	0.838878
	H283	H	1.154278	0.158763	0.853314
	H284	H	1.123448	0.147637	0.840765
	O285	O	0.426910	0.375317	0.582740
	H286	H	0.436983	0.393332	0.582163
	H287	H	0.428911	0.375716	0.587567
	O288	O	0.709259	0.705872	0.707883
	H289	H	0.679067	0.716475	0.689928
	H290	H	0.739909	0.739743	0.741187
	O291	O	0.530840	0.461846	0.581914
	H292	H	0.535515	0.477965	0.578733
	H293	H	0.523178	0.461228	0.582265
	O294	O	1.066322	0.164467	1.001872
	H295	H	1.074651	0.173641	1.000129
	H296	H	1.064931	0.172824	1.002140
	O297	O	0.288208	0.704897	0.293045
	H298	H	0.313506	0.709772	0.310600
	H299	H	0.257272	0.738216	0.260535
	O300	O	-0.209313	0.214504	0.792782
	H301	H	-0.243122	0.242426	0.758405
	H302	H	-0.206488	0.181219	0.801058
	O303	O	0.554438	0.728597	0.443868
	H304	H	0.559215	0.724582	0.441406
	H305	H	0.569830	0.736927	0.458685
	O306	O	0.407987	0.429842	0.686843
	H307	H	0.420253	0.433744	0.691309
	H308	H	0.402256	0.424645	0.662052
	O309	O	0.444417	0.646751	0.610129
	H310	H	0.457712	0.650749	0.593090
	H311	H	0.431179	0.634321	0.592460
	O312	O	0.460574	0.490047	0.445403
	H313	H	0.460552	0.493111	0.432415
	H314	H	0.454498	0.481939	0.457195
	O315	O	1.209415	0.782485	0.973703
	H316	H	1.207048	0.768176	0.978473
	H317	H	1.205730	0.786231	0.966481
	O318	O	0.721733	0.539007	0.720789
	H319	H	0.749765	0.545452	0.749378
	H320	H	0.717595	0.583723	0.719482
	O321	O	0.265352	0.729865	0.736903
	H322	H	0.254857	0.714661	0.725937
	H323	H	0.286379	0.714750	0.718106
	O324	O	0.971643	0.767147	0.220587
	H325	H	0.970801	0.773214	0.240011
	H326	H	0.946082	0.760019	0.238055
	O327	O	-0.223654	-0.042838	1.224771
	H328	H	-0.245362	-0.059436	1.241601
	H329	H	-0.229637	-0.072997	1.230641
	O330	O	0.725076	0.725515	0.538450
	H331	H	0.760189	0.754269	0.540780
	H332	H	0.726119	0.701691	0.553919
	O333	O	0.263045	0.498953	0.511523
	H334	H	0.260106	0.496592	0.494793
	H335	H	0.268611	0.501214	0.486079
	O336	O	0.456520	0.720164	0.282938
	H337	H	0.449982	0.708605	0.291455
	H338	H	0.464554	0.746701	0.256531
	O339	O	0.973815	0.227506	0.779893
	H340	H	0.959415	0.248854	0.757225
	H341	H	0.934431	0.225149	0.782900
	O342	O	-0.058908	-0.227239	-0.067703
	H343	H	-0.043797	-0.217242	-0.059194
	H344	H	-0.048109	-0.226163	-0.066348
	O345	O	-0.183803	1.088038	1.028731
	H346	H	-0.170664	1.109454	1.027150
	H347	H	-0.195956	1.113407	1.030321
	O348	O	0.073897	0.086874	0.110809
	H349	H	0.058512	0.089757	0.113210
	H350	H	0.082656	0.092175	0.090213
	O351	O	0.685852	0.693398	0.307861
	H352	H	0.687992	0.675862	0.294620
	H353	H	0.663943	0.676117	0.327613
	O354	O	0.057573	-0.240465	1.054362
	H355	H	0.055779	-0.236190	1.054774
	H356	H	0.039780	-0.244685	1.083349
	O357	O	0.723079	0.269262	0.463138
	H358	H	0.744718	0.251432	0.460268
	H359	H	0.712585	0.256759	0.482448
	O360	O	0.271322	0.280883	0.522458
	H361	H	0.244192	0.260028	0.524395
	H362	H	0.282838	0.287943	0.533627
	O363	O	-0.179624	0.181825	0.184454
	H364	H	-0.149749	0.184699	0.166246
	H365	H	-0.188647	0.186120	0.200051
	O366	O	0.690867	0.506162	0.319656
	H367	H	0.700928	0.474812	0.305974
	H368	H	0.709427	0.502900	0.325241
	O369	O	0.532314	0.275583	0.276255
	H370	H	0.535363	0.282762	0.273747
	H371	H	0.526250	0.266641	0.249662
	O372	O	0.782807	0.914254	-0.060133
	H373	H	0.779253	0.948187	-0.051622
	H374	H	0.781397	0.907887	-0.055631
	O375	O	0.990631	-0.061022	-0.211084
	H376	H	1.000506	-0.055708	-0.204843
	H377	H	1.003749	-0.072019	-0.219220
	O378	O	0.571019	0.565521	0.293733
	H379	H	0.578224	0.541319	0.295436
	H380	H	0.566981	0.554748	0.306566
	O381	O	0.211001	0.857427	0.793214
	H382	H	0.235054	0.834626	0.777085
	H383	H	0.214935	0.849117	0.810058
	O384	O	0.806769	-0.197240	0.809886
	H385	H	0.828704	-0.181529	0.830988
	H386	H	0.824405	-0.174494	0.825657
	O387	O	1.170320	1.053182	-0.017069
	H388	H	1.171583	1.054297	-0.045861
	H389	H	1.175333	1.063404	-0.026081
	O390	O	0.470325	0.289835	0.442330
	H391	H	0.466135	0.286375	0.441296
	H392	H	0.480298	0.292276	0.440144
	O393	O	0.437144	0.567246	0.590985
	H394	H	0.448425	0.585301	0.594491
	H395	H	0.448406	0.576078	0.574898
	O396	O	0.036181	0.782491	0.783775
	H397	H	0.048946	0.788497	0.781243
	H398	H	0.038337	0.765289	0.771584
	O399	O	0.062624	0.065715	0.782260
	H400	H	0.059467	0.089749	0.776356
	H401	H	0.069907	0.053962	0.781551
	O402	O	0.954313	0.210659	0.020251
	H403	H	0.967180	0.213608	0.025412
	H404	H	0.955862	0.210005	0.017659
	O405	O	0.920745	0.086488	0.943344
	H406	H	0.926200	0.090635	0.951717
	H407	H	0.914462	0.106367	0.955268
	O408	O	0.195314	0.222635	0.015963
	H409	H	0.208438	0.229810	0.034970
	H410	H	0.209838	0.223292	0.019138
	O411	O	0.450842	0.648022	0.448819
	H412	H	0.457108	0.641019	0.462012
	H413	H	0.442593	0.664020	0.444731
	O414	O	0.686737	0.304175	0.688830
	H415	H	0.677372	0.330540	0.668717
	H416	H	0.651473	0.315660	0.682586
	O417	O	0.707866	0.490391	0.441171
	H418	H	0.717513	0.464537	0.429829
	H419	H	0.712533	0.493007	0.461408
	O420	O	0.524558	0.430909	0.273456
	H421	H	0.512423	0.451578	0.260050
	H422	H	0.529233	0.430226	0.284833
	O423	O	-0.224792	0.224905	0.959663
	H424	H	-0.229651	0.230056	0.943663
	H425	H	-0.236156	0.244905	0.950024
	O426	O	0.566163	0.265011	0.550513
	H427	H	0.563412	0.268072	0.559033
	H428	H	0.548652	0.260769	0.567299
	O429	O	0.812612	0.794947	1.043382
	H430	H	0.813024	0.813715	1.025771
	H431	H	0.802181	0.781910	1.033597
	O432	O	0.618594	0.399567	0.648556
	H433	H	0.601299	0.411276	0.657946
	H434	H	0.616569	0.409469	0.661706
	O435	O	0.190209	0.804221	0.188073
	H436	H	0.174259	0.829430	0.174113
	H437	H	0.168988	0.815661	0.167249
	O438	O	0.219670	-0.059280	0.060634
	H439	H	0.226023	-0.056633	0.068298
	H440	H	0.206134	-0.065774	0.055269
	O441	O	0.022531	0.218759	0.212753
	H442	H	0.035448	0.234595	0.221467
	H443	H	0.050937	0.223109	0.217686
	O444	O	0.714369	0.518476	0.513944
	H445	H	0.704127	0.515940	0.525246
	H446	H	0.718901	0.524465	0.501616
	O447	O	0.208217	1.212669	1.207514
	H448	H	0.207981	1.176742	1.199635
	H449	H	0.239717	1.234380	1.236949
	O450	O	-0.016055	0.937037	0.881823
	H451	H	0.002771	0.942034	0.889750
	H452	H	-0.022209	0.951536	0.883740
	O453	O	0.283428	0.526419	0.285937
	H454	H	0.289159	0.554709	0.288887
	H455	H	0.260314	0.542412	0.265304
	O456	O	0.260965	0.265888	0.738969
	H457	H	0.245344	0.256083	0.746054
	H458	H	0.267791	0.279113	0.724588
	O459	O	0.794198	0.787983	0.201539
	H460	H	0.788038	0.781970	0.147388
	H461	H	0.792811	0.767584	0.222457
	O462	O	0.699109	0.291062	0.298193
	H463	H	0.661491	0.296826	0.301703
	H464	H	0.716548	0.278572	0.323370
	O465	O	1.220163	0.000016	-0.158299
	H466	H	1.229424	-0.028284	-0.157633
	H467	H	1.227083	-0.008867	-0.164142
	O468	O	0.341633	0.640811	0.542763
	H469	H	0.339653	0.639874	0.537208
	H470	H	0.360078	0.637186	0.532051
	O471	O	0.353632	0.465721	0.460977
	H472	H	0.350115	0.458612	0.457445
	H473	H	0.364368	0.466852	0.444461
	O474	O	0.275810	0.713794	0.468979
	H475	H	0.278288	0.726362	0.460129
	H476	H	0.268662	0.723947	0.462018
	O477	O	0.541713	0.724763	1.722498
	H478	H	0.542791	0.711712	1.711939
	H479	H	0.540456	0.752922	1.754014
	O480	O	0.277995	0.467740	0.715585
	H481	H	0.254903	0.463632	0.729666
	H482	H	0.269215	0.483419	0.695770
	O483	O	0.469581	0.302104	0.697179
	H484	H	0.446955	0.301268	0.705213
	H485	H	0.449568	0.297796	0.710307
	O486	O	0.898547	0.051780	1.188580
	H487	H	0.875386	0.050529	1.193622
	H488	H	0.905032	0.057676	1.192593
	O489	O	0.915037	0.964286	0.000210
	H490	H	0.907424	0.969836	-0.005301
	H491	H	0.923868	0.987626	0.003535
	O492	O	0.207087	0.022615	0.209322
	H493	H	0.194259	0.020305	0.215503
	H494	H	0.214362	0.019528	0.209313
	O495	O	-0.187157	1.062909	0.788488
	H496	H	-0.183929	1.052365	0.801274
	H497	H	-0.182023	1.056653	0.778914
	O498	O	0.938416	0.931258	1.083770
	H499	H	0.934328	0.933320	1.076843
	H500	H	0.943017	0.940801	1.070711
	O501	O	0.541417	0.456544	0.531167
	H502	H	0.566859	0.454532	0.539937
	H503	H	0.549596	0.454314	0.528398
