data_Molecule from HDF5

_cell_length_a		16.628797
_cell_length_b		16.667389
_cell_length_c		16.641759
_cell_angle_alpha	90.057589
_cell_angle_beta	89.972799
_cell_angle_gamma	89.822303
_symmetry_space_group_name_H-M	'P 1'
_symmetry_Int_Tables_number		1

loop_
	_symmetry_equiv_pos_as_xyz
	x,y,z

loop_
	_atom_site_label
	_atom_site_type_symbol
	_atom_site_fract_x
	_atom_site_fract_y
	_atom_site_fract_z
	H0	H	0.408697	0.829119	0.714290
	H1	H	0.622402	0.135986	0.714192
	H2	H	0.621647	0.828716	0.269941
	H3	H	0.408800	0.136813	0.266824
	H4	H	0.740749	0.375360	0.836358
	H5	H	0.738513	0.589433	0.144588
	H6	H	0.296295	0.588575	0.833824
	H7	H	0.292800	0.377327	0.143006
	H8	H	0.860289	0.704558	0.385735
	H9	H	0.171833	0.704851	0.595516
	H10	H	0.862414	0.262155	0.596250
	H11	H	0.171277	0.264114	0.385056
	H12	H	0.862257	0.378570	0.711742
	H13	H	0.172114	0.589223	0.710105
	H14	H	0.860872	0.589637	0.268173
	H15	H	0.171608	0.381086	0.269629
	H16	H	0.411120	0.705463	0.834971
	H17	H	0.621882	0.705907	0.144879
	H18	H	0.626174	0.258020	0.837318
	H19	H	0.408930	0.260921	0.143309
	H20	H	0.739022	0.829448	0.385315
	H21	H	0.739399	0.136646	0.598869
	H22	H	0.292161	0.829658	0.599258
	H23	H	0.294379	0.138020	0.384976
	H24	H	0.906851	0.331063	0.214342
	H25	H	0.120302	0.638691	0.210102
	H26	H	0.123804	0.330988	0.766151
	H27	H	0.907848	0.638962	0.766005
	H28	H	0.237443	0.878398	0.334794
	H29	H	0.240055	0.091325	0.643427
	H30	H	0.793638	0.090163	0.335509
	H31	H	0.792989	0.876469	0.644522
	H32	H	0.362373	0.205637	0.883988
	H33	H	0.668108	0.209847	0.101143
	H34	H	0.362159	0.762041	0.096879
	H35	H	0.670473	0.759506	0.883519
	H36	H	0.362592	0.877616	0.213250
	H37	H	0.669420	0.092598	0.215611
	H38	H	0.362215	0.089384	0.767868
	H39	H	0.671362	0.875721	0.768346
	H40	H	0.910300	0.205337	0.334566
	H41	H	0.124489	0.208772	0.642831
	H42	H	0.121266	0.762518	0.334634
	H43	H	0.908722	0.759913	0.643758
	H44	H	0.240598	0.332008	0.881295
	H45	H	0.235952	0.638998	0.093846
	H46	H	0.790717	0.331838	0.099521
	H47	H	0.793416	0.638745	0.883347
	H48	H	0.431129	0.091297	0.576349
	H49	H	0.601130	0.874964	0.575383
	H50	H	0.613171	0.098492	0.400783
	H51	H	0.433328	0.874271	0.403692
	H52	H	0.598840	0.397329	0.098541
	H53	H	0.606383	0.574281	0.877654
	H54	H	0.426626	0.576014	0.101569
	H55	H	0.434663	0.390322	0.879439
	H56	H	0.128350	0.569975	0.395544
	H57	H	0.904345	0.573711	0.580355
	H58	H	0.126350	0.395532	0.574438
	H59	H	0.901861	0.396893	0.393247
	H60	H	0.127168	0.398937	0.578042
	H61	H	0.906297	0.573960	0.574912
	H62	H	0.128567	0.578018	0.401961
	H63	H	0.902559	0.387519	0.404296
	H64	H	0.424104	0.572754	0.102636
	H65	H	0.605616	0.568168	0.880737
	H66	H	0.604647	0.393695	0.102029
	H67	H	0.422832	0.394628	0.875466
	H68	H	0.596830	0.094624	0.395686
	H69	H	0.610369	0.870940	0.575038
	H70	H	0.426657	0.092770	0.575999
	H71	H	0.422673	0.871996	0.404959
	H72	H	0.930479	0.592933	0.074454
	H73	H	0.105331	0.372671	0.077229
	H74	H	0.109676	0.597355	0.901484
	H75	H	0.930790	0.374659	0.901118
	H76	H	0.102163	0.896666	0.599987
	H77	H	0.107390	0.074705	0.376793
	H78	H	0.929868	0.073830	0.600113
	H79	H	0.927769	0.888138	0.376473
	H80	H	0.625278	0.068199	0.906388
	H81	H	0.412094	0.063143	0.070580
	H82	H	0.629083	0.896847	0.082832
	H83	H	0.405316	0.895834	0.901562
	H84	H	0.628816	0.889899	0.078498
	H85	H	0.404484	0.067708	0.086624
	H86	H	0.627733	0.067441	0.899047
	H87	H	0.405135	0.893804	0.901017
	H88	H	0.926776	0.074284	0.601925
	H89	H	0.105868	0.068932	0.379924
	H90	H	0.104032	0.893999	0.601230
	H91	H	0.921748	0.901139	0.379001
	H92	H	0.103226	0.596540	0.895674
	H93	H	0.107252	0.371948	0.079771
	H94	H	0.924846	0.594959	0.076794
	H95	H	0.931038	0.375709	0.902874
	H96	H	0.429045	0.093422	0.580380
	H97	H	0.604735	0.869725	0.583654
	H98	H	0.602067	0.090397	0.411787
	H99	H	0.427004	0.870331	0.394919
	H100	H	0.604914	0.401074	0.099595
	H101	H	0.599809	0.572761	0.880116
	H102	H	0.427183	0.572459	0.100362
	H103	H	0.430839	0.402731	0.882293
	H104	H	0.124177	0.568998	0.404923
	H105	H	0.906999	0.569103	0.577709
	H106	H	0.128950	0.394165	0.578801
	H107	H	0.907485	0.401264	0.405565
	H108	H	0.930145	0.594608	0.080271
	H109	H	0.103926	0.373577	0.080102
	H110	H	0.101856	0.594652	0.903886
	H111	H	0.929084	0.374635	0.902068
	H112	H	0.105464	0.897052	0.600815
	H113	H	0.101261	0.073843	0.379195
	H114	H	0.928151	0.070908	0.600687
	H115	H	0.935521	0.898092	0.383617
	H116	H	0.628555	0.074382	0.902822
	H117	H	0.404137	0.080191	0.072863
	H118	H	0.626459	0.896582	0.075286
	H119	H	0.405274	0.894028	0.902723
	C120	C	0.395674	-0.009200	0.611107
	C121	C	0.638234	0.973798	0.611760
	C122	C	0.636827	-0.007815	0.370142
	C123	C	0.394703	0.974585	0.368413
	C124	C	0.637645	0.362503	-0.001135
	C125	C	0.636911	0.604808	0.981952
	C126	C	0.394477	0.605935	-0.001233
	C127	C	0.395069	0.362542	0.980837
	C128	C	0.024214	0.604849	0.368634
	C129	C	1.008114	0.605258	0.610635
	C130	C	0.025669	0.363035	0.610504
	C131	C	1.006828	0.363311	0.368174
	C132	C	0.894688	0.492918	0.111160
	C133	C	0.137249	0.475229	0.110728
	C134	C	0.137647	0.493770	0.867813
	C135	C	0.896057	0.476873	0.868844
	C136	C	0.136725	0.863029	0.498311
	C137	C	0.137783	0.105254	0.480860
	C138	C	0.895370	0.105479	0.498355
	C139	C	0.895177	0.862632	0.481865
	C140	C	0.524930	0.103217	0.869671
	C141	C	0.508073	0.104930	0.111283
	C142	C	0.525614	0.862261	0.111552
	C143	C	0.507696	0.861570	0.869006
	C144	C	0.391253	0.875329	0.673439
	C145	C	0.641195	0.089775	0.673792
	C146	C	0.639809	0.875426	0.310148
	C147	C	0.391358	0.090682	0.307886
	C148	C	0.700060	0.357687	0.882814
	C149	C	0.697866	0.607719	0.098292
	C150	C	0.335767	0.607248	0.880946
	C151	C	0.333349	0.359314	0.096527
	C152	C	0.907038	0.664850	0.366854
	C153	C	0.125126	0.665042	0.613224
	C154	C	0.909121	0.302219	0.614177
	C155	C	0.124471	0.303857	0.366222
	C156	C	0.908955	0.360114	0.671565
	C157	C	0.125105	0.607628	0.670476
	C158	C	0.907352	0.607691	0.308668
	C159	C	0.124417	0.361710	0.308903
	C160	C	0.392350	0.665706	0.881532
	C161	C	0.639836	0.665325	0.098343
	C162	C	0.643304	0.299293	0.883386
	C163	C	0.391220	0.301593	0.096852
	C164	C	0.698018	0.875822	0.367444
	C165	C	0.699108	0.090067	0.616317
	C166	C	0.333426	0.875582	0.616033
	C167	C	0.334029	0.091033	0.366102
	C168	C	0.889989	0.377335	0.173421
	C169	C	0.138838	0.592032	0.170360
	C170	C	0.141473	0.377574	0.806709
	C171	C	0.891036	0.592581	0.807124
	C172	C	0.197131	0.860370	0.381391
	C173	C	0.199101	0.108792	0.597054
	C174	C	0.834389	0.108088	0.381861
	C175	C	0.833776	0.858791	0.597904
	C176	C	0.408761	0.164712	0.866330
	C177	C	0.622691	0.168133	0.117390
	C178	C	0.408854	0.802153	0.114851
	C179	C	0.624407	0.800435	0.865940
	C180	C	0.409129	0.859565	0.172751
	C181	C	0.623191	0.110027	0.174511
	C182	C	0.408658	0.106769	0.808661
	C183	C	0.624575	0.857883	0.808444
	C184	C	0.892295	0.165410	0.381415
	C185	C	0.141780	0.167158	0.596771
	C186	C	0.139617	0.802657	0.381316
	C187	C	0.891107	0.800685	0.597679
	C188	C	0.199422	0.377898	0.863977
	C189	C	0.196338	0.592059	0.112446
	C190	C	0.832308	0.377508	0.116027
	C191	C	0.833918	0.592486	0.865399
	C192	C	0.421847	0.071319	0.584976
	C193	C	0.612499	0.893050	0.585472
	C194	C	0.611374	0.073461	0.395471
	C195	C	0.420323	0.893161	0.393839
	C196	C	0.610726	0.389556	0.078955
	C197	C	0.611299	0.579020	0.900685
	C198	C	0.419010	0.581032	0.080189
	C199	C	0.421926	0.388560	0.900044
	C200	C	0.105741	0.579661	0.393574
	C201	C	0.926957	0.579586	0.584949
	C202	C	0.106441	0.388828	0.584456
	C203	C	0.925179	0.388153	0.393615
	C204	C	0.921013	0.573224	0.084592
	C205	C	0.112618	0.393710	0.086030
	C206	C	0.112193	0.574936	0.893310
	C207	C	0.922772	0.395965	0.894762
	C208	C	0.111021	0.888578	0.579523
	C209	C	0.112030	0.079821	0.399779
	C210	C	0.920911	0.080325	0.579798
	C211	C	0.921092	0.888492	0.400858
	C212	C	0.606116	0.077221	0.895462
	C213	C	0.427971	0.077879	0.084157
	C214	C	0.606973	0.887345	0.085989
	C215	C	0.426333	0.887157	0.894460
	Zn216	Zn	0.516365	-0.017904	0.740377
	Zn217	Zn	0.516974	-0.016129	0.239989
	Zn218	Zn	0.766224	0.483889	-0.010688
	Zn219	Zn	0.266426	0.484745	-0.010856
	Zn220	Zn	0.016323	0.733713	0.489907
	Zn221	Zn	0.016185	0.234352	0.489157
	Zn222	Zn	0.016522	0.484943	0.739156
	Zn223	Zn	0.015730	0.484157	0.239324
	Zn224	Zn	0.516102	0.733864	-0.009745
	Zn225	Zn	0.516935	0.233965	-0.009853
	Zn226	Zn	0.766796	-0.015695	0.490345
	Zn227	Zn	0.266145	-0.017259	0.490480
	N228	N	0.429351	0.947958	0.670476
	N229	N	0.604014	0.016360	0.671268
	N230	N	0.602657	0.948974	0.311524
	N231	N	0.428256	0.017051	0.309110
	N232	N	0.697054	0.396362	0.955619
	N233	N	0.696299	0.570792	0.024633
	N234	N	0.336499	0.570894	0.954904
	N235	N	0.335372	0.396452	0.023099
	N236	N	0.980998	0.663533	0.403374
	N237	N	0.051020	0.664216	0.577046
	N238	N	0.982784	0.303565	0.577182
	N239	N	0.050168	0.304414	0.402138
	N240	N	0.982489	0.397399	0.669624
	N241	N	0.051178	0.571283	0.669387
	N242	N	0.981265	0.571135	0.309578
	N243	N	0.050146	0.397838	0.309764
	N244	N	0.428027	0.665226	0.955904
	N245	N	0.602786	0.663583	0.024838
	N246	N	0.605212	0.302070	0.956553
	N247	N	0.428953	0.303442	0.023593
	N248	N	0.696607	0.949731	0.403903
	N249	N	0.697646	0.016908	0.578709
	N250	N	0.335861	0.948460	0.577827
	N251	N	0.335712	0.017457	0.402953
	N252	N	0.928103	0.450063	0.170600
	N253	N	0.103032	0.518091	0.169680
	N254	N	0.103766	0.450685	0.808736
	N255	N	0.929023	0.519437	0.809040
	N256	N	0.195764	0.896935	0.455427
	N257	N	0.196807	0.070862	0.523957
	N258	N	0.835884	0.071516	0.455735
	N259	N	0.836311	0.896816	0.524964
	N260	N	0.482333	0.162860	0.903464
	N261	N	0.550217	0.164947	0.078542
	N262	N	0.482423	0.803540	0.077505
	N263	N	0.550582	0.802364	0.902779
	N264	N	0.482853	0.896348	0.170813
	N265	N	0.550820	0.071313	0.171011
	N266	N	0.482198	0.069345	0.810417
	N267	N	0.550989	0.895206	0.810116
	N268	N	0.929448	0.163996	0.455092
	N269	N	0.104107	0.165036	0.523537
	N270	N	0.102800	0.803906	0.455137
	N271	N	0.928764	0.802906	0.524269
	N272	N	0.197136	0.451058	0.901382
	N273	N	0.195902	0.518332	0.076188
	N274	N	0.835016	0.450310	0.077645
	N275	N	0.836860	0.519353	0.903229
	O276	O	-0.191707	0.989213	-0.019530
	H277	H	-0.197489	1.002454	-0.017065
	H278	H	-0.199013	0.997716	-0.009096
	O279	O	0.199284	0.793998	0.174563
	H280	H	0.189676	0.805458	0.170829
	H281	H	0.212931	0.790268	0.189555
	O282	O	1.098007	0.214505	0.940341
	H283	H	1.081005	0.194305	0.948157
	H284	H	1.100271	0.224687	0.929686
	O285	O	0.529604	0.491090	0.707533
	H286	H	0.552525	0.475695	0.705902
	H287	H	0.518706	0.469514	0.709268
	O288	O	0.411116	0.700065	0.519478
	H289	H	0.405124	0.713047	0.539062
	H290	H	0.389544	0.693520	0.509193
	O291	O	0.481831	0.543684	0.687674
	H292	H	0.489917	0.522442	0.686652
	H293	H	0.491121	0.527791	0.684175
	O294	O	1.125834	-0.244015	0.995073
	H295	H	1.135398	-0.252000	1.011019
	H296	H	1.144530	-0.234460	1.007003
	O297	O	-0.011929	0.862419	0.054202
	H298	H	-0.007865	0.861279	0.064585
	H299	H	-0.013340	0.863948	0.045307
	O300	O	-0.206436	0.180863	0.999471
	H301	H	-0.221245	0.194298	0.979858
	H302	H	-0.206725	0.172539	0.977699
	O303	O	0.507776	0.398977	0.374499
	H304	H	0.497759	0.401280	0.373989
	H305	H	0.507920	0.396491	0.390302
	O306	O	0.729155	0.696119	0.522763
	H307	H	0.728556	0.682841	0.517751
	H308	H	0.749347	0.711527	0.530976
	O309	O	0.733040	0.512322	0.709998
	H310	H	0.747599	0.530176	0.718379
	H311	H	0.740382	0.528899	0.714770
	O312	O	0.548046	0.596368	0.537028
	H313	H	0.547118	0.597011	0.553261
	H314	H	0.543324	0.593778	0.535236
	O315	O	1.035501	0.924968	0.998062
	H316	H	1.049000	0.914807	1.008583
	H317	H	1.040220	0.921696	1.007940
	O318	O	0.651951	0.497748	0.498762
	H319	H	0.656166	0.498854	0.512210
	H320	H	0.649220	0.500431	0.507783
	O321	O	0.058092	0.861237	1.102579
	H322	H	0.044172	0.860826	1.104023
	H323	H	0.047205	0.867748	1.091740
	O324	O	0.850922	1.148005	0.187492
	H325	H	0.859192	1.144242	0.160257
	H326	H	0.829603	1.151495	0.197794
	O327	O	-0.209073	-0.043182	1.215889
	H328	H	-0.224345	-0.067039	1.233439
	H329	H	-0.221542	-0.067630	1.218808
	O330	O	0.671782	0.619053	0.428304
	H331	H	0.675144	0.621778	0.447436
	H332	H	0.660128	0.602506	0.440171
	O333	O	-0.091440	0.961939	0.932685
	H334	H	-0.081571	0.961055	0.946221
	H335	H	-0.099462	0.952102	0.951143
	O336	O	0.312417	0.450361	0.701313
	H337	H	0.308137	0.430450	0.704434
	H338	H	0.299975	0.429059	0.716159
	O339	O	0.836673	0.195839	0.802541
	H340	H	0.859321	0.205469	0.812321
	H341	H	0.842433	0.163779	0.809006
	O342	O	0.148308	-0.055692	0.178916
	H343	H	0.132822	-0.051527	0.185619
	H344	H	0.171873	-0.057671	0.173310
	O345	O	-0.229016	1.244211	1.249444
	H346	H	-0.228340	1.258900	1.244730
	H347	H	-0.249379	1.249434	1.257431
	O348	O	-0.024884	-0.078406	-0.222325
	H349	H	-0.019388	-0.088967	-0.229107
	H350	H	-0.009359	-0.080052	-0.195527
	O351	O	0.553320	0.314780	0.677565
	H352	H	0.548130	0.291988	0.689901
	H353	H	0.531617	0.316029	0.676421
	O354	O	-0.204572	-0.238882	1.025752
	H355	H	-0.202734	-0.222799	1.039076
	H356	H	-0.235637	-0.260212	1.022742
	O357	O	0.480377	0.445560	0.254961
	H358	H	0.472251	0.450579	0.255818
	H359	H	0.459388	0.443452	0.269127
	O360	O	0.328216	0.701319	0.482479
	H361	H	0.296327	0.717922	0.471025
	H362	H	0.322361	0.671835	0.467250
	O363	O	0.326865	0.294727	0.299336
	H364	H	0.350889	0.298494	0.314287
	H365	H	0.295922	0.262248	0.267812
	O366	O	0.460778	0.254788	0.449839
	H367	H	0.458937	0.249936	0.459449
	H368	H	0.473578	0.260083	0.444904
	O369	O	0.475970	0.358204	0.577824
	H370	H	0.482573	0.360889	0.571087
	H371	H	0.469347	0.356604	0.592342
	O372	O	1.236231	0.818593	-0.008342
	H373	H	1.243283	0.825995	0.006993
	H374	H	1.243175	0.823013	-0.020830
	O375	O	1.012168	-0.212414	0.141321
	H376	H	0.998051	-0.226186	0.127396
	H377	H	1.013417	-0.226458	0.141352
	O378	O	-0.097899	0.931285	0.837382
	H379	H	-0.088209	0.930564	0.838595
	H380	H	-0.126869	0.918913	0.835213
	O381	O	0.243496	1.040016	0.930457
	H382	H	0.236959	1.042251	0.943059
	H383	H	0.248138	1.041210	0.919311
	O384	O	0.307701	-0.303909	0.280110
	H385	H	0.344299	-0.313729	0.279387
	H386	H	0.310998	-0.312228	0.282303
	O387	O	1.294063	1.518486	0.268833
	H388	H	1.279393	1.514543	0.265796
	H389	H	1.286244	1.513674	0.259410
	O390	O	0.474133	0.690229	0.289285
	H391	H	0.483888	0.685712	0.284959
	H392	H	0.490097	0.704284	0.305029
	O393	O	0.295371	0.484681	0.469562
	H394	H	0.309784	0.488762	0.460564
	H395	H	0.291013	0.470324	0.468385
	O396	O	-0.283337	0.687373	0.694124
	H397	H	-0.264500	0.695354	0.688458
	H398	H	-0.324057	0.696054	0.686583
	O399	O	0.073418	0.117463	1.165854
	H400	H	0.064624	0.129314	1.177368
	H401	H	0.061300	0.115376	1.171068
	O402	O	0.874410	0.134143	-0.064715
	H403	H	0.885119	0.126058	-0.075668
	H404	H	0.872924	0.111578	-0.064303
	O405	O	1.226349	0.196469	1.200245
	H406	H	1.218771	0.192757	1.164283
	H407	H	1.187034	0.187781	1.197049
	O408	O	0.228799	-0.035052	-0.230573
	H409	H	0.234687	-0.064217	-0.233961
	H410	H	0.245314	-0.041711	-0.234536
	O411	O	0.715491	0.482993	0.364982
	H412	H	0.703207	0.479432	0.366956
	H413	H	0.733108	0.478476	0.351998
	O414	O	0.723765	0.275537	0.695103
	H415	H	0.728844	0.253190	0.695594
	H416	H	0.739545	0.278788	0.692994
	O417	O	0.298271	0.343064	0.505548
	H418	H	0.320552	0.330820	0.490738
	H419	H	0.279746	0.332232	0.504340
	O420	O	0.581402	0.271197	0.566725
	H421	H	0.600150	0.266869	0.561363
	H422	H	0.568625	0.276822	0.570791
	O423	O	-0.172180	-0.188495	1.164580
	H424	H	-0.154860	-0.207460	1.167952
	H425	H	-0.183425	-0.208833	1.170990
	O426	O	0.545430	0.703173	0.707291
	H427	H	0.541363	0.732121	0.732131
	H428	H	0.535170	0.667900	0.712304
	O429	O	1.037686	1.012068	1.168483
	H430	H	1.029124	1.012040	1.169655
	H431	H	1.025652	1.021810	1.167018
	O432	O	0.677039	0.394705	0.506220
	H433	H	0.675353	0.400936	0.496088
	H434	H	0.668424	0.392712	0.518219
	O435	O	0.081639	1.057117	-0.237577
	H436	H	0.079850	1.037900	-0.230451
	H437	H	0.088912	1.033704	-0.233486
	O438	O	-0.032097	0.221463	0.055996
	H439	H	-0.029594	0.218051	0.041396
	H440	H	-0.051400	0.223416	0.053627
	O441	O	0.246165	-0.041057	0.103109
	H442	H	0.254044	-0.035675	0.109554
	H443	H	0.246666	-0.030611	0.112503
	O444	O	0.439846	0.492562	0.344923
	H445	H	0.420064	0.486189	0.350748
	H446	H	0.428803	0.494171	0.362160
	O447	O	-0.132628	0.796339	0.856628
	H448	H	-0.114987	0.805793	0.875461
	H449	H	-0.141098	0.811532	0.860619
	O450	O	0.213867	1.181409	0.791658
	H451	H	0.199709	1.174702	0.820636
	H452	H	0.191289	1.153011	0.797761
	O453	O	0.616402	0.612927	0.332219
	H454	H	0.594255	0.623850	0.336205
	H455	H	0.610374	0.614758	0.334110
	O456	O	0.315421	0.282501	0.701860
	H457	H	0.324047	0.284307	0.671813
	H458	H	0.282834	0.249861	0.728093
	O459	O	0.706110	0.670978	0.302952
	H460	H	0.685576	0.648777	0.312630
	H461	H	0.688633	0.662150	0.332128
	O462	O	0.550895	0.271779	0.295316
	H463	H	0.548917	0.276984	0.294182
	H464	H	0.555256	0.263776	0.281025
	O465	O	0.995144	0.204154	-0.229034
	H466	H	1.010270	0.171432	-0.235662
	H467	H	0.994925	0.224086	-0.257908
	O468	O	0.619212	0.458162	0.312883
	H469	H	0.604500	0.457596	0.305830
	H470	H	0.617951	0.462743	0.319708
	O471	O	0.349925	0.390283	0.581324
	H472	H	0.351093	0.374763	0.598635
	H473	H	0.360328	0.387700	0.589593
	O474	O	0.425046	0.571118	0.614943
	H475	H	0.432848	0.554570	0.612357
	H476	H	0.439991	0.563157	0.608018
	O477	O	0.042018	0.768074	1.766430
	H478	H	0.047211	0.774999	1.775929
	H479	H	0.042354	0.739908	1.752149
	O480	O	0.223860	0.780468	0.780445
	H481	H	0.248846	0.764717	0.771384
	H482	H	0.200123	0.765981	0.796338
	O483	O	0.405408	0.512057	0.591672
	H484	H	0.408342	0.488074	0.591543
	H485	H	0.411181	0.509788	0.592327
	O486	O	1.102613	-0.017859	0.953107
	H487	H	1.095362	-0.021246	0.963595
	H488	H	1.107063	-0.034782	0.943738
	O489	O	1.225179	1.189870	0.017467
	H490	H	1.206881	1.203811	0.011772
	H491	H	1.237585	1.193343	0.017696
	O492	O	-0.147921	0.013037	0.090900
	H493	H	-0.149607	0.019578	0.106681
	H494	H	-0.147217	0.003646	0.099834
	O495	O	-0.202893	1.008263	0.770354
	H496	H	-0.209376	1.003033	0.765849
	H497	H	-0.207388	1.004283	0.757630
	O498	O	0.982233	1.012807	1.206771
	H499	H	0.963889	0.998394	1.227730
	H500	H	0.988455	1.022940	1.209584
	O501	O	0.737880	0.258895	0.469432
	H502	H	0.752172	0.242507	0.458006
	H503	H	0.742810	0.262593	0.449896
