data_Molecule from HDF5

_cell_length_a		16.348718
_cell_length_b		16.274317
_cell_length_c		16.232226
_cell_angle_alpha	89.897364
_cell_angle_beta	89.956059
_cell_angle_gamma	89.891289
_symmetry_space_group_name_H-M	'P 1'
_symmetry_Int_Tables_number		1

loop_
	_symmetry_equiv_pos_as_xyz
	x,y,z

loop_
	_atom_site_label
	_atom_site_type_symbol
	_atom_site_fract_x
	_atom_site_fract_y
	_atom_site_fract_z
	H0	H	0.394800	0.828957	0.710279
	H1	H	0.587582	0.157782	0.709399
	H2	H	0.588974	0.829294	0.283038
	H3	H	0.395229	0.157995	0.284904
	H4	H	0.705058	0.395756	0.832118
	H5	H	0.706157	0.593183	0.160821
	H6	H	0.276748	0.593112	0.832528
	H7	H	0.276058	0.396033	0.161039
	H8	H	0.827704	0.708200	0.398231
	H9	H	0.154623	0.706567	0.593823
	H10	H	0.827623	0.278170	0.596242
	H11	H	0.153545	0.277690	0.398313
	H12	H	0.827365	0.395477	0.711527
	H13	H	0.154425	0.590146	0.710514
	H14	H	0.827413	0.590974	0.282918
	H15	H	0.154338	0.395983	0.283908
	H16	H	0.393423	0.707951	0.832462
	H17	H	0.587766	0.707307	0.161698
	H18	H	0.588924	0.279915	0.832591
	H19	H	0.393736	0.281198	0.161950
	H20	H	0.705812	0.829914	0.398078
	H21	H	0.705515	0.157001	0.594365
	H22	H	0.275435	0.829697	0.596530
	H23	H	0.275337	0.156810	0.397527
	H24	H	0.894725	0.328257	0.209970
	H25	H	0.087986	0.657314	0.210688
	H26	H	0.089721	0.329147	0.783410
	H27	H	0.893572	0.657764	0.782998
	H28	H	0.205860	0.895000	0.332371
	H29	H	0.204499	0.091167	0.661110
	H30	H	0.777016	0.092324	0.331985
	H31	H	0.777003	0.895780	0.661169
	H32	H	0.327368	0.209345	0.898538
	H33	H	0.653636	0.208074	0.095500
	H34	H	0.327504	0.779520	0.095310
	H35	H	0.653406	0.778268	0.898442
	H36	H	0.326653	0.897131	0.209715
	H37	H	0.654499	0.090910	0.211192
	H38	H	0.327672	0.093353	0.782108
	H39	H	0.653977	0.895013	0.782107
	H40	H	0.893520	0.207400	0.332143
	H41	H	0.087698	0.206037	0.661332
	H42	H	0.088828	0.780241	0.331935
	H43	H	0.892489	0.779066	0.661081
	H44	H	0.206679	0.330329	0.898492
	H45	H	0.204531	0.657021	0.095169
	H46	H	0.776153	0.329548	0.096672
	H47	H	0.775641	0.657396	0.898024
	H48	H	0.402053	0.106580	0.584285
	H49	H	0.574294	0.882230	0.583249
	H50	H	0.589242	0.114125	0.395184
	H51	H	0.395527	0.874432	0.397520
	H52	H	0.585361	0.393223	0.115669
	H53	H	0.591968	0.588848	0.877152
	H54	H	0.396567	0.597160	0.117232
	H55	H	0.392333	0.406146	0.879478
	H56	H	0.105824	0.586338	0.407339
	H57	H	0.873060	0.593297	0.591347
	H58	H	0.107720	0.404392	0.597794
	H59	H	0.876237	0.403071	0.408344
	H60	H	0.108384	0.390642	0.589346
	H61	H	0.877503	0.585358	0.584199
	H62	H	0.106541	0.583645	0.400816
	H63	H	0.873722	0.403307	0.398907
	H64	H	0.387337	0.581610	0.114719
	H65	H	0.582638	0.579324	0.883338
	H66	H	0.590417	0.405935	0.114460
	H67	H	0.404231	0.404584	0.883045
	H68	H	0.574504	0.107340	0.402807
	H69	H	0.596021	0.875044	0.584204
	H70	H	0.388195	0.112156	0.587266
	H71	H	0.404275	0.878060	0.405308
	H72	H	0.898711	0.607511	0.083387
	H73	H	0.074401	0.379783	0.088722
	H74	H	0.088183	0.610650	0.904769
	H75	H	0.895733	0.376864	0.905204
	H76	H	0.076416	0.903351	0.610333
	H77	H	0.087638	0.086665	0.378490
	H78	H	0.892303	0.094978	0.617222
	H79	H	0.892291	0.905257	0.379841
	H80	H	0.610031	0.091796	0.895763
	H81	H	0.375738	0.089966	0.084258
	H82	H	0.605431	0.906350	0.092409
	H83	H	0.379491	0.903239	0.916352
	H84	H	0.609458	0.895507	0.094603
	H85	H	0.375923	0.080574	0.092191
	H86	H	0.606262	0.092413	0.910771
	H87	H	0.374780	0.910915	0.894862
	H88	H	0.891570	0.075541	0.612131
	H89	H	0.083050	0.082845	0.381485
	H90	H	0.084809	0.891364	0.616171
	H91	H	0.903756	0.902951	0.382564
	H92	H	0.083067	0.610314	0.898423
	H93	H	0.091519	0.377086	0.081577
	H94	H	0.892106	0.611557	0.090741
	H95	H	0.898890	0.376500	0.902370
	H96	H	0.398114	0.111651	0.597844
	H97	H	0.582445	0.873449	0.602652
	H98	H	0.589445	0.108988	0.412242
	H99	H	0.392897	0.876724	0.409434
	H100	H	0.577190	0.403682	0.110628
	H101	H	0.578872	0.592482	0.880115
	H102	H	0.404936	0.582478	0.110158
	H103	H	0.397424	0.394550	0.878093
	H104	H	0.107910	0.590729	0.401673
	H105	H	0.875064	0.582795	0.594996
	H106	H	0.102503	0.403923	0.582679
	H107	H	0.873184	0.394756	0.403738
	H108	H	0.901917	0.609505	0.093727
	H109	H	0.088284	0.372292	0.099962
	H110	H	0.080465	0.608720	0.906023
	H111	H	0.899502	0.378815	0.906409
	H112	H	0.091225	0.905591	0.614486
	H113	H	0.081029	0.088805	0.379814
	H114	H	0.908441	0.085774	0.609593
	H115	H	0.896858	0.893812	0.377817
	H116	H	0.604321	0.079296	0.902325
	H117	H	0.372728	0.092445	0.095502
	H118	H	0.605375	0.898204	0.084130
	H119	H	0.370496	0.888848	0.900527
	C120	C	0.368550	0.001635	0.618457
	C121	C	0.612376	0.985190	0.618046
	C122	C	0.612558	0.001802	0.375036
	C123	C	0.369255	0.984978	0.375495
	C124	C	0.612967	0.372411	0.005044
	C125	C	0.612327	0.615072	0.988895
	C126	C	0.368688	0.615722	0.005414
	C127	C	0.369803	0.373041	0.988839
	C128	C	-0.001078	0.615331	0.374720
	C129	C	0.982980	0.615237	0.618377
	C130	C	-0.001046	0.371241	0.618855
	C131	C	0.982383	0.371566	0.375100
	C132	C	0.869236	0.501332	0.118416
	C133	C	0.112204	0.484791	0.118386
	C134	C	0.112617	0.501553	0.875152
	C135	C	0.869672	0.485468	0.875793
	C136	C	0.112337	0.872141	0.504815
	C137	C	0.112136	0.114446	0.488798
	C138	C	0.868909	0.114665	0.504761
	C139	C	0.869227	0.871802	0.488421
	C140	C	0.498895	0.116241	0.875006
	C141	C	0.482826	0.115256	0.118750
	C142	C	0.498954	0.872056	0.118698
	C143	C	0.482519	0.872496	0.875506
	C144	C	0.372707	0.878161	0.673289
	C145	C	0.608782	0.108781	0.672161
	C146	C	0.609499	0.878073	0.320791
	C147	C	0.373280	0.108861	0.321869
	C148	C	0.667775	0.374974	0.881542
	C149	C	0.667421	0.612882	0.112298
	C150	C	0.314590	0.613451	0.881397
	C151	C	0.314104	0.375405	0.112204
	C152	C	0.876306	0.670186	0.377702
	C153	C	0.105754	0.669274	0.614956
	C154	C	0.876086	0.316344	0.616377
	C155	C	0.105097	0.316271	0.377940
	C156	C	0.875823	0.374573	0.673487
	C157	C	0.105716	0.611561	0.672953
	C158	C	0.876174	0.611964	0.320301
	C159	C	0.105481	0.374527	0.320879
	C160	C	0.372437	0.670586	0.881482
	C161	C	0.608616	0.669520	0.112668
	C162	C	0.610267	0.317383	0.881639
	C163	C	0.372810	0.318640	0.112829
	C164	C	0.667517	0.878457	0.377793
	C165	C	0.667099	0.108445	0.614947
	C166	C	0.313951	0.878401	0.616492
	C167	C	0.313830	0.108048	0.377746
	C168	C	0.872967	0.377672	0.173177
	C169	C	0.108809	0.608416	0.172892
	C170	C	0.110370	0.378302	0.820702
	C171	C	0.872523	0.608728	0.820485
	C172	C	0.167704	0.874659	0.381232
	C173	C	0.166468	0.111349	0.612229
	C174	C	0.814318	0.112699	0.381240
	C175	C	0.814412	0.874505	0.612191
	C176	C	0.376305	0.172000	0.877576
	C177	C	0.605155	0.170132	0.116110
	C178	C	0.376131	0.817260	0.115917
	C179	C	0.605275	0.817011	0.878051
	C180	C	0.375690	0.875691	0.172811
	C181	C	0.605618	0.111652	0.173476
	C182	C	0.376120	0.113788	0.820247
	C183	C	0.605383	0.874973	0.820204
	C184	C	0.872430	0.169733	0.381120
	C185	C	0.108667	0.168809	0.612260
	C186	C	0.109676	0.817479	0.381205
	C187	C	0.872225	0.817065	0.612164
	C188	C	0.168487	0.378785	0.877768
	C189	C	0.167030	0.608182	0.115933
	C190	C	0.814012	0.378313	0.117041
	C191	C	0.814236	0.608646	0.877759
	C192	C	0.389790	0.087766	0.596302
	C193	C	0.590764	0.899124	0.596501
	C194	C	0.590692	0.087913	0.396769
	C195	C	0.391123	0.898644	0.397444
	C196	C	0.590765	0.394440	0.091411
	C197	C	0.590716	0.593288	0.902418
	C198	C	0.389942	0.593532	0.091726
	C199	C	0.391629	0.395204	0.902587
	C200	C	0.084793	0.593386	0.396753
	C201	C	0.897149	0.593505	0.596603
	C202	C	0.084191	0.393024	0.596595
	C203	C	0.896710	0.393755	0.397092
	C204	C	0.891022	0.587096	0.095864
	C205	C	0.090918	0.398721	0.096623
	C206	C	0.090585	0.587778	0.896783
	C207	C	0.891649	0.399645	0.898002
	C208	C	0.090634	0.893771	0.591204
	C209	C	0.090389	0.092491	0.402267
	C210	C	0.890877	0.091991	0.590820
	C211	C	0.891068	0.894193	0.402343
	C212	C	0.584674	0.094361	0.896516
	C213	C	0.396774	0.093817	0.097143
	C214	C	0.584635	0.893630	0.096939
	C215	C	0.397169	0.894602	0.897420
	Zn216	Zn	0.490799	-0.005747	0.746733
	Zn217	Zn	0.490542	-0.006738	0.247383
	Zn218	Zn	0.741066	0.493715	-0.002704
	Zn219	Zn	0.241068	0.494288	-0.003336
	Zn220	Zn	-0.008976	0.743745	0.496616
	Zn221	Zn	-0.009450	0.242531	0.496659
	Zn222	Zn	-0.009068	0.492991	0.747063
	Zn223	Zn	-0.008957	0.492854	0.246444
	Zn224	Zn	0.490704	0.743301	-0.002946
	Zn225	Zn	0.490767	0.244450	-0.002855
	Zn226	Zn	0.740706	-0.006853	0.496240
	Zn227	Zn	0.240468	-0.006881	0.496643
	N228	N	0.406028	0.955767	0.674669
	N229	N	0.575462	0.031281	0.674111
	N230	N	0.576045	0.955806	0.318959
	N231	N	0.407073	0.031395	0.320549
	N232	N	0.669572	0.408373	0.959386
	N233	N	0.669676	0.579645	0.034373
	N234	N	0.311975	0.580241	0.959382
	N235	N	0.312301	0.408746	0.034155
	N236	N	0.953584	0.672030	0.411067
	N237	N	0.028414	0.671725	0.582104
	N238	N	0.953532	0.314163	0.582888
	N239	N	0.027597	0.314261	0.411002
	N240	N	0.953016	0.407914	0.675382
	N241	N	0.028415	0.578294	0.674906
	N242	N	0.953564	0.578461	0.318581
	N243	N	0.028405	0.408536	0.319454
	N244	N	0.405289	0.672036	0.959516
	N245	N	0.575393	0.671207	0.034829
	N246	N	0.576781	0.315867	0.959414
	N247	N	0.406614	0.317080	0.035229
	N248	N	0.669327	0.956143	0.410919
	N249	N	0.669525	0.030525	0.582245
	N250	N	0.311087	0.956269	0.583464
	N251	N	0.311566	0.029986	0.410685
	N252	N	0.906455	0.455185	0.174425
	N253	N	0.075526	0.530874	0.174358
	N254	N	0.076261	0.455664	0.819123
	N255	N	0.906320	0.531224	0.819260
	N256	N	0.169398	0.907868	0.459132
	N257	N	0.168896	0.078597	0.534099
	N258	N	0.812086	0.079083	0.459062
	N259	N	0.812405	0.907910	0.534290
	N260	N	0.453555	0.173320	0.911227
	N261	N	0.527783	0.172474	0.082967
	N262	N	0.453773	0.814758	0.083160
	N263	N	0.528147	0.815457	0.911657
	N264	N	0.452942	0.909173	0.174563
	N265	N	0.528325	0.078386	0.175306
	N266	N	0.453176	0.079818	0.818456
	N267	N	0.528133	0.908871	0.818643
	N268	N	0.905583	0.171108	0.458976
	N269	N	0.075397	0.170574	0.534490
	N270	N	0.076111	0.815722	0.458941
	N271	N	0.905668	0.815387	0.534368
	N272	N	0.169777	0.456402	0.911060
	N273	N	0.169373	0.530422	0.082615
	N274	N	0.811530	0.456066	0.083735
	N275	N	0.812429	0.531109	0.911572
	O276	O	0.976058	-0.042501	0.944094
	H277	H	0.969234	-0.043073	0.936676
	H278	H	0.981835	-0.039484	0.941663
	O279	O	0.983078	0.993443	0.888733
	H280	H	0.976242	0.995319	0.895710
	H281	H	0.990065	0.997104	0.880425
	O282	O	0.963573	0.987388	-0.092408
	H283	H	0.961569	0.989737	-0.079261
	H284	H	0.962713	0.976875	-0.090501
	O285	O	0.980653	0.991305	0.881626
	H286	H	0.986256	0.994612	0.870582
	H287	H	0.975337	0.987028	0.876891
