data_Molecule from HDF5

_cell_length_a		16.562723
_cell_length_b		16.587341
_cell_length_c		16.462358
_cell_angle_alpha	89.996504
_cell_angle_beta	89.969613
_cell_angle_gamma	89.933210
_symmetry_space_group_name_H-M	'P 1'
_symmetry_Int_Tables_number		1

loop_
	_symmetry_equiv_pos_as_xyz
	x,y,z

loop_
	_atom_site_label
	_atom_site_type_symbol
	_atom_site_fract_x
	_atom_site_fract_y
	_atom_site_fract_z
	H0	H	0.382613	0.848772	0.718390
	H1	H	0.590891	0.163117	0.719471
	H2	H	0.591810	0.850432	0.276287
	H3	H	0.375257	0.159433	0.271898
	H4	H	0.709403	0.398559	0.841814
	H5	H	0.708927	0.612694	0.154621
	H6	H	0.267148	0.607735	0.839830
	H7	H	0.262880	0.397982	0.154804
	H8	H	0.829932	0.728885	0.392146
	H9	H	0.139501	0.730352	0.606817
	H10	H	0.828862	0.283371	0.603965
	H11	H	0.141793	0.282252	0.390801
	H12	H	0.829232	0.399355	0.720747
	H13	H	0.141346	0.609296	0.719496
	H14	H	0.830380	0.612636	0.275914
	H15	H	0.142616	0.400833	0.276344
	H16	H	0.383325	0.724160	0.839333
	H17	H	0.590713	0.726807	0.155943
	H18	H	0.592371	0.283820	0.840475
	H19	H	0.377431	0.280278	0.153610
	H20	H	0.708198	0.850771	0.392068
	H21	H	0.708866	0.162655	0.604973
	H22	H	0.260346	0.852830	0.608783
	H23	H	0.260352	0.160791	0.389198
	H24	H	0.880392	0.349701	0.220542
	H25	H	0.091435	0.662011	0.220370
	H26	H	0.090654	0.348676	0.775999
	H27	H	0.880488	0.661678	0.775513
	H28	H	0.208788	0.899792	0.342890
	H29	H	0.208350	0.113599	0.655453
	H30	H	0.765260	0.110474	0.340412
	H31	H	0.766442	0.902979	0.656108
	H32	H	0.328720	0.227382	0.892100
	H33	H	0.640114	0.230249	0.106638
	H34	H	0.328685	0.785264	0.102398
	H35	H	0.644282	0.785862	0.893803
	H36	H	0.328958	0.902096	0.218916
	H37	H	0.639156	0.115563	0.224129
	H38	H	0.327837	0.108301	0.778708
	H39	H	0.645322	0.904591	0.779956
	H40	H	0.881514	0.226344	0.339640
	H41	H	0.091408	0.229202	0.655636
	H42	H	0.093924	0.783425	0.343332
	H43	H	0.879021	0.784451	0.654599
	H44	H	0.209461	0.349525	0.890020
	H45	H	0.207111	0.661865	0.103517
	H46	H	0.762270	0.350217	0.106208
	H47	H	0.763746	0.661603	0.892131
	H48	H	0.396997	0.118631	0.589091
	H49	H	0.579707	0.894075	0.585746
	H50	H	0.574689	0.116419	0.416477
	H51	H	0.398673	0.893343	0.404364
	H52	H	0.569333	0.412822	0.110518
	H53	H	0.577501	0.593542	0.884895
	H54	H	0.393378	0.595170	0.111747
	H55	H	0.398718	0.416790	0.886198
	H56	H	0.097858	0.589222	0.406627
	H57	H	0.873983	0.590328	0.588132
	H58	H	0.096648	0.420670	0.588596
	H59	H	0.871652	0.414676	0.405704
	H60	H	0.098980	0.412912	0.588650
	H61	H	0.870892	0.597405	0.588334
	H62	H	0.100825	0.601490	0.407909
	H63	H	0.874834	0.412881	0.413641
	H64	H	0.397138	0.595024	0.110702
	H65	H	0.572670	0.593924	0.886610
	H66	H	0.578651	0.419049	0.112021
	H67	H	0.396913	0.416710	0.885721
	H68	H	0.576608	0.119865	0.408241
	H69	H	0.578592	0.892953	0.591667
	H70	H	0.399864	0.116639	0.586283
	H71	H	0.404325	0.898974	0.415881
	H72	H	0.902887	0.614657	0.084188
	H73	H	0.076698	0.394483	0.084045
	H74	H	0.076777	0.616403	0.913255
	H75	H	0.893072	0.394430	0.915180
	H76	H	0.073554	0.919828	0.611238
	H77	H	0.073130	0.098278	0.385417
	H78	H	0.896117	0.098630	0.611772
	H79	H	0.896725	0.919080	0.385529
	H80	H	0.599069	0.095049	0.904548
	H81	H	0.373529	0.090576	0.089374
	H82	H	0.599687	0.918605	0.092244
	H83	H	0.373228	0.911176	0.908211
	H84	H	0.599636	0.910285	0.085328
	H85	H	0.374523	0.097811	0.079451
	H86	H	0.599266	0.099951	0.911049
	H87	H	0.373711	0.916842	0.908463
	H88	H	0.895245	0.093933	0.610810
	H89	H	0.077354	0.090438	0.386583
	H90	H	0.071460	0.920584	0.609951
	H91	H	0.899039	0.917020	0.385263
	H92	H	0.077446	0.618670	0.906084
	H93	H	0.075669	0.392058	0.089713
	H94	H	0.892558	0.616498	0.081899
	H95	H	0.895728	0.391634	0.904711
	H96	H	0.395452	0.118032	0.584324
	H97	H	0.574333	0.895331	0.588181
	H98	H	0.568503	0.116217	0.409741
	H99	H	0.390716	0.894380	0.416034
	H100	H	0.569489	0.423487	0.107136
	H101	H	0.574203	0.597747	0.884240
	H102	H	0.396527	0.597775	0.113305
	H103	H	0.397648	0.418529	0.886459
	H104	H	0.094955	0.595040	0.416819
	H105	H	0.874080	0.595352	0.581875
	H106	H	0.095160	0.416351	0.581553
	H107	H	0.875649	0.421105	0.410220
	H108	H	0.896793	0.618832	0.091336
	H109	H	0.071327	0.395049	0.086772
	H110	H	0.071081	0.614936	0.908562
	H111	H	0.903021	0.395692	0.911187
	H112	H	0.071687	0.918463	0.611503
	H113	H	0.068915	0.091574	0.389189
	H114	H	0.899394	0.095551	0.610168
	H115	H	0.895867	0.916216	0.384340
	H116	H	0.596018	0.092356	0.911503
	H117	H	0.378559	0.086000	0.079182
	H118	H	0.595416	0.919545	0.082270
	H119	H	0.371919	0.913768	0.903808
	C120	C	0.364519	0.015162	0.619836
	C121	C	0.608877	0.997786	0.620462
	C122	C	0.606533	0.014825	0.377606
	C123	C	0.363795	0.997604	0.377605
	C124	C	0.606009	0.385079	0.006191
	C125	C	0.607504	0.627418	0.989388
	C126	C	0.364739	0.626590	0.006884
	C127	C	0.364646	0.384219	0.989755
	C128	C	-0.005390	0.627713	0.377053
	C129	C	0.976210	0.626935	0.619274
	C130	C	-0.006739	0.384133	0.618998
	C131	C	0.977633	0.384168	0.376905
	C132	C	0.864445	0.513734	0.119579
	C133	C	0.107066	0.497048	0.119561
	C134	C	0.107488	0.513440	0.876290
	C135	C	0.864568	0.496903	0.876985
	C136	C	0.106322	0.885807	0.507739
	C137	C	0.106806	0.127670	0.490057
	C138	C	0.864682	0.127711	0.506484
	C139	C	0.864683	0.885435	0.489103
	C140	C	0.494091	0.127544	0.876649
	C141	C	0.477340	0.126401	0.118405
	C142	C	0.494505	0.883936	0.119365
	C143	C	0.477657	0.883553	0.875888
	C144	C	0.363398	0.896718	0.679311
	C145	C	0.609858	0.116002	0.679895
	C146	C	0.609506	0.897298	0.316762
	C147	C	0.358795	0.113568	0.314040
	C148	C	0.668130	0.381262	0.888451
	C149	C	0.668091	0.630298	0.107769
	C150	C	0.306402	0.626910	0.887403
	C151	C	0.303191	0.380411	0.107642
	C152	C	0.877130	0.688514	0.373891
	C153	C	0.093287	0.688397	0.623779
	C154	C	0.875784	0.323618	0.622053
	C155	C	0.095073	0.323107	0.373363
	C156	C	0.875715	0.381366	0.679903
	C157	C	0.094194	0.628706	0.679933
	C158	C	0.877229	0.630588	0.315994
	C159	C	0.095689	0.382269	0.316601
	C160	C	0.364332	0.684568	0.887106
	C161	C	0.609672	0.687411	0.108230
	C162	C	0.609935	0.324127	0.887977
	C163	C	0.360317	0.322022	0.107229
	C164	C	0.667522	0.897487	0.374321
	C165	C	0.668372	0.115882	0.622731
	C166	C	0.302636	0.898511	0.624587
	C167	C	0.301435	0.114015	0.372349
	C168	C	0.862055	0.396612	0.180391
	C169	C	0.109712	0.614806	0.180002
	C170	C	0.109442	0.395759	0.815938
	C171	C	0.861931	0.614679	0.815816
	C172	C	0.168442	0.881820	0.390248
	C173	C	0.167890	0.131695	0.608374
	C174	C	0.804898	0.129393	0.387733
	C175	C	0.804949	0.883662	0.608147
	C176	C	0.375859	0.186984	0.874392
	C177	C	0.593468	0.189255	0.123647
	C178	C	0.376003	0.824692	0.121055
	C179	C	0.596927	0.825796	0.875364
	C180	C	0.375995	0.882734	0.179032
	C181	C	0.593105	0.132249	0.182376
	C182	C	0.375366	0.127774	0.817807
	C183	C	0.597378	0.884945	0.818708
	C184	C	0.862862	0.186663	0.387340
	C185	C	0.109751	0.189009	0.608328
	C186	C	0.111038	0.823934	0.390270
	C187	C	0.861412	0.824845	0.607477
	C188	C	0.168586	0.396282	0.872745
	C189	C	0.167261	0.614674	0.121813
	C190	C	0.803267	0.396898	0.123376
	C191	C	0.803957	0.614693	0.873837
	C192	C	0.390072	0.096667	0.593998
	C193	C	0.584519	0.915469	0.595753
	C194	C	0.580727	0.096231	0.403926
	C195	C	0.390465	0.916565	0.404482
	C196	C	0.579925	0.410969	0.088358
	C197	C	0.582080	0.602339	0.906673
	C198	C	0.388699	0.602923	0.090166
	C199	C	0.390382	0.410150	0.907530
	C200	C	0.076539	0.602207	0.403098
	C201	C	0.894423	0.601633	0.593346
	C202	C	0.075505	0.409370	0.593407
	C203	C	0.895550	0.409324	0.402467
	C204	C	0.890078	0.595440	0.093428
	C205	C	0.081713	0.415080	0.094155
	C206	C	0.082118	0.595350	0.901781
	C207	C	0.890153	0.415290	0.902935
	C208	C	0.079632	0.912233	0.589601
	C209	C	0.080711	0.100961	0.408509
	C210	C	0.889635	0.103084	0.589327
	C211	C	0.889983	0.910364	0.406529
	C212	C	0.576717	0.102897	0.901856
	C213	C	0.396622	0.099164	0.090735
	C214	C	0.576732	0.909006	0.094064
	C215	C	0.394617	0.906851	0.899893
	Zn216	Zn	0.486400	0.006183	0.748172
	Zn217	Zn	0.485081	0.005713	0.248245
	Zn218	Zn	0.735198	0.505606	-0.001695
	Zn219	Zn	0.236022	0.504774	-0.001780
	Zn220	Zn	-0.014615	0.756941	0.498671
	Zn221	Zn	-0.014469	0.255318	0.498156
	Zn222	Zn	-0.014696	0.504959	0.747670
	Zn223	Zn	-0.013916	0.505820	0.248564
	Zn224	Zn	0.485978	0.755582	-0.002159
	Zn225	Zn	0.485622	0.256277	-0.002172
	Zn226	Zn	0.736284	0.006899	0.498094
	Zn227	Zn	0.235102	0.006514	0.499483
	N228	N	0.401333	0.970240	0.676609
	N229	N	0.573611	0.041684	0.678617
	N230	N	0.572215	0.971385	0.318518
	N231	N	0.397169	0.040240	0.317388
	N232	N	0.666075	0.418417	0.963090
	N233	N	0.666861	0.593723	0.032805
	N234	N	0.306403	0.591829	0.962867
	N235	N	0.305767	0.418466	0.033524
	N236	N	0.951257	0.687131	0.411036
	N237	N	0.018930	0.687561	0.587063
	N238	N	0.950085	0.325132	0.585193
	N239	N	0.020668	0.324237	0.410308
	N240	N	0.949946	0.418133	0.678326
	N241	N	0.020312	0.591235	0.677336
	N242	N	0.951411	0.593668	0.317789
	N243	N	0.021508	0.419333	0.318640
	N244	N	0.399669	0.684911	0.962646
	N245	N	0.572762	0.685864	0.033497
	N246	N	0.572291	0.326132	0.962311
	N247	N	0.397840	0.324486	0.033034
	N248	N	0.665832	0.971534	0.411459
	N249	N	0.668145	0.041219	0.586785
	N250	N	0.303363	0.973043	0.588327
	N251	N	0.304464	0.041032	0.411239
	N252	N	0.899262	0.470432	0.178247
	N253	N	0.073149	0.540438	0.178923
	N254	N	0.072296	0.469670	0.817981
	N255	N	0.898599	0.540351	0.817524
	N256	N	0.165737	0.919671	0.464488
	N257	N	0.166477	0.094489	0.533889
	N258	N	0.805735	0.093507	0.462911
	N259	N	0.806822	0.920639	0.533516
	N260	N	0.450926	0.186992	0.909955
	N261	N	0.520447	0.185655	0.084478
	N262	N	0.450844	0.825055	0.085122
	N263	N	0.521331	0.824542	0.909924
	N264	N	0.450802	0.918554	0.178324
	N265	N	0.519766	0.093894	0.179400
	N266	N	0.450024	0.091656	0.819039
	N267	N	0.522211	0.919903	0.818609
	N268	N	0.898905	0.185939	0.462393
	N269	N	0.072604	0.186601	0.533849
	N270	N	0.073173	0.826279	0.464406
	N271	N	0.897814	0.825693	0.532486
	N272	N	0.167344	0.470493	0.909833
	N273	N	0.165840	0.540253	0.085128
	N274	N	0.804607	0.470945	0.086191
	N275	N	0.805101	0.540414	0.910868
	O276	O	1.203681	0.787865	-0.038615
	H277	H	1.226296	0.769623	-0.036084
	H278	H	1.193470	0.791565	-0.027467
	O279	O	-0.097189	0.025509	1.029982
	H280	H	-0.091426	0.019001	1.014942
	H281	H	-0.078036	0.020052	1.034263
	O282	O	1.114736	1.104004	0.820125
	H283	H	1.118700	1.098481	0.826247
	H284	H	1.106946	1.102509	0.812457
	O285	O	0.632699	0.396848	0.646779
	H286	H	0.640498	0.393538	0.653274
	H287	H	0.624401	0.416509	0.638925
	O288	O	1.531020	-0.529181	1.507139
	H289	H	1.529535	-0.519029	1.514141
	H290	H	1.536491	-0.540833	1.518217
	O291	O	0.606507	0.711415	0.395082
	H292	H	0.620195	0.713239	0.381014
	H293	H	0.587839	0.694369	0.407061
	O294	O	-0.042275	-0.215977	0.214463
	H295	H	-0.075559	-0.201137	0.202521
	H296	H	-0.044823	-0.242931	0.251222
	O297	O	1.023262	-0.025118	-0.077605
	H298	H	1.032090	-0.027695	-0.064447
	H299	H	1.033501	-0.030608	-0.074135
	O300	O	-0.016516	-0.089534	0.015707
	H301	H	-0.025343	-0.082430	0.024256
	H302	H	-0.004670	-0.091690	0.008853
	O303	O	0.050292	-0.213237	0.053585
	H304	H	0.036327	-0.218651	0.070231
	H305	H	0.046767	-0.207560	0.044326
	O306	O	0.774362	-0.208812	0.027723
	H307	H	0.772560	-0.202237	0.044350
	H308	H	0.756402	-0.224024	0.026058
	O309	O	0.709370	0.489761	0.289084
	H310	H	0.698536	0.453395	0.311529
	H311	H	0.744820	0.482405	0.257108
	O312	O	0.270416	0.522790	0.498529
	H313	H	0.269520	0.527798	0.496588
	H314	H	0.270230	0.529476	0.492452
	O315	O	0.848800	0.918994	0.120070
	H316	H	0.838937	0.917684	0.136251
	H317	H	0.844604	0.941811	0.128357
	O318	O	0.851674	1.024469	0.212870
	H319	H	0.843661	1.039927	0.197609
	H320	H	0.845088	1.037704	0.223947
	O321	O	0.133011	1.015676	0.799589
	H322	H	0.147853	1.003389	0.791136
	H323	H	0.121631	0.998499	0.804933
	O324	O	1.124729	0.008467	1.177155
	H325	H	1.133222	0.015268	1.184854
	H326	H	1.117576	0.012580	1.176266
	O327	O	1.685523	0.701176	0.697595
	H328	H	1.697602	0.718496	0.698488
	H329	H	1.691518	0.692761	0.661726
	O330	O	0.446475	0.472578	0.270679
	H331	H	0.421003	0.470548	0.272756
	H332	H	0.441522	0.463934	0.268875
	O333	O	0.269033	0.285911	0.525043
	H334	H	0.266621	0.268657	0.513758
	H335	H	0.256521	0.289869	0.509546
	O336	O	0.450465	0.723824	0.285022
	H337	H	0.464447	0.719430	0.283117
	H338	H	0.467187	0.736432	0.262408
	O339	O	0.477691	0.365146	0.527233
	H340	H	0.483210	0.364510	0.522301
	H341	H	0.500292	0.365522	0.537937
	O342	O	-0.016996	0.802510	-0.135193
	H343	H	-0.016294	0.791947	-0.135733
	H344	H	0.000244	0.794865	-0.152396
	O345	O	0.023560	0.216381	0.172211
	H346	H	0.022292	0.231797	0.166008
	H347	H	0.015533	0.218045	0.176006
	O348	O	0.704349	0.530248	0.717367
	H349	H	0.714091	0.530205	0.718795
	H350	H	0.712989	0.553118	0.731001
	O351	O	0.186953	0.177414	1.060702
	H352	H	0.197328	0.198004	1.057969
	H353	H	0.192217	0.172768	1.067870
	O354	O	1.009036	0.119818	1.023016
	H355	H	0.989755	0.118732	1.035255
	H356	H	1.003498	0.119309	1.003450
	O357	O	0.608326	0.449798	0.528804
	H358	H	0.603192	0.459559	0.535701
	H359	H	0.595766	0.456751	0.528931
	O360	O	0.283654	0.696513	0.307366
	H361	H	0.321352	0.699270	0.314764
	H362	H	0.272435	0.723418	0.287007
	O363	O	0.664914	0.512454	0.450321
	H364	H	0.658439	0.514128	0.468750
	H365	H	0.659122	0.499162	0.449617
	O366	O	1.020758	0.217728	0.968846
	H367	H	1.025519	0.222415	0.966688
	H368	H	1.013053	0.217834	0.962020
	O369	O	-0.041402	0.214086	0.791828
	H370	H	-0.044518	0.206463	0.790917
	H371	H	-0.048358	0.231606	0.780225
	O372	O	0.407420	0.729148	0.524649
	H373	H	0.401365	0.730104	0.523920
	H374	H	0.406141	0.734791	0.529422
	O375	O	1.266308	0.532796	0.276492
	H376	H	1.241080	0.551068	0.252218
	H377	H	1.266258	0.564746	0.279727
	O378	O	-0.217492	0.034076	0.792038
	H379	H	-0.210871	0.016242	0.784541
	H380	H	-0.211677	0.018912	0.784572
	O381	O	0.165382	1.101514	-0.044019
	H382	H	0.162462	1.107308	-0.050848
	H383	H	0.168555	1.096679	-0.046481
	O384	O	0.483449	0.452052	0.575169
	H385	H	0.491480	0.459095	0.585287
	H386	H	0.479873	0.438578	0.573364
	O387	O	0.281896	0.711058	1.585496
	H388	H	0.296840	0.694148	1.554867
	H389	H	0.274954	0.717362	1.569626
	O390	O	-0.227849	1.221085	0.969178
	H391	H	-0.231278	1.225766	0.959664
	H392	H	-0.239005	1.234755	0.949556
	O393	O	0.973068	0.013019	-0.221725
	H394	H	0.976822	0.025118	-0.219589
	H395	H	0.992723	0.003917	-0.216069
	O396	O	0.488640	0.333746	0.676792
	H397	H	0.498171	0.312131	0.701852
	H398	H	0.454119	0.332154	0.677952
	O399	O	0.509831	0.294132	0.317096
	H400	H	0.513199	0.284641	0.314413
	H401	H	0.504934	0.286579	0.311875
	O402	O	1.077230	-0.053042	1.177690
	H403	H	1.085424	-0.036173	1.182315
	H404	H	1.058630	-0.052810	1.181258
	O405	O	0.699697	0.311828	0.478361
	H406	H	0.710533	0.330956	0.489015
	H407	H	0.706932	0.288099	0.487903
	O408	O	0.802089	0.993498	1.082962
	H409	H	0.789547	1.012445	1.080636
	H410	H	0.796201	0.993957	1.074260
	O411	O	1.270357	1.254083	0.330696
	H412	H	1.273565	1.232605	0.327008
	H413	H	1.263111	1.260055	0.351337
	O414	O	-0.155947	-0.166542	-0.187566
	H415	H	-0.137162	-0.179130	-0.168355
	H416	H	-0.142581	-0.150845	-0.189766
	O417	O	0.291663	0.310631	0.691419
	H418	H	0.276712	0.319459	0.674616
	H419	H	0.282425	0.323513	0.670916
	O420	O	1.244000	-0.255316	0.738448
	H421	H	1.257461	-0.274898	0.699331
	H422	H	1.265791	-0.262995	0.754854
	O423	O	0.790559	1.199755	-0.194551
	H424	H	0.809098	1.182634	-0.206517
	H425	H	0.779208	1.176328	-0.193252
	O426	O	0.157010	0.853019	0.190092
	H427	H	0.142864	0.866529	0.180732
	H428	H	0.140028	0.865883	0.181388
	O429	O	0.397409	0.524181	0.447077
	H430	H	0.399760	0.527548	0.452056
	H431	H	0.410344	0.534210	0.448108
	O432	O	0.797100	0.166740	1.165396
	H433	H	0.798219	0.153432	1.143640
	H434	H	0.785826	0.176109	1.171452
	O435	O	0.562499	0.498396	0.301425
	H436	H	0.556458	0.487537	0.302624
	H437	H	0.573244	0.487548	0.293878
	O438	O	0.430029	0.577447	0.696335
	H439	H	0.452803	0.562580	0.691739
	H440	H	0.450359	0.596593	0.706381
	O441	O	0.751549	0.772139	0.237210
	H442	H	0.752293	0.786904	0.247050
	H443	H	0.739824	0.767883	0.223343
	O444	O	0.667062	0.314100	0.308950
	H445	H	0.633407	0.311097	0.310743
	H446	H	0.667787	0.316726	0.336623
	O447	O	0.624348	0.596795	0.441925
	H448	H	0.622157	0.583864	0.441154
	H449	H	0.624590	0.591786	0.428442
	O450	O	1.107783	-0.200995	-0.210658
	H451	H	1.138634	-0.220758	-0.229798
	H452	H	1.116860	-0.210337	-0.193646
	O453	O	0.515311	0.290940	0.652379
	H454	H	0.508505	0.272678	0.673184
	H455	H	0.483791	0.298382	0.655188
	O456	O	0.145556	1.150825	1.159125
	H457	H	0.160847	1.167737	1.158108
	H458	H	0.136597	1.163611	1.158893
	O459	O	0.361416	0.591517	0.509325
	H460	H	0.368485	0.605588	0.502056
	H461	H	0.355902	0.580646	0.518180
	O462	O	0.275744	0.395384	0.405512
	H463	H	0.276467	0.406215	0.417269
	H464	H	0.289367	0.395608	0.401906
	O465	O	0.274945	0.476613	0.706288
	H466	H	0.279941	0.491240	0.706127
	H467	H	0.272978	0.478252	0.727499
	O468	O	-0.229080	0.957876	-0.045610
	H469	H	-0.219329	0.950759	-0.050832
	H470	H	-0.225429	0.955448	-0.049857
	O471	O	0.520083	0.725327	0.715845
	H472	H	0.542717	0.738984	0.724803
	H473	H	0.533705	0.737664	0.723036
	O474	O	1.171850	1.001813	-0.034733
	H475	H	1.176998	0.996378	-0.029981
	H476	H	1.158938	0.996505	-0.045599
	O477	O	0.650389	0.701077	0.510917
	H478	H	0.650333	0.698178	0.493459
	H479	H	0.651816	0.699418	0.487633
