data_Molecule from HDF5

_cell_length_a		16.226835
_cell_length_b		16.268009
_cell_length_c		16.339501
_cell_angle_alpha	89.644775
_cell_angle_beta	90.112614
_cell_angle_gamma	90.294608
_symmetry_space_group_name_H-M	'P 1'
_symmetry_Int_Tables_number		1

loop_
	_symmetry_equiv_pos_as_xyz
	x,y,z

loop_
	_atom_site_label
	_atom_site_type_symbol
	_atom_site_fract_x
	_atom_site_fract_y
	_atom_site_fract_z
	H0	H	0.395570	0.847549	0.697296
	H1	H	0.600047	0.173293	0.693071
	H2	H	0.599437	0.848996	0.260429
	H3	H	0.394034	0.172465	0.259549
	H4	H	0.711831	0.413174	0.815767
	H5	H	0.717141	0.614870	0.137939
	H6	H	0.281872	0.610549	0.814648
	H7	H	0.280967	0.410149	0.140709
	H8	H	0.834976	0.724102	0.376211
	H9	H	0.160501	0.726650	0.579607
	H10	H	0.834485	0.291016	0.578714
	H11	H	0.161888	0.295710	0.381428
	H12	H	0.833962	0.405345	0.695221
	H13	H	0.160156	0.610350	0.696072
	H14	H	0.836115	0.612484	0.259413
	H15	H	0.160573	0.409141	0.262160
	H16	H	0.395885	0.729962	0.816088
	H17	H	0.600038	0.727657	0.139764
	H18	H	0.598376	0.295753	0.815966
	H19	H	0.393966	0.291492	0.139256
	H20	H	0.710874	0.846191	0.379692
	H21	H	0.715437	0.171733	0.577025
	H22	H	0.281477	0.846048	0.579811
	H23	H	0.282562	0.172791	0.378519
	H24	H	0.896491	0.347590	0.194201
	H25	H	0.099287	0.673414	0.193412
	H26	H	0.095984	0.346496	0.765133
	H27	H	0.895290	0.670553	0.758022
	H28	H	0.213329	0.911588	0.315587
	H29	H	0.212770	0.106071	0.641331
	H30	H	0.782011	0.109267	0.315937
	H31	H	0.782130	0.906315	0.640416
	H32	H	0.333518	0.225236	0.878334
	H33	H	0.660630	0.228381	0.078488
	H34	H	0.334912	0.793476	0.078298
	H35	H	0.661888	0.799641	0.881610
	H36	H	0.334061	0.909480	0.193767
	H37	H	0.660186	0.112556	0.195070
	H38	H	0.334073	0.110649	0.760630
	H39	H	0.661136	0.913719	0.765181
	H40	H	0.896450	0.226780	0.316717
	H41	H	0.096508	0.222887	0.641770
	H42	H	0.097857	0.794475	0.314847
	H43	H	0.896856	0.790106	0.639320
	H44	H	0.211100	0.347184	0.880428
	H45	H	0.213132	0.674594	0.075999
	H46	H	0.780422	0.348212	0.077613
	H47	H	0.785452	0.674046	0.877801
	H48	H	0.396650	0.126486	0.562113
	H49	H	0.591532	0.890615	0.578994
	H50	H	0.595988	0.126904	0.389284
	H51	H	0.406246	0.894921	0.387093
	H52	H	0.593624	0.422993	0.094286
	H53	H	0.589245	0.615470	0.858989
	H54	H	0.405532	0.601795	0.093348
	H55	H	0.411182	0.417256	0.864285
	H56	H	0.113698	0.605254	0.394778
	H57	H	0.880212	0.594131	0.578981
	H58	H	0.112803	0.419524	0.569832
	H59	H	0.879469	0.416347	0.381516
	H60	H	0.115387	0.418811	0.576845
	H61	H	0.879644	0.608978	0.566894
	H62	H	0.112169	0.592986	0.385498
	H63	H	0.881932	0.414461	0.390732
	H64	H	0.406330	0.602181	0.092021
	H65	H	0.598303	0.601951	0.860650
	H66	H	0.582371	0.423635	0.090685
	H67	H	0.398891	0.414384	0.858998
	H68	H	0.587483	0.127666	0.379383
	H69	H	0.581249	0.895666	0.572430
	H70	H	0.405179	0.128876	0.580447
	H71	H	0.405529	0.894394	0.386047
	H72	H	0.904776	0.628405	0.071725
	H73	H	0.093400	0.393344	0.068935
	H74	H	0.087886	0.628672	0.875774
	H75	H	0.906026	0.392848	0.884518
	H76	H	0.091827	0.917339	0.593497
	H77	H	0.098898	0.112434	0.357172
	H78	H	0.908614	0.093175	0.590931
	H79	H	0.900810	0.918583	0.360675
	H80	H	0.612992	0.102046	0.884946
	H81	H	0.379674	0.105320	0.071603
	H82	H	0.615893	0.913144	0.068799
	H83	H	0.381819	0.912167	0.896389
	H84	H	0.610632	0.925830	0.066608
	H85	H	0.382782	0.101908	0.064298
	H86	H	0.615752	0.107186	0.883346
	H87	H	0.384582	0.931296	0.888182
	H88	H	0.910990	0.105345	0.594355
	H89	H	0.094620	0.092053	0.364367
	H90	H	0.086796	0.918299	0.592148
	H91	H	0.906680	0.917430	0.363671
	H92	H	0.081057	0.623364	0.889496
	H93	H	0.087318	0.393714	0.075969
	H94	H	0.911028	0.626052	0.070989
	H95	H	0.904686	0.394607	0.890087
	H96	H	0.416077	0.121625	0.564634
	H97	H	0.592448	0.893922	0.566923
	H98	H	0.583929	0.122234	0.391500
	H99	H	0.406601	0.894209	0.385986
	H100	H	0.586971	0.413304	0.094674
	H101	H	0.581988	0.601713	0.864761
	H102	H	0.405174	0.602479	0.093795
	H103	H	0.402151	0.427313	0.864231
	H104	H	0.118070	0.606339	0.379689
	H105	H	0.885891	0.592190	0.560972
	H106	H	0.114583	0.412663	0.572334
	H107	H	0.883012	0.422568	0.387217
	H108	H	0.906321	0.625981	0.066047
	H109	H	0.085439	0.396895	0.068363
	H110	H	0.096189	0.627748	0.889296
	H111	H	0.899936	0.392843	0.886609
	H112	H	0.087956	0.914232	0.593340
	H113	H	0.078641	0.107413	0.364995
	H114	H	0.898691	0.099780	0.597085
	H115	H	0.903518	0.913088	0.360823
	H116	H	0.613545	0.106340	0.888669
	H117	H	0.381444	0.096430	0.071571
	H118	H	0.615873	0.922324	0.078193
	H119	H	0.376659	0.915856	0.876066
	C120	C	0.376292	0.018010	0.599527
	C121	C	0.619019	1.000987	0.600379
	C122	C	0.618392	0.018295	0.357252
	C123	C	0.375978	1.001812	0.356182
	C124	C	0.617716	0.390873	-0.014027
	C125	C	0.619701	0.634732	0.968731
	C126	C	0.375862	0.632729	-0.014081
	C127	C	0.374096	0.388902	0.969381
	C128	C	0.006742	0.631025	0.356610
	C129	C	0.989599	0.629567	0.599022
	C130	C	0.005891	0.386677	0.601406
	C131	C	0.989452	0.388455	0.357534
	C132	C	0.876330	0.519416	0.099512
	C133	C	0.118918	0.502438	0.099882
	C134	C	0.117781	0.518586	0.856898
	C135	C	0.875202	0.501235	0.856610
	C136	C	0.118466	0.887947	0.486072
	C137	C	0.120032	0.131617	0.469684
	C138	C	0.876530	0.129426	0.486831
	C139	C	0.874664	0.885837	0.468940
	C140	C	0.506070	0.133608	0.855684
	C141	C	0.488740	0.132412	0.099601
	C142	C	0.506358	0.889556	0.100448
	C143	C	0.489010	0.890847	0.858048
	C144	C	0.376674	0.895752	0.657675
	C145	C	0.619221	0.124139	0.655214
	C146	C	0.617918	0.896656	0.299905
	C147	C	0.375638	0.123839	0.298701
	C148	C	0.674282	0.392590	0.864399
	C149	C	0.677526	0.633611	0.090068
	C150	C	0.319587	0.631274	0.863493
	C151	C	0.318332	0.389856	0.091805
	C152	C	0.884246	0.686705	0.356747
	C153	C	0.111757	0.687482	0.598959
	C154	C	0.883063	0.329576	0.599048
	C155	C	0.112748	0.333284	0.360220
	C156	C	0.883172	0.386102	0.657357
	C157	C	0.111757	0.629439	0.656779
	C158	C	0.884600	0.630847	0.298583
	C159	C	0.112102	0.389758	0.301193
	C160	C	0.376405	0.690435	0.864167
	C161	C	0.618910	0.689734	0.091053
	C162	C	0.617121	0.334587	0.864314
	C163	C	0.374441	0.330705	0.091058
	C164	C	0.673780	0.895452	0.358995
	C165	C	0.676746	0.123382	0.597632
	C166	C	0.319337	0.895090	0.599646
	C167	C	0.320123	0.124126	0.357861
	C168	C	0.876561	0.396590	0.156080
	C169	C	0.118515	0.625018	0.155131
	C170	C	0.116154	0.395347	0.802625
	C171	C	0.876432	0.622647	0.797948
	C172	C	0.174968	0.890565	0.363810
	C173	C	0.175009	0.127570	0.592621
	C174	C	0.820434	0.128687	0.364561
	C175	C	0.819729	0.886765	0.591487
	C176	C	0.382657	0.188339	0.857420
	C177	C	0.611681	0.189659	0.098359
	C178	C	0.383615	0.832215	0.098434
	C179	C	0.612641	0.836528	0.860740
	C180	C	0.383161	0.889723	0.155964
	C181	C	0.611513	0.132126	0.156278
	C182	C	0.383011	0.131264	0.799189
	C183	C	0.612330	0.893260	0.802947
	C184	C	0.877312	0.187165	0.364870
	C185	C	0.117477	0.185448	0.592924
	C186	C	0.117485	0.832633	0.363571
	C187	C	0.876695	0.828643	0.591037
	C188	C	0.173184	0.395694	0.859983
	C189	C	0.175295	0.625530	0.096960
	C190	C	0.818772	0.397076	0.097990
	C191	C	0.821947	0.624542	0.857819
	C192	C	0.399235	0.103376	0.575830
	C193	C	0.595265	0.915689	0.579147
	C194	C	0.595809	0.103506	0.380106
	C195	C	0.399324	0.916427	0.379635
	C196	C	0.594568	0.413426	0.071104
	C197	C	0.596406	0.612660	0.883513
	C198	C	0.398988	0.609080	0.070816
	C199	C	0.397269	0.412678	0.884507
	C200	C	0.092465	0.608175	0.380018
	C201	C	0.904081	0.605389	0.575689
	C202	C	0.091831	0.410235	0.579330
	C203	C	0.903717	0.411062	0.380045
	C204	C	0.900429	0.604908	0.076473
	C205	C	0.095442	0.416735	0.077804
	C206	C	0.095077	0.604381	0.878511
	C207	C	0.897154	0.415267	0.880228
	C208	C	0.095536	0.910158	0.571002
	C209	C	0.097469	0.110287	0.384287
	C210	C	0.899412	0.106148	0.572188
	C211	C	0.897104	0.909461	0.383902
	C212	C	0.591927	0.111763	0.878949
	C213	C	0.403350	0.108376	0.075938
	C214	C	0.591995	0.913525	0.077966
	C215	C	0.403164	0.913234	0.880290
	Zn216	Zn	0.497698	0.010742	0.728542
	Zn217	Zn	0.497483	0.010818	0.228256
	Zn218	Zn	0.746786	0.512290	-0.022565
	Zn219	Zn	0.246143	0.511054	-0.022228
	Zn220	Zn	-0.002388	0.758775	0.477251
	Zn221	Zn	-0.002464	0.259154	0.479328
	Zn222	Zn	-0.003081	0.508127	0.728771
	Zn223	Zn	-0.001970	0.510326	0.229033
	Zn224	Zn	0.497849	0.761928	-0.021809
	Zn225	Zn	0.497072	0.261487	-0.022186
	Zn226	Zn	0.747000	0.008939	0.478415
	Zn227	Zn	0.247794	0.009248	0.477944
	N228	N	0.411345	0.972991	0.657765
	N229	N	0.583956	0.047145	0.657023
	N230	N	0.584081	0.973982	0.298724
	N231	N	0.409468	0.046636	0.297549
	N232	N	0.674691	0.426930	0.941045
	N233	N	0.678144	0.600174	0.013038
	N234	N	0.318897	0.596269	0.940352
	N235	N	0.317858	0.425322	0.015171
	N236	N	0.961084	0.686705	0.392431
	N237	N	0.034773	0.687583	0.563769
	N238	N	0.960525	0.329659	0.565053
	N239	N	0.035582	0.332445	0.394837
	N240	N	0.960484	0.421112	0.658602
	N241	N	0.034605	0.594108	0.656961
	N242	N	0.961950	0.596772	0.298509
	N243	N	0.034432	0.423255	0.299475
	N244	N	0.410608	0.691428	0.941132
	N245	N	0.583459	0.690530	0.014453
	N246	N	0.582522	0.333474	0.941157
	N247	N	0.408458	0.329993	0.014112
	N248	N	0.674139	0.971990	0.394050
	N249	N	0.676609	0.046076	0.564125
	N250	N	0.318821	0.972105	0.564293
	N251	N	0.320142	0.047084	0.393107
	N252	N	0.911333	0.473776	0.157163
	N253	N	0.084262	0.547488	0.157102
	N254	N	0.082280	0.472677	0.800647
	N255	N	0.909121	0.544940	0.797372
	N256	N	0.175766	0.924206	0.440786
	N257	N	0.176691	0.094926	0.515167
	N258	N	0.819931	0.093682	0.441436
	N259	N	0.817980	0.921357	0.514537
	N260	N	0.460197	0.189918	0.891705
	N261	N	0.534154	0.190264	0.063973
	N262	N	0.461228	0.831922	0.064854
	N263	N	0.535044	0.835117	0.894411
	N264	N	0.460561	0.924523	0.157446
	N265	N	0.534067	0.097216	0.156888
	N266	N	0.460927	0.098326	0.797736
	N267	N	0.534431	0.926432	0.801208
	N268	N	0.911627	0.187641	0.441925
	N269	N	0.084074	0.188181	0.515590
	N270	N	0.083223	0.830939	0.440597
	N271	N	0.910115	0.827898	0.513857
	N272	N	0.174254	0.473374	0.893015
	N273	N	0.175552	0.548302	0.063179
	N274	N	0.818284	0.474605	0.063769
	N275	N	0.821145	0.547759	0.893541
	O276	O	-0.399356	-0.547309	0.508986
	H277	H	-0.398901	-0.556821	0.522658
	H278	H	-0.389901	-0.537663	0.506310
	O279	O	0.484875	0.562268	0.550798
	H280	H	0.493414	0.562834	0.562437
	H281	H	0.486092	0.572990	0.551452
	O282	O	0.653438	0.474674	0.323442
	H283	H	0.666831	0.479685	0.317912
	H284	H	0.648979	0.461898	0.329577
	O285	O	0.029535	1.005866	0.970389
	H286	H	0.026955	1.008781	0.974571
	H287	H	0.028369	1.000160	0.964400
	O288	O	0.518315	0.542087	0.426466
	H289	H	0.517530	0.543194	0.433111
	H290	H	0.509868	0.550255	0.417024
	O291	O	0.423281	1.538794	1.606389
	H292	H	0.432041	1.539027	1.600547
	H293	H	0.431747	1.541013	1.606264
	O294	O	1.010314	1.004514	0.953502
	H295	H	1.006682	1.002117	0.947689
	H296	H	1.008431	0.993025	0.950552
	O297	O	1.094983	0.001858	0.968866
	H298	H	1.101327	0.004887	0.966525
	H299	H	1.107162	0.005725	0.964940
	O300	O	0.581896	0.493745	0.464454
	H301	H	0.585517	0.506607	0.458745
	H302	H	0.582747	0.483161	0.474975
	O303	O	1.041319	0.052962	-0.017166
	H304	H	1.044106	0.050883	-0.010979
	H305	H	1.042919	0.048953	-0.021667
	O306	O	0.018096	0.988540	0.978541
	H307	H	0.020214	0.982183	0.980610
	H308	H	0.017858	0.984446	0.981067
	O309	O	0.428330	0.553948	0.517973
	H310	H	0.416603	0.551043	0.526152
	H311	H	0.438648	0.543686	0.513299
	O312	O	1.086686	0.061685	0.979885
	H313	H	1.085378	0.069139	0.976609
	H314	H	1.088033	0.062261	0.981213
	O315	O	0.351556	0.367397	0.567462
	H316	H	0.351616	0.374882	0.560793
	H317	H	0.356257	0.358235	0.557505
	O318	O	0.058525	-0.040370	0.997379
	H319	H	0.064818	-0.035969	1.005324
	H320	H	0.059092	-0.037097	1.004621
	O321	O	1.991439	0.054442	2.003909
	H322	H	1.986537	0.055557	2.005421
	H323	H	1.991242	0.053979	1.999421
	O324	O	0.479959	0.656474	0.428697
	H325	H	0.474825	0.653947	0.435329
	H326	H	0.464883	0.645141	0.436597
	O327	O	0.508247	0.568959	0.488181
	H328	H	0.502176	0.571417	0.486798
	H329	H	0.513154	0.584632	0.493625
	O330	O	0.403775	-0.454153	0.567582
	H331	H	0.386800	-0.461593	0.558360
	H332	H	0.392036	-0.455954	0.555759
	O333	O	0.997750	0.965406	0.014046
	H334	H	0.999861	0.967013	0.005312
	H335	H	0.995050	0.970827	0.018097
	O336	O	0.447880	0.377641	0.518243
	H337	H	0.427638	0.387561	0.521614
	H338	H	0.452652	0.356347	0.519730
	O339	O	0.471200	0.357554	0.520196
	H340	H	0.477582	0.366066	0.499524
	H341	H	0.472829	0.361075	0.519108
	O342	O	0.560049	1.444444	0.437090
	H343	H	0.553376	1.427873	0.431209
	H344	H	0.582168	1.442413	0.438885
	O345	O	0.471190	0.403019	0.419393
	H346	H	0.461909	0.408952	0.422868
	H347	H	0.469745	0.409939	0.430768
	O348	O	0.441646	0.510272	0.476292
	H349	H	0.442713	0.510097	0.473008
	H350	H	0.444239	0.508924	0.488041
	O351	O	-0.453970	0.588445	0.490890
	H352	H	-0.443509	0.594750	0.492883
	H353	H	-0.456711	0.601787	0.491137
	O354	O	0.599069	0.619501	0.476713
	H355	H	0.604362	0.628496	0.472596
	H356	H	0.594093	0.617951	0.466276
	O357	O	0.384659	0.486925	0.310251
	H358	H	0.394825	0.469624	0.305409
	H359	H	0.385389	0.487089	0.300990
	O360	O	0.022155	0.053820	-0.044703
	H361	H	0.018956	0.056647	-0.041795
	H362	H	0.028729	0.057219	-0.040601
	O363	O	0.441674	0.578026	0.313002
	H364	H	0.448433	0.593223	0.317835
	H365	H	0.436328	0.565334	0.303883
	O366	O	0.656788	-0.566987	1.352035
	H367	H	0.650932	-0.557590	1.371529
	H368	H	0.668950	-0.571037	1.348990
	O369	O	0.568802	0.581169	0.606404
	H370	H	0.562263	0.567037	0.611289
	H371	H	0.554951	0.580322	0.607943
