data_Molecule from HDF5

_cell_length_a		16.216103
_cell_length_b		16.247780
_cell_length_c		16.403297
_cell_angle_alpha	89.983781
_cell_angle_beta	89.938068
_cell_angle_gamma	90.048368
_symmetry_space_group_name_H-M	'P 1'
_symmetry_Int_Tables_number		1

loop_
	_symmetry_equiv_pos_as_xyz
	x,y,z

loop_
	_atom_site_label
	_atom_site_type_symbol
	_atom_site_fract_x
	_atom_site_fract_y
	_atom_site_fract_z
	H0	H	0.399646	0.836141	0.715114
	H1	H	0.599100	0.163345	0.715359
	H2	H	0.598467	0.837159	0.284988
	H3	H	0.399431	0.164380	0.285206
	H4	H	0.715343	0.402024	0.837114
	H5	H	0.714920	0.597512	0.162695
	H6	H	0.285758	0.597363	0.837015
	H7	H	0.284798	0.401492	0.162549
	H8	H	0.835644	0.713147	0.402613
	H9	H	0.164572	0.713013	0.596505
	H10	H	0.835230	0.286724	0.596901
	H11	H	0.164509	0.287781	0.403297
	H12	H	0.835924	0.399963	0.714773
	H13	H	0.163518	0.598684	0.714259
	H14	H	0.836292	0.598836	0.285935
	H15	H	0.163491	0.400872	0.284863
	H16	H	0.402311	0.714684	0.837483
	H17	H	0.597790	0.714619	0.163051
	H18	H	0.598792	0.285586	0.836852
	H19	H	0.401896	0.285126	0.162521
	H20	H	0.711921	0.835365	0.403742
	H21	H	0.710781	0.165253	0.594784
	H22	H	0.287747	0.834999	0.595324
	H23	H	0.287137	0.164907	0.405011
	H24	H	0.899330	0.336821	0.216344
	H25	H	0.099385	0.664101	0.214855
	H26	H	0.099154	0.336564	0.784379
	H27	H	0.899411	0.663459	0.782778
	H28	H	0.214461	0.900778	0.336846
	H29	H	0.213764	0.097593	0.662803
	H30	H	0.786258	0.097819	0.336948
	H31	H	0.784651	0.901469	0.662813
	H32	H	0.335245	0.211889	0.903960
	H33	H	0.665259	0.212299	0.095020
	H34	H	0.335236	0.787064	0.096956
	H35	H	0.664813	0.787643	0.903777
	H36	H	0.336430	0.900079	0.215741
	H37	H	0.663999	0.100344	0.214973
	H38	H	0.336264	0.098703	0.785712
	H39	H	0.663441	0.900150	0.784662
	H40	H	0.903044	0.214140	0.337525
	H41	H	0.099275	0.215613	0.662424
	H42	H	0.096292	0.785778	0.337631
	H43	H	0.900898	0.784279	0.662732
	H44	H	0.211651	0.334827	0.904488
	H45	H	0.212565	0.665022	0.096113
	H46	H	0.787534	0.335094	0.095945
	H47	H	0.789097	0.664890	0.903778
	H48	H	0.414799	0.114159	0.593840
	H49	H	0.590916	0.883204	0.594464
	H50	H	0.593870	0.118697	0.404088
	H51	H	0.414258	0.887418	0.413300
	H52	H	0.594401	0.408531	0.114939
	H53	H	0.590270	0.598641	0.884336
	H54	H	0.404827	0.593750	0.116623
	H55	H	0.396969	0.395215	0.878498
	H56	H	0.113872	0.585371	0.411695
	H57	H	0.884107	0.592885	0.589945
	H58	H	0.117863	0.406520	0.595151
	H59	H	0.883032	0.408920	0.406941
	H60	H	0.116811	0.406791	0.591196
	H61	H	0.882210	0.589014	0.595524
	H62	H	0.119954	0.591676	0.396647
	H63	H	0.882573	0.406438	0.405262
	H64	H	0.406455	0.592466	0.115315
	H65	H	0.600244	0.594621	0.882156
	H66	H	0.591699	0.404429	0.115525
	H67	H	0.401252	0.419599	0.886971
	H68	H	0.591010	0.116798	0.405956
	H69	H	0.592285	0.883193	0.592931
	H70	H	0.401744	0.116473	0.587412
	H71	H	0.397215	0.881779	0.408352
	H72	H	0.912024	0.617271	0.100223
	H73	H	0.095315	0.381026	0.098556
	H74	H	0.095897	0.619289	0.899980
	H75	H	0.891042	0.380532	0.913054
	H76	H	0.093138	0.906403	0.615837
	H77	H	0.097028	0.090347	0.384404
	H78	H	0.905136	0.104932	0.619853
	H79	H	0.908804	0.904111	0.385484
	H80	H	0.618494	0.091729	0.901511
	H81	H	0.384015	0.086412	0.097407
	H82	H	0.616026	0.902431	0.086793
	H83	H	0.380898	0.903486	0.905883
	H84	H	0.614142	0.915606	0.092756
	H85	H	0.380122	0.098535	0.097101
	H86	H	0.618072	0.096816	0.908409
	H87	H	0.384442	0.908204	0.910480
	H88	H	0.896451	0.087609	0.616206
	H89	H	0.089590	0.092899	0.386051
	H90	H	0.094387	0.904252	0.616454
	H91	H	0.903463	0.905741	0.383504
	H92	H	0.086635	0.615101	0.905257
	H93	H	0.084682	0.385722	0.093717
	H94	H	0.910801	0.614089	0.088335
	H95	H	0.912168	0.379958	0.888589
	H96	H	0.403421	0.120164	0.601548
	H97	H	0.592939	0.882417	0.594357
	H98	H	0.594430	0.117712	0.407692
	H99	H	0.411286	0.882026	0.395954
	H100	H	0.596598	0.404347	0.116462
	H101	H	0.592194	0.588096	0.886683
	H102	H	0.406775	0.594656	0.115297
	H103	H	0.420407	0.402571	0.887880
	H104	H	0.118911	0.602070	0.410108
	H105	H	0.881204	0.595891	0.595395
	H106	H	0.116193	0.410203	0.593628
	H107	H	0.883265	0.406534	0.408250
	H108	H	0.901404	0.617768	0.094108
	H109	H	0.094853	0.385240	0.086945
	H110	H	0.096086	0.616740	0.910787
	H111	H	0.921229	0.390800	0.917218
	H112	H	0.096130	0.906406	0.616276
	H113	H	0.095232	0.097661	0.383132
	H114	H	0.916315	0.089594	0.612491
	H115	H	0.906896	0.910015	0.385647
	H116	H	0.614682	0.088408	0.908660
	H117	H	0.385215	0.093112	0.086500
	H118	H	0.620751	0.905178	0.100596
	H119	H	0.382678	0.910153	0.903747
	C120	C	0.378374	0.008303	0.621802
	C121	C	0.620726	0.991548	0.621753
	C122	C	0.621368	0.008941	0.378182
	C123	C	0.378641	0.991998	0.378404
	C124	C	0.622377	0.377723	0.008000
	C125	C	0.622371	0.621864	0.992059
	C126	C	0.378207	0.621612	0.008103
	C127	C	0.377749	0.377721	0.991675
	C128	C	0.008752	0.620760	0.379028
	C129	C	0.991330	0.621005	0.621235
	C130	C	0.008186	0.378824	0.621464
	C131	C	0.991323	0.378529	0.378256
	C132	C	0.878754	0.508323	0.122286
	C133	C	0.120910	0.492158	0.121412
	C134	C	0.121537	0.508337	0.877569
	C135	C	0.879080	0.492133	0.878165
	C136	C	0.122194	0.877538	0.508478
	C137	C	0.122114	0.121746	0.492088
	C138	C	0.878129	0.122122	0.508530
	C139	C	0.877748	0.878135	0.492151
	C140	C	0.508470	0.120834	0.878608
	C141	C	0.491778	0.121418	0.121197
	C142	C	0.508326	0.879013	0.121560
	C143	C	0.491430	0.878644	0.878483
	C144	C	0.380399	0.884884	0.676485
	C145	C	0.618983	0.114720	0.676932
	C146	C	0.618915	0.885632	0.323117
	C147	C	0.379941	0.115469	0.323459
	C148	C	0.677310	0.381476	0.885489
	C149	C	0.677364	0.619166	0.114318
	C150	C	0.323549	0.618354	0.885445
	C151	C	0.322856	0.380828	0.114078
	C152	C	0.884742	0.675592	0.381951
	C153	C	0.115558	0.675243	0.617261
	C154	C	0.884422	0.323944	0.618135
	C155	C	0.115302	0.324424	0.381877
	C156	C	0.884866	0.380204	0.676666
	C157	C	0.115160	0.618514	0.675516
	C158	C	0.885021	0.618968	0.323922
	C159	C	0.114676	0.380490	0.323121
	C160	C	0.381524	0.676398	0.885676
	C161	C	0.619150	0.677050	0.114287
	C162	C	0.619253	0.323656	0.885452
	C163	C	0.381186	0.323083	0.114294
	C164	C	0.675375	0.885035	0.382013
	C165	C	0.674519	0.115617	0.617171
	C166	C	0.324834	0.884134	0.617034
	C167	C	0.324424	0.115970	0.383081
	C168	C	0.880456	0.385179	0.177408
	C169	C	0.119313	0.615126	0.176780
	C170	C	0.119085	0.385012	0.822974
	C171	C	0.880441	0.614946	0.822487
	C172	C	0.176657	0.880451	0.385747
	C173	C	0.176497	0.118612	0.614494
	C174	C	0.823923	0.118584	0.385810
	C175	C	0.822574	0.880732	0.614696
	C176	C	0.384775	0.175511	0.881957
	C177	C	0.616108	0.175265	0.116715
	C178	C	0.384334	0.824607	0.117851
	C179	C	0.615504	0.824776	0.882341
	C180	C	0.385036	0.880518	0.177006
	C181	C	0.615461	0.119604	0.176128
	C182	C	0.385130	0.119094	0.823542
	C183	C	0.614897	0.880689	0.823428
	C184	C	0.881547	0.176887	0.386017
	C185	C	0.119666	0.177368	0.613931
	C186	C	0.117835	0.823383	0.385917
	C187	C	0.880179	0.822574	0.614227
	C188	C	0.175221	0.384445	0.882314
	C189	C	0.175648	0.615681	0.117851
	C190	C	0.824598	0.384424	0.117999
	C191	C	0.825144	0.615675	0.882248
	C192	C	0.400422	0.094786	0.600591
	C193	C	0.598584	0.905212	0.600219
	C194	C	0.599640	0.095461	0.399464
	C195	C	0.401136	0.906070	0.399554
	C196	C	0.600552	0.399332	0.093547
	C197	C	0.600841	0.600052	0.906546
	C198	C	0.399839	0.600097	0.093567
	C199	C	0.399654	0.399393	0.906429
	C200	C	0.095307	0.599245	0.400098
	C201	C	0.904810	0.598932	0.600057
	C202	C	0.094634	0.401257	0.599712
	C203	C	0.905127	0.400784	0.400377
	C204	C	0.901325	0.594348	0.100586
	C205	C	0.098132	0.405955	0.099428
	C206	C	0.099373	0.594831	0.898907
	C207	C	0.901699	0.405886	0.899749
	C208	C	0.100860	0.899238	0.594076
	C209	C	0.100426	0.100057	0.406490
	C210	C	0.899673	0.100465	0.594240
	C211	C	0.899871	0.900230	0.406849
	C212	C	0.594956	0.098841	0.899980
	C213	C	0.405355	0.099261	0.100112
	C214	C	0.594519	0.901271	0.099824
	C215	C	0.405116	0.900794	0.900358
	Zn216	Zn	0.499481	-0.000351	0.750242
	Zn217	Zn	0.499797	0.001083	0.249823
	Zn218	Zn	0.751460	0.499817	0.000054
	Zn219	Zn	0.248927	0.500071	-0.000371
	Zn220	Zn	-0.000201	0.748610	0.500085
	Zn221	Zn	0.000162	0.250909	0.500154
	Zn222	Zn	-0.000092	0.500229	0.749447
	Zn223	Zn	-0.000079	0.500310	0.250816
	Zn224	Zn	0.500315	0.750659	-0.000022
	Zn225	Zn	0.500231	0.249191	-0.000058
	Zn226	Zn	0.749199	0.000050	0.500381
	Zn227	Zn	0.250626	-0.000094	0.500181
	N228	N	0.413117	0.963027	0.679279
	N229	N	0.586233	0.036658	0.679854
	N230	N	0.585896	0.963588	0.320932
	N231	N	0.412974	0.037567	0.320496
	N232	N	0.679241	0.414672	0.962627
	N233	N	0.679295	0.585512	0.037441
	N234	N	0.321510	0.584985	0.962563
	N235	N	0.320805	0.414313	0.037119
	N236	N	0.962619	0.677076	0.415250
	N237	N	0.037599	0.676801	0.584097
	N238	N	0.962097	0.322984	0.584468
	N239	N	0.037598	0.323167	0.415479
	N240	N	0.962806	0.413713	0.678720
	N241	N	0.037037	0.585718	0.678172
	N242	N	0.962908	0.585589	0.322046
	N243	N	0.036728	0.413410	0.320791
	N244	N	0.414888	0.678279	0.962597
	N245	N	0.585824	0.678866	0.037228
	N246	N	0.585865	0.321398	0.962551
	N247	N	0.414594	0.320995	0.037256
	N248	N	0.676969	0.962609	0.415516
	N249	N	0.675713	0.037899	0.583693
	N250	N	0.323511	0.961815	0.583751
	N251	N	0.323432	0.038356	0.416492
	N252	N	0.913299	0.463225	0.180115
	N253	N	0.086002	0.537230	0.179007
	N254	N	0.086559	0.463169	0.819908
	N255	N	0.913361	0.537016	0.819875
	N256	N	0.179196	0.913594	0.462942
	N257	N	0.178100	0.084684	0.537705
	N258	N	0.821791	0.085176	0.462842
	N259	N	0.821064	0.914604	0.537931
	N260	N	0.462396	0.176551	0.915598
	N261	N	0.538353	0.176381	0.083434
	N262	N	0.462002	0.823341	0.084136
	N263	N	0.537719	0.823454	0.915827
	N264	N	0.462969	0.913836	0.179325
	N265	N	0.537230	0.086744	0.178832
	N266	N	0.462905	0.085720	0.821370
	N267	N	0.536697	0.913383	0.820884
	N268	N	0.914614	0.179089	0.463193
	N269	N	0.086436	0.179263	0.536878
	N270	N	0.084760	0.821449	0.463062
	N271	N	0.914100	0.821006	0.537260
	N272	N	0.176769	0.462120	0.915525
	N273	N	0.176613	0.538309	0.084018
	N274	N	0.823631	0.461832	0.084204
	N275	N	0.824252	0.538225	0.916122
