data_Molecule from HDF5

_cell_length_a		16.280877
_cell_length_b		16.234666
_cell_length_c		16.349448
_cell_angle_alpha	90.256799
_cell_angle_beta	89.872669
_cell_angle_gamma	90.431612
_symmetry_space_group_name_H-M	'P 1'
_symmetry_Int_Tables_number		1

loop_
	_symmetry_equiv_pos_as_xyz
	x,y,z

loop_
	_atom_site_label
	_atom_site_type_symbol
	_atom_site_fract_x
	_atom_site_fract_y
	_atom_site_fract_z
	H0	H	0.393715	0.830605	0.713075
	H1	H	0.602119	0.154747	0.712098
	H2	H	0.598216	0.830849	0.276644
	H3	H	0.394786	0.154320	0.278580
	H4	H	0.717251	0.390707	0.835566
	H5	H	0.717205	0.597995	0.157781
	H6	H	0.282520	0.594093	0.834043
	H7	H	0.280171	0.392789	0.158093
	H8	H	0.834697	0.705161	0.396817
	H9	H	0.159454	0.712576	0.598238
	H10	H	0.835683	0.276523	0.595756
	H11	H	0.161282	0.276991	0.394676
	H12	H	0.838114	0.388265	0.715390
	H13	H	0.161155	0.596847	0.713772
	H14	H	0.836434	0.593660	0.278232
	H15	H	0.160514	0.391473	0.277213
	H16	H	0.400348	0.707505	0.832728
	H17	H	0.599375	0.713245	0.157689
	H18	H	0.600619	0.274086	0.836029
	H19	H	0.396446	0.277050	0.159104
	H20	H	0.713860	0.829410	0.391496
	H21	H	0.716749	0.153993	0.596794
	H22	H	0.279354	0.829795	0.596572
	H23	H	0.283946	0.155503	0.396079
	H24	H	0.893897	0.331215	0.212796
	H25	H	0.100576	0.655637	0.214406
	H26	H	0.102891	0.331154	0.778395
	H27	H	0.899358	0.654607	0.779254
	H28	H	0.216171	0.888840	0.334592
	H29	H	0.216996	0.096413	0.656671
	H30	H	0.779904	0.093844	0.334153
	H31	H	0.776909	0.888400	0.656276
	H32	H	0.335360	0.207557	0.897585
	H33	H	0.659384	0.212705	0.097994
	H34	H	0.335253	0.776714	0.094091
	H35	H	0.660404	0.777614	0.892445
	H36	H	0.336392	0.887543	0.213989
	H37	H	0.658769	0.099681	0.215373
	H38	H	0.336028	0.093849	0.779116
	H39	H	0.659059	0.890621	0.774952
	H40	H	0.897601	0.208994	0.334385
	H41	H	0.100021	0.210526	0.657382
	H42	H	0.099407	0.772883	0.334656
	H43	H	0.893460	0.773230	0.656729
	H44	H	0.216554	0.332085	0.893820
	H45	H	0.215170	0.656812	0.097629
	H46	H	0.777356	0.332714	0.100018
	H47	H	0.784876	0.656132	0.895577
	H48	H	0.412171	0.107465	0.586979
	H49	H	0.588742	0.876865	0.579587
	H50	H	0.587139	0.107084	0.406210
	H51	H	0.412836	0.876513	0.400038
	H52	H	0.593786	0.399475	0.114103
	H53	H	0.604053	0.587680	0.877475
	H54	H	0.404850	0.586860	0.111776
	H55	H	0.414450	0.394263	0.882172
	H56	H	0.112813	0.585842	0.408993
	H57	H	0.883142	0.578291	0.593054
	H58	H	0.115681	0.398103	0.585118
	H59	H	0.883111	0.403161	0.401586
	H60	H	0.112580	0.405794	0.586020
	H61	H	0.881313	0.585320	0.590271
	H62	H	0.111900	0.578424	0.406029
	H63	H	0.880379	0.396068	0.402682
	H64	H	0.407751	0.583436	0.109867
	H65	H	0.589658	0.573080	0.884773
	H66	H	0.591386	0.412616	0.109689
	H67	H	0.399171	0.398231	0.878194
	H68	H	0.590510	0.107692	0.406710
	H69	H	0.590077	0.874226	0.589594
	H70	H	0.404929	0.108482	0.584239
	H71	H	0.407811	0.879039	0.410803
	H72	H	0.915095	0.605085	0.080287
	H73	H	0.087774	0.378789	0.083874
	H74	H	0.087559	0.608279	0.905064
	H75	H	0.907527	0.379358	0.912225
	H76	H	0.088514	0.907856	0.609048
	H77	H	0.092135	0.080712	0.381173
	H78	H	0.908699	0.077749	0.607942
	H79	H	0.910003	0.898300	0.382180
	H80	H	0.612963	0.083972	0.904695
	H81	H	0.380009	0.087567	0.091813
	H82	H	0.611081	0.905925	0.081680
	H83	H	0.380755	0.902250	0.898422
	H84	H	0.612417	0.908995	0.089444
	H85	H	0.383022	0.084468	0.082566
	H86	H	0.613992	0.084204	0.903177
	H87	H	0.380668	0.894863	0.905210
	H88	H	0.910080	0.087984	0.611087
	H89	H	0.089009	0.085880	0.380735
	H90	H	0.083251	0.900869	0.609615
	H91	H	0.903727	0.896180	0.378965
	H92	H	0.092982	0.609275	0.908289
	H93	H	0.092496	0.376377	0.087160
	H94	H	0.898775	0.612774	0.087230
	H95	H	0.903601	0.374784	0.903502
	H96	H	0.405991	0.109648	0.591862
	H97	H	0.580609	0.877964	0.586712
	H98	H	0.589194	0.108519	0.404286
	H99	H	0.400478	0.873863	0.402131
	H100	H	0.580665	0.402263	0.109851
	H101	H	0.583520	0.593905	0.880367
	H102	H	0.409505	0.587968	0.111371
	H103	H	0.409200	0.410184	0.884994
	H104	H	0.114775	0.583420	0.401550
	H105	H	0.883964	0.579639	0.586136
	H106	H	0.116122	0.402324	0.591829
	H107	H	0.885046	0.399689	0.407576
	H108	H	0.913657	0.610508	0.097962
	H109	H	0.087118	0.377379	0.089262
	H110	H	0.092779	0.611696	0.902140
	H111	H	0.913398	0.378612	0.904589
	H112	H	0.091003	0.901046	0.611231
	H113	H	0.094582	0.086090	0.378868
	H114	H	0.900063	0.082760	0.612454
	H115	H	0.904928	0.903213	0.381257
	H116	H	0.614170	0.084969	0.904344
	H117	H	0.382993	0.078376	0.090465
	H118	H	0.615123	0.900652	0.087899
	H119	H	0.385383	0.904015	0.907422
	C120	C	0.376040	0.001253	0.617349
	C121	C	0.618177	0.983513	0.615960
	C122	C	0.619204	0.001062	0.373664
	C123	C	0.376766	0.983925	0.374482
	C124	C	0.619521	0.373113	0.005193
	C125	C	0.622085	0.616609	0.987422
	C126	C	0.378095	0.615045	0.003792
	C127	C	0.376651	0.371463	0.988479
	C128	C	0.006044	0.612478	0.375426
	C129	C	0.990012	0.613561	0.619237
	C130	C	0.007872	0.371106	0.617561
	C131	C	0.989866	0.370179	0.373485
	C132	C	0.877359	0.502308	0.118123
	C133	C	0.119622	0.484891	0.117454
	C134	C	0.121623	0.502668	0.874671
	C135	C	0.878184	0.484526	0.875928
	C136	C	0.118596	0.871578	0.503858
	C137	C	0.121301	0.114528	0.486865
	C138	C	0.876396	0.113232	0.503999
	C139	C	0.874673	0.869017	0.487273
	C140	C	0.506641	0.114168	0.874476
	C141	C	0.489074	0.115154	0.118624
	C142	C	0.506076	0.873002	0.116226
	C143	C	0.489191	0.870951	0.872779
	C144	C	0.374985	0.879159	0.674532
	C145	C	0.620142	0.105959	0.673384
	C146	C	0.618076	0.879117	0.315403
	C147	C	0.376558	0.105887	0.317571
	C148	C	0.677844	0.371804	0.883942
	C149	C	0.678294	0.617295	0.109385
	C150	C	0.321401	0.613308	0.882138
	C151	C	0.319273	0.372933	0.110017
	C152	C	0.883928	0.668008	0.376609
	C153	C	0.111285	0.672903	0.617983
	C154	C	0.884965	0.314213	0.616155
	C155	C	0.112292	0.314722	0.374510
	C156	C	0.886156	0.369818	0.675744
	C157	C	0.112225	0.615142	0.675491
	C158	C	0.884657	0.612173	0.317646
	C159	C	0.111737	0.371453	0.315865
	C160	C	0.379894	0.670012	0.881437
	C161	C	0.619787	0.674480	0.109314
	C162	C	0.619578	0.314184	0.883890
	C163	C	0.376993	0.315100	0.110322
	C164	C	0.675217	0.878354	0.372987
	C165	C	0.677294	0.105588	0.615918
	C166	C	0.318123	0.878840	0.616535
	C167	C	0.320895	0.106295	0.375831
	C168	C	0.875211	0.380039	0.174977
	C169	C	0.119694	0.607067	0.175251
	C170	C	0.121546	0.380077	0.817285
	C171	C	0.879451	0.606318	0.818232
	C172	C	0.176983	0.870194	0.382887
	C173	C	0.178068	0.114912	0.608550
	C174	C	0.819034	0.113153	0.382587
	C175	C	0.816048	0.869139	0.608184
	C176	C	0.384278	0.170113	0.876622
	C177	C	0.610978	0.173506	0.117684
	C178	C	0.384124	0.814955	0.114640
	C179	C	0.611458	0.815028	0.872615
	C180	C	0.384634	0.870484	0.174239
	C181	C	0.610339	0.117362	0.176309
	C182	C	0.384634	0.113442	0.817646
	C183	C	0.610978	0.871456	0.814426
	C184	C	0.877595	0.170545	0.382747
	C185	C	0.120094	0.172173	0.608792
	C186	C	0.118806	0.812337	0.382896
	C187	C	0.874394	0.812001	0.608406
	C188	C	0.178396	0.380417	0.874532
	C189	C	0.176833	0.607757	0.117237
	C190	C	0.817081	0.380883	0.118736
	C191	C	0.822637	0.607062	0.876434
	C192	C	0.400501	0.086433	0.594407
	C193	C	0.593552	0.898425	0.592338
	C194	C	0.595941	0.085803	0.398416
	C195	C	0.400095	0.898755	0.397605
	C196	C	0.595448	0.397636	0.089497
	C197	C	0.599112	0.592185	0.902965
	C198	C	0.400712	0.592537	0.088939
	C199	C	0.400648	0.394373	0.903684
	C200	C	0.091359	0.589353	0.398849
	C201	C	0.904916	0.588595	0.596453
	C202	C	0.092885	0.395213	0.594260
	C203	C	0.904809	0.393008	0.397100
	C204	C	0.902050	0.587533	0.095106
	C205	C	0.096027	0.399620	0.093528
	C206	C	0.098207	0.587601	0.898311
	C207	C	0.901550	0.399520	0.899703
	C208	C	0.094599	0.896167	0.588208
	C209	C	0.098357	0.091096	0.402302
	C210	C	0.899542	0.089619	0.588422
	C211	C	0.899108	0.892347	0.402686
	C212	C	0.591498	0.091071	0.897351
	C213	C	0.404036	0.090442	0.095045
	C214	C	0.591183	0.898089	0.093006
	C215	C	0.404363	0.893793	0.896547
	Zn216	Zn	0.497902	-0.007249	0.745299
	Zn217	Zn	0.497228	-0.006826	0.246282
	Zn218	Zn	0.749948	0.494037	-0.003133
	Zn219	Zn	0.248724	0.493917	-0.003661
	Zn220	Zn	-0.002652	0.740915	0.495985
	Zn221	Zn	-0.001044	0.242174	0.496040
	Zn222	Zn	-0.000327	0.492075	0.747532
	Zn223	Zn	-0.001826	0.492964	0.245842
	Zn224	Zn	0.499102	0.744385	-0.005228
	Zn225	Zn	0.497936	0.242705	-0.002982
	Zn226	Zn	0.746732	-0.008736	0.495235
	Zn227	Zn	0.249100	-0.007350	0.495371
	N228	N	0.410521	0.956218	0.675140
	N229	N	0.583935	0.029015	0.673578
	N230	N	0.583981	0.956384	0.315741
	N231	N	0.410726	0.028639	0.316736
	N232	N	0.677772	0.407887	0.960280
	N233	N	0.679862	0.582170	0.032904
	N234	N	0.320074	0.579891	0.959353
	N235	N	0.318721	0.407044	0.033143
	N236	N	0.960500	0.668039	0.412055
	N237	N	0.034160	0.672228	0.584027
	N238	N	0.961600	0.314803	0.580744
	N239	N	0.035402	0.313484	0.409327
	N240	N	0.963473	0.404523	0.676797
	N241	N	0.035711	0.578833	0.676351
	N242	N	0.961867	0.578593	0.316823
	N243	N	0.034504	0.404982	0.314869
	N244	N	0.414321	0.671173	0.957949
	N245	N	0.585814	0.674623	0.032316
	N246	N	0.584034	0.314747	0.960246
	N247	N	0.412034	0.314201	0.033617
	N248	N	0.676038	0.955213	0.408583
	N249	N	0.676277	0.028470	0.581095
	N250	N	0.318719	0.955772	0.581742
	N251	N	0.321011	0.029368	0.410521
	N252	N	0.911931	0.456429	0.174717
	N253	N	0.084866	0.529829	0.175397
	N254	N	0.087052	0.457084	0.816913
	N255	N	0.913334	0.529086	0.817728
	N256	N	0.177052	0.906154	0.459170
	N257	N	0.178988	0.080014	0.531870
	N258	N	0.818253	0.078102	0.458974
	N259	N	0.816270	0.904068	0.531741
	N260	N	0.461032	0.170753	0.911339
	N261	N	0.534474	0.172266	0.082656
	N262	N	0.460719	0.816614	0.079268
	N263	N	0.534945	0.814751	0.908276
	N264	N	0.461670	0.906010	0.175372
	N265	N	0.533338	0.081853	0.177060
	N266	N	0.461655	0.079338	0.816261
	N267	N	0.533844	0.905525	0.814240
	N268	N	0.912748	0.170668	0.459078
	N269	N	0.085396	0.172181	0.532237
	N270	N	0.083147	0.813044	0.459226
	N271	N	0.910150	0.811806	0.532169
	N272	N	0.178537	0.457590	0.909541
	N273	N	0.176908	0.530751	0.081742
	N274	N	0.818407	0.457848	0.083988
	N275	N	0.821765	0.530239	0.911452
	O276	O	0.023210	-0.143972	-0.025815
	H277	H	0.031414	-0.130735	-0.024942
	H278	H	0.018148	-0.144956	-0.026322
	O279	O	0.424295	0.616656	0.593840
	H280	H	0.421640	0.608494	0.597022
	H281	H	0.423535	0.629454	0.595795
	O282	O	0.945928	0.042231	0.170525
	H283	H	0.971739	0.016599	0.165067
	H284	H	0.939183	0.060174	0.193336
	O285	O	-0.156805	0.972472	0.042444
	H286	H	-0.160210	0.966481	0.045397
	H287	H	-0.151228	0.980945	0.044642
	O288	O	0.814192	0.962906	0.009553
	H289	H	0.821566	0.950485	0.011824
	H290	H	0.813107	0.948882	0.009555
	O291	O	0.452405	0.553152	0.357237
	H292	H	0.449119	0.555111	0.355234
	H293	H	0.451246	0.547147	0.356120
	O294	O	0.924743	1.012091	0.837240
	H295	H	0.936964	1.012381	0.831282
	H296	H	0.916482	1.009508	0.842468
	O297	O	-0.085783	0.104816	-0.073065
	H298	H	-0.098313	0.101450	-0.087471
	H299	H	-0.087182	0.103814	-0.071370
	O300	O	0.494475	0.559626	0.578802
	H301	H	0.498521	0.551819	0.578569
	H302	H	0.504377	0.549221	0.584802
	O303	O	0.042045	1.026803	1.092544
	H304	H	0.045891	1.036088	1.097971
	H305	H	0.037823	1.032913	1.073557
	O306	O	0.504313	0.560094	0.483786
	H307	H	0.503882	0.564735	0.486468
	H308	H	0.504534	0.565125	0.485759
	O309	O	1.036580	-0.116634	-0.008110
	H310	H	1.031644	-0.133283	-0.000376
	H311	H	1.038831	-0.120327	-0.001130
	O312	O	-0.047824	-0.057812	0.918440
	H313	H	-0.043900	-0.068856	0.923120
	H314	H	-0.044898	-0.068963	0.926211
	O315	O	0.571263	0.315963	0.458754
	H316	H	0.581395	0.315819	0.453455
	H317	H	0.565537	0.309917	0.450274
	O318	O	0.551280	0.538299	0.521471
	H319	H	0.561324	0.549530	0.514522
	H320	H	0.549653	0.525377	0.518167
	O321	O	0.506454	0.535495	0.593229
	H322	H	0.510569	0.527710	0.608825
	H323	H	0.502323	0.546398	0.593582
	O324	O	0.419826	0.439322	0.618199
	H325	H	0.413627	0.441735	0.610523
	H326	H	0.411372	0.430518	0.629899
	O327	O	0.032894	1.085465	1.046794
	H328	H	0.017665	1.094689	1.037833
	H329	H	0.029606	1.094306	1.055118
	O330	O	0.522990	0.537678	0.475756
	H331	H	0.523108	0.548705	0.483658
	H332	H	0.511344	0.543956	0.464677
	O333	O	0.087842	1.007674	0.830446
	H334	H	0.107255	0.993883	0.832247
	H335	H	0.083282	1.006472	0.825431
	O336	O	0.864146	1.103343	0.922102
	H337	H	0.848705	1.098738	0.921734
	H338	H	0.857681	1.104494	0.929959
	O339	O	0.513862	0.332718	0.409041
	H340	H	0.517029	0.323594	0.406558
	H341	H	0.516733	0.337352	0.410791
	O342	O	0.928722	-0.138334	-0.062508
	H343	H	0.924268	-0.125855	-0.068564
	H344	H	0.914497	-0.143675	-0.063214
	O345	O	0.654350	0.498226	0.620758
	H346	H	0.651955	0.505941	0.616003
	H347	H	0.665992	0.503530	0.626080
	O348	O	1.185830	0.968698	1.145521
	H349	H	1.188796	0.976911	1.138690
	H350	H	1.186007	0.967656	1.157238
	O351	O	0.996227	0.993572	0.059617
	H352	H	0.994286	0.989768	0.066823
	H353	H	1.004826	0.991883	0.055803
	O354	O	0.317045	0.429904	0.518854
	H355	H	0.303471	0.431164	0.528179
	H356	H	0.319577	0.426802	0.526045
	O357	O	0.384343	0.404512	0.517955
	H358	H	0.392566	0.420358	0.513842
	H359	H	0.373912	0.397121	0.524890
	O360	O	0.111724	-0.132790	0.014161
	H361	H	0.115156	-0.118474	0.019539
	H362	H	0.102742	-0.138138	0.016441
	O363	O	0.514181	0.437028	0.632424
	H364	H	0.526279	0.429356	0.623039
	H365	H	0.492581	0.443103	0.635112
	O366	O	0.511673	0.600798	0.451017
	H367	H	0.518637	0.599021	0.455070
	H368	H	0.521237	0.609580	0.449054
	O369	O	0.395989	0.588237	0.411036
	H370	H	0.388150	0.580336	0.421455
	H371	H	0.409439	0.589273	0.402756
	O372	O	-0.125209	1.029744	0.938287
	H373	H	-0.116384	1.032255	0.934926
	H374	H	-0.115261	1.031098	0.923974
	O375	O	0.606958	0.414705	0.346457
	H376	H	0.606678	0.414869	0.345341
	H377	H	0.609348	0.414151	0.355776
	O378	O	0.545128	0.460998	0.459630
	H379	H	0.545866	0.458071	0.454938
	H380	H	0.540425	0.463601	0.465961
	O381	O	0.551934	0.443801	0.467029
	H382	H	0.561217	0.457951	0.471905
	H383	H	0.556566	0.430377	0.460745
	O384	O	0.064844	1.181790	-0.000551
	H385	H	0.065753	1.190962	0.004481
	H386	H	0.048901	1.182094	-0.005810
	O387	O	1.118134	0.047962	0.908221
	H388	H	1.106295	0.055137	0.901995
	H389	H	1.128915	0.037060	0.908117
	O390	O	0.028341	0.935008	0.069723
	H391	H	0.017196	0.950186	0.065142
	H392	H	0.026876	0.936068	0.069020
	O393	O	1.170459	1.116916	0.102604
	H394	H	1.161098	1.121976	0.103145
	H395	H	1.167823	1.126041	0.082196
	O396	O	0.599509	0.525249	0.561456
	H397	H	0.600264	0.523405	0.567255
	H398	H	0.606310	0.539373	0.568670
	O399	O	-0.027066	0.979512	1.012617
	H400	H	-0.014778	0.982815	1.013128
	H401	H	-0.041816	0.986977	1.011111
	O402	O	1.022789	0.867806	1.061336
	H403	H	1.036863	0.854773	1.064744
	H404	H	1.032975	0.884351	1.067668
	O405	O	0.510822	0.508743	0.615184
	H406	H	0.505561	0.510397	0.625853
	H407	H	0.507804	0.507056	0.599953
