data_Molecule from HDF5

_cell_length_a		16.518356
_cell_length_b		16.607257
_cell_length_c		16.512311
_cell_angle_alpha	89.937811
_cell_angle_beta	90.196436
_cell_angle_gamma	89.979131
_symmetry_space_group_name_H-M	'P 1'
_symmetry_Int_Tables_number		1

loop_
	_symmetry_equiv_pos_as_xyz
	x,y,z

loop_
	_atom_site_label
	_atom_site_type_symbol
	_atom_site_fract_x
	_atom_site_fract_y
	_atom_site_fract_z
	H0	H	0.391043	0.849461	0.721749
	H1	H	0.603837	0.160248	0.717490
	H2	H	0.606659	0.848129	0.272941
	H3	H	0.392471	0.159472	0.274721
	H4	H	0.719086	0.399958	0.840531
	H5	H	0.725580	0.612954	0.153267
	H6	H	0.278647	0.608022	0.839963
	H7	H	0.278185	0.400111	0.154652
	H8	H	0.843700	0.728684	0.387637
	H9	H	0.156176	0.723765	0.601078
	H10	H	0.840031	0.285318	0.598800
	H11	H	0.154279	0.280778	0.391026
	H12	H	0.840442	0.401456	0.715193
	H13	H	0.158032	0.604776	0.714589
	H14	H	0.844407	0.613026	0.271038
	H15	H	0.155765	0.397470	0.275814
	H16	H	0.393695	0.725332	0.840574
	H17	H	0.610312	0.729065	0.152672
	H18	H	0.603449	0.283018	0.841200
	H19	H	0.393334	0.282431	0.154505
	H20	H	0.723505	0.848717	0.388487
	H21	H	0.721127	0.159148	0.601684
	H22	H	0.274613	0.849389	0.605080
	H23	H	0.276675	0.159589	0.391147
	H24	H	0.892752	0.348496	0.221054
	H25	H	0.105924	0.660796	0.220062
	H26	H	0.099146	0.345575	0.780823
	H27	H	0.895481	0.661602	0.776160
	H28	H	0.219315	0.898413	0.340208
	H29	H	0.217789	0.106322	0.653653
	H30	H	0.774155	0.110758	0.340755
	H31	H	0.779166	0.898702	0.655170
	H32	H	0.341383	0.222817	0.895526
	H33	H	0.655543	0.226543	0.105730
	H34	H	0.344090	0.781050	0.103673
	H35	H	0.655585	0.779924	0.888544
	H36	H	0.342298	0.898899	0.217031
	H37	H	0.654761	0.109548	0.220542
	H38	H	0.341260	0.106439	0.778565
	H39	H	0.656267	0.897612	0.774495
	H40	H	0.889252	0.227632	0.340297
	H41	H	0.101217	0.222981	0.654541
	H42	H	0.105167	0.780775	0.341297
	H43	H	0.892139	0.780288	0.653244
	H44	H	0.216413	0.346621	0.897838
	H45	H	0.219965	0.661461	0.101868
	H46	H	0.778019	0.347878	0.102689
	H47	H	0.777670	0.661328	0.891430
	H48	H	0.413691	0.113308	0.583549
	H49	H	0.593263	0.891073	0.582653
	H50	H	0.588742	0.114158	0.412454
	H51	H	0.411486	0.892985	0.409191
	H52	H	0.592011	0.417094	0.111179
	H53	H	0.584340	0.596010	0.886502
	H54	H	0.413236	0.597391	0.110870
	H55	H	0.404701	0.416950	0.885288
	H56	H	0.108753	0.588165	0.411443
	H57	H	0.886791	0.593807	0.583464
	H58	H	0.111987	0.410713	0.586696
	H59	H	0.888340	0.421325	0.406144
	H60	H	0.112182	0.413272	0.588799
	H61	H	0.886989	0.590500	0.586995
	H62	H	0.112103	0.593221	0.408242
	H63	H	0.885190	0.413152	0.407985
	H64	H	0.406480	0.592595	0.111227
	H65	H	0.591271	0.592445	0.884627
	H66	H	0.585488	0.417742	0.107577
	H67	H	0.413380	0.413529	0.886171
	H68	H	0.586295	0.114397	0.405546
	H69	H	0.586049	0.890509	0.592280
	H70	H	0.402994	0.117316	0.583917
	H71	H	0.406868	0.891602	0.409465
	H72	H	0.913227	0.613836	0.081985
	H73	H	0.086478	0.394832	0.084432
	H74	H	0.090004	0.616059	0.908866
	H75	H	0.909287	0.392625	0.909820
	H76	H	0.091277	0.922436	0.608485
	H77	H	0.086759	0.091462	0.383731
	H78	H	0.907763	0.099787	0.611743
	H79	H	0.913054	0.915498	0.386516
	H80	H	0.613408	0.097423	0.908435
	H81	H	0.387274	0.094427	0.082996
	H82	H	0.610115	0.915400	0.080991
	H83	H	0.385549	0.917167	0.899695
	H84	H	0.609498	0.921162	0.084743
	H85	H	0.386352	0.091399	0.086686
	H86	H	0.611893	0.093380	0.909821
	H87	H	0.386929	0.906968	0.914796
	H88	H	0.905800	0.088154	0.608187
	H89	H	0.084883	0.093923	0.383548
	H90	H	0.078390	0.915534	0.605703
	H91	H	0.910295	0.915392	0.384546
	H92	H	0.093401	0.618470	0.904244
	H93	H	0.091318	0.392243	0.085821
	H94	H	0.912795	0.614417	0.084190
	H95	H	0.906497	0.391805	0.906261
	H96	H	0.409759	0.117736	0.593158
	H97	H	0.582546	0.895062	0.581750
	H98	H	0.581950	0.111886	0.411037
	H99	H	0.409464	0.890999	0.405177
	H100	H	0.587876	0.411181	0.111012
	H101	H	0.585085	0.588800	0.888570
	H102	H	0.413400	0.589983	0.107005
	H103	H	0.406334	0.408177	0.882560
	H104	H	0.109381	0.593493	0.414471
	H105	H	0.885138	0.595281	0.587948
	H106	H	0.112858	0.409629	0.590001
	H107	H	0.889437	0.417734	0.414002
	H108	H	0.915389	0.613854	0.083011
	H109	H	0.087051	0.392169	0.089487
	H110	H	0.087164	0.617363	0.903757
	H111	H	0.910831	0.392192	0.905385
	H112	H	0.089069	0.908355	0.612708
	H113	H	0.088393	0.094500	0.382662
	H114	H	0.916426	0.093125	0.606482
	H115	H	0.910897	0.917963	0.386450
	H116	H	0.613512	0.093861	0.905479
	H117	H	0.386172	0.095664	0.086859
	H118	H	0.612584	0.915382	0.087652
	H119	H	0.393173	0.923446	0.914741
	C120	C	0.376448	0.013047	0.619198
	C121	C	0.619927	0.995414	0.617815
	C122	C	0.619848	0.011650	0.375653
	C123	C	0.377266	0.995114	0.375669
	C124	C	0.620053	0.383295	0.006121
	C125	C	0.621256	0.625806	0.989373
	C126	C	0.378333	0.625416	0.005958
	C127	C	0.377223	0.382450	0.988976
	C128	C	0.007520	0.625671	0.376381
	C129	C	0.990568	0.624652	0.618101
	C130	C	0.007355	0.381464	0.618693
	C131	C	0.990603	0.383594	0.376322
	C132	C	0.879426	0.512092	0.117610
	C133	C	0.120973	0.496330	0.119298
	C134	C	0.120255	0.512540	0.875862
	C135	C	0.877323	0.495962	0.875177
	C136	C	0.119613	0.882401	0.505883
	C137	C	0.118637	0.124720	0.487714
	C138	C	0.876399	0.125910	0.505315
	C139	C	0.878060	0.882582	0.488795
	C140	C	0.508021	0.125834	0.876482
	C141	C	0.490040	0.126092	0.119222
	C142	C	0.507821	0.883626	0.117747
	C143	C	0.491388	0.882551	0.875844
	C144	C	0.373164	0.895966	0.680780
	C145	C	0.622393	0.113109	0.677664
	C146	C	0.624109	0.895014	0.313732
	C147	C	0.374599	0.112584	0.315192
	C148	C	0.679355	0.381376	0.887856
	C149	C	0.684299	0.630162	0.106242
	C150	C	0.318644	0.626723	0.887199
	C151	C	0.317932	0.381202	0.107638
	C152	C	0.890475	0.688018	0.370613
	C153	C	0.109118	0.683817	0.619937
	C154	C	0.887781	0.324256	0.618293
	C155	C	0.107592	0.321505	0.373061
	C156	C	0.887870	0.382114	0.676070
	C157	C	0.109747	0.625028	0.676666
	C158	C	0.890801	0.630517	0.312720
	C159	C	0.108349	0.379803	0.315949
	C160	C	0.375917	0.685077	0.887550
	C161	C	0.626592	0.687851	0.106352
	C162	C	0.621906	0.323227	0.888298
	C163	C	0.375281	0.322955	0.107561
	C164	C	0.682499	0.895343	0.371260
	C165	C	0.680713	0.112561	0.620149
	C166	C	0.315238	0.895967	0.622729
	C167	C	0.316984	0.112663	0.373182
	C168	C	0.875556	0.395039	0.179690
	C169	C	0.123368	0.613985	0.179232
	C170	C	0.119318	0.393210	0.819392
	C171	C	0.876396	0.614452	0.815967
	C172	C	0.179685	0.879796	0.387703
	C173	C	0.177941	0.125600	0.606769
	C174	C	0.814619	0.128833	0.387437
	C175	C	0.818390	0.880237	0.607563
	C176	C	0.388917	0.183711	0.875902
	C177	C	0.608137	0.186403	0.123412
	C178	C	0.390824	0.821687	0.121586
	C179	C	0.608682	0.820777	0.871518
	C180	C	0.389694	0.880476	0.177767
	C181	C	0.607768	0.128187	0.180551
	C182	C	0.388722	0.125847	0.818092
	C183	C	0.609083	0.879529	0.814717
	C184	C	0.872048	0.186721	0.387166
	C185	C	0.120075	0.183423	0.606687
	C186	C	0.122972	0.821102	0.388270
	C187	C	0.874508	0.821161	0.606648
	C188	C	0.177438	0.393723	0.877569
	C189	C	0.180504	0.614379	0.120692
	C190	C	0.818133	0.394789	0.121070
	C191	C	0.817896	0.614212	0.873370
	C192	C	0.401717	0.094598	0.594116
	C193	C	0.594517	0.913503	0.592797
	C194	C	0.593190	0.092574	0.402044
	C195	C	0.402283	0.913190	0.400596
	C196	C	0.595449	0.408474	0.088587
	C197	C	0.594395	0.599934	0.907755
	C198	C	0.403778	0.600648	0.088263
	C199	C	0.401304	0.406210	0.906357
	C200	C	0.088803	0.599193	0.403663
	C201	C	0.907716	0.600222	0.593223
	C202	C	0.090663	0.404528	0.595376
	C203	C	0.908902	0.409928	0.402187
	C204	C	0.905977	0.592852	0.090788
	C205	C	0.095711	0.414393	0.093897
	C206	C	0.096811	0.595786	0.898772
	C207	C	0.901913	0.413720	0.899923
	C208	C	0.093641	0.908094	0.587686
	C209	C	0.094023	0.100247	0.404881
	C210	C	0.902475	0.100835	0.587453
	C211	C	0.903862	0.908607	0.407140
	C212	C	0.591324	0.101881	0.900758
	C213	C	0.408039	0.101133	0.093079
	C214	C	0.589538	0.909800	0.091982
	C215	C	0.409656	0.908503	0.902180
	Zn216	Zn	0.499143	0.004217	0.747692
	Zn217	Zn	0.498515	0.003441	0.246643
	Zn218	Zn	0.749326	0.504521	-0.002590
	Zn219	Zn	0.249381	0.504727	-0.002090
	Zn220	Zn	-0.001118	0.753898	0.497557
	Zn221	Zn	-0.002609	0.253450	0.495871
	Zn222	Zn	-0.001126	0.503924	0.746323
	Zn223	Zn	-0.000287	0.504475	0.247828
	Zn224	Zn	0.499850	0.754578	-0.002379
	Zn225	Zn	0.498838	0.254287	-0.001379
	Zn226	Zn	0.749863	0.003190	0.497002
	Zn227	Zn	0.247863	0.003567	0.496839
	N228	N	0.410694	0.969701	0.678823
	N229	N	0.585454	0.039098	0.676592
	N230	N	0.585968	0.968361	0.316271
	N231	N	0.411366	0.038387	0.316457
	N232	N	0.678352	0.418144	0.962328
	N233	N	0.680997	0.592297	0.032525
	N234	N	0.319672	0.590515	0.961950
	N235	N	0.319162	0.417900	0.033118
	N236	N	0.964053	0.685272	0.409479
	N237	N	0.033706	0.684057	0.584655
	N238	N	0.963285	0.323409	0.583573
	N239	N	0.033296	0.323796	0.409900
	N240	N	0.963232	0.416829	0.676644
	N241	N	0.034861	0.589191	0.675689
	N242	N	0.964631	0.592633	0.315985
	N243	N	0.034458	0.417826	0.317757
	N244	N	0.412406	0.684398	0.962391
	N245	N	0.587912	0.685372	0.032621
	N246	N	0.585756	0.324241	0.962981
	N247	N	0.411523	0.323645	0.032938
	N248	N	0.680029	0.968781	0.409322
	N249	N	0.679507	0.038246	0.583911
	N250	N	0.317374	0.969557	0.584881
	N251	N	0.318365	0.038633	0.410044
	N252	N	0.912629	0.469187	0.178115
	N253	N	0.087235	0.539624	0.178425
	N254	N	0.084792	0.468476	0.818122
	N255	N	0.912402	0.539915	0.816658
	N256	N	0.177742	0.917204	0.461731
	N257	N	0.177539	0.090223	0.531518
	N258	N	0.817199	0.091641	0.461911
	N259	N	0.820082	0.917438	0.533223
	N260	N	0.464370	0.183987	0.911267
	N261	N	0.533845	0.185137	0.085978
	N262	N	0.465170	0.823674	0.084949
	N263	N	0.534435	0.822567	0.908895
	N264	N	0.463626	0.918201	0.175674
	N265	N	0.533487	0.091176	0.178066
	N266	N	0.463985	0.090749	0.818113
	N267	N	0.535076	0.917236	0.817224
	N268	N	0.909704	0.185069	0.461445
	N269	N	0.084066	0.183227	0.531615
	N270	N	0.086394	0.822603	0.462890
	N271	N	0.910783	0.822308	0.531850
	N272	N	0.178413	0.469137	0.911470
	N273	N	0.179412	0.539945	0.084276
	N274	N	0.820173	0.468568	0.083527
	N275	N	0.818131	0.539426	0.909247
	O276	O	0.966514	0.836814	0.185346
	H277	H	0.967476	0.821002	0.199446
	H278	H	0.977543	0.848061	0.182831
	O279	O	-0.041523	0.224881	0.778038
	H280	H	-0.052394	0.230326	0.762306
	H281	H	-0.047648	0.230072	0.762574
	O282	O	0.719018	0.532138	0.715434
	H283	H	0.728660	0.556595	0.721625
	H284	H	0.726052	0.543414	0.727423
	O285	O	0.284208	0.285373	0.532525
	H286	H	0.278824	0.284361	0.529381
	H287	H	0.278899	0.269499	0.519322
	O288	O	1.054196	-0.210271	1.082657
	H289	H	1.062606	-0.209662	1.100608
	H290	H	1.051436	-0.211951	1.098466
	O291	O	0.715917	0.724216	0.518913
	H292	H	0.733632	0.717606	0.503993
	H293	H	0.726478	0.733977	0.522097
	O294	O	0.090107	0.032555	-0.163479
	H295	H	0.094575	0.017092	-0.167332
	H296	H	0.088645	0.029067	-0.161123
	O297	O	1.019030	0.199244	0.017583
	H298	H	1.005222	0.187516	0.023531
	H299	H	1.001587	0.188652	0.011171
	O300	O	0.210439	0.129651	0.079950
	H301	H	0.199210	0.131862	0.070534
	H302	H	0.212003	0.114611	0.056704
	O303	O	-0.119803	-0.118369	0.012159
	H304	H	-0.131628	-0.111849	-0.001994
	H305	H	-0.106999	-0.125597	0.024925
	O306	O	0.959006	0.189255	0.072321
	H307	H	0.965066	0.181558	0.071771
	H308	H	0.955711	0.181861	0.060668
	O309	O	0.546105	0.517674	0.503795
	H310	H	0.539729	0.516733	0.507860
	H311	H	0.552281	0.517607	0.506802
	O312	O	0.440560	0.292788	0.439161
	H313	H	0.423397	0.283115	0.423159
	H314	H	0.439707	0.308822	0.451028
	O315	O	0.548704	0.723480	0.457548
	H316	H	0.538501	0.705595	0.448035
	H317	H	0.571537	0.729563	0.456597
	O318	O	0.933550	0.986714	-0.130974
	H319	H	0.919832	0.980853	-0.139184
	H320	H	0.929128	0.996351	-0.123574
	O321	O	0.158190	0.788762	0.993680
	H322	H	0.144788	0.780139	0.972870
	H323	H	0.180029	0.765812	0.994414
	O324	O	0.788212	0.055105	1.047991
	H325	H	0.788101	0.048725	1.061557
	H326	H	0.787870	0.034056	1.039795
	O327	O	0.782913	0.750410	0.782619
	H328	H	0.757844	0.747688	0.785836
	H329	H	0.787991	0.747959	0.769877
	O330	O	0.338951	0.677421	0.331102
	H331	H	0.365922	0.669872	0.329284
	H332	H	0.349758	0.689940	0.349235
	O333	O	0.293063	0.539560	0.532483
	H334	H	0.284143	0.523012	0.545835
	H335	H	0.295383	0.522434	0.535900
	O336	O	0.592103	0.303765	0.361641
	H337	H	0.597706	0.308863	0.367216
	H338	H	0.581158	0.287924	0.355970
	O339	O	0.288580	0.720043	0.471525
	H340	H	0.267902	0.723395	0.472035
	H341	H	0.286928	0.712108	0.473746
	O342	O	-0.103165	0.920326	0.176773
	H343	H	-0.109423	0.919694	0.167673
	H344	H	-0.100189	0.942016	0.178300
	O345	O	0.567175	0.453583	0.716595
	H346	H	0.570789	0.444209	0.721811
	H347	H	0.563283	0.455886	0.723254
	O348	O	0.276200	0.465260	0.720150
	H349	H	0.260545	0.468724	0.741162
	H350	H	0.276911	0.439035	0.728227
	O351	O	0.194359	0.194315	1.161884
	H352	H	0.176013	0.195346	1.151943
	H353	H	0.185435	0.179568	1.140591
	O354	O	0.933263	-0.062178	0.925460
	H355	H	0.923794	-0.068496	0.937297
	H356	H	0.929720	-0.067718	0.927984
	O357	O	0.471037	0.716689	0.281782
	H358	H	0.478534	0.730577	0.264378
	H359	H	0.493637	0.703885	0.271648
	O360	O	0.391015	0.376824	0.333588
	H361	H	0.377522	0.357806	0.320137
	H362	H	0.416355	0.380058	0.337411
	O363	O	0.691691	0.318492	0.296477
	H364	H	0.657900	0.317536	0.300034
	H365	H	0.702845	0.298523	0.326538
	O366	O	0.792119	0.209636	0.795404
	H367	H	0.791245	0.222083	0.817276
	H368	H	0.780141	0.222908	0.775802
	O369	O	-0.004093	0.184629	1.196610
	H370	H	-0.009838	0.173312	1.179453
	H371	H	-0.007549	0.191652	1.205309
	O372	O	-0.049789	0.990187	0.966791
	H373	H	-0.062276	0.990059	0.964674
	H374	H	-0.058549	0.996623	0.979817
	O375	O	0.785942	-0.022243	0.209011
	H376	H	0.769160	-0.028656	0.223122
	H377	H	0.784628	-0.029800	0.202048
	O378	O	0.531609	0.344928	0.589719
	H379	H	0.510130	0.350975	0.594145
	H380	H	0.519502	0.340726	0.596567
	O381	O	0.088847	0.926098	0.163510
	H382	H	0.092669	0.938600	0.172498
	H383	H	0.090581	0.912373	0.167485
	O384	O	0.466577	0.279228	0.719528
	H385	H	0.421959	0.290572	0.712228
	H386	H	0.459603	0.247939	0.753125
	O387	O	0.207146	0.982845	0.788662
	H388	H	0.201392	0.952520	0.790112
	H389	H	0.227018	0.977606	0.781812
	O390	O	0.186172	1.192218	0.810470
	H391	H	0.174389	1.170051	0.828729
	H392	H	0.164125	1.174665	0.830498
	O393	O	1.164871	0.141226	-0.011052
	H394	H	1.153326	0.141616	-0.033731
	H395	H	1.164911	0.126045	0.010717
	O396	O	0.332314	0.442743	0.382506
	H397	H	0.336425	0.442023	0.369992
	H398	H	0.326879	0.442639	0.362963
	O399	O	0.461157	0.592290	0.675262
	H400	H	0.468565	0.594260	0.673917
	H401	H	0.478351	0.584249	0.687081
	O402	O	0.783537	0.039422	0.780240
	H403	H	0.776422	0.059554	0.772988
	H404	H	0.765036	0.048510	0.766562
	O405	O	0.722673	0.531830	0.370476
	H406	H	0.722524	0.513857	0.355070
	H407	H	0.728509	0.506204	0.382159
	O408	O	1.009145	0.957683	0.863351
	H409	H	0.999245	0.974636	0.867268
	H410	H	1.002879	0.942199	0.862195
	O411	O	0.831020	0.864094	0.067941
	H412	H	0.862439	0.860005	0.075509
	H413	H	0.816180	0.857621	0.060572
	O414	O	0.197058	-0.016644	0.199383
	H415	H	0.229263	-0.020292	0.219531
	H416	H	0.190194	0.003235	0.183961
	O417	O	0.714035	0.459859	0.538200
	H418	H	0.696107	0.465555	0.545310
	H419	H	0.722556	0.455169	0.554862
	O420	O	1.109083	0.053117	0.998941
	H421	H	1.109795	0.049754	0.991818
	H422	H	1.129314	0.048846	1.005305
	O423	O	0.911286	0.791157	-0.091112
	H424	H	0.889571	0.778186	-0.082520
	H425	H	0.914415	0.788896	-0.081675
	O426	O	0.598029	0.538227	0.322438
	H427	H	0.601272	0.523757	0.315138
	H428	H	0.603863	0.527562	0.323519
	O429	O	0.477377	0.472074	0.349277
	H430	H	0.473947	0.474643	0.348004
	H431	H	0.471944	0.478148	0.350952
	O432	O	0.787668	0.213961	0.968357
	H433	H	0.775229	0.226647	0.974287
	H434	H	0.793162	0.213202	0.970760
	O435	O	0.449276	0.619146	0.515202
	H436	H	0.447818	0.613948	0.513830
	H437	H	0.457452	0.622338	0.516852
	O438	O	0.283559	0.534445	0.286950
	H439	H	0.265419	0.535032	0.263851
	H440	H	0.286132	0.563361	0.296639
	O441	O	0.706875	0.561264	0.285871
	H442	H	0.706366	0.542233	0.290621
	H443	H	0.717305	0.542781	0.290620
	O444	O	0.636711	0.296596	0.427201
	H445	H	0.634985	0.301890	0.436203
	H446	H	0.623104	0.288055	0.431443
	O447	O	0.687862	0.315895	0.686409
	H448	H	0.665960	0.339908	0.679299
	H449	H	0.673738	0.318287	0.665072
	O450	O	0.916850	0.068102	0.147878
	H451	H	0.924308	0.080746	0.143912
	H452	H	0.911965	0.074456	0.134633
	O453	O	0.376201	0.474946	0.538836
	H454	H	0.377588	0.478721	0.538991
	H455	H	0.375203	0.474217	0.541366
	O456	O	0.178090	0.800896	0.792369
	H457	H	0.172434	0.774661	0.766141
	H458	H	0.153095	0.805911	0.790300
	O459	O	0.629280	0.694065	0.681623
	H460	H	0.593258	0.695319	0.673356
	H461	H	0.635090	0.717291	0.659823
	O462	O	0.518841	0.454564	0.416022
	H463	H	0.511066	0.445281	0.407130
	H464	H	0.511396	0.448676	0.416971
	O465	O	0.344845	0.663200	0.692679
	H466	H	0.357064	0.661547	0.673471
	H467	H	0.359115	0.644702	0.679884
	O468	O	0.146842	0.892675	0.024068
	H469	H	0.143356	0.885466	0.029369
	H470	H	0.139179	0.882522	0.026888
	O471	O	0.477940	0.707215	0.630007
	H472	H	0.485643	0.714635	0.627262
	H473	H	0.450255	0.694633	0.621143
	O474	O	1.117141	0.810405	0.038595
	H475	H	1.129302	0.796412	0.035231
	H476	H	1.112558	0.810042	0.020913
	O477	O	0.287578	0.292231	0.705854
	H478	H	0.254406	0.260354	0.735722
	H479	H	0.281347	0.299680	0.670394
