data_Molecule from HDF5

_cell_length_a		16.246866
_cell_length_b		16.265822
_cell_length_c		16.325074
_cell_angle_alpha	90.017003
_cell_angle_beta	90.008011
_cell_angle_gamma	90.019829
_symmetry_space_group_name_H-M	'P 1'
_symmetry_Int_Tables_number		1

loop_
	_symmetry_equiv_pos_as_xyz
	x,y,z

loop_
	_atom_site_label
	_atom_site_type_symbol
	_atom_site_fract_x
	_atom_site_fract_y
	_atom_site_fract_z
	H0	H	0.391418	0.830050	0.710984
	H1	H	0.589033	0.158064	0.709757
	H2	H	0.588592	0.830167	0.280897
	H3	H	0.391901	0.157063	0.280538
	H4	H	0.705979	0.395756	0.832434
	H5	H	0.704686	0.590359	0.159864
	H6	H	0.276916	0.591877	0.832698
	H7	H	0.276999	0.395889	0.159440
	H8	H	0.826521	0.707610	0.398418
	H9	H	0.155721	0.707722	0.593100
	H10	H	0.826063	0.280717	0.593290
	H11	H	0.154792	0.280551	0.398996
	H12	H	0.827015	0.395888	0.710093
	H13	H	0.154683	0.594302	0.711332
	H14	H	0.826737	0.592217	0.281423
	H15	H	0.155152	0.395426	0.282199
	H16	H	0.393827	0.707391	0.832758
	H17	H	0.588252	0.707236	0.160337
	H18	H	0.589641	0.279509	0.832456
	H19	H	0.394261	0.279910	0.159607
	H20	H	0.703649	0.829560	0.398227
	H21	H	0.703904	0.158603	0.592225
	H22	H	0.276776	0.829565	0.592759
	H23	H	0.278388	0.158483	0.399143
	H24	H	0.892526	0.330308	0.209977
	H25	H	0.089067	0.657445	0.210153
	H26	H	0.089922	0.330808	0.781651
	H27	H	0.891462	0.657927	0.781157
	H28	H	0.204584	0.896148	0.331890
	H29	H	0.205586	0.092164	0.658940
	H30	H	0.775766	0.091929	0.331527
	H31	H	0.776347	0.895997	0.659672
	H32	H	0.327085	0.207564	0.898685
	H33	H	0.655238	0.207345	0.094067
	H34	H	0.326870	0.780158	0.093767
	H35	H	0.655082	0.780019	0.898101
	H36	H	0.326229	0.896647	0.208014
	H37	H	0.654342	0.093165	0.210667
	H38	H	0.326846	0.092180	0.782321
	H39	H	0.654546	0.894964	0.781739
	H40	H	0.891672	0.209126	0.331707
	H41	H	0.088587	0.207640	0.659486
	H42	H	0.088913	0.779691	0.331985
	H43	H	0.893224	0.780144	0.659688
	H44	H	0.203891	0.330385	0.899621
	H45	H	0.204176	0.658004	0.093171
	H46	H	0.777482	0.329302	0.092933
	H47	H	0.777380	0.658222	0.898680
	H48	H	0.392854	0.110999	0.586410
	H49	H	0.580845	0.876106	0.597592
	H50	H	0.585412	0.116189	0.387287
	H51	H	0.384066	0.874594	0.404415
	H52	H	0.581167	0.402897	0.110392
	H53	H	0.586174	0.596148	0.877248
	H54	H	0.405442	0.588697	0.110982
	H55	H	0.395973	0.400028	0.879251
	H56	H	0.109272	0.593323	0.402597
	H57	H	0.876218	0.583947	0.588593
	H58	H	0.108738	0.402651	0.596204
	H59	H	0.873206	0.394733	0.407175
	H60	H	0.109009	0.394444	0.586806
	H61	H	0.872221	0.587642	0.593692
	H62	H	0.105559	0.583778	0.408065
	H63	H	0.876985	0.408086	0.405840
	H64	H	0.393182	0.595406	0.116008
	H65	H	0.591275	0.580767	0.879571
	H66	H	0.584334	0.395785	0.113750
	H67	H	0.397939	0.402228	0.880982
	H68	H	0.567786	0.104490	0.406819
	H69	H	0.578798	0.880191	0.584037
	H70	H	0.398368	0.111587	0.595668
	H71	H	0.399843	0.874272	0.388839
	H72	H	0.912043	0.604878	0.082673
	H73	H	0.081187	0.377678	0.088491
	H74	H	0.087007	0.614324	0.895954
	H75	H	0.889111	0.374207	0.900493
	H76	H	0.090667	0.900959	0.613501
	H77	H	0.078315	0.095433	0.378919
	H78	H	0.892344	0.086054	0.612463
	H79	H	0.903163	0.899435	0.381271
	H80	H	0.606780	0.084656	0.905314
	H81	H	0.374267	0.086215	0.087496
	H82	H	0.607738	0.907073	0.093314
	H83	H	0.373481	0.905939	0.898488
	H84	H	0.610121	0.894708	0.092105
	H85	H	0.373472	0.086507	0.089955
	H86	H	0.608410	0.084756	0.898512
	H87	H	0.372047	0.895011	0.901818
	H88	H	0.900033	0.083833	0.609474
	H89	H	0.092896	0.089184	0.376277
	H90	H	0.080957	0.906649	0.609162
	H91	H	0.892970	0.896036	0.376804
	H92	H	0.076029	0.608767	0.902725
	H93	H	0.086678	0.376569	0.087479
	H94	H	0.882770	0.612509	0.080572
	H95	H	0.905825	0.378390	0.895867
	H96	H	0.402932	0.108058	0.587171
	H97	H	0.591553	0.875564	0.588350
	H98	H	0.594963	0.110046	0.414139
	H99	H	0.404777	0.880840	0.409404
	H100	H	0.589186	0.402331	0.112503
	H101	H	0.576144	0.585260	0.883337
	H102	H	0.392347	0.580739	0.112309
	H103	H	0.399181	0.399080	0.879533
	H104	H	0.108940	0.583532	0.397099
	H105	H	0.873701	0.590114	0.587082
	H106	H	0.104476	0.405788	0.584789
	H107	H	0.871662	0.400928	0.394870
	H108	H	0.897477	0.615883	0.106832
	H109	H	0.084177	0.375861	0.092563
	H110	H	0.088273	0.610393	0.908800
	H111	H	0.900740	0.381625	0.912650
	H112	H	0.080667	0.895288	0.612548
	H113	H	0.080820	0.079831	0.382958
	H114	H	0.898685	0.091990	0.611921
	H115	H	0.895060	0.906586	0.382001
	H116	H	0.608973	0.090917	0.902575
	H117	H	0.373541	0.089027	0.089045
	H118	H	0.606136	0.901767	0.082714
	H119	H	0.375839	0.902423	0.909030
	C120	C	0.369269	0.002120	0.617522
	C121	C	0.612190	0.985721	0.617529
	C122	C	0.611110	0.002226	0.374146
	C123	C	0.368544	0.984845	0.373341
	C124	C	0.613068	0.372247	0.004012
	C125	C	0.612752	0.615575	0.988320
	C126	C	0.369123	0.616042	0.004643
	C127	C	0.369545	0.372066	0.987852
	C128	C	-0.001011	0.614910	0.374945
	C129	C	0.982733	0.615732	0.617852
	C130	C	-0.001195	0.372844	0.617432
	C131	C	0.982119	0.372568	0.374318
	C132	C	0.869391	0.502665	0.117852
	C133	C	0.112136	0.484995	0.117773
	C134	C	0.112301	0.502800	0.874581
	C135	C	0.869452	0.485993	0.874460
	C136	C	0.111825	0.872707	0.503489
	C137	C	0.112547	0.116150	0.487402
	C138	C	0.868779	0.115593	0.503077
	C139	C	0.868556	0.872060	0.487877
	C140	C	0.499530	0.115168	0.874265
	C141	C	0.482307	0.115587	0.117531
	C142	C	0.499114	0.873303	0.117034
	C143	C	0.482359	0.872465	0.874681
	C144	C	0.371317	0.878803	0.672662
	C145	C	0.609739	0.109209	0.672223
	C146	C	0.609184	0.878902	0.318877
	C147	C	0.371434	0.108658	0.318770
	C148	C	0.667605	0.375519	0.881060
	C149	C	0.667238	0.612059	0.111219
	C150	C	0.314613	0.612542	0.881556
	C151	C	0.314825	0.374893	0.110689
	C152	C	0.875531	0.669582	0.377906
	C153	C	0.106316	0.670643	0.614566
	C154	C	0.875181	0.318216	0.614051
	C155	C	0.105945	0.317958	0.377687
	C156	C	0.875706	0.375309	0.672238
	C157	C	0.106013	0.613798	0.672876
	C158	C	0.875594	0.612325	0.319823
	C159	C	0.105895	0.374802	0.319542
	C160	C	0.372470	0.670323	0.881724
	C161	C	0.609121	0.669823	0.111334
	C162	C	0.610018	0.317567	0.881021
	C163	C	0.372823	0.317162	0.110560
	C164	C	0.666062	0.878637	0.377260
	C165	C	0.666556	0.109522	0.613809
	C166	C	0.314387	0.878577	0.614138
	C167	C	0.314972	0.109205	0.377485
	C168	C	0.871742	0.379007	0.172465
	C169	C	0.109683	0.608539	0.172603
	C170	C	0.110155	0.379717	0.819711
	C171	C	0.871636	0.609276	0.819557
	C172	C	0.166553	0.875456	0.380583
	C173	C	0.167712	0.112975	0.610089
	C174	C	0.813535	0.113081	0.380421
	C175	C	0.814029	0.875269	0.610896
	C176	C	0.375940	0.169802	0.877843
	C177	C	0.606103	0.170049	0.114742
	C178	C	0.375565	0.818466	0.113864
	C179	C	0.605765	0.817387	0.877406
	C180	C	0.375222	0.876459	0.170596
	C181	C	0.605507	0.113379	0.172933
	C182	C	0.375877	0.112610	0.819847
	C183	C	0.605713	0.874717	0.819725
	C184	C	0.871540	0.170865	0.380364
	C185	C	0.109579	0.170304	0.610535
	C186	C	0.109641	0.817060	0.380839
	C187	C	0.872014	0.817553	0.610712
	C188	C	0.166779	0.379323	0.878033
	C189	C	0.166650	0.608874	0.114450
	C190	C	0.814860	0.378525	0.114272
	C191	C	0.814923	0.609521	0.877816
	C192	C	0.391511	0.087967	0.596116
	C193	C	0.590347	0.899573	0.596102
	C194	C	0.589122	0.088125	0.395965
	C195	C	0.389996	0.898808	0.394543
	C196	C	0.591346	0.394014	0.089965
	C197	C	0.591070	0.593667	0.902308
	C198	C	0.390544	0.594572	0.090908
	C199	C	0.391275	0.393962	0.902131
	C200	C	0.085675	0.593258	0.396354
	C201	C	0.896320	0.593603	0.596169
	C202	C	0.085081	0.394583	0.595720
	C203	C	0.896112	0.394759	0.396206
	C204	C	0.890933	0.588637	0.096462
	C205	C	0.090517	0.399019	0.095988
	C206	C	0.090341	0.588957	0.896255
	C207	C	0.892067	0.400284	0.896502
	C208	C	0.090416	0.894486	0.589418
	C209	C	0.090474	0.094577	0.401559
	C210	C	0.890598	0.093648	0.589196
	C211	C	0.890510	0.894057	0.401994
	C212	C	0.585730	0.093156	0.895686
	C213	C	0.396185	0.093700	0.095290
	C214	C	0.585799	0.894687	0.095685
	C215	C	0.396168	0.894558	0.896664
	Zn216	Zn	0.490714	-0.006218	0.746224
	Zn217	Zn	0.490382	-0.005939	0.245371
	Zn218	Zn	0.741815	0.494082	-0.004110
	Zn219	Zn	0.240405	0.493817	-0.004133
	Zn220	Zn	-0.009003	0.743600	0.496051
	Zn221	Zn	-0.009464	0.244471	0.495522
	Zn222	Zn	-0.009069	0.494645	0.746062
	Zn223	Zn	-0.009268	0.493888	0.246023
	Zn224	Zn	0.490672	0.744698	-0.003685
	Zn225	Zn	0.491446	0.243175	-0.004233
	Zn226	Zn	0.740028	-0.005914	0.495353
	Zn227	Zn	0.240654	-0.005895	0.495321
	N228	N	0.404479	0.956528	0.675136
	N229	N	0.576472	0.031391	0.674524
	N230	N	0.575999	0.956551	0.316797
	N231	N	0.404123	0.030696	0.316276
	N232	N	0.669578	0.408589	0.958503
	N233	N	0.669392	0.579000	0.033738
	N234	N	0.312435	0.579562	0.959285
	N235	N	0.312660	0.408271	0.033338
	N236	N	0.953257	0.671173	0.411388
	N237	N	0.028620	0.671829	0.581248
	N238	N	0.952869	0.316519	0.580635
	N239	N	0.028323	0.316339	0.411020
	N240	N	0.953413	0.408567	0.674336
	N241	N	0.027947	0.580603	0.675231
	N242	N	0.953428	0.579185	0.317872
	N243	N	0.028046	0.408198	0.317532
	N244	N	0.405448	0.672478	0.959192
	N245	N	0.575981	0.672046	0.033763
	N246	N	0.576858	0.315285	0.958591
	N247	N	0.406326	0.315410	0.033207
	N248	N	0.667286	0.956188	0.411291
	N249	N	0.668118	0.031770	0.580535
	N250	N	0.313255	0.955934	0.580199
	N251	N	0.312996	0.031433	0.410762
	N252	N	0.904942	0.456742	0.174888
	N253	N	0.076528	0.530752	0.174598
	N254	N	0.076861	0.457454	0.817678
	N255	N	0.904745	0.531381	0.817160
	N256	N	0.168068	0.909260	0.457741
	N257	N	0.169430	0.079995	0.532518
	N258	N	0.811855	0.079521	0.457670
	N259	N	0.811883	0.908603	0.533326
	N260	N	0.453827	0.171497	0.910863
	N261	N	0.528570	0.171538	0.080832
	N262	N	0.453638	0.816489	0.081257
	N263	N	0.528185	0.816023	0.910865
	N264	N	0.453100	0.909830	0.172624
	N265	N	0.527620	0.080347	0.174622
	N266	N	0.453567	0.079173	0.817774
	N267	N	0.527929	0.908291	0.817775
	N268	N	0.905261	0.172474	0.457800
	N269	N	0.075815	0.172405	0.533195
	N270	N	0.076364	0.815269	0.458344
	N271	N	0.905332	0.815678	0.533365
	N272	N	0.168261	0.456856	0.911437
	N273	N	0.168305	0.531245	0.080877
	N274	N	0.813129	0.456371	0.081193
	N275	N	0.813591	0.532015	0.911326
	O276	O	1.008510	-0.044725	0.940569
	H277	H	1.009553	-0.039615	0.946949
	H278	H	1.006244	-0.042016	0.944096
	O279	O	0.970073	0.983912	0.954809
	H280	H	0.956896	0.980629	0.951518
	H281	H	0.973799	0.979345	0.951303
	O282	O	0.959805	0.952912	-0.069601
	H283	H	0.966909	0.952287	-0.071690
	H284	H	0.955752	0.945618	-0.076694
	O285	O	0.976908	0.964418	0.943880
	H286	H	0.988174	0.971051	0.937997
	H287	H	0.969758	0.960946	0.947452
