data_Molecule from HDF5

_cell_length_a		16.376736
_cell_length_b		16.165250
_cell_length_c		16.232382
_cell_angle_alpha	89.875264
_cell_angle_beta	89.906289
_cell_angle_gamma	89.903204
_symmetry_space_group_name_H-M	'P 1'
_symmetry_Int_Tables_number		1

loop_
	_symmetry_equiv_pos_as_xyz
	x,y,z

loop_
	_atom_site_label
	_atom_site_type_symbol
	_atom_site_fract_x
	_atom_site_fract_y
	_atom_site_fract_z
	H0	H	0.409273	0.825736	0.712847
	H1	H	0.603429	0.155423	0.712083
	H2	H	0.604549	0.825615	0.287285
	H3	H	0.408817	0.156308	0.287999
	H4	H	0.723254	0.388991	0.838423
	H5	H	0.719434	0.589259	0.165714
	H6	H	0.289690	0.592215	0.838427
	H7	H	0.290459	0.390341	0.165000
	H8	H	0.843545	0.706441	0.403383
	H9	H	0.169465	0.704390	0.598372
	H10	H	0.843882	0.275624	0.600853
	H11	H	0.169749	0.276156	0.404361
	H12	H	0.844018	0.391439	0.718211
	H13	H	0.169222	0.589579	0.716811
	H14	H	0.843472	0.591263	0.286112
	H15	H	0.169389	0.391109	0.286171
	H16	H	0.409076	0.704236	0.836945
	H17	H	0.602327	0.703458	0.165555
	H18	H	0.602341	0.279562	0.835542
	H19	H	0.410239	0.277978	0.165495
	H20	H	0.722121	0.826086	0.400667
	H21	H	0.720678	0.153954	0.599479
	H22	H	0.291357	0.827005	0.600011
	H23	H	0.290670	0.154592	0.400747
	H24	H	0.908311	0.326443	0.216818
	H25	H	0.102338	0.656667	0.214460
	H26	H	0.104460	0.326751	0.789926
	H27	H	0.907876	0.655963	0.788314
	H28	H	0.222408	0.888929	0.337031
	H29	H	0.221557	0.089875	0.663847
	H30	H	0.791361	0.092658	0.337253
	H31	H	0.791167	0.889333	0.663712
	H32	H	0.342951	0.205197	0.901821
	H33	H	0.668990	0.205086	0.097913
	H34	H	0.342936	0.776287	0.098432
	H35	H	0.669210	0.777034	0.903851
	H36	H	0.342929	0.890923	0.216766
	H37	H	0.668624	0.089545	0.215285
	H38	H	0.343872	0.089865	0.784658
	H39	H	0.668311	0.890666	0.784162
	H40	H	0.910026	0.205518	0.337812
	H41	H	0.103104	0.201080	0.666060
	H42	H	0.104358	0.776371	0.336690
	H43	H	0.909789	0.777925	0.665437
	H44	H	0.220143	0.327419	0.903556
	H45	H	0.222059	0.654876	0.102996
	H46	H	0.791154	0.326702	0.102915
	H47	H	0.790654	0.655106	0.902366
	H48	H	0.411213	0.109076	0.590862
	H49	H	0.594139	0.872945	0.596488
	H50	H	0.588521	0.104673	0.409083
	H51	H	0.421630	0.876286	0.409942
	H52	H	0.603104	0.395815	0.119933
	H53	H	0.597509	0.578756	0.886542
	H54	H	0.416004	0.590617	0.120133
	H55	H	0.401438	0.392403	0.879371
	H56	H	0.122021	0.586126	0.412325
	H57	H	0.890000	0.594275	0.588229
	H58	H	0.124688	0.391854	0.599358
	H59	H	0.895219	0.410616	0.410601
	H60	H	0.122336	0.396314	0.593003
	H61	H	0.895098	0.572242	0.590485
	H62	H	0.120042	0.578043	0.407514
	H63	H	0.886417	0.394569	0.398336
	H64	H	0.403712	0.580689	0.120435
	H65	H	0.597408	0.587267	0.883824
	H66	H	0.599438	0.402775	0.116642
	H67	H	0.410141	0.410185	0.886151
	H68	H	0.605823	0.106245	0.418218
	H69	H	0.599811	0.874204	0.586823
	H70	H	0.412532	0.109516	0.594463
	H71	H	0.407757	0.873416	0.416364
	H72	H	0.909814	0.610891	0.097390
	H73	H	0.096869	0.375826	0.090582
	H74	H	0.094694	0.608340	0.909365
	H75	H	0.912167	0.371806	0.906459
	H76	H	0.082766	0.898339	0.612517
	H77	H	0.100686	0.076804	0.385217
	H78	H	0.921237	0.080602	0.615508
	H79	H	0.908575	0.899326	0.381883
	H80	H	0.622121	0.083406	0.904650
	H81	H	0.387281	0.087121	0.099307
	H82	H	0.621666	0.897367	0.095362
	H83	H	0.390445	0.899175	0.909112
	H84	H	0.621429	0.896160	0.093442
	H85	H	0.390451	0.087043	0.089064
	H86	H	0.622686	0.085515	0.905698
	H87	H	0.389847	0.898928	0.903599
	H88	H	0.908632	0.091534	0.622079
	H89	H	0.093611	0.084455	0.384796
	H90	H	0.107805	0.882202	0.623672
	H91	H	0.915839	0.904025	0.386233
	H92	H	0.100944	0.609294	0.913260
	H93	H	0.103410	0.372689	0.094223
	H94	H	0.915949	0.607035	0.094959
	H95	H	0.918722	0.375674	0.911541
	H96	H	0.414541	0.107977	0.591881
	H97	H	0.605076	0.870433	0.595830
	H98	H	0.603492	0.111921	0.399382
	H99	H	0.410612	0.870104	0.401419
	H100	H	0.595315	0.395292	0.117561
	H101	H	0.604944	0.582432	0.882690
	H102	H	0.417656	0.576041	0.114860
	H103	H	0.422217	0.392864	0.884739
	H104	H	0.123859	0.585713	0.403210
	H105	H	0.887366	0.583986	0.608989
	H106	H	0.122420	0.399219	0.599907
	H107	H	0.892095	0.390341	0.418881
	H108	H	0.910060	0.607460	0.089882
	H109	H	0.096392	0.373492	0.098198
	H110	H	0.101222	0.610917	0.905443
	H111	H	0.911109	0.374243	0.915460
	H112	H	0.110014	0.913311	0.616252
	H113	H	0.102572	0.086586	0.381676
	H114	H	0.905338	0.074145	0.618426
	H115	H	0.917102	0.895406	0.383102
	H116	H	0.621744	0.083606	0.906555
	H117	H	0.391599	0.077798	0.095337
	H118	H	0.621022	0.898523	0.093406
	H119	H	0.388942	0.894060	0.907286
	C120	C	0.384349	-0.000209	0.621538
	C121	C	0.627822	0.981384	0.621642
	C122	C	0.628307	-0.001105	0.379329
	C123	C	0.384645	0.982088	0.379545
	C124	C	0.627700	0.369045	0.009497
	C125	C	0.627478	0.611451	0.992861
	C126	C	0.384277	0.612068	0.010115
	C127	C	0.383706	0.369541	0.992289
	C128	C	0.014513	0.612676	0.379450
	C129	C	0.998141	0.612367	0.623673
	C130	C	0.015272	0.367741	0.625528
	C131	C	0.998796	0.369234	0.380306
	C132	C	0.883751	0.499795	0.123225
	C133	C	0.127194	0.482902	0.123256
	C134	C	0.127295	0.500249	0.881256
	C135	C	0.884494	0.482405	0.881265
	C136	C	0.128367	0.868784	0.508982
	C137	C	0.127648	0.111275	0.492409
	C138	C	0.883996	0.112292	0.510362
	C139	C	0.885188	0.869410	0.492092
	C140	C	0.514534	0.112478	0.877905
	C141	C	0.497665	0.112337	0.122292
	C142	C	0.514150	0.868464	0.123252
	C143	C	0.497364	0.868781	0.878508
	C144	C	0.387614	0.875437	0.676346
	C145	C	0.624507	0.105734	0.675563
	C146	C	0.625575	0.875117	0.324294
	C147	C	0.387439	0.106563	0.324780
	C148	C	0.684018	0.370394	0.886770
	C149	C	0.681695	0.609414	0.116610
	C150	C	0.328367	0.611476	0.886977
	C151	C	0.328966	0.370841	0.116087
	C152	C	0.892059	0.668513	0.382536
	C153	C	0.120828	0.667128	0.620115
	C154	C	0.892625	0.313110	0.621838
	C155	C	0.121004	0.313916	0.383326
	C156	C	0.892605	0.370749	0.680058
	C157	C	0.120828	0.609878	0.678778
	C158	C	0.892022	0.611489	0.324192
	C159	C	0.120684	0.371052	0.324562
	C160	C	0.387643	0.666841	0.886130
	C161	C	0.623694	0.666230	0.116533
	C162	C	0.624128	0.315644	0.885277
	C163	C	0.388392	0.315124	0.116331
	C164	C	0.683875	0.875169	0.380782
	C165	C	0.683002	0.105012	0.619715
	C166	C	0.329566	0.875916	0.620029
	C167	C	0.328839	0.105892	0.380817
	C168	C	0.887197	0.375551	0.178979
	C169	C	0.123756	0.607167	0.177565
	C170	C	0.124364	0.376018	0.827319
	C171	C	0.886877	0.606504	0.825825
	C172	C	0.184061	0.869831	0.386026
	C173	C	0.183400	0.109555	0.615027
	C174	C	0.828980	0.111949	0.386643
	C175	C	0.829638	0.870120	0.615207
	C176	C	0.391745	0.167368	0.881118
	C177	C	0.620253	0.167057	0.118556
	C178	C	0.391371	0.813714	0.120053
	C179	C	0.620255	0.813675	0.881771
	C180	C	0.391631	0.870500	0.178905
	C181	C	0.620031	0.109928	0.177300
	C182	C	0.392125	0.110421	0.822602
	C183	C	0.619828	0.870558	0.822645
	C184	C	0.888046	0.168123	0.386735
	C185	C	0.124510	0.165050	0.616309
	C186	C	0.125333	0.813873	0.385743
	C187	C	0.888687	0.814719	0.616032
	C188	C	0.182141	0.376387	0.883615
	C189	C	0.182921	0.606294	0.121902
	C190	C	0.828879	0.375802	0.122593
	C191	C	0.828528	0.606038	0.882370
	C192	C	0.406301	0.086318	0.599026
	C193	C	0.605948	0.894819	0.599683
	C194	C	0.605832	0.085279	0.402178
	C195	C	0.406852	0.895613	0.402478
	C196	C	0.605753	0.391342	0.095786
	C197	C	0.606127	0.589270	0.906616
	C198	C	0.406060	0.589305	0.096195
	C199	C	0.404990	0.391783	0.905819
	C200	C	0.099845	0.590149	0.401281
	C201	C	0.912952	0.590124	0.602220
	C202	C	0.100921	0.389521	0.603885
	C203	C	0.913235	0.391756	0.402727
	C204	C	0.905422	0.586011	0.100563
	C205	C	0.105213	0.396427	0.100928
	C206	C	0.105412	0.587186	0.902991
	C207	C	0.907225	0.396249	0.904346
	C208	C	0.106508	0.891271	0.595413
	C209	C	0.105313	0.089095	0.405988
	C210	C	0.905370	0.089097	0.596291
	C211	C	0.907492	0.892710	0.405933
	C212	C	0.600003	0.090522	0.899408
	C213	C	0.412037	0.090396	0.100990
	C214	C	0.599296	0.890726	0.100674
	C215	C	0.411906	0.890991	0.900401
	Zn216	Zn	0.505987	-0.009301	0.748870
	Zn217	Zn	0.505648	-0.009093	0.252042
	Zn218	Zn	0.756106	0.490454	0.002063
	Zn219	Zn	0.255578	0.491553	0.001782
	Zn220	Zn	0.006413	0.741600	0.501173
	Zn221	Zn	0.006830	0.239470	0.502505
	Zn222	Zn	0.006470	0.491207	0.753688
	Zn223	Zn	0.005990	0.491274	0.250794
	Zn224	Zn	0.505905	0.739822	0.001084
	Zn225	Zn	0.505817	0.241398	0.000025
	Zn226	Zn	0.756400	-0.009967	0.500760
	Zn227	Zn	0.256328	-0.009089	0.500358
	N228	N	0.421062	0.953527	0.677330
	N229	N	0.590875	0.027882	0.676979
	N230	N	0.591408	0.952962	0.323486
	N231	N	0.421129	0.028579	0.323866
	N232	N	0.686582	0.402601	0.965205
	N233	N	0.684098	0.576143	0.038847
	N234	N	0.326379	0.578020	0.965051
	N235	N	0.325954	0.404006	0.037990
	N236	N	0.969169	0.669401	0.416158
	N237	N	0.043805	0.668571	0.586482
	N238	N	0.969896	0.311225	0.588558
	N239	N	0.044017	0.312677	0.417266
	N240	N	0.969854	0.403820	0.682654
	N241	N	0.043612	0.576538	0.681210
	N242	N	0.969104	0.577672	0.322077
	N243	N	0.043517	0.404810	0.322650
	N244	N	0.421630	0.667393	0.963498
	N245	N	0.590478	0.667527	0.038639
	N246	N	0.589794	0.314760	0.962646
	N247	N	0.421620	0.314227	0.038397
	N248	N	0.685649	0.953313	0.414273
	N249	N	0.685127	0.026775	0.586840
	N250	N	0.327472	0.954162	0.586612
	N251	N	0.327141	0.027497	0.414427
	N252	N	0.920564	0.453657	0.179769
	N253	N	0.089890	0.529346	0.178431
	N254	N	0.090736	0.454085	0.826039
	N255	N	0.920923	0.528604	0.824986
	N256	N	0.185972	0.903414	0.463904
	N257	N	0.185289	0.076859	0.536931
	N258	N	0.826433	0.077776	0.464531
	N259	N	0.827413	0.903412	0.537175
	N260	N	0.468790	0.169007	0.914624
	N261	N	0.543097	0.168807	0.085340
	N262	N	0.468382	0.812202	0.086276
	N263	N	0.543295	0.812750	0.916032
	N264	N	0.468819	0.904148	0.180755
	N265	N	0.542883	0.076603	0.179651
	N266	N	0.469318	0.076728	0.820651
	N267	N	0.542543	0.904015	0.820478
	N268	N	0.921475	0.168362	0.464335
	N269	N	0.090539	0.166139	0.538778
	N270	N	0.091618	0.813065	0.463267
	N271	N	0.922395	0.814218	0.538338
	N272	N	0.184123	0.454797	0.916362
	N273	N	0.185229	0.528008	0.088913
	N274	N	0.826701	0.453785	0.088762
	N275	N	0.826958	0.527917	0.916137
	O276	O	0.994792	1.052063	0.028820
	H277	H	0.997737	1.057100	0.028928
	H278	H	0.984278	1.045943	0.033039
	O279	O	-0.015632	-0.010224	0.012535
	H280	H	-0.020675	-0.002807	0.003137
	H281	H	-0.010826	-0.003918	0.014617
	O282	O	-0.010639	0.060174	0.978826
	H283	H	-0.006260	0.067363	0.989192
	H284	H	-0.022753	0.055566	0.982663
	O285	O	-0.007098	1.003743	0.009821
	H286	H	-0.006357	1.004546	0.010116
	H287	H	-0.006666	1.001349	-0.001910
	O288	O	0.546498	0.507468	0.431617
	H289	H	0.550266	0.505117	0.430414
	H290	H	0.543457	0.512814	0.435294
	O291	O	0.587255	0.491063	0.482084
	H292	H	0.594048	0.495140	0.486986
	H293	H	0.578846	0.491463	0.491809
	O294	O	-0.445954	0.500084	0.487899
	H295	H	-0.452461	0.495597	0.474052
	H296	H	-0.446642	0.499111	0.495382
	O297	O	0.571728	0.482187	0.478930
	H298	H	0.574775	0.486763	0.476241
	H299	H	0.568753	0.486693	0.478391
	O300	O	-0.045848	1.009351	1.099412
	H301	H	-0.038204	0.996590	1.096291
	H302	H	-0.053358	1.010112	1.108543
	O303	O	0.540323	0.506915	0.450497
	H304	H	0.549861	0.495586	0.442273
	H305	H	0.540174	0.500576	0.452177
	O306	O	0.588756	-0.577469	1.416640
	H307	H	0.590090	-0.586891	1.418474
	H308	H	0.594255	-0.571375	1.411656
	O309	O	0.931516	1.022537	1.048504
	H310	H	0.935056	1.023473	1.045536
	H311	H	0.937233	1.026053	1.056251
	O312	O	-0.040970	1.029903	0.001372
	H313	H	-0.039995	1.023833	-0.007615
	H314	H	-0.047779	1.027946	-0.000053
	O315	O	0.568251	0.461645	0.405895
	H316	H	0.569821	0.460453	0.399509
	H317	H	0.573405	0.470496	0.402991
	O318	O	-0.004055	1.008666	-0.060527
	H319	H	-0.006479	1.018200	-0.054744
	H320	H	-0.006886	1.018943	-0.055761
	O321	O	0.975286	1.005663	-0.014256
	H322	H	0.984342	1.005776	-0.016131
	H323	H	0.972925	1.005199	-0.015570
