data_Molecule from HDF5

_cell_length_a		16.187664
_cell_length_b		16.506409
_cell_length_c		16.151542
_cell_angle_alpha	89.941360
_cell_angle_beta	89.332470
_cell_angle_gamma	90.246962
_symmetry_space_group_name_H-M	'P 1'
_symmetry_Int_Tables_number		1

loop_
	_symmetry_equiv_pos_as_xyz
	x,y,z

loop_
	_atom_site_label
	_atom_site_type_symbol
	_atom_site_fract_x
	_atom_site_fract_y
	_atom_site_fract_z
	H0	H	0.395466	0.834800	0.715582
	H1	H	0.600058	0.155314	0.709995
	H2	H	0.600138	0.833895	0.276477
	H3	H	0.401467	0.156286	0.278405
	H4	H	0.717131	0.395381	0.830502
	H5	H	0.711594	0.590800	0.158994
	H6	H	0.289735	0.594789	0.829147
	H7	H	0.284540	0.397551	0.158145
	H8	H	0.839419	0.713799	0.390277
	H9	H	0.162210	0.715327	0.596014
	H10	H	0.838584	0.276208	0.600380
	H11	H	0.162313	0.277537	0.387316
	H12	H	0.836526	0.397727	0.709369
	H13	H	0.165575	0.593770	0.703805
	H14	H	0.835889	0.591779	0.283039
	H15	H	0.164072	0.398352	0.277529
	H16	H	0.399725	0.713989	0.831872
	H17	H	0.605460	0.713561	0.156064
	H18	H	0.606504	0.277055	0.831708
	H19	H	0.393814	0.275768	0.155695
	H20	H	0.719536	0.835416	0.390456
	H21	H	0.718110	0.154755	0.596081
	H22	H	0.278633	0.835469	0.598998
	H23	H	0.285602	0.156918	0.396468
	H24	H	0.897470	0.334304	0.213097
	H25	H	0.101127	0.655893	0.210753
	H26	H	0.101357	0.334927	0.776381
	H27	H	0.903761	0.657207	0.778766
	H28	H	0.216881	0.897025	0.331161
	H29	H	0.212263	0.094318	0.658997
	H30	H	0.789012	0.093156	0.328988
	H31	H	0.782705	0.896088	0.658203
	H32	H	0.340780	0.214305	0.889298
	H33	H	0.661748	0.214574	0.097550
	H34	H	0.339483	0.775141	0.101062
	H35	H	0.663677	0.777795	0.887175
	H36	H	0.336178	0.897219	0.208898
	H37	H	0.664493	0.092754	0.205947
	H38	H	0.337492	0.093551	0.782321
	H39	H	0.664010	0.896887	0.776887
	H40	H	0.898687	0.213321	0.331562
	H41	H	0.101663	0.213814	0.656292
	H42	H	0.105162	0.778393	0.332333
	H43	H	0.894045	0.776853	0.656844
	H44	H	0.220869	0.335564	0.890009
	H45	H	0.218567	0.655800	0.093959
	H46	H	0.780400	0.334325	0.097018
	H47	H	0.783972	0.655663	0.893660
	H48	H	0.418733	0.104993	0.584189
	H49	H	0.583137	0.883403	0.581961
	H50	H	0.597589	0.107818	0.406776
	H51	H	0.413356	0.883689	0.404209
	H52	H	0.586773	0.397795	0.111324
	H53	H	0.596543	0.588614	0.876119
	H54	H	0.414432	0.586882	0.109143
	H55	H	0.406671	0.403262	0.875018
	H56	H	0.116338	0.593247	0.409429
	H57	H	0.885157	0.580212	0.589354
	H58	H	0.119099	0.402676	0.587778
	H59	H	0.883594	0.400382	0.408036
	H60	H	0.118450	0.397114	0.579882
	H61	H	0.880418	0.592067	0.588758
	H62	H	0.114848	0.580086	0.402909
	H63	H	0.885387	0.403242	0.406301
	H64	H	0.408842	0.588960	0.111759
	H65	H	0.592107	0.584276	0.877813
	H66	H	0.593465	0.402622	0.112478
	H67	H	0.416399	0.408632	0.880407
	H68	H	0.599679	0.112118	0.394721
	H69	H	0.596793	0.880409	0.579972
	H70	H	0.397047	0.109329	0.580549
	H71	H	0.402892	0.880610	0.408201
	H72	H	0.906891	0.608234	0.084426
	H73	H	0.092321	0.381860	0.082491
	H74	H	0.103258	0.612130	0.900109
	H75	H	0.917024	0.380103	0.889823
	H76	H	0.085214	0.906353	0.609852
	H77	H	0.091400	0.087452	0.377932
	H78	H	0.912968	0.079065	0.607113
	H79	H	0.914218	0.906260	0.379605
	H80	H	0.615470	0.082740	0.905770
	H81	H	0.382483	0.094576	0.080109
	H82	H	0.620396	0.908847	0.096084
	H83	H	0.388062	0.903589	0.915024
	H84	H	0.621475	0.889167	0.081464
	H85	H	0.387297	0.078747	0.082129
	H86	H	0.619523	0.086383	0.897873
	H87	H	0.384996	0.908090	0.902313
	H88	H	0.914182	0.093682	0.611181
	H89	H	0.092467	0.090057	0.376139
	H90	H	0.084788	0.901518	0.611324
	H91	H	0.913498	0.897830	0.376487
	H92	H	0.092984	0.612156	0.893084
	H93	H	0.092888	0.381077	0.085900
	H94	H	0.904113	0.610645	0.088542
	H95	H	0.915324	0.386373	0.914358
	H96	H	0.405870	0.113138	0.600937
	H97	H	0.590984	0.878113	0.592911
	H98	H	0.588330	0.109095	0.398429
	H99	H	0.405784	0.878358	0.397990
	H100	H	0.585868	0.405664	0.108734
	H101	H	0.589756	0.589795	0.877069
	H102	H	0.409356	0.583314	0.109917
	H103	H	0.416565	0.397182	0.877401
	H104	H	0.120768	0.592026	0.394514
	H105	H	0.886404	0.587137	0.577960
	H106	H	0.115558	0.406091	0.579399
	H107	H	0.882326	0.402203	0.404345
	H108	H	0.908773	0.608199	0.089884
	H109	H	0.089354	0.382039	0.085615
	H110	H	0.092341	0.607205	0.904940
	H111	H	0.895135	0.376980	0.902143
	H112	H	0.089571	0.903561	0.612539
	H113	H	0.094426	0.087531	0.376873
	H114	H	0.900090	0.086248	0.613101
	H115	H	0.906056	0.903535	0.375772
	H116	H	0.619275	0.091220	0.906212
	H117	H	0.380935	0.086613	0.095227
	H118	H	0.612332	0.909886	0.072517
	H119	H	0.381524	0.894904	0.906474
	C120	C	0.376047	0.003223	0.619120
	C121	C	0.620709	0.986505	0.615257
	C122	C	0.624191	0.003739	0.370444
	C123	C	0.378485	0.986996	0.373682
	C124	C	0.620996	0.372788	0.003353
	C125	C	0.622195	0.616195	0.985182
	C126	C	0.381333	0.616445	0.002409
	C127	C	0.380399	0.373314	0.985230
	C128	C	0.009556	0.617095	0.372899
	C129	C	0.991621	0.616754	0.614772
	C130	C	0.009572	0.373161	0.614515
	C131	C	0.991402	0.373219	0.373450
	C132	C	0.876209	0.503200	0.117838
	C133	C	0.121132	0.487512	0.114566
	C134	C	0.125656	0.504212	0.869591
	C135	C	0.879695	0.487396	0.872427
	C136	C	0.119342	0.874667	0.503341
	C137	C	0.121485	0.117236	0.485316
	C138	C	0.879254	0.116288	0.502697
	C139	C	0.878936	0.873220	0.485348
	C140	C	0.510211	0.115934	0.873878
	C141	C	0.491229	0.116470	0.115400
	C142	C	0.509897	0.873082	0.115079
	C143	C	0.492499	0.872911	0.874260
	C144	C	0.376054	0.882928	0.676776
	C145	C	0.620267	0.107090	0.672140
	C146	C	0.621115	0.882331	0.314278
	C147	C	0.380968	0.108221	0.317255
	C148	C	0.678833	0.375173	0.879597
	C149	C	0.675862	0.612709	0.109316
	C150	C	0.326655	0.614838	0.878797
	C151	C	0.321901	0.375832	0.108461
	C152	C	0.887381	0.673916	0.372553
	C153	C	0.113995	0.675545	0.614346
	C154	C	0.886840	0.315868	0.617732
	C155	C	0.113816	0.316860	0.370326
	C156	C	0.886100	0.376226	0.672218
	C157	C	0.115904	0.614766	0.667891
	C158	C	0.885580	0.613499	0.318829
	C159	C	0.114623	0.376776	0.315331
	C160	C	0.381573	0.674174	0.880115
	C161	C	0.623278	0.673867	0.107795
	C162	C	0.623841	0.316158	0.880115
	C163	C	0.376638	0.315531	0.107201
	C164	C	0.680193	0.882897	0.371215
	C165	C	0.678840	0.106736	0.614985
	C166	C	0.317958	0.883098	0.618602
	C167	C	0.323288	0.108608	0.375885
	C168	C	0.877292	0.382479	0.174883
	C169	C	0.120575	0.608045	0.171725
	C170	C	0.122851	0.383215	0.813795
	C171	C	0.882357	0.608604	0.816491
	C172	C	0.177814	0.876733	0.380018
	C173	C	0.175697	0.115015	0.609186
	C174	C	0.825218	0.113863	0.378788
	C175	C	0.820874	0.875303	0.608769
	C176	C	0.388656	0.173938	0.872394
	C177	C	0.613674	0.174451	0.115853
	C178	C	0.387860	0.814666	0.118432
	C179	C	0.614925	0.816635	0.870344
	C180	C	0.386186	0.875386	0.172304
	C181	C	0.615208	0.113731	0.169392
	C182	C	0.387023	0.113835	0.818854
	C183	C	0.614874	0.875700	0.815072
	C184	C	0.880036	0.173545	0.379923
	C185	C	0.120346	0.174010	0.608083
	C186	C	0.122252	0.817773	0.380672
	C187	C	0.876220	0.816024	0.608137
	C188	C	0.181751	0.383398	0.870782
	C189	C	0.179263	0.607894	0.113711
	C190	C	0.819302	0.382323	0.116792
	C191	C	0.823057	0.607843	0.874209
	C192	C	0.400114	0.087413	0.595331
	C193	C	0.597068	0.902500	0.591809
	C194	C	0.601888	0.087702	0.393232
	C195	C	0.400711	0.902745	0.396610
	C196	C	0.595893	0.395413	0.088658
	C197	C	0.599362	0.594185	0.899406
	C198	C	0.404217	0.593131	0.088218
	C199	C	0.405944	0.396405	0.899706
	C200	C	0.095131	0.594950	0.395548
	C201	C	0.906108	0.593291	0.591977
	C202	C	0.095431	0.395518	0.589451
	C203	C	0.905797	0.395367	0.398768
	C204	C	0.899743	0.587393	0.094421
	C205	C	0.098011	0.403456	0.091445
	C206	C	0.102803	0.588496	0.892449
	C207	C	0.902334	0.403051	0.895393
	C208	C	0.094034	0.897327	0.588960
	C209	C	0.099275	0.095043	0.399161
	C210	C	0.902282	0.093274	0.588412
	C211	C	0.904177	0.896045	0.399476
	C212	C	0.595734	0.093358	0.896725
	C213	C	0.405883	0.093593	0.092534
	C214	C	0.595697	0.895671	0.090429
	C215	C	0.407027	0.895472	0.900483
	Zn216	Zn	0.500255	-0.005090	0.746515
	Zn217	Zn	0.500671	-0.004791	0.242532
	Zn218	Zn	0.748306	0.494162	-0.005523
	Zn219	Zn	0.253048	0.495557	-0.006846
	Zn220	Zn	-0.000219	0.744917	0.494285
	Zn221	Zn	0.000030	0.244588	0.493965
	Zn222	Zn	0.001717	0.495484	0.741893
	Zn223	Zn	-0.000614	0.494925	0.245812
	Zn224	Zn	0.502115	0.744225	-0.005766
	Zn225	Zn	0.501332	0.244380	-0.006051
	Zn226	Zn	0.751437	-0.004977	0.493966
	Zn227	Zn	0.248032	-0.004801	0.495441
	N228	N	0.411417	0.958787	0.677185
	N229	N	0.584714	0.031371	0.672318
	N230	N	0.586607	0.958280	0.313826
	N231	N	0.414647	0.031803	0.315680
	N232	N	0.677126	0.410005	0.957002
	N233	N	0.675973	0.577957	0.032038
	N234	N	0.326155	0.579686	0.956082
	N235	N	0.324029	0.411079	0.031439
	N236	N	0.965339	0.676328	0.405415
	N237	N	0.035797	0.676756	0.581819
	N238	N	0.964575	0.313855	0.582584
	N239	N	0.036181	0.314442	0.405766
	N240	N	0.963604	0.410852	0.670652
	N241	N	0.039020	0.578942	0.668294
	N242	N	0.962501	0.578806	0.318808
	N243	N	0.037333	0.410868	0.316953
	N244	N	0.414681	0.675370	0.958076
	N245	N	0.590609	0.676195	0.029620
	N246	N	0.588687	0.314466	0.957971
	N247	N	0.412270	0.313925	0.029450
	N248	N	0.682434	0.959167	0.405145
	N249	N	0.679314	0.030645	0.580228
	N250	N	0.317687	0.959095	0.583692
	N251	N	0.321604	0.032370	0.410267
	N252	N	0.911965	0.458584	0.175426
	N253	N	0.085141	0.532138	0.172281
	N254	N	0.088698	0.459438	0.812933
	N255	N	0.916612	0.532530	0.815207
	N256	N	0.176155	0.911479	0.457413
	N257	N	0.176496	0.080329	0.531882
	N258	N	0.824871	0.078758	0.456084
	N259	N	0.822322	0.909998	0.531291
	N260	N	0.466250	0.175292	0.906079
	N261	N	0.535739	0.176471	0.083130
	N262	N	0.466052	0.812740	0.083830
	N263	N	0.537667	0.814828	0.906678
	N264	N	0.463003	0.911060	0.170411
	N265	N	0.538102	0.078471	0.169471
	N266	N	0.463592	0.078447	0.819786
	N267	N	0.537588	0.909734	0.817270
	N268	N	0.912880	0.175255	0.458036
	N269	N	0.087585	0.175592	0.529884
	N270	N	0.086662	0.816389	0.458194
	N271	N	0.911440	0.814449	0.530227
	N272	N	0.183782	0.459675	0.904580
	N273	N	0.179591	0.532053	0.078663
	N274	N	0.818428	0.458437	0.082093
	N275	N	0.821159	0.531316	0.908071
	O276	O	-0.084279	0.102071	-0.007574
	H277	H	-0.089112	0.087208	-0.009487
	H278	H	-0.074820	0.106796	-0.008061
	O279	O	0.620895	0.406035	0.366689
	H280	H	0.615579	0.423236	0.380799
	H281	H	0.619400	0.404411	0.362873
	O282	O	1.150613	0.139958	0.053286
	H283	H	1.157744	0.142941	0.057418
	H284	H	1.150378	0.141119	0.064300
	O285	O	0.080575	0.922535	0.089745
	H286	H	0.076990	0.938224	0.092346
	H287	H	0.092296	0.920058	0.073275
	O288	O	1.164351	0.871606	-0.075259
	H289	H	1.168074	0.860018	-0.071462
	H290	H	1.171098	0.884348	-0.070564
	O291	O	0.604860	0.618866	0.466711
	H292	H	0.606569	0.631510	0.481886
	H293	H	0.600297	0.619241	0.458611
	O294	O	1.074961	1.041138	0.919765
	H295	H	1.058856	1.037714	0.922773
	H296	H	1.069981	1.042563	0.918935
	O297	O	0.099770	0.136778	0.155153
	H298	H	0.087103	0.128733	0.161899
	H299	H	0.102063	0.137161	0.165019
	O300	O	0.461824	0.407213	0.530943
	H301	H	0.458594	0.403991	0.533488
	H302	H	0.454618	0.413992	0.534219
	O303	O	0.074722	0.946972	1.007874
	H304	H	0.073836	0.954040	0.995237
	H305	H	0.069262	0.943715	1.001836
	O306	O	0.378861	0.532176	0.365347
	H307	H	0.381873	0.530006	0.366468
	H308	H	0.382377	0.543286	0.361073
	O309	O	1.081784	-0.046553	-0.112128
	H310	H	1.077810	-0.045148	-0.124818
	H311	H	1.095248	-0.046220	-0.123990
	O312	O	-0.008868	-0.003306	1.103598
	H313	H	-0.007302	-0.005004	1.114030
	H314	H	0.005388	0.019923	1.094226
	O315	O	0.608418	0.370042	0.430160
	H316	H	0.594775	0.352884	0.433474
	H317	H	0.619239	0.367623	0.420970
	O318	O	0.650784	0.612552	0.513293
	H319	H	0.647839	0.598324	0.516499
	H320	H	0.640009	0.605194	0.529900
	O321	O	0.577201	0.594699	0.533221
	H322	H	0.573054	0.601335	0.541860
	H323	H	0.582107	0.596719	0.549367
	O324	O	0.557291	0.665055	0.529550
	H325	H	0.565288	0.664933	0.538395
	H326	H	0.569020	0.672499	0.519953
	O327	O	0.097553	1.095262	1.019044
	H328	H	0.102776	1.085128	1.010117
	H329	H	0.097568	1.092969	1.028156
	O330	O	0.429180	0.348903	0.498074
	H331	H	0.436795	0.340030	0.500115
	H332	H	0.427383	0.337306	0.495572
	O333	O	-0.016724	0.954254	0.976094
	H334	H	-0.020109	0.958189	0.972743
	H335	H	-0.019035	0.950557	0.974188
	O336	O	0.987270	0.949788	0.999120
	H337	H	0.975543	0.944454	1.009317
	H338	H	1.000095	0.944145	1.012697
	O339	O	0.609793	0.499646	0.382007
	H340	H	0.621906	0.504411	0.372678
	H341	H	0.604744	0.494714	0.392143
	O342	O	1.014872	-0.155480	0.003615
	H343	H	0.992977	-0.160928	0.015959
	H344	H	1.019419	-0.152900	-0.007535
	O345	O	0.393126	0.394822	0.659854
	H346	H	0.377020	0.401616	0.659651
	H347	H	0.392962	0.408013	0.660456
	O348	O	0.818382	0.846955	1.019647
	H349	H	0.815831	0.839598	1.029268
	H350	H	0.814724	0.847219	1.012469
	O351	O	0.495615	0.598792	0.512077
	H352	H	0.495104	0.597994	0.524397
	H353	H	0.494830	0.590619	0.519784
	O354	O	0.495744	0.393479	0.466665
	H355	H	0.497777	0.400965	0.462046
	H356	H	0.491899	0.392337	0.465171
	O357	O	0.644903	0.335236	0.438342
	H358	H	0.636583	0.335567	0.437178
	H359	H	0.653914	0.329476	0.433020
	O360	O	-0.141266	0.015777	0.009293
	H361	H	-0.146030	0.007446	0.003993
	H362	H	-0.141319	0.008622	0.004157
	O363	O	0.539563	0.507043	0.508058
	H364	H	0.543151	0.505112	0.511570
	H365	H	0.534701	0.504168	0.515167
	O366	O	0.390749	0.452139	0.598168
	H367	H	0.390606	0.456861	0.583527
	H368	H	0.381481	0.471696	0.594919
	O369	O	0.554731	0.489633	0.669087
	H370	H	0.546919	0.488016	0.668277
	H371	H	0.567589	0.470009	0.673941
	O372	O	-0.082530	0.992775	1.073506
	H373	H	-0.086677	0.996144	1.060497
	H374	H	-0.089977	0.997889	1.083367
	O375	O	0.372266	0.536896	0.552745
	H376	H	0.368115	0.533088	0.537418
	H377	H	0.372318	0.556314	0.556391
	O378	O	0.448227	0.631389	0.480618
	H379	H	0.455524	0.623233	0.480741
	H380	H	0.451961	0.625184	0.458696
	O381	O	0.513060	0.381584	0.595580
	H382	H	0.494876	0.384985	0.590892
	H383	H	0.506838	0.378114	0.590584
	O384	O	-0.117787	1.149556	-0.006120
	H385	H	-0.108366	1.153561	-0.012127
	H386	H	-0.131032	1.145832	-0.013221
	O387	O	0.894575	0.101270	0.872009
	H388	H	0.899953	0.091156	0.865529
	H389	H	0.900324	0.096444	0.892037
	O390	O	-0.118146	0.846780	0.126398
	H391	H	-0.116847	0.845325	0.134768
	H392	H	-0.129763	0.850040	0.144283
	O393	O	0.992738	1.061712	-0.080835
	H394	H	1.008167	1.059300	-0.089237
	H395	H	0.969852	1.052874	-0.087509
	O396	O	0.356603	0.556569	0.475616
	H397	H	0.363932	0.550638	0.462719
	H398	H	0.352847	0.561076	0.462373
	O399	O	0.021147	1.081880	1.012703
	H400	H	0.032924	1.088946	1.023487
	H401	H	0.031965	1.089866	1.008570
	O402	O	1.103500	0.882656	0.873110
	H403	H	1.099759	0.882840	0.864841
	H404	H	1.103775	0.874607	0.872204
	O405	O	0.385209	0.553703	0.376935
	H406	H	0.387963	0.549107	0.375274
	H407	H	0.396034	0.553469	0.371133
