data_Molecule from HDF5

_cell_length_a		16.553633
_cell_length_b		16.386380
_cell_length_c		16.194119
_cell_angle_alpha	89.696096
_cell_angle_beta	89.872541
_cell_angle_gamma	89.988786
_symmetry_space_group_name_H-M	'P 1'
_symmetry_Int_Tables_number		1

loop_
	_symmetry_equiv_pos_as_xyz
	x,y,z

loop_
	_atom_site_label
	_atom_site_type_symbol
	_atom_site_fract_x
	_atom_site_fract_y
	_atom_site_fract_z
	H0	H	0.394590	0.836313	0.720900
	H1	H	0.598233	0.156681	0.713892
	H2	H	0.596997	0.833922	0.282832
	H3	H	0.397459	0.156721	0.283265
	H4	H	0.718559	0.389257	0.838486
	H5	H	0.714380	0.599419	0.158496
	H6	H	0.274270	0.605024	0.837374
	H7	H	0.275965	0.391384	0.159109
	H8	H	0.839191	0.717279	0.392956
	H9	H	0.153502	0.718988	0.606526
	H10	H	0.839723	0.272521	0.603155
	H11	H	0.153521	0.273387	0.388168
	H12	H	0.838770	0.390188	0.718127
	H13	H	0.154849	0.599599	0.720212
	H14	H	0.837183	0.597376	0.280077
	H15	H	0.155535	0.395089	0.277533
	H16	H	0.389841	0.719501	0.838127
	H17	H	0.596237	0.711732	0.160415
	H18	H	0.601653	0.276063	0.838234
	H19	H	0.395121	0.278923	0.160611
	H20	H	0.717600	0.835729	0.393998
	H21	H	0.718850	0.153043	0.604682
	H22	H	0.271902	0.838655	0.612606
	H23	H	0.274250	0.153298	0.391200
	H24	H	0.893282	0.335969	0.216673
	H25	H	0.095620	0.657713	0.212691
	H26	H	0.099985	0.334603	0.780301
	H27	H	0.895949	0.655889	0.777952
	H28	H	0.219565	0.889494	0.339311
	H29	H	0.217973	0.101316	0.658849
	H30	H	0.778178	0.098831	0.338200
	H31	H	0.775637	0.886155	0.659210
	H32	H	0.338308	0.218632	0.892291
	H33	H	0.653752	0.214606	0.101457
	H34	H	0.337677	0.772374	0.107708
	H35	H	0.652032	0.773352	0.893038
	H36	H	0.336287	0.892412	0.220545
	H37	H	0.655065	0.094240	0.214984
	H38	H	0.337976	0.100943	0.776951
	H39	H	0.654532	0.892493	0.779183
	H40	H	0.895590	0.212187	0.336062
	H41	H	0.103895	0.217783	0.657538
	H42	H	0.099436	0.779870	0.335928
	H43	H	0.895101	0.775088	0.660485
	H44	H	0.223036	0.340335	0.886664
	H45	H	0.218602	0.653663	0.106143
	H46	H	0.773805	0.337931	0.104364
	H47	H	0.774263	0.654413	0.888569
	H48	H	0.405153	0.109664	0.586335
	H49	H	0.595045	0.878658	0.588058
	H50	H	0.589410	0.109887	0.409042
	H51	H	0.411428	0.884689	0.417577
	H52	H	0.590760	0.405733	0.115413
	H53	H	0.588136	0.587673	0.880647
	H54	H	0.407066	0.588952	0.114255
	H55	H	0.410593	0.412101	0.884615
	H56	H	0.113896	0.593741	0.400602
	H57	H	0.881681	0.588433	0.592089
	H58	H	0.108968	0.408702	0.584376
	H59	H	0.884105	0.404980	0.409539
	H60	H	0.110682	0.404796	0.589450
	H61	H	0.886622	0.588926	0.578786
	H62	H	0.109178	0.590314	0.413346
	H63	H	0.883407	0.404640	0.406780
	H64	H	0.399963	0.581739	0.113572
	H65	H	0.585034	0.579695	0.884638
	H66	H	0.584126	0.410960	0.111358
	H67	H	0.409568	0.405583	0.882688
	H68	H	0.589750	0.109513	0.408729
	H69	H	0.583656	0.879593	0.595030
	H70	H	0.409196	0.107959	0.585844
	H71	H	0.398659	0.879898	0.414886
	H72	H	0.905530	0.610458	0.086500
	H73	H	0.084615	0.381647	0.090735
	H74	H	0.078016	0.603536	0.917373
	H75	H	0.912458	0.383181	0.906740
	H76	H	0.079832	0.904378	0.612750
	H77	H	0.082091	0.082317	0.384498
	H78	H	0.910593	0.084927	0.613847
	H79	H	0.903858	0.912301	0.384596
	H80	H	0.606762	0.083954	0.910046
	H81	H	0.380705	0.084030	0.095726
	H82	H	0.604552	0.908419	0.082758
	H83	H	0.384862	0.906250	0.918180
	H84	H	0.609440	0.907924	0.098073
	H85	H	0.379382	0.094499	0.090118
	H86	H	0.610367	0.087518	0.904342
	H87	H	0.385660	0.915200	0.911049
	H88	H	0.904948	0.083849	0.614611
	H89	H	0.088290	0.085838	0.382032
	H90	H	0.089466	0.904902	0.616298
	H91	H	0.911932	0.905294	0.385228
	H92	H	0.093823	0.610045	0.913346
	H93	H	0.082097	0.384969	0.082089
	H94	H	0.901652	0.610917	0.084569
	H95	H	0.904241	0.384583	0.918680
	H96	H	0.405897	0.108674	0.583063
	H97	H	0.584454	0.883817	0.582485
	H98	H	0.589359	0.109067	0.408695
	H99	H	0.408366	0.878903	0.404849
	H100	H	0.582468	0.402693	0.114211
	H101	H	0.579366	0.587294	0.883587
	H102	H	0.409558	0.579416	0.109630
	H103	H	0.404462	0.410221	0.882659
	H104	H	0.108659	0.581351	0.402132
	H105	H	0.888121	0.576915	0.586388
	H106	H	0.109378	0.402594	0.584441
	H107	H	0.883451	0.402345	0.408699
	H108	H	0.902263	0.612283	0.089351
	H109	H	0.090488	0.381772	0.083749
	H110	H	0.081211	0.610905	0.900911
	H111	H	0.898479	0.378402	0.906830
	H112	H	0.084650	0.912726	0.611336
	H113	H	0.089126	0.078872	0.384730
	H114	H	0.908763	0.079469	0.612843
	H115	H	0.902804	0.902724	0.380244
	H116	H	0.609000	0.091323	0.910724
	H117	H	0.384304	0.084384	0.084787
	H118	H	0.610622	0.895061	0.089355
	H119	H	0.381907	0.905058	0.907041
	C120	C	0.374737	0.004260	0.620218
	C121	C	0.618838	0.986290	0.619944
	C122	C	0.619212	0.003797	0.377588
	C123	C	0.375380	0.987057	0.379400
	C124	C	0.617476	0.374695	0.007351
	C125	C	0.615609	0.616175	0.989354
	C126	C	0.373501	0.617487	0.006726
	C127	C	0.375870	0.376276	0.989810
	C128	C	0.005697	0.618941	0.375105
	C129	C	0.989253	0.616770	0.618950
	C130	C	0.005651	0.372711	0.619008
	C131	C	0.988136	0.373230	0.375283
	C132	C	0.873158	0.505322	0.118953
	C133	C	0.116504	0.488144	0.117378
	C134	C	0.117612	0.503812	0.876607
	C135	C	0.874073	0.487006	0.876570
	C136	C	0.117841	0.874815	0.507387
	C137	C	0.118747	0.115762	0.489534
	C138	C	0.877164	0.114746	0.507212
	C139	C	0.875355	0.873547	0.490083
	C140	C	0.504804	0.119537	0.875642
	C141	C	0.486676	0.117307	0.120410
	C142	C	0.503598	0.872529	0.122265
	C143	C	0.487620	0.875648	0.878669
	C144	C	0.374387	0.884432	0.681532
	C145	C	0.618025	0.107665	0.676479
	C146	C	0.617584	0.882706	0.320339
	C147	C	0.376403	0.107980	0.320716
	C148	C	0.678010	0.371879	0.886623
	C149	C	0.674617	0.617531	0.110574
	C150	C	0.314137	0.621888	0.885842
	C151	C	0.316305	0.373805	0.110888
	C152	C	0.886619	0.677822	0.373983
	C153	C	0.107065	0.677674	0.622889
	C154	C	0.887018	0.312452	0.621334
	C155	C	0.106608	0.313824	0.371382
	C156	C	0.886417	0.371230	0.678539
	C157	C	0.107457	0.618346	0.680033
	C158	C	0.885400	0.617864	0.318117
	C159	C	0.107546	0.374621	0.316244
	C160	C	0.371582	0.679183	0.886064
	C161	C	0.615765	0.673364	0.111594
	C162	C	0.619765	0.315403	0.886401
	C163	C	0.375271	0.317578	0.111851
	C164	C	0.677620	0.883477	0.375772
	C165	C	0.678620	0.105652	0.622217
	C166	C	0.313448	0.885591	0.627346
	C167	C	0.315500	0.106335	0.374888
	C168	C	0.873523	0.384426	0.178019
	C169	C	0.115800	0.608842	0.175055
	C170	C	0.119283	0.383683	0.817704
	C171	C	0.875016	0.607722	0.816864
	C172	C	0.179042	0.871919	0.387120
	C173	C	0.178456	0.119315	0.610339
	C174	C	0.818040	0.116791	0.386151
	C175	C	0.816013	0.869360	0.611101
	C176	C	0.385823	0.178911	0.873649
	C177	C	0.606493	0.174751	0.120370
	C178	C	0.384730	0.813041	0.125173
	C179	C	0.605594	0.814516	0.875707
	C180	C	0.384245	0.872423	0.181758
	C181	C	0.607159	0.114770	0.176686
	C182	C	0.385545	0.120025	0.816260
	C183	C	0.606776	0.873854	0.819040
	C184	C	0.876399	0.173416	0.385134
	C185	C	0.121207	0.176959	0.609781
	C186	C	0.119268	0.817396	0.385372
	C187	C	0.875484	0.813968	0.611816
	C188	C	0.180740	0.386389	0.870943
	C189	C	0.177089	0.607042	0.121694
	C190	C	0.814105	0.385375	0.121918
	C191	C	0.814547	0.606786	0.871788
	C192	C	0.399561	0.087269	0.593036
	C193	C	0.594676	0.902340	0.595730
	C194	C	0.596134	0.087706	0.401846
	C195	C	0.399197	0.903125	0.405028
	C196	C	0.592628	0.399367	0.091728
	C197	C	0.591239	0.591907	0.905012
	C198	C	0.398447	0.590838	0.090814
	C199	C	0.400976	0.401863	0.905351
	C200	C	0.088931	0.595356	0.398561
	C201	C	0.906997	0.591735	0.593187
	C202	C	0.088073	0.397965	0.593644
	C203	C	0.905110	0.397231	0.400941
	C204	C	0.896379	0.589315	0.093934
	C205	C	0.092769	0.404582	0.092416
	C206	C	0.091641	0.586562	0.902994
	C207	C	0.898177	0.403927	0.902952
	C208	C	0.092171	0.900072	0.591457
	C209	C	0.093447	0.089824	0.405714
	C210	C	0.901261	0.089986	0.591711
	C211	C	0.899314	0.899328	0.405194
	C212	C	0.587276	0.094935	0.901044
	C213	C	0.403120	0.094441	0.096959
	C214	C	0.586535	0.896545	0.097188
	C215	C	0.405579	0.901396	0.904550
	Zn216	Zn	0.496778	-0.003749	0.747941
	Zn217	Zn	0.495546	-0.004823	0.250423
	Zn218	Zn	0.744726	0.496729	-0.002707
	Zn219	Zn	0.245950	0.496267	-0.002634
	Zn220	Zn	-0.002799	0.747194	0.497565
	Zn221	Zn	-0.002327	0.243894	0.496923
	Zn222	Zn	-0.003528	0.494739	0.748879
	Zn223	Zn	-0.003786	0.496105	0.246606
	Zn224	Zn	0.494959	0.744685	-0.000945
	Zn225	Zn	0.495782	0.247097	-0.001215
	Zn226	Zn	0.747749	-0.005602	0.499448
	Zn227	Zn	0.246123	-0.005123	0.499663
	N228	N	0.411923	0.959023	0.677047
	N229	N	0.581798	0.032214	0.675563
	N230	N	0.581949	0.958541	0.321133
	N231	N	0.412876	0.032597	0.323412
	N232	N	0.676790	0.408166	0.962871
	N233	N	0.674810	0.583059	0.033478
	N234	N	0.315179	0.584416	0.961981
	N235	N	0.316296	0.409216	0.033736
	N236	N	0.962394	0.678611	0.408520
	N237	N	0.032622	0.676817	0.585612
	N238	N	0.962299	0.312988	0.585347
	N239	N	0.031401	0.313111	0.407490
	N240	N	0.961197	0.407697	0.677608
	N241	N	0.033232	0.581044	0.677693
	N242	N	0.960440	0.582156	0.318319
	N243	N	0.032785	0.411005	0.318675
	N244	N	0.407896	0.676451	0.962330
	N245	N	0.579773	0.672780	0.035185
	N246	N	0.582752	0.317079	0.962439
	N247	N	0.411336	0.318899	0.035352
	N248	N	0.678923	0.959724	0.410590
	N249	N	0.679536	0.028889	0.588444
	N250	N	0.313698	0.961023	0.589668
	N251	N	0.314740	0.030064	0.410599
	N252	N	0.909509	0.459919	0.176422
	N253	N	0.078613	0.533913	0.172545
	N254	N	0.080766	0.457947	0.821112
	N255	N	0.911094	0.532341	0.819358
	N256	N	0.178432	0.906711	0.464271
	N257	N	0.176703	0.081860	0.534743
	N258	N	0.818277	0.080944	0.463102
	N259	N	0.815993	0.905698	0.534494
	N260	N	0.461000	0.178851	0.909613
	N261	N	0.530603	0.176401	0.086281
	N262	N	0.460060	0.812599	0.089160
	N263	N	0.530513	0.815482	0.912092
	N264	N	0.459037	0.908684	0.180015
	N265	N	0.531680	0.079787	0.176878
	N266	N	0.460486	0.083932	0.817318
	N267	N	0.532581	0.911288	0.820874
	N268	N	0.912322	0.172425	0.461403
	N269	N	0.084586	0.174838	0.533638
	N270	N	0.082171	0.818796	0.461319
	N271	N	0.911485	0.816387	0.535212
	N272	N	0.179975	0.462178	0.906719
	N273	N	0.177532	0.530912	0.086309
	N274	N	0.813752	0.461658	0.086037
	N275	N	0.813692	0.530694	0.908124
	O276	O	0.427341	0.356513	0.370650
	H277	H	0.440442	0.364157	0.378068
	H278	H	0.420448	0.345204	0.372411
	O279	O	0.701328	0.288802	0.475069
	H280	H	0.691812	0.280701	0.454682
	H281	H	0.713107	0.290149	0.466854
	O282	O	0.327356	0.493552	0.690834
	H283	H	0.327399	0.498076	0.707196
	H284	H	0.327622	0.496603	0.687108
	O285	O	0.975516	1.061932	-0.012676
	H286	H	0.985259	1.072948	-0.022998
	H287	H	0.980978	1.050795	-0.021783
	O288	O	0.463534	0.360548	0.707010
	H289	H	0.446754	0.359588	0.710677
	H290	H	0.456192	0.349566	0.719682
	O291	O	0.292989	0.537159	0.584852
	H292	H	0.293213	0.535162	0.572039
	H293	H	0.304888	0.527905	0.596576
	O294	O	0.823472	0.802174	1.045908
	H295	H	0.818926	0.803513	1.056789
	H296	H	0.811188	0.793584	1.037068
	O297	O	0.299726	0.302469	0.505294
	H298	H	0.291450	0.305539	0.535231
	H299	H	0.289515	0.293467	0.494318
	O300	O	0.323312	0.490191	0.355140
	H301	H	0.324320	0.490170	0.341678
	H302	H	0.334525	0.482757	0.352492
	O303	O	0.496252	0.688770	0.682555
	H304	H	0.497447	0.688274	0.674587
	H305	H	0.491890	0.689141	0.697359
	O306	O	0.103590	0.014879	0.874315
	H307	H	0.123770	0.008108	0.876685
	H308	H	0.109298	0.020536	0.881818
	O309	O	1.121657	-0.042288	0.060887
	H310	H	1.124883	-0.065383	0.071954
	H311	H	1.121274	-0.039535	0.059187
	O312	O	0.641863	0.442715	0.592794
	H313	H	0.640310	0.420540	0.581067
	H314	H	0.640939	0.435696	0.578400
	O315	O	0.600017	0.676022	0.368609
	H316	H	0.591995	0.671189	0.388953
	H317	H	0.597469	0.664392	0.367004
	O318	O	0.039911	-0.160087	0.033014
	H319	H	0.024265	-0.174294	0.042119
	H320	H	0.043577	-0.159644	0.031557
	O321	O	0.688924	0.303844	0.307751
	H322	H	0.651241	0.301897	0.311051
	H323	H	0.695804	0.291573	0.297854
	O324	O	0.935986	0.013139	0.859968
	H325	H	0.945701	0.010766	0.854619
	H326	H	0.938881	0.018885	0.874329
	O327	O	0.707804	0.519345	0.706027
	H328	H	0.726127	0.523473	0.728535
	H329	H	0.708052	0.520626	0.694583
	O330	O	0.094271	0.934773	1.076308
	H331	H	0.085297	0.923245	1.077905
	H332	H	0.090519	0.927661	1.076136
	O333	O	-0.064664	1.144631	-0.130623
	H334	H	-0.057635	1.143544	-0.138548
	H335	H	-0.065625	1.155515	-0.124923
	O336	O	0.828580	1.136002	0.163098
	H337	H	0.848346	1.120992	0.161511
	H338	H	0.823368	1.134457	0.143483
	O339	O	0.170713	0.966889	1.163042
	H340	H	0.175856	0.950437	1.158733
	H341	H	0.158487	0.956168	1.160704
	O342	O	0.453498	0.695743	0.506278
	H343	H	0.449657	0.697788	0.510220
	H344	H	0.445852	0.695494	0.493209
	O345	O	-0.052507	0.143317	0.811731
	H346	H	-0.058769	0.158614	0.803053
	H347	H	-0.033042	0.140214	0.811389
	O348	O	0.313768	0.315917	0.664852
	H349	H	0.312304	0.347083	0.664268
	H350	H	0.325172	0.321536	0.670836
	O351	O	1.008481	0.971923	0.041968
	H352	H	1.007664	0.966571	0.029989
	H353	H	1.011906	0.982970	0.045260
	O354	O	0.953672	1.044256	0.941832
	H355	H	0.957197	1.054559	0.940870
	H356	H	0.944083	1.038212	0.948743
	O357	O	-0.069131	0.158311	0.092668
	H358	H	-0.087760	0.176728	0.099898
	H359	H	-0.065469	0.146259	0.086305
	O360	O	0.515427	0.292049	0.586704
	H361	H	0.510623	0.298981	0.585261
	H362	H	0.520057	0.277640	0.594689
	O363	O	0.991561	0.012576	0.023049
	H364	H	1.000561	0.021689	0.011033
	H365	H	1.010524	0.007185	0.023762
	O366	O	-0.030042	0.038917	1.168816
	H367	H	-0.031871	0.036799	1.177617
	H368	H	-0.035253	0.034515	1.149461
	O369	O	0.788387	0.077140	0.792361
	H370	H	0.765342	0.100446	0.776284
	H371	H	0.786941	0.086726	0.788453
	O372	O	0.570665	0.486106	0.594619
	H373	H	0.563422	0.486614	0.575470
	H374	H	0.592712	0.477930	0.597097
	O375	O	0.175797	-0.147984	0.813133
	H376	H	0.173564	-0.138141	0.804570
	H377	H	0.151281	-0.126918	0.809629
	O378	O	0.578184	0.675556	0.536868
	H379	H	0.586875	0.684883	0.551440
	H380	H	0.575048	0.675986	0.525177
	O381	O	-0.022912	1.040128	-0.033871
	H382	H	-0.030163	1.043388	-0.030195
	H383	H	-0.008404	1.039796	-0.033266
	O384	O	0.677662	0.519667	0.563424
	H385	H	0.669827	0.524873	0.555918
	H386	H	0.667774	0.525295	0.567935
	O387	O	0.662770	0.679094	0.675151
	H388	H	0.652149	0.683583	0.658500
	H389	H	0.659775	0.665957	0.680665
	O390	O	0.907323	0.841129	0.184150
	H391	H	0.881579	0.855519	0.192170
	H392	H	0.921278	0.820158	0.206248
	O393	O	0.901477	0.116963	0.883791
	H394	H	0.898157	0.128125	0.876778
	H395	H	0.913661	0.105493	0.898766
	O396	O	0.626572	0.522078	0.381348
	H397	H	0.617880	0.526658	0.389192
	H398	H	0.633294	0.526075	0.401685
	O399	O	0.447654	0.458633	0.462612
	H400	H	0.458242	0.468718	0.450814
	H401	H	0.434101	0.456777	0.468086
	O402	O	0.882853	1.036763	0.144843
	H403	H	0.876587	1.017351	0.151784
	H404	H	0.869732	1.045053	0.119114
	O405	O	0.285586	0.650133	0.465785
	H406	H	0.259013	0.679549	0.471877
	H407	H	0.281348	0.628208	0.471133
	O408	O	0.699127	0.486326	0.338718
	H409	H	0.698652	0.466456	0.349715
	H410	H	0.714791	0.482376	0.319253
	O411	O	0.826792	0.880223	1.072545
	H412	H	0.821528	0.885740	1.055577
	H413	H	0.806099	0.876159	1.087789
	O414	O	0.311915	0.651724	0.356668
	H415	H	0.332422	0.631909	0.359124
	H416	H	0.297323	0.666299	0.382105
	O417	O	0.200757	0.792318	0.935497
	H418	H	0.188168	0.785960	0.920843
	H419	H	0.214409	0.794543	0.919016
	O420	O	-0.000151	0.826843	0.814500
	H421	H	-0.008573	0.820000	0.828006
	H422	H	-0.010950	0.852824	0.806907
	O423	O	0.204016	1.191583	0.090947
	H424	H	0.192288	1.190246	0.112510
	H425	H	0.222558	1.192194	0.102402
	O426	O	0.419124	0.536163	0.297863
	H427	H	0.427762	0.538057	0.307311
	H428	H	0.426976	0.556943	0.285820
	O429	O	0.453780	0.674454	0.369740
	H430	H	0.435814	0.665474	0.373276
	H431	H	0.467594	0.690487	0.358739
	O432	O	0.520400	0.298088	0.324105
	H433	H	0.501082	0.304005	0.319526
	H434	H	0.515397	0.287740	0.337926
	O435	O	0.205124	0.225474	0.222120
	H436	H	0.181271	0.212037	0.229356
	H437	H	0.201116	0.207955	0.221273
	O438	O	0.008852	0.944290	0.939304
	H439	H	0.025543	0.938653	0.946144
	H440	H	0.004245	0.952356	0.921873
	O441	O	0.520623	0.460223	0.586050
	H442	H	0.533957	0.465893	0.597350
	H443	H	0.537280	0.448698	0.573988
