data_Molecule from HDF5

_cell_length_a		16.296521
_cell_length_b		16.333519
_cell_length_c		16.214838
_cell_angle_alpha	89.983905
_cell_angle_beta	89.956547
_cell_angle_gamma	90.063483
_symmetry_space_group_name_H-M	'P 1'
_symmetry_Int_Tables_number		1

loop_
	_symmetry_equiv_pos_as_xyz
	x,y,z

loop_
	_atom_site_label
	_atom_site_type_symbol
	_atom_site_fract_x
	_atom_site_fract_y
	_atom_site_fract_z
	H0	H	0.408231	0.844733	0.717018
	H1	H	0.603577	0.172450	0.714700
	H2	H	0.604265	0.845660	0.286713
	H3	H	0.410860	0.173414	0.290729
	H4	H	0.721393	0.411549	0.840029
	H5	H	0.718468	0.606671	0.168679
	H6	H	0.290910	0.608173	0.838311
	H7	H	0.292648	0.410768	0.167090
	H8	H	0.842126	0.722601	0.404926
	H9	H	0.169056	0.723578	0.602736
	H10	H	0.842215	0.292562	0.603252
	H11	H	0.169233	0.293830	0.404182
	H12	H	0.841518	0.411355	0.716241
	H13	H	0.169497	0.605655	0.716992
	H14	H	0.841750	0.604689	0.290540
	H15	H	0.168939	0.410182	0.289083
	H16	H	0.407580	0.723048	0.838205
	H17	H	0.604526	0.723963	0.166814
	H18	H	0.606014	0.295564	0.839234
	H19	H	0.407773	0.294577	0.166760
	H20	H	0.721643	0.845334	0.402579
	H21	H	0.720936	0.171380	0.600248
	H22	H	0.289290	0.845500	0.602879
	H23	H	0.290211	0.171248	0.402228
	H24	H	0.908697	0.343915	0.216111
	H25	H	0.103817	0.671248	0.218462
	H26	H	0.104498	0.344792	0.788820
	H27	H	0.907444	0.671382	0.788457
	H28	H	0.220631	0.909249	0.337389
	H29	H	0.220629	0.106251	0.666486
	H30	H	0.793639	0.105496	0.338029
	H31	H	0.791956	0.909623	0.666825
	H32	H	0.342697	0.224184	0.902269
	H33	H	0.669795	0.222814	0.099320
	H34	H	0.343747	0.791854	0.103582
	H35	H	0.669731	0.793838	0.902739
	H36	H	0.341631	0.912632	0.215228
	H37	H	0.669157	0.107962	0.215695
	H38	H	0.342499	0.106459	0.786817
	H39	H	0.670895	0.912990	0.789252
	H40	H	0.907802	0.222589	0.338818
	H41	H	0.104542	0.222079	0.666673
	H42	H	0.105526	0.792617	0.338613
	H43	H	0.907794	0.794212	0.667525
	H44	H	0.220050	0.345541	0.905760
	H45	H	0.221660	0.671215	0.103985
	H46	H	0.790206	0.345889	0.102797
	H47	H	0.792520	0.672463	0.905939
	H48	H	0.413686	0.123369	0.594234
	H49	H	0.600615	0.889779	0.601357
	H50	H	0.598183	0.124597	0.408345
	H51	H	0.416518	0.890741	0.399502
	H52	H	0.591276	0.415803	0.118460
	H53	H	0.605458	0.601815	0.884265
	H54	H	0.412508	0.603912	0.120428
	H55	H	0.414545	0.415047	0.885667
	H56	H	0.119806	0.601188	0.415657
	H57	H	0.886434	0.604840	0.601157
	H58	H	0.119933	0.417117	0.593783
	H59	H	0.887664	0.415714	0.405889
	H60	H	0.122850	0.415144	0.599392
	H61	H	0.890347	0.605549	0.590912
	H62	H	0.121251	0.596612	0.408805
	H63	H	0.888155	0.409263	0.412795
	H64	H	0.411758	0.598519	0.118684
	H65	H	0.598069	0.597055	0.888178
	H66	H	0.601212	0.407811	0.123442
	H67	H	0.411602	0.416037	0.885585
	H68	H	0.603179	0.124677	0.411123
	H69	H	0.594364	0.894306	0.593710
	H70	H	0.414206	0.123651	0.593120
	H71	H	0.419401	0.896970	0.416046
	H72	H	0.917889	0.621839	0.093799
	H73	H	0.090434	0.396337	0.092323
	H74	H	0.100593	0.625583	0.908619
	H75	H	0.911810	0.394383	0.916581
	H76	H	0.102111	0.918959	0.619008
	H77	H	0.100021	0.095659	0.386320
	H78	H	0.912679	0.100256	0.620666
	H79	H	0.921210	0.920067	0.389545
	H80	H	0.624777	0.101402	0.899231
	H81	H	0.390548	0.099473	0.093693
	H82	H	0.624597	0.914201	0.099865
	H83	H	0.388883	0.916279	0.904267
	H84	H	0.622405	0.912052	0.089945
	H85	H	0.387271	0.104306	0.101211
	H86	H	0.624922	0.112483	0.910615
	H87	H	0.389693	0.911524	0.913079
	H88	H	0.914002	0.100295	0.618747
	H89	H	0.093307	0.103646	0.386256
	H90	H	0.094452	0.917953	0.616722
	H91	H	0.915790	0.905422	0.383158
	H92	H	0.095030	0.623963	0.909023
	H93	H	0.109525	0.390683	0.089999
	H94	H	0.905351	0.625915	0.094236
	H95	H	0.907672	0.389846	0.907610
	H96	H	0.412873	0.123661	0.592749
	H97	H	0.603906	0.892020	0.591510
	H98	H	0.602754	0.127048	0.405891
	H99	H	0.403608	0.890263	0.411233
	H100	H	0.603837	0.420890	0.121223
	H101	H	0.597018	0.606536	0.885972
	H102	H	0.417017	0.601142	0.118042
	H103	H	0.414059	0.418441	0.886594
	H104	H	0.123376	0.604451	0.408900
	H105	H	0.891163	0.595949	0.596411
	H106	H	0.121984	0.411386	0.594199
	H107	H	0.891135	0.417985	0.414328
	H108	H	0.913652	0.627028	0.104259
	H109	H	0.100499	0.388306	0.107559
	H110	H	0.099145	0.623194	0.914166
	H111	H	0.917609	0.393890	0.907936
	H112	H	0.099417	0.911928	0.619596
	H113	H	0.103159	0.105553	0.382811
	H114	H	0.913629	0.101689	0.619944
	H115	H	0.905317	0.918371	0.384602
	H116	H	0.619520	0.097963	0.913861
	H117	H	0.388114	0.108843	0.093110
	H118	H	0.619932	0.921528	0.093423
	H119	H	0.393403	0.921280	0.912796
	C120	C	0.384476	0.016182	0.623494
	C121	C	0.628037	1.000002	0.623724
	C122	C	0.628867	0.016847	0.379856
	C123	C	0.384567	1.000569	0.380267
	C124	C	0.627310	0.387815	0.012190
	C125	C	0.628030	0.630624	0.994844
	C126	C	0.384761	0.630163	0.010815
	C127	C	0.385006	0.387696	0.994310
	C128	C	0.013929	0.629441	0.382251
	C129	C	0.997345	0.630231	0.624772
	C130	C	0.013630	0.386085	0.624668
	C131	C	0.997173	0.386139	0.382150
	C132	C	0.884072	0.516723	0.125605
	C133	C	0.128090	0.499804	0.125272
	C134	C	0.127345	0.516778	0.881580
	C135	C	0.884214	0.500634	0.881852
	C136	C	0.127696	0.887189	0.510171
	C137	C	0.127383	0.129769	0.493888
	C138	C	0.884986	0.129497	0.511176
	C139	C	0.885280	0.886277	0.494332
	C140	C	0.514619	0.131641	0.879506
	C141	C	0.497121	0.131710	0.123717
	C142	C	0.514396	0.887359	0.123846
	C143	C	0.498327	0.887680	0.881171
	C144	C	0.386974	0.893728	0.679604
	C145	C	0.624729	0.123225	0.677703
	C146	C	0.624859	0.894274	0.324933
	C147	C	0.388771	0.124092	0.326939
	C148	C	0.683108	0.390865	0.888613
	C149	C	0.681804	0.627805	0.119006
	C150	C	0.329085	0.628085	0.887482
	C151	C	0.330471	0.390455	0.118118
	C152	C	0.891124	0.685121	0.383922
	C153	C	0.120374	0.685765	0.623123
	C154	C	0.890960	0.330680	0.622979
	C155	C	0.120324	0.331377	0.384187
	C156	C	0.890506	0.389701	0.679367
	C157	C	0.120708	0.626732	0.679468
	C158	C	0.890705	0.626173	0.327433
	C159	C	0.120333	0.389323	0.327084
	C160	C	0.387013	0.685538	0.887272
	C161	C	0.624998	0.685745	0.118176
	C162	C	0.625963	0.332935	0.888400
	C163	C	0.387362	0.332639	0.117874
	C164	C	0.683244	0.894043	0.382345
	C165	C	0.682794	0.122950	0.620542
	C166	C	0.328401	0.893936	0.622500
	C167	C	0.329019	0.122970	0.382620
	C168	C	0.887453	0.393239	0.179372
	C169	C	0.124879	0.622614	0.180680
	C170	C	0.124806	0.393677	0.826711
	C171	C	0.886992	0.622823	0.826485
	C172	C	0.182727	0.889161	0.386516
	C173	C	0.182798	0.126873	0.617426
	C174	C	0.830879	0.126507	0.387180
	C175	C	0.830142	0.889393	0.618058
	C176	C	0.391606	0.186215	0.881959
	C177	C	0.620609	0.185728	0.120563
	C178	C	0.392029	0.831046	0.122981
	C179	C	0.621094	0.832284	0.882951
	C180	C	0.390970	0.891068	0.178468
	C181	C	0.620354	0.128549	0.178168
	C182	C	0.391419	0.127766	0.824742
	C183	C	0.621893	0.891160	0.826445
	C184	C	0.887470	0.184663	0.387503
	C185	C	0.125285	0.184331	0.617670
	C186	C	0.125870	0.831009	0.387243
	C187	C	0.887466	0.831868	0.618312
	C188	C	0.182316	0.394026	0.884483
	C189	C	0.183396	0.622558	0.123464
	C190	C	0.828649	0.394143	0.123071
	C191	C	0.829708	0.623299	0.884711
	C192	C	0.407177	0.101540	0.600285
	C193	C	0.606152	0.914127	0.601805
	C194	C	0.607724	0.102998	0.401904
	C195	C	0.406556	0.914719	0.402290
	C196	C	0.605275	0.408744	0.098643
	C197	C	0.606419	0.608676	0.908478
	C198	C	0.407255	0.607912	0.096754
	C199	C	0.406930	0.410000	0.908468
	C200	C	0.099501	0.607400	0.404621
	C201	C	0.911464	0.608628	0.602685
	C202	C	0.099424	0.408264	0.602282
	C203	C	0.911263	0.407760	0.404276
	C204	C	0.905851	0.602688	0.103888
	C205	C	0.106399	0.413884	0.103221
	C206	C	0.105019	0.602144	0.903872
	C207	C	0.906082	0.414706	0.904195
	C208	C	0.105246	0.909751	0.596112
	C209	C	0.105252	0.108234	0.407531
	C210	C	0.907062	0.107308	0.597452
	C211	C	0.907481	0.908266	0.408005
	C212	C	0.600770	0.110321	0.901509
	C213	C	0.411072	0.110369	0.102454
	C214	C	0.600147	0.909505	0.101356
	C215	C	0.412760	0.909807	0.903517
	Zn216	Zn	0.506593	0.008662	0.752111
	Zn217	Zn	0.505840	0.009697	0.251818
	Zn218	Zn	0.755654	0.508859	0.004410
	Zn219	Zn	0.256416	0.508822	0.002897
	Zn220	Zn	0.006281	0.758540	0.503051
	Zn221	Zn	0.005702	0.257385	0.502979
	Zn222	Zn	0.005568	0.508065	0.752806
	Zn223	Zn	0.005504	0.507874	0.253577
	Zn224	Zn	0.506715	0.758527	0.002309
	Zn225	Zn	0.506219	0.259637	0.002538
	Zn226	Zn	0.757005	0.008071	0.502252
	Zn227	Zn	0.255632	0.008076	0.501527
	N228	N	0.421286	0.970798	0.680121
	N229	N	0.591276	0.045803	0.679575
	N230	N	0.591771	0.971791	0.323468
	N231	N	0.422547	0.046948	0.325547
	N232	N	0.683973	0.424130	0.966505
	N233	N	0.683688	0.593964	0.041435
	N234	N	0.327375	0.594670	0.965393
	N235	N	0.328876	0.424185	0.040387
	N236	N	0.968718	0.687099	0.417340
	N237	N	0.042756	0.688021	0.589885
	N238	N	0.968624	0.328446	0.589702
	N239	N	0.042776	0.329642	0.418011
	N240	N	0.967764	0.423399	0.680497
	N241	N	0.043441	0.593010	0.680549
	N242	N	0.967966	0.592235	0.326307
	N243	N	0.042946	0.422747	0.325662
	N244	N	0.420953	0.686896	0.964817
	N245	N	0.592339	0.687507	0.039949
	N246	N	0.591921	0.331009	0.966037
	N247	N	0.420431	0.330665	0.039991
	N248	N	0.685954	0.971463	0.415618
	N249	N	0.684892	0.045288	0.587620
	N250	N	0.326601	0.971125	0.588606
	N251	N	0.326238	0.045048	0.414791
	N252	N	0.921205	0.470533	0.181002
	N253	N	0.091206	0.545249	0.181924
	N254	N	0.091326	0.471105	0.824742
	N255	N	0.920199	0.545435	0.824746
	N256	N	0.184009	0.923093	0.464024
	N257	N	0.184182	0.093488	0.539510
	N258	N	0.829377	0.092646	0.465053
	N259	N	0.828607	0.922529	0.540041
	N260	N	0.469358	0.188854	0.915041
	N261	N	0.543054	0.187676	0.087318
	N262	N	0.469687	0.828688	0.089745
	N263	N	0.543365	0.829977	0.916023
	N264	N	0.468119	0.925419	0.179103
	N265	N	0.542720	0.095438	0.180089
	N266	N	0.468943	0.094533	0.823198
	N267	N	0.544547	0.925038	0.825143
	N268	N	0.920386	0.186489	0.465563
	N269	N	0.091694	0.186392	0.539964
	N270	N	0.092133	0.829679	0.465136
	N271	N	0.920950	0.829899	0.540468
	N272	N	0.184152	0.471394	0.917770
	N273	N	0.185627	0.545179	0.090048
	N274	N	0.826452	0.471896	0.090468
	N275	N	0.827735	0.546095	0.918389
	O276	O	0.456287	0.527175	0.487801
	H277	H	0.453533	0.532489	0.487717
	H278	H	0.458068	0.529641	0.490871
	O279	O	0.054120	-0.107287	-0.006883
	H280	H	0.051885	-0.108573	-0.007228
	H281	H	0.035464	-0.111106	-0.015901
	O282	O	0.458741	0.495782	0.503118
	H283	H	0.455579	0.495553	0.501710
	H284	H	0.457723	0.492988	0.503119
	O285	O	0.415892	0.495563	0.499052
	H286	H	0.416193	0.495359	0.508806
	H287	H	0.414463	0.494501	0.500456
	O288	O	1.053068	-0.092105	-0.028978
	H289	H	1.054313	-0.083000	-0.029685
	H290	H	1.063199	-0.102740	-0.035416
	O291	O	-0.569774	0.505777	-0.397296
	H292	H	-0.573848	0.494527	-0.391376
	H293	H	-0.574481	0.505631	-0.399068
	O294	O	0.458412	0.500764	0.476508
	H295	H	0.468321	0.506266	0.483100
	H296	H	0.461998	0.505209	0.475488
	O297	O	0.086263	0.924381	-0.019676
	H298	H	0.092937	0.921720	-0.010110
	H299	H	0.088155	0.925136	-0.025198
	O300	O	1.060577	-0.083244	0.970935
	H301	H	1.065714	-0.086621	0.971768
	H302	H	1.059036	-0.088846	0.971520
	O303	O	0.475665	0.477624	0.568646
	H304	H	0.460334	0.474436	0.562464
	H305	H	0.475702	0.482317	0.559641
	O306	O	0.036381	0.913289	0.986242
	H307	H	0.043027	0.911878	0.985982
	H308	H	0.032393	0.914487	0.988952
	O309	O	0.447989	0.515374	0.500836
	H310	H	0.445647	0.510319	0.503601
	H311	H	0.445206	0.511600	0.497547
