data_Molecule from HDF5

_cell_length_a		16.273934
_cell_length_b		16.269264
_cell_length_c		16.312633
_cell_angle_alpha	90.022690
_cell_angle_beta	90.074291
_cell_angle_gamma	89.845319
_symmetry_space_group_name_H-M	'P 1'
_symmetry_Int_Tables_number		1

loop_
	_symmetry_equiv_pos_as_xyz
	x,y,z

loop_
	_atom_site_label
	_atom_site_type_symbol
	_atom_site_fract_x
	_atom_site_fract_y
	_atom_site_fract_z
	H0	H	0.401881	0.836466	0.714229
	H1	H	0.597843	0.163709	0.714987
	H2	H	0.597550	0.836240	0.287612
	H3	H	0.401508	0.163513	0.285378
	H4	H	0.715029	0.400449	0.836577
	H5	H	0.714048	0.596519	0.163261
	H6	H	0.285288	0.598244	0.837013
	H7	H	0.286779	0.402989	0.164195
	H8	H	0.836502	0.714286	0.401747
	H9	H	0.163667	0.713244	0.597360
	H10	H	0.835355	0.286206	0.596489
	H11	H	0.163552	0.285139	0.401607
	H12	H	0.835758	0.401616	0.714412
	H13	H	0.163612	0.597611	0.713868
	H14	H	0.836867	0.597895	0.285596
	H15	H	0.163693	0.400375	0.285079
	H16	H	0.402259	0.713498	0.836472
	H17	H	0.597632	0.712956	0.163671
	H18	H	0.598354	0.284740	0.836875
	H19	H	0.402198	0.286082	0.163449
	H20	H	0.713879	0.836494	0.402486
	H21	H	0.713050	0.164624	0.597076
	H22	H	0.286639	0.836001	0.597830
	H23	H	0.285327	0.164386	0.402008
	H24	H	0.902302	0.336394	0.213846
	H25	H	0.098951	0.663679	0.215553
	H26	H	0.099169	0.336386	0.785419
	H27	H	0.901601	0.663596	0.785796
	H28	H	0.214665	0.902180	0.337132
	H29	H	0.213659	0.098657	0.663985
	H30	H	0.784352	0.099987	0.336912
	H31	H	0.785657	0.902782	0.662706
	H32	H	0.336184	0.212997	0.902831
	H33	H	0.664606	0.212848	0.097332
	H34	H	0.335927	0.786235	0.097473
	H35	H	0.663773	0.785574	0.903054
	H36	H	0.336165	0.901960	0.214398
	H37	H	0.663685	0.097853	0.214595
	H38	H	0.335888	0.097580	0.786335
	H39	H	0.663661	0.900971	0.786521
	H40	H	0.901933	0.214459	0.335931
	H41	H	0.097829	0.214946	0.662804
	H42	H	0.097808	0.786294	0.336182
	H43	H	0.901609	0.785510	0.662868
	H44	H	0.213906	0.335892	0.902996
	H45	H	0.212143	0.664578	0.097066
	H46	H	0.787538	0.336043	0.097033
	H47	H	0.786234	0.663697	0.902231
	H48	H	0.400480	0.116914	0.588351
	H49	H	0.589585	0.882982	0.599238
	H50	H	0.593657	0.119744	0.400490
	H51	H	0.402080	0.881262	0.404231
	H52	H	0.587641	0.393160	0.118074
	H53	H	0.584119	0.587514	0.887719
	H54	H	0.404633	0.596650	0.117576
	H55	H	0.406677	0.422076	0.888779
	H56	H	0.114163	0.590003	0.412946
	H57	H	0.885529	0.590321	0.590812
	H58	H	0.113566	0.414879	0.595246
	H59	H	0.880456	0.406621	0.397059
	H60	H	0.119666	0.400845	0.599064
	H61	H	0.882452	0.592646	0.596279
	H62	H	0.117619	0.588680	0.401847
	H63	H	0.882769	0.399281	0.411520
	H64	H	0.404443	0.591422	0.116591
	H65	H	0.592222	0.603522	0.880515
	H66	H	0.608727	0.407442	0.120728
	H67	H	0.419859	0.396879	0.884970
	H68	H	0.585946	0.115239	0.408847
	H69	H	0.590450	0.886331	0.587943
	H70	H	0.404248	0.120081	0.601475
	H71	H	0.410921	0.883802	0.403432
	H72	H	0.905017	0.616279	0.090808
	H73	H	0.099086	0.381106	0.095299
	H74	H	0.102134	0.618017	0.911009
	H75	H	0.904250	0.383360	0.912275
	H76	H	0.098321	0.917519	0.614818
	H77	H	0.095057	0.098853	0.380803
	H78	H	0.911727	0.097603	0.615562
	H79	H	0.914820	0.912947	0.387525
	H80	H	0.618046	0.086188	0.897675
	H81	H	0.386762	0.080941	0.096249
	H82	H	0.616514	0.906096	0.092439
	H83	H	0.387029	0.917077	0.908421
	H84	H	0.615823	0.907846	0.093478
	H85	H	0.378323	0.101167	0.101891
	H86	H	0.620144	0.103364	0.905396
	H87	H	0.379018	0.904083	0.896382
	H88	H	0.900961	0.096013	0.618916
	H89	H	0.098158	0.087921	0.383549
	H90	H	0.081989	0.904954	0.613843
	H91	H	0.907135	0.896980	0.380505
	H92	H	0.091956	0.620255	0.895956
	H93	H	0.087831	0.383634	0.097264
	H94	H	0.905915	0.618546	0.096637
	H95	H	0.904018	0.381262	0.900488
	H96	H	0.413868	0.114493	0.592744
	H97	H	0.599655	0.881513	0.593662
	H98	H	0.597785	0.117387	0.411471
	H99	H	0.407248	0.885433	0.411587
	H100	H	0.587053	0.417936	0.110879
	H101	H	0.602819	0.587354	0.882293
	H102	H	0.409408	0.594065	0.116446
	H103	H	0.392096	0.399584	0.877485
	H104	H	0.119252	0.599010	0.406848
	H105	H	0.882415	0.596484	0.591187
	H106	H	0.114199	0.403755	0.584661
	H107	H	0.887189	0.415070	0.409687
	H108	H	0.910622	0.616096	0.093145
	H109	H	0.092644	0.385807	0.086739
	H110	H	0.084529	0.612830	0.911416
	H111	H	0.914274	0.384493	0.905545
	H112	H	0.100117	0.898142	0.620885
	H113	H	0.086792	0.091964	0.385639
	H114	H	0.906566	0.087169	0.613698
	H115	H	0.896534	0.911981	0.382046
	H116	H	0.612987	0.090024	0.915280
	H117	H	0.385988	0.097059	0.081287
	H118	H	0.617195	0.906122	0.094953
	H119	H	0.383236	0.899317	0.914978
	C120	C	0.378666	0.008401	0.621678
	C121	C	0.621546	0.992114	0.621792
	C122	C	0.620849	0.008817	0.379176
	C123	C	0.378332	0.991912	0.378350
	C124	C	0.622281	0.377836	0.008328
	C125	C	0.621398	0.621099	0.991507
	C126	C	0.377976	0.622011	0.008761
	C127	C	0.378484	0.378378	0.991950
	C128	C	0.008705	0.621228	0.378644
	C129	C	0.991310	0.621585	0.621466
	C130	C	0.007532	0.378150	0.621108
	C131	C	0.991850	0.378120	0.378020
	C132	C	0.878869	0.508534	0.121698
	C133	C	0.121666	0.491840	0.121767
	C134	C	0.121564	0.508402	0.878264
	C135	C	0.878848	0.491427	0.878188
	C136	C	0.121901	0.878428	0.508652
	C137	C	0.121593	0.121656	0.491502
	C138	C	0.878281	0.122145	0.508109
	C139	C	0.878210	0.879016	0.491023
	C140	C	0.508618	0.121438	0.878108
	C141	C	0.491843	0.121434	0.121876
	C142	C	0.508154	0.878538	0.121517
	C143	C	0.491494	0.878419	0.878712
	C144	C	0.381344	0.885263	0.676570
	C145	C	0.618611	0.115023	0.676832
	C146	C	0.618123	0.885230	0.324909
	C147	C	0.380752	0.114974	0.323088
	C148	C	0.676878	0.380200	0.885249
	C149	C	0.675824	0.617755	0.114703
	C150	C	0.323104	0.618786	0.885752
	C151	C	0.324116	0.381856	0.115045
	C152	C	0.885389	0.676541	0.380995
	C153	C	0.114749	0.676023	0.618585
	C154	C	0.884212	0.323571	0.617669
	C155	C	0.114818	0.322923	0.380888
	C156	C	0.884484	0.380882	0.676038
	C157	C	0.114794	0.618275	0.676042
	C158	C	0.885469	0.618652	0.323648
	C159	C	0.114905	0.380401	0.323208
	C160	C	0.380811	0.676366	0.885410
	C161	C	0.618299	0.675609	0.114843
	C162	C	0.618609	0.323164	0.885342
	C163	C	0.381762	0.324121	0.114979
	C164	C	0.675901	0.885392	0.382032
	C165	C	0.675530	0.115435	0.618172
	C166	C	0.324128	0.885185	0.618730
	C167	C	0.323459	0.115447	0.381188
	C168	C	0.882101	0.385272	0.176122
	C169	C	0.119120	0.614995	0.176902
	C170	C	0.119719	0.385167	0.823331
	C171	C	0.881208	0.614611	0.823413
	C172	C	0.176576	0.881386	0.385452
	C173	C	0.176013	0.119023	0.614925
	C174	C	0.822686	0.120074	0.385309
	C175	C	0.823488	0.882065	0.614353
	C176	C	0.385085	0.175784	0.881675
	C177	C	0.615323	0.175583	0.118541
	C178	C	0.384679	0.824138	0.118101
	C179	C	0.614902	0.823421	0.881787
	C180	C	0.385060	0.881157	0.176456
	C181	C	0.615022	0.118333	0.176722
	C182	C	0.385106	0.118407	0.823776
	C183	C	0.614799	0.880722	0.823895
	C184	C	0.881153	0.176718	0.384970
	C185	C	0.118262	0.176562	0.614541
	C186	C	0.118799	0.823618	0.385297
	C187	C	0.881092	0.824020	0.614198
	C188	C	0.176842	0.385043	0.881598
	C189	C	0.175784	0.615283	0.118580
	C190	C	0.825058	0.385114	0.117914
	C191	C	0.823902	0.614779	0.881148
	C192	C	0.399819	0.094772	0.600340
	C193	C	0.599685	0.905693	0.600029
	C194	C	0.598879	0.095152	0.400518
	C195	C	0.400256	0.905897	0.400052
	C196	C	0.600803	0.399670	0.094473
	C197	C	0.599421	0.599332	0.905664
	C198	C	0.399830	0.600336	0.094772
	C199	C	0.399869	0.399838	0.905724
	C200	C	0.094759	0.599164	0.400667
	C201	C	0.905654	0.599599	0.599335
	C202	C	0.093609	0.400156	0.599536
	C203	C	0.905598	0.400441	0.399725
	C204	C	0.900720	0.594729	0.099887
	C205	C	0.099695	0.405649	0.099712
	C206	C	0.099217	0.594579	0.899753
	C207	C	0.900926	0.405368	0.899972
	C208	C	0.099876	0.900446	0.594365
	C209	C	0.099734	0.099411	0.405354
	C210	C	0.899969	0.100023	0.593913
	C211	C	0.899879	0.900752	0.405473
	C212	C	0.594801	0.099568	0.899821
	C213	C	0.405828	0.099547	0.099690
	C214	C	0.594335	0.900271	0.100022
	C215	C	0.405478	0.900252	0.900231
	Zn216	Zn	0.499793	-0.000239	0.750180
	Zn217	Zn	0.500071	-0.000181	0.250718
	Zn218	Zn	0.750587	0.499674	-0.000077
	Zn219	Zn	0.249664	0.500020	0.000489
	Zn220	Zn	0.000163	0.750230	0.499913
	Zn221	Zn	0.000029	0.249647	0.499630
	Zn222	Zn	-0.000053	0.499450	0.749718
	Zn223	Zn	0.000268	0.500126	0.249971
	Zn224	Zn	0.500116	0.749693	-0.000233
	Zn225	Zn	0.500415	0.249768	0.000363
	Zn226	Zn	0.749773	0.000568	0.499569
	Zn227	Zn	0.250188	0.000944	0.500330
	N228	N	0.414409	0.963060	0.678667
	N229	N	0.585619	0.037322	0.678832
	N230	N	0.584638	0.962940	0.323125
	N231	N	0.413892	0.037210	0.321146
	N232	N	0.679147	0.413551	0.962750
	N233	N	0.677850	0.584587	0.037227
	N234	N	0.321373	0.585787	0.963307
	N235	N	0.322113	0.415087	0.037643
	N236	N	0.963054	0.678284	0.414307
	N237	N	0.037179	0.678090	0.585261
	N238	N	0.961778	0.321733	0.584405
	N239	N	0.037190	0.321478	0.414185
	N240	N	0.962036	0.414101	0.678114
	N241	N	0.037191	0.585126	0.677972
	N242	N	0.962967	0.585117	0.322059
	N243	N	0.037395	0.413944	0.321338
	N244	N	0.414388	0.678362	0.962805
	N245	N	0.585198	0.677672	0.037284
	N246	N	0.585296	0.321803	0.962776
	N247	N	0.414655	0.321699	0.037367
	N248	N	0.677821	0.963218	0.414972
	N249	N	0.677469	0.037825	0.584765
	N250	N	0.322546	0.962660	0.585243
	N251	N	0.321745	0.038024	0.414736
	N252	N	0.914825	0.463069	0.178481
	N253	N	0.085954	0.537264	0.178881
	N254	N	0.086058	0.462784	0.821247
	N255	N	0.914652	0.536934	0.821439
	N256	N	0.178668	0.914772	0.462970
	N257	N	0.178079	0.085551	0.537416
	N258	N	0.820653	0.087055	0.462821
	N259	N	0.821809	0.915720	0.537050
	N260	N	0.462836	0.177669	0.914910
	N261	N	0.537697	0.177428	0.085082
	N262	N	0.462127	0.822325	0.084589
	N263	N	0.537434	0.821919	0.915175
	N264	N	0.462731	0.914350	0.178634
	N265	N	0.537306	0.085504	0.179043
	N266	N	0.462897	0.085589	0.821428
	N267	N	0.537157	0.914345	0.822077
	N268	N	0.914897	0.178056	0.462226
	N269	N	0.085372	0.178195	0.536824
	N270	N	0.085365	0.821873	0.462663
	N271	N	0.914289	0.822040	0.536843
	N272	N	0.178149	0.462693	0.914862
	N273	N	0.177491	0.537720	0.085088
	N274	N	0.823056	0.462810	0.084725
	N275	N	0.822271	0.537264	0.914455
