data_Molecule from HDF5

_cell_length_a		16.480263
_cell_length_b		16.452543
_cell_length_c		16.364727
_cell_angle_alpha	89.850438
_cell_angle_beta	90.126603
_cell_angle_gamma	89.954776
_symmetry_space_group_name_H-M	'P 1'
_symmetry_Int_Tables_number		1

loop_
	_symmetry_equiv_pos_as_xyz
	x,y,z

loop_
	_atom_site_label
	_atom_site_type_symbol
	_atom_site_fract_x
	_atom_site_fract_y
	_atom_site_fract_z
	H0	H	0.402539	0.827684	0.720345
	H1	H	0.612774	0.144453	0.724023
	H2	H	0.610884	0.829508	0.278962
	H3	H	0.394648	0.143856	0.274450
	H4	H	0.725956	0.382727	0.841187
	H5	H	0.729844	0.594001	0.157542
	H6	H	0.283370	0.594204	0.842301
	H7	H	0.278602	0.373246	0.155746
	H8	H	0.848491	0.709755	0.390301
	H9	H	0.163036	0.708685	0.604824
	H10	H	0.848351	0.263513	0.608345
	H11	H	0.159857	0.259124	0.388698
	H12	H	0.847851	0.382493	0.721005
	H13	H	0.162589	0.593443	0.721885
	H14	H	0.849492	0.595163	0.273437
	H15	H	0.161539	0.376856	0.274366
	H16	H	0.397528	0.710418	0.842904
	H17	H	0.613997	0.709990	0.157617
	H18	H	0.611364	0.266181	0.841819
	H19	H	0.396931	0.260991	0.157148
	H20	H	0.727769	0.830155	0.393756
	H21	H	0.730810	0.143605	0.609880
	H22	H	0.281554	0.829330	0.608950
	H23	H	0.278793	0.143648	0.390507
	H24	H	0.895817	0.331010	0.226788
	H25	H	0.114157	0.642957	0.222506
	H26	H	0.112666	0.329028	0.776281
	H27	H	0.901087	0.644075	0.778788
	H28	H	0.230102	0.877130	0.342147
	H29	H	0.228541	0.094851	0.657518
	H30	H	0.779790	0.095211	0.342014
	H31	H	0.786107	0.881704	0.658686
	H32	H	0.348744	0.211170	0.891698
	H33	H	0.661721	0.209728	0.110995
	H34	H	0.348674	0.761092	0.109641
	H35	H	0.660156	0.763856	0.894632
	H36	H	0.348734	0.877199	0.225492
	H37	H	0.660491	0.095061	0.227097
	H38	H	0.348785	0.095343	0.776157
	H39	H	0.662795	0.883005	0.781094
	H40	H	0.894009	0.212645	0.342393
	H41	H	0.114581	0.211544	0.656591
	H42	H	0.112310	0.764393	0.341242
	H43	H	0.901556	0.765570	0.657353
	H44	H	0.231202	0.329726	0.890426
	H45	H	0.231427	0.642474	0.108140
	H46	H	0.778411	0.331972	0.112724
	H47	H	0.782968	0.642854	0.892406
	H48	H	0.412156	0.101891	0.593018
	H49	H	0.599873	0.872314	0.593348
	H50	H	0.592806	0.098232	0.417274
	H51	H	0.411434	0.873152	0.414887
	H52	H	0.596744	0.397031	0.116474
	H53	H	0.591768	0.571680	0.888617
	H54	H	0.423112	0.567765	0.109764
	H55	H	0.417626	0.404967	0.889691
	H56	H	0.115797	0.569503	0.411763
	H57	H	0.892605	0.577822	0.585644
	H58	H	0.119717	0.394929	0.587540
	H59	H	0.893924	0.400456	0.412308
	H60	H	0.116064	0.398999	0.582693
	H61	H	0.892603	0.574071	0.590355
	H62	H	0.120250	0.577787	0.406249
	H63	H	0.894321	0.399568	0.414591
	H64	H	0.421166	0.579735	0.114947
	H65	H	0.592483	0.579945	0.886008
	H66	H	0.593502	0.402834	0.112250
	H67	H	0.425010	0.397726	0.889218
	H68	H	0.592156	0.100094	0.412268
	H69	H	0.591287	0.875000	0.592805
	H70	H	0.423839	0.096502	0.587136
	H71	H	0.418201	0.873715	0.408971
	H72	H	0.921748	0.595215	0.081108
	H73	H	0.088030	0.378476	0.081440
	H74	H	0.096904	0.598392	0.911655
	H75	H	0.919538	0.373036	0.910655
	H76	H	0.092014	0.903844	0.609930
	H77	H	0.093892	0.074496	0.385426
	H78	H	0.913911	0.070764	0.611626
	H79	H	0.920523	0.896699	0.385564
	H80	H	0.621749	0.082267	0.908174
	H81	H	0.388922	0.081460	0.090179
	H82	H	0.615470	0.902605	0.086894
	H83	H	0.392408	0.900248	0.914039
	H84	H	0.617929	0.898567	0.092506
	H85	H	0.397248	0.073928	0.075251
	H86	H	0.616332	0.076850	0.919353
	H87	H	0.390655	0.899682	0.907615
	H88	H	0.922951	0.073458	0.610345
	H89	H	0.090134	0.066954	0.390580
	H90	H	0.088031	0.894094	0.611840
	H91	H	0.910104	0.895962	0.382060
	H92	H	0.094946	0.599349	0.909571
	H93	H	0.098056	0.373818	0.082205
	H94	H	0.914420	0.599370	0.083204
	H95	H	0.914475	0.372607	0.913801
	H96	H	0.412115	0.098110	0.579465
	H97	H	0.596461	0.875384	0.585252
	H98	H	0.588164	0.097807	0.414729
	H99	H	0.419221	0.877897	0.416913
	H100	H	0.589761	0.396350	0.112843
	H101	H	0.598683	0.574429	0.884678
	H102	H	0.411960	0.570876	0.114895
	H103	H	0.415487	0.396131	0.885437
	H104	H	0.117010	0.579167	0.416648
	H105	H	0.890349	0.579335	0.590811
	H106	H	0.117586	0.401071	0.589943
	H107	H	0.895056	0.401750	0.413792
	H108	H	0.921109	0.598571	0.089187
	H109	H	0.091064	0.373538	0.090978
	H110	H	0.094053	0.598215	0.911900
	H111	H	0.914813	0.370549	0.908319
	H112	H	0.097776	0.896437	0.614821
	H113	H	0.085003	0.074870	0.389274
	H114	H	0.916861	0.079359	0.614386
	H115	H	0.913765	0.905097	0.386560
	H116	H	0.617991	0.069792	0.908065
	H117	H	0.395107	0.063903	0.090676
	H118	H	0.617068	0.895553	0.085860
	H119	H	0.390349	0.894786	0.911529
	C120	C	0.383691	-0.005191	0.620742
	C121	C	0.628568	0.978334	0.623369
	C122	C	0.624496	-0.005114	0.381018
	C123	C	0.381886	0.978225	0.378358
	C124	C	0.626666	0.365538	0.009258
	C125	C	0.627163	0.608255	0.991066
	C126	C	0.385137	0.606952	0.008906
	C127	C	0.384468	0.364526	0.991572
	C128	C	0.014189	0.608767	0.377066
	C129	C	0.996336	0.609285	0.621163
	C130	C	0.013910	0.365291	0.620702
	C131	C	0.996901	0.365334	0.377996
	C132	C	0.884551	0.494997	0.120558
	C133	C	0.127415	0.477873	0.119969
	C134	C	0.128328	0.495019	0.877269
	C135	C	0.884582	0.477026	0.878525
	C136	C	0.126132	0.865260	0.507723
	C137	C	0.124768	0.106935	0.491844
	C138	C	0.882932	0.108806	0.508102
	C139	C	0.883474	0.866061	0.489799
	C140	C	0.514738	0.109568	0.877818
	C141	C	0.496534	0.107588	0.121533
	C142	C	0.513438	0.864476	0.122502
	C143	C	0.495475	0.866264	0.879335
	C144	C	0.382497	0.875756	0.681603
	C145	C	0.631005	0.096981	0.684001
	C146	C	0.628354	0.876919	0.319417
	C147	C	0.377401	0.096413	0.315433
	C148	C	0.686597	0.363670	0.889404
	C149	C	0.689257	0.611706	0.109962
	C150	C	0.323773	0.611327	0.890013
	C151	C	0.320479	0.358032	0.108808
	C152	C	0.895787	0.669718	0.372735
	C153	C	0.115327	0.668879	0.623313
	C154	C	0.895620	0.304176	0.624993
	C155	C	0.113506	0.300839	0.372194
	C156	C	0.895169	0.363400	0.681230
	C157	C	0.115225	0.611417	0.681803
	C158	C	0.896435	0.612397	0.314679
	C159	C	0.114196	0.359677	0.315164
	C160	C	0.380493	0.669521	0.890488
	C161	C	0.631417	0.669540	0.110143
	C162	C	0.629394	0.305578	0.889717
	C163	C	0.379445	0.301650	0.109776
	C164	C	0.686616	0.877053	0.376682
	C165	C	0.689777	0.096515	0.627091
	C166	C	0.322735	0.876380	0.625477
	C167	C	0.319583	0.096382	0.373358
	C168	C	0.879151	0.377950	0.185116
	C169	C	0.131769	0.595882	0.182177
	C170	C	0.131259	0.376497	0.815995
	C171	C	0.882711	0.596405	0.818518
	C172	C	0.188586	0.860792	0.389443
	C173	C	0.187709	0.111625	0.609906
	C174	C	0.820090	0.113247	0.389654
	C175	C	0.825124	0.863311	0.610268
	C176	C	0.396252	0.170744	0.874113
	C177	C	0.614467	0.169479	0.127539
	C178	C	0.395723	0.801832	0.126978
	C179	C	0.613802	0.805185	0.876723
	C180	C	0.395620	0.860053	0.184524
	C181	C	0.613585	0.112426	0.185848
	C182	C	0.396311	0.113291	0.816045
	C183	C	0.614938	0.864305	0.820250
	C184	C	0.877397	0.171493	0.389670
	C185	C	0.130583	0.169927	0.609402
	C186	C	0.130047	0.804349	0.388636
	C187	C	0.882743	0.805666	0.609793
	C188	C	0.190069	0.376754	0.873171
	C189	C	0.190557	0.595229	0.125453
	C190	C	0.820429	0.378335	0.128300
	C191	C	0.823986	0.595821	0.875325
	C192	C	0.408995	0.077410	0.594199
	C193	C	0.603156	0.895581	0.597673
	C194	C	0.598371	0.077172	0.407244
	C195	C	0.408747	0.896436	0.405708
	C196	C	0.600903	0.391464	0.092262
	C197	C	0.601486	0.582851	0.908129
	C198	C	0.411390	0.580463	0.091661
	C199	C	0.411536	0.391781	0.909301
	C200	C	0.096342	0.582831	0.403690
	C201	C	0.913553	0.584335	0.596202
	C202	C	0.096179	0.391071	0.594314
	C203	C	0.915731	0.392591	0.405583
	C204	C	0.911516	0.576422	0.092670
	C205	C	0.100208	0.396522	0.092912
	C206	C	0.102795	0.577081	0.903486
	C207	C	0.909229	0.393863	0.903751
	C208	C	0.100137	0.890957	0.590382
	C209	C	0.097277	0.079851	0.409648
	C210	C	0.910041	0.082134	0.590533
	C211	C	0.907826	0.891691	0.406496
	C212	C	0.596996	0.083728	0.904109
	C213	C	0.415156	0.080701	0.093366
	C214	C	0.595499	0.891051	0.096074
	C215	C	0.412799	0.891093	0.904099
	Zn216	Zn	0.505113	-0.013068	0.750181
	Zn217	Zn	0.504350	-0.013357	0.250317
	Zn218	Zn	0.755341	0.486443	-0.000379
	Zn219	Zn	0.256463	0.485922	-0.000590
	Zn220	Zn	0.005346	0.737459	0.498424
	Zn221	Zn	0.004730	0.236675	0.499555
	Zn222	Zn	0.005424	0.486469	0.749364
	Zn223	Zn	0.005956	0.486924	0.249000
	Zn224	Zn	0.504774	0.736391	0.000733
	Zn225	Zn	0.505790	0.236618	0.000815
	Zn226	Zn	0.755486	-0.012654	0.499958
	Zn227	Zn	0.253792	-0.013943	0.500190
	N228	N	0.419724	0.950561	0.678754
	N229	N	0.593608	0.022374	0.681879
	N230	N	0.590251	0.951210	0.321992
	N231	N	0.415389	0.022067	0.318455
	N232	N	0.685325	0.399720	0.965084
	N233	N	0.686655	0.574369	0.035029
	N234	N	0.326393	0.573082	0.964762
	N235	N	0.323700	0.396700	0.034228
	N236	N	0.970057	0.667680	0.410804
	N237	N	0.040467	0.667575	0.586374
	N238	N	0.970558	0.305105	0.588167
	N239	N	0.039296	0.303990	0.410307
	N240	N	0.969789	0.400312	0.678712
	N241	N	0.040227	0.574968	0.680575
	N242	N	0.971082	0.575063	0.317447
	N243	N	0.040740	0.398993	0.318595
	N244	N	0.417881	0.666875	0.965558
	N245	N	0.593445	0.667657	0.035216
	N246	N	0.592924	0.306642	0.965275
	N247	N	0.418435	0.305729	0.035860
	N248	N	0.684367	0.951540	0.414235
	N249	N	0.688249	0.021697	0.590135
	N250	N	0.323550	0.951414	0.588419
	N251	N	0.322092	0.021927	0.411631
	N252	N	0.918263	0.451543	0.180517
	N253	N	0.093401	0.521710	0.179175
	N254	N	0.093524	0.450954	0.818327
	N255	N	0.919830	0.521604	0.820466
	N256	N	0.186213	0.897891	0.464541
	N257	N	0.184040	0.072994	0.535534
	N258	N	0.823391	0.075223	0.464545
	N259	N	0.825302	0.899855	0.534866
	N260	N	0.470900	0.168733	0.911633
	N261	N	0.540678	0.166601	0.088219
	N262	N	0.470164	0.804441	0.089198
	N263	N	0.538702	0.806164	0.912839
	N264	N	0.469683	0.898108	0.181820
	N265	N	0.539237	0.074800	0.182304
	N266	N	0.471070	0.076165	0.817954
	N267	N	0.540345	0.901430	0.821749
	N268	N	0.915569	0.169022	0.464386
	N269	N	0.092211	0.167182	0.534857
	N270	N	0.091670	0.807082	0.463123
	N271	N	0.918014	0.806863	0.533676
	N272	N	0.188458	0.451328	0.910383
	N273	N	0.188051	0.520893	0.087675
	N274	N	0.823689	0.451966	0.088802
	N275	N	0.825047	0.520571	0.912011
	O276	O	0.699273	0.375846	0.307572
	H277	H	0.693967	0.391132	0.289810
	H278	H	0.688916	0.402227	0.314059
	O279	O	1.179844	-0.061340	1.009761
	H280	H	1.170820	-0.041539	0.998071
	H281	H	1.187262	-0.051750	1.010770
	O282	O	0.523033	0.285108	0.295338
	H283	H	0.526982	0.267628	0.314014
	H284	H	0.525451	0.266040	0.288771
	O285	O	0.717090	0.567660	0.430428
	H286	H	0.708065	0.584409	0.444286
	H287	H	0.726352	0.558654	0.429129
	O288	O	1.213544	0.948633	-0.210369
	H289	H	1.238524	0.941496	-0.231950
	H290	H	1.207627	0.911263	-0.205728
	O291	O	0.286804	0.386296	0.461565
	H292	H	0.282969	0.406298	0.463730
	H293	H	0.289193	0.407096	0.434121
	O294	O	-0.048116	0.210224	1.053778
	H295	H	-0.062374	0.218593	1.045956
	H296	H	-0.037510	0.201781	1.053805
	O297	O	0.290096	0.467699	1.717019
	H298	H	0.282143	0.432577	1.724454
	H299	H	0.275160	0.445719	1.726964
	O300	O	0.326022	0.665551	0.323918
	H301	H	0.339469	0.645393	0.321275
	H302	H	0.313097	0.643188	0.341673
	O303	O	-0.027167	-0.045759	0.802300
	H304	H	-0.039490	-0.049227	0.801069
	H305	H	-0.029331	-0.054290	0.811003
	O306	O	0.557417	0.545710	0.281926
	H307	H	0.570686	0.555560	0.278592
	H308	H	0.551408	0.559170	0.300667
	O309	O	0.699542	0.678776	0.692463
	H310	H	0.685998	0.688644	0.665641
	H311	H	0.705162	0.675346	0.702398
	O312	O	-0.199640	0.933445	0.942964
	H313	H	-0.198629	0.931575	0.971488
	H314	H	-0.196002	0.917680	0.956344
	O315	O	0.510436	0.437484	0.531579
	H316	H	0.521460	0.427112	0.533705
	H317	H	0.506893	0.452865	0.529764
	O318	O	1.039594	0.036594	-0.010423
	H319	H	1.046178	0.047072	-0.031973
	H320	H	1.042772	0.016395	-0.018830
	O321	O	0.130414	0.159836	-0.029633
	H322	H	0.126870	0.174993	-0.032558
	H323	H	0.114465	0.148417	-0.044958
	O324	O	1.001577	0.844129	0.144816
	H325	H	1.006981	0.871112	0.168611
	H326	H	1.002670	0.852986	0.153534
	O327	O	0.705206	0.281398	0.415039
	H328	H	0.707562	0.298534	0.390981
	H329	H	0.724609	0.270809	0.416255
	O330	O	-0.180981	1.173266	-0.180768
	H331	H	-0.188437	1.129789	-0.180948
	H332	H	-0.153207	1.173404	-0.188111
	O333	O	0.420813	0.437798	0.281053
	H334	H	0.449594	0.462544	0.289411
	H335	H	0.442509	0.395369	0.282037
	O336	O	0.017147	-0.199456	-0.204698
	H337	H	0.008887	-0.216472	-0.186228
	H338	H	0.027913	-0.201744	-0.214636
	O339	O	-0.018766	1.203709	0.784153
	H340	H	-0.011831	1.183376	0.774929
	H341	H	-0.025216	1.225282	0.753624
	O342	O	0.325517	1.312138	0.678015
	H343	H	0.377441	1.300343	0.687549
	H344	H	0.316123	1.299904	0.624612
	O345	O	1.224389	1.005565	0.218627
	H346	H	1.246482	1.024213	0.242406
	H347	H	1.226603	1.045691	0.217702
	O348	O	0.317912	0.693944	0.481910
	H349	H	0.298813	0.703921	0.477339
	H350	H	0.337782	0.701432	0.480232
	O351	O	0.552546	1.665480	1.477885
	H352	H	0.542827	1.662603	1.474470
	H353	H	0.548149	1.664394	1.475451
	O354	O	0.167507	0.801445	-0.194065
	H355	H	0.142135	0.787762	-0.189917
	H356	H	0.186124	0.780999	-0.170266
	O357	O	-0.147138	-0.212729	0.855201
	H358	H	-0.148244	-0.194014	0.860714
	H359	H	-0.135342	-0.210387	0.877336
	O360	O	0.439167	0.542261	0.704871
	H361	H	0.454137	0.536476	0.701069
	H362	H	0.400130	0.527353	0.717883
	O363	O	-0.198651	0.009577	0.791462
	H364	H	-0.209485	-0.004567	0.786799
	H365	H	-0.206971	-0.004550	0.803045
	O366	O	0.484596	0.697130	0.293070
	H367	H	0.472845	0.701133	0.281066
	H368	H	0.472731	0.704453	0.287890
	O369	O	0.719485	0.699233	-0.473162
	H370	H	0.741290	0.717530	-0.472867
	H371	H	0.700598	0.702350	-0.480162
	O372	O	1.026413	0.204302	1.212520
	H373	H	1.007078	0.191309	1.223192
	H374	H	1.018706	0.231516	1.228513
	O375	O	0.009569	0.985270	1.209976
	H376	H	0.029222	0.988118	1.206471
	H377	H	0.040677	0.984480	1.204721
	O378	O	0.989846	0.906817	0.986879
	H379	H	0.989242	0.907698	0.979237
	H380	H	0.980276	0.905018	0.991006
	O381	O	0.715982	0.377539	0.513869
	H382	H	0.714050	0.387222	0.510622
	H383	H	0.722366	0.354277	0.513118
	O384	O	-0.202779	0.917501	1.070385
	H385	H	-0.208750	0.923448	1.068227
	H386	H	-0.195559	0.914454	1.068188
	O387	O	0.101050	-0.175925	0.993866
	H388	H	0.111363	-0.178688	1.016444
	H389	H	0.109592	-0.162991	1.000450
	O390	O	0.148054	0.083496	0.084955
	H391	H	0.128288	0.064322	0.068119
	H392	H	0.185515	0.106230	0.088193
	O393	O	1.105906	0.929052	1.057042
	H394	H	1.116350	0.919281	1.047384
	H395	H	1.109906	0.908181	1.047332
	O396	O	0.305681	0.497894	0.287692
	H397	H	0.280275	0.495761	0.248477
	H398	H	0.350600	0.478006	0.279739
	O399	O	0.491621	0.264965	0.478783
	H400	H	0.474525	0.270738	0.495578
	H401	H	0.488848	0.274621	0.493705
	O402	O	1.211469	0.825607	1.007787
	H403	H	1.233935	0.818750	1.015922
	H404	H	1.215062	0.859207	1.025179
	O405	O	0.641138	0.477613	-0.621228
	H406	H	0.619769	0.493150	-0.624022
	H407	H	0.657848	0.485046	-0.601727
	O408	O	1.068838	0.077327	-0.185433
	H409	H	1.111641	0.060620	-0.192449
	H410	H	1.043826	0.064884	-0.192267
	O411	O	1.185169	1.160927	0.176932
	H412	H	1.132337	1.175905	0.186749
	H413	H	1.195191	1.173623	0.123993
	O414	O	0.531450	0.575423	0.514692
	H415	H	0.535089	0.567728	0.535159
	H416	H	0.523888	0.589879	0.514150
	O417	O	0.297737	1.515944	-0.468163
	H418	H	0.285623	1.527832	-0.469027
	H419	H	0.309581	1.514729	-0.447358
	O420	O	-0.113593	0.017270	0.213178
	H421	H	-0.116960	0.007770	0.225240
	H422	H	-0.102704	0.011360	0.205511
	O423	O	0.484614	0.273652	0.710623
	H424	H	0.505674	0.274049	0.686912
	H425	H	0.491077	0.245592	0.738301
	O426	O	-0.129127	1.043120	1.043886
	H427	H	-0.131576	1.073400	1.038791
	H428	H	-0.111690	1.045853	1.051207
	O429	O	0.628408	0.321915	0.572050
	H430	H	0.643876	0.335665	0.577593
	H431	H	0.633746	0.316864	0.551333
	O432	O	0.548720	0.458491	0.673435
	H433	H	0.547184	0.479424	0.683898
	H434	H	0.550904	0.439173	0.672997
	O435	O	0.710789	0.507877	0.704363
	H436	H	0.718578	0.514801	0.722964
	H437	H	0.706521	0.518463	0.696824
	O438	O	-0.184566	-0.212924	0.076809
	H439	H	-0.192523	-0.200759	0.089401
	H440	H	-0.175449	-0.220118	0.080165
	O441	O	0.880957	-0.147939	0.205002
	H442	H	0.867453	-0.160360	0.211289
	H443	H	0.875318	-0.125304	0.183079
	O444	O	0.786195	0.208439	0.979594
	H445	H	0.785469	0.211930	0.944353
	H446	H	0.773889	0.237894	0.982042
	O447	O	0.381696	0.684479	0.591455
	H448	H	0.391606	0.673684	0.610314
	H449	H	0.389510	0.682346	0.562812
	O450	O	0.531449	0.690338	0.704720
	H451	H	0.511807	0.684176	0.711506
	H452	H	0.547827	0.698861	0.716669
	O453	O	0.340324	0.272866	0.491925
	H454	H	0.326485	0.274859	0.481869
	H455	H	0.341032	0.286070	0.472569
