data_Molecule from HDF5

_cell_length_a		16.419034
_cell_length_b		16.090670
_cell_length_c		16.164594
_cell_angle_alpha	89.983470
_cell_angle_beta	90.548460
_cell_angle_gamma	89.975197
_symmetry_space_group_name_H-M	'P 1'
_symmetry_Int_Tables_number		1

loop_
	_symmetry_equiv_pos_as_xyz
	x,y,z

loop_
	_atom_site_label
	_atom_site_type_symbol
	_atom_site_fract_x
	_atom_site_fract_y
	_atom_site_fract_z
	H0	H	0.408582	0.836501	0.701531
	H1	H	0.602763	0.167330	0.704235
	H2	H	0.598664	0.835786	0.279863
	H3	H	0.404644	0.167308	0.277346
	H4	H	0.718221	0.399244	0.826978
	H5	H	0.722802	0.607570	0.152298
	H6	H	0.284835	0.604371	0.826675
	H7	H	0.284897	0.401135	0.154170
	H8	H	0.840838	0.717936	0.390140
	H9	H	0.166198	0.716204	0.590372
	H10	H	0.839719	0.287024	0.586617
	H11	H	0.166005	0.286046	0.391863
	H12	H	0.840681	0.401358	0.704066
	H13	H	0.164856	0.601555	0.707369
	H14	H	0.839922	0.601913	0.274099
	H15	H	0.164906	0.402384	0.274743
	H16	H	0.403817	0.715210	0.825665
	H17	H	0.598730	0.712086	0.157872
	H18	H	0.597604	0.289503	0.825677
	H19	H	0.407293	0.291339	0.157216
	H20	H	0.716522	0.836571	0.391357
	H21	H	0.721141	0.165612	0.595081
	H22	H	0.289062	0.837991	0.591342
	H23	H	0.285218	0.165571	0.386734
	H24	H	0.905646	0.337756	0.200366
	H25	H	0.099203	0.668848	0.202449
	H26	H	0.097581	0.336883	0.779980
	H27	H	0.904310	0.668886	0.775287
	H28	H	0.218500	0.899200	0.327378
	H29	H	0.222269	0.104859	0.654166
	H30	H	0.783404	0.103251	0.328051
	H31	H	0.789937	0.900097	0.655853
	H32	H	0.339430	0.217037	0.890586
	H33	H	0.665383	0.218266	0.092327
	H34	H	0.339560	0.788310	0.086922
	H35	H	0.665233	0.786475	0.894847
	H36	H	0.339954	0.903139	0.204409
	H37	H	0.665109	0.102022	0.209427
	H38	H	0.342005	0.102538	0.771833
	H39	H	0.666368	0.904122	0.778761
	H40	H	0.905293	0.212247	0.324053
	H41	H	0.099544	0.212613	0.656895
	H42	H	0.097358	0.790505	0.324852
	H43	H	0.910927	0.790380	0.656799
	H44	H	0.217226	0.339740	0.887505
	H45	H	0.217664	0.667511	0.092789
	H46	H	0.786535	0.339774	0.090816
	H47	H	0.785063	0.667487	0.886884
	H48	H	0.411246	0.119172	0.577800
	H49	H	0.603116	0.879585	0.591766
	H50	H	0.597683	0.117758	0.408867
	H51	H	0.409335	0.881369	0.393192
	H52	H	0.591355	0.417587	0.104232
	H53	H	0.594512	0.581128	0.877618
	H54	H	0.405690	0.589040	0.107409
	H55	H	0.410161	0.408419	0.873733
	H56	H	0.118376	0.591780	0.394338
	H57	H	0.888706	0.599598	0.571376
	H58	H	0.117489	0.413459	0.585786
	H59	H	0.887641	0.410471	0.394287
	H60	H	0.120437	0.404907	0.589151
	H61	H	0.889919	0.585015	0.582479
	H62	H	0.120760	0.598295	0.393122
	H63	H	0.886363	0.406467	0.391740
	H64	H	0.413431	0.594379	0.107954
	H65	H	0.581694	0.601528	0.873810
	H66	H	0.594852	0.404982	0.109748
	H67	H	0.403655	0.410011	0.872258
	H68	H	0.598980	0.121764	0.396539
	H69	H	0.591039	0.884320	0.585056
	H70	H	0.409310	0.121590	0.581439
	H71	H	0.412483	0.885448	0.400328
	H72	H	0.914741	0.617068	0.071447
	H73	H	0.093998	0.381629	0.093568
	H74	H	0.093725	0.620598	0.901442
	H75	H	0.913039	0.384338	0.890661
	H76	H	0.097292	0.904945	0.609405
	H77	H	0.091469	0.094631	0.373694
	H78	H	0.912229	0.095498	0.608560
	H79	H	0.912220	0.905735	0.373691
	H80	H	0.618214	0.097381	0.901720
	H81	H	0.384847	0.105063	0.081844
	H82	H	0.619193	0.901521	0.084205
	H83	H	0.385578	0.911837	0.888340
	H84	H	0.615867	0.912641	0.082011
	H85	H	0.390706	0.090697	0.077240
	H86	H	0.618500	0.093938	0.898126
	H87	H	0.385387	0.902556	0.896404
	H88	H	0.908767	0.093200	0.609485
	H89	H	0.099278	0.095474	0.371532
	H90	H	0.103737	0.912429	0.609145
	H91	H	0.900287	0.908526	0.370402
	H92	H	0.097630	0.624179	0.897147
	H93	H	0.084875	0.390224	0.074956
	H94	H	0.898614	0.624361	0.079260
	H95	H	0.911219	0.388533	0.905308
	H96	H	0.413514	0.120980	0.581585
	H97	H	0.602229	0.884203	0.577933
	H98	H	0.588266	0.118204	0.399490
	H99	H	0.404528	0.882914	0.401168
	H100	H	0.603684	0.414931	0.109224
	H101	H	0.604406	0.600862	0.867661
	H102	H	0.405511	0.597834	0.110904
	H103	H	0.407471	0.415197	0.874661
	H104	H	0.118248	0.596421	0.399874
	H105	H	0.883574	0.601075	0.589103
	H106	H	0.118300	0.405443	0.579985
	H107	H	0.887210	0.407049	0.396405
	H108	H	0.915266	0.624172	0.091449
	H109	H	0.105398	0.383490	0.074713
	H110	H	0.091706	0.622018	0.895369
	H111	H	0.900225	0.382822	0.897437
	H112	H	0.094790	0.914084	0.607166
	H113	H	0.096993	0.087432	0.374877
	H114	H	0.911706	0.091186	0.607452
	H115	H	0.907521	0.917405	0.375409
	H116	H	0.620437	0.098439	0.897838
	H117	H	0.385612	0.093201	0.092340
	H118	H	0.620897	0.910377	0.093015
	H119	H	0.389643	0.913757	0.899907
	C120	C	0.383403	0.011110	0.610233
	C121	C	0.626699	0.992466	0.613928
	C122	C	0.622714	0.010040	0.372055
	C123	C	0.380354	0.992568	0.368972
	C124	C	0.624199	0.382070	-0.000871
	C125	C	0.623314	0.624010	0.982065
	C126	C	0.379617	0.623410	-0.000277
	C127	C	0.379388	0.381553	0.982106
	C128	C	0.011480	0.624457	0.367174
	C129	C	0.994740	0.623848	0.611203
	C130	C	0.011057	0.379481	0.611998
	C131	C	0.994705	0.379239	0.366789
	C132	C	0.881246	0.512559	0.109855
	C133	C	0.123449	0.494379	0.110864
	C134	C	0.122301	0.512506	0.869435
	C135	C	0.879608	0.494527	0.867507
	C136	C	0.125570	0.880708	0.499673
	C137	C	0.125356	0.122762	0.482075
	C138	C	0.881208	0.122629	0.499731
	C139	C	0.880747	0.880893	0.482264
	C140	C	0.511857	0.125201	0.868818
	C141	C	0.494586	0.124843	0.113774
	C142	C	0.510736	0.879942	0.113310
	C143	C	0.494445	0.880266	0.868221
	C144	C	0.387118	0.886275	0.664916
	C145	C	0.623652	0.117364	0.667982
	C146	C	0.619730	0.885360	0.316784
	C147	C	0.383205	0.117424	0.313783
	C148	C	0.679107	0.381608	0.875617
	C149	C	0.681861	0.624708	0.104522
	C150	C	0.323442	0.623401	0.875705
	C151	C	0.323706	0.381967	0.105415
	C152	C	0.889299	0.679959	0.369434
	C153	C	0.117170	0.678661	0.610190
	C154	C	0.888734	0.324166	0.607915
	C155	C	0.117123	0.323744	0.370781
	C156	C	0.889063	0.381070	0.666541
	C157	C	0.116658	0.621626	0.668632
	C158	C	0.888898	0.622212	0.311754
	C159	C	0.116584	0.381733	0.312455
	C160	C	0.382285	0.678784	0.875390
	C161	C	0.620285	0.676981	0.107026
	C162	C	0.619303	0.326815	0.874985
	C163	C	0.384523	0.327236	0.107019
	C164	C	0.678378	0.885790	0.372191
	C165	C	0.682390	0.116639	0.613581
	C166	C	0.327770	0.886999	0.610076
	C167	C	0.323971	0.116437	0.368427
	C168	C	0.884245	0.387638	0.163960
	C169	C	0.120551	0.618923	0.166249
	C170	C	0.118712	0.387043	0.815873
	C171	C	0.882712	0.618921	0.811880
	C172	C	0.179930	0.880721	0.376004
	C173	C	0.182461	0.122882	0.605477
	C174	C	0.823569	0.121872	0.376416
	C175	C	0.827510	0.881013	0.606509
	C176	C	0.388858	0.180136	0.869973
	C177	C	0.616834	0.180207	0.112421
	C178	C	0.388130	0.825851	0.108602
	C179	C	0.616689	0.824677	0.873479
	C180	C	0.388369	0.883138	0.166588
	C181	C	0.616590	0.122454	0.170867
	C182	C	0.389870	0.123154	0.811066
	C183	C	0.617518	0.883336	0.815825
	C184	C	0.883747	0.176429	0.374485
	C185	C	0.121840	0.177081	0.606772
	C186	C	0.119575	0.827032	0.374601
	C187	C	0.887690	0.826422	0.606993
	C188	C	0.178303	0.388524	0.869427
	C189	C	0.179136	0.618455	0.111085
	C190	C	0.825339	0.388647	0.109315
	C191	C	0.823712	0.618560	0.867579
	C192	C	0.405058	0.098144	0.587131
	C193	C	0.605149	0.905328	0.591567
	C194	C	0.601277	0.096656	0.395004
	C195	C	0.402363	0.905658	0.391587
	C196	C	0.602928	0.405648	0.085330
	C197	C	0.600384	0.601053	0.895313
	C198	C	0.401733	0.600355	0.086191
	C199	C	0.400754	0.404698	0.895824
	C200	C	0.097092	0.602060	0.389364
	C201	C	0.909418	0.601744	0.587819
	C202	C	0.096408	0.401443	0.591182
	C203	C	0.909301	0.401402	0.387982
	C204	C	0.903154	0.599438	0.087354
	C205	C	0.101363	0.407597	0.087838
	C206	C	0.100674	0.599602	0.891730
	C207	C	0.901567	0.407618	0.890969
	C208	C	0.104766	0.903718	0.586095
	C209	C	0.102444	0.099333	0.395708
	C210	C	0.904267	0.100097	0.586122
	C211	C	0.900698	0.903802	0.395642
	C212	C	0.596735	0.103119	0.892232
	C213	C	0.409118	0.102730	0.090595
	C214	C	0.596506	0.901713	0.092390
	C215	C	0.409018	0.902766	0.888718
	Zn216	Zn	0.503913	0.002689	0.738681
	Zn217	Zn	0.502620	0.001611	0.243020
	Zn218	Zn	0.752223	0.503834	-0.010339
	Zn219	Zn	0.250215	0.503631	-0.009961
	Zn220	Zn	0.003433	0.753244	0.489931
	Zn221	Zn	0.003315	0.250036	0.489990
	Zn222	Zn	0.002600	0.502409	0.741113
	Zn223	Zn	0.002325	0.502894	0.237808
	Zn224	Zn	0.502066	0.750728	-0.008165
	Zn225	Zn	0.502433	0.253912	-0.008702
	Zn226	Zn	0.751924	0.001703	0.491973
	Zn227	Zn	0.253940	0.001696	0.490541
	N228	N	0.421054	0.964452	0.665083
	N229	N	0.589606	0.039194	0.668177
	N230	N	0.585722	0.963465	0.316701
	N231	N	0.417540	0.039480	0.314076
	N232	N	0.682359	0.415433	0.953923
	N233	N	0.683778	0.592401	0.025642
	N234	N	0.321698	0.589547	0.953874
	N235	N	0.320249	0.414816	0.026732
	N236	N	0.966578	0.681575	0.403244
	N237	N	0.040504	0.679888	0.575097
	N238	N	0.965557	0.322948	0.574701
	N239	N	0.040134	0.321883	0.403680
	N240	N	0.966039	0.414940	0.669308
	N241	N	0.039421	0.588194	0.669438
	N242	N	0.965959	0.588379	0.310320
	N243	N	0.039508	0.415374	0.309717
	N244	N	0.416548	0.679144	0.953394
	N245	N	0.584308	0.676453	0.029762
	N246	N	0.586083	0.326858	0.952786
	N247	N	0.418416	0.326757	0.029405
	N248	N	0.680315	0.964306	0.406260
	N249	N	0.684527	0.037981	0.580587
	N250	N	0.325502	0.965639	0.576780
	N251	N	0.322018	0.037704	0.401950
	N252	N	0.918191	0.465598	0.164474
	N253	N	0.086510	0.540689	0.166049
	N254	N	0.084530	0.465206	0.815714
	N255	N	0.916439	0.540599	0.811528
	N256	N	0.183890	0.913536	0.454716
	N257	N	0.184801	0.090058	0.526805
	N258	N	0.821734	0.089254	0.455176
	N259	N	0.823140	0.914162	0.528183
	N260	N	0.465517	0.181673	0.905169
	N261	N	0.539973	0.181935	0.077710
	N262	N	0.465380	0.823744	0.076455
	N263	N	0.539281	0.822718	0.905411
	N264	N	0.465673	0.916222	0.169571
	N265	N	0.539573	0.088826	0.171690
	N266	N	0.467118	0.089882	0.809912
	N267	N	0.540522	0.917157	0.812406
	N268	N	0.918854	0.177071	0.452104
	N269	N	0.087155	0.177161	0.528874
	N270	N	0.086562	0.826630	0.452530
	N271	N	0.920264	0.826174	0.528699
	N272	N	0.180727	0.467582	0.901905
	N273	N	0.180946	0.539976	0.077235
	N274	N	0.823261	0.467548	0.076134
	N275	N	0.821677	0.540142	0.901413
	O276	O	0.007886	0.085594	-0.043778
	H277	H	0.003730	0.092676	-0.049689
	H278	H	0.006428	0.087030	-0.044221
	O279	O	0.486899	0.476387	0.456400
	H280	H	0.472807	0.484524	0.469305
	H281	H	0.489501	0.465812	0.458588
	O282	O	0.536278	0.559594	0.492440
	H283	H	0.531492	0.556912	0.481830
	H284	H	0.536939	0.560992	0.498818
	O285	O	0.994438	0.079419	0.943847
	H286	H	0.994309	0.068020	0.947627
	H287	H	0.987714	0.083597	0.933284
	O288	O	1.071038	0.015139	0.019122
	H289	H	1.068704	0.016060	0.025219
	H290	H	1.076735	0.016458	0.022015
	O291	O	0.534909	0.528572	0.411620
	H292	H	0.539004	0.527721	0.404460
	H293	H	0.540500	0.511179	0.403146
	O294	O	1.043741	0.028312	1.018085
	H295	H	1.038509	0.037351	1.015605
	H296	H	1.053195	0.031239	1.027659
	O297	O	-0.009841	-0.007628	0.000535
	H298	H	-0.000496	-0.010981	-0.012651
	H299	H	-0.014406	-0.011003	-0.011252
	O300	O	0.397101	0.534250	0.522473
	H301	H	0.392848	0.531180	0.507246
	H302	H	0.391435	0.532262	0.514019
	O303	O	0.564541	0.498942	0.554156
	H304	H	0.582353	0.501640	0.547796
	H305	H	0.569015	0.494814	0.556269
	O306	O	1.009933	0.046653	0.016955
	H307	H	1.003344	0.043866	0.017592
	H308	H	1.013061	0.052053	0.020523
	O309	O	0.051972	0.026674	1.084934
	H310	H	0.046408	0.024826	1.090219
	H311	H	0.055035	0.019462	1.085854
	O312	O	1.440983	0.481613	1.438427
	H313	H	1.438381	0.486201	1.440811
	H314	H	1.439597	0.471469	1.435398
	O315	O	0.571484	0.413628	0.451791
	H316	H	0.564312	0.410763	0.447651
	H317	H	0.564402	0.407311	0.460796
	O318	O	0.489426	0.573866	0.438162
	H319	H	0.490402	0.565663	0.443991
	H320	H	0.474360	0.576965	0.432141
	O321	O	-0.006008	0.987033	1.052341
	H322	H	-0.003368	0.996927	1.049897
	H323	H	0.004105	0.990744	1.048530
	O324	O	0.471434	0.494511	0.620849
	H325	H	0.467214	0.500972	0.615223
	H326	H	0.478237	0.491541	0.635201
	O327	O	0.512462	0.480677	0.478557
	H328	H	0.508785	0.486588	0.495548
	H329	H	0.515258	0.478847	0.492884
	O330	O	0.539126	0.495949	0.507472
	H331	H	0.540831	0.500576	0.515491
	H332	H	0.550929	0.500198	0.501985
	O333	O	0.461833	0.497545	0.604317
	H334	H	0.463017	0.495602	0.618496
	H335	H	0.467400	0.509454	0.603901
	O336	O	0.569918	0.416734	0.500866
	H337	H	0.561948	0.419595	0.503478
	H338	H	0.577649	0.425823	0.509279
	O339	O	1.042680	1.116346	-0.015947
	H340	H	1.040831	1.129782	-0.003948
	H341	H	1.049281	1.122918	-0.021434
	O342	O	0.544667	0.408381	0.418877
	H343	H	0.545556	0.398066	0.429627
	H344	H	0.550009	0.406656	0.410761
	O345	O	0.475519	0.547574	0.495249
	H346	H	0.483140	0.555406	0.487353
	H347	H	0.463605	0.546138	0.489166
	O348	O	-0.470623	0.495886	0.467300
	H349	H	-0.476194	0.496236	0.467428
	H350	H	-0.460297	0.502157	0.469369
	O351	O	0.007460	1.025641	0.969942
	H352	H	0.011999	1.018427	0.973795
	H353	H	0.009590	1.030079	0.970684
	O354	O	0.529965	0.620032	0.495388
	H355	H	0.529624	0.630607	0.492892
	H356	H	0.529065	0.625234	0.489467
	O357	O	0.090922	1.038447	0.998632
	H358	H	0.100967	1.048394	1.002179
	H359	H	0.083668	1.037238	1.010381
