data_Molecule from HDF5

_cell_length_a		16.297200
_cell_length_b		16.238392
_cell_length_c		16.204703
_cell_angle_alpha	89.758417
_cell_angle_beta	90.019371
_cell_angle_gamma	90.206203
_symmetry_space_group_name_H-M	'P 1'
_symmetry_Int_Tables_number		1

loop_
	_symmetry_equiv_pos_as_xyz
	x,y,z

loop_
	_atom_site_label
	_atom_site_type_symbol
	_atom_site_fract_x
	_atom_site_fract_y
	_atom_site_fract_z
	H0	H	0.390837	0.832630	0.708310
	H1	H	0.588193	0.161210	0.707786
	H2	H	0.585641	0.832537	0.282355
	H3	H	0.391583	0.161323	0.280631
	H4	H	0.702613	0.397488	0.830682
	H5	H	0.704064	0.597014	0.157891
	H6	H	0.273802	0.596545	0.830454
	H7	H	0.271793	0.395847	0.159302
	H8	H	0.824586	0.712005	0.394460
	H9	H	0.152177	0.711280	0.592478
	H10	H	0.825371	0.279849	0.595720
	H11	H	0.152746	0.285788	0.396830
	H12	H	0.824169	0.397283	0.709246
	H13	H	0.150761	0.597013	0.709360
	H14	H	0.824498	0.595333	0.279406
	H15	H	0.151608	0.400599	0.279883
	H16	H	0.388705	0.712436	0.831660
	H17	H	0.586068	0.709263	0.159624
	H18	H	0.585324	0.283792	0.830381
	H19	H	0.389826	0.282113	0.159377
	H20	H	0.702606	0.833201	0.396313
	H21	H	0.705071	0.160555	0.594441
	H22	H	0.273435	0.833940	0.596029
	H23	H	0.276013	0.161729	0.396803
	H24	H	0.887164	0.333644	0.210572
	H25	H	0.085842	0.662109	0.206561
	H26	H	0.084619	0.333640	0.781575
	H27	H	0.889267	0.661374	0.779432
	H28	H	0.202356	0.900289	0.330826
	H29	H	0.203327	0.095972	0.659625
	H30	H	0.773518	0.097956	0.330783
	H31	H	0.773062	0.895573	0.658924
	H32	H	0.324741	0.210988	0.894641
	H33	H	0.651411	0.212676	0.094171
	H34	H	0.324711	0.781812	0.094147
	H35	H	0.651680	0.782649	0.897086
	H36	H	0.325004	0.896563	0.210345
	H37	H	0.651790	0.095755	0.209225
	H38	H	0.325259	0.095260	0.778964
	H39	H	0.651737	0.898598	0.780209
	H40	H	0.889964	0.212686	0.330486
	H41	H	0.087752	0.211262	0.659749
	H42	H	0.085137	0.786728	0.329201
	H43	H	0.890441	0.780890	0.658700
	H44	H	0.202047	0.333979	0.894416
	H45	H	0.202987	0.660851	0.093506
	H46	H	0.771732	0.333701	0.094345
	H47	H	0.771792	0.660981	0.893413
	H48	H	0.386205	0.118201	0.589285
	H49	H	0.584456	0.876988	0.595555
	H50	H	0.589690	0.116558	0.403163
	H51	H	0.400132	0.879673	0.396893
	H52	H	0.575148	0.389651	0.114949
	H53	H	0.581034	0.592543	0.876611
	H54	H	0.394322	0.580389	0.109442
	H55	H	0.379404	0.405409	0.873722
	H56	H	0.107675	0.599461	0.398346
	H57	H	0.868586	0.599393	0.586316
	H58	H	0.105304	0.407478	0.591646
	H59	H	0.873442	0.409415	0.400571
	H60	H	0.106365	0.401073	0.589084
	H61	H	0.875599	0.585743	0.577245
	H62	H	0.102621	0.590849	0.406319
	H63	H	0.869929	0.399979	0.399336
	H64	H	0.400715	0.595004	0.112366
	H65	H	0.580894	0.586116	0.878753
	H66	H	0.594109	0.408926	0.114785
	H67	H	0.400889	0.415609	0.883428
	H68	H	0.577543	0.115334	0.394354
	H69	H	0.572253	0.882894	0.586683
	H70	H	0.401517	0.115097	0.594778
	H71	H	0.396777	0.882746	0.410762
	H72	H	0.889918	0.613975	0.079399
	H73	H	0.083661	0.380782	0.084230
	H74	H	0.078013	0.614186	0.901956
	H75	H	0.889159	0.379659	0.903100
	H76	H	0.082852	0.902358	0.612737
	H77	H	0.086200	0.085326	0.379238
	H78	H	0.892749	0.085126	0.611471
	H79	H	0.896903	0.904888	0.377580
	H80	H	0.606948	0.089349	0.892259
	H81	H	0.369702	0.096654	0.085093
	H82	H	0.606688	0.898516	0.089452
	H83	H	0.373296	0.905347	0.907138
	H84	H	0.603917	0.904648	0.085852
	H85	H	0.374939	0.082991	0.083343
	H86	H	0.606097	0.099442	0.905399
	H87	H	0.371760	0.907452	0.897589
	H88	H	0.901361	0.085209	0.610095
	H89	H	0.075306	0.093306	0.379254
	H90	H	0.081312	0.905596	0.611943
	H91	H	0.893528	0.903416	0.376640
	H92	H	0.082612	0.614362	0.903741
	H93	H	0.081064	0.378327	0.093263
	H94	H	0.891190	0.617197	0.093819
	H95	H	0.895639	0.380125	0.898626
	H96	H	0.397761	0.111407	0.578608
	H97	H	0.586254	0.881057	0.580335
	H98	H	0.577669	0.110161	0.408417
	H99	H	0.386220	0.877396	0.401379
	H100	H	0.569903	0.414116	0.105940
	H101	H	0.575512	0.589774	0.879503
	H102	H	0.385780	0.591643	0.116018
	H103	H	0.400611	0.391439	0.875027
	H104	H	0.105169	0.586731	0.395430
	H105	H	0.871106	0.582896	0.594202
	H106	H	0.102642	0.405928	0.585487
	H107	H	0.872803	0.402771	0.407877
	H108	H	0.902508	0.612301	0.085698
	H109	H	0.075064	0.381631	0.086592
	H110	H	0.081697	0.615544	0.899148
	H111	H	0.896164	0.382408	0.906857
	H112	H	0.079310	0.902491	0.612226
	H113	H	0.087411	0.098294	0.374219
	H114	H	0.897625	0.092577	0.612641
	H115	H	0.894247	0.907079	0.377823
	H116	H	0.601812	0.083544	0.906617
	H117	H	0.369665	0.087019	0.096025
	H118	H	0.605317	0.904892	0.093464
	H119	H	0.369945	0.898584	0.901592
	C120	C	0.366696	0.006322	0.616602
	C121	C	0.610420	0.988326	0.616336
	C122	C	0.609911	0.005591	0.373812
	C123	C	0.366981	0.988716	0.373770
	C124	C	0.608525	0.375975	0.003091
	C125	C	0.608735	0.618153	0.986327
	C126	C	0.365603	0.618311	0.003832
	C127	C	0.364874	0.374732	0.986256
	C128	C	-0.003292	0.620131	0.371548
	C129	C	0.979919	0.618614	0.615116
	C130	C	-0.003474	0.375029	0.617509
	C131	C	0.979955	0.376470	0.373675
	C132	C	0.865733	0.505908	0.115991
	C133	C	0.109037	0.488694	0.115959
	C134	C	0.108722	0.506156	0.873461
	C135	C	0.865265	0.489087	0.872999
	C136	C	0.109915	0.876118	0.503445
	C137	C	0.111108	0.119906	0.486517
	C138	C	0.867813	0.118026	0.503016
	C139	C	0.866372	0.875204	0.485882
	C140	C	0.496726	0.118846	0.872560
	C141	C	0.479896	0.117769	0.116104
	C142	C	0.496951	0.874288	0.117913
	C143	C	0.479700	0.875334	0.873371
	C144	C	0.369713	0.882289	0.671568
	C145	C	0.608429	0.112228	0.670551
	C146	C	0.606453	0.881552	0.319772
	C147	C	0.370529	0.112352	0.318219
	C148	C	0.664062	0.377979	0.879626
	C149	C	0.665164	0.616637	0.109433
	C150	C	0.310766	0.616667	0.880101
	C151	C	0.310019	0.376393	0.110037
	C152	C	0.873647	0.674733	0.373962
	C153	C	0.102931	0.674033	0.613146
	C154	C	0.874160	0.318201	0.615710
	C155	C	0.103619	0.322627	0.376151
	C156	C	0.873339	0.376757	0.672158
	C157	C	0.102298	0.616987	0.671107
	C158	C	0.873476	0.616760	0.316849
	C159	C	0.103134	0.379915	0.318175
	C160	C	0.368165	0.674380	0.880475
	C161	C	0.606752	0.672479	0.110327
	C162	C	0.605547	0.321620	0.879383
	C163	C	0.368333	0.319554	0.110161
	C164	C	0.664861	0.882138	0.376019
	C165	C	0.666752	0.111610	0.614178
	C166	C	0.311241	0.882784	0.615672
	C167	C	0.313042	0.112517	0.376036
	C168	C	0.867604	0.382559	0.171704
	C169	C	0.106630	0.612860	0.169716
	C170	C	0.105499	0.382625	0.818817
	C171	C	0.868298	0.612266	0.816862
	C172	C	0.164825	0.879543	0.379723
	C173	C	0.165807	0.116806	0.610418
	C174	C	0.811611	0.117426	0.379641
	C175	C	0.811125	0.876002	0.609719
	C176	C	0.373645	0.173432	0.874682
	C177	C	0.602784	0.173926	0.113899
	C178	C	0.373574	0.819405	0.114973
	C179	C	0.602905	0.820428	0.876323
	C180	C	0.373740	0.876696	0.172608
	C181	C	0.603082	0.116095	0.171449
	C182	C	0.373760	0.115963	0.817093
	C183	C	0.602806	0.877952	0.818146
	C184	C	0.869626	0.174547	0.379609
	C185	C	0.108312	0.174007	0.610574
	C186	C	0.106532	0.823177	0.378979
	C187	C	0.869412	0.819023	0.609656
	C188	C	0.163833	0.382912	0.875042
	C189	C	0.164763	0.612070	0.113283
	C190	C	0.809941	0.382647	0.114359
	C191	C	0.810038	0.612210	0.873832
	C192	C	0.388634	0.092641	0.594276
	C193	C	0.587647	0.902508	0.594050
	C194	C	0.588139	0.091758	0.395447
	C195	C	0.388085	0.902294	0.396331
	C196	C	0.586287	0.397834	0.089563
	C197	C	0.586005	0.595981	0.900346
	C198	C	0.387295	0.595721	0.090336
	C199	C	0.386930	0.397468	0.899856
	C200	C	0.082815	0.598612	0.393490
	C201	C	0.894031	0.595940	0.592606
	C202	C	0.082431	0.397888	0.595313
	C203	C	0.894232	0.397800	0.395867
	C204	C	0.888124	0.592231	0.093068
	C205	C	0.086355	0.402541	0.094474
	C206	C	0.087111	0.592354	0.895241
	C207	C	0.887200	0.402787	0.895987
	C208	C	0.087786	0.897233	0.589843
	C209	C	0.089534	0.098457	0.400026
	C210	C	0.890511	0.094550	0.589089
	C211	C	0.888376	0.898144	0.399632
	C212	C	0.582657	0.097275	0.894944
	C213	C	0.393730	0.095572	0.094357
	C214	C	0.583028	0.896183	0.095958
	C215	C	0.393947	0.897293	0.895563
	Zn216	Zn	0.488014	-0.002355	0.743846
	Zn217	Zn	0.488418	-0.003531	0.245533
	Zn218	Zn	0.737183	0.497323	-0.005447
	Zn219	Zn	0.237310	0.496774	-0.005320
	Zn220	Zn	-0.011476	0.747590	0.493967
	Zn221	Zn	-0.011025	0.247357	0.495046
	Zn222	Zn	-0.012438	0.497576	0.745089
	Zn223	Zn	-0.012431	0.497589	0.244074
	Zn224	Zn	0.487902	0.746434	-0.004034
	Zn225	Zn	0.487662	0.246842	-0.005395
	Zn226	Zn	0.738652	-0.002752	0.494749
	Zn227	Zn	0.238460	-0.002469	0.495627
	N228	N	0.403498	0.960047	0.672152
	N229	N	0.573948	0.034596	0.672082
	N230	N	0.573298	0.959334	0.317853
	N231	N	0.403161	0.034351	0.316629
	N232	N	0.665717	0.411286	0.957556
	N233	N	0.666443	0.583447	0.031578
	N234	N	0.309129	0.582460	0.958001
	N235	N	0.307797	0.409937	0.031885
	N236	N	0.951494	0.677138	0.407038
	N237	N	0.025704	0.674985	0.578896
	N238	N	0.951810	0.317011	0.582531
	N239	N	0.026360	0.320511	0.410296
	N240	N	0.950501	0.411395	0.673571
	N241	N	0.024720	0.583150	0.672546
	N242	N	0.950933	0.583497	0.315407
	N243	N	0.025339	0.412647	0.316527
	N244	N	0.401647	0.675388	0.958396
	N245	N	0.572129	0.673501	0.032823
	N246	N	0.571823	0.320301	0.957184
	N247	N	0.401832	0.318389	0.032147
	N248	N	0.666998	0.960067	0.408894
	N249	N	0.668333	0.033633	0.581471
	N250	N	0.309138	0.960812	0.582340
	N251	N	0.310598	0.034549	0.409586
	N252	N	0.901627	0.460210	0.172783
	N253	N	0.072555	0.535109	0.171498
	N254	N	0.071825	0.460172	0.817530
	N255	N	0.901808	0.534562	0.816400
	N256	N	0.167016	0.911671	0.458232
	N257	N	0.167797	0.083911	0.532393
	N258	N	0.810447	0.082919	0.457485
	N259	N	0.809359	0.910499	0.531958
	N260	N	0.451124	0.175215	0.908615
	N261	N	0.525110	0.175171	0.080463
	N262	N	0.451196	0.817679	0.082005
	N263	N	0.525458	0.818643	0.910145
	N264	N	0.451405	0.910135	0.174448
	N265	N	0.525717	0.081713	0.172782
	N266	N	0.451231	0.082804	0.815693
	N267	N	0.525354	0.911243	0.816109
	N268	N	0.903745	0.174857	0.457260
	N269	N	0.075010	0.176167	0.532506
	N270	N	0.072907	0.821063	0.456728
	N271	N	0.902912	0.818387	0.531683
	N272	N	0.166020	0.460867	0.908033
	N273	N	0.166652	0.533861	0.080963
	N274	N	0.808630	0.460497	0.080429
	N275	N	0.807971	0.534365	0.907764
	O276	O	0.495113	0.494843	0.403361
	H277	H	0.504390	0.496363	0.403602
	H278	H	0.504329	0.497808	0.399174
	O279	O	0.559755	0.562867	0.583702
	H280	H	0.568576	0.568209	0.583541
	H281	H	0.553815	0.573962	0.596653
	O282	O	0.428510	0.530059	0.510567
	H283	H	0.421907	0.529763	0.512660
	H284	H	0.434001	0.534707	0.510386
	O285	O	0.480434	1.541725	0.477156
	H286	H	0.484862	1.548828	0.478336
	H287	H	0.480801	1.549277	0.480186
	O288	O	0.452920	0.476799	0.502853
	H289	H	0.447661	0.476004	0.486190
	H290	H	0.444815	0.465036	0.508846
	O291	O	0.000457	-0.043569	0.969978
	H292	H	-0.004321	-0.043001	0.973066
	H293	H	0.002055	-0.033925	0.972413
	O294	O	0.974010	0.047038	1.039552
	H295	H	0.972206	0.043837	1.032368
	H296	H	0.974891	0.049281	1.037815
	O297	O	0.524742	0.519647	0.541855
	H298	H	0.519349	0.527330	0.542041
	H299	H	0.530195	0.515247	0.541727
	O300	O	0.547348	0.500452	0.521587
	H301	H	0.547622	0.501479	0.512394
	H302	H	0.552977	0.500589	0.525827
	O303	O	0.461977	0.461070	0.548851
	H304	H	0.460370	0.462113	0.544220
	H305	H	0.468497	0.454249	0.556378
	O306	O	1.015696	0.062041	0.977244
	H307	H	1.030435	0.074046	0.977277
	H308	H	1.013807	0.054951	0.988005
	O309	O	0.491880	0.533968	0.495104
	H310	H	0.493143	0.527789	0.494328
	H311	H	0.484637	0.526201	0.492140
	O312	O	0.494532	0.505275	0.502722
	H313	H	0.497531	0.508657	0.500949
	H314	H	0.487223	0.502148	0.500784
	O315	O	1.016840	0.073613	0.984589
	H316	H	1.019849	0.083372	0.994972
	H317	H	1.020187	0.078691	0.977780
	O318	O	0.001661	0.042643	-0.088192
	H319	H	0.000225	0.039767	-0.090530
	H320	H	0.001412	0.046071	-0.095863
	O321	O	0.957686	1.016612	1.028138
	H322	H	0.961490	1.018340	1.029897
	H323	H	0.946457	1.015858	1.035141
	O324	O	0.963200	0.004060	0.052720
	H325	H	0.955096	0.004542	0.050753
	H326	H	0.954857	-0.005694	0.057061
	O327	O	1.001743	1.018893	-0.001141
	H328	H	1.007813	1.012760	-0.008189
	H329	H	0.998648	1.015105	0.002052
	O330	O	0.463522	0.413018	0.452474
	H331	H	0.468782	0.418056	0.452258
	H332	H	0.458718	0.406177	0.454597
	O333	O	0.545863	0.537887	0.536553
	H334	H	0.537137	0.536400	0.539067
	H335	H	0.541108	0.532113	0.547823
