data_Molecule from HDF5

_cell_length_a		16.135525
_cell_length_b		16.203274
_cell_length_c		16.603902
_cell_angle_alpha	90.276852
_cell_angle_beta	89.897159
_cell_angle_gamma	89.778429
_symmetry_space_group_name_H-M	'P 1'
_symmetry_Int_Tables_number		1

loop_
	_symmetry_equiv_pos_as_xyz
	x,y,z

loop_
	_atom_site_label
	_atom_site_type_symbol
	_atom_site_fract_x
	_atom_site_fract_y
	_atom_site_fract_z
	H0	H	0.387476	0.821658	0.727881
	H1	H	0.598625	0.143382	0.726174
	H2	H	0.602148	0.823735	0.283009
	H3	H	0.383634	0.142910	0.286399
	H4	H	0.715502	0.380529	0.848197
	H5	H	0.714121	0.584038	0.167611
	H6	H	0.277825	0.584110	0.847534
	H7	H	0.276998	0.382989	0.166484
	H8	H	0.830826	0.693594	0.410109
	H9	H	0.160903	0.696029	0.603227
	H10	H	0.832125	0.268905	0.605293
	H11	H	0.159694	0.264579	0.406191
	H12	H	0.837823	0.375407	0.729079
	H13	H	0.160857	0.585378	0.723669
	H14	H	0.836022	0.588565	0.287032
	H15	H	0.159448	0.376574	0.288194
	H16	H	0.395639	0.700058	0.847114
	H17	H	0.598183	0.702471	0.166567
	H18	H	0.599871	0.261240	0.849366
	H19	H	0.392912	0.264692	0.166511
	H20	H	0.708747	0.818711	0.405588
	H21	H	0.708574	0.145475	0.604684
	H22	H	0.284139	0.816175	0.602858
	H23	H	0.277880	0.144641	0.409559
	H24	H	0.891957	0.320346	0.226441
	H25	H	0.102441	0.642422	0.228124
	H26	H	0.107601	0.321684	0.785026
	H27	H	0.891875	0.642283	0.787940
	H28	H	0.214086	0.878447	0.346877
	H29	H	0.213915	0.083556	0.666106
	H30	H	0.776051	0.082711	0.345986
	H31	H	0.775925	0.881009	0.664961
	H32	H	0.330826	0.198113	0.911032
	H33	H	0.659497	0.197826	0.109234
	H34	H	0.331524	0.768621	0.105300
	H35	H	0.660252	0.768466	0.906930
	H36	H	0.333725	0.879157	0.225363
	H37	H	0.654100	0.092616	0.231624
	H38	H	0.331593	0.089098	0.789314
	H39	H	0.656034	0.876295	0.784482
	H40	H	0.892172	0.201109	0.346924
	H41	H	0.099601	0.203397	0.664259
	H42	H	0.094967	0.763382	0.345734
	H43	H	0.894028	0.764838	0.665951
	H44	H	0.212549	0.319099	0.908993
	H45	H	0.208191	0.647200	0.104433
	H46	H	0.782225	0.318383	0.106082
	H47	H	0.783210	0.646140	0.910940
	H48	H	0.399591	0.100095	0.601358
	H49	H	0.582187	0.863670	0.604874
	H50	H	0.580098	0.100054	0.409370
	H51	H	0.413470	0.868159	0.413217
	H52	H	0.586495	0.389068	0.121463
	H53	H	0.586955	0.579106	0.893303
	H54	H	0.397678	0.581130	0.123734
	H55	H	0.398168	0.395149	0.893307
	H56	H	0.115331	0.570422	0.407691
	H57	H	0.880122	0.570951	0.599270
	H58	H	0.111985	0.394220	0.593079
	H59	H	0.880884	0.395743	0.412658
	H60	H	0.113030	0.395663	0.599020
	H61	H	0.879532	0.569449	0.602567
	H62	H	0.113884	0.576760	0.420286
	H63	H	0.879043	0.390642	0.414064
	H64	H	0.402721	0.567574	0.118093
	H65	H	0.593978	0.573163	0.892944
	H66	H	0.590291	0.390927	0.121556
	H67	H	0.413715	0.395614	0.897848
	H68	H	0.576995	0.094281	0.422134
	H69	H	0.578079	0.869041	0.594633
	H70	H	0.408210	0.097086	0.603040
	H71	H	0.405307	0.867520	0.418505
	H72	H	0.903458	0.598491	0.097193
	H73	H	0.083672	0.368307	0.093367
	H74	H	0.076577	0.597324	0.908151
	H75	H	0.902380	0.363333	0.913559
	H76	H	0.082701	0.883440	0.619148
	H77	H	0.085476	0.076268	0.393396
	H78	H	0.905883	0.077509	0.618975
	H79	H	0.906112	0.893713	0.395594
	H80	H	0.607531	0.064654	0.920291
	H81	H	0.378670	0.073968	0.097574
	H82	H	0.606895	0.900322	0.089631
	H83	H	0.379368	0.897407	0.912001
	H84	H	0.613245	0.899963	0.106120
	H85	H	0.380194	0.071408	0.097763
	H86	H	0.611473	0.066296	0.907833
	H87	H	0.376378	0.887907	0.912572
	H88	H	0.898222	0.073381	0.619702
	H89	H	0.091088	0.068419	0.393067
	H90	H	0.093924	0.886118	0.621970
	H91	H	0.905832	0.879545	0.390804
	H92	H	0.085894	0.596026	0.923836
	H93	H	0.091976	0.364609	0.098328
	H94	H	0.909029	0.599593	0.105420
	H95	H	0.916090	0.366269	0.909551
	H96	H	0.404459	0.096135	0.594946
	H97	H	0.589784	0.864712	0.595403
	H98	H	0.590217	0.100107	0.419581
	H99	H	0.404880	0.864196	0.409518
	H100	H	0.587669	0.393118	0.119399
	H101	H	0.585419	0.571026	0.896397
	H102	H	0.412302	0.579571	0.118505
	H103	H	0.407392	0.382201	0.892718
	H104	H	0.109566	0.563361	0.418896
	H105	H	0.879520	0.572978	0.601990
	H106	H	0.114986	0.389083	0.596836
	H107	H	0.880977	0.393972	0.417751
	H108	H	0.913187	0.594712	0.097844
	H109	H	0.082906	0.365380	0.103178
	H110	H	0.093870	0.603123	0.909483
	H111	H	0.911474	0.369364	0.923136
	H112	H	0.086746	0.894693	0.617796
	H113	H	0.082126	0.068001	0.396318
	H114	H	0.905175	0.069343	0.616307
	H115	H	0.893731	0.887521	0.389432
	H116	H	0.612945	0.076657	0.915751
	H117	H	0.378288	0.072830	0.099936
	H118	H	0.614665	0.885461	0.096065
	H119	H	0.380181	0.892399	0.919941
	C120	C	0.373430	-0.009775	0.628800
	C121	C	0.614550	0.973275	0.627954
	C122	C	0.614819	-0.008465	0.384970
	C123	C	0.374354	0.973563	0.384983
	C124	C	0.619389	0.359793	0.016024
	C125	C	0.619094	0.605197	0.999349
	C126	C	0.373852	0.605986	0.015010
	C127	C	0.374877	0.361282	0.999473
	C128	C	0.005235	0.601753	0.385992
	C129	C	0.988219	0.602468	0.629045
	C130	C	0.005993	0.361401	0.627380
	C131	C	0.987864	0.360869	0.384500
	C132	C	0.876447	0.490641	0.129774
	C133	C	0.117096	0.473803	0.127983
	C134	C	0.118376	0.491541	0.884179
	C135	C	0.877629	0.473267	0.885996
	C136	C	0.118300	0.857734	0.514538
	C137	C	0.117177	0.102614	0.498559
	C138	C	0.872428	0.103896	0.513556
	C139	C	0.871874	0.857930	0.497487
	C140	C	0.503031	0.102290	0.885918
	C141	C	0.486028	0.104681	0.129936
	C142	C	0.504074	0.863744	0.127162
	C143	C	0.486281	0.861320	0.884147
	C144	C	0.370939	0.869045	0.687025
	C145	C	0.616430	0.095245	0.686174
	C146	C	0.618652	0.870941	0.324195
	C147	C	0.368631	0.094821	0.326977
	C148	C	0.676894	0.360234	0.896071
	C149	C	0.675992	0.604380	0.119556
	C150	C	0.316643	0.604197	0.895170
	C151	C	0.316251	0.362766	0.118970
	C152	C	0.881004	0.657364	0.388888
	C153	C	0.111855	0.658622	0.625071
	C154	C	0.882170	0.305555	0.626140
	C155	C	0.110807	0.302808	0.386029
	C156	C	0.885083	0.358599	0.687659
	C157	C	0.111508	0.603868	0.685170
	C158	C	0.883474	0.604388	0.327880
	C159	C	0.110536	0.358598	0.327329
	C160	C	0.375349	0.661847	0.894916
	C161	C	0.618250	0.663423	0.118928
	C162	C	0.619443	0.300893	0.896783
	C163	C	0.374154	0.304086	0.119218
	C164	C	0.671861	0.868527	0.385105
	C165	C	0.671370	0.096185	0.625970
	C166	C	0.319184	0.866476	0.625123
	C167	C	0.315296	0.095554	0.388061
	C168	C	0.874478	0.368865	0.187212
	C169	C	0.119414	0.594984	0.187396
	C170	C	0.123003	0.369739	0.825769
	C171	C	0.874851	0.594631	0.828077
	C172	C	0.175089	0.858692	0.394423
	C173	C	0.175006	0.102964	0.618215
	C174	C	0.814914	0.102630	0.393802
	C175	C	0.814550	0.860214	0.617246
	C176	C	0.379923	0.160291	0.889461
	C177	C	0.609485	0.161007	0.129247
	C178	C	0.380783	0.806878	0.125424
	C179	C	0.610271	0.805157	0.885723
	C180	C	0.381872	0.861570	0.185397
	C181	C	0.606932	0.108284	0.190107
	C182	C	0.380443	0.105549	0.829038
	C183	C	0.608007	0.858884	0.824696
	C184	C	0.872633	0.161817	0.394347
	C185	C	0.118000	0.162686	0.617489
	C186	C	0.116283	0.801081	0.393955
	C187	C	0.873384	0.802486	0.617768
	C188	C	0.175588	0.368421	0.887185
	C189	C	0.172353	0.597167	0.125894
	C190	C	0.819479	0.367954	0.127388
	C191	C	0.820527	0.596495	0.889054
	C192	C	0.397278	0.075658	0.606359
	C193	C	0.590286	0.888143	0.604990
	C194	C	0.589552	0.076160	0.409591
	C195	C	0.400466	0.888609	0.407207
	C196	C	0.595293	0.383967	0.099339
	C197	C	0.595780	0.581282	0.915945
	C198	C	0.397304	0.582817	0.098475
	C199	C	0.399418	0.384247	0.916514
	C200	C	0.090914	0.577230	0.408911
	C201	C	0.902142	0.578343	0.607573
	C202	C	0.091170	0.385713	0.603269
	C203	C	0.902310	0.386075	0.408004
	C204	C	0.901222	0.575558	0.106858
	C205	C	0.093203	0.388314	0.104934
	C206	C	0.092884	0.576746	0.907166
	C207	C	0.902671	0.388427	0.908800
	C208	C	0.094885	0.881104	0.597999
	C209	C	0.093041	0.078168	0.415694
	C210	C	0.896248	0.080304	0.596754
	C211	C	0.895144	0.880257	0.413555
	C212	C	0.588526	0.076802	0.908253
	C213	C	0.401229	0.079962	0.105600
	C214	C	0.589312	0.888161	0.104056
	C215	C	0.400814	0.885580	0.907873
	Zn216	Zn	0.493654	-0.017727	0.756737
	Zn217	Zn	0.494388	-0.015906	0.256720
	Zn218	Zn	0.749350	0.482196	0.007661
	Zn219	Zn	0.244244	0.482952	0.006568
	Zn220	Zn	-0.004604	0.728729	0.506453
	Zn221	Zn	-0.004279	0.234044	0.505934
	Zn222	Zn	-0.001596	0.481792	0.756516
	Zn223	Zn	-0.002364	0.481923	0.257383
	Zn224	Zn	0.496167	0.735069	0.006954
	Zn225	Zn	0.496110	0.230221	0.008023
	Zn226	Zn	0.742453	-0.018348	0.505761
	Zn227	Zn	0.247507	-0.019628	0.506705
	N228	N	0.403974	0.947100	0.689430
	N229	N	0.582191	0.017735	0.687715
	N230	N	0.583919	0.948562	0.323938
	N231	N	0.404740	0.017782	0.324972
	N232	N	0.677071	0.395886	0.971410
	N233	N	0.676831	0.568813	0.044117
	N234	N	0.315742	0.569864	0.970767
	N235	N	0.316653	0.397608	0.043615
	N236	N	0.957860	0.655578	0.424490
	N237	N	0.034127	0.658091	0.591249
	N238	N	0.958423	0.307295	0.589261
	N239	N	0.033485	0.304166	0.420843
	N240	N	0.963178	0.392216	0.688744
	N241	N	0.033468	0.569780	0.687688
	N242	N	0.961659	0.570352	0.326093
	N243	N	0.032883	0.393758	0.326125
	N244	N	0.409878	0.663273	0.970491
	N245	N	0.583757	0.664059	0.043293
	N246	N	0.585031	0.300126	0.972478
	N247	N	0.409961	0.302911	0.044161
	N248	N	0.669777	0.944556	0.422101
	N249	N	0.670198	0.019380	0.590360
	N250	N	0.320472	0.943012	0.589666
	N251	N	0.318841	0.019229	0.423457
	N252	N	0.908832	0.446412	0.188902
	N253	N	0.085990	0.517209	0.188838
	N254	N	0.088326	0.447405	0.823736
	N255	N	0.909584	0.517036	0.826058
	N256	N	0.176512	0.892962	0.470314
	N257	N	0.174753	0.066337	0.543448
	N258	N	0.814725	0.067205	0.469028
	N259	N	0.813413	0.894057	0.541388
	N260	N	0.457245	0.158417	0.924268
	N261	N	0.533275	0.158932	0.092413
	N262	N	0.457682	0.807923	0.090061
	N263	N	0.533587	0.806522	0.921992
	N264	N	0.459559	0.896073	0.186849
	N265	N	0.529044	0.074339	0.190903
	N266	N	0.458066	0.070303	0.826745
	N267	N	0.529870	0.892999	0.823566
	N268	N	0.907695	0.162702	0.469678
	N269	N	0.082790	0.162671	0.542196
	N270	N	0.081730	0.800264	0.469672
	N271	N	0.908150	0.800927	0.542201
	N272	N	0.173006	0.445218	0.922655
	N273	N	0.170889	0.520701	0.089446
	N274	N	0.820610	0.444563	0.092254
	N275	N	0.822025	0.519962	0.924341
	O276	O	0.626124	0.434566	0.521401
	H277	H	0.633174	0.436229	0.503576
	H278	H	0.620888	0.438150	0.515111
	O279	O	0.445847	0.419260	0.550835
	H280	H	0.437234	0.439097	0.550031
	H281	H	0.433564	0.411205	0.555938
	O282	O	0.366556	0.404016	0.653952
	H283	H	0.370026	0.403450	0.640761
	H284	H	0.370574	0.412701	0.652483
	O285	O	0.526819	0.332251	0.543402
	H286	H	0.533906	0.320405	0.566360
	H287	H	0.523848	0.333412	0.544975
	O288	O	0.820632	1.179060	1.009626
	H289	H	0.807087	1.196498	1.004047
	H290	H	0.815628	1.173334	1.010477
	O291	O	0.109492	1.025747	0.102285
	H292	H	0.111878	1.011217	0.087969
	H293	H	0.111244	1.027780	0.112245
	O294	O	0.367958	0.491639	0.361178
	H295	H	0.361239	0.473258	0.356471
	H296	H	0.360380	0.495592	0.355913
	O297	O	0.419156	0.491846	0.550153
	H298	H	0.434349	0.489501	0.549430
	H299	H	0.415624	0.497550	0.538337
	O300	O	0.607945	0.575688	0.464040
	H301	H	0.608149	0.567180	0.465874
	H302	H	0.617268	0.585937	0.476009
	O303	O	0.547804	0.463955	0.467070
	H304	H	0.560951	0.453429	0.467224
	H305	H	0.538992	0.474256	0.455820
	O306	O	0.499497	0.663957	0.435141
	H307	H	0.509218	0.679376	0.436752
	H308	H	0.503760	0.664607	0.421230
	O309	O	0.601161	0.628717	0.694849
	H310	H	0.583057	0.626484	0.696050
	H311	H	0.612615	0.635714	0.693530
	O312	O	0.152890	-0.090426	-0.174486
	H313	H	0.168949	-0.085085	-0.185520
	H314	H	0.156739	-0.102943	-0.167241
	O315	O	0.557343	0.663428	0.616595
	H316	H	0.542035	0.653407	0.616576
	H317	H	0.557335	0.678370	0.615582
	O318	O	0.611561	1.428013	1.307048
	H319	H	0.613521	1.402185	1.292514
	H320	H	0.624148	1.438399	1.308033
	O321	O	0.499879	0.449897	0.592254
	H322	H	0.511228	0.473695	0.598904
	H323	H	0.493542	0.432779	0.607088
	O324	O	-0.076849	1.071781	0.003865
	H325	H	-0.085779	1.070289	0.000708
	H326	H	-0.073471	1.094078	-0.006469
	O327	O	0.503658	0.402009	0.644146
	H328	H	0.507330	0.392334	0.657795
	H329	H	0.497838	0.415121	0.640540
	O330	O	0.009149	-0.009990	0.827184
	H331	H	0.005066	0.003021	0.834280
	H332	H	-0.001181	-0.002923	0.835987
	O333	O	-0.193645	-0.023539	1.096544
	H334	H	-0.192729	-0.034626	1.089812
	H335	H	-0.175766	-0.028662	1.086417
	O336	O	0.527722	0.519680	0.439037
	H337	H	0.524775	0.535172	0.440639
	H338	H	0.530433	0.498842	0.436587
	O339	O	1.086844	-0.039360	-0.076597
	H340	H	1.087696	-0.040384	-0.065958
	H341	H	1.089358	-0.035793	-0.072711
	O342	O	-0.077538	-0.062412	-0.062594
	H343	H	-0.081103	-0.049145	-0.054839
	H344	H	-0.082044	-0.065168	-0.084574
	O345	O	1.055518	-0.029149	1.031049
	H346	H	1.067819	-0.033680	1.018064
	H347	H	1.060021	-0.045487	1.040680
	O348	O	0.937849	0.822264	0.131956
	H349	H	0.938668	0.825409	0.138770
	H350	H	0.938143	0.835041	0.129935
	O351	O	0.578308	0.342626	0.565327
	H352	H	0.572127	0.347261	0.563705
	H353	H	0.585101	0.354944	0.551975
	O354	O	0.973754	0.143016	0.816008
	H355	H	0.976589	0.159703	0.803845
	H356	H	0.981726	0.128856	0.814664
	O357	O	0.361963	0.484637	0.334237
	H358	H	0.365764	0.475365	0.324062
	H359	H	0.361108	0.480584	0.342709
	O360	O	0.473039	0.352595	0.466176
	H361	H	0.459906	0.352121	0.464423
	H362	H	0.475296	0.369635	0.472460
	O363	O	-0.043742	1.014913	0.840044
	H364	H	-0.052558	1.017302	0.838902
	H365	H	-0.039570	1.013995	0.828828
	O366	O	0.881446	1.140588	-0.139468
	H367	H	0.886243	1.133991	-0.124838
	H368	H	0.878086	1.144060	-0.151005
	O369	O	0.067732	1.090193	0.134669
	H370	H	0.070750	1.108051	0.141914
	H371	H	0.063193	1.074972	0.134951
	O372	O	0.635594	0.525383	0.540185
	H373	H	0.629957	0.526779	0.544317
	H374	H	0.647222	0.524280	0.546754
	O375	O	0.324786	0.603050	0.471855
	H376	H	0.318984	0.605189	0.458026
	H377	H	0.333520	0.613202	0.458282
	O378	O	1.122996	0.971049	0.093343
	H379	H	1.106536	0.970719	0.096491
	H380	H	1.122926	0.983034	0.087565
	O381	O	1.062729	-0.049793	0.071728
	H382	H	1.060365	-0.038449	0.075242
	H383	H	1.054029	-0.045691	0.073192
	O384	O	1.019383	0.988391	0.057415
	H385	H	1.003539	1.003767	0.043439
	H386	H	1.025956	0.996404	0.063153
	O387	O	0.086337	-0.076571	-0.085124
	H388	H	0.077887	-0.080600	-0.097092
	H389	H	0.085834	-0.079133	-0.097310
	O390	O	-0.146458	0.962237	-0.061974
	H391	H	-0.154945	0.960452	-0.065669
	H392	H	-0.141450	0.963102	-0.053242
	O393	O	0.842691	0.943923	1.189189
	H394	H	0.828639	0.947786	1.186935
	H395	H	0.834842	0.944686	1.197632
	O396	O	0.588858	0.585309	0.512121
	H397	H	0.596911	0.598787	0.507068
	H398	H	0.564253	0.583939	0.508717
	O399	O	0.136114	1.088884	0.997584
	H400	H	0.155308	1.085615	1.005572
	H401	H	0.128446	1.077048	1.009625
	O402	O	0.490968	0.408822	0.318788
	H403	H	0.493872	0.402441	0.328997
	H404	H	0.494339	0.393277	0.311771
	O405	O	1.031997	1.041372	0.042962
	H406	H	1.029949	1.034933	0.050753
	H407	H	1.022807	1.048134	0.045959
	O408	O	1.069070	0.791183	0.013388
	H409	H	1.064707	0.791819	-0.002729
	H410	H	1.079643	0.792030	0.009939
	O411	O	0.833281	-0.154005	1.010575
	H412	H	0.842094	-0.160033	1.020034
	H413	H	0.833754	-0.143365	1.014806
	O414	O	0.396352	0.339882	0.696662
	H415	H	0.391219	0.351088	0.695855
	H416	H	0.388650	0.336898	0.704990
	O417	O	0.470044	0.501840	0.486682
	H418	H	0.468369	0.488432	0.489430
	H419	H	0.484339	0.500150	0.497655
