data_Molecule from HDF5

_cell_length_a		16.717548
_cell_length_b		16.491261
_cell_length_c		16.396480
_cell_angle_alpha	90.017134
_cell_angle_beta	90.050176
_cell_angle_gamma	89.917826
_symmetry_space_group_name_H-M	'P 1'
_symmetry_Int_Tables_number		1

loop_
	_symmetry_equiv_pos_as_xyz
	x,y,z

loop_
	_atom_site_label
	_atom_site_type_symbol
	_atom_site_fract_x
	_atom_site_fract_y
	_atom_site_fract_z
	H0	H	0.363649	0.829229	0.724594
	H1	H	0.568598	0.145244	0.725371
	H2	H	0.569059	0.830401	0.285059
	H3	H	0.363363	0.145151	0.285510
	H4	H	0.685732	0.382055	0.846166
	H5	H	0.688397	0.595843	0.160951
	H6	H	0.241985	0.598094	0.848530
	H7	H	0.244002	0.383064	0.161778
	H8	H	0.809925	0.709166	0.402064
	H9	H	0.120414	0.714046	0.614861
	H10	H	0.811663	0.265850	0.610852
	H11	H	0.120544	0.265540	0.398974
	H12	H	0.808753	0.388170	0.723261
	H13	H	0.120636	0.597293	0.731277
	H14	H	0.808791	0.590907	0.286011
	H15	H	0.120487	0.383154	0.281864
	H16	H	0.360891	0.710120	0.847317
	H17	H	0.568715	0.707452	0.163410
	H18	H	0.567926	0.268954	0.845889
	H19	H	0.362537	0.269041	0.163542
	H20	H	0.691321	0.833185	0.395533
	H21	H	0.691601	0.141072	0.616178
	H22	H	0.243844	0.830633	0.611862
	H23	H	0.241277	0.142538	0.396072
	H24	H	0.864541	0.330627	0.222798
	H25	H	0.069324	0.646517	0.226093
	H26	H	0.067366	0.330655	0.787435
	H27	H	0.862820	0.647632	0.786260
	H28	H	0.186699	0.881922	0.347349
	H29	H	0.188267	0.094421	0.661894
	H30	H	0.743094	0.095359	0.349762
	H31	H	0.739559	0.875054	0.660451
	H32	H	0.309835	0.209794	0.900698
	H33	H	0.622145	0.209666	0.109672
	H34	H	0.312757	0.760860	0.115618
	H35	H	0.621795	0.765195	0.899271
	H36	H	0.311889	0.879891	0.230893
	H37	H	0.622274	0.092376	0.227536
	H38	H	0.309130	0.091385	0.784801
	H39	H	0.621740	0.882699	0.783170
	H40	H	0.862074	0.207359	0.347521
	H41	H	0.069598	0.207562	0.663484
	H42	H	0.067375	0.770296	0.345332
	H43	H	0.860258	0.765659	0.663408
	H44	H	0.187599	0.332817	0.898944
	H45	H	0.191130	0.643431	0.116889
	H46	H	0.744174	0.332111	0.109869
	H47	H	0.743485	0.645903	0.898003
	H48	H	0.372111	0.101944	0.596317
	H49	H	0.555505	0.874369	0.592904
	H50	H	0.555897	0.101225	0.416139
	H51	H	0.379839	0.876642	0.416558
	H52	H	0.554478	0.397622	0.118280
	H53	H	0.556071	0.579021	0.889686
	H54	H	0.382577	0.571492	0.114778
	H55	H	0.375241	0.398745	0.890828
	H56	H	0.076928	0.574294	0.413606
	H57	H	0.854672	0.577023	0.598663
	H58	H	0.078532	0.398147	0.596387
	H59	H	0.852862	0.397828	0.411979
	H60	H	0.076627	0.397642	0.593295
	H61	H	0.855620	0.582313	0.590323
	H62	H	0.079478	0.582392	0.412939
	H63	H	0.853846	0.394746	0.417352
	H64	H	0.378566	0.579677	0.119326
	H65	H	0.556951	0.573192	0.891392
	H66	H	0.559824	0.400260	0.118972
	H67	H	0.374994	0.402491	0.891382
	H68	H	0.553508	0.098326	0.420272
	H69	H	0.552371	0.876712	0.591630
	H70	H	0.378541	0.100175	0.595334
	H71	H	0.377447	0.877445	0.423433
	H72	H	0.877723	0.601011	0.091418
	H73	H	0.052917	0.380092	0.085862
	H74	H	0.057685	0.600965	0.922390
	H75	H	0.878637	0.377886	0.915912
	H76	H	0.058479	0.897832	0.620393
	H77	H	0.061910	0.076826	0.389415
	H78	H	0.878047	0.073524	0.618755
	H79	H	0.882479	0.903574	0.396535
	H80	H	0.575863	0.078732	0.917090
	H81	H	0.353535	0.080251	0.101031
	H82	H	0.574447	0.899976	0.092766
	H83	H	0.355007	0.896386	0.916599
	H84	H	0.576666	0.899719	0.094862
	H85	H	0.355774	0.082697	0.089955
	H86	H	0.576754	0.076736	0.914430
	H87	H	0.356889	0.899861	0.919014
	H88	H	0.879442	0.074178	0.618079
	H89	H	0.052720	0.071081	0.393704
	H90	H	0.057491	0.904473	0.617691
	H91	H	0.876423	0.896025	0.391509
	H92	H	0.054956	0.602953	0.914910
	H93	H	0.061040	0.375064	0.092262
	H94	H	0.870646	0.602735	0.090848
	H95	H	0.871684	0.375569	0.919352
	H96	H	0.373467	0.098828	0.590236
	H97	H	0.555872	0.876393	0.589217
	H98	H	0.558331	0.100711	0.421117
	H99	H	0.372947	0.873920	0.418330
	H100	H	0.555184	0.403343	0.116589
	H101	H	0.551557	0.575859	0.892745
	H102	H	0.372677	0.571564	0.117970
	H103	H	0.377992	0.401096	0.892242
	H104	H	0.075906	0.579765	0.420185
	H105	H	0.859364	0.573279	0.590186
	H106	H	0.076687	0.400728	0.594967
	H107	H	0.855918	0.400820	0.416548
	H108	H	0.874452	0.603200	0.097699
	H109	H	0.050561	0.376194	0.096659
	H110	H	0.050322	0.600075	0.920242
	H111	H	0.872634	0.373482	0.911301
	H112	H	0.052384	0.899660	0.617308
	H113	H	0.051630	0.082319	0.390933
	H114	H	0.878165	0.075040	0.618466
	H115	H	0.872855	0.906382	0.394136
	H116	H	0.578082	0.079739	0.914574
	H117	H	0.357404	0.072059	0.093784
	H118	H	0.575987	0.898070	0.093375
	H119	H	0.355603	0.900290	0.914457
	C120	C	0.343286	-0.003703	0.626574
	C121	C	0.586934	0.978843	0.625761
	C122	C	0.587835	-0.003550	0.385134
	C123	C	0.344636	0.979262	0.385191
	C124	C	0.587232	0.367942	0.013224
	C125	C	0.586710	0.608822	0.995730
	C126	C	0.344504	0.609375	0.013880
	C127	C	0.344827	0.368281	0.996253
	C128	C	-0.025764	0.610179	0.383631
	C129	C	0.958002	0.611333	0.627676
	C130	C	-0.025894	0.367295	0.626725
	C131	C	0.956809	0.366000	0.382676
	C132	C	0.843543	0.497745	0.125385
	C133	C	0.086654	0.480593	0.125638
	C134	C	0.086150	0.497670	0.885675
	C135	C	0.843240	0.480277	0.883412
	C136	C	0.086753	0.867832	0.513683
	C137	C	0.087434	0.109075	0.495939
	C138	C	0.845335	0.107869	0.514658
	C139	C	0.844447	0.867586	0.497602
	C140	C	0.473711	0.109855	0.883433
	C141	C	0.458350	0.110082	0.127330
	C142	C	0.473805	0.865986	0.127376
	C143	C	0.458067	0.866372	0.883666
	C144	C	0.343424	0.877102	0.685703
	C145	C	0.588509	0.097189	0.686429
	C146	C	0.588825	0.877880	0.324688
	C147	C	0.343198	0.097768	0.324788
	C148	C	0.646256	0.364491	0.893992
	C149	C	0.647409	0.612872	0.114223
	C150	C	0.282914	0.614799	0.895747
	C151	C	0.284858	0.365329	0.115076
	C152	C	0.856708	0.669339	0.382859
	C153	C	0.074194	0.673205	0.632283
	C154	C	0.857612	0.306555	0.629377
	C155	C	0.074011	0.305952	0.380433
	C156	C	0.856218	0.367199	0.685156
	C157	C	0.073976	0.615152	0.690428
	C158	C	0.856153	0.610653	0.325162
	C159	C	0.074013	0.364480	0.322407
	C160	C	0.342134	0.670509	0.895029
	C161	C	0.588204	0.668576	0.115430
	C162	C	0.587478	0.308252	0.893783
	C163	C	0.343513	0.308680	0.115779
	C164	C	0.649314	0.879160	0.379609
	C165	C	0.649455	0.095364	0.632197
	C166	C	0.283661	0.877839	0.629800
	C167	C	0.282996	0.096551	0.379873
	C168	C	0.843920	0.378478	0.184081
	C169	C	0.088363	0.598898	0.186661
	C170	C	0.086932	0.378507	0.826298
	C171	C	0.843161	0.599612	0.824855
	C172	C	0.145946	0.864864	0.394280
	C173	C	0.147698	0.112207	0.614684
	C174	C	0.784170	0.112176	0.396588
	C175	C	0.781674	0.860394	0.614409
	C176	C	0.356488	0.169518	0.882051
	C177	C	0.575472	0.169522	0.128605
	C178	C	0.358639	0.802981	0.132505
	C179	C	0.574853	0.805647	0.881070
	C180	C	0.358084	0.862026	0.189947
	C181	C	0.575570	0.111255	0.187203
	C182	C	0.356017	0.110531	0.824538
	C183	C	0.575070	0.864225	0.823367
	C184	C	0.843272	0.168094	0.395556
	C185	C	0.088717	0.168490	0.615382
	C186	C	0.087180	0.808784	0.393579
	C187	C	0.842064	0.805974	0.615735
	C188	C	0.146802	0.379637	0.881664
	C189	C	0.148815	0.597282	0.132024
	C190	C	0.784384	0.379346	0.127906
	C191	C	0.783694	0.598877	0.880471
	C192	C	0.367558	0.078848	0.601161
	C193	C	0.561682	0.896990	0.599049
	C194	C	0.563135	0.078624	0.411689
	C195	C	0.369613	0.897435	0.411527
	C196	C	0.563394	0.393149	0.096417
	C197	C	0.561842	0.583253	0.912894
	C198	C	0.370344	0.582181	0.095968
	C199	C	0.369078	0.393459	0.913307
	C200	C	0.056122	0.585650	0.408317
	C201	C	0.877800	0.585071	0.600760
	C202	C	0.055754	0.391957	0.601978
	C203	C	0.875473	0.390637	0.408118
	C204	C	0.867426	0.580744	0.100571
	C205	C	0.061810	0.398568	0.099171
	C206	C	0.061322	0.579913	0.911718
	C207	C	0.867298	0.397326	0.908506
	C208	C	0.062885	0.893315	0.596759
	C209	C	0.062740	0.083732	0.412898
	C210	C	0.871140	0.081612	0.597059
	C211	C	0.869744	0.894534	0.415266
	C212	C	0.555506	0.085452	0.908178
	C213	C	0.376750	0.085308	0.102205
	C214	C	0.554570	0.891993	0.101188
	C215	C	0.376810	0.891719	0.909145
	Zn216	Zn	0.465494	-0.012419	0.753870
	Zn217	Zn	0.465982	-0.012024	0.257114
	Zn218	Zn	0.714842	0.488998	0.003702
	Zn219	Zn	0.216313	0.489266	0.005585
	Zn220	Zn	-0.033694	0.740050	0.505676
	Zn221	Zn	-0.034416	0.236857	0.505452
	Zn222	Zn	-0.034102	0.489239	0.756418
	Zn223	Zn	-0.034331	0.488747	0.253900
	Zn224	Zn	0.465973	0.736487	0.005303
	Zn225	Zn	0.465705	0.240028	0.005151
	Zn226	Zn	0.716719	-0.012146	0.505999
	Zn227	Zn	0.215174	-0.012666	0.504724
	N228	N	0.379479	0.951816	0.683937
	N229	N	0.550440	0.023697	0.682539
	N230	N	0.551355	0.951850	0.327943
	N231	N	0.380764	0.023898	0.327936
	N232	N	0.646289	0.400869	0.969379
	N233	N	0.646846	0.576715	0.038790
	N234	N	0.283968	0.577761	0.970891
	N235	N	0.285373	0.401576	0.039758
	N236	N	0.931339	0.669655	0.418114
	N237	N	0.001117	0.671244	0.594159
	N238	N	0.932037	0.306435	0.593920
	N239	N	0.000264	0.306581	0.417266
	N240	N	0.929802	0.404009	0.683933
	N241	N	0.000807	0.577505	0.687898
	N242	N	0.930368	0.574880	0.325334
	N243	N	0.000121	0.400933	0.323581
	N244	N	0.379508	0.667505	0.969651
	N245	N	0.551310	0.666230	0.040669
	N246	N	0.551560	0.310002	0.968984
	N247	N	0.380173	0.310367	0.040814
	N248	N	0.648909	0.954093	0.416292
	N249	N	0.648831	0.020613	0.595187
	N250	N	0.283386	0.953088	0.593723
	N251	N	0.283687	0.021886	0.416651
	N252	N	0.879817	0.453305	0.182860
	N253	N	0.050173	0.525284	0.182770
	N254	N	0.049968	0.452886	0.828515
	N255	N	0.879509	0.524936	0.826462
	N256	N	0.146168	0.900576	0.470039
	N257	N	0.147263	0.076162	0.539119
	N258	N	0.785273	0.075580	0.471819
	N259	N	0.783168	0.898145	0.539719
	N260	N	0.430734	0.169257	0.917923
	N261	N	0.501430	0.169156	0.092378
	N262	N	0.431473	0.805352	0.094207
	N263	N	0.500982	0.806681	0.917948
	N264	N	0.430818	0.900529	0.186921
	N265	N	0.501513	0.075250	0.186673
	N266	N	0.429948	0.074326	0.824927
	N267	N	0.501509	0.901232	0.824860
	N268	N	0.880546	0.165666	0.470142
	N269	N	0.052259	0.166893	0.540433
	N270	N	0.051276	0.810395	0.468843
	N271	N	0.880515	0.810404	0.542018
	N272	N	0.147014	0.455007	0.917454
	N273	N	0.147897	0.522760	0.094618
	N274	N	0.783860	0.454711	0.092345
	N275	N	0.783356	0.523382	0.915876
	O276	O	1.055030	1.179320	-0.094588
	H277	H	1.059559	1.173376	-0.087208
	H278	H	1.069284	1.184218	-0.119468
	O279	O	-0.246839	-0.219636	1.174433
	H280	H	-0.238388	-0.212005	1.169664
	H281	H	-0.264402	-0.227364	1.173088
	O282	O	1.517030	1.643488	0.477243
	H283	H	1.504884	1.641972	0.499941
	H284	H	1.512853	1.636397	0.484955
	O285	O	0.270155	0.676813	0.307346
	H286	H	0.292320	0.683941	0.325828
	H287	H	0.264010	0.680959	0.292808
	O288	O	1.878005	-0.079677	1.903776
	H289	H	1.884652	-0.069015	1.907408
	H290	H	1.887101	-0.083393	1.900475
	O291	O	0.343722	0.651291	0.660163
	H292	H	0.352072	0.632343	0.669705
	H293	H	0.319905	0.657419	0.659290
	O294	O	0.481925	-0.375576	-0.378747
	H295	H	0.461641	-0.384028	-0.382976
	H296	H	0.473845	-0.370995	-0.369844
	O297	O	1.499091	0.304392	-0.475639
	H298	H	1.484240	0.299198	-0.493027
	H299	H	1.511787	0.305717	-0.475144
	O300	O	0.078270	0.002470	0.152493
	H301	H	0.075064	-0.012070	0.145039
	H302	H	0.068295	0.019197	0.152206
	O303	O	0.186309	-0.041316	-0.211733
	H304	H	0.164918	-0.066168	-0.207064
	H305	H	0.217580	-0.040663	-0.241684
	O306	O	0.988842	-0.008354	-0.203224
	H307	H	0.995524	-0.023311	-0.207544
	H308	H	0.972982	-0.015578	-0.214986
	O309	O	0.953946	0.777322	1.001667
	H310	H	0.971713	0.768607	1.006191
	H311	H	0.947379	0.778561	1.016923
	O312	O	0.249258	0.273257	0.539822
	H313	H	0.265853	0.274890	0.521663
	H314	H	0.225854	0.251267	0.531229
	O315	O	0.931647	1.201297	-0.208155
	H316	H	0.927340	1.218013	-0.232259
	H317	H	0.928740	1.196620	-0.206806
	O318	O	0.539573	1.261532	0.277191
	H319	H	0.549927	1.238406	0.258294
	H320	H	0.551802	1.261526	0.282340
	O321	O	-0.108347	0.945355	0.843309
	H322	H	-0.121937	0.946187	0.850167
	H323	H	-0.113526	0.934060	0.834269
	O324	O	0.798185	0.163028	1.172894
	H325	H	0.812356	0.153616	1.158456
	H326	H	0.802100	0.142463	1.163770
	O327	O	1.245236	0.706416	0.474899
	H328	H	1.230597	0.712698	0.463367
	H329	H	1.230583	0.705154	0.482628
	O330	O	0.655756	0.657705	0.342936
	H331	H	0.634987	0.648022	0.351242
	H332	H	0.649376	0.663410	0.351158
	O333	O	0.692591	0.467893	0.550648
	H334	H	0.694873	0.475422	0.550090
	H335	H	0.693605	0.481231	0.555322
	O336	O	0.884577	0.769887	0.222277
	H337	H	0.868837	0.759455	0.218658
	H338	H	0.891704	0.744541	0.234496
	O339	O	0.678173	0.698708	0.523744
	H340	H	0.655313	0.707192	0.510203
	H341	H	0.687365	0.720028	0.529849
	O342	O	0.100732	0.957237	0.087922
	H343	H	0.078266	0.951054	0.080690
	H344	H	0.104357	0.964313	0.102395
	O345	O	-0.408127	0.693707	0.705660
	H346	H	-0.404705	0.700954	0.684928
	H347	H	-0.438986	0.701875	0.711793
	O348	O	0.244744	0.467379	0.724262
	H349	H	0.247098	0.433095	0.725365
	H350	H	0.222603	0.451285	0.745659
	O351	O	0.238127	0.437124	0.461645
	H352	H	0.237704	0.443156	0.453066
	H353	H	0.231313	0.428468	0.456148
	O354	O	0.506747	0.596741	1.491282
	H355	H	0.484694	0.598399	1.474945
	H356	H	0.510475	0.585663	1.487875
	O357	O	0.638017	0.296386	0.660131
	H358	H	0.633070	0.297590	0.666276
	H359	H	0.635748	0.302793	0.640877
	O360	O	0.675122	0.273676	0.474009
	H361	H	0.677143	0.288088	0.467162
	H362	H	0.688299	0.263827	0.471318
	O363	O	1.228469	1.250065	1.252516
	H364	H	1.220511	1.251043	1.243502
	H365	H	1.198445	1.244828	1.254171
	O366	O	1.088662	0.048394	1.015784
	H367	H	1.092436	0.059748	1.021077
	H368	H	1.092689	0.065331	1.004443
	O369	O	0.149591	-0.196635	0.824549
	H370	H	0.097393	-0.206429	0.813993
	H371	H	0.159742	-0.184670	0.852171
	O372	O	-0.012934	0.194650	0.197377
	H373	H	-0.024255	0.205044	0.207472
	H374	H	-0.028810	0.194092	0.188369
	O375	O	0.984408	-0.186359	0.132412
	H376	H	1.004926	-0.177996	0.119999
	H377	H	0.986969	-0.204235	0.151834
	O378	O	0.055662	0.151256	0.938216
	H379	H	0.065438	0.167833	0.916920
	H380	H	0.064584	0.142845	0.938233
	O381	O	-0.148048	0.914438	-0.002023
	H382	H	-0.142378	0.922803	-0.014953
	H383	H	-0.151878	0.919322	-0.008579
	O384	O	-0.196614	1.144187	-0.038119
	H385	H	-0.197587	1.141699	-0.041082
	H386	H	-0.196884	1.151816	-0.032995
	O387	O	0.534383	0.368554	1.685950
	H388	H	0.531467	0.397403	1.685171
	H389	H	0.539120	0.369460	1.665620
	O390	O	0.426260	0.278379	0.711553
	H391	H	0.440714	0.269146	0.729541
	H392	H	0.444979	0.283330	0.701198
	O393	O	0.245729	-0.444614	-0.425933
	H394	H	0.243736	-0.447122	-0.423438
	H395	H	0.240500	-0.457554	-0.411105
	O396	O	0.261637	0.290035	0.702832
	H397	H	0.258052	0.288326	0.654395
	H398	H	0.299680	0.281057	0.712445
	O399	O	0.769453	0.980820	0.221355
	H400	H	0.764003	0.971768	0.235624
	H401	H	0.765575	0.971013	0.232185
	O402	O	1.419700	-0.479223	1.701709
	H403	H	1.436488	-0.479320	1.688146
	H404	H	1.393678	-0.500295	1.708914
	O405	O	-0.207811	-0.217713	0.022854
	H406	H	-0.221908	-0.232912	0.016614
	H407	H	-0.201991	-0.203784	0.032151
	O408	O	1.179654	1.078254	1.204024
	H409	H	1.165002	1.089323	1.207055
	H410	H	1.186987	1.073148	1.211421
	O411	O	1.322070	1.456625	0.299783
	H412	H	1.322392	1.484556	0.290305
	H413	H	1.344201	1.455647	0.294101
	O414	O	0.175367	0.142038	0.013458
	H415	H	0.188589	0.151877	0.005082
	H416	H	0.178844	0.134400	0.007191
	O417	O	1.661134	0.295567	0.336007
	H418	H	1.654931	0.318620	0.339876
	H419	H	1.681436	0.288681	0.335609
	O420	O	0.944442	-0.009499	1.098973
	H421	H	0.955360	-0.017019	1.099878
	H422	H	0.953366	-0.014550	1.106165
	O423	O	0.432500	1.696378	-0.697648
	H424	H	0.438728	1.687797	-0.687732
	H425	H	0.432083	1.711758	-0.718044
	O426	O	0.119460	1.049136	-0.123088
	H427	H	0.106067	1.048234	-0.141045
	H428	H	0.113784	1.036285	-0.106664
	O429	O	1.119425	0.854578	1.159691
	H430	H	1.111773	0.881453	1.150270
	H431	H	1.118796	0.870978	1.151960
	O432	O	0.915222	-0.036424	1.169694
	H433	H	0.913156	-0.056786	1.156047
	H434	H	0.921263	-0.053660	1.173973
	O435	O	0.459987	0.553586	0.389537
	H436	H	0.453263	0.541947	0.398069
	H437	H	0.454362	0.554372	0.385981
	O438	O	0.541023	0.464805	0.462223
	H439	H	0.548630	0.466433	0.472545
	H440	H	0.531164	0.469360	0.453527
	O441	O	1.453307	0.491368	-0.649623
	H442	H	1.448463	0.505514	-0.651066
	H443	H	1.459298	0.464128	-0.642842
	O444	O	0.682833	0.459453	0.285321
	H445	H	0.693818	0.457496	0.267648
	H446	H	0.684695	0.465213	0.280405
	O447	O	0.622165	0.508229	0.633320
	H448	H	0.616921	0.504057	0.620879
	H449	H	0.645056	0.507195	0.634354
	O450	O	0.755686	0.003971	-0.213901
	H451	H	0.730045	0.016403	-0.236608
	H452	H	0.752489	0.020437	-0.196442
	O453	O	0.369669	0.400751	0.306515
	H454	H	0.352664	0.376878	0.293291
	H455	H	0.380986	0.404254	0.303898
	O456	O	-0.231561	1.184599	0.805156
	H457	H	-0.240605	1.188637	0.791315
	H458	H	-0.221176	1.181440	0.834108
	O459	O	0.991232	-0.221072	0.795659
	H460	H	0.984153	-0.240629	0.766872
	H461	H	0.968283	-0.215070	0.818159
	O462	O	0.345286	0.546497	0.450594
	H463	H	0.334282	0.536830	0.446961
	H464	H	0.333488	0.540028	0.448223
	O465	O	0.682109	0.596055	0.718521
	H466	H	0.679647	0.625525	0.723248
	H467	H	0.698435	0.588690	0.736445
	O468	O	-0.265655	1.046612	0.044228
	H469	H	-0.264894	1.037747	0.059885
	H470	H	-0.260392	1.050133	0.045607
	O471	O	1.185390	0.768607	0.985781
	H472	H	1.208269	0.748199	0.969329
	H473	H	1.201845	0.789217	0.990684
	O474	O	0.849388	1.205274	0.025699
	H475	H	0.848295	1.216076	0.010661
	H476	H	0.850994	1.198683	0.017081
	O477	O	0.389680	0.279184	0.444821
	H478	H	0.402185	0.282959	0.435767
	H479	H	0.381677	0.285237	0.434417
