data_Molecule from HDF5

_cell_length_a		16.143916
_cell_length_b		16.340008
_cell_length_c		16.370279
_cell_angle_alpha	90.097492
_cell_angle_beta	89.975183
_cell_angle_gamma	89.670391
_symmetry_space_group_name_H-M	'P 1'
_symmetry_Int_Tables_number		1

loop_
	_symmetry_equiv_pos_as_xyz
	x,y,z

loop_
	_atom_site_label
	_atom_site_type_symbol
	_atom_site_fract_x
	_atom_site_fract_y
	_atom_site_fract_z
	H0	H	0.393814	0.833728	0.713473
	H1	H	0.601009	0.155303	0.715133
	H2	H	0.602086	0.833137	0.277813
	H3	H	0.394079	0.155657	0.275003
	H4	H	0.720425	0.390183	0.834422
	H5	H	0.714715	0.593493	0.158462
	H6	H	0.283777	0.592887	0.833243
	H7	H	0.284769	0.393244	0.157651
	H8	H	0.836418	0.713223	0.394510
	H9	H	0.164137	0.712382	0.595991
	H10	H	0.836302	0.282633	0.597158
	H11	H	0.163276	0.279211	0.395556
	H12	H	0.837461	0.397435	0.712314
	H13	H	0.164094	0.598277	0.712736
	H14	H	0.837622	0.599710	0.277992
	H15	H	0.164564	0.393365	0.281279
	H16	H	0.395002	0.713294	0.834396
	H17	H	0.602978	0.713264	0.156060
	H18	H	0.604781	0.273622	0.834059
	H19	H	0.397600	0.274820	0.155575
	H20	H	0.718683	0.835045	0.391955
	H21	H	0.710506	0.159704	0.593299
	H22	H	0.282754	0.832524	0.592200
	H23	H	0.282720	0.158856	0.395848
	H24	H	0.898876	0.334121	0.215817
	H25	H	0.103493	0.656970	0.214685
	H26	H	0.106575	0.335588	0.774818
	H27	H	0.895998	0.656659	0.779039
	H28	H	0.214542	0.895238	0.332207
	H29	H	0.214134	0.096219	0.656413
	H30	H	0.783086	0.097235	0.331749
	H31	H	0.781918	0.898119	0.656209
	H32	H	0.337760	0.214000	0.890745
	H33	H	0.663804	0.207162	0.094715
	H34	H	0.335549	0.778811	0.094821
	H35	H	0.663409	0.778230	0.894145
	H36	H	0.335331	0.893079	0.210391
	H37	H	0.662342	0.094792	0.211756
	H38	H	0.335734	0.096332	0.778690
	H39	H	0.662204	0.890770	0.776273
	H40	H	0.894592	0.217498	0.334185
	H41	H	0.099976	0.212978	0.656415
	H42	H	0.103696	0.775375	0.335184
	H43	H	0.893897	0.777528	0.655293
	H44	H	0.215251	0.332357	0.896976
	H45	H	0.216156	0.657770	0.095620
	H46	H	0.787012	0.331332	0.094890
	H47	H	0.781763	0.656495	0.897012
	H48	H	0.416556	0.106479	0.587744
	H49	H	0.589013	0.883806	0.576963
	H50	H	0.592000	0.111285	0.403897
	H51	H	0.412861	0.878804	0.393684
	H52	H	0.589255	0.398814	0.109970
	H53	H	0.588238	0.587884	0.880738
	H54	H	0.414163	0.582103	0.107479
	H55	H	0.414227	0.400086	0.881344
	H56	H	0.114652	0.581552	0.405707
	H57	H	0.883272	0.591328	0.586124
	H58	H	0.119346	0.405893	0.592143
	H59	H	0.883766	0.409643	0.403049
	H60	H	0.118684	0.399032	0.584223
	H61	H	0.886088	0.583987	0.585120
	H62	H	0.118632	0.589198	0.400784
	H63	H	0.882652	0.405479	0.404224
	H64	H	0.411941	0.593615	0.111096
	H65	H	0.593898	0.584602	0.879273
	H66	H	0.595045	0.398891	0.111957
	H67	H	0.406202	0.400900	0.878630
	H68	H	0.587998	0.112360	0.397145
	H69	H	0.595826	0.877504	0.586907
	H70	H	0.402018	0.109552	0.579165
	H71	H	0.410840	0.883086	0.408845
	H72	H	0.907462	0.611866	0.091854
	H73	H	0.083084	0.383291	0.088825
	H74	H	0.085181	0.606997	0.912220
	H75	H	0.912237	0.382680	0.909969
	H76	H	0.087075	0.908004	0.608861
	H77	H	0.087970	0.091968	0.378545
	H78	H	0.905002	0.093589	0.610528
	H79	H	0.919119	0.904490	0.383240
	H80	H	0.616651	0.083644	0.902701
	H81	H	0.382625	0.086539	0.084120
	H82	H	0.613996	0.907996	0.086713
	H83	H	0.380957	0.897580	0.903815
	H84	H	0.617874	0.900198	0.089315
	H85	H	0.383949	0.083493	0.083615
	H86	H	0.616069	0.083660	0.905516
	H87	H	0.384460	0.906343	0.908163
	H88	H	0.902846	0.088424	0.609730
	H89	H	0.092339	0.087698	0.379066
	H90	H	0.088619	0.902358	0.610388
	H91	H	0.905778	0.896846	0.376767
	H92	H	0.101589	0.613114	0.906533
	H93	H	0.097805	0.380269	0.082275
	H94	H	0.913342	0.607810	0.087324
	H95	H	0.906331	0.378738	0.901388
	H96	H	0.402998	0.114253	0.596066
	H97	H	0.582785	0.881172	0.588663
	H98	H	0.583572	0.109177	0.403277
	H99	H	0.397572	0.876632	0.400415
	H100	H	0.592127	0.403941	0.109067
	H101	H	0.588998	0.581593	0.882610
	H102	H	0.402928	0.585149	0.112224
	H103	H	0.410580	0.407448	0.882615
	H104	H	0.116554	0.589794	0.410377
	H105	H	0.882941	0.587077	0.591981
	H106	H	0.114713	0.408269	0.582999
	H107	H	0.884153	0.407769	0.407604
	H108	H	0.905715	0.609273	0.083730
	H109	H	0.095619	0.376630	0.097926
	H110	H	0.087159	0.612832	0.894863
	H111	H	0.917573	0.380837	0.900044
	H112	H	0.092743	0.906105	0.610409
	H113	H	0.086439	0.087033	0.381042
	H114	H	0.908536	0.088821	0.609254
	H115	H	0.903674	0.912900	0.381638
	H116	H	0.614695	0.080526	0.903133
	H117	H	0.382606	0.084946	0.086161
	H118	H	0.614331	0.901331	0.080147
	H119	H	0.381884	0.906013	0.898120
	C120	C	0.376405	0.003443	0.616652
	C121	C	0.618838	0.987529	0.614757
	C122	C	0.619749	0.003830	0.372016
	C123	C	0.376523	0.986881	0.371880
	C124	C	0.623239	0.370413	0.003653
	C125	C	0.620875	0.615054	0.987273
	C126	C	0.378735	0.616107	0.003359
	C127	C	0.379522	0.372166	0.987050
	C128	C	0.008678	0.617742	0.375049
	C129	C	0.991984	0.617796	0.617399
	C130	C	0.009042	0.375780	0.616808
	C131	C	0.991575	0.375924	0.375068
	C132	C	0.879442	0.503090	0.117896
	C133	C	0.122679	0.487138	0.118761
	C134	C	0.122246	0.503912	0.874455
	C135	C	0.879702	0.486821	0.874357
	C136	C	0.120058	0.874974	0.503229
	C137	C	0.119523	0.117913	0.486282
	C138	C	0.875434	0.120659	0.503179
	C139	C	0.877660	0.875036	0.486703
	C140	C	0.508258	0.114509	0.873374
	C141	C	0.491016	0.114662	0.115220
	C142	C	0.507737	0.872615	0.115938
	C143	C	0.490560	0.872609	0.873112
	C144	C	0.375449	0.881882	0.673909
	C145	C	0.619145	0.108160	0.674347
	C146	C	0.621224	0.881928	0.315695
	C147	C	0.375560	0.107905	0.314493
	C148	C	0.681397	0.370924	0.882566
	C149	C	0.676784	0.613412	0.109621
	C150	C	0.321439	0.614028	0.881808
	C151	C	0.322685	0.373203	0.108738
	C152	C	0.885549	0.674819	0.375338
	C153	C	0.115160	0.674318	0.615952
	C154	C	0.885735	0.320279	0.616540
	C155	C	0.114528	0.317660	0.375877
	C156	C	0.886336	0.377327	0.674199
	C157	C	0.115183	0.617692	0.674103
	C158	C	0.886144	0.618142	0.317270
	C159	C	0.115103	0.374768	0.318921
	C160	C	0.377353	0.673541	0.882364
	C161	C	0.621669	0.673574	0.108219
	C162	C	0.623957	0.312552	0.882534
	C163	C	0.379036	0.314215	0.107842
	C164	C	0.679102	0.882897	0.372838
	C165	C	0.673976	0.110267	0.613834
	C166	C	0.320104	0.881231	0.613797
	C167	C	0.320101	0.109501	0.374695
	C168	C	0.879640	0.382024	0.176055
	C169	C	0.122390	0.608641	0.175614
	C170	C	0.123888	0.383193	0.815514
	C171	C	0.877467	0.608345	0.817710
	C172	C	0.176931	0.874967	0.381227
	C173	C	0.176417	0.116405	0.607990
	C174	C	0.819955	0.118394	0.380933
	C175	C	0.820198	0.877308	0.607674
	C176	C	0.386047	0.174134	0.872530
	C177	C	0.614324	0.169899	0.114624
	C178	C	0.384603	0.816522	0.114573
	C179	C	0.614060	0.815829	0.873758
	C180	C	0.384526	0.873475	0.172245
	C181	C	0.613615	0.113779	0.172994
	C182	C	0.385047	0.115694	0.816561
	C183	C	0.613515	0.872149	0.815329
	C184	C	0.875538	0.178370	0.382252
	C185	C	0.119137	0.174194	0.608195
	C186	C	0.121363	0.815569	0.382680
	C187	C	0.875926	0.817218	0.607214
	C188	C	0.178477	0.381568	0.875866
	C189	C	0.178575	0.608972	0.116241
	C190	C	0.824197	0.380393	0.115905
	C191	C	0.820772	0.608345	0.876398
	C192	C	0.400055	0.088146	0.594182
	C193	C	0.595932	0.902947	0.591028
	C194	C	0.594820	0.088868	0.394753
	C195	C	0.400322	0.901745	0.394451
	C196	C	0.599239	0.393793	0.088455
	C197	C	0.597321	0.591723	0.902888
	C198	C	0.402652	0.593392	0.088181
	C199	C	0.403428	0.395774	0.902643
	C200	C	0.094542	0.593891	0.398740
	C201	C	0.906438	0.594427	0.594561
	C202	C	0.095221	0.398039	0.593262
	C203	C	0.905744	0.400517	0.398120
	C204	C	0.902094	0.587584	0.094404
	C205	C	0.099098	0.402127	0.096107
	C206	C	0.098244	0.588891	0.897766
	C207	C	0.904830	0.402730	0.897008
	C208	C	0.096339	0.898603	0.587887
	C209	C	0.095835	0.095565	0.401545
	C210	C	0.898790	0.097195	0.587737
	C211	C	0.902403	0.898106	0.402344
	C212	C	0.593468	0.089640	0.897012
	C213	C	0.405292	0.091645	0.091500
	C214	C	0.593310	0.896240	0.092239
	C215	C	0.404772	0.896342	0.896529
	Zn216	Zn	0.498572	-0.006134	0.745196
	Zn217	Zn	0.498367	-0.005792	0.243320
	Zn218	Zn	0.750714	0.493725	-0.003931
	Zn219	Zn	0.250782	0.494519	-0.003896
	Zn220	Zn	-0.000173	0.745771	0.495902
	Zn221	Zn	-0.000647	0.247934	0.495428
	Zn222	Zn	0.001456	0.496526	0.745530
	Zn223	Zn	0.000910	0.495856	0.247617
	Zn224	Zn	0.499825	0.745019	-0.005338
	Zn225	Zn	0.500453	0.242501	-0.004930
	Zn226	Zn	0.748037	-0.002700	0.493593
	Zn227	Zn	0.248533	-0.004003	0.494502
	N228	N	0.409839	0.958741	0.675740
	N229	N	0.585486	0.030910	0.675089
	N230	N	0.584910	0.958196	0.315164
	N231	N	0.409643	0.030780	0.312742
	N232	N	0.681151	0.406106	0.958970
	N233	N	0.676533	0.577484	0.033489
	N234	N	0.322308	0.578943	0.958135
	N235	N	0.322855	0.408704	0.032658
	N236	N	0.962699	0.674499	0.410458
	N237	N	0.037327	0.674756	0.581627
	N238	N	0.963153	0.319193	0.581530
	N239	N	0.036615	0.318152	0.410047
	N240	N	0.964153	0.410985	0.674399
	N241	N	0.037795	0.583285	0.675183
	N242	N	0.963881	0.583216	0.317084
	N243	N	0.037674	0.410207	0.318376
	N244	N	0.412125	0.674864	0.958963
	N245	N	0.587813	0.674773	0.031227
	N246	N	0.588493	0.312399	0.958895
	N247	N	0.413521	0.313413	0.031091
	N248	N	0.678385	0.959895	0.406993
	N249	N	0.673933	0.034452	0.577396
	N250	N	0.320542	0.957675	0.578953
	N251	N	0.320519	0.032962	0.409568
	N252	N	0.913395	0.459051	0.177389
	N253	N	0.088405	0.531730	0.177312
	N254	N	0.089675	0.460434	0.814480
	N255	N	0.913349	0.531865	0.816124
	N256	N	0.176328	0.911116	0.457171
	N257	N	0.176534	0.081931	0.531334
	N258	N	0.819688	0.083284	0.457067
	N259	N	0.821217	0.912722	0.531563
	N260	N	0.463687	0.173633	0.907103
	N261	N	0.537226	0.170253	0.079293
	N262	N	0.462325	0.815980	0.080172
	N263	N	0.536624	0.816032	0.908749
	N264	N	0.462124	0.907641	0.173184
	N265	N	0.535731	0.080145	0.173317
	N266	N	0.462021	0.079487	0.816679
	N267	N	0.535481	0.906518	0.814611
	N268	N	0.909303	0.180072	0.459434
	N269	N	0.084430	0.175360	0.531557
	N270	N	0.086881	0.815432	0.459465
	N271	N	0.911076	0.815851	0.530904
	N272	N	0.177435	0.457542	0.912001
	N273	N	0.178997	0.532079	0.081844
	N274	N	0.823741	0.456605	0.080480
	N275	N	0.821885	0.531775	0.910806
	O276	O	-0.014147	-0.107332	0.086043
	H277	H	-0.010050	-0.106870	0.089354
	H278	H	-0.008245	-0.106589	0.097806
	O279	O	0.406931	0.605379	0.512842
	H280	H	0.400149	0.612560	0.518720
	H281	H	0.412733	0.602487	0.530743
	O282	O	0.952426	0.023717	-0.114483
	H283	H	0.957533	0.017819	-0.127214
	H284	H	0.944039	0.021125	-0.108304
	O285	O	0.084291	0.926638	-0.164955
	H286	H	0.101137	0.925366	-0.165974
	H287	H	0.084461	0.911328	-0.171044
	O288	O	0.485504	0.641073	0.356517
	H289	H	0.477936	0.627995	0.349564
	H290	H	0.495461	0.650239	0.359176
	O291	O	0.673516	0.609436	0.528088
	H292	H	0.668531	0.618990	0.521435
	H293	H	0.665348	0.596367	0.509941
	O294	O	1.028340	0.913542	0.911028
	H295	H	1.029542	0.920773	0.923026
	H296	H	1.032513	0.921224	0.913568
	O297	O	0.110020	0.018283	-0.021812
	H298	H	0.101585	0.019337	-0.016841
	H299	H	0.107313	0.010701	-0.037748
	O300	O	0.547701	0.373484	0.394557
	H301	H	0.544727	0.371805	0.397567
	H302	H	0.537803	0.364548	0.398857
	O303	O	0.068379	1.066980	1.141236
	H304	H	0.064852	1.085184	1.133738
	H305	H	0.063651	1.064953	1.145261
	O306	O	0.348982	0.441986	0.518201
	H307	H	0.343378	0.458519	0.519131
	H308	H	0.359941	0.435606	0.520825
	O309	O	1.011633	-0.076563	0.027660
	H310	H	1.016903	-0.077907	0.012009
	H311	H	1.015005	-0.081315	0.029814
	O312	O	-0.157688	-0.149185	1.145063
	H313	H	-0.159986	-0.135486	1.139122
	H314	H	-0.160895	-0.138764	1.149354
	O315	O	0.463693	0.671577	0.620848
	H316	H	0.486805	0.674158	0.618135
	H317	H	0.465927	0.691742	0.633705
	O318	O	0.594328	0.424698	0.515820
	H319	H	0.592855	0.429888	0.522037
	H320	H	0.599209	0.415704	0.524484
	O321	O	0.589450	0.485563	0.438730
	H322	H	0.596692	0.487964	0.429428
	H323	H	0.581986	0.487509	0.432048
	O324	O	0.463632	0.380290	0.516644
	H325	H	0.472550	0.383105	0.512070
	H326	H	0.456032	0.379385	0.513364
	O327	O	-0.079198	1.086149	0.951489
	H328	H	-0.075830	1.080701	0.955781
	H329	H	-0.073937	1.103385	0.952666
	O330	O	0.490968	0.531811	0.619990
	H331	H	0.489187	0.537977	0.615082
	H332	H	0.507348	0.513425	0.629002
	O333	O	-0.081566	1.144393	0.941621
	H334	H	-0.078796	1.134049	0.944876
	H335	H	-0.066420	1.150275	0.928628
	O336	O	0.868812	0.966841	1.016500
	H337	H	0.860999	0.974441	1.012952
	H338	H	0.865417	0.954355	1.023440
	O339	O	0.619173	0.613207	0.525825
	H340	H	0.639576	0.614158	0.525337
	H341	H	0.631496	0.619483	0.511284
	O342	O	1.147496	-0.038757	-0.110855
	H343	H	1.144263	-0.025791	-0.119968
	H344	H	1.146824	-0.050831	-0.088073
	O345	O	0.533477	0.490132	0.579946
	H346	H	0.548060	0.492855	0.579655
	H347	H	0.532540	0.473852	0.589706
	O348	O	1.165309	1.080862	1.087531
	H349	H	1.169015	1.093411	1.077316
	H350	H	1.177804	1.079806	1.103637
	O351	O	0.921299	1.053214	0.091962
	H352	H	0.914138	1.065263	0.091327
	H353	H	0.926980	1.066166	0.098963
	O354	O	0.417229	0.541331	0.427672
	H355	H	0.401569	0.546013	0.428559
	H356	H	0.405736	0.556725	0.431826
	O357	O	0.621006	0.373809	0.376181
	H358	H	0.612223	0.373257	0.366325
	H359	H	0.620909	0.362300	0.376978
	O360	O	-0.007238	0.156013	0.064544
	H361	H	-0.014246	0.156979	0.040990
	H362	H	-0.014727	0.172989	0.067186
	O363	O	0.431821	0.503588	0.414895
	H364	H	0.435740	0.505693	0.427561
	H365	H	0.426410	0.511699	0.409171
	O366	O	0.640182	0.542438	0.676666
	H367	H	0.661714	0.536065	0.690261
	H368	H	0.644211	0.549167	0.669758
	O369	O	0.648501	0.545925	0.348850
	H370	H	0.636391	0.538377	0.340153
	H371	H	0.652522	0.543160	0.341239
	O372	O	-0.048940	0.908927	1.046731
	H373	H	-0.058205	0.917032	1.058995
	H374	H	-0.052079	0.898069	1.052120
	O375	O	0.443822	0.591971	0.551324
	H376	H	0.446840	0.594434	0.563989
	H377	H	0.443372	0.587021	0.543813
	O378	O	0.533023	0.393110	0.491064
	H379	H	0.520626	0.396094	0.491684
	H380	H	0.539421	0.399143	0.491556
	O381	O	0.406852	0.392969	0.563116
	H382	H	0.398647	0.389179	0.566097
	H383	H	0.419231	0.397427	0.559869
	O384	O	-0.107199	0.970317	-0.100608
	H385	H	-0.106012	0.968660	-0.097591
	H386	H	-0.107814	0.963377	-0.107192
	O387	O	0.933455	-0.067761	0.889787
	H388	H	0.935082	-0.066654	0.891161
	H389	H	0.939850	-0.083350	0.882587
	O390	O	0.051117	1.096596	0.020696
	H391	H	0.048994	1.112371	0.028800
	H392	H	0.052256	1.087031	0.025721
	O393	O	1.168670	0.968708	-0.029653
	H394	H	1.178262	0.962316	-0.029603
	H395	H	1.174872	0.956023	-0.044587
	O396	O	0.471291	0.354857	0.598947
	H397	H	0.487392	0.358331	0.598069
	H398	H	0.463530	0.358602	0.594909
	O399	O	-0.074289	0.808903	0.955701
	H400	H	-0.079314	0.807219	0.958945
	H401	H	-0.073368	0.799758	0.969751
	O402	O	1.121551	1.091565	0.993649
	H403	H	1.125852	1.083460	0.991335
	H404	H	1.132864	1.096207	0.993950
	O405	O	0.410978	0.434139	0.422849
	H406	H	0.418939	0.427655	0.427244
	H407	H	0.422547	0.429637	0.426855
