data_Molecule from HDF5

_cell_length_a		16.284565
_cell_length_b		16.244976
_cell_length_c		16.309723
_cell_angle_alpha	89.953891
_cell_angle_beta	89.903140
_cell_angle_gamma	90.016975
_symmetry_space_group_name_H-M	'P 1'
_symmetry_Int_Tables_number		1

loop_
	_symmetry_equiv_pos_as_xyz
	x,y,z

loop_
	_atom_site_label
	_atom_site_type_symbol
	_atom_site_fract_x
	_atom_site_fract_y
	_atom_site_fract_z
	H0	H	0.411541	0.836485	0.710805
	H1	H	0.611321	0.163216	0.710979
	H2	H	0.610140	0.835766	0.281616
	H3	H	0.412268	0.163585	0.280456
	H4	H	0.727538	0.402081	0.832655
	H5	H	0.725675	0.599102	0.159750
	H6	H	0.296014	0.601732	0.832244
	H7	H	0.295565	0.400332	0.158656
	H8	H	0.846964	0.714361	0.398397
	H9	H	0.174418	0.715299	0.593015
	H10	H	0.847722	0.285531	0.595965
	H11	H	0.174829	0.285572	0.396987
	H12	H	0.848491	0.401600	0.711618
	H13	H	0.175090	0.599523	0.709492
	H14	H	0.847703	0.599250	0.281544
	H15	H	0.174399	0.400797	0.279808
	H16	H	0.413527	0.715519	0.832363
	H17	H	0.609059	0.713994	0.159408
	H18	H	0.610969	0.287249	0.832176
	H19	H	0.413646	0.286283	0.158598
	H20	H	0.726176	0.836552	0.396983
	H21	H	0.725420	0.163569	0.594518
	H22	H	0.297035	0.835843	0.593970
	H23	H	0.297771	0.164087	0.398499
	H24	H	0.913772	0.335935	0.210057
	H25	H	0.108031	0.664779	0.208597
	H26	H	0.112072	0.337094	0.780063
	H27	H	0.913588	0.664474	0.782467
	H28	H	0.226108	0.901502	0.332164
	H29	H	0.226434	0.099027	0.659169
	H30	H	0.795686	0.099589	0.332475
	H31	H	0.795426	0.901121	0.659200
	H32	H	0.347414	0.214464	0.898085
	H33	H	0.675895	0.214504	0.092916
	H34	H	0.348088	0.787510	0.092904
	H35	H	0.675640	0.787472	0.898332
	H36	H	0.348219	0.902235	0.209678
	H37	H	0.675363	0.100292	0.211210
	H38	H	0.347839	0.098542	0.781531
	H39	H	0.674840	0.901172	0.780455
	H40	H	0.912476	0.215236	0.332754
	H41	H	0.109602	0.214614	0.659119
	H42	H	0.106934	0.788450	0.331564
	H43	H	0.912604	0.786352	0.659384
	H44	H	0.226665	0.337216	0.896840
	H45	H	0.225787	0.664414	0.094291
	H46	H	0.797059	0.336114	0.094839
	H47	H	0.799348	0.664613	0.899948
	H48	H	0.412531	0.118004	0.585735
	H49	H	0.605184	0.885299	0.578604
	H50	H	0.603412	0.117925	0.399199
	H51	H	0.417749	0.879889	0.392806
	H52	H	0.606983	0.401800	0.114310
	H53	H	0.609124	0.589080	0.879737
	H54	H	0.407460	0.590267	0.114092
	H55	H	0.414307	0.409023	0.878039
	H56	H	0.123480	0.590412	0.412617
	H57	H	0.894760	0.586513	0.597176
	H58	H	0.131206	0.396589	0.589560
	H59	H	0.893739	0.406867	0.398628
	H60	H	0.123594	0.411061	0.577592
	H61	H	0.891045	0.602258	0.591608
	H62	H	0.128375	0.585860	0.392268
	H63	H	0.894752	0.404718	0.406053
	H64	H	0.424511	0.585391	0.107244
	H65	H	0.600604	0.592811	0.881605
	H66	H	0.608357	0.412748	0.111422
	H67	H	0.421604	0.412588	0.880841
	H68	H	0.600868	0.115360	0.404164
	H69	H	0.611019	0.878607	0.594502
	H70	H	0.419681	0.118081	0.594592
	H71	H	0.427028	0.887007	0.405655
	H72	H	0.929217	0.616967	0.097879
	H73	H	0.100210	0.387552	0.080578
	H74	H	0.112374	0.619594	0.904183
	H75	H	0.920150	0.384411	0.904922
	H76	H	0.108143	0.914757	0.611510
	H77	H	0.106996	0.107386	0.374958
	H78	H	0.915645	0.090436	0.611100
	H79	H	0.926364	0.896744	0.378770
	H80	H	0.626923	0.097470	0.910524
	H81	H	0.391624	0.103766	0.093889
	H82	H	0.629593	0.897821	0.082966
	H83	H	0.397161	0.908038	0.909933
	H84	H	0.624649	0.917008	0.084646
	H85	H	0.399022	0.093494	0.077813
	H86	H	0.624989	0.084188	0.900962
	H87	H	0.395574	0.912918	0.897407
	H88	H	0.920889	0.092382	0.611727
	H89	H	0.115890	0.083300	0.379088
	H90	H	0.096676	0.906060	0.610346
	H91	H	0.904916	0.905337	0.375289
	H92	H	0.102515	0.619082	0.893940
	H93	H	0.113312	0.380144	0.088858
	H94	H	0.920918	0.613028	0.076897
	H95	H	0.916880	0.382565	0.904353
	H96	H	0.423345	0.113572	0.584698
	H97	H	0.593961	0.884373	0.592050
	H98	H	0.606405	0.116796	0.404807
	H99	H	0.409948	0.882274	0.408256
	H100	H	0.597975	0.407042	0.110090
	H101	H	0.607415	0.598471	0.877413
	H102	H	0.421325	0.602388	0.113374
	H103	H	0.421406	0.404437	0.878582
	H104	H	0.131465	0.605589	0.400089
	H105	H	0.897625	0.590856	0.581397
	H106	H	0.127829	0.415041	0.597130
	H107	H	0.896283	0.411649	0.403884
	H108	H	0.906805	0.621416	0.093788
	H109	H	0.099000	0.383231	0.096549
	H110	H	0.098920	0.614298	0.907195
	H111	H	0.919241	0.383287	0.901659
	H112	H	0.108510	0.900316	0.615326
	H113	H	0.091649	0.089191	0.384434
	H114	H	0.916563	0.095678	0.612775
	H115	H	0.921521	0.919071	0.383579
	H116	H	0.631855	0.098092	0.895098
	H117	H	0.396231	0.083501	0.096263
	H118	H	0.632254	0.906799	0.099875
	H119	H	0.392266	0.900976	0.900312
	C120	C	0.389774	0.008489	0.617250
	C121	C	0.631997	0.991347	0.616895
	C122	C	0.632353	0.008408	0.374138
	C123	C	0.389929	0.991336	0.373902
	C124	C	0.633710	0.378734	0.004148
	C125	C	0.633678	0.621936	0.987744
	C126	C	0.389333	0.622233	0.003848
	C127	C	0.390299	0.379645	0.987331
	C128	C	0.019383	0.622182	0.373990
	C129	C	1.002748	0.621928	0.617406
	C130	C	0.019709	0.378942	0.617151
	C131	C	1.002748	0.378879	0.374175
	C132	C	0.889996	0.508719	0.118011
	C133	C	0.132675	0.492128	0.116903
	C134	C	0.133162	0.509345	0.873574
	C135	C	0.890645	0.491811	0.875307
	C136	C	0.132809	0.878430	0.504006
	C137	C	0.133306	0.121768	0.487210
	C138	C	0.889139	0.121454	0.503924
	C139	C	0.888901	0.878340	0.487586
	C140	C	0.519777	0.122029	0.873809
	C141	C	0.503682	0.122127	0.117750
	C142	C	0.520629	0.878660	0.117370
	C143	C	0.503073	0.878563	0.873831
	C144	C	0.392091	0.885055	0.672275
	C145	C	0.630571	0.114425	0.672562
	C146	C	0.630377	0.884901	0.319330
	C147	C	0.392030	0.114860	0.318683
	C148	C	0.689335	0.381642	0.881351
	C149	C	0.688088	0.619514	0.110803
	C150	C	0.334275	0.621104	0.880962
	C151	C	0.334366	0.381252	0.109965
	C152	C	0.895792	0.676506	0.377849
	C153	C	0.125748	0.677245	0.613941
	C154	C	0.896482	0.323607	0.615829
	C155	C	0.126003	0.323630	0.376615
	C156	C	0.896962	0.380894	0.673626
	C157	C	0.126063	0.619788	0.671743
	C158	C	0.896316	0.619755	0.319401
	C159	C	0.125919	0.380942	0.318587
	C160	C	0.392629	0.677764	0.881063
	C161	C	0.629913	0.676535	0.110699
	C162	C	0.631568	0.324520	0.881112
	C163	C	0.392811	0.324088	0.109888
	C164	C	0.687674	0.884991	0.376942
	C165	C	0.687419	0.114621	0.614760
	C166	C	0.334940	0.884713	0.614347
	C167	C	0.334614	0.114869	0.376510
	C168	C	0.892657	0.385034	0.172773
	C169	C	0.129364	0.615759	0.171331
	C170	C	0.131545	0.386037	0.818138
	C171	C	0.893432	0.615554	0.820439
	C172	C	0.187761	0.881333	0.380919
	C173	C	0.188098	0.119107	0.610451
	C174	C	0.834415	0.119298	0.381126
	C175	C	0.833760	0.880976	0.610576
	C176	C	0.396629	0.177177	0.877055
	C177	C	0.627139	0.176800	0.114276
	C178	C	0.397066	0.824447	0.114235
	C179	C	0.626407	0.824434	0.877014
	C180	C	0.397076	0.881544	0.172158
	C181	C	0.626752	0.119989	0.172861
	C182	C	0.396674	0.119440	0.819335
	C183	C	0.626151	0.880889	0.818648
	C184	C	0.892108	0.176924	0.381228
	C185	C	0.130063	0.176432	0.610536
	C186	C	0.129248	0.824563	0.380709
	C187	C	0.891809	0.823814	0.610651
	C188	C	0.188416	0.385889	0.876240
	C189	C	0.187475	0.615512	0.114415
	C190	C	0.835258	0.385091	0.114960
	C191	C	0.836291	0.615579	0.878577
	C192	C	0.412106	0.094222	0.594944
	C193	C	0.609777	0.905057	0.594930
	C194	C	0.610190	0.094470	0.396241
	C195	C	0.411778	0.905337	0.395848
	C196	C	0.611144	0.400768	0.089849
	C197	C	0.612199	0.599896	0.901715
	C198	C	0.411204	0.599405	0.089409
	C199	C	0.412708	0.402172	0.901428
	C200	C	0.105503	0.600344	0.395496
	C201	C	0.916750	0.599781	0.596352
	C202	C	0.105229	0.401043	0.594740
	C203	C	0.917112	0.401132	0.396321
	C204	C	0.912362	0.594940	0.095928
	C205	C	0.110653	0.405826	0.095074
	C206	C	0.111135	0.595478	0.895485
	C207	C	0.912477	0.405546	0.897093
	C208	C	0.110815	0.900460	0.590156
	C209	C	0.111469	0.099752	0.401559
	C210	C	0.911064	0.099221	0.589745
	C211	C	0.911159	0.900576	0.401409
	C212	C	0.605757	0.099830	0.895691
	C213	C	0.417863	0.100057	0.095788
	C214	C	0.606587	0.900661	0.095627
	C215	C	0.417139	0.900670	0.896081
	Zn216	Zn	0.511365	0.000012	0.745660
	Zn217	Zn	0.511617	-0.000254	0.245801
	Zn218	Zn	0.762002	0.500255	-0.003708
	Zn219	Zn	0.261129	0.500861	-0.004815
	Zn220	Zn	0.010661	0.750595	0.495964
	Zn221	Zn	0.010751	0.250193	0.496098
	Zn222	Zn	0.011393	0.500341	0.745900
	Zn223	Zn	0.011360	0.500364	0.246045
	Zn224	Zn	0.511664	0.750015	-0.004335
	Zn225	Zn	0.512023	0.250597	-0.004707
	Zn226	Zn	0.760233	-0.000360	0.495860
	Zn227	Zn	0.261384	-0.000234	0.495605
	N228	N	0.425416	0.962876	0.674323
	N229	N	0.596984	0.036746	0.673994
	N230	N	0.596702	0.962538	0.317463
	N231	N	0.425565	0.037230	0.316849
	N232	N	0.691073	0.414409	0.959071
	N233	N	0.690470	0.586145	0.033256
	N234	N	0.332047	0.587350	0.958335
	N235	N	0.332953	0.415168	0.032624
	N236	N	0.973503	0.678262	0.410965
	N237	N	0.048194	0.678527	0.580866
	N238	N	0.973686	0.322222	0.581233
	N239	N	0.048607	0.322321	0.410676
	N240	N	0.974319	0.414486	0.674664
	N241	N	0.048637	0.585811	0.673960
	N242	N	0.974094	0.586774	0.316873
	N243	N	0.048457	0.414543	0.316917
	N244	N	0.426157	0.678606	0.958402
	N245	N	0.596714	0.677917	0.033204
	N246	N	0.597500	0.322798	0.958308
	N247	N	0.426949	0.323044	0.032612
	N248	N	0.689147	0.962913	0.410215
	N249	N	0.688397	0.037160	0.580748
	N250	N	0.333294	0.962463	0.580768
	N251	N	0.333240	0.037335	0.410372
	N252	N	0.926146	0.462714	0.174515
	N253	N	0.096012	0.537779	0.173327
	N254	N	0.097845	0.463798	0.816365
	N255	N	0.926440	0.537406	0.818244
	N256	N	0.190178	0.914005	0.458813
	N257	N	0.190212	0.085997	0.532891
	N258	N	0.832266	0.085823	0.458419
	N259	N	0.831817	0.914072	0.532863
	N260	N	0.474383	0.178928	0.910032
	N261	N	0.549662	0.178451	0.080755
	N262	N	0.474669	0.822617	0.080768
	N263	N	0.548983	0.822861	0.910679
	N264	N	0.474832	0.914434	0.174303
	N265	N	0.548953	0.086760	0.175062
	N266	N	0.474121	0.085944	0.817259
	N267	N	0.548367	0.914019	0.816655
	N268	N	0.925688	0.178164	0.458667
	N269	N	0.096546	0.178198	0.533062
	N270	N	0.095903	0.822850	0.458248
	N271	N	0.925196	0.822121	0.533092
	N272	N	0.189559	0.463437	0.909987
	N273	N	0.189670	0.537700	0.081513
	N274	N	0.833433	0.463092	0.081951
	N275	N	0.834493	0.537779	0.912005
	O276	O	-0.452616	0.389947	1.485404
	H277	H	-0.465928	0.376567	1.481144
	H278	H	-0.467077	0.378857	1.498402
	O279	O	0.501728	0.441062	0.465289
	H280	H	0.493033	0.445967	0.461995
	H281	H	0.506337	0.433220	0.462745
	O282	O	0.522073	0.476604	0.494884
	H283	H	0.528211	0.463357	0.495964
	H284	H	0.530804	0.479748	0.483984
	O285	O	0.427626	0.465908	0.484762
	H286	H	0.419245	0.474208	0.497710
	H287	H	0.425991	0.458577	0.489750
	O288	O	0.465773	0.502050	0.513381
	H289	H	0.462009	0.504621	0.513977
	H290	H	0.467081	0.506601	0.501028
	O291	O	-0.526904	1.540261	0.479431
	H292	H	-0.523399	1.541814	0.473343
	H293	H	-0.519922	1.551457	0.484443
	O294	O	0.504570	0.446473	0.505262
	H295	H	0.490034	0.440363	0.500768
	H296	H	0.507344	0.457229	0.510078
	O297	O	0.498076	-0.495407	0.510756
	H298	H	0.499677	-0.494281	0.513485
	H299	H	0.510091	-0.505989	0.510083
