data_Molecule from HDF5

_cell_length_a		16.208809
_cell_length_b		16.264755
_cell_length_c		16.199573
_cell_angle_alpha	90.094739
_cell_angle_beta	89.627680
_cell_angle_gamma	89.668865
_symmetry_space_group_name_H-M	'P 1'
_symmetry_Int_Tables_number		1

loop_
	_symmetry_equiv_pos_as_xyz
	x,y,z

loop_
	_atom_site_label
	_atom_site_type_symbol
	_atom_site_fract_x
	_atom_site_fract_y
	_atom_site_fract_z
	H0	H	0.406716	0.840824	0.713609
	H1	H	0.599574	0.169819	0.711905
	H2	H	0.605566	0.840791	0.283965
	H3	H	0.404127	0.168920	0.284459
	H4	H	0.721457	0.406074	0.834624
	H5	H	0.715767	0.602631	0.163949
	H6	H	0.293473	0.602078	0.833610
	H7	H	0.290768	0.406652	0.162553
	H8	H	0.840807	0.721404	0.400669
	H9	H	0.168139	0.719004	0.598818
	H10	H	0.839851	0.292464	0.598576
	H11	H	0.168184	0.288222	0.397830
	H12	H	0.840486	0.407761	0.715030
	H13	H	0.169647	0.602373	0.709877
	H14	H	0.839812	0.605501	0.285597
	H15	H	0.169040	0.405680	0.283950
	H16	H	0.406724	0.719031	0.834708
	H17	H	0.603083	0.719911	0.161786
	H18	H	0.607188	0.288123	0.834088
	H19	H	0.406679	0.291994	0.162843
	H20	H	0.722040	0.842394	0.398761
	H21	H	0.716423	0.170261	0.596268
	H22	H	0.290321	0.841270	0.598921
	H23	H	0.289653	0.169025	0.402377
	H24	H	0.907144	0.340990	0.212908
	H25	H	0.102332	0.668348	0.213811
	H26	H	0.104033	0.341319	0.783151
	H27	H	0.906211	0.669632	0.784985
	H28	H	0.220892	0.905339	0.335819
	H29	H	0.214031	0.102470	0.664132
	H30	H	0.791244	0.103773	0.333583
	H31	H	0.790492	0.909135	0.664262
	H32	H	0.341472	0.220203	0.899367
	H33	H	0.668295	0.217353	0.096995
	H34	H	0.339098	0.791900	0.097596
	H35	H	0.668797	0.788345	0.898697
	H36	H	0.340280	0.906406	0.214821
	H37	H	0.669236	0.101062	0.211335
	H38	H	0.339531	0.101779	0.788102
	H39	H	0.669777	0.905632	0.783487
	H40	H	0.904236	0.220743	0.334781
	H41	H	0.101038	0.219501	0.662754
	H42	H	0.106763	0.788049	0.335694
	H43	H	0.905442	0.792300	0.664092
	H44	H	0.221768	0.341519	0.897893
	H45	H	0.218700	0.668562	0.098013
	H46	H	0.792441	0.340490	0.096327
	H47	H	0.789198	0.669311	0.899736
	H48	H	0.418652	0.119447	0.593118
	H49	H	0.598448	0.888869	0.590572
	H50	H	0.604177	0.122635	0.407677
	H51	H	0.408316	0.886985	0.405516
	H52	H	0.600542	0.401447	0.119700
	H53	H	0.593397	0.606017	0.879475
	H54	H	0.409378	0.595982	0.116262
	H55	H	0.417894	0.403499	0.879377
	H56	H	0.118525	0.591378	0.409287
	H57	H	0.889456	0.595713	0.587278
	H58	H	0.119485	0.417148	0.588799
	H59	H	0.888882	0.411225	0.411751
	H60	H	0.124125	0.409136	0.596817
	H61	H	0.886555	0.595640	0.599177
	H62	H	0.123394	0.595031	0.399811
	H63	H	0.888074	0.417596	0.405374
	H64	H	0.413856	0.597323	0.114717
	H65	H	0.608435	0.594143	0.878852
	H66	H	0.603173	0.416359	0.115073
	H67	H	0.405809	0.412046	0.877843
	H68	H	0.595210	0.123741	0.397204
	H69	H	0.598489	0.888419	0.591661
	H70	H	0.402069	0.121950	0.585628
	H71	H	0.417766	0.889546	0.403749
	H72	H	0.909457	0.623011	0.095901
	H73	H	0.104254	0.386485	0.090890
	H74	H	0.098868	0.623604	0.900289
	H75	H	0.915220	0.391969	0.915860
	H76	H	0.093903	0.912605	0.615399
	H77	H	0.097951	0.094368	0.382226
	H78	H	0.911873	0.109394	0.617652
	H79	H	0.916125	0.906687	0.381507
	H80	H	0.620690	0.089438	0.903836
	H81	H	0.390266	0.098684	0.082396
	H82	H	0.622390	0.909273	0.094147
	H83	H	0.384292	0.901236	0.905854
	H84	H	0.621025	0.907892	0.088344
	H85	H	0.387860	0.089175	0.097429
	H86	H	0.625167	0.100225	0.897610
	H87	H	0.391812	0.915508	0.914911
	H88	H	0.900066	0.097118	0.619568
	H89	H	0.094839	0.097485	0.382164
	H90	H	0.095564	0.907270	0.617718
	H91	H	0.907896	0.912083	0.380564
	H92	H	0.096415	0.621107	0.906996
	H93	H	0.095608	0.387889	0.095662
	H94	H	0.912556	0.621050	0.091929
	H95	H	0.904354	0.385194	0.903012
	H96	H	0.404560	0.126601	0.603955
	H97	H	0.598129	0.888958	0.590947
	H98	H	0.591448	0.119604	0.409531
	H99	H	0.414106	0.890506	0.412262
	H100	H	0.589059	0.411197	0.113728
	H101	H	0.590748	0.588848	0.885364
	H102	H	0.410950	0.600917	0.117340
	H103	H	0.418707	0.416930	0.884399
	H104	H	0.121599	0.601513	0.408516
	H105	H	0.884909	0.606037	0.592672
	H106	H	0.121652	0.404978	0.585495
	H107	H	0.885396	0.409928	0.403542
	H108	H	0.907521	0.622660	0.090318
	H109	H	0.096505	0.390252	0.085657
	H110	H	0.103542	0.622448	0.906191
	H111	H	0.921377	0.389191	0.898910
	H112	H	0.099686	0.912128	0.618378
	H113	H	0.099804	0.098478	0.380183
	H114	H	0.916168	0.093197	0.612341
	H115	H	0.915649	0.916929	0.384356
	H116	H	0.622458	0.100360	0.911049
	H117	H	0.382916	0.106279	0.096301
	H118	H	0.620062	0.913628	0.090001
	H119	H	0.385981	0.917309	0.897850
	C120	C	0.381533	0.013663	0.621967
	C121	C	0.625809	0.997201	0.619665
	C122	C	0.626591	0.013775	0.376283
	C123	C	0.383064	0.996655	0.377700
	C124	C	0.627437	0.381497	0.007205
	C125	C	0.625893	0.625580	0.989907
	C126	C	0.383159	0.626252	0.007526
	C127	C	0.384576	0.382913	0.989331
	C128	C	0.013033	0.625886	0.377391
	C129	C	0.995601	0.626675	0.620612
	C130	C	0.012992	0.383041	0.620173
	C131	C	0.995650	0.383099	0.377064
	C132	C	0.882521	0.513675	0.120924
	C133	C	0.126468	0.496444	0.119783
	C134	C	0.127919	0.514049	0.875937
	C135	C	0.883966	0.497141	0.877138
	C136	C	0.126275	0.882049	0.508306
	C137	C	0.124803	0.125883	0.490351
	C138	C	0.881884	0.127624	0.507456
	C139	C	0.883624	0.883877	0.490823
	C140	C	0.513834	0.125462	0.876684
	C141	C	0.495739	0.125677	0.120122
	C142	C	0.512673	0.882358	0.120382
	C143	C	0.496116	0.882152	0.876537
	C144	C	0.385652	0.890098	0.676086
	C145	C	0.621028	0.120888	0.674560
	C146	C	0.625506	0.890067	0.321372
	C147	C	0.384252	0.119891	0.322366
	C148	C	0.683334	0.384684	0.883476
	C149	C	0.679286	0.623169	0.114210
	C150	C	0.330046	0.623116	0.883003
	C151	C	0.328513	0.385961	0.113207
	C152	C	0.889514	0.682666	0.380391
	C153	C	0.119366	0.681243	0.618420
	C154	C	0.889009	0.329705	0.618631
	C155	C	0.119042	0.326514	0.378092
	C156	C	0.889499	0.387018	0.676625
	C157	C	0.120175	0.623253	0.673814
	C158	C	0.889161	0.625071	0.322986
	C159	C	0.119682	0.384869	0.321395
	C160	C	0.386269	0.681277	0.883578
	C161	C	0.623447	0.681713	0.112977
	C162	C	0.626570	0.326042	0.883633
	C163	C	0.386048	0.328802	0.113439
	C164	C	0.683489	0.890833	0.378367
	C165	C	0.679100	0.121128	0.616945
	C166	C	0.327850	0.890346	0.619098
	C167	C	0.327273	0.119975	0.380960
	C168	C	0.886085	0.390072	0.175462
	C169	C	0.122866	0.619564	0.175633
	C170	C	0.125066	0.390294	0.820773
	C171	C	0.885883	0.620735	0.822793
	C172	C	0.182677	0.884693	0.384875
	C173	C	0.177581	0.123201	0.614603
	C174	C	0.828090	0.124621	0.383051
	C175	C	0.827931	0.887830	0.614802
	C176	C	0.390049	0.181416	0.879579
	C177	C	0.619633	0.179232	0.116940
	C178	C	0.388541	0.829000	0.117924
	C179	C	0.620114	0.827003	0.878557
	C180	C	0.389098	0.885623	0.176473
	C181	C	0.619860	0.121849	0.174150
	C182	C	0.389026	0.122722	0.824286
	C183	C	0.620192	0.885070	0.821045
	C184	C	0.884341	0.182670	0.383658
	C185	C	0.121464	0.181639	0.613895
	C186	C	0.125787	0.826575	0.384797
	C187	C	0.885350	0.829876	0.614895
	C188	C	0.183473	0.390566	0.877686
	C189	C	0.180778	0.619589	0.118036
	C190	C	0.828576	0.390021	0.117981
	C191	C	0.827396	0.620271	0.879686
	C192	C	0.402298	0.100260	0.600576
	C193	C	0.604684	0.910964	0.597489
	C194	C	0.603653	0.099667	0.398298
	C195	C	0.406482	0.911066	0.400547
	C196	C	0.604307	0.403427	0.093760
	C197	C	0.604126	0.602924	0.903489
	C198	C	0.405025	0.604492	0.093783
	C199	C	0.407432	0.404512	0.902903
	C200	C	0.098912	0.602817	0.399308
	C201	C	0.909317	0.605418	0.599156
	C202	C	0.099603	0.404166	0.597288
	C203	C	0.909503	0.406101	0.400025
	C204	C	0.903707	0.599922	0.099232
	C205	C	0.105191	0.410271	0.097280
	C206	C	0.105801	0.600274	0.897807
	C207	C	0.906849	0.411003	0.899367
	C208	C	0.103158	0.904083	0.594871
	C209	C	0.103776	0.103358	0.403821
	C210	C	0.903060	0.106192	0.594061
	C211	C	0.906641	0.905397	0.404442
	C212	C	0.600200	0.103162	0.897698
	C213	C	0.409361	0.104377	0.098446
	C214	C	0.599001	0.903907	0.097524
	C215	C	0.409662	0.904632	0.899415
	Zn216	Zn	0.504295	0.004799	0.748990
	Zn217	Zn	0.504476	0.004825	0.248550
	Zn218	Zn	0.754571	0.505087	-0.001065
	Zn219	Zn	0.255977	0.504718	-0.001734
	Zn220	Zn	0.004833	0.753839	0.499607
	Zn221	Zn	0.003845	0.254769	0.498631
	Zn222	Zn	0.005404	0.505927	0.747992
	Zn223	Zn	0.004188	0.504676	0.248958
	Zn224	Zn	0.504622	0.753944	-0.001289
	Zn225	Zn	0.505050	0.253558	-0.001813
	Zn226	Zn	0.754933	0.005940	0.498369
	Zn227	Zn	0.253500	0.004876	0.499844
	N228	N	0.418258	0.967870	0.678037
	N229	N	0.588673	0.042804	0.676370
	N230	N	0.590927	0.967454	0.319793
	N231	N	0.418156	0.042117	0.320257
	N232	N	0.684088	0.418286	0.961251
	N233	N	0.680947	0.588998	0.036460
	N234	N	0.327794	0.589731	0.961014
	N235	N	0.327553	0.419047	0.035057
	N236	N	0.967548	0.683592	0.413353
	N237	N	0.041097	0.683536	0.585990
	N238	N	0.966864	0.327210	0.584432
	N239	N	0.040963	0.325306	0.411997
	N240	N	0.967723	0.419600	0.677559
	N241	N	0.042339	0.590027	0.675641
	N242	N	0.966762	0.590420	0.321034
	N243	N	0.042076	0.419431	0.320628
	N244	N	0.418643	0.683238	0.961868
	N245	N	0.590836	0.683053	0.034846
	N246	N	0.592375	0.324155	0.961812
	N247	N	0.420363	0.326860	0.035632
	N248	N	0.684199	0.968696	0.411983
	N249	N	0.682168	0.043225	0.583670
	N250	N	0.325196	0.968295	0.586127
	N251	N	0.326294	0.042385	0.414633
	N252	N	0.918707	0.467918	0.177584
	N253	N	0.089548	0.541902	0.176686
	N254	N	0.091309	0.468111	0.819337
	N255	N	0.920196	0.543218	0.821148
	N256	N	0.183063	0.918379	0.462700
	N257	N	0.180056	0.089299	0.536730
	N258	N	0.826262	0.091225	0.460996
	N259	N	0.826655	0.920624	0.536417
	N260	N	0.468658	0.183448	0.911372
	N261	N	0.541493	0.182015	0.084330
	N262	N	0.466511	0.826662	0.083772
	N263	N	0.542135	0.825065	0.912194
	N264	N	0.467166	0.917959	0.178038
	N265	N	0.541760	0.089242	0.176214
	N266	N	0.466738	0.088438	0.822547
	N267	N	0.541939	0.918456	0.819716
	N268	N	0.917178	0.184556	0.461925
	N269	N	0.089234	0.182928	0.535673
	N270	N	0.091416	0.824779	0.462694
	N271	N	0.919169	0.827193	0.536829
	N272	N	0.185412	0.468310	0.911219
	N273	N	0.182984	0.542085	0.083968
	N274	N	0.826335	0.467818	0.084668
	N275	N	0.826175	0.542348	0.913004
	O276	O	-0.009277	-0.033008	-0.065082
	H277	H	-0.010548	-0.043025	-0.052830
	H278	H	-0.009192	-0.032622	-0.073858
	O279	O	0.528239	0.538014	0.535062
	H280	H	0.528839	0.544421	0.532524
	H281	H	0.530118	0.528029	0.532441
	O282	O	0.504403	0.570878	0.456724
	H283	H	0.513111	0.582591	0.444630
	H284	H	0.512696	0.573097	0.456580
	O285	O	0.906191	-0.015735	1.072796
	H286	H	0.907172	-0.017081	1.073020
	H287	H	0.906927	-0.020900	1.075059
	O288	O	1.053570	0.077915	0.055199
	H289	H	1.047743	0.084137	0.053532
	H290	H	1.061616	0.085713	0.055331
	O291	O	0.557668	0.441334	0.493333
	H292	H	0.557749	0.431084	0.487473
	H293	H	0.546807	0.434205	0.489919
	O294	O	1.011080	-0.020492	0.928667
	H295	H	1.004425	-0.014402	0.934366
	H296	H	1.008016	-0.027323	0.936565
	O297	O	0.067420	0.018192	-0.019039
	H298	H	0.070647	0.022458	-0.012308
	H299	H	0.049961	0.011077	-0.017157
	O300	O	0.477802	0.574422	0.524160
	H301	H	0.462296	0.567184	0.533652
	H302	H	0.485649	0.576150	0.527829
	O303	O	0.500702	0.515477	0.407419
	H304	H	0.495823	0.518476	0.396620
	H305	H	0.509925	0.523359	0.414421
	O306	O	0.986526	0.001974	-0.032920
	H307	H	0.995315	0.010789	-0.028862
	H308	H	0.987562	0.004277	-0.048919
	O309	O	-0.019290	0.016162	0.914391
	H310	H	-0.010798	0.014069	0.902961
	H311	H	-0.015510	0.012624	0.916589
	O312	O	1.001705	1.011974	0.966727
	H313	H	1.008632	1.012472	0.965132
	H314	H	1.005418	1.005095	0.973392
	O315	O	0.500092	0.506936	0.513183
	H316	H	0.499178	0.506221	0.515123
	H317	H	0.501492	0.507664	0.518175
	O318	O	0.546283	0.467948	0.433545
	H319	H	0.553693	0.467490	0.431312
	H320	H	0.538529	0.475763	0.429572
	O321	O	0.005327	0.976738	1.012346
	H322	H	0.007439	0.984037	1.005366
	H323	H	-0.004139	0.968090	1.024552
	O324	O	0.405706	0.498474	0.502330
	H325	H	0.404596	0.495865	0.506229
	H326	H	0.397630	0.504775	0.503027
	O327	O	0.542153	0.425836	0.480949
	H328	H	0.549927	0.418512	0.483317
	H329	H	0.542278	0.417696	0.478464
	O330	O	0.478947	0.557380	0.442218
	H331	H	0.479484	0.551399	0.439009
	H332	H	0.487485	0.556679	0.464715
	O333	O	0.471225	0.553335	0.453265
	H334	H	0.474140	0.556702	0.460974
	H335	H	0.466972	0.562693	0.440077
	O336	O	0.464972	0.576806	0.552365
	H337	H	0.464078	0.571116	0.547569
	H338	H	0.461767	0.580102	0.549090
	O339	O	1.032294	0.976145	-0.004216
	H340	H	1.034895	0.981107	-0.013742
	H341	H	1.039913	0.973180	-0.010484
	O342	O	0.581573	0.476024	0.550980
	H343	H	0.582353	0.485198	0.550919
	H344	H	0.582705	0.468129	0.548797
	O345	O	0.479357	0.477284	0.501609
	H346	H	0.486171	0.472951	0.495949
	H347	H	0.485439	0.478317	0.494793
	O348	O	0.004575	-0.041240	-0.046887
	H349	H	0.010139	-0.036426	-0.047827
	H350	H	0.000315	-0.038701	-0.055724
	O351	O	-0.080870	0.941486	1.040363
	H352	H	-0.090049	0.941831	1.040192
	H353	H	-0.086603	0.941312	1.039151
	O354	O	0.588945	0.520718	0.443423
	H355	H	0.578477	0.526189	0.456978
	H356	H	0.596629	0.532611	0.442996
	O357	O	0.064314	0.988613	1.031769
	H358	H	0.067146	0.979141	1.042577
	H359	H	0.063676	0.985809	1.028109
