data_Molecule from HDF5

_cell_length_a		16.236520
_cell_length_b		16.319952
_cell_length_c		16.253987
_cell_angle_alpha	89.930047
_cell_angle_beta	90.059932
_cell_angle_gamma	89.809952
_symmetry_space_group_name_H-M	'P 1'
_symmetry_Int_Tables_number		1

loop_
	_symmetry_equiv_pos_as_xyz
	x,y,z

loop_
	_atom_site_label
	_atom_site_type_symbol
	_atom_site_fract_x
	_atom_site_fract_y
	_atom_site_fract_z
	H0	H	0.406493	0.845598	0.721086
	H1	H	0.602366	0.172971	0.721873
	H2	H	0.604720	0.845811	0.290785
	H3	H	0.404771	0.172424	0.291559
	H4	H	0.717363	0.411783	0.843105
	H5	H	0.717390	0.608332	0.171483
	H6	H	0.287372	0.608213	0.843241
	H7	H	0.290377	0.413204	0.172014
	H8	H	0.841847	0.725598	0.408325
	H9	H	0.168245	0.723121	0.607015
	H10	H	0.840678	0.294951	0.605992
	H11	H	0.168261	0.295453	0.408204
	H12	H	0.839826	0.412226	0.721162
	H13	H	0.167747	0.607595	0.722205
	H14	H	0.840193	0.609611	0.292956
	H15	H	0.167989	0.411811	0.293218
	H16	H	0.402211	0.724790	0.843342
	H17	H	0.600447	0.723367	0.171314
	H18	H	0.602625	0.294830	0.843585
	H19	H	0.402578	0.294498	0.171295
	H20	H	0.720548	0.845826	0.407579
	H21	H	0.719198	0.172901	0.604870
	H22	H	0.291155	0.845978	0.604460
	H23	H	0.288275	0.172518	0.407459
	H24	H	0.904488	0.346161	0.222952
	H25	H	0.100694	0.673238	0.220717
	H26	H	0.102394	0.346789	0.793349
	H27	H	0.903667	0.673114	0.792588
	H28	H	0.218942	0.911553	0.342780
	H29	H	0.217967	0.106507	0.670766
	H30	H	0.790095	0.109057	0.342389
	H31	H	0.792127	0.911959	0.670466
	H32	H	0.338960	0.225237	0.907535
	H33	H	0.666048	0.224609	0.106249
	H34	H	0.338930	0.795654	0.105989
	H35	H	0.666612	0.793584	0.908078
	H36	H	0.339474	0.911603	0.222191
	H37	H	0.668199	0.107092	0.219814
	H38	H	0.338529	0.108135	0.793108
	H39	H	0.668275	0.910694	0.794240
	H40	H	0.905563	0.225521	0.343262
	H41	H	0.104089	0.223787	0.670331
	H42	H	0.106294	0.792852	0.343808
	H43	H	0.906931	0.795355	0.669959
	H44	H	0.217613	0.346892	0.909810
	H45	H	0.216768	0.672926	0.104872
	H46	H	0.789038	0.346073	0.105475
	H47	H	0.788438	0.673350	0.908832
	H48	H	0.404017	0.127101	0.600042
	H49	H	0.591248	0.895980	0.599283
	H50	H	0.594643	0.122679	0.418257
	H51	H	0.407992	0.891491	0.414511
	H52	H	0.597928	0.419094	0.123943
	H53	H	0.593709	0.600391	0.891423
	H54	H	0.408956	0.603252	0.123896
	H55	H	0.399851	0.419186	0.888125
	H56	H	0.123897	0.608800	0.414886
	H57	H	0.884892	0.601889	0.609495
	H58	H	0.123570	0.404281	0.599208
	H59	H	0.887154	0.417253	0.414585
	H60	H	0.116710	0.422666	0.592266
	H61	H	0.885645	0.612721	0.595530
	H62	H	0.119446	0.597285	0.418724
	H63	H	0.887435	0.416239	0.416566
	H64	H	0.410342	0.602809	0.123962
	H65	H	0.593402	0.604945	0.890530
	H66	H	0.592086	0.416792	0.122821
	H67	H	0.416702	0.425056	0.895427
	H68	H	0.600916	0.126291	0.413016
	H69	H	0.605524	0.893100	0.595405
	H70	H	0.414248	0.126193	0.606724
	H71	H	0.414957	0.892420	0.410745
	H72	H	0.903437	0.628853	0.107845
	H73	H	0.090706	0.395192	0.100391
	H74	H	0.087750	0.624429	0.912965
	H75	H	0.905910	0.388527	0.902915
	H76	H	0.091271	0.909076	0.623604
	H77	H	0.097314	0.106056	0.387929
	H78	H	0.907980	0.099076	0.623827
	H79	H	0.916669	0.919958	0.391461
	H80	H	0.619468	0.104232	0.917110
	H81	H	0.383525	0.105737	0.104351
	H82	H	0.622731	0.917363	0.108664
	H83	H	0.385558	0.911809	0.913154
	H84	H	0.620733	0.906374	0.093196
	H85	H	0.387153	0.105905	0.094372
	H86	H	0.618814	0.100343	0.913977
	H87	H	0.387985	0.919248	0.918045
	H88	H	0.916590	0.100984	0.621272
	H89	H	0.099490	0.102341	0.389554
	H90	H	0.106235	0.913748	0.626638
	H91	H	0.913586	0.911517	0.389044
	H92	H	0.098212	0.624502	0.921725
	H93	H	0.100469	0.394072	0.095419
	H94	H	0.919566	0.623616	0.102788
	H95	H	0.921364	0.397961	0.914827
	H96	H	0.414127	0.123841	0.594455
	H97	H	0.600630	0.889850	0.608731
	H98	H	0.593054	0.124560	0.410323
	H99	H	0.414486	0.895679	0.417785
	H100	H	0.596416	0.412922	0.125123
	H101	H	0.597925	0.602570	0.889744
	H102	H	0.410050	0.604004	0.124357
	H103	H	0.415028	0.406771	0.889158
	H104	H	0.122415	0.599110	0.406792
	H105	H	0.890860	0.595871	0.593890
	H106	H	0.123302	0.420468	0.611920
	H107	H	0.888159	0.418799	0.416556
	H108	H	0.906215	0.624498	0.091206
	H109	H	0.098790	0.390611	0.106165
	H110	H	0.100307	0.629229	0.908826
	H111	H	0.902511	0.394174	0.923410
	H112	H	0.096158	0.924185	0.620225
	H113	H	0.095042	0.102558	0.390593
	H114	H	0.911097	0.107664	0.624262
	H115	H	0.907612	0.919049	0.388372
	H116	H	0.621369	0.104302	0.912487
	H117	H	0.387409	0.096968	0.100713
	H118	H	0.615457	0.924229	0.092534
	H119	H	0.385660	0.920092	0.909193
	C120	C	0.382721	0.017757	0.628284
	C121	C	0.626657	1.001187	0.629252
	C122	C	0.625827	0.016914	0.384857
	C123	C	0.382945	1.001069	0.385379
	C124	C	0.624577	0.387758	0.015793
	C125	C	0.623659	0.631062	0.999097
	C126	C	0.380668	0.631709	0.015419
	C127	C	0.381707	0.388716	0.999395
	C128	C	0.013506	0.630932	0.385369
	C129	C	0.995651	0.631210	0.628334
	C130	C	0.012659	0.387494	0.629381
	C131	C	0.995763	0.388846	0.386464
	C132	C	0.881269	0.517797	0.129289
	C133	C	0.124880	0.501097	0.128943
	C134	C	0.124501	0.518325	0.885938
	C135	C	0.881156	0.501755	0.885270
	C136	C	0.126983	0.887247	0.515344
	C137	C	0.125859	0.131443	0.497865
	C138	C	0.882900	0.131715	0.514853
	C139	C	0.884041	0.888028	0.497716
	C140	C	0.511043	0.131398	0.885778
	C141	C	0.494550	0.130831	0.128139
	C142	C	0.511335	0.887913	0.127854
	C143	C	0.494942	0.888023	0.885257
	C144	C	0.385648	0.894704	0.683449
	C145	C	0.623490	0.124088	0.684098
	C146	C	0.624709	0.894467	0.329018
	C147	C	0.384620	0.123852	0.329969
	C148	C	0.679488	0.391032	0.892262
	C149	C	0.679118	0.628603	0.122486
	C150	C	0.325354	0.628645	0.892114
	C151	C	0.327197	0.391848	0.122874
	C152	C	0.890221	0.686971	0.388019
	C153	C	0.119183	0.685651	0.626855
	C154	C	0.889471	0.332650	0.626612
	C155	C	0.119346	0.333746	0.388324
	C156	C	0.888883	0.391092	0.683632
	C157	C	0.119019	0.627928	0.684054
	C158	C	0.889591	0.629585	0.330760
	C159	C	0.119032	0.391318	0.331060
	C160	C	0.382460	0.686575	0.892251
	C161	C	0.621068	0.685995	0.122336
	C162	C	0.622585	0.332972	0.892438
	C163	C	0.383427	0.332933	0.122351
	C164	C	0.682052	0.894344	0.387193
	C165	C	0.681323	0.124218	0.625909
	C166	C	0.328343	0.894737	0.625552
	C167	C	0.326906	0.123820	0.387673
	C168	C	0.884155	0.395029	0.184785
	C169	C	0.121250	0.624541	0.182775
	C170	C	0.122335	0.395304	0.831492
	C171	C	0.883112	0.624329	0.830137
	C172	C	0.182003	0.889997	0.391963
	C173	C	0.180513	0.127655	0.621765
	C174	C	0.827620	0.129752	0.391566
	C175	C	0.829243	0.891040	0.621140
	C176	C	0.387848	0.186968	0.887549
	C177	C	0.617671	0.186376	0.126479
	C178	C	0.387994	0.833161	0.126600
	C179	C	0.617865	0.831828	0.887618
	C180	C	0.388147	0.890937	0.183941
	C181	C	0.618630	0.127895	0.182928
	C182	C	0.387675	0.128980	0.830432
	C183	C	0.618672	0.890191	0.831169
	C184	C	0.884955	0.187622	0.391939
	C185	C	0.123995	0.185937	0.621431
	C186	C	0.125688	0.831302	0.392399
	C187	C	0.886365	0.833211	0.621049
	C188	C	0.180003	0.395556	0.888958
	C189	C	0.179046	0.624329	0.125511
	C190	C	0.826781	0.394868	0.126450
	C191	C	0.825824	0.624481	0.888047
	C192	C	0.404327	0.103610	0.606709
	C193	C	0.605459	0.915350	0.607497
	C194	C	0.602966	0.102376	0.407350
	C195	C	0.405831	0.915393	0.407869
	C196	C	0.602246	0.409799	0.101559
	C197	C	0.601554	0.608884	0.912883
	C198	C	0.403021	0.609664	0.101810
	C199	C	0.403878	0.410713	0.913191
	C200	C	0.099578	0.608543	0.407257
	C201	C	0.909586	0.609861	0.606121
	C202	C	0.098979	0.409493	0.607663
	C203	C	0.909695	0.410937	0.409113
	C204	C	0.903118	0.603564	0.107005
	C205	C	0.103128	0.415346	0.107024
	C206	C	0.102063	0.603908	0.908024
	C207	C	0.903301	0.415754	0.907345
	C208	C	0.104589	0.909317	0.601200
	C209	C	0.103832	0.109937	0.411658
	C210	C	0.905421	0.109117	0.600637
	C211	C	0.906082	0.910170	0.411662
	C212	C	0.597350	0.109405	0.908113
	C213	C	0.408303	0.109195	0.106306
	C214	C	0.597361	0.909665	0.104978
	C215	C	0.408485	0.910553	0.907121
	Zn216	Zn	0.503640	0.009530	0.757615
	Zn217	Zn	0.503877	0.009249	0.256293
	Zn218	Zn	0.752704	0.509696	0.007001
	Zn219	Zn	0.253063	0.509999	0.007654
	Zn220	Zn	0.005299	0.759037	0.506492
	Zn221	Zn	0.004619	0.259807	0.506959
	Zn222	Zn	0.003495	0.510030	0.757005
	Zn223	Zn	0.003816	0.509774	0.257652
	Zn224	Zn	0.502115	0.759563	0.006688
	Zn225	Zn	0.502478	0.259573	0.007370
	Zn226	Zn	0.755113	0.009404	0.506058
	Zn227	Zn	0.253841	0.009282	0.506809
	N228	N	0.418781	0.972266	0.685264
	N229	N	0.590456	0.046574	0.686436
	N230	N	0.590316	0.971552	0.327672
	N231	N	0.418699	0.046723	0.328460
	N232	N	0.680888	0.424376	0.969883
	N233	N	0.681041	0.595261	0.044752
	N234	N	0.324245	0.595144	0.969843
	N235	N	0.326055	0.425852	0.045426
	N236	N	0.968231	0.687961	0.421120
	N237	N	0.041689	0.687611	0.592834
	N238	N	0.967421	0.330450	0.593682
	N239	N	0.041732	0.332160	0.422071
	N240	N	0.966657	0.424349	0.685490
	N241	N	0.041179	0.595101	0.685471
	N242	N	0.966937	0.595224	0.329174
	N243	N	0.041142	0.424854	0.329649
	N244	N	0.415970	0.688441	0.969937
	N245	N	0.587205	0.687287	0.044690
	N246	N	0.589016	0.330659	0.970101
	N247	N	0.416647	0.331023	0.044438
	N248	N	0.683198	0.971642	0.421060
	N249	N	0.683404	0.046879	0.592398
	N250	N	0.326419	0.972112	0.591941
	N251	N	0.325795	0.046327	0.421387
	N252	N	0.917432	0.472653	0.186627
	N253	N	0.088400	0.546965	0.185156
	N254	N	0.088330	0.472578	0.829551
	N255	N	0.916773	0.546940	0.828138
	N256	N	0.182752	0.923981	0.469268
	N257	N	0.181825	0.094316	0.544000
	N258	N	0.826412	0.095555	0.468945
	N259	N	0.827866	0.924713	0.543471
	N260	N	0.465792	0.188642	0.921016
	N261	N	0.539750	0.188359	0.093249
	N262	N	0.465367	0.831359	0.092360
	N263	N	0.539758	0.830254	0.920360
	N264	N	0.465925	0.924399	0.184716
	N265	N	0.541061	0.094080	0.184123
	N266	N	0.465363	0.095085	0.829086
	N267	N	0.541092	0.924624	0.829637
	N268	N	0.918398	0.189011	0.469680
	N269	N	0.090746	0.188298	0.543538
	N270	N	0.091953	0.829632	0.470106
	N271	N	0.919974	0.831341	0.543512
	N272	N	0.181481	0.472993	0.922047
	N273	N	0.181452	0.546570	0.092902
	N274	N	0.824928	0.472058	0.092781
	N275	N	0.824669	0.547143	0.921736
	O276	O	0.541435	0.433680	0.496822
	H277	H	0.535616	0.429927	0.500543
	H278	H	0.548347	0.423192	0.498977
	O279	O	-0.044930	0.032940	-0.053786
	H280	H	-0.051781	0.036317	-0.068449
	H281	H	-0.046304	0.030187	-0.053149
	O282	O	0.457351	0.488317	0.541633
	H283	H	0.459468	0.491803	0.539790
	H284	H	0.457952	0.492570	0.540339
	O285	O	0.501237	0.482712	0.491452
	H286	H	0.502481	0.482557	0.495151
	H287	H	0.501974	0.494072	0.483152
	O288	O	0.945942	0.021698	-0.061267
	H289	H	0.946604	0.022649	-0.069975
	H290	H	0.946012	0.016514	-0.061648
	O291	O	-0.506428	0.463705	-0.490852
	H292	H	-0.513828	0.458078	-0.492788
	H293	H	-0.508351	0.465146	-0.502140
	O294	O	0.530471	0.514287	0.462767
	H295	H	0.542980	0.517136	0.459814
	H296	H	0.536207	0.511501	0.452205
	O297	O	-0.097744	1.013091	-0.061992
	H298	H	-0.108560	1.014232	-0.054013
	H299	H	-0.098010	1.019108	-0.065594
	O300	O	1.522918	-0.524858	0.534566
	H301	H	1.513813	-0.526187	0.533289
	H302	H	1.519379	-0.518912	0.541367
	O303	O	0.520939	0.476210	0.531071
	H304	H	0.520285	0.466086	0.536499
	H305	H	0.516875	0.481919	0.524952
	O306	O	-0.088701	1.054805	0.956090
	H307	H	-0.086982	1.060477	0.953823
	H308	H	-0.085304	1.060442	0.954507
	O309	O	0.513799	0.459057	0.544570
	H310	H	0.518875	0.454303	0.545222
	H311	H	0.508345	0.453884	0.550324
