data_Molecule from HDF5

_cell_length_a		16.514734
_cell_length_b		16.539295
_cell_length_c		16.699272
_cell_angle_alpha	90.077400
_cell_angle_beta	89.882314
_cell_angle_gamma	89.908622
_symmetry_space_group_name_H-M	'P 1'
_symmetry_Int_Tables_number		1

loop_
	_symmetry_equiv_pos_as_xyz
	x,y,z

loop_
	_atom_site_label
	_atom_site_type_symbol
	_atom_site_fract_x
	_atom_site_fract_y
	_atom_site_fract_z
	H0	H	0.383972	0.844468	0.718259
	H1	H	0.595942	0.156863	0.718648
	H2	H	0.596123	0.844619	0.274295
	H3	H	0.384505	0.157818	0.276808
	H4	H	0.708707	0.398137	0.839702
	H5	H	0.708135	0.603536	0.153272
	H6	H	0.270278	0.603357	0.838409
	H7	H	0.270750	0.400245	0.152771
	H8	H	0.832538	0.718102	0.396757
	H9	H	0.148358	0.720182	0.600283
	H10	H	0.833519	0.280758	0.599760
	H11	H	0.146765	0.280695	0.392122
	H12	H	0.834362	0.394279	0.718101
	H13	H	0.146418	0.607222	0.719199
	H14	H	0.833313	0.605947	0.276623
	H15	H	0.146610	0.395649	0.275109
	H16	H	0.387256	0.720440	0.838817
	H17	H	0.592401	0.721378	0.152268
	H18	H	0.591980	0.281227	0.840278
	H19	H	0.387915	0.283276	0.153633
	H20	H	0.709391	0.843013	0.392943
	H21	H	0.709888	0.158058	0.599417
	H22	H	0.268897	0.844356	0.601826
	H23	H	0.268549	0.157340	0.392887
	H24	H	0.887489	0.342900	0.214669
	H25	H	0.095589	0.656578	0.218355
	H26	H	0.098981	0.344512	0.771299
	H27	H	0.886211	0.657055	0.776858
	H28	H	0.213970	0.894703	0.342047
	H29	H	0.214914	0.109937	0.650724
	H30	H	0.768511	0.105536	0.341977
	H31	H	0.767407	0.895078	0.650570
	H32	H	0.331412	0.219921	0.894450
	H33	H	0.648224	0.218941	0.098344
	H34	H	0.330977	0.781594	0.100031
	H35	H	0.647195	0.781607	0.894791
	H36	H	0.332177	0.895636	0.217869
	H37	H	0.646534	0.104101	0.215871
	H38	H	0.332806	0.105250	0.776526
	H39	H	0.646061	0.894480	0.775231
	H40	H	0.884944	0.222991	0.342280
	H41	H	0.099655	0.227403	0.649307
	H42	H	0.097189	0.777928	0.341776
	H43	H	0.884903	0.778682	0.651083
	H44	H	0.211742	0.342973	0.890434
	H45	H	0.207594	0.659105	0.098082
	H46	H	0.774217	0.341215	0.095538
	H47	H	0.771450	0.658337	0.894356
	H48	H	0.405073	0.111261	0.585015
	H49	H	0.578258	0.889715	0.584757
	H50	H	0.584808	0.114181	0.407605
	H51	H	0.407576	0.888899	0.402237
	H52	H	0.580792	0.407295	0.109379
	H53	H	0.576401	0.586913	0.888261
	H54	H	0.399702	0.589350	0.106137
	H55	H	0.406148	0.407940	0.885366
	H56	H	0.101817	0.587156	0.409806
	H57	H	0.879356	0.587485	0.583286
	H58	H	0.100553	0.418161	0.582858
	H59	H	0.875597	0.411411	0.401575
	H60	H	0.103263	0.412917	0.586404
	H61	H	0.877413	0.587885	0.590709
	H62	H	0.102856	0.585476	0.402521
	H63	H	0.876118	0.408948	0.408560
	H64	H	0.400267	0.592962	0.107097
	H65	H	0.578827	0.596296	0.883225
	H66	H	0.583985	0.408348	0.110309
	H67	H	0.396322	0.406795	0.881752
	H68	H	0.578195	0.115311	0.399869
	H69	H	0.578895	0.887942	0.585864
	H70	H	0.399784	0.112926	0.584586
	H71	H	0.403563	0.891408	0.413111
	H72	H	0.901923	0.612622	0.087890
	H73	H	0.081562	0.388513	0.084770
	H74	H	0.078062	0.609773	0.910254
	H75	H	0.900974	0.386283	0.901602
	H76	H	0.079088	0.908506	0.607722
	H77	H	0.080360	0.095206	0.384356
	H78	H	0.897696	0.089082	0.609136
	H79	H	0.900643	0.911658	0.385436
	H80	H	0.600296	0.087467	0.909323
	H81	H	0.375849	0.092788	0.086058
	H82	H	0.600694	0.912533	0.088194
	H83	H	0.377899	0.913249	0.908412
	H84	H	0.602429	0.910248	0.085364
	H85	H	0.377969	0.090067	0.087095
	H86	H	0.603000	0.089001	0.902614
	H87	H	0.377112	0.913947	0.905420
	H88	H	0.902878	0.086990	0.605954
	H89	H	0.083775	0.082261	0.387401
	H90	H	0.081016	0.911918	0.608096
	H91	H	0.902205	0.909854	0.385098
	H92	H	0.079246	0.613526	0.905018
	H93	H	0.077859	0.388191	0.089081
	H94	H	0.897535	0.613521	0.086092
	H95	H	0.903517	0.389155	0.908005
	H96	H	0.402390	0.113859	0.589220
	H97	H	0.577143	0.888618	0.586388
	H98	H	0.575378	0.111042	0.408613
	H99	H	0.396454	0.885858	0.405131
	H100	H	0.581744	0.410597	0.108544
	H101	H	0.586233	0.588471	0.883138
	H102	H	0.396470	0.591320	0.107187
	H103	H	0.399335	0.415866	0.886356
	H104	H	0.105231	0.592158	0.405034
	H105	H	0.876723	0.594049	0.586338
	H106	H	0.102099	0.411615	0.579973
	H107	H	0.878556	0.415774	0.406211
	H108	H	0.898571	0.614837	0.090517
	H109	H	0.076077	0.390112	0.084073
	H110	H	0.073853	0.610537	0.905859
	H111	H	0.896826	0.386733	0.907566
	H112	H	0.077507	0.911666	0.606649
	H113	H	0.071504	0.086791	0.389285
	H114	H	0.902432	0.092564	0.608372
	H115	H	0.899999	0.909501	0.384133
	H116	H	0.603351	0.093853	0.907478
	H117	H	0.375274	0.091659	0.089464
	H118	H	0.600651	0.913091	0.084237
	H119	H	0.376049	0.911174	0.906576
	C120	C	0.369152	0.009480	0.618338
	C121	C	0.610887	0.992174	0.617734
	C122	C	0.611460	0.009534	0.374135
	C123	C	0.369980	0.992540	0.375899
	C124	C	0.612134	0.378496	0.005299
	C125	C	0.611085	0.622087	0.988335
	C126	C	0.367678	0.622334	0.003513
	C127	C	0.368627	0.379555	0.987853
	C128	C	-0.000796	0.620606	0.375218
	C129	C	0.981802	0.622124	0.618404
	C130	C	-0.001068	0.380664	0.616379
	C131	C	0.980739	0.379582	0.374164
	C132	C	0.868766	0.508822	0.117855
	C133	C	0.110374	0.492399	0.117449
	C134	C	0.110909	0.508003	0.874352
	C135	C	0.868893	0.491587	0.874841
	C136	C	0.112254	0.878339	0.504993
	C137	C	0.112159	0.122305	0.488586
	C138	C	0.869122	0.121570	0.504895
	C139	C	0.869100	0.878722	0.487644
	C140	C	0.497836	0.122005	0.875569
	C141	C	0.481002	0.122165	0.117715
	C142	C	0.497083	0.880155	0.117469
	C143	C	0.480806	0.880138	0.875428
	C144	C	0.366088	0.891572	0.678360
	C145	C	0.613984	0.110106	0.678105
	C146	C	0.614041	0.891601	0.314540
	C147	C	0.366627	0.110529	0.316663
	C148	C	0.669466	0.378798	0.886760
	C149	C	0.669009	0.622653	0.106133
	C150	C	0.309838	0.622445	0.885405
	C151	C	0.310095	0.380212	0.105955
	C152	C	0.880000	0.679360	0.376250
	C153	C	0.100519	0.681264	0.619622
	C154	C	0.880521	0.320679	0.618403
	C155	C	0.099463	0.320379	0.373277
	C156	C	0.881184	0.377045	0.677275
	C157	C	0.099550	0.625014	0.678745
	C158	C	0.880526	0.623715	0.316578
	C159	C	0.099221	0.377332	0.314888
	C160	C	0.367645	0.680942	0.885596
	C161	C	0.611231	0.681144	0.105774
	C162	C	0.611832	0.320380	0.887200
	C163	C	0.368263	0.322204	0.106339
	C164	C	0.670541	0.890945	0.373374
	C165	C	0.670374	0.110663	0.618861
	C166	C	0.308940	0.891421	0.620236
	C167	C	0.309138	0.110390	0.374580
	C168	C	0.868453	0.389988	0.175332
	C169	C	0.112957	0.610120	0.177412
	C170	C	0.115264	0.390999	0.812849
	C171	C	0.867664	0.610099	0.816550
	C172	C	0.173444	0.875974	0.388531
	C173	C	0.173954	0.126968	0.604224
	C174	C	0.808607	0.124244	0.388470
	C175	C	0.808160	0.876554	0.604252
	C176	C	0.379043	0.180778	0.875164
	C177	C	0.600424	0.179876	0.117549
	C178	C	0.378625	0.820833	0.118976
	C179	C	0.599735	0.820959	0.875223
	C180	C	0.379017	0.877810	0.177498
	C181	C	0.599835	0.122886	0.175970
	C182	C	0.379796	0.123806	0.816436
	C183	C	0.599275	0.877157	0.816057
	C184	C	0.866304	0.182617	0.388686
	C185	C	0.116765	0.185657	0.603621
	C186	C	0.115525	0.817965	0.388400
	C187	C	0.866427	0.818609	0.604349
	C188	C	0.171636	0.390360	0.871999
	C189	C	0.168822	0.611193	0.117672
	C190	C	0.812200	0.389237	0.116043
	C191	C	0.810789	0.610662	0.875189
	C192	C	0.394960	0.091351	0.593374
	C193	C	0.585394	0.910179	0.593016
	C194	C	0.586402	0.092189	0.398395
	C195	C	0.395344	0.910082	0.399856
	C196	C	0.588785	0.401993	0.087769
	C197	C	0.587304	0.597741	0.906245
	C198	C	0.391842	0.598216	0.085491
	C199	C	0.393305	0.403329	0.905982
	C200	C	0.081772	0.595436	0.398956
	C201	C	0.899435	0.597233	0.593854
	C202	C	0.080668	0.406712	0.590613
	C203	C	0.898199	0.404781	0.398574
	C204	C	0.892436	0.592119	0.094799
	C205	C	0.085353	0.410239	0.092803
	C206	C	0.084592	0.590018	0.899764
	C207	C	0.893375	0.408818	0.898720
	C208	C	0.086662	0.903525	0.586464
	C209	C	0.085899	0.095483	0.407876
	C210	C	0.893945	0.096672	0.586630
	C211	C	0.894164	0.903363	0.406015
	C212	C	0.580702	0.097150	0.899621
	C213	C	0.398154	0.098303	0.094216
	C214	C	0.579796	0.904938	0.092955
	C215	C	0.398491	0.905607	0.899730
	Zn216	Zn	0.489853	0.000925	0.746508
	Zn217	Zn	0.489427	0.000810	0.246352
	Zn218	Zn	0.740524	0.500419	-0.003475
	Zn219	Zn	0.238933	0.500554	-0.004346
	Zn220	Zn	-0.009015	0.748990	0.495806
	Zn221	Zn	-0.009482	0.251520	0.496525
	Zn222	Zn	-0.009959	0.500228	0.745855
	Zn223	Zn	-0.010598	0.500769	0.246580
	Zn224	Zn	0.489023	0.751265	-0.003765
	Zn225	Zn	0.489839	0.250384	-0.002879
	Zn226	Zn	0.739413	0.000527	0.496285
	Zn227	Zn	0.241016	0.000572	0.497038
	N228	N	0.402701	0.966073	0.677408
	N229	N	0.577990	0.035281	0.677673
	N230	N	0.578180	0.966585	0.314629
	N231	N	0.403661	0.036191	0.317353
	N232	N	0.670164	0.413947	0.961381
	N233	N	0.669357	0.586798	0.031951
	N234	N	0.309402	0.587375	0.959871
	N235	N	0.309795	0.414798	0.031211
	N236	N	0.954948	0.677737	0.411766
	N237	N	0.026102	0.679959	0.583109
	N238	N	0.954670	0.322921	0.581054
	N239	N	0.024620	0.321307	0.409320
	N240	N	0.955875	0.413465	0.676312
	N241	N	0.024576	0.589254	0.678399
	N242	N	0.955729	0.588268	0.315598
	N243	N	0.024179	0.413070	0.315092
	N244	N	0.402597	0.681307	0.960244
	N245	N	0.576180	0.680972	0.031459
	N246	N	0.577069	0.320063	0.961898
	N247	N	0.403586	0.321470	0.031868
	N248	N	0.669220	0.965454	0.409674
	N249	N	0.668723	0.036399	0.582031
	N250	N	0.310462	0.965882	0.583789
	N251	N	0.310885	0.035777	0.410601
	N252	N	0.902647	0.465612	0.176716
	N253	N	0.077517	0.535179	0.177576
	N254	N	0.078176	0.465428	0.814141
	N255	N	0.903150	0.534936	0.816151
	N256	N	0.171644	0.912917	0.462186
	N257	N	0.171277	0.088251	0.531500
	N258	N	0.810132	0.087100	0.461893
	N259	N	0.809602	0.913148	0.530620
	N260	N	0.453845	0.180021	0.911071
	N261	N	0.525427	0.179679	0.082294
	N262	N	0.453165	0.822011	0.082493
	N263	N	0.525078	0.822583	0.911486
	N264	N	0.453946	0.913913	0.176806
	N265	N	0.524504	0.087933	0.176591
	N266	N	0.454828	0.088047	0.816493
	N267	N	0.524260	0.913074	0.815790
	N268	N	0.903041	0.181250	0.462332
	N269	N	0.078824	0.182749	0.530631
	N270	N	0.078387	0.819347	0.462062
	N271	N	0.903496	0.819597	0.530744
	N272	N	0.169011	0.464230	0.909433
	N273	N	0.167390	0.536948	0.080811
	N274	N	0.812110	0.464352	0.081226
	N275	N	0.811267	0.535862	0.910510
	O276	O	0.192964	0.799666	-0.209203
	H277	H	0.199248	0.850917	-0.212727
	H278	H	0.143810	0.793506	-0.210998
	O279	O	0.601412	0.531348	0.363021
	H280	H	0.600742	0.535950	0.353339
	H281	H	0.615816	0.551970	0.361684
	O282	O	0.749605	0.241543	0.756800
	H283	H	0.721350	0.267456	0.734335
	H284	H	0.741277	0.248965	0.772095
	O285	O	0.972320	0.211779	1.135441
	H286	H	0.972769	0.211095	1.108509
	H287	H	0.978411	0.219750	1.144840
	O288	O	0.584468	0.292517	0.557391
	H289	H	0.560763	0.296480	0.566620
	H290	H	0.589246	0.282124	0.570465
	O291	O	0.339356	0.654676	0.690185
	H292	H	0.319106	0.679827	0.710381
	H293	H	0.348506	0.661014	0.680879
	O294	O	0.951385	-0.216046	1.213546
	H295	H	0.970696	-0.230436	1.204243
	H296	H	0.955553	-0.226968	1.222639
	O297	O	0.489849	0.347150	0.473229
	H298	H	0.492469	0.344277	0.477203
	H299	H	0.472324	0.347586	0.481388
	O300	O	-0.033734	0.215737	0.776776
	H301	H	-0.052241	0.231564	0.776631
	H302	H	-0.049537	0.230053	0.773962
	O303	O	0.533244	0.723526	0.462564
	H304	H	0.524829	0.715054	0.462236
	H305	H	0.524788	0.726553	0.436204
	O306	O	0.673587	0.675704	0.315622
	H307	H	0.653244	0.662348	0.330871
	H308	H	0.672909	0.661605	0.315985
	O309	O	0.710592	0.469946	0.272293
	H310	H	0.723432	0.445854	0.257077
	H311	H	0.715964	0.443574	0.262183
	O312	O	0.668415	0.656794	0.661948
	H313	H	0.688540	0.682436	0.685499
	H314	H	0.634955	0.657326	0.656557
	O315	O	0.709315	0.528562	0.715482
	H316	H	0.719058	0.550022	0.725456
	H317	H	0.714445	0.560714	0.727014
	O318	O	0.300545	0.316771	0.310966
	H319	H	0.328026	0.334969	0.318050
	H320	H	0.302490	0.326590	0.327320
	O321	O	-0.061030	0.942318	0.767019
	H322	H	-0.044439	0.948728	0.774641
	H323	H	-0.089735	0.959498	0.763194
	O324	O	0.783484	0.797189	0.201897
	H325	H	0.822381	0.789247	0.201786
	H326	H	0.762720	0.799263	0.226105
	O327	O	0.079265	-0.024732	1.218016
	H328	H	0.098316	-0.020275	1.220026
	H329	H	0.060083	-0.023731	1.210377
	O330	O	0.700091	0.707514	0.534540
	H331	H	0.693134	0.699360	0.547503
	H332	H	0.713011	0.723274	0.526881
	O333	O	0.330095	0.448672	0.532823
	H334	H	0.341358	0.469818	0.517979
	H335	H	0.329369	0.452237	0.535637
	O336	O	0.804068	0.185355	0.190198
	H337	H	0.821761	0.168999	0.168530
	H338	H	0.820433	0.168586	0.175615
	O339	O	1.300364	0.481776	0.465579
	H340	H	1.305066	0.473139	0.457559
	H341	H	1.281247	0.488301	0.452781
	O342	O	-0.198568	-0.086066	-0.152044
	H343	H	-0.206592	-0.080174	-0.147587
	H344	H	-0.188557	-0.087768	-0.134459
	O345	O	-0.005604	0.850923	1.047848
	H346	H	-0.006158	0.852258	1.033920
	H347	H	0.002216	0.856970	1.050953
	O348	O	0.350728	0.442549	0.697480
	H349	H	0.322841	0.434867	0.717421
	H350	H	0.358497	0.440719	0.686759
	O351	O	0.279247	0.524075	0.384655
	H352	H	0.260821	0.508562	0.374195
	H353	H	0.271861	0.519514	0.416721
	O354	O	-0.229017	-0.216409	1.032951
	H355	H	-0.233915	-0.221505	1.059317
	H356	H	-0.238209	-0.231173	1.043427
	O357	O	0.477088	0.516826	0.639167
	H358	H	0.466201	0.525127	0.643888
	H359	H	0.481855	0.512001	0.628157
	O360	O	0.641196	0.306357	0.651681
	H361	H	0.616675	0.310721	0.644375
	H362	H	0.626532	0.333520	0.641702
	O363	O	-0.076723	-0.145090	0.014347
	H364	H	-0.074417	-0.133937	0.028973
	H365	H	-0.087626	-0.154076	0.014964
	O366	O	0.623260	0.455448	0.446339
	H367	H	0.633524	0.472387	0.444276
	H368	H	0.624079	0.473281	0.446070
	O369	O	0.784403	0.087063	-0.220015
	H370	H	0.763070	0.106283	-0.234043
	H371	H	0.784793	0.090877	-0.221226
	O372	O	0.770199	0.987786	-0.031580
	H373	H	0.779942	0.983772	-0.027850
	H374	H	0.764546	0.976888	-0.026311
	O375	O	1.223219	0.193930	-0.195936
	H376	H	1.222265	0.182152	-0.176799
	H377	H	1.229177	0.201970	-0.183100
	O378	O	0.476211	0.334948	0.420297
	H379	H	0.490515	0.336918	0.422589
	H380	H	0.486354	0.325293	0.404734
	O381	O	-0.476957	0.715094	0.711995
	H382	H	-0.480878	0.722553	0.717501
	H383	H	-0.472170	0.720029	0.710374
	O384	O	0.995557	-0.214279	0.857816
	H385	H	1.000794	-0.215779	0.848576
	H386	H	0.993172	-0.220726	0.855409
	O387	O	1.014656	1.036391	-0.064629
	H388	H	0.994380	1.055175	-0.060526
	H389	H	1.000617	1.019772	-0.063918
	O390	O	0.420610	0.494049	0.388775
	H391	H	0.418416	0.482049	0.377818
	H392	H	0.428819	0.489627	0.413067
	O393	O	0.282892	0.296154	0.511645
	H394	H	0.284730	0.284045	0.526465
	H395	H	0.290133	0.280188	0.516342
	O396	O	0.212407	0.777148	0.958863
	H397	H	0.208545	0.776850	0.930305
	H398	H	0.239264	0.751138	0.945773
	O399	O	0.028061	-0.085755	0.895447
	H400	H	0.004857	-0.057698	0.881413
	H401	H	0.037298	-0.102129	0.876448
	O402	O	1.118121	0.814595	0.144431
	H403	H	1.108734	0.824997	0.130951
	H404	H	1.130270	0.803583	0.143995
	O405	O	0.779349	0.215226	0.957360
	H406	H	0.786227	0.207882	0.943980
	H407	H	0.751995	0.228532	0.966475
	O408	O	0.078215	0.044045	0.214732
	H409	H	0.086061	0.037430	0.234455
	H410	H	0.070958	0.066350	0.213040
	O411	O	0.773379	0.786810	0.778138
	H412	H	0.800422	0.802915	0.800350
	H413	H	0.782726	0.808393	0.778153
	O414	O	0.314877	0.478273	0.447850
	H415	H	0.314678	0.467251	0.465244
	H416	H	0.328106	0.486626	0.455093
	O417	O	0.804845	0.095931	1.066067
	H418	H	0.817991	0.080571	1.062311
	H419	H	0.794675	0.090499	1.051373
	O420	O	0.200337	1.218727	1.032520
	H421	H	0.217481	1.229266	1.050742
	H422	H	0.212707	1.222570	1.043708
	O423	O	0.131677	0.039322	0.781343
	H424	H	0.148082	0.047059	0.777183
	H425	H	0.110929	0.061767	0.776648
	O426	O	0.399639	0.356097	0.701541
	H427	H	0.401868	0.365899	0.716608
	H428	H	0.405729	0.370710	0.687123
	O429	O	1.085014	1.150563	1.055293
	H430	H	1.092895	1.155586	1.064625
	H431	H	1.082799	1.152474	1.054818
	O432	O	0.389374	0.490771	0.558253
	H433	H	0.386556	0.476438	0.567578
	H434	H	0.385081	0.495897	0.560625
	O435	O	0.111069	1.210870	0.209066
	H436	H	0.122879	1.233776	0.226964
	H437	H	0.091172	1.207204	0.201467
	O438	O	0.184470	0.132642	0.079760
	H439	H	0.190061	0.132416	0.098440
	H440	H	0.182418	0.116539	0.076848
	O441	O	0.182267	-0.100540	0.050094
	H442	H	0.191055	-0.117466	0.049405
	H443	H	0.181912	-0.105003	0.054320
	O444	O	0.607136	0.443186	0.579095
	H445	H	0.613734	0.466495	0.595944
	H446	H	0.590849	0.454818	0.583615
	O447	O	-0.032456	1.112614	1.080140
	H448	H	-0.020075	1.125005	1.076278
	H449	H	-0.009918	1.106021	1.086649
	O450	O	0.455480	0.713393	1.323510
	H451	H	0.429564	0.701862	1.321790
	H452	H	0.466584	0.726107	1.294826
	O453	O	0.623798	0.399598	0.382103
	H454	H	0.629640	0.393989	0.396328
	H455	H	0.623402	0.406348	0.395104
	O456	O	-0.226791	-0.028837	1.213787
	H457	H	-0.236941	-0.035897	1.228095
	H458	H	-0.230656	-0.036833	1.221593
	O459	O	1.163198	1.080093	-0.065699
	H460	H	1.154506	1.072137	-0.055310
	H461	H	1.162669	1.078135	-0.046443
	O462	O	0.279951	0.711804	0.469449
	H463	H	0.269390	0.728230	0.463437
	H464	H	0.287952	0.721732	0.461590
	O465	O	1.119699	0.021935	-0.160889
	H466	H	1.123562	0.040795	-0.147801
	H467	H	1.133598	0.026624	-0.179781
	O468	O	0.522747	0.281869	0.277393
	H469	H	0.560452	0.281324	0.274995
	H470	H	0.532492	0.262722	0.253306
	O471	O	0.248259	0.742632	0.256473
	H472	H	0.240233	0.757398	0.276932
	H473	H	0.242512	0.712888	0.242933
	O474	O	0.560504	0.509126	0.644550
	H475	H	0.562057	0.533370	0.648737
	H476	H	0.555245	0.511764	0.638513
	O477	O	0.406549	0.708582	1.573381
	H478	H	0.424440	0.705864	1.565875
	H479	H	0.394217	0.702363	1.570770
	O480	O	0.696432	0.292667	0.288153
	H481	H	0.722256	0.267928	0.287156
	H482	H	0.708205	0.282125	0.316144
	O483	O	0.588232	0.610620	0.345479
	H484	H	0.590486	0.601218	0.341952
	H485	H	0.583446	0.587728	0.334041
	O486	O	1.025231	0.023436	1.007039
	H487	H	1.036695	0.026728	1.014269
	H488	H	1.027226	0.021728	1.008973
	O489	O	1.014125	1.014785	-0.091104
	H490	H	1.031766	1.021913	-0.093125
	H491	H	1.014321	1.020392	-0.088362
