data_Molecule from HDF5

_cell_length_a		16.131533
_cell_length_b		16.126181
_cell_length_c		16.445073
_cell_angle_alpha	89.221992
_cell_angle_beta	91.008717
_cell_angle_gamma	88.817517
_symmetry_space_group_name_H-M	'P 1'
_symmetry_Int_Tables_number		1

loop_
	_symmetry_equiv_pos_as_xyz
	x,y,z

loop_
	_atom_site_label
	_atom_site_type_symbol
	_atom_site_fract_x
	_atom_site_fract_y
	_atom_site_fract_z
	H0	H	0.392507	0.841010	0.723301
	H1	H	0.592090	0.167041	0.718317
	H2	H	0.595307	0.839138	0.288738
	H3	H	0.381216	0.165876	0.283019
	H4	H	0.703328	0.404281	0.837739
	H5	H	0.709631	0.598974	0.162909
	H6	H	0.268127	0.607481	0.840828
	H7	H	0.282630	0.404056	0.165943
	H8	H	0.827737	0.720202	0.397332
	H9	H	0.158494	0.700749	0.597631
	H10	H	0.824423	0.290238	0.597926
	H11	H	0.156130	0.284094	0.411129
	H12	H	0.825475	0.401754	0.715210
	H13	H	0.152414	0.598383	0.721681
	H14	H	0.827112	0.606814	0.281116
	H15	H	0.154331	0.393542	0.289280
	H16	H	0.382758	0.725675	0.841717
	H17	H	0.589022	0.710840	0.165377
	H18	H	0.590351	0.285350	0.840113
	H19	H	0.398691	0.285960	0.164951
	H20	H	0.704174	0.835969	0.411465
	H21	H	0.703818	0.167487	0.600427
	H22	H	0.289948	0.833733	0.598851
	H23	H	0.269181	0.164346	0.399962
	H24	H	0.892071	0.336863	0.217377
	H25	H	0.090871	0.664210	0.219948
	H26	H	0.092478	0.335012	0.791501
	H27	H	0.880267	0.663698	0.777449
	H28	H	0.207015	0.901266	0.340296
	H29	H	0.208279	0.093976	0.664522
	H30	H	0.769668	0.104632	0.341516
	H31	H	0.782602	0.899640	0.666191
	H32	H	0.327133	0.221959	0.900173
	H33	H	0.657136	0.206584	0.099675
	H34	H	0.324915	0.791768	0.101807
	H35	H	0.655617	0.786083	0.912081
	H36	H	0.325857	0.905769	0.216646
	H37	H	0.651582	0.105291	0.223742
	H38	H	0.328779	0.113807	0.779989
	H39	H	0.655453	0.898876	0.792585
	H40	H	0.885298	0.220599	0.341180
	H41	H	0.091921	0.209593	0.665028
	H42	H	0.090503	0.785311	0.338889
	H43	H	0.900361	0.782175	0.664254
	H44	H	0.208026	0.335748	0.908822
	H45	H	0.200029	0.667687	0.098977
	H46	H	0.786093	0.334309	0.095781
	H47	H	0.770362	0.666725	0.897255
	H48	H	0.394413	0.118199	0.582044
	H49	H	0.589246	0.885355	0.592963
	H50	H	0.578619	0.121062	0.407473
	H51	H	0.404277	0.880946	0.398484
	H52	H	0.589657	0.410590	0.115721
	H53	H	0.579309	0.592393	0.887482
	H54	H	0.402746	0.596677	0.116663
	H55	H	0.406299	0.411285	0.889417
	H56	H	0.110630	0.593134	0.408088
	H57	H	0.870090	0.603579	0.589380
	H58	H	0.107775	0.403721	0.598731
	H59	H	0.871902	0.415242	0.400384
	H60	H	0.108721	0.404516	0.600493
	H61	H	0.876829	0.589068	0.579914
	H62	H	0.106957	0.585896	0.414267
	H63	H	0.871907	0.406870	0.407765
	H64	H	0.393421	0.601360	0.120437
	H65	H	0.574932	0.597435	0.888183
	H66	H	0.585219	0.401389	0.116938
	H67	H	0.392112	0.408604	0.884596
	H68	H	0.575176	0.119783	0.409741
	H69	H	0.591743	0.881537	0.608114
	H70	H	0.392031	0.123968	0.596819
	H71	H	0.412041	0.888400	0.414172
	H72	H	0.902825	0.617033	0.090531
	H73	H	0.076511	0.385145	0.101389
	H74	H	0.069535	0.614083	0.911803
	H75	H	0.892973	0.381113	0.906249
	H76	H	0.098714	0.903521	0.618509
	H77	H	0.077041	0.095441	0.386892
	H78	H	0.907459	0.092868	0.616010
	H79	H	0.893000	0.910109	0.385803
	H80	H	0.614369	0.100996	0.904171
	H81	H	0.367126	0.111393	0.093224
	H82	H	0.607999	0.901298	0.093764
	H83	H	0.374884	0.921391	0.909420
	H84	H	0.604701	0.914094	0.095334
	H85	H	0.377060	0.091337	0.079530
	H86	H	0.606821	0.093765	0.920755
	H87	H	0.372669	0.917617	0.905356
	H88	H	0.896286	0.100451	0.621547
	H89	H	0.082664	0.092957	0.386589
	H90	H	0.084305	0.901898	0.615584
	H91	H	0.897967	0.914850	0.388671
	H92	H	0.082867	0.618848	0.911423
	H93	H	0.089772	0.386243	0.087028
	H94	H	0.895307	0.619255	0.087317
	H95	H	0.904449	0.383031	0.901882
	H96	H	0.406413	0.118055	0.593467
	H97	H	0.577528	0.886575	0.602833
	H98	H	0.579548	0.119175	0.411877
	H99	H	0.394057	0.881956	0.413644
	H100	H	0.595353	0.401701	0.118490
	H101	H	0.580864	0.598065	0.884462
	H102	H	0.393579	0.590061	0.118201
	H103	H	0.396045	0.422084	0.889501
	H104	H	0.109179	0.583619	0.404211
	H105	H	0.871156	0.586651	0.597708
	H106	H	0.108576	0.402498	0.600048
	H107	H	0.875356	0.416245	0.411347
	H108	H	0.897376	0.620257	0.095515
	H109	H	0.095478	0.378333	0.105447
	H110	H	0.074012	0.619594	0.899868
	H111	H	0.901388	0.385423	0.913043
	H112	H	0.092838	0.889996	0.620023
	H113	H	0.078931	0.089795	0.388576
	H114	H	0.894417	0.085593	0.617927
	H115	H	0.900125	0.908228	0.387029
	H116	H	0.608084	0.082556	0.904873
	H117	H	0.370608	0.088569	0.105343
	H118	H	0.609683	0.906964	0.106496
	H119	H	0.373195	0.915649	0.911841
	C120	C	0.371802	0.010963	0.621702
	C121	C	0.614335	0.993854	0.627269
	C122	C	0.610004	0.011465	0.382449
	C123	C	0.369054	0.992384	0.378812
	C124	C	0.616076	0.377399	0.009855
	C125	C	0.609788	0.622564	0.993739
	C126	C	0.364699	0.627812	0.011578
	C127	C	0.371657	0.382806	0.994830
	C128	C	0.000467	0.621576	0.377736
	C129	C	0.981531	0.619283	0.620072
	C130	C	-0.001048	0.377029	0.625414
	C131	C	0.981852	0.379691	0.380743
	C132	C	0.871313	0.509669	0.120191
	C133	C	0.113527	0.492446	0.125282
	C134	C	0.108773	0.508649	0.881488
	C135	C	0.866819	0.492183	0.876471
	C136	C	0.117775	0.873220	0.510552
	C137	C	0.110971	0.119814	0.494309
	C138	C	0.867061	0.124394	0.511855
	C139	C	0.871145	0.879173	0.494258
	C140	C	0.500991	0.125620	0.879093
	C141	C	0.481018	0.123353	0.122724
	C142	C	0.498583	0.880710	0.126018
	C143	C	0.482221	0.884179	0.882859
	C144	C	0.374003	0.888715	0.682265
	C145	C	0.611763	0.117908	0.680753
	C146	C	0.613089	0.887742	0.327405
	C147	C	0.364320	0.116251	0.321879
	C148	C	0.667561	0.382463	0.886993
	C149	C	0.669480	0.618754	0.114942
	C150	C	0.306805	0.627929	0.889505
	C151	C	0.318894	0.383511	0.117127
	C152	C	0.877184	0.681837	0.377509
	C153	C	0.107752	0.667746	0.618629
	C154	C	0.874352	0.325499	0.619603
	C155	C	0.106430	0.321872	0.388151
	C156	C	0.874822	0.380938	0.678219
	C157	C	0.104698	0.616537	0.680278
	C158	C	0.876560	0.624838	0.319992
	C159	C	0.105456	0.376322	0.327650
	C160	C	0.364067	0.686328	0.890133
	C161	C	0.609119	0.674366	0.116583
	C162	C	0.611399	0.323221	0.888203
	C163	C	0.376778	0.324907	0.116594
	C164	C	0.667025	0.886147	0.388524
	C165	C	0.667342	0.117982	0.622043
	C166	C	0.322765	0.885026	0.620439
	C167	C	0.308293	0.115537	0.380043
	C168	C	0.873781	0.385646	0.177548
	C169	C	0.110189	0.615774	0.180588
	C170	C	0.110817	0.384388	0.828823
	C171	C	0.863408	0.615367	0.817551
	C172	C	0.170532	0.878961	0.388604
	C173	C	0.169274	0.114999	0.616148
	C174	C	0.808404	0.124337	0.389979
	C175	C	0.819364	0.879862	0.616973
	C176	C	0.376926	0.184401	0.879608
	C177	C	0.606589	0.173046	0.120800
	C178	C	0.374369	0.828254	0.122449
	C179	C	0.606067	0.824639	0.889301
	C180	C	0.375123	0.884439	0.180243
	C181	C	0.603738	0.122516	0.182633
	C182	C	0.377576	0.130142	0.820020
	C183	C	0.606215	0.880847	0.829940
	C184	C	0.866255	0.181872	0.389707
	C185	C	0.111132	0.172453	0.616414
	C186	C	0.112541	0.821277	0.388133
	C187	C	0.878022	0.821512	0.616169
	C188	C	0.168207	0.384879	0.887295
	C189	C	0.164945	0.617523	0.120785
	C190	C	0.820564	0.384295	0.117210
	C191	C	0.808548	0.616600	0.877115
	C192	C	0.391724	0.097644	0.597706
	C193	C	0.592557	0.906940	0.607194
	C194	C	0.585007	0.097597	0.403354
	C195	C	0.395595	0.906051	0.402050
	C196	C	0.596196	0.398269	0.094898
	C197	C	0.585368	0.601906	0.908614
	C198	C	0.389442	0.603245	0.096455
	C199	C	0.392067	0.406912	0.909958
	C200	C	0.086717	0.595088	0.401760
	C201	C	0.895213	0.599042	0.596007
	C202	C	0.085743	0.397405	0.605550
	C203	C	0.895283	0.405210	0.400566
	C204	C	0.892346	0.596199	0.097657
	C205	C	0.093405	0.405715	0.104326
	C206	C	0.082947	0.595173	0.901761
	C207	C	0.892159	0.405594	0.900104
	C208	C	0.097970	0.892879	0.595961
	C209	C	0.086620	0.098923	0.409379
	C210	C	0.892099	0.100235	0.596486
	C211	C	0.891159	0.903704	0.409233
	C212	C	0.587284	0.099929	0.902896
	C213	C	0.394035	0.103147	0.099466
	C214	C	0.585098	0.901340	0.104894
	C215	C	0.395975	0.910490	0.902930
	Zn216	Zn	0.491358	0.004532	0.752492
	Zn217	Zn	0.490295	0.003013	0.251816
	Zn218	Zn	0.742531	0.501308	0.000343
	Zn219	Zn	0.239164	0.503057	0.002512
	Zn220	Zn	-0.006739	0.747066	0.501052
	Zn221	Zn	-0.009762	0.251026	0.503129
	Zn222	Zn	-0.010974	0.500113	0.749957
	Zn223	Zn	-0.009390	0.500108	0.250990
	Zn224	Zn	0.488886	0.753973	0.004009
	Zn225	Zn	0.492355	0.249901	0.002185
	Zn226	Zn	0.739515	0.002122	0.504019
	Zn227	Zn	0.243659	-0.001193	0.502048
	N228	N	0.403724	0.968071	0.683428
	N229	N	0.579557	0.039433	0.684175
	N230	N	0.578371	0.966658	0.323438
	N231	N	0.401352	0.038604	0.320922
	N232	N	0.670880	0.415420	0.963574
	N233	N	0.669988	0.587054	0.037451
	N234	N	0.306810	0.592475	0.966185
	N235	N	0.315661	0.419015	0.040439
	N236	N	0.955307	0.679855	0.412719
	N237	N	0.030317	0.669572	0.581725
	N238	N	0.952661	0.322844	0.587500
	N239	N	0.028349	0.323866	0.420650
	N240	N	0.953350	0.411954	0.682072
	N241	N	0.025259	0.587236	0.681340
	N242	N	0.954343	0.588224	0.319971
	N243	N	0.027090	0.411641	0.323000
	N244	N	0.399226	0.686367	0.967103
	N245	N	0.572874	0.676986	0.040271
	N246	N	0.580143	0.319843	0.965599
	N247	N	0.408939	0.324523	0.039579
	N248	N	0.665235	0.963902	0.421999
	N249	N	0.669436	0.039605	0.590054
	N250	N	0.321085	0.962050	0.583224
	N251	N	0.311051	0.037346	0.414772
	N252	N	0.904692	0.464622	0.179591
	N253	N	0.078977	0.536924	0.183669
	N254	N	0.074465	0.462506	0.825061
	N255	N	0.899200	0.537026	0.817229
	N256	N	0.173944	0.910569	0.465766
	N257	N	0.169306	0.082661	0.539270
	N258	N	0.809024	0.088990	0.466714
	N259	N	0.814757	0.914964	0.540144
	N260	N	0.454657	0.181772	0.915556
	N261	N	0.529166	0.173940	0.084249
	N262	N	0.452255	0.825622	0.089582
	N263	N	0.527901	0.826800	0.921536
	N264	N	0.453462	0.916340	0.182412
	N265	N	0.524673	0.092153	0.183848
	N266	N	0.455803	0.094284	0.819372
	N267	N	0.528093	0.916980	0.825676
	N268	N	0.901729	0.182423	0.466472
	N269	N	0.075497	0.175665	0.539599
	N270	N	0.080642	0.817518	0.464990
	N271	N	0.909205	0.820819	0.538712
	N272	N	0.166967	0.463343	0.919257
	N273	N	0.167136	0.539852	0.087217
	N274	N	0.818741	0.462239	0.082024
	N275	N	0.810403	0.538847	0.912844
	O276	O	1.001087	-0.099238	1.160714
	H277	H	0.990093	-0.107938	1.164222
	H278	H	1.006833	-0.079702	1.157752
	O279	O	0.550394	0.494865	0.448594
	H280	H	0.555049	0.490635	0.437993
	H281	H	0.543712	0.487760	0.457602
	O282	O	0.421164	0.639771	0.575342
	H283	H	0.420652	0.648667	0.563547
	H284	H	0.423553	0.635574	0.577483
	O285	O	0.615220	0.492623	0.509928
	H286	H	0.616060	0.494525	0.512899
	H287	H	0.611868	0.487897	0.515164
	O288	O	0.593495	0.416185	0.623469
	H289	H	0.597386	0.437423	0.635818
	H290	H	0.584219	0.423109	0.621809
	O291	O	-0.147934	0.124070	0.937604
	H292	H	-0.148320	0.108156	0.952983
	H293	H	-0.153061	0.120195	0.924374
	O294	O	0.887576	0.909087	-0.123656
	H295	H	0.895901	0.907807	-0.125333
	H296	H	0.882777	0.905639	-0.123879
	O297	O	1.076694	0.981864	-0.035454
	H298	H	1.076493	0.982565	-0.040713
	H299	H	1.079305	0.967506	-0.035837
	O300	O	0.528687	0.438534	0.384012
	H301	H	0.514761	0.437834	0.395244
	H302	H	0.524702	0.449406	0.372551
	O303	O	1.009777	-0.044212	1.023017
	H304	H	1.009044	-0.053091	1.028600
	H305	H	1.014356	-0.039644	1.017790
	O306	O	0.416121	0.456368	0.592083
	H307	H	0.417442	0.464817	0.586161
	H308	H	0.411062	0.453030	0.585953
	O309	O	0.507606	0.422541	0.514289
	H310	H	0.508186	0.421803	0.519190
	H311	H	0.500065	0.427194	0.524900
	O312	O	0.522904	1.638478	0.540335
	H313	H	0.517155	1.636792	0.538414
	H314	H	0.535523	1.642395	0.532027
	O315	O	1.349039	0.662459	0.363345
	H316	H	1.339785	0.670829	0.361909
	H317	H	1.349082	0.667129	0.354234
	O318	O	0.615435	0.636861	0.543558
	H319	H	0.604832	0.628350	0.545162
	H320	H	0.629582	0.643314	0.541629
	O321	O	0.453590	0.562163	0.329908
	H322	H	0.446997	0.563142	0.314428
	H323	H	0.448742	0.565934	0.337925
	O324	O	-0.025815	1.140193	0.920446
	H325	H	-0.040795	1.142363	0.916576
	H326	H	-0.030742	1.151073	0.913394
	O327	O	0.129898	0.995957	1.034276
	H328	H	0.128595	0.999404	1.031465
	H329	H	0.132895	1.006870	1.029352
	O330	O	-0.013429	0.069538	-0.001436
	H331	H	-0.017026	0.081086	-0.003621
	H332	H	-0.019893	0.067280	-0.010167
	O333	O	0.600209	0.459786	0.494388
	H334	H	0.592519	0.457094	0.487666
	H335	H	0.607150	0.443882	0.489948
	O336	O	0.018613	0.089537	-0.017001
	H337	H	0.030324	0.097654	-0.008035
	H338	H	0.015534	0.097031	-0.000884
	O339	O	0.068552	-0.073664	-0.070274
	H340	H	0.064549	-0.072220	-0.065966
	H341	H	0.070059	-0.090917	-0.078814
	O342	O	0.456485	0.383844	0.514894
	H343	H	0.455534	0.383828	0.514219
	H344	H	0.463622	0.371100	0.521837
	O345	O	-0.101446	0.942582	0.941461
	H346	H	-0.092637	0.950949	0.940676
	H347	H	-0.110459	0.939156	0.956736
	O348	O	0.385818	0.459037	0.368625
	H349	H	0.390292	0.456670	0.354983
	H350	H	0.381409	0.469952	0.379580
	O351	O	0.476970	0.491062	0.452935
	H352	H	0.463098	0.501358	0.440194
	H353	H	0.475831	0.474364	0.448668
	O354	O	-0.039412	1.003019	-0.148922
	H355	H	-0.045503	1.014622	-0.151573
	H356	H	-0.042688	1.015614	-0.154105
	O357	O	0.385960	0.583239	0.578527
	H358	H	0.382771	0.586091	0.581393
	H359	H	0.390620	0.584898	0.572700
	O360	O	0.979260	-0.032704	0.932707
	H361	H	0.983146	-0.022474	0.929369
	H362	H	0.978315	-0.033118	0.929014
	O363	O	0.642979	0.487683	0.637817
	H364	H	0.631267	0.505684	0.647182
	H365	H	0.648803	0.495293	0.647119
	O366	O	0.946300	1.017523	0.141922
	H367	H	0.924875	1.007308	0.144856
	H368	H	0.948975	1.015241	0.134133
	O369	O	0.885404	-0.023813	0.094016
	H370	H	0.885250	-0.029838	0.088539
	H371	H	0.883544	-0.027556	0.099667
	O372	O	0.448550	0.483442	0.480083
	H373	H	0.459227	0.476240	0.469792
	H374	H	0.455411	0.476667	0.477702
	O375	O	0.959753	-0.064131	0.901368
	H376	H	0.950219	-0.065972	0.907545
	H377	H	0.964665	-0.065734	0.899810
	O378	O	0.071073	1.004681	0.132363
	H379	H	0.073327	1.008994	0.135793
	H380	H	0.070691	1.013239	0.134492
	O381	O	0.476309	0.455105	0.540525
	H382	H	0.473576	0.452786	0.529195
	H383	H	0.465260	0.462636	0.537411
	O384	O	1.006146	0.875110	0.059243
	H385	H	1.017467	0.866354	0.061294
	H386	H	1.008237	0.891769	0.053617
	O387	O	1.075587	-0.000925	0.996661
	H388	H	1.076257	-0.001862	0.985717
	H389	H	1.067063	0.010774	1.002952
	O390	O	0.965255	1.171090	-0.056214
	H391	H	0.965773	1.155677	-0.080546
	H392	H	0.952548	1.185012	-0.063566
	O393	O	0.349928	0.548764	0.414534
	H394	H	0.357059	0.553866	0.414671
	H395	H	0.345829	0.565669	0.417828
