data_Molecule from HDF5

_cell_length_a		16.445576
_cell_length_b		16.385340
_cell_length_c		16.499431
_cell_angle_alpha	90.122157
_cell_angle_beta	89.971002
_cell_angle_gamma	90.040230
_symmetry_space_group_name_H-M	'P 1'
_symmetry_Int_Tables_number		1

loop_
	_symmetry_equiv_pos_as_xyz
	x,y,z

loop_
	_atom_site_label
	_atom_site_type_symbol
	_atom_site_fract_x
	_atom_site_fract_y
	_atom_site_fract_z
	H0	H	0.389650	0.831758	0.721668
	H1	H	0.604786	0.146984	0.723082
	H2	H	0.604480	0.831066	0.276310
	H3	H	0.390561	0.146261	0.276038
	H4	H	0.718518	0.385059	0.840901
	H5	H	0.719839	0.595949	0.157317
	H6	H	0.273606	0.598435	0.843051
	H7	H	0.273957	0.381663	0.155055
	H8	H	0.839910	0.710312	0.394887
	H9	H	0.157033	0.713948	0.606169
	H10	H	0.840764	0.267216	0.606570
	H11	H	0.155210	0.267264	0.392438
	H12	H	0.841835	0.383474	0.722853
	H13	H	0.155332	0.601043	0.725298
	H14	H	0.841364	0.597919	0.275689
	H15	H	0.154754	0.382199	0.274792
	H16	H	0.391850	0.711463	0.841172
	H17	H	0.603839	0.713242	0.156486
	H18	H	0.602236	0.268232	0.840739
	H19	H	0.395016	0.269557	0.157214
	H20	H	0.717842	0.830130	0.394763
	H21	H	0.721484	0.146786	0.607148
	H22	H	0.275762	0.830963	0.604332
	H23	H	0.276355	0.146799	0.393397
	H24	H	0.892882	0.331307	0.221014
	H25	H	0.104016	0.649834	0.219696
	H26	H	0.106789	0.332960	0.774085
	H27	H	0.893961	0.648700	0.780282
	H28	H	0.220101	0.882447	0.340379
	H29	H	0.220943	0.096766	0.655612
	H30	H	0.775200	0.094680	0.341258
	H31	H	0.776805	0.885798	0.656039
	H32	H	0.338866	0.210395	0.895286
	H33	H	0.657802	0.208073	0.103376
	H34	H	0.338772	0.766674	0.104856
	H35	H	0.655865	0.770848	0.896228
	H36	H	0.339746	0.880844	0.222656
	H37	H	0.656430	0.092156	0.219326
	H38	H	0.340033	0.098786	0.775266
	H39	H	0.654038	0.885062	0.777451
	H40	H	0.890538	0.211936	0.341454
	H41	H	0.103548	0.212527	0.655970
	H42	H	0.104356	0.766373	0.341249
	H43	H	0.895474	0.770456	0.657033
	H44	H	0.219247	0.331366	0.892719
	H45	H	0.220024	0.648371	0.104023
	H46	H	0.778456	0.329112	0.103733
	H47	H	0.778047	0.647949	0.896491
	H48	H	0.409669	0.100877	0.584287
	H49	H	0.587232	0.875699	0.587970
	H50	H	0.587747	0.101344	0.414805
	H51	H	0.404694	0.875421	0.412257
	H52	H	0.587456	0.397857	0.112153
	H53	H	0.587663	0.577381	0.887408
	H54	H	0.414055	0.576977	0.109551
	H55	H	0.404591	0.402580	0.885210
	H56	H	0.113892	0.582938	0.406266
	H57	H	0.886127	0.580509	0.590535
	H58	H	0.108705	0.407857	0.587123
	H59	H	0.883745	0.399913	0.406335
	H60	H	0.111772	0.400901	0.589037
	H61	H	0.885974	0.579666	0.589235
	H62	H	0.108891	0.579209	0.417799
	H63	H	0.885450	0.400243	0.413622
	H64	H	0.408384	0.579858	0.112205
	H65	H	0.587639	0.579363	0.886703
	H66	H	0.589431	0.397700	0.113431
	H67	H	0.413942	0.403314	0.888713
	H68	H	0.588189	0.104019	0.406103
	H69	H	0.585034	0.876467	0.588549
	H70	H	0.407675	0.102893	0.587853
	H71	H	0.410519	0.873641	0.405328
	H72	H	0.912041	0.606228	0.100539
	H73	H	0.092235	0.376852	0.082201
	H74	H	0.088629	0.603043	0.913144
	H75	H	0.907477	0.374046	0.908557
	H76	H	0.085961	0.901707	0.610461
	H77	H	0.087436	0.077566	0.386294
	H78	H	0.910261	0.080504	0.611739
	H79	H	0.907042	0.905826	0.386955
	H80	H	0.611509	0.079296	0.906109
	H81	H	0.382796	0.086303	0.085580
	H82	H	0.610522	0.899299	0.088006
	H83	H	0.384262	0.896235	0.915706
	H84	H	0.607245	0.902655	0.083104
	H85	H	0.387981	0.072293	0.083976
	H86	H	0.609239	0.079070	0.913147
	H87	H	0.385538	0.907422	0.910670
	H88	H	0.906490	0.077184	0.611392
	H89	H	0.086278	0.075904	0.387737
	H90	H	0.087722	0.900779	0.611416
	H91	H	0.913492	0.897838	0.385481
	H92	H	0.085190	0.602774	0.909325
	H93	H	0.085287	0.375150	0.095142
	H94	H	0.918359	0.596951	0.080220
	H95	H	0.910800	0.375373	0.907530
	H96	H	0.412377	0.101617	0.588289
	H97	H	0.586177	0.877643	0.586470
	H98	H	0.580519	0.100468	0.409245
	H99	H	0.413667	0.878444	0.412670
	H100	H	0.589016	0.399737	0.112464
	H101	H	0.589379	0.578435	0.886866
	H102	H	0.408612	0.573687	0.110096
	H103	H	0.410594	0.394615	0.885258
	H104	H	0.109527	0.570946	0.406958
	H105	H	0.886651	0.578578	0.590229
	H106	H	0.109113	0.402428	0.581534
	H107	H	0.886604	0.406683	0.409453
	H108	H	0.896628	0.605205	0.083361
	H109	H	0.078418	0.381471	0.083501
	H110	H	0.083781	0.601156	0.914372
	H111	H	0.909552	0.375876	0.911291
	H112	H	0.088080	0.902825	0.610355
	H113	H	0.084923	0.078354	0.386233
	H114	H	0.911456	0.076059	0.609249
	H115	H	0.903922	0.896737	0.383091
	H116	H	0.609641	0.073122	0.908686
	H117	H	0.382953	0.076908	0.097042
	H118	H	0.608893	0.905419	0.088907
	H119	H	0.380182	0.898182	0.903987
	C120	C	0.376418	-0.002321	0.619908
	C121	C	0.618754	0.980997	0.620574
	C122	C	0.618656	-0.002555	0.377517
	C123	C	0.376353	0.980011	0.377166
	C124	C	0.620364	0.366551	0.008141
	C125	C	0.620033	0.611364	0.991087
	C126	C	0.377396	0.609889	0.006802
	C127	C	0.376889	0.367701	0.990339
	C128	C	0.006404	0.610521	0.378283
	C129	C	0.990631	0.612819	0.622093
	C130	C	0.006554	0.369472	0.620022
	C131	C	0.989089	0.368772	0.376872
	C132	C	0.876472	0.497887	0.120730
	C133	C	0.119031	0.481949	0.120073
	C134	C	0.119662	0.498586	0.877378
	C135	C	0.877541	0.480739	0.878406
	C136	C	0.120062	0.868210	0.506621
	C137	C	0.119384	0.111081	0.490279
	C138	C	0.875868	0.111309	0.507273
	C139	C	0.876459	0.868028	0.489788
	C140	C	0.505668	0.110726	0.877036
	C141	C	0.489512	0.110138	0.120848
	C142	C	0.504890	0.868661	0.119520
	C143	C	0.487996	0.868513	0.877848
	C144	C	0.372328	0.879050	0.681123
	C145	C	0.622363	0.099578	0.682310
	C146	C	0.621822	0.878249	0.317185
	C147	C	0.373317	0.098984	0.316656
	C148	C	0.679041	0.365928	0.888423
	C149	C	0.679704	0.613765	0.109971
	C150	C	0.315438	0.614159	0.889244
	C151	C	0.315265	0.364346	0.108266
	C152	C	0.887550	0.670923	0.376483
	C153	C	0.109245	0.673994	0.624496
	C154	C	0.888091	0.307894	0.623888
	C155	C	0.107713	0.307428	0.374143
	C156	C	0.888448	0.365855	0.681674
	C157	C	0.108729	0.617302	0.683677
	C158	C	0.888223	0.614741	0.317118
	C159	C	0.107610	0.364816	0.315651
	C160	C	0.373902	0.671200	0.888672
	C161	C	0.622296	0.672509	0.109414
	C162	C	0.621230	0.307745	0.888515
	C163	C	0.375218	0.308332	0.109354
	C164	C	0.678549	0.877994	0.375777
	C165	C	0.680317	0.099673	0.624412
	C166	C	0.315783	0.878593	0.622528
	C167	C	0.316312	0.099129	0.374947
	C168	C	0.874769	0.378542	0.180736
	C169	C	0.121830	0.601697	0.179947
	C170	C	0.123675	0.380180	0.815138
	C171	C	0.875667	0.600739	0.820005
	C172	C	0.180272	0.864857	0.387996
	C173	C	0.180294	0.114559	0.608481
	C174	C	0.814831	0.113918	0.388876
	C175	C	0.816875	0.866610	0.609036
	C176	C	0.386630	0.170967	0.875839
	C177	C	0.609528	0.169106	0.122040
	C178	C	0.386235	0.807105	0.122675
	C179	C	0.607677	0.809590	0.876539
	C180	C	0.386707	0.864050	0.181360
	C181	C	0.608921	0.111626	0.180078
	C182	C	0.387237	0.115361	0.816053
	C183	C	0.607080	0.866685	0.817916
	C184	C	0.872515	0.172094	0.388849
	C185	C	0.122008	0.172362	0.608663
	C186	C	0.122787	0.806849	0.388376
	C187	C	0.875994	0.809610	0.609277
	C188	C	0.179923	0.379290	0.874239
	C189	C	0.179656	0.601313	0.122261
	C190	C	0.817548	0.377616	0.122490
	C191	C	0.817888	0.600422	0.877828
	C192	C	0.402596	0.080334	0.594250
	C193	C	0.593368	0.898093	0.594831
	C194	C	0.592835	0.080327	0.402554
	C195	C	0.402254	0.897210	0.402668
	C196	C	0.595847	0.391204	0.091019
	C197	C	0.595384	0.585815	0.908631
	C198	C	0.402951	0.584056	0.089121
	C199	C	0.402413	0.393051	0.907761
	C200	C	0.089073	0.584860	0.403317
	C201	C	0.907971	0.586904	0.597239
	C202	C	0.088616	0.396042	0.593583
	C203	C	0.906693	0.394730	0.402560
	C204	C	0.901667	0.581219	0.095356
	C205	C	0.092870	0.399289	0.094422
	C206	C	0.093418	0.580998	0.904476
	C207	C	0.902209	0.397070	0.902312
	C208	C	0.094730	0.894170	0.589036
	C209	C	0.093587	0.084929	0.408116
	C210	C	0.901671	0.085556	0.589352
	C211	C	0.900986	0.893075	0.406915
	C212	C	0.588521	0.084680	0.902091
	C213	C	0.406448	0.085478	0.096156
	C214	C	0.587263	0.894881	0.093909
	C215	C	0.404734	0.893643	0.902804
	Zn216	Zn	0.496268	-0.010561	0.748686
	Zn217	Zn	0.497637	-0.011521	0.248851
	Zn218	Zn	0.748595	0.488941	-0.000321
	Zn219	Zn	0.247478	0.489446	-0.001066
	Zn220	Zn	-0.001167	0.740005	0.498544
	Zn221	Zn	-0.002271	0.240099	0.498977
	Zn222	Zn	-0.001271	0.490149	0.749493
	Zn223	Zn	-0.001685	0.490733	0.248481
	Zn224	Zn	0.496926	0.739670	-0.000787
	Zn225	Zn	0.497965	0.238348	-0.000873
	Zn226	Zn	0.747310	-0.010710	0.498646
	Zn227	Zn	0.248417	-0.010905	0.498485
	N228	N	0.409407	0.954235	0.679419
	N229	N	0.584525	0.024839	0.679841
	N230	N	0.585103	0.953489	0.318286
	N231	N	0.410010	0.023612	0.317936
	N232	N	0.678918	0.401504	0.963922
	N233	N	0.678585	0.576434	0.035329
	N234	N	0.317486	0.576579	0.963665
	N235	N	0.316071	0.400381	0.033092
	N236	N	0.962122	0.668291	0.413875
	N237	N	0.034895	0.671225	0.586681
	N238	N	0.962475	0.310355	0.586078
	N239	N	0.033071	0.309809	0.411505
	N240	N	0.963126	0.403543	0.679355
	N241	N	0.033938	0.579917	0.682322
	N242	N	0.963052	0.577739	0.318308
	N243	N	0.032815	0.401936	0.316970
	N244	N	0.412086	0.668259	0.962674
	N245	N	0.585968	0.671312	0.034518
	N246	N	0.585757	0.307895	0.963915
	N247	N	0.412658	0.310281	0.035064
	N248	N	0.676597	0.952915	0.412772
	N249	N	0.678286	0.024934	0.586634
	N250	N	0.318265	0.953362	0.585120
	N251	N	0.318126	0.024177	0.411737
	N252	N	0.910430	0.454447	0.179948
	N253	N	0.085062	0.526260	0.178804
	N254	N	0.087204	0.455656	0.816911
	N255	N	0.911863	0.525234	0.820125
	N256	N	0.178649	0.902211	0.462718
	N257	N	0.179009	0.077434	0.533792
	N258	N	0.816879	0.076883	0.463473
	N259	N	0.817037	0.902063	0.533723
	N260	N	0.461357	0.168359	0.912953
	N261	N	0.534050	0.168758	0.086287
	N262	N	0.460633	0.810122	0.084769
	N263	N	0.532477	0.810624	0.913003
	N264	N	0.461331	0.901703	0.179383
	N265	N	0.533239	0.076077	0.179794
	N266	N	0.462351	0.078710	0.816587
	N267	N	0.531533	0.902305	0.818591
	N268	N	0.909542	0.170986	0.463557
	N269	N	0.085023	0.170305	0.534047
	N270	N	0.086222	0.808724	0.463176
	N271	N	0.911934	0.810183	0.534097
	N272	N	0.177395	0.453908	0.912291
	N273	N	0.178263	0.525706	0.086064
	N274	N	0.818536	0.453068	0.086056
	N275	N	0.818758	0.524675	0.913242
	O276	O	0.636687	0.638732	0.486704
	H277	H	0.644638	0.630923	0.495226
	H278	H	0.637414	0.635987	0.514513
	O279	O	0.931964	0.014983	1.000613
	H280	H	0.916888	0.016899	1.018905
	H281	H	0.933853	0.018015	1.018321
	O282	O	0.676562	0.311359	0.318510
	H283	H	0.650542	0.316210	0.330135
	H284	H	0.683275	0.312735	0.325512
	O285	O	0.498827	0.411307	0.540694
	H286	H	0.488177	0.397914	0.544494
	H287	H	0.503958	0.406498	0.527755
	O288	O	0.933968	0.868423	-0.167628
	H289	H	0.928298	0.857380	-0.150243
	H290	H	0.938860	0.883747	-0.164112
	O291	O	0.459887	0.441696	0.369491
	H292	H	0.451970	0.450838	0.376036
	H293	H	0.451352	0.462111	0.372533
	O294	O	0.112773	-0.207237	0.809020
	H295	H	0.100727	-0.195061	0.817233
	H296	H	0.090268	-0.227100	0.794647
	O297	O	0.707318	0.637880	1.415943
	H298	H	0.700783	0.627630	1.440786
	H299	H	0.685483	0.627276	1.413245
	O300	O	0.474440	0.652973	0.704763
	H301	H	0.457174	0.653678	0.715947
	H302	H	0.470896	0.644407	0.702884
	O303	O	0.314426	0.561157	0.481140
	H304	H	0.312864	0.547579	0.487245
	H305	H	0.300452	0.580326	0.471086
	O306	O	0.518122	0.279501	0.288282
	H307	H	0.506428	0.284858	0.270995
	H308	H	0.531661	0.271558	0.284750
	O309	O	0.497963	0.518962	0.557474
	H310	H	0.508278	0.520512	0.562645
	H311	H	0.497226	0.502131	0.558557
	O312	O	0.192877	0.831810	0.997174
	H313	H	0.187041	0.824912	0.983280
	H314	H	0.201530	0.847070	0.981325
	O315	O	0.287246	0.495215	0.656199
	H316	H	0.278037	0.495313	0.646616
	H317	H	0.270496	0.484986	0.668704
	O318	O	0.851341	-0.206176	0.014996
	H319	H	0.834448	-0.216448	0.004594
	H320	H	0.858010	-0.214416	0.025208
	O321	O	0.006141	0.043130	0.057810
	H322	H	0.006975	0.044996	0.055812
	H323	H	0.011810	0.041589	0.072594
	O324	O	0.704778	0.436081	0.553532
	H325	H	0.692990	0.441675	0.568680
	H326	H	0.692661	0.456983	0.543877
	O327	O	0.712161	0.277795	0.479131
	H328	H	0.730124	0.281361	0.480064
	H329	H	0.728056	0.275980	0.474345
	O330	O	-0.144983	0.984545	0.147712
	H331	H	-0.148384	1.003203	0.147277
	H332	H	-0.137066	1.004622	0.148773
	O333	O	0.483256	0.684891	0.301655
	H334	H	0.486295	0.683475	0.299410
	H335	H	0.492831	0.697976	0.317806
	O336	O	0.140237	0.043513	-0.209323
	H337	H	0.166331	0.023748	-0.210808
	H338	H	0.136379	0.025215	-0.198838
	O339	O	-0.098331	1.103698	0.960909
	H340	H	-0.101888	1.117633	0.960144
	H341	H	-0.093062	1.108081	0.958990
	O342	O	0.389277	1.581888	0.508688
	H343	H	0.387705	1.574526	0.530456
	H344	H	0.388918	1.594969	0.509842
	O345	O	1.182446	1.179426	0.183677
	H346	H	1.193613	1.133200	0.186162
	H347	H	1.205257	1.190496	0.182202
	O348	O	0.295415	0.398470	0.415728
	H349	H	0.320270	0.416962	0.421121
	H350	H	0.295824	0.407890	0.408030
	O351	O	0.502947	1.377632	1.703495
	H352	H	0.508795	1.373468	1.704749
	H353	H	0.509094	1.373016	1.695168
	O354	O	-0.018579	0.953148	-0.202263
	H355	H	-0.003072	0.961337	-0.185047
	H356	H	-0.011215	0.953464	-0.207654
	O357	O	0.189269	-0.088413	0.826115
	H358	H	0.182306	-0.085527	0.841016
	H359	H	0.202194	-0.103285	0.839033
	O360	O	0.314118	0.307476	0.685706
	H361	H	0.325966	0.310444	0.670696
	H362	H	0.329613	0.302719	0.689485
	O363	O	-0.062784	0.041527	1.115652
	H364	H	-0.058850	0.061716	1.109737
	H365	H	-0.074839	0.059333	1.113752
	O366	O	0.610303	0.650477	0.633190
	H367	H	0.575547	0.654458	0.633412
	H368	H	0.621293	0.665409	0.649106
	O369	O	0.795171	0.773742	-0.237077
	H370	H	0.801876	0.786773	-0.238530
	H371	H	0.807402	0.781236	-0.227579
	O372	O	1.144332	0.153736	0.958888
	H373	H	1.166226	0.169787	0.956115
	H374	H	1.112467	0.163880	0.966546
	O375	O	0.213281	1.154242	1.008779
	H376	H	0.215530	1.175022	1.036500
	H377	H	0.218334	1.165387	1.005133
	O378	O	1.150592	0.857560	1.103195
	H379	H	1.130357	0.850856	1.113400
	H380	H	1.156189	0.859482	1.095105
	O381	O	0.563606	0.391539	0.430777
	H382	H	0.594532	0.392335	0.423704
	H383	H	0.567423	0.405396	0.428229
	O384	O	-0.085694	0.806585	1.163627
	H385	H	-0.092642	0.811249	1.165688
	H386	H	-0.100672	0.805926	1.157123
	O387	O	0.202537	0.015972	1.204636
	H388	H	0.209243	-0.009265	1.207068
	H389	H	0.198278	-0.000193	1.219221
	O390	O	-0.083481	-0.014470	0.014239
	H391	H	-0.083516	-0.016259	0.006396
	H392	H	-0.080947	0.005138	0.015921
	O393	O	1.007377	1.169955	0.817975
	H394	H	1.006099	1.170269	0.819390
	H395	H	1.024577	1.165460	0.816018
	O396	O	0.713120	0.464298	0.288517
	H397	H	0.701705	0.455417	0.310138
	H398	H	0.746504	0.454352	0.259625
	O399	O	0.464338	0.271657	0.468751
	H400	H	0.472688	0.266828	0.451461
	H401	H	0.470985	0.274044	0.472170
	O402	O	0.816098	0.808773	1.070828
	H403	H	0.818921	0.828802	1.072240
	H404	H	0.795453	0.806494	1.082942
	O405	O	0.557559	0.687088	-0.496676
	H406	H	0.565314	0.698512	-0.479289
	H407	H	0.562904	0.691986	-0.478798
	O408	O	0.792607	-0.013774	-0.131496
	H409	H	0.798028	-0.011040	-0.123596
	H410	H	0.777397	-0.029856	-0.129550
	O411	O	0.919486	1.091458	0.198603
	H412	H	0.944323	1.077774	0.190366
	H413	H	0.925578	1.111646	0.210523
	O414	O	0.548606	0.512332	0.360653
	H415	H	0.553350	0.510920	0.352630
	H416	H	0.546283	0.501379	0.354797
	O417	O	0.806100	1.160229	-0.191546
	H418	H	0.839701	1.166946	-0.206692
	H419	H	0.795884	1.129379	-0.203178
	O420	O	0.024187	-0.107127	0.182931
	H421	H	0.005346	-0.098500	0.186749
	H422	H	0.005421	-0.113387	0.178123
	O423	O	0.359170	0.537351	0.694828
	H424	H	0.348081	0.518509	0.683216
	H425	H	0.345392	0.524797	0.715013
	O426	O	0.606968	0.608742	0.664419
	H427	H	0.613018	0.633803	0.667531
	H428	H	0.616515	0.617488	0.677844
	O429	O	0.471284	0.658764	0.493195
	H430	H	0.482761	0.637326	0.491602
	H431	H	0.478061	0.666021	0.491992
	O432	O	0.649777	0.587669	0.584063
	H433	H	0.644126	0.601807	0.594583
	H434	H	0.659635	0.588058	0.582260
	O435	O	0.285208	0.278693	0.523570
	H436	H	0.299941	0.277149	0.530492
	H437	H	0.255983	0.263532	0.522192
	O438	O	0.119871	0.077822	-0.092386
	H439	H	0.124857	0.084895	-0.090264
	H440	H	0.120350	0.081740	-0.082569
	O441	O	1.022735	0.067097	0.111057
	H442	H	1.049078	0.068816	0.112813
	H443	H	1.027939	0.083725	0.131933
	O444	O	0.781127	0.207487	0.956689
	H445	H	0.771054	0.212174	0.928807
	H446	H	0.764600	0.221344	0.929932
	O447	O	0.338004	0.506955	0.291328
	H448	H	0.323442	0.508327	0.287670
	H449	H	0.332991	0.508579	0.289720
	O450	O	0.543272	0.283178	0.668232
	H451	H	0.537201	0.276219	0.665847
	H452	H	0.541005	0.289320	0.653725
	O453	O	0.310768	0.619844	0.335376
	H454	H	0.301666	0.633681	0.351684
	H455	H	0.320728	0.627716	0.322951
