data_Molecule from HDF5

_cell_length_a		16.378483
_cell_length_b		16.488538
_cell_length_c		16.191460
_cell_angle_alpha	90.136293
_cell_angle_beta	89.919412
_cell_angle_gamma	90.328237
_symmetry_space_group_name_H-M	'P 1'
_symmetry_Int_Tables_number		1

loop_
	_symmetry_equiv_pos_as_xyz
	x,y,z

loop_
	_atom_site_label
	_atom_site_type_symbol
	_atom_site_fract_x
	_atom_site_fract_y
	_atom_site_fract_z
	H0	H	0.390688	0.841726	0.709423
	H1	H	0.599054	0.160851	0.709758
	H2	H	0.599691	0.842779	0.268540
	H3	H	0.398396	0.162750	0.274162
	H4	H	0.713660	0.396334	0.827953
	H5	H	0.712332	0.601801	0.152009
	H6	H	0.277462	0.601628	0.828575
	H7	H	0.277762	0.398541	0.152854
	H8	H	0.837499	0.723048	0.381163
	H9	H	0.156533	0.721877	0.593138
	H10	H	0.838421	0.277801	0.595008
	H11	H	0.157639	0.283726	0.384781
	H12	H	0.834474	0.398783	0.706093
	H13	H	0.156639	0.603939	0.708175
	H14	H	0.833634	0.597834	0.275324
	H15	H	0.159118	0.404965	0.273467
	H16	H	0.385398	0.722268	0.831687
	H17	H	0.600859	0.720283	0.150885
	H18	H	0.595500	0.283121	0.827475
	H19	H	0.392087	0.282665	0.152630
	H20	H	0.719940	0.844339	0.379919
	H21	H	0.718031	0.160391	0.594458
	H22	H	0.271883	0.843973	0.595684
	H23	H	0.279986	0.162365	0.388169
	H24	H	0.894513	0.340168	0.207246
	H25	H	0.097035	0.661095	0.206289
	H26	H	0.096390	0.341718	0.769044
	H27	H	0.891291	0.660547	0.770865
	H28	H	0.213771	0.902171	0.328003
	H29	H	0.215313	0.107579	0.652609
	H30	H	0.778356	0.105007	0.327555
	H31	H	0.774367	0.894807	0.648498
	H32	H	0.335623	0.218294	0.886074
	H33	H	0.654469	0.223364	0.096408
	H34	H	0.336581	0.777532	0.097624
	H35	H	0.653306	0.776679	0.882369
	H36	H	0.335217	0.898903	0.209344
	H37	H	0.658304	0.101651	0.205614
	H38	H	0.335050	0.100612	0.772867
	H39	H	0.655568	0.896446	0.768924
	H40	H	0.893818	0.220158	0.328868
	H41	H	0.104113	0.224481	0.650127
	H42	H	0.101957	0.782792	0.328814
	H43	H	0.887751	0.779083	0.648185
	H44	H	0.214979	0.342066	0.883319
	H45	H	0.219340	0.657502	0.096226
	H46	H	0.773594	0.341162	0.095377
	H47	H	0.772141	0.657576	0.883705
	H48	H	0.409312	0.110769	0.571618
	H49	H	0.583699	0.889202	0.578562
	H50	H	0.596307	0.115236	0.407277
	H51	H	0.404079	0.888459	0.401766
	H52	H	0.583214	0.408272	0.105884
	H53	H	0.580198	0.586789	0.876269
	H54	H	0.407009	0.591768	0.106948
	H55	H	0.401254	0.394055	0.869095
	H56	H	0.111101	0.584674	0.392060
	H57	H	0.881213	0.595671	0.577474
	H58	H	0.114498	0.416368	0.595220
	H59	H	0.882739	0.403822	0.404824
	H60	H	0.113083	0.397687	0.569928
	H61	H	0.883383	0.590355	0.577020
	H62	H	0.115162	0.604258	0.395191
	H63	H	0.885292	0.414267	0.401725
	H64	H	0.404131	0.584968	0.104753
	H65	H	0.582521	0.590753	0.874703
	H66	H	0.587032	0.410639	0.106402
	H67	H	0.394370	0.417788	0.873844
	H68	H	0.589986	0.118177	0.391299
	H69	H	0.585957	0.889308	0.574952
	H70	H	0.395758	0.119407	0.583047
	H71	H	0.403735	0.888195	0.400785
	H72	H	0.908425	0.614711	0.085377
	H73	H	0.091675	0.385793	0.074179
	H74	H	0.082900	0.609737	0.912118
	H75	H	0.907586	0.389629	0.902592
	H76	H	0.077091	0.912587	0.603390
	H77	H	0.086170	0.091850	0.376219
	H78	H	0.906575	0.087280	0.604616
	H79	H	0.907216	0.910846	0.372251
	H80	H	0.611669	0.093352	0.898379
	H81	H	0.382167	0.089561	0.080242
	H82	H	0.611469	0.905895	0.082413
	H83	H	0.386383	0.912264	0.911891
	H84	H	0.607954	0.907261	0.072650
	H85	H	0.378984	0.091744	0.085732
	H86	H	0.609738	0.095020	0.904076
	H87	H	0.382065	0.916469	0.895861
	H88	H	0.912394	0.088376	0.602676
	H89	H	0.088279	0.096235	0.373137
	H90	H	0.086888	0.907155	0.607999
	H91	H	0.907347	0.914916	0.374894
	H92	H	0.097520	0.617036	0.900118
	H93	H	0.087994	0.383284	0.088638
	H94	H	0.902245	0.612490	0.073999
	H95	H	0.899933	0.386847	0.902492
	H96	H	0.413301	0.115091	0.590690
	H97	H	0.587053	0.888319	0.578993
	H98	H	0.579947	0.110346	0.403755
	H99	H	0.404619	0.888185	0.400595
	H100	H	0.583394	0.412594	0.104466
	H101	H	0.584590	0.587027	0.875533
	H102	H	0.411323	0.586724	0.103865
	H103	H	0.417547	0.410581	0.879267
	H104	H	0.106403	0.593802	0.410820
	H105	H	0.881307	0.592021	0.581740
	H106	H	0.101928	0.426269	0.568498
	H107	H	0.879885	0.407854	0.394903
	H108	H	0.896065	0.616476	0.084620
	H109	H	0.077969	0.389007	0.079791
	H110	H	0.079012	0.613944	0.893521
	H111	H	0.904505	0.386993	0.895117
	H112	H	0.087057	0.918596	0.604387
	H113	H	0.091224	0.092035	0.373582
	H114	H	0.909031	0.092814	0.604982
	H115	H	0.910993	0.911879	0.373894
	H116	H	0.609039	0.089332	0.902035
	H117	H	0.380222	0.096163	0.081172
	H118	H	0.607924	0.914892	0.079242
	H119	H	0.379333	0.900641	0.901943
	C120	C	0.373205	0.010240	0.612941
	C121	C	0.617819	0.993748	0.610596
	C122	C	0.619650	0.009952	0.367650
	C123	C	0.375444	0.994102	0.369958
	C124	C	0.615471	0.379252	-0.001506
	C125	C	0.614593	0.619788	0.981929
	C126	C	0.374940	0.619463	-0.001140
	C127	C	0.373031	0.377135	0.981280
	C128	C	0.004700	0.623483	0.367759
	C129	C	0.987509	0.624242	0.610891
	C130	C	0.004497	0.380523	0.610020
	C131	C	0.988917	0.380041	0.368697
	C132	C	0.872174	0.508768	0.112076
	C133	C	0.117300	0.491623	0.111538
	C134	C	0.116785	0.508778	0.868738
	C135	C	0.872600	0.492607	0.868570
	C136	C	0.116299	0.882159	0.498379
	C137	C	0.119580	0.124857	0.481070
	C138	C	0.877756	0.121119	0.497654
	C139	C	0.874721	0.879578	0.479454
	C140	C	0.504069	0.121373	0.869892
	C141	C	0.487119	0.122984	0.112404
	C142	C	0.504082	0.878189	0.111952
	C143	C	0.487228	0.877714	0.869292
	C144	C	0.372027	0.889688	0.670280
	C145	C	0.618123	0.113055	0.670139
	C146	C	0.619530	0.890577	0.307583
	C147	C	0.377928	0.114660	0.312604
	C148	C	0.674013	0.378048	0.876371
	C149	C	0.673389	0.620976	0.103366
	C150	C	0.315873	0.620892	0.877376
	C151	C	0.315831	0.378420	0.103764
	C152	C	0.884637	0.681755	0.364997
	C153	C	0.108171	0.682836	0.612266
	C154	C	0.885335	0.319177	0.612693
	C155	C	0.109699	0.323189	0.366634
	C156	C	0.883410	0.379334	0.668035
	C157	C	0.108353	0.624091	0.669527
	C158	C	0.882729	0.619959	0.311741
	C159	C	0.110291	0.383357	0.311116
	C160	C	0.369883	0.680910	0.879005
	C161	C	0.617671	0.679931	0.102826
	C162	C	0.615429	0.321616	0.876143
	C163	C	0.372950	0.320900	0.103830
	C164	C	0.679043	0.891252	0.363507
	C165	C	0.677516	0.112936	0.612811
	C166	C	0.312379	0.891234	0.614230
	C167	C	0.318864	0.114455	0.369328
	C168	C	0.873890	0.388231	0.169097
	C169	C	0.117557	0.612537	0.168871
	C170	C	0.116312	0.389408	0.808615
	C171	C	0.872331	0.612212	0.809871
	C172	C	0.175272	0.882300	0.376656
	C173	C	0.176926	0.125999	0.603558
	C174	C	0.817860	0.123385	0.376282
	C175	C	0.813726	0.876734	0.600224
	C176	C	0.383432	0.178888	0.868193
	C177	C	0.607222	0.182637	0.113986
	C178	C	0.384307	0.817928	0.115533
	C179	C	0.606231	0.817375	0.864991
	C180	C	0.383563	0.878239	0.171166
	C181	C	0.609332	0.121887	0.168357
	C182	C	0.383331	0.120442	0.811393
	C183	C	0.607148	0.877114	0.808634
	C184	C	0.875393	0.180669	0.376762
	C185	C	0.121385	0.184197	0.602390
	C186	C	0.119167	0.823380	0.376787
	C187	C	0.870496	0.819109	0.600015
	C188	C	0.175340	0.389525	0.865530
	C189	C	0.178055	0.610799	0.113803
	C190	C	0.813628	0.388856	0.113501
	C191	C	0.812850	0.611067	0.866078
	C192	C	0.398748	0.093610	0.588778
	C193	C	0.592973	0.910563	0.584896
	C194	C	0.595748	0.092953	0.393346
	C195	C	0.397646	0.910227	0.394188
	C196	C	0.591556	0.403327	0.083525
	C197	C	0.589669	0.595168	0.897313
	C198	C	0.400209	0.594702	0.083268
	C199	C	0.397235	0.400572	0.896077
	C200	C	0.088906	0.600738	0.392268
	C201	C	0.903729	0.599813	0.585967
	C202	C	0.088011	0.406004	0.585045
	C203	C	0.904498	0.401985	0.393349
	C204	C	0.895313	0.592588	0.088251
	C205	C	0.092864	0.407950	0.087767
	C206	C	0.093204	0.592064	0.894445
	C207	C	0.896958	0.409444	0.893022
	C208	C	0.090794	0.905859	0.583219
	C209	C	0.095456	0.100489	0.396397
	C210	C	0.902404	0.096622	0.581762
	C211	C	0.900864	0.905160	0.395635
	C212	C	0.588195	0.098889	0.894342
	C213	C	0.402562	0.099357	0.089092
	C214	C	0.587459	0.902430	0.085697
	C215	C	0.404180	0.902563	0.895626
	Zn216	Zn	0.495497	0.000235	0.741015
	Zn217	Zn	0.496391	0.001622	0.240300
	Zn218	Zn	0.743546	0.499970	-0.010378
	Zn219	Zn	0.246356	0.499838	-0.009850
	Zn220	Zn	-0.003729	0.752908	0.488453
	Zn221	Zn	-0.002009	0.250546	0.489503
	Zn222	Zn	-0.004876	0.501679	0.739566
	Zn223	Zn	-0.004366	0.501477	0.239977
	Zn224	Zn	0.494565	0.748331	-0.009638
	Zn225	Zn	0.495176	0.250749	-0.009530
	Zn226	Zn	0.748791	0.001675	0.489268
	Zn227	Zn	0.244762	0.003211	0.490720
	N228	N	0.409128	0.964632	0.669544
	N229	N	0.581827	0.037716	0.668960
	N230	N	0.583219	0.965356	0.310065
	N231	N	0.412382	0.038776	0.312915
	N232	N	0.674216	0.412974	0.953518
	N233	N	0.671758	0.584547	0.027032
	N234	N	0.318936	0.583274	0.952969
	N235	N	0.315644	0.412525	0.026455
	N236	N	0.961517	0.684120	0.399070
	N237	N	0.031869	0.683200	0.576804
	N238	N	0.961720	0.319664	0.577527
	N239	N	0.033140	0.320916	0.401642
	N240	N	0.958520	0.416796	0.666556
	N241	N	0.032227	0.588584	0.669157
	N242	N	0.958460	0.584464	0.313345
	N243	N	0.034159	0.417802	0.312206
	N244	N	0.405885	0.680243	0.955592
	N245	N	0.581876	0.679453	0.026079
	N246	N	0.579768	0.322335	0.953086
	N247	N	0.407584	0.319925	0.026487
	N248	N	0.679212	0.966332	0.400367
	N249	N	0.677486	0.037516	0.576663
	N250	N	0.313004	0.967172	0.579404
	N251	N	0.316907	0.038506	0.404118
	N252	N	0.909453	0.463950	0.168607
	N253	N	0.080335	0.537607	0.167477
	N254	N	0.080643	0.464581	0.810580
	N255	N	0.908633	0.537280	0.810918
	N256	N	0.173580	0.918174	0.453337
	N257	N	0.175822	0.089611	0.527211
	N258	N	0.819330	0.086953	0.452439
	N259	N	0.816131	0.913556	0.524153
	N260	N	0.459486	0.179694	0.903834
	N261	N	0.530238	0.183473	0.080204
	N262	N	0.460332	0.817568	0.079549
	N263	N	0.530692	0.817602	0.901908
	N264	N	0.459076	0.914883	0.169307
	N265	N	0.533632	0.085449	0.167511
	N266	N	0.459163	0.085209	0.812587
	N267	N	0.532215	0.913991	0.811274
	N268	N	0.912185	0.179423	0.452964
	N269	N	0.086453	0.183757	0.525262
	N270	N	0.083580	0.823024	0.453607
	N271	N	0.907423	0.820586	0.523941
	N272	N	0.176045	0.464942	0.901965
	N273	N	0.178141	0.534694	0.079168
	N274	N	0.812394	0.464778	0.078747
	N275	N	0.812951	0.535670	0.901681
	O276	O	0.401549	0.602935	0.606810
	H277	H	0.416791	0.587394	0.592789
	H278	H	0.401792	0.619447	0.613093
	O279	O	0.662511	0.407080	0.442392
	H280	H	0.662780	0.400630	0.437579
	H281	H	0.669782	0.418244	0.440234
	O282	O	0.520141	0.391478	0.439695
	H283	H	0.508894	0.388713	0.445938
	H284	H	0.504591	0.406309	0.438267
	O285	O	0.438074	-0.611559	-0.639670
	H286	H	0.447982	-0.597333	-0.634767
	H287	H	0.429627	-0.616039	-0.647038
	O288	O	0.479182	-0.357550	0.435886
	H289	H	0.473230	-0.355034	0.441015
	H290	H	0.470895	-0.360107	0.443093
	O291	O	0.614747	0.686883	0.677594
	H292	H	0.616871	0.678661	0.670010
	H293	H	0.611946	0.673439	0.659355
	O294	O	0.572672	0.490677	0.358513
	H295	H	0.576315	0.491401	0.371558
	H296	H	0.567328	0.491245	0.364780
	O297	O	0.853367	1.212013	0.879306
	H298	H	0.851682	1.215362	0.881977
	H299	H	0.843055	1.231250	0.870901
	O300	O	-0.575491	0.562458	0.469878
	H301	H	-0.581508	0.567467	0.476795
	H302	H	-0.580175	0.561203	0.461768
	O303	O	0.911055	0.848546	0.841472
	H304	H	0.902382	0.855643	0.838090
	H305	H	0.921066	0.833397	0.833434
	O306	O	0.795586	-0.015771	0.171714
	H307	H	0.813085	-0.009420	0.156479
	H308	H	0.766751	-0.020329	0.192398
	O309	O	1.042711	0.784106	-0.201647
	H310	H	1.066025	0.782586	-0.213840
	H311	H	1.058016	0.768016	-0.219822
	O312	O	0.600154	0.623287	-0.360982
	H313	H	0.571074	0.624265	-0.351240
	H314	H	0.606834	0.618173	-0.374488
	O315	O	0.532060	0.469183	0.494847
	H316	H	0.528032	0.475330	0.506475
	H317	H	0.546686	0.472860	0.496392
	O318	O	0.437402	0.381695	0.582209
	H319	H	0.464898	0.375860	0.576210
	H320	H	0.428554	0.387112	0.582673
	O321	O	1.194781	0.001262	1.058376
	H322	H	1.201982	0.008176	1.038161
	H323	H	1.185778	0.000349	1.045271
	O324	O	0.063394	-0.151658	1.053113
	H325	H	0.062158	-0.144780	1.061516
	H326	H	0.047478	-0.158455	1.057382
	O327	O	0.538972	0.582292	0.305433
	H328	H	0.547384	0.578846	0.307682
	H329	H	0.541368	0.595223	0.296351
	O330	O	0.576935	0.304520	0.512381
	H331	H	0.572129	0.296658	0.492040
	H332	H	0.580552	0.307263	0.495953
	O333	O	0.789058	0.797685	1.008245
	H334	H	0.789574	0.783807	1.003033
	H335	H	0.791391	0.804172	1.013514
	O336	O	0.243336	0.893174	0.801952
	H337	H	0.254072	0.898419	0.787820
	H338	H	0.224278	0.901620	0.791316
	O339	O	1.388280	-0.416485	1.456112
	H340	H	1.392905	-0.440205	1.460437
	H341	H	1.384106	-0.411733	1.468313
	O342	O	0.143548	1.190396	0.989902
	H343	H	0.149932	1.181058	0.988361
	H344	H	0.168546	1.190762	0.991535
	O345	O	0.050405	1.097687	1.124370
	H346	H	0.045416	1.098752	1.133893
	H347	H	0.052148	1.091375	1.100560
	O348	O	1.141807	0.818166	0.813451
	H349	H	1.144172	0.838066	0.811632
	H350	H	1.144269	0.831343	0.835945
	O351	O	0.048178	-0.009995	0.179547
	H352	H	0.034821	-0.010619	0.190782
	H353	H	0.059893	-0.012988	0.167293
	O354	O	1.086470	1.128205	0.131329
	H355	H	1.081610	1.127533	0.145528
	H356	H	1.100116	1.158181	0.144668
	O357	O	0.100492	1.076406	0.021833
	H358	H	0.105831	1.079073	0.032907
	H359	H	0.105947	1.080794	0.008923
	O360	O	0.632165	0.627009	0.435101
	H361	H	0.630454	0.628493	0.429712
	H362	H	0.638628	0.647059	0.430593
	O363	O	0.486335	0.683749	0.337010
	H364	H	0.483762	0.677375	0.330505
	H365	H	0.478130	0.695116	0.328766
	O366	O	0.927814	0.857674	1.036105
	H367	H	0.909265	0.844889	1.039903
	H368	H	0.921703	0.859087	1.040442
	O369	O	0.112572	-0.006812	0.908884
	H370	H	0.110774	0.005440	0.897150
	H371	H	0.096695	-0.003160	0.899393
	O372	O	0.128053	1.140655	0.126542
	H373	H	0.133730	1.128956	0.121686
	H374	H	0.122387	1.123819	0.130412
	O375	O	0.383218	0.641630	0.512440
	H376	H	0.386764	0.660859	0.527137
	H377	H	0.400282	0.634531	0.521703
	O378	O	0.613959	0.411817	0.449433
	H379	H	0.613870	0.408669	0.453474
	H380	H	0.606576	0.422338	0.444339
	O381	O	0.634080	0.400823	0.650343
	H382	H	0.645379	0.393716	0.639004
	H383	H	0.613775	0.385536	0.658303
	O384	O	-0.188364	0.812824	1.175889
	H385	H	-0.185692	0.832428	1.169478
	H386	H	-0.174880	0.818564	1.157677
	O387	O	0.904615	1.061314	-0.092488
	H388	H	0.892695	1.061849	-0.086052
	H389	H	0.902578	1.049453	-0.074190
	O390	O	1.071888	-0.857450	0.856550
	H391	H	1.060104	-0.866497	0.840466
	H392	H	1.069641	-0.853833	0.861192
	O393	O	1.443423	0.388168	1.476740
	H394	H	1.466171	0.388708	1.477674
	H395	H	1.443446	0.396054	1.458993
	O396	O	0.067665	1.036745	0.944524
	H397	H	0.066400	1.037195	0.948155
	H398	H	0.086939	1.033642	0.941446
	O399	O	0.608084	0.579602	0.467724
	H400	H	0.607250	0.588390	0.469961
	H401	H	0.604137	0.593735	0.449186
	O402	O	0.807665	0.040929	1.020343
	H403	H	0.808959	0.039152	1.019225
	H404	H	0.812878	0.061444	1.009450
	O405	O	0.006797	0.168944	0.027428
	H406	H	0.013452	0.172006	0.046448
	H407	H	0.027341	0.160205	0.015004
	O408	O	0.806280	1.120253	0.796502
	H409	H	0.791321	1.130989	0.794273
	H410	H	0.820205	1.130827	0.806637
	O411	O	1.048635	0.887945	0.018207
	H412	H	1.031756	0.887632	0.008512
	H413	H	1.047784	0.873882	0.023598
	O414	O	-0.041513	-0.074783	1.165442
	H415	H	-0.053512	-0.082520	1.159040
	H416	H	-0.030469	-0.059434	1.165746
	O417	O	0.297970	0.445391	0.458924
	H418	H	0.289746	0.443114	0.468822
	H419	H	0.299331	0.452861	0.461507
	O420	O	-0.129856	0.920271	-0.105434
	H421	H	-0.139160	0.920508	-0.116113
	H422	H	-0.131756	0.905251	-0.100896
	O423	O	0.907377	0.074506	-0.210289
	H424	H	0.899119	0.073227	-0.206376
	H425	H	0.889363	0.091894	-0.214401
	O426	O	-0.581299	-0.513388	0.647747
	H427	H	-0.577453	-0.502909	0.654285
	H428	H	-0.578462	-0.502861	0.642069
	O429	O	0.395693	0.607064	0.525442
	H430	H	0.407104	0.611626	0.517184
	H431	H	0.402217	0.604896	0.522178
