data_Molecule from HDF5

_cell_length_a		16.285483
_cell_length_b		16.327410
_cell_length_c		16.502711
_cell_angle_alpha	90.118278
_cell_angle_beta	90.151658
_cell_angle_gamma	89.962282
_symmetry_space_group_name_H-M	'P 1'
_symmetry_Int_Tables_number		1

loop_
	_symmetry_equiv_pos_as_xyz
	x,y,z

loop_
	_atom_site_label
	_atom_site_type_symbol
	_atom_site_fract_x
	_atom_site_fract_y
	_atom_site_fract_z
	H0	H	0.393215	0.828542	0.705457
	H1	H	0.604205	0.148262	0.707958
	H2	H	0.605977	0.830121	0.264111
	H3	H	0.390953	0.147144	0.263727
	H4	H	0.718547	0.385071	0.827169
	H5	H	0.719138	0.591656	0.146147
	H6	H	0.280967	0.590368	0.826992
	H7	H	0.280426	0.384476	0.145907
	H8	H	0.837409	0.707034	0.385449
	H9	H	0.158856	0.708415	0.590358
	H10	H	0.835377	0.274630	0.585562
	H11	H	0.159691	0.268813	0.384399
	H12	H	0.837369	0.387693	0.704558
	H13	H	0.159802	0.594207	0.706178
	H14	H	0.840914	0.596581	0.264519
	H15	H	0.159638	0.381901	0.266013
	H16	H	0.396177	0.706672	0.827162
	H17	H	0.607208	0.712000	0.143726
	H18	H	0.600019	0.270433	0.826414
	H19	H	0.396614	0.267476	0.145353
	H20	H	0.718115	0.828642	0.383769
	H21	H	0.714211	0.150876	0.587827
	H22	H	0.281132	0.827586	0.586757
	H23	H	0.277984	0.148223	0.381816
	H24	H	0.890900	0.331397	0.212572
	H25	H	0.110675	0.647254	0.212057
	H26	H	0.104921	0.330689	0.765075
	H27	H	0.892053	0.649224	0.766877
	H28	H	0.221756	0.878965	0.330247
	H29	H	0.218655	0.092155	0.644530
	H30	H	0.775242	0.093743	0.327933
	H31	H	0.778350	0.885823	0.645971
	H32	H	0.339411	0.209319	0.879193
	H33	H	0.660116	0.206768	0.090767
	H34	H	0.339592	0.766835	0.088635
	H35	H	0.659770	0.766895	0.879748
	H36	H	0.340716	0.878005	0.209002
	H37	H	0.657549	0.095658	0.210450
	H38	H	0.340078	0.094885	0.763490
	H39	H	0.658848	0.881099	0.764117
	H40	H	0.889504	0.212553	0.328328
	H41	H	0.102575	0.209552	0.645010
	H42	H	0.106169	0.763204	0.331265
	H43	H	0.894321	0.770343	0.646603
	H44	H	0.216850	0.328575	0.884190
	H45	H	0.221203	0.649150	0.090560
	H46	H	0.778789	0.328898	0.093258
	H47	H	0.778460	0.648405	0.884348
	H48	H	0.407048	0.102589	0.573492
	H49	H	0.592315	0.874781	0.571215
	H50	H	0.576858	0.100521	0.394688
	H51	H	0.411490	0.875623	0.400089
	H52	H	0.593448	0.395218	0.101701
	H53	H	0.590732	0.580295	0.872369
	H54	H	0.415767	0.582090	0.099509
	H55	H	0.411801	0.395800	0.873966
	H56	H	0.111577	0.575316	0.401550
	H57	H	0.884276	0.577100	0.576101
	H58	H	0.114223	0.403576	0.582618
	H59	H	0.884113	0.399779	0.397611
	H60	H	0.115733	0.394075	0.580203
	H61	H	0.882993	0.578137	0.582010
	H62	H	0.113655	0.575529	0.399416
	H63	H	0.887654	0.403389	0.401397
	H64	H	0.405939	0.578283	0.101568
	H65	H	0.591838	0.572919	0.873994
	H66	H	0.590710	0.401882	0.098916
	H67	H	0.406398	0.394906	0.871997
	H68	H	0.586282	0.100239	0.405549
	H69	H	0.590856	0.871313	0.582238
	H70	H	0.408539	0.104369	0.580394
	H71	H	0.407346	0.872957	0.396425
	H72	H	0.917810	0.599164	0.073832
	H73	H	0.087708	0.375140	0.080677
	H74	H	0.087534	0.602534	0.900796
	H75	H	0.915830	0.376351	0.895135
	H76	H	0.085367	0.899959	0.598446
	H77	H	0.085543	0.078141	0.373659
	H78	H	0.906634	0.080815	0.599220
	H79	H	0.904516	0.905714	0.374942
	H80	H	0.614155	0.082428	0.900059
	H81	H	0.383198	0.081091	0.076827
	H82	H	0.609561	0.906687	0.073731
	H83	H	0.384477	0.891622	0.899422
	H84	H	0.615181	0.900706	0.080616
	H85	H	0.387515	0.074942	0.068636
	H86	H	0.610286	0.069456	0.898429
	H87	H	0.387728	0.905089	0.898197
	H88	H	0.908040	0.082163	0.599798
	H89	H	0.085380	0.078421	0.373370
	H90	H	0.090292	0.898198	0.602054
	H91	H	0.915734	0.898479	0.376803
	H92	H	0.095546	0.606231	0.896090
	H93	H	0.084270	0.377174	0.074987
	H94	H	0.907825	0.601350	0.072332
	H95	H	0.909232	0.375749	0.900473
	H96	H	0.414505	0.102154	0.575997
	H97	H	0.581651	0.876425	0.575790
	H98	H	0.590282	0.105476	0.392836
	H99	H	0.412702	0.875536	0.393596
	H100	H	0.585637	0.395696	0.099308
	H101	H	0.585112	0.576876	0.874997
	H102	H	0.413906	0.572636	0.096780
	H103	H	0.407806	0.399994	0.874264
	H104	H	0.113237	0.578217	0.401226
	H105	H	0.881732	0.582657	0.578107
	H106	H	0.112206	0.400064	0.573538
	H107	H	0.886342	0.405944	0.395825
	H108	H	0.911855	0.603359	0.081632
	H109	H	0.090506	0.375444	0.074903
	H110	H	0.086442	0.605356	0.890728
	H111	H	0.908583	0.372706	0.892512
	H112	H	0.090117	0.903577	0.598781
	H113	H	0.086049	0.078170	0.373749
	H114	H	0.906262	0.082180	0.600397
	H115	H	0.904601	0.892308	0.371670
	H116	H	0.616582	0.076203	0.888106
	H117	H	0.385507	0.069810	0.078581
	H118	H	0.613176	0.897084	0.070591
	H119	H	0.382113	0.898104	0.887793
	C120	C	0.378487	-0.003041	0.606810
	C121	C	0.619758	0.980124	0.608199
	C122	C	0.618325	-0.003048	0.365736
	C123	C	0.376586	0.979425	0.363938
	C124	C	0.621326	0.366014	-0.004929
	C125	C	0.621923	0.609920	0.978344
	C126	C	0.379586	0.609100	-0.005590
	C127	C	0.377534	0.365352	0.977960
	C128	C	0.007675	0.609791	0.367594
	C129	C	0.989473	0.611148	0.609480
	C130	C	0.007136	0.368506	0.608592
	C131	C	0.991382	0.369120	0.365976
	C132	C	0.879085	0.496761	0.108946
	C133	C	0.121606	0.480848	0.109346
	C134	C	0.120686	0.498483	0.864804
	C135	C	0.878646	0.480709	0.865804
	C136	C	0.120840	0.866655	0.495792
	C137	C	0.118977	0.110304	0.477810
	C138	C	0.874998	0.112587	0.494961
	C139	C	0.876749	0.867787	0.479353
	C140	C	0.508019	0.108772	0.863952
	C141	C	0.490682	0.108554	0.107433
	C142	C	0.507555	0.867389	0.106888
	C143	C	0.490734	0.865978	0.863312
	C144	C	0.375728	0.876360	0.665641
	C145	C	0.621546	0.100566	0.667462
	C146	C	0.623017	0.877322	0.304895
	C147	C	0.373290	0.099240	0.303798
	C148	C	0.679306	0.365926	0.875004
	C149	C	0.680537	0.611150	0.098022
	C150	C	0.320121	0.609524	0.874752
	C151	C	0.319208	0.365185	0.097960
	C152	C	0.886271	0.668543	0.366005
	C153	C	0.110784	0.669527	0.609529
	C154	C	0.884596	0.312516	0.606172
	C155	C	0.111668	0.308487	0.365153
	C156	C	0.885563	0.368415	0.665582
	C157	C	0.111101	0.612648	0.667314
	C158	C	0.887949	0.613610	0.305880
	C159	C	0.111597	0.364871	0.306290
	C160	C	0.377510	0.667564	0.874784
	C161	C	0.624471	0.670848	0.096789
	C162	C	0.620371	0.308694	0.874780
	C163	C	0.377007	0.306814	0.097654
	C164	C	0.678651	0.876637	0.364672
	C165	C	0.676496	0.102005	0.607800
	C166	C	0.319852	0.875826	0.606579
	C167	C	0.316492	0.099769	0.362334
	C168	C	0.874293	0.378444	0.171213
	C169	C	0.126869	0.599939	0.170760
	C170	C	0.122853	0.378381	0.805147
	C171	C	0.874882	0.601085	0.806750
	C172	C	0.181629	0.861905	0.377628
	C173	C	0.179275	0.111695	0.596943
	C174	C	0.814984	0.113377	0.375546
	C175	C	0.817757	0.867189	0.598491
	C176	C	0.387968	0.169609	0.861231
	C177	C	0.611404	0.167989	0.109644
	C178	C	0.387714	0.806355	0.108021
	C179	C	0.611301	0.806276	0.861347
	C180	C	0.388273	0.861836	0.167875
	C181	C	0.610259	0.112602	0.169174
	C182	C	0.387752	0.112340	0.803441
	C183	C	0.610740	0.863596	0.803725
	C184	C	0.872261	0.172172	0.375699
	C185	C	0.121232	0.169778	0.597191
	C186	C	0.123778	0.804137	0.378093
	C187	C	0.875599	0.809172	0.598568
	C188	C	0.178498	0.377153	0.864670
	C189	C	0.182423	0.600722	0.110733
	C190	C	0.818212	0.377087	0.111847
	C191	C	0.818241	0.600714	0.865214
	C192	C	0.402993	0.081118	0.583206
	C193	C	0.595271	0.896107	0.583547
	C194	C	0.592115	0.080398	0.390547
	C195	C	0.402946	0.896261	0.389108
	C196	C	0.597179	0.390530	0.078397
	C197	C	0.596574	0.584076	0.895362
	C198	C	0.404663	0.584774	0.077625
	C199	C	0.401732	0.389771	0.894919
	C200	C	0.091087	0.583848	0.393199
	C201	C	0.904913	0.586325	0.585703
	C202	C	0.092033	0.392380	0.585537
	C203	C	0.907893	0.395489	0.390842
	C204	C	0.904962	0.579587	0.083077
	C205	C	0.095012	0.397670	0.084113
	C206	C	0.096743	0.582570	0.888778
	C207	C	0.903914	0.396875	0.889482
	C208	C	0.095605	0.893056	0.578211
	C209	C	0.093192	0.085246	0.395106
	C210	C	0.899742	0.088622	0.578069
	C211	C	0.901196	0.892017	0.396056
	C212	C	0.591709	0.083307	0.888699
	C213	C	0.407174	0.082569	0.082015
	C214	C	0.590963	0.893867	0.081966
	C215	C	0.406711	0.891035	0.888031
	Zn216	Zn	0.498506	-0.012206	0.735691
	Zn217	Zn	0.498643	-0.012152	0.236018
	Zn218	Zn	0.750516	0.487902	-0.012614
	Zn219	Zn	0.249475	0.488838	-0.013128
	Zn220	Zn	-0.001922	0.738750	0.487963
	Zn221	Zn	-0.001985	0.240327	0.486474
	Zn222	Zn	-0.001201	0.490008	0.736910
	Zn223	Zn	0.000261	0.489928	0.237938
	Zn224	Zn	0.499958	0.738855	-0.014487
	Zn225	Zn	0.499344	0.236440	-0.013855
	Zn226	Zn	0.747313	-0.010543	0.486619
	Zn227	Zn	0.249332	-0.011263	0.486183
	N228	N	0.411202	0.952798	0.666216
	N229	N	0.587187	0.023550	0.668053
	N230	N	0.586014	0.952938	0.305728
	N231	N	0.409899	0.023370	0.304653
	N232	N	0.680131	0.400746	0.951021
	N233	N	0.678998	0.574098	0.023186
	N234	N	0.321253	0.574038	0.950312
	N235	N	0.318999	0.400529	0.022478
	N236	N	0.961681	0.666403	0.403533
	N237	N	0.034250	0.668728	0.574427
	N238	N	0.961500	0.311996	0.571823
	N239	N	0.035828	0.310757	0.401319
	N240	N	0.962774	0.402314	0.667295
	N241	N	0.034448	0.577424	0.667770
	N242	N	0.964656	0.578313	0.306447
	N243	N	0.035739	0.401708	0.306706
	N244	N	0.413772	0.667370	0.950112
	N245	N	0.588985	0.670522	0.021038
	N246	N	0.585302	0.308619	0.950358
	N247	N	0.412132	0.306628	0.022049
	N248	N	0.675722	0.952077	0.401814
	N249	N	0.675647	0.026077	0.571659
	N250	N	0.321553	0.951663	0.570606
	N251	N	0.318333	0.024240	0.398845
	N252	N	0.911620	0.453797	0.169512
	N253	N	0.089797	0.524332	0.169958
	N254	N	0.087688	0.454792	0.805055
	N255	N	0.911964	0.525396	0.807079
	N256	N	0.179860	0.900213	0.451702
	N257	N	0.178092	0.075419	0.521665
	N258	N	0.816656	0.077023	0.450539
	N259	N	0.818322	0.903140	0.523207
	N260	N	0.463599	0.167272	0.898465
	N261	N	0.536041	0.165657	0.071971
	N262	N	0.463169	0.809623	0.070744
	N263	N	0.535650	0.807728	0.898031
	N264	N	0.463803	0.899034	0.167324
	N265	N	0.534021	0.076350	0.168090
	N266	N	0.463278	0.074930	0.805041
	N267	N	0.534681	0.900080	0.804896
	N268	N	0.908848	0.171832	0.450750
	N269	N	0.084354	0.168962	0.522276
	N270	N	0.086790	0.806908	0.452674
	N271	N	0.911555	0.809570	0.523419
	N272	N	0.177262	0.452682	0.901466
	N273	N	0.179448	0.525512	0.073339
	N274	N	0.820805	0.451790	0.074033
	N275	N	0.820398	0.525006	0.901318
	O276	O	0.620017	0.418355	0.486984
	H277	H	0.619585	0.423497	0.491491
	H278	H	0.611831	0.423242	0.487005
	O279	O	0.449897	0.415690	0.490085
	H280	H	0.454839	0.424291	0.487970
	H281	H	0.447772	0.411319	0.488336
	O282	O	0.398670	0.512649	0.488544
	H283	H	0.406171	0.510690	0.487045
	H284	H	0.400967	0.521940	0.480550
	O285	O	0.886929	0.009859	0.035721
	H286	H	0.888163	0.003637	0.023759
	H287	H	0.896578	0.027422	0.023823
	O288	O	-0.207822	-0.006061	0.852960
	H289	H	-0.217094	-0.031204	0.854894
	H290	H	-0.213095	-0.008765	0.851808
	O291	O	0.462337	0.448572	0.406026
	H292	H	0.435448	0.448338	0.405841
	H293	H	0.472231	0.463946	0.407412
	O294	O	0.612842	0.631613	0.507908
	H295	H	0.612337	0.624837	0.493899
	H296	H	0.621001	0.638093	0.501858
	O297	O	1.181289	1.171489	1.167063
	H298	H	1.180922	1.129561	1.179039
	H299	H	1.139618	1.168248	1.176202
	O300	O	-0.498831	0.546207	0.470764
	H301	H	-0.508494	0.542150	0.484659
	H302	H	-0.494475	0.546433	0.458066
	O303	O	0.420365	0.384329	0.397425
	H304	H	0.403365	0.383931	0.393656
	H305	H	0.418054	0.375630	0.383478
	O306	O	0.783960	0.180289	-0.067344
	H307	H	0.754041	0.219490	-0.071174
	H308	H	0.790246	0.167737	-0.113975
	O309	O	0.506140	0.368573	0.497239
	H310	H	0.510578	0.363252	0.487517
	H311	H	0.507193	0.362087	0.499384
	O312	O	1.204683	0.813753	-0.068180
	H313	H	1.209086	0.837562	-0.066063
	H314	H	1.228974	0.801703	-0.062254
	O315	O	0.640441	0.487275	0.374168
	H316	H	0.629358	0.454800	0.376148
	H317	H	0.647325	0.486745	0.382426
	O318	O	0.508279	0.445420	0.606817
	H319	H	0.503885	0.440608	0.603471
	H320	H	0.485477	0.443592	0.615102
	O321	O	1.210805	0.010215	1.204832
	H322	H	1.208112	-0.008007	1.219706
	H323	H	1.212163	-0.000172	1.230419
	O324	O	-0.135126	-0.153780	1.027566
	H325	H	-0.131959	-0.140028	1.019274
	H326	H	-0.135687	-0.168392	1.025520
	O327	O	0.454301	0.508461	0.485857
	H328	H	0.442326	0.496969	0.505499
	H329	H	0.442004	0.519952	0.490227
	O330	O	0.604682	0.630095	0.433615
	H331	H	0.618022	0.632419	0.434856
	H332	H	0.601735	0.650601	0.420629
	O333	O	0.853647	1.014345	1.195043
	H334	H	0.851525	1.028691	1.198308
	H335	H	0.847642	1.027789	1.190702
	O336	O	0.384258	0.381455	0.659759
	H337	H	0.374636	0.390018	0.646292
	H338	H	0.366111	0.374804	0.671141
	O339	O	0.984569	0.191774	1.157174
	H340	H	0.977263	0.211241	1.172859
	H341	H	0.974176	0.191400	1.139149
	O342	O	-0.078750	1.170281	1.073068
	H343	H	-0.086487	1.176469	1.052143
	H344	H	-0.085262	1.168414	1.057657
	O345	O	0.202293	0.938644	1.045011
	H346	H	0.193896	0.939328	1.043709
	H347	H	0.195129	0.952261	1.053325
	O348	O	1.024559	0.802967	0.796754
	H349	H	1.021506	0.794235	0.795909
	H350	H	1.045433	0.800707	0.795434
	O351	O	0.099268	0.165408	-0.143109
	H352	H	0.089914	0.162012	-0.138082
	H353	H	0.110463	0.152284	-0.134363
	O354	O	0.977691	1.193193	-0.224038
	H355	H	0.992912	1.202518	-0.227927
	H356	H	0.968905	1.198567	-0.220685
	O357	O	-0.188389	0.802536	0.176210
	H358	H	-0.188322	0.851647	0.182496
	H359	H	-0.171488	0.796483	0.154528
	O360	O	0.358343	0.426050	0.363417
	H361	H	0.367575	0.435156	0.355496
	H362	H	0.367370	0.411740	0.347397
	O363	O	0.346852	0.535117	0.397941
	H364	H	0.359321	0.537591	0.392203
	H365	H	0.346203	0.533471	0.387020
	O366	O	1.003982	1.028772	1.128030
	H367	H	0.994809	1.035377	1.117245
	H368	H	1.006375	1.030350	1.109783
	O369	O	0.556702	0.375644	0.482042
	H370	H	0.560085	0.380769	0.485630
	H371	H	0.557393	0.378562	0.482066
	O372	O	-0.181040	1.170975	-0.194428
	H373	H	-0.189929	1.134743	-0.203982
	H374	H	-0.151322	1.179421	-0.199427
	O375	O	0.371739	0.596832	0.498377
	H376	H	0.358017	0.591830	0.517448
	H377	H	0.379962	0.613668	0.500834
	O378	O	0.479873	0.560396	0.326683
	H379	H	0.498032	0.575288	0.312530
	H380	H	0.487995	0.550732	0.336171
	O381	O	0.677145	0.309946	0.383618
	H382	H	0.684903	0.302447	0.385770
	H383	H	0.667224	0.314073	0.376184
	O384	O	0.145137	0.804583	0.798997
	H385	H	0.144994	0.800376	0.823662
	H386	H	0.153832	0.825137	0.781517
	O387	O	0.879905	0.854217	-0.063517
	H388	H	0.874798	0.847672	-0.054775
	H389	H	0.867048	0.849874	-0.053731
	O390	O	0.194459	-0.017147	0.812475
	H391	H	0.213508	-0.024618	0.806348
	H392	H	0.180423	0.000368	0.823418
	O393	O	1.603383	0.590234	1.608613
	H394	H	1.608956	0.584198	1.618103
	H395	H	1.599462	0.593380	1.586567
	O396	O	0.134362	1.123204	0.939673
	H397	H	0.155833	1.129568	0.964098
	H398	H	0.138313	1.126558	0.949485
	O399	O	0.446770	0.620695	0.386283
	H400	H	0.453160	0.628529	0.382302
	H401	H	0.438415	0.627806	0.382799
	O402	O	1.072869	-0.029785	0.889859
	H403	H	1.074735	-0.031372	0.890933
	H404	H	1.065807	-0.012627	0.894913
	O405	O	-0.181010	-0.063262	-0.134119
	H406	H	-0.179663	-0.057979	-0.122976
	H407	H	-0.163844	-0.076480	-0.138995
	O408	O	1.030000	0.848867	1.008518
	H409	H	1.019449	0.848505	1.001687
	H410	H	1.030398	0.841028	0.998713
	O411	O	0.957684	0.803335	-0.065753
	H412	H	0.957077	0.807473	-0.074937
	H413	H	0.949518	0.802038	-0.069331
	O414	O	0.220247	0.206577	1.011488
	H415	H	0.258801	0.242751	1.015705
	H416	H	0.206983	0.195025	1.064728
	O417	O	0.526853	0.564023	0.628732
	H418	H	0.523983	0.574478	0.644601
	H419	H	0.535553	0.566794	0.617156
	O420	O	-0.118111	1.043523	-0.021332
	H421	H	-0.101604	1.031993	-0.027598
	H422	H	-0.118639	1.067718	-0.033518
	O423	O	1.055968	-0.063531	0.209238
	H424	H	1.037908	-0.044522	0.200825
	H425	H	1.038756	-0.104950	0.215544
	O426	O	-0.013625	-0.229496	1.180618
	H427	H	-0.001068	-0.250866	1.183363
	H428	H	-0.036300	-0.238627	1.178683
	O429	O	0.581341	0.566256	0.669867
	H430	H	0.577024	0.574608	0.674996
	H431	H	0.573822	0.562820	0.668186
