data_Molecule from HDF5

_cell_length_a		16.138439
_cell_length_b		16.173692
_cell_length_c		16.384070
_cell_angle_alpha	89.893226
_cell_angle_beta	90.138969
_cell_angle_gamma	90.175630
_symmetry_space_group_name_H-M	'P 1'
_symmetry_Int_Tables_number		1

loop_
	_symmetry_equiv_pos_as_xyz
	x,y,z

loop_
	_atom_site_label
	_atom_site_type_symbol
	_atom_site_fract_x
	_atom_site_fract_y
	_atom_site_fract_z
	H0	H	0.399523	0.835580	0.704087
	H1	H	0.603695	0.162426	0.699860
	H2	H	0.603001	0.834105	0.270719
	H3	H	0.401967	0.162259	0.270353
	H4	H	0.717511	0.401446	0.823942
	H5	H	0.720369	0.596900	0.150162
	H6	H	0.289119	0.597227	0.824359
	H7	H	0.290460	0.399349	0.150095
	H8	H	0.836368	0.707370	0.389731
	H9	H	0.167830	0.710644	0.587622
	H10	H	0.837351	0.284512	0.583224
	H11	H	0.169151	0.284275	0.392440
	H12	H	0.839884	0.394541	0.703527
	H13	H	0.167016	0.597543	0.703492
	H14	H	0.839829	0.597068	0.269651
	H15	H	0.168061	0.395761	0.272827
	H16	H	0.404793	0.713782	0.824146
	H17	H	0.604559	0.714310	0.150196
	H18	H	0.602305	0.284367	0.823644
	H19	H	0.404471	0.280388	0.148346
	H20	H	0.712430	0.831676	0.390325
	H21	H	0.717000	0.162157	0.582922
	H22	H	0.290907	0.832653	0.583339
	H23	H	0.289505	0.162996	0.389888
	H24	H	0.902539	0.332855	0.201838
	H25	H	0.108025	0.659863	0.205235
	H26	H	0.104952	0.332645	0.772837
	H27	H	0.901689	0.659317	0.768299
	H28	H	0.216507	0.897896	0.324481
	H29	H	0.219196	0.096620	0.649685
	H30	H	0.789695	0.093221	0.323879
	H31	H	0.786040	0.897076	0.650281
	H32	H	0.338226	0.210935	0.889311
	H33	H	0.670127	0.210520	0.082274
	H34	H	0.338922	0.783515	0.084418
	H35	H	0.669576	0.787321	0.888863
	H36	H	0.339233	0.896402	0.202030
	H37	H	0.667513	0.101831	0.203301
	H38	H	0.339462	0.099299	0.770377
	H39	H	0.667227	0.899545	0.770414
	H40	H	0.902375	0.211785	0.324860
	H41	H	0.102117	0.211052	0.650322
	H42	H	0.100959	0.780599	0.325082
	H43	H	0.902552	0.780734	0.650963
	H44	H	0.216073	0.332632	0.892117
	H45	H	0.217015	0.662846	0.084555
	H46	H	0.790411	0.332858	0.084011
	H47	H	0.792175	0.662278	0.888077
	H48	H	0.422069	0.109498	0.569780
	H49	H	0.600203	0.879209	0.575784
	H50	H	0.601451	0.117996	0.388662
	H51	H	0.409978	0.882577	0.398465
	H52	H	0.596343	0.403557	0.102807
	H53	H	0.602003	0.595380	0.869578
	H54	H	0.418990	0.592326	0.101210
	H55	H	0.406122	0.401992	0.868722
	H56	H	0.124140	0.594851	0.391043
	H57	H	0.884528	0.595437	0.574739
	H58	H	0.124721	0.402669	0.591607
	H59	H	0.885356	0.410200	0.386390
	H60	H	0.122830	0.395147	0.574640
	H61	H	0.889001	0.579143	0.575918
	H62	H	0.118685	0.590110	0.403342
	H63	H	0.882759	0.395421	0.391587
	H64	H	0.408199	0.597475	0.105163
	H65	H	0.596997	0.588212	0.872866
	H66	H	0.598346	0.404261	0.103283
	H67	H	0.408395	0.408698	0.871351
	H68	H	0.589816	0.114820	0.389745
	H69	H	0.593004	0.877959	0.588962
	H70	H	0.397063	0.118432	0.573548
	H71	H	0.405504	0.878163	0.389643
	H72	H	0.917681	0.612884	0.078504
	H73	H	0.082890	0.381523	0.087668
	H74	H	0.089871	0.613467	0.892698
	H75	H	0.911331	0.381901	0.901453
	H76	H	0.096765	0.904315	0.603369
	H77	H	0.097004	0.083269	0.373022
	H78	H	0.918198	0.088821	0.600906
	H79	H	0.918021	0.896419	0.373481
	H80	H	0.615189	0.080977	0.902977
	H81	H	0.384861	0.087036	0.085850
	H82	H	0.618948	0.914755	0.079629
	H83	H	0.386242	0.907243	0.894529
	H84	H	0.623018	0.905761	0.084408
	H85	H	0.385132	0.096445	0.076821
	H86	H	0.625625	0.086378	0.875261
	H87	H	0.385712	0.906909	0.890992
	H88	H	0.906001	0.097537	0.606557
	H89	H	0.089014	0.092005	0.372354
	H90	H	0.095378	0.903515	0.603796
	H91	H	0.899487	0.897036	0.367821
	H92	H	0.099131	0.614054	0.897848
	H93	H	0.098965	0.383803	0.066500
	H94	H	0.911190	0.614948	0.077442
	H95	H	0.905492	0.376285	0.891847
	H96	H	0.414752	0.119122	0.593061
	H97	H	0.585943	0.882713	0.576803
	H98	H	0.596794	0.114370	0.398854
	H99	H	0.416405	0.880774	0.389677
	H100	H	0.597098	0.405930	0.102558
	H101	H	0.593358	0.596299	0.872186
	H102	H	0.408403	0.585332	0.102485
	H103	H	0.413302	0.403289	0.870738
	H104	H	0.119141	0.581439	0.392482
	H105	H	0.882453	0.586311	0.589188
	H106	H	0.117896	0.413304	0.578035
	H107	H	0.888973	0.405994	0.401500
	H108	H	0.913460	0.615952	0.084362
	H109	H	0.108867	0.373600	0.089835
	H110	H	0.098258	0.617154	0.887832
	H111	H	0.917128	0.380079	0.890709
	H112	H	0.096580	0.902182	0.603631
	H113	H	0.099942	0.094083	0.369054
	H114	H	0.903810	0.082001	0.602992
	H115	H	0.907602	0.912828	0.375132
	H116	H	0.625570	0.108575	0.895847
	H117	H	0.389276	0.084544	0.073552
	H118	H	0.620055	0.905491	0.074041
	H119	H	0.384967	0.904144	0.893508
	C120	C	0.381794	0.007029	0.607768
	C121	C	0.623163	0.988898	0.607888
	C122	C	0.624174	0.006519	0.364518
	C123	C	0.381145	0.989301	0.364312
	C124	C	0.625671	0.376862	-0.004809
	C125	C	0.627087	0.621769	0.979035
	C126	C	0.382643	0.620682	-0.004675
	C127	C	0.381258	0.375686	0.978078
	C128	C	0.011633	0.617240	0.366025
	C129	C	0.994277	0.616818	0.608831
	C130	C	0.012565	0.374929	0.609311
	C131	C	0.994414	0.374861	0.365681
	C132	C	0.883959	0.505699	0.108429
	C133	C	0.126360	0.488619	0.109829
	C134	C	0.124981	0.506078	0.865483
	C135	C	0.882969	0.488324	0.865595
	C136	C	0.124624	0.874440	0.495949
	C137	C	0.124536	0.118437	0.478986
	C138	C	0.880540	0.118030	0.495961
	C139	C	0.879406	0.873363	0.479582
	C140	C	0.512625	0.120178	0.864063
	C141	C	0.495434	0.119215	0.107322
	C142	C	0.512099	0.877995	0.107914
	C143	C	0.494507	0.877812	0.864558
	C144	C	0.381402	0.883921	0.664635
	C145	C	0.623008	0.113146	0.662143
	C146	C	0.622242	0.882778	0.309363
	C147	C	0.382543	0.113288	0.308957
	C148	C	0.680251	0.380233	0.872525
	C149	C	0.682730	0.618269	0.101297
	C150	C	0.326911	0.617930	0.873055
	C151	C	0.327348	0.378434	0.101057
	C152	C	0.886680	0.671176	0.368565
	C153	C	0.118338	0.672965	0.607170
	C154	C	0.887593	0.320520	0.605284
	C155	C	0.119531	0.320958	0.370354
	C156	C	0.888643	0.375807	0.664769
	C157	C	0.118209	0.616538	0.664716
	C158	C	0.888151	0.616101	0.308929
	C159	C	0.118863	0.376127	0.310991
	C160	C	0.384554	0.675793	0.872878
	C161	C	0.625230	0.676670	0.101339
	C162	C	0.622709	0.322431	0.872127
	C163	C	0.383913	0.319142	0.100258
	C164	C	0.676939	0.881589	0.368568
	C165	C	0.679195	0.112963	0.603936
	C166	C	0.327643	0.882304	0.604602
	C167	C	0.326450	0.113591	0.368033
	C168	C	0.883598	0.382037	0.163637
	C169	C	0.126318	0.611589	0.166064
	C170	C	0.123824	0.381794	0.811088
	C171	C	0.883485	0.611158	0.808260
	C172	C	0.178964	0.877279	0.373239
	C173	C	0.180720	0.116355	0.601467
	C174	C	0.826359	0.114607	0.372884
	C175	C	0.823899	0.876374	0.601917
	C176	C	0.387845	0.174129	0.867985
	C177	C	0.620041	0.173998	0.103976
	C178	C	0.388062	0.821696	0.104960
	C179	C	0.619629	0.823938	0.867868
	C180	C	0.388277	0.877614	0.163642
	C181	C	0.618808	0.119471	0.163963
	C182	C	0.388381	0.118634	0.808884
	C183	C	0.618492	0.879761	0.808953
	C184	C	0.882789	0.173328	0.373469
	C185	C	0.122272	0.173130	0.601757
	C186	C	0.121684	0.818691	0.373814
	C187	C	0.881871	0.818692	0.602242
	C188	C	0.179331	0.381899	0.870252
	C189	C	0.180713	0.612863	0.106142
	C190	C	0.827840	0.382008	0.105016
	C191	C	0.828609	0.612475	0.867499
	C192	C	0.404531	0.093391	0.585413
	C193	C	0.599968	0.902436	0.586614
	C194	C	0.602439	0.093347	0.386070
	C195	C	0.403774	0.902946	0.386099
	C196	C	0.603756	0.398241	0.080693
	C197	C	0.604169	0.599774	0.893543
	C198	C	0.405307	0.598288	0.080828
	C199	C	0.402903	0.398024	0.892565
	C200	C	0.098139	0.595149	0.388793
	C201	C	0.907692	0.593620	0.586593
	C202	C	0.099381	0.397321	0.587800
	C203	C	0.908180	0.397403	0.386979
	C204	C	0.907411	0.592196	0.086740
	C205	C	0.103432	0.402141	0.087799
	C206	C	0.102322	0.592569	0.886560
	C207	C	0.904998	0.401602	0.888019
	C208	C	0.102777	0.896822	0.581442
	C209	C	0.102170	0.096238	0.393586
	C210	C	0.902730	0.095903	0.581547
	C211	C	0.901761	0.895481	0.394218
	C212	C	0.599785	0.098378	0.885137
	C213	C	0.408799	0.096090	0.085151
	C214	C	0.598393	0.901742	0.086009
	C215	C	0.408068	0.899777	0.886523
	Zn216	Zn	0.502577	-0.000956	0.736046
	Zn217	Zn	0.503506	-0.001470	0.236312
	Zn218	Zn	0.755518	0.498085	-0.013059
	Zn219	Zn	0.253324	0.498213	-0.012834
	Zn220	Zn	0.002156	0.745026	0.488366
	Zn221	Zn	0.002892	0.247247	0.487554
	Zn222	Zn	0.003643	0.496280	0.737409
	Zn223	Zn	0.004131	0.496448	0.237503
	Zn224	Zn	0.504329	0.750315	-0.013210
	Zn225	Zn	0.504207	0.247269	-0.014031
	Zn226	Zn	0.751056	-0.003640	0.486526
	Zn227	Zn	0.253705	-0.002973	0.486935
	N228	N	0.414573	0.962365	0.666547
	N229	N	0.588905	0.035234	0.664682
	N230	N	0.590164	0.961529	0.306693
	N231	N	0.415734	0.035008	0.306518
	N232	N	0.681986	0.413529	0.949797
	N233	N	0.684186	0.584993	0.024033
	N234	N	0.325592	0.584416	0.950290
	N235	N	0.325547	0.412612	0.024102
	N236	N	0.964339	0.671994	0.403488
	N237	N	0.040225	0.673309	0.572981
	N238	N	0.965477	0.320196	0.571462
	N239	N	0.041438	0.319810	0.403577
	N240	N	0.967453	0.408733	0.667682
	N241	N	0.040122	0.582098	0.665689
	N242	N	0.966870	0.583560	0.307124
	N243	N	0.040310	0.409229	0.307913
	N244	N	0.418546	0.677567	0.949938
	N245	N	0.591424	0.679061	0.024231
	N246	N	0.589240	0.320364	0.949203
	N247	N	0.416674	0.317378	0.022810
	N248	N	0.678369	0.959455	0.402093
	N249	N	0.679514	0.034612	0.571072
	N250	N	0.327665	0.959722	0.569901
	N251	N	0.325480	0.035541	0.401802
	N252	N	0.917908	0.460012	0.165661
	N253	N	0.093266	0.533133	0.168569
	N254	N	0.090690	0.460145	0.807967
	N255	N	0.916604	0.532774	0.807043
	N256	N	0.181284	0.910895	0.450473
	N257	N	0.182278	0.083065	0.524100
	N258	N	0.824818	0.080862	0.450006
	N259	N	0.822049	0.909556	0.524395
	N260	N	0.466106	0.174956	0.901709
	N261	N	0.542233	0.173951	0.069164
	N262	N	0.465932	0.821977	0.070986
	N263	N	0.541686	0.822407	0.901683
	N264	N	0.466404	0.912069	0.165445
	N265	N	0.540219	0.086241	0.166169
	N266	N	0.466956	0.085909	0.806405
	N267	N	0.539910	0.912484	0.806773
	N268	N	0.915703	0.175818	0.451022
	N269	N	0.088258	0.174684	0.524733
	N270	N	0.088308	0.817016	0.450955
	N271	N	0.915349	0.816566	0.525218
	N272	N	0.180116	0.459941	0.903229
	N273	N	0.181015	0.535312	0.071881
	N274	N	0.827952	0.459972	0.071284
	N275	N	0.828546	0.535189	0.902789
	O276	O	0.985072	1.029286	-0.054035
	H277	H	0.975297	1.025970	-0.045313
	H278	H	0.980452	1.039470	-0.049072
	O279	O	0.510081	-0.484293	1.541252
	H280	H	0.510668	-0.485432	1.546635
	H281	H	0.506780	-0.488793	1.548467
	O282	O	0.086734	0.041185	0.031360
	H283	H	0.090014	0.037045	0.027117
	H284	H	0.094803	0.047978	0.034480
	O285	O	0.488037	0.554490	0.442590
	H286	H	0.489031	0.557364	0.437239
	H287	H	0.488275	0.568964	0.444892
	O288	O	0.057833	0.067616	0.075900
	H289	H	0.071530	0.068847	0.069593
	H290	H	0.064332	0.073098	0.074609
	O291	O	-0.032054	0.965776	0.008265
	H292	H	-0.036932	0.963074	0.012337
	H293	H	-0.031280	0.963311	0.008633
	O294	O	0.065013	1.021290	0.076920
	H295	H	0.074009	1.017141	0.075648
	H296	H	0.063548	1.036062	0.067403
	O297	O	0.495602	0.530627	0.463262
	H298	H	0.500033	0.524234	0.456237
	H299	H	0.498038	0.540058	0.457389
	O300	O	0.462251	0.476045	0.489464
	H301	H	0.470515	0.471145	0.498892
	H302	H	0.447680	0.470169	0.493298
	O303	O	0.966426	-0.037604	0.977781
	H304	H	0.974345	-0.039856	0.977828
	H305	H	0.959032	-0.041892	0.991125
	O306	O	0.008756	0.998721	0.965187
	H307	H	0.003124	1.002146	0.965799
	H308	H	0.003099	0.992294	0.956495
	O309	O	0.018009	0.983292	1.047453
	H310	H	0.025127	0.978340	1.043641
	H311	H	0.014818	0.982652	1.050225
	O312	O	-0.028118	0.002705	1.015427
	H313	H	-0.033713	-0.003440	1.027816
	H314	H	-0.027248	0.003435	1.025716
	O315	O	0.540648	0.450974	0.511061
	H316	H	0.531738	0.454534	0.505647
	H317	H	0.544187	0.448254	0.508848
	O318	O	-0.042143	-0.085195	0.993309
	H319	H	-0.048233	-0.086687	1.004508
	H320	H	-0.045658	-0.081195	1.000189
	O321	O	-0.002171	0.963436	1.029511
	H322	H	0.000024	0.959464	1.027917
	H323	H	0.001931	0.962516	1.027843
	O324	O	0.972368	-0.095829	1.021963
	H325	H	0.967131	-0.095928	1.026809
	H326	H	0.970830	-0.099626	1.014721
	O327	O	1.031076	1.047216	1.016155
	H328	H	1.032721	1.051929	1.006953
	H329	H	1.030674	1.039680	1.005776
	O330	O	0.494249	0.455084	0.541978
	H331	H	0.502243	0.458828	0.540591
	H332	H	0.497691	0.454826	0.552019
	O333	O	0.420695	0.565617	0.449045
	H334	H	0.415800	0.576632	0.451464
	H335	H	0.431584	0.567460	0.457760
	O336	O	0.524991	0.527481	0.543236
	H337	H	0.527523	0.532675	0.547487
	H338	H	0.520237	0.524545	0.541242
	O339	O	0.532193	0.494666	0.467091
	H340	H	0.532764	0.502662	0.462003
	H341	H	0.524434	0.497389	0.455923
	O342	O	0.455054	0.568371	0.461418
	H343	H	0.453747	0.563212	0.462879
	H344	H	0.453770	0.562707	0.462067
	O345	O	0.499517	0.508112	0.459846
	H346	H	0.488971	0.499450	0.455064
	H347	H	0.504372	0.504995	0.457094
