data_Molecule from HDF5

_cell_length_a		16.069562
_cell_length_b		16.180500
_cell_length_c		16.459378
_cell_angle_alpha	90.267798
_cell_angle_beta	89.595423
_cell_angle_gamma	89.614346
_symmetry_space_group_name_H-M	'P 1'
_symmetry_Int_Tables_number		1

loop_
	_symmetry_equiv_pos_as_xyz
	x,y,z

loop_
	_atom_site_label
	_atom_site_type_symbol
	_atom_site_fract_x
	_atom_site_fract_y
	_atom_site_fract_z
	H0	H	0.375722	0.831799	0.730443
	H1	H	0.581040	0.156701	0.727288
	H2	H	0.589406	0.832104	0.289752
	H3	H	0.374818	0.154543	0.292257
	H4	H	0.701498	0.388806	0.847792
	H5	H	0.697194	0.592054	0.170393
	H6	H	0.267203	0.591566	0.846554
	H7	H	0.262106	0.393496	0.170097
	H8	H	0.817207	0.709802	0.411099
	H9	H	0.147052	0.709223	0.606994
	H10	H	0.816226	0.284197	0.606881
	H11	H	0.146529	0.278236	0.407396
	H12	H	0.819423	0.391623	0.727900
	H13	H	0.145990	0.597198	0.724717
	H14	H	0.819065	0.600496	0.291878
	H15	H	0.145629	0.389505	0.289427
	H16	H	0.380544	0.711951	0.848817
	H17	H	0.583948	0.711529	0.170382
	H18	H	0.585685	0.271264	0.849517
	H19	H	0.380574	0.277716	0.172075
	H20	H	0.697644	0.830026	0.410654
	H21	H	0.690481	0.159379	0.606773
	H22	H	0.267744	0.828917	0.607984
	H23	H	0.270199	0.158743	0.415666
	H24	H	0.877537	0.332861	0.229398
	H25	H	0.085570	0.656012	0.227103
	H26	H	0.088805	0.331856	0.788695
	H27	H	0.876158	0.655981	0.792168
	H28	H	0.200367	0.893064	0.347924
	H29	H	0.192959	0.092327	0.671977
	H30	H	0.765247	0.093994	0.347173
	H31	H	0.764929	0.896594	0.670497
	H32	H	0.316985	0.207990	0.914378
	H33	H	0.647031	0.205110	0.108736
	H34	H	0.316180	0.781114	0.109934
	H35	H	0.647014	0.777862	0.910520
	H36	H	0.319208	0.889204	0.230002
	H37	H	0.644901	0.094678	0.226263
	H38	H	0.317361	0.097180	0.796293
	H39	H	0.644263	0.886790	0.789566
	H40	H	0.880145	0.211566	0.347078
	H41	H	0.081666	0.212993	0.669456
	H42	H	0.086477	0.774688	0.347809
	H43	H	0.879462	0.778294	0.669586
	H44	H	0.195415	0.329371	0.911307
	H45	H	0.192465	0.658599	0.106264
	H46	H	0.770653	0.328208	0.107219
	H47	H	0.767590	0.657128	0.912619
	H48	H	0.387354	0.110640	0.600039
	H49	H	0.567562	0.875859	0.609655
	H50	H	0.572836	0.111372	0.417429
	H51	H	0.392320	0.877914	0.423536
	H52	H	0.570779	0.398280	0.123070
	H53	H	0.576374	0.593117	0.891033
	H54	H	0.394482	0.583955	0.120976
	H55	H	0.390315	0.399163	0.894889
	H56	H	0.098692	0.578614	0.415110
	H57	H	0.863600	0.585965	0.603779
	H58	H	0.101186	0.400029	0.598695
	H59	H	0.860574	0.401649	0.408885
	H60	H	0.098285	0.406238	0.596662
	H61	H	0.864475	0.587070	0.601438
	H62	H	0.101785	0.586388	0.412979
	H63	H	0.865137	0.399726	0.425535
	H64	H	0.388087	0.594885	0.126501
	H65	H	0.580293	0.577164	0.895105
	H66	H	0.577991	0.396853	0.127479
	H67	H	0.392427	0.399741	0.896186
	H68	H	0.569499	0.111863	0.414532
	H69	H	0.568075	0.880502	0.594130
	H70	H	0.384010	0.113385	0.610495
	H71	H	0.390337	0.875125	0.415829
	H72	H	0.887209	0.613178	0.104693
	H73	H	0.062416	0.380774	0.097441
	H74	H	0.079028	0.611311	0.920857
	H75	H	0.894613	0.374960	0.910812
	H76	H	0.075866	0.893691	0.626928
	H77	H	0.070178	0.089075	0.393955
	H78	H	0.884837	0.080597	0.622112
	H79	H	0.893555	0.903800	0.395768
	H80	H	0.599116	0.081450	0.918132
	H81	H	0.365466	0.079366	0.103544
	H82	H	0.595443	0.911291	0.097129
	H83	H	0.363779	0.901282	0.921833
	H84	H	0.602074	0.903469	0.111026
	H85	H	0.361232	0.087125	0.109381
	H86	H	0.599398	0.079632	0.917207
	H87	H	0.365709	0.907923	0.919883
	H88	H	0.896309	0.093814	0.622348
	H89	H	0.079683	0.088891	0.392081
	H90	H	0.077762	0.908212	0.622887
	H91	H	0.891563	0.899133	0.392465
	H92	H	0.074190	0.615065	0.906025
	H93	H	0.079687	0.375551	0.094900
	H94	H	0.894488	0.609603	0.103798
	H95	H	0.898713	0.378538	0.917588
	H96	H	0.394129	0.109806	0.608414
	H97	H	0.581328	0.874078	0.600935
	H98	H	0.568657	0.109776	0.418295
	H99	H	0.398395	0.877648	0.416278
	H100	H	0.576436	0.404248	0.123253
	H101	H	0.564417	0.583170	0.898155
	H102	H	0.380534	0.582905	0.125100
	H103	H	0.390889	0.397536	0.894758
	H104	H	0.098756	0.584591	0.420396
	H105	H	0.865362	0.584811	0.601157
	H106	H	0.100562	0.405402	0.601647
	H107	H	0.867208	0.414569	0.416869
	H108	H	0.889018	0.609821	0.097888
	H109	H	0.071761	0.373943	0.110564
	H110	H	0.062948	0.608400	0.916419
	H111	H	0.889853	0.376073	0.918278
	H112	H	0.064676	0.902100	0.621479
	H113	H	0.075427	0.080889	0.394906
	H114	H	0.879632	0.096383	0.627673
	H115	H	0.887608	0.903534	0.393612
	H116	H	0.600237	0.080985	0.916934
	H117	H	0.363204	0.088663	0.099464
	H118	H	0.600996	0.894395	0.096370
	H119	H	0.362439	0.903240	0.915394
	C120	C	0.358560	0.002711	0.634011
	C121	C	0.601151	0.985152	0.630850
	C122	C	0.602667	0.003092	0.387559
	C123	C	0.362190	0.984779	0.389856
	C124	C	0.605783	0.368925	0.018213
	C125	C	0.603380	0.614584	1.000991
	C126	C	0.358845	0.616404	0.017474
	C127	C	0.360052	0.370606	1.001692
	C128	C	-0.009055	0.614674	0.387415
	C129	C	0.973298	0.616034	0.630558
	C130	C	-0.008758	0.374277	0.629224
	C131	C	0.973014	0.373663	0.386812
	C132	C	0.860494	0.502712	0.131548
	C133	C	0.101223	0.485258	0.129994
	C134	C	0.103558	0.503423	0.885309
	C135	C	0.862143	0.484420	0.887101
	C136	C	0.104396	0.870994	0.517397
	C137	C	0.103424	0.116362	0.500341
	C138	C	0.858093	0.118548	0.517315
	C139	C	0.860128	0.873172	0.500261
	C140	C	0.490834	0.112989	0.889378
	C141	C	0.472429	0.113976	0.132294
	C142	C	0.490728	0.873004	0.131469
	C143	C	0.472579	0.872256	0.888301
	C144	C	0.357971	0.879898	0.690661
	C145	C	0.600598	0.108011	0.688431
	C146	C	0.606020	0.880570	0.329766
	C147	C	0.358697	0.106720	0.332502
	C148	C	0.662870	0.369219	0.896375
	C149	C	0.659368	0.612678	0.122271
	C150	C	0.304213	0.613135	0.895403
	C151	C	0.301688	0.373401	0.122522
	C152	C	0.866770	0.672106	0.390034
	C153	C	0.097285	0.671936	0.628049
	C154	C	0.866532	0.320052	0.627668
	C155	C	0.096919	0.316079	0.387476
	C156	C	0.867884	0.373815	0.687592
	C157	C	0.096794	0.615987	0.686378
	C158	C	0.867852	0.617702	0.330886
	C159	C	0.096440	0.371630	0.328826
	C160	C	0.360602	0.673053	0.896626
	C161	C	0.602737	0.672292	0.122132
	C162	C	0.605426	0.310757	0.897130
	C163	C	0.360687	0.315832	0.123360
	C164	C	0.660318	0.879575	0.389485
	C165	C	0.654799	0.109431	0.628321
	C166	C	0.303887	0.878721	0.630067
	C167	C	0.306193	0.108815	0.393643
	C168	C	0.859728	0.380757	0.189359
	C169	C	0.102825	0.607716	0.187607
	C170	C	0.105597	0.380399	0.828422
	C171	C	0.859122	0.607160	0.831098
	C172	C	0.162067	0.872415	0.396220
	C173	C	0.156675	0.113635	0.622866
	C174	C	0.802705	0.115097	0.395748
	C175	C	0.803289	0.875878	0.622011
	C176	C	0.366629	0.170307	0.893342
	C177	C	0.597246	0.168243	0.129419
	C178	C	0.366251	0.817968	0.130096
	C179	C	0.596870	0.814934	0.889305
	C180	C	0.367624	0.871780	0.189947
	C181	C	0.595937	0.113369	0.187962
	C182	C	0.366779	0.115302	0.834451
	C183	C	0.595687	0.869435	0.829491
	C184	C	0.860210	0.173546	0.395726
	C185	C	0.101004	0.173620	0.621597
	C186	C	0.105063	0.813944	0.396146
	C187	C	0.860523	0.817103	0.621509
	C188	C	0.158919	0.378944	0.889251
	C189	C	0.156312	0.608920	0.127550
	C190	C	0.806475	0.378556	0.128641
	C191	C	0.804998	0.607937	0.891208
	C192	C	0.381684	0.088847	0.612609
	C193	C	0.578877	0.899180	0.608075
	C194	C	0.577548	0.088850	0.410175
	C195	C	0.386787	0.899163	0.412147
	C196	C	0.581928	0.392605	0.102605
	C197	C	0.580379	0.591214	0.916689
	C198	C	0.381089	0.593794	0.102131
	C199	C	0.384124	0.392508	0.917173
	C200	C	0.077314	0.590316	0.409672
	C201	C	0.886903	0.592735	0.608516
	C202	C	0.077525	0.397321	0.605843
	C203	C	0.886518	0.398061	0.410233
	C204	C	0.883526	0.588639	0.108960
	C205	C	0.078052	0.399193	0.107564
	C206	C	0.079230	0.589329	0.907928
	C207	C	0.887031	0.398537	0.909113
	C208	C	0.080000	0.894488	0.601820
	C209	C	0.081711	0.093183	0.415723
	C210	C	0.880204	0.096505	0.602142
	C211	C	0.883911	0.895494	0.415709
	C212	C	0.577150	0.088143	0.911006
	C213	C	0.385779	0.091643	0.110636
	C214	C	0.577035	0.896261	0.108323
	C215	C	0.386485	0.896937	0.912200
	Zn216	Zn	0.481147	-0.006676	0.760522
	Zn217	Zn	0.481267	-0.006711	0.259807
	Zn218	Zn	0.734008	0.492349	0.008699
	Zn219	Zn	0.229163	0.493935	0.008709
	Zn220	Zn	-0.017935	0.742667	0.508007
	Zn221	Zn	-0.018163	0.246463	0.508278
	Zn222	Zn	-0.017512	0.494237	0.757928
	Zn223	Zn	-0.017891	0.495000	0.259213
	Zn224	Zn	0.481605	0.745739	0.010200
	Zn225	Zn	0.482698	0.240317	0.011045
	Zn226	Zn	0.729658	-0.004880	0.509338
	Zn227	Zn	0.232979	-0.006246	0.509671
	N228	N	0.391280	0.957974	0.693206
	N229	N	0.567832	0.029655	0.690055
	N230	N	0.570878	0.958342	0.328335
	N231	N	0.392821	0.028576	0.330014
	N232	N	0.663047	0.404744	0.972448
	N233	N	0.659930	0.577440	0.046197
	N234	N	0.302813	0.578423	0.971636
	N235	N	0.301048	0.406746	0.045829
	N236	N	0.944520	0.670427	0.424650
	N237	N	0.019527	0.672093	0.593912
	N238	N	0.944204	0.320196	0.591916
	N239	N	0.019211	0.317524	0.422935
	N240	N	0.946575	0.406800	0.688689
	N241	N	0.018501	0.581987	0.688155
	N242	N	0.946039	0.582464	0.329455
	N243	N	0.018173	0.406793	0.328263
	N244	N	0.393596	0.675138	0.973502
	N245	N	0.568567	0.673540	0.045721
	N246	N	0.570577	0.310361	0.973809
	N247	N	0.396387	0.314070	0.047212
	N248	N	0.658424	0.956863	0.424727
	N249	N	0.655308	0.032136	0.593259
	N250	N	0.304072	0.956061	0.595725
	N251	N	0.308166	0.031928	0.428830
	N252	N	0.892562	0.459015	0.191439
	N253	N	0.069541	0.529745	0.189265
	N254	N	0.071919	0.458758	0.825976
	N255	N	0.894251	0.529407	0.828639
	N256	N	0.161960	0.907055	0.472687
	N257	N	0.158586	0.078740	0.546481
	N258	N	0.801267	0.081588	0.472371
	N259	N	0.802768	0.910057	0.545643
	N260	N	0.444844	0.169029	0.926798
	N261	N	0.519359	0.168842	0.095543
	N262	N	0.443743	0.818489	0.094486
	N263	N	0.519340	0.816734	0.925043
	N264	N	0.446106	0.905340	0.191012
	N265	N	0.517334	0.080291	0.189972
	N266	N	0.444793	0.080005	0.832041
	N267	N	0.517314	0.904306	0.828476
	N268	N	0.893969	0.175817	0.472396
	N269	N	0.068673	0.175434	0.544560
	N270	N	0.070090	0.812867	0.472652
	N271	N	0.895345	0.815432	0.544939
	N272	N	0.157680	0.456301	0.924099
	N273	N	0.155466	0.531692	0.092132
	N274	N	0.806796	0.455425	0.093155
	N275	N	0.806796	0.530387	0.925379
	O276	O	0.535107	-0.606732	1.550080
	H277	H	0.540487	-0.608080	1.561761
	H278	H	0.533661	-0.598962	1.561203
	O279	O	0.351938	0.361599	0.646337
	H280	H	0.338311	0.350308	0.651768
	H281	H	0.351339	0.344906	0.643265
	O282	O	1.021270	1.081479	-0.049360
	H283	H	1.026133	1.093986	-0.050540
	H284	H	1.013682	1.080551	-0.040480
	O285	O	0.526687	0.586859	0.499642
	H286	H	0.518314	0.599433	0.484052
	H287	H	0.513181	0.583502	0.503885
	O288	O	0.365825	0.474885	0.434511
	H289	H	0.358534	0.469674	0.445245
	H290	H	0.383114	0.464574	0.436233
	O291	O	0.484238	-0.386303	1.563856
	H292	H	0.471838	-0.375171	1.570099
	H293	H	0.482014	-0.394016	1.559510
	O294	O	0.906575	0.928862	0.072646
	H295	H	0.904155	0.917130	0.063310
	H296	H	0.902807	0.930256	0.077033
	O297	O	1.128239	0.976536	-0.009654
	H298	H	1.135232	0.971043	-0.017682
	H299	H	1.127662	0.972690	-0.021030
	O300	O	0.585708	0.594821	0.410196
	H301	H	0.567722	0.584890	0.402759
	H302	H	0.577541	0.587681	0.395176
	O303	O	0.432648	0.556022	0.462020
	H304	H	0.416898	0.571524	0.451710
	H305	H	0.436302	0.554579	0.470194
	O306	O	0.552609	0.596484	0.486876
	H307	H	0.564019	0.593867	0.476298
	H308	H	0.550552	0.604375	0.472656
	O309	O	0.623282	0.366251	0.385875
	H310	H	0.639367	0.357303	0.383454
	H311	H	0.626205	0.369719	0.395674
	O312	O	0.925896	0.990917	0.949076
	H313	H	0.914706	0.981482	0.956326
	H314	H	0.931949	0.983565	0.947319
	O315	O	1.074312	1.008129	-0.019594
	H316	H	1.093905	1.004513	-0.013106
	H317	H	1.061037	1.014407	-0.019176
	O318	O	0.975825	0.072487	0.061406
	H319	H	0.985494	0.060881	0.059172
	H320	H	0.984945	0.093185	0.057506
	O321	O	0.566108	0.573922	0.577456
	H322	H	0.564586	0.579771	0.555895
	H323	H	0.570934	0.568775	0.574234
	O324	O	-0.048873	0.950254	0.879989
	H325	H	-0.045994	0.957148	0.877097
	H326	H	-0.043917	0.950412	0.867950
	O327	O	-0.081382	1.003829	1.074503
	H328	H	-0.068864	0.994492	1.076600
	H329	H	-0.085737	1.007964	1.084679
	O330	O	-0.643046	0.645395	0.462438
	H331	H	-0.652855	0.645242	0.469795
	H332	H	-0.644692	0.630736	0.472010
	O333	O	0.479665	0.464039	0.365788
	H334	H	0.493050	0.466341	0.354186
	H335	H	0.492406	0.447018	0.375105
	O336	O	-0.046433	0.052741	0.091904
	H337	H	-0.051825	0.044412	0.086820
	H338	H	-0.051798	0.060039	0.104493
	O339	O	0.070061	-0.051583	-0.157809
	H340	H	0.076283	-0.052079	-0.159062
	H341	H	0.074977	-0.046298	-0.156161
	O342	O	0.504620	0.453598	0.621976
	H343	H	0.504655	0.455142	0.615680
	H344	H	0.504422	0.450514	0.615952
	O345	O	-0.031317	1.047507	0.900612
	H346	H	-0.043012	1.056034	0.911034
	H347	H	-0.033339	1.053163	0.913367
	O348	O	0.582211	0.555891	0.537206
	H349	H	0.571892	0.571044	0.539450
	H350	H	0.570479	0.568578	0.522091
	O351	O	0.451616	0.551667	0.602976
	H352	H	0.461144	0.562900	0.609771
	H353	H	0.452245	0.545073	0.607888
	O354	O	0.986532	1.027951	-1.043717
	H355	H	0.982884	1.019299	-1.057514
	H356	H	0.979726	1.016571	-1.043393
	O357	O	1.044778	1.001385	1.068426
	H358	H	1.040176	0.995722	1.059896
	H359	H	1.039447	1.006975	1.074473
	O360	O	0.927258	-0.006675	1.092183
	H361	H	0.927410	-0.022660	1.100470
	H362	H	0.933817	-0.000915	1.086852
	O363	O	-0.012151	1.048962	0.009251
	H364	H	-0.023586	1.052074	0.006168
	H365	H	-0.015661	1.037282	0.009874
	O366	O	0.379445	0.464036	0.473883
	H367	H	0.376618	0.463705	0.469237
	H368	H	0.368806	0.466271	0.472704
	O369	O	1.007186	-0.097058	0.003538
	H370	H	1.004451	-0.085269	-0.002776
	H371	H	1.011304	-0.093424	0.005477
	O372	O	0.574834	0.357090	0.558222
	H373	H	0.582949	0.351749	0.572194
	H374	H	0.581100	0.382202	0.564946
	O375	O	1.034753	-0.030686	1.010555
	H376	H	1.056193	-0.026230	0.998996
	H377	H	1.036705	-0.029636	0.998689
	O378	O	-0.591523	1.529249	-0.508550
	H379	H	-0.586111	1.522075	-0.516636
	H380	H	-0.580012	1.533035	-0.504940
	O381	O	0.473401	0.432970	0.499473
	H382	H	0.479422	0.429926	0.513177
	H383	H	0.471623	0.430202	0.508641
	O384	O	1.457166	1.372245	-0.608810
	H385	H	1.466791	1.370137	-0.613473
	H386	H	1.458542	1.357056	-0.601248
	O387	O	0.980668	-0.010699	1.078866
	H388	H	0.980764	-0.016703	1.081191
	H389	H	0.987308	-0.016678	1.069551
	O390	O	1.468445	0.492982	0.608224
	H391	H	1.473740	0.505757	0.609810
	H392	H	1.470815	0.498629	0.604888
	O393	O	0.908679	0.904082	-0.020890
	H394	H	0.911192	0.901239	-0.026211
	H395	H	0.902600	0.911407	-0.019805
