data_Molecule from HDF5

_cell_length_a		16.270374
_cell_length_b		16.297901
_cell_length_c		16.264543
_cell_angle_alpha	90.104441
_cell_angle_beta	90.072016
_cell_angle_gamma	89.810625
_symmetry_space_group_name_H-M	'P 1'
_symmetry_Int_Tables_number		1

loop_
	_symmetry_equiv_pos_as_xyz
	x,y,z

loop_
	_atom_site_label
	_atom_site_type_symbol
	_atom_site_fract_x
	_atom_site_fract_y
	_atom_site_fract_z
	H0	H	0.403682	0.831136	0.710759
	H1	H	0.599770	0.157764	0.712083
	H2	H	0.599477	0.830932	0.283442
	H3	H	0.402027	0.158420	0.282855
	H4	H	0.717143	0.394802	0.833342
	H5	H	0.715981	0.591602	0.161640
	H6	H	0.287117	0.593127	0.834294
	H7	H	0.290197	0.397659	0.161967
	H8	H	0.837358	0.708633	0.399911
	H9	H	0.165024	0.709766	0.595950
	H10	H	0.837239	0.281815	0.595531
	H11	H	0.165628	0.280450	0.399273
	H12	H	0.837864	0.397951	0.711410
	H13	H	0.166411	0.591951	0.710939
	H14	H	0.837911	0.593596	0.283345
	H15	H	0.165535	0.397363	0.284432
	H16	H	0.404115	0.706780	0.833175
	H17	H	0.601042	0.709444	0.160499
	H18	H	0.601422	0.279173	0.833712
	H19	H	0.406422	0.281931	0.161604
	H20	H	0.715840	0.830960	0.399438
	H21	H	0.714816	0.158374	0.595491
	H22	H	0.287942	0.831368	0.594597
	H23	H	0.287149	0.158506	0.399435
	H24	H	0.905423	0.330650	0.211216
	H25	H	0.100089	0.658323	0.212644
	H26	H	0.100498	0.331463	0.782609
	H27	H	0.903294	0.658397	0.784254
	H28	H	0.216046	0.896647	0.333506
	H29	H	0.215571	0.093631	0.660930
	H30	H	0.787406	0.093120	0.333383
	H31	H	0.788086	0.897481	0.661548
	H32	H	0.339311	0.210030	0.898488
	H33	H	0.666497	0.207890	0.095869
	H34	H	0.338373	0.779824	0.094503
	H35	H	0.666105	0.779611	0.899231
	H36	H	0.337304	0.896205	0.210120
	H37	H	0.665348	0.091457	0.211986
	H38	H	0.338295	0.092023	0.783274
	H39	H	0.665982	0.895121	0.782521
	H40	H	0.901755	0.209613	0.334002
	H41	H	0.099422	0.208999	0.661299
	H42	H	0.100429	0.779579	0.333569
	H43	H	0.903549	0.781629	0.661288
	H44	H	0.216882	0.330856	0.898913
	H45	H	0.215903	0.658770	0.095905
	H46	H	0.789957	0.330241	0.094659
	H47	H	0.787821	0.657913	0.900117
	H48	H	0.414202	0.112526	0.600471
	H49	H	0.602937	0.877482	0.584230
	H50	H	0.597905	0.113215	0.403317
	H51	H	0.411120	0.881528	0.413653
	H52	H	0.599885	0.408627	0.112900
	H53	H	0.593707	0.579422	0.882981
	H54	H	0.411446	0.593490	0.115423
	H55	H	0.410853	0.401846	0.881383
	H56	H	0.118468	0.591191	0.407884
	H57	H	0.885422	0.585015	0.593922
	H58	H	0.115609	0.405991	0.586622
	H59	H	0.881422	0.395172	0.400906
	H60	H	0.120054	0.402728	0.597168
	H61	H	0.882856	0.593037	0.593498
	H62	H	0.116720	0.584088	0.406481
	H63	H	0.887347	0.402494	0.412983
	H64	H	0.404442	0.586152	0.115292
	H65	H	0.590086	0.592707	0.880333
	H66	H	0.588235	0.398315	0.112602
	H67	H	0.409057	0.399487	0.879654
	H68	H	0.593169	0.111347	0.401571
	H69	H	0.596789	0.875016	0.599090
	H70	H	0.414396	0.106630	0.581601
	H71	H	0.397603	0.874405	0.400514
	H72	H	0.905812	0.612102	0.092148
	H73	H	0.100091	0.376021	0.095992
	H74	H	0.097868	0.612631	0.904361
	H75	H	0.914039	0.379838	0.905649
	H76	H	0.110375	0.905522	0.617251
	H77	H	0.085694	0.079238	0.386208
	H78	H	0.910046	0.087736	0.613690
	H79	H	0.904970	0.906258	0.380787
	H80	H	0.617544	0.086239	0.904765
	H81	H	0.383274	0.096927	0.088014
	H82	H	0.612246	0.908403	0.078350
	H83	H	0.389475	0.908962	0.908013
	H84	H	0.620111	0.909015	0.103638
	H85	H	0.389016	0.084339	0.082872
	H86	H	0.619402	0.086236	0.904669
	H87	H	0.383252	0.901137	0.894584
	H88	H	0.909085	0.089899	0.614217
	H89	H	0.089751	0.101519	0.377923
	H90	H	0.084864	0.913679	0.606677
	H91	H	0.914254	0.901805	0.382414
	H92	H	0.094229	0.611428	0.903232
	H93	H	0.090136	0.380088	0.091773
	H94	H	0.911910	0.610467	0.092690
	H95	H	0.906041	0.377423	0.906740
	H96	H	0.397228	0.114357	0.589074
	H97	H	0.587608	0.881117	0.586975
	H98	H	0.593935	0.109969	0.406693
	H99	H	0.416163	0.878126	0.395191
	H100	H	0.602724	0.394575	0.117240
	H101	H	0.603206	0.588539	0.877665
	H102	H	0.414154	0.584382	0.112656
	H103	H	0.407716	0.402425	0.880785
	H104	H	0.119724	0.588190	0.401261
	H105	H	0.886238	0.589322	0.586880
	H106	H	0.119257	0.394775	0.588216
	H107	H	0.885576	0.409134	0.399554
	H108	H	0.908466	0.609835	0.087461
	H109	H	0.099277	0.379570	0.085017
	H110	H	0.095339	0.609756	0.906516
	H111	H	0.909184	0.377111	0.899399
	H112	H	0.088856	0.887364	0.616491
	H113	H	0.107488	0.084968	0.377277
	H114	H	0.907240	0.087336	0.614404
	H115	H	0.906501	0.896294	0.378236
	H116	H	0.619415	0.086778	0.904416
	H117	H	0.384091	0.085073	0.097199
	H118	H	0.621941	0.886964	0.089948
	H119	H	0.384398	0.893177	0.908630
	C120	C	0.380366	0.003025	0.618526
	C121	C	0.623659	0.986089	0.618792
	C122	C	0.623357	0.003174	0.375324
	C123	C	0.379542	0.986301	0.375302
	C124	C	0.624904	0.372247	0.005704
	C125	C	0.624001	0.615496	0.988649
	C126	C	0.381023	0.616042	0.006097
	C127	C	0.381828	0.373515	0.989117
	C128	C	0.009849	0.616505	0.376391
	C129	C	0.993339	0.617234	0.619803
	C130	C	0.010084	0.373313	0.619075
	C131	C	0.993223	0.373815	0.376537
	C132	C	0.880684	0.502782	0.118920
	C133	C	0.124475	0.486579	0.119773
	C134	C	0.123903	0.502994	0.876180
	C135	C	0.880808	0.486018	0.875929
	C136	C	0.123700	0.873176	0.505613
	C137	C	0.123063	0.116612	0.488907
	C138	C	0.879719	0.116990	0.505987
	C139	C	0.880065	0.873557	0.488937
	C140	C	0.510776	0.115474	0.875820
	C141	C	0.493631	0.116288	0.118627
	C142	C	0.509903	0.872740	0.118505
	C143	C	0.493806	0.872082	0.875079
	C144	C	0.383094	0.879792	0.672920
	C145	C	0.620780	0.108978	0.674387
	C146	C	0.620450	0.879851	0.320714
	C147	C	0.381680	0.109581	0.320419
	C148	C	0.679475	0.374566	0.882387
	C149	C	0.678518	0.612400	0.112287
	C150	C	0.325710	0.613288	0.882852
	C151	C	0.327569	0.376833	0.112903
	C152	C	0.886668	0.671344	0.378942
	C153	C	0.116560	0.671746	0.616974
	C154	C	0.886283	0.318969	0.616375
	C155	C	0.116594	0.318452	0.379131
	C156	C	0.886468	0.376884	0.673788
	C157	C	0.116879	0.613405	0.674012
	C158	C	0.886819	0.613800	0.321341
	C159	C	0.116790	0.376462	0.322112
	C160	C	0.383299	0.670368	0.882613
	C161	C	0.621412	0.670843	0.111946
	C162	C	0.622226	0.316946	0.882602
	C163	C	0.384878	0.318954	0.112676
	C164	C	0.678197	0.879936	0.378345
	C165	C	0.677855	0.109305	0.616461
	C166	C	0.325480	0.880113	0.615069
	C167	C	0.324853	0.109651	0.378357
	C168	C	0.884408	0.379588	0.173492
	C169	C	0.120728	0.609738	0.174503
	C170	C	0.121476	0.380194	0.820665
	C171	C	0.882893	0.609406	0.821665
	C172	C	0.178230	0.876087	0.382280
	C173	C	0.177985	0.113913	0.612177
	C174	C	0.824366	0.114189	0.382650
	C175	C	0.825477	0.876751	0.612358
	C176	C	0.387767	0.171419	0.877879
	C177	C	0.617449	0.170178	0.116337
	C178	C	0.387010	0.817895	0.115259
	C179	C	0.617115	0.817323	0.878227
	C180	C	0.386448	0.875723	0.172705
	C181	C	0.616718	0.112667	0.174088
	C182	C	0.387327	0.112926	0.820905
	C183	C	0.617121	0.874790	0.820440
	C184	C	0.881528	0.171862	0.382734
	C185	C	0.120367	0.171437	0.612338
	C186	C	0.120900	0.817903	0.382367
	C187	C	0.882985	0.819147	0.612298
	C188	C	0.178955	0.379819	0.878601
	C189	C	0.178516	0.609743	0.116780
	C190	C	0.826988	0.379381	0.115754
	C191	C	0.825649	0.609319	0.879398
	C192	C	0.402353	0.088997	0.596820
	C193	C	0.601937	0.900113	0.596621
	C194	C	0.601291	0.089186	0.397133
	C195	C	0.401654	0.900346	0.396928
	C196	C	0.603143	0.394040	0.092032
	C197	C	0.602165	0.593453	0.902634
	C198	C	0.403355	0.594390	0.092177
	C199	C	0.402909	0.394983	0.902856
	C200	C	0.096178	0.594310	0.398805
	C201	C	0.907017	0.595695	0.597639
	C202	C	0.095875	0.394760	0.597063
	C203	C	0.907166	0.395776	0.397983
	C204	C	0.902354	0.588700	0.097304
	C205	C	0.102886	0.400678	0.097722
	C206	C	0.102119	0.589119	0.898147
	C207	C	0.903194	0.400292	0.897459
	C208	C	0.101289	0.895603	0.591464
	C209	C	0.101067	0.094842	0.402845
	C210	C	0.902085	0.094917	0.591963
	C211	C	0.901974	0.894946	0.402714
	C212	C	0.596654	0.092960	0.898033
	C213	C	0.407740	0.095097	0.095990
	C214	C	0.595903	0.894753	0.096920
	C215	C	0.407751	0.894501	0.897177
	Zn216	Zn	0.502223	-0.005997	0.746872
	Zn217	Zn	0.500755	-0.005331	0.247221
	Zn218	Zn	0.752751	0.493643	-0.002705
	Zn219	Zn	0.252939	0.494655	-0.002153
	Zn220	Zn	0.001453	0.745031	0.497495
	Zn221	Zn	0.001281	0.245078	0.497599
	Zn222	Zn	0.001927	0.495107	0.747640
	Zn223	Zn	0.001815	0.494880	0.247830
	Zn224	Zn	0.502216	0.743947	-0.003080
	Zn225	Zn	0.502860	0.244636	-0.002871
	Zn226	Zn	0.752005	-0.004819	0.497418
	Zn227	Zn	0.251654	-0.004661	0.497181
	N228	N	0.416619	0.957069	0.675068
	N229	N	0.587812	0.031265	0.675862
	N230	N	0.587008	0.957366	0.318794
	N231	N	0.415442	0.031940	0.318596
	N232	N	0.681062	0.408410	0.959847
	N233	N	0.680102	0.578684	0.034622
	N234	N	0.324137	0.580359	0.960495
	N235	N	0.325285	0.409936	0.035013
	N236	N	0.964277	0.672767	0.412715
	N237	N	0.038781	0.674275	0.583895
	N238	N	0.963853	0.316552	0.583115
	N239	N	0.038783	0.316767	0.412215
	N240	N	0.964204	0.409811	0.675708
	N241	N	0.039102	0.580436	0.675796
	N242	N	0.964617	0.580466	0.319736
	N243	N	0.039297	0.410280	0.320394
	N244	N	0.417157	0.672034	0.960210
	N245	N	0.588248	0.672804	0.034230
	N246	N	0.589122	0.315396	0.960293
	N247	N	0.418133	0.317120	0.035063
	N248	N	0.680134	0.957544	0.411655
	N249	N	0.679902	0.031900	0.582672
	N250	N	0.323640	0.957758	0.582214
	N251	N	0.323454	0.032273	0.411654
	N252	N	0.917611	0.457276	0.175442
	N253	N	0.087810	0.532079	0.176602
	N254	N	0.087861	0.457692	0.819183
	N255	N	0.916626	0.531988	0.819728
	N256	N	0.179975	0.909664	0.459738
	N257	N	0.179432	0.080352	0.534554
	N258	N	0.823325	0.080505	0.460191
	N259	N	0.823766	0.909874	0.534735
	N260	N	0.465438	0.173176	0.911188
	N261	N	0.539871	0.172695	0.082597
	N262	N	0.464718	0.815917	0.082501
	N263	N	0.539510	0.815753	0.911577
	N264	N	0.463802	0.909369	0.174797
	N265	N	0.539068	0.079779	0.175425
	N266	N	0.464760	0.078725	0.819693
	N267	N	0.539309	0.908234	0.818390
	N268	N	0.915083	0.173876	0.460349
	N269	N	0.086768	0.173103	0.534828
	N270	N	0.087551	0.816060	0.460122
	N271	N	0.916428	0.817338	0.534631
	N272	N	0.180760	0.457335	0.912300
	N273	N	0.180850	0.532204	0.083441
	N274	N	0.824594	0.456782	0.082767
	N275	N	0.824140	0.531603	0.912464
	O276	O	1.009708	-0.009919	0.933175
	H277	H	1.011929	-0.006583	0.936605
	H278	H	1.009384	-0.013839	0.937259
	O279	O	0.085716	0.871296	0.843211
	H280	H	0.086992	0.874335	0.847259
	H281	H	0.084597	0.870104	0.840052
	O282	O	1.036571	1.012388	-0.056589
	H283	H	1.035329	1.010936	-0.061108
	H284	H	1.032190	1.021317	-0.053707
	O285	O	0.070456	0.882629	0.821358
	H286	H	0.068606	0.885518	0.818617
	H287	H	0.070869	0.880783	0.816912
