data_Molecule from HDF5

_cell_length_a		16.466229
_cell_length_b		16.638493
_cell_length_c		16.502372
_cell_angle_alpha	89.930939
_cell_angle_beta	90.183245
_cell_angle_gamma	89.935897
_symmetry_space_group_name_H-M	'P 1'
_symmetry_Int_Tables_number		1

loop_
	_symmetry_equiv_pos_as_xyz
	x,y,z

loop_
	_atom_site_label
	_atom_site_type_symbol
	_atom_site_fract_x
	_atom_site_fract_y
	_atom_site_fract_z
	H0	H	0.398802	0.866219	0.705428
	H1	H	0.612248	0.177867	0.704932
	H2	H	0.611519	0.865846	0.259995
	H3	H	0.398608	0.176231	0.258299
	H4	H	0.726019	0.414466	0.824675
	H5	H	0.724746	0.625265	0.138105
	H6	H	0.282342	0.625927	0.823738
	H7	H	0.286356	0.420830	0.140623
	H8	H	0.848493	0.745738	0.374006
	H9	H	0.161606	0.743759	0.589491
	H10	H	0.848181	0.297497	0.590130
	H11	H	0.160380	0.298543	0.375638
	H12	H	0.847495	0.415140	0.704559
	H13	H	0.162238	0.625691	0.703396
	H14	H	0.847392	0.628393	0.259021
	H15	H	0.161784	0.416824	0.261199
	H16	H	0.397870	0.743320	0.823692
	H17	H	0.610349	0.742644	0.137562
	H18	H	0.612216	0.297133	0.826366
	H19	H	0.398180	0.300109	0.138541
	H20	H	0.727004	0.865294	0.377992
	H21	H	0.727064	0.177612	0.587719
	H22	H	0.283387	0.865426	0.587139
	H23	H	0.282068	0.176711	0.374686
	H24	H	0.897696	0.366751	0.204046
	H25	H	0.105722	0.678364	0.201267
	H26	H	0.110125	0.365485	0.759863
	H27	H	0.897986	0.676842	0.757711
	H28	H	0.224168	0.917341	0.324196
	H29	H	0.228655	0.127568	0.638413
	H30	H	0.784256	0.124011	0.325929
	H31	H	0.783973	0.916521	0.640242
	H32	H	0.347272	0.243952	0.874976
	H33	H	0.660383	0.243840	0.088034
	H34	H	0.346708	0.801754	0.085115
	H35	H	0.660672	0.798334	0.874204
	H36	H	0.346833	0.918644	0.200624
	H37	H	0.662593	0.124005	0.200873
	H38	H	0.347817	0.128383	0.758120
	H39	H	0.662609	0.917775	0.761837
	H40	H	0.898239	0.242894	0.326976
	H41	H	0.114005	0.245621	0.637603
	H42	H	0.109709	0.800088	0.325470
	H43	H	0.896846	0.797538	0.637707
	H44	H	0.225595	0.365720	0.877937
	H45	H	0.220963	0.679572	0.083340
	H46	H	0.783664	0.366052	0.084620
	H47	H	0.779944	0.677075	0.871975
	H48	H	0.422083	0.132196	0.574118
	H49	H	0.593689	0.910711	0.570302
	H50	H	0.593382	0.131489	0.395823
	H51	H	0.413562	0.913313	0.405255
	H52	H	0.592307	0.433200	0.092698
	H53	H	0.592766	0.613868	0.866387
	H54	H	0.414396	0.613680	0.094248
	H55	H	0.406487	0.427740	0.864615
	H56	H	0.120205	0.618431	0.390628
	H57	H	0.889489	0.615622	0.572143
	H58	H	0.116939	0.431697	0.572219
	H59	H	0.892093	0.438618	0.388937
	H60	H	0.115383	0.432004	0.565246
	H61	H	0.894675	0.610936	0.561661
	H62	H	0.113187	0.610897	0.402881
	H63	H	0.888246	0.425550	0.390198
	H64	H	0.414079	0.613370	0.094852
	H65	H	0.592411	0.605969	0.869508
	H66	H	0.591921	0.434974	0.092570
	H67	H	0.414484	0.443321	0.872640
	H68	H	0.596747	0.133894	0.391391
	H69	H	0.593128	0.910224	0.572552
	H70	H	0.417859	0.129512	0.564173
	H71	H	0.404590	0.903792	0.385283
	H72	H	0.902309	0.636289	0.064394
	H73	H	0.093486	0.408113	0.075301
	H74	H	0.095878	0.633866	0.891293
	H75	H	0.920446	0.407447	0.880972
	H76	H	0.090498	0.934489	0.593434
	H77	H	0.090333	0.105446	0.373237
	H78	H	0.912998	0.116484	0.599353
	H79	H	0.912844	0.929923	0.368825
	H80	H	0.615718	0.112606	0.899043
	H81	H	0.391175	0.108932	0.070476
	H82	H	0.617059	0.937432	0.074801
	H83	H	0.392666	0.933736	0.893183
	H84	H	0.620666	0.924651	0.072387
	H85	H	0.389412	0.112797	0.071836
	H86	H	0.614993	0.105618	0.893840
	H87	H	0.392625	0.933393	0.893976
	H88	H	0.914291	0.101777	0.594865
	H89	H	0.088429	0.114998	0.369269
	H90	H	0.092185	0.929928	0.594680
	H91	H	0.914952	0.936779	0.371203
	H92	H	0.090141	0.633273	0.888740
	H93	H	0.092888	0.411257	0.070885
	H94	H	0.917548	0.638086	0.084033
	H95	H	0.924685	0.417672	0.902101
	H96	H	0.411512	0.135480	0.571270
	H97	H	0.591155	0.910875	0.571374
	H98	H	0.591098	0.132384	0.390334
	H99	H	0.427456	0.911602	0.385655
	H100	H	0.590726	0.434122	0.093042
	H101	H	0.585739	0.611200	0.869964
	H102	H	0.414976	0.613320	0.093805
	H103	H	0.425002	0.427189	0.870647
	H104	H	0.116132	0.603317	0.388990
	H105	H	0.893889	0.604008	0.571855
	H106	H	0.115003	0.437869	0.569269
	H107	H	0.894348	0.432109	0.400756
	H108	H	0.925435	0.627526	0.062687
	H109	H	0.097469	0.408062	0.072023
	H110	H	0.091629	0.631693	0.894456
	H111	H	0.903253	0.408368	0.897821
	H112	H	0.095005	0.934011	0.594675
	H113	H	0.097717	0.110507	0.367906
	H114	H	0.925846	0.111558	0.593576
	H115	H	0.919823	0.930888	0.371333
	H116	H	0.619234	0.112748	0.891322
	H117	H	0.391624	0.112472	0.067832
	H118	H	0.614874	0.931861	0.062605
	H119	H	0.392327	0.934104	0.894263
	C120	C	0.383711	0.029836	0.603154
	C121	C	0.626207	1.013341	0.603909
	C122	C	0.626561	0.029477	0.360896
	C123	C	0.382876	1.012637	0.359590
	C124	C	0.625103	0.400444	-0.010301
	C125	C	0.624154	0.642802	0.972159
	C126	C	0.381872	0.644709	-0.010056
	C127	C	0.383290	0.401093	0.973164
	C128	C	0.012542	0.642826	0.361452
	C129	C	0.996275	0.642840	0.602475
	C130	C	0.012672	0.400500	0.602628
	C131	C	0.995604	0.400085	0.360731
	C132	C	0.882748	0.530710	0.102404
	C133	C	0.125683	0.512909	0.103846
	C134	C	0.125244	0.529775	0.859872
	C135	C	0.882338	0.513275	0.859008
	C136	C	0.125321	0.900465	0.490584
	C137	C	0.126395	0.143509	0.473335
	C138	C	0.884402	0.141787	0.491810
	C139	C	0.883224	0.900077	0.473793
	C140	C	0.512886	0.143464	0.860664
	C141	C	0.495155	0.143157	0.102445
	C142	C	0.513235	0.900092	0.102078
	C143	C	0.496193	0.901074	0.860814
	C144	C	0.380330	0.912971	0.664840
	C145	C	0.629937	0.130809	0.664582
	C146	C	0.629381	0.912396	0.300655
	C147	C	0.380422	0.129846	0.298982
	C148	C	0.686266	0.396661	0.872130
	C149	C	0.685051	0.644623	0.090528
	C150	C	0.322607	0.644902	0.870851
	C151	C	0.324811	0.400823	0.092694
	C152	C	0.894914	0.704360	0.357248
	C153	C	0.114444	0.703205	0.606652
	C154	C	0.895024	0.338480	0.607244
	C155	C	0.113566	0.339541	0.357768
	C156	C	0.894727	0.396945	0.664227
	C157	C	0.114770	0.644392	0.663430
	C158	C	0.894400	0.645887	0.300158
	C159	C	0.114203	0.398513	0.300973
	C160	C	0.379751	0.703463	0.870913
	C161	C	0.627913	0.702787	0.090317
	C162	C	0.629360	0.338192	0.872861
	C163	C	0.380498	0.341053	0.091771
	C164	C	0.686906	0.912210	0.359257
	C165	C	0.687252	0.130670	0.606427
	C166	C	0.322946	0.912569	0.605978
	C167	C	0.322444	0.129860	0.356991
	C168	C	0.880053	0.413421	0.163017
	C169	C	0.125470	0.631493	0.161821
	C170	C	0.128011	0.412161	0.800125
	C171	C	0.879428	0.630081	0.797603
	C172	C	0.184600	0.898916	0.371728
	C173	C	0.188445	0.146419	0.591148
	C174	C	0.824175	0.143359	0.373150
	C175	C	0.823425	0.897715	0.592514
	C176	C	0.394541	0.203756	0.857207
	C177	C	0.613392	0.203240	0.105711
	C178	C	0.394090	0.841213	0.103795
	C179	C	0.614070	0.839708	0.857076
	C180	C	0.394154	0.899375	0.161008
	C181	C	0.614488	0.143647	0.161704
	C182	C	0.394778	0.146405	0.798998
	C183	C	0.615068	0.899008	0.801095
	C184	C	0.880758	0.202225	0.373761
	C185	C	0.131219	0.204759	0.590855
	C186	C	0.127985	0.840239	0.372448
	C187	C	0.879641	0.838673	0.591523
	C188	C	0.185222	0.412280	0.858983
	C189	C	0.182484	0.631952	0.103148
	C190	C	0.822833	0.413109	0.104049
	C191	C	0.820558	0.629873	0.854386
	C192	C	0.409819	0.111097	0.577238
	C193	C	0.600132	0.932005	0.578582
	C194	C	0.601019	0.111410	0.385610
	C195	C	0.407984	0.930953	0.384868
	C196	C	0.599096	0.426690	0.071364
	C197	C	0.597864	0.617570	0.890085
	C198	C	0.407222	0.620537	0.072799
	C199	C	0.408202	0.425549	0.890822
	C200	C	0.095104	0.617714	0.386979
	C201	C	0.914106	0.617613	0.576031
	C202	C	0.094450	0.426385	0.576373
	C203	C	0.912903	0.425042	0.386106
	C204	C	0.907848	0.612658	0.077509
	C205	C	0.101564	0.430637	0.079891
	C206	C	0.099649	0.611482	0.884355
	C207	C	0.908660	0.432138	0.885839
	C208	C	0.099850	0.925469	0.572732
	C209	C	0.099850	0.117842	0.391545
	C210	C	0.910318	0.117110	0.574399
	C211	C	0.908688	0.925194	0.391860
	C212	C	0.595260	0.117830	0.887128
	C213	C	0.412357	0.118490	0.077163
	C214	C	0.596017	0.924478	0.077076
	C215	C	0.414112	0.926618	0.886459
	Zn216	Zn	0.505144	0.022113	0.732483
	Zn217	Zn	0.504873	0.020753	0.230852
	Zn218	Zn	0.753652	0.521891	-0.019614
	Zn219	Zn	0.254246	0.522220	-0.018434
	Zn220	Zn	0.004655	0.772178	0.482221
	Zn221	Zn	0.004414	0.271129	0.482928
	Zn222	Zn	0.004234	0.521134	0.730944
	Zn223	Zn	0.003896	0.521863	0.232558
	Zn224	Zn	0.503560	0.772057	-0.019054
	Zn225	Zn	0.503642	0.272023	-0.018396
	Zn226	Zn	0.755282	0.021271	0.483350
	Zn227	Zn	0.253904	0.020930	0.481845
	N228	N	0.417183	0.986972	0.663322
	N229	N	0.592914	0.056791	0.663452
	N230	N	0.592348	0.986337	0.301570
	N231	N	0.417325	0.055972	0.300535
	N232	N	0.683610	0.434951	0.945806
	N233	N	0.682869	0.607913	0.016038
	N234	N	0.323590	0.609304	0.946066
	N235	N	0.325947	0.437303	0.017962
	N236	N	0.969439	0.702587	0.394770
	N237	N	0.039733	0.702453	0.569653
	N238	N	0.969283	0.340516	0.569691
	N239	N	0.038779	0.340331	0.394387
	N240	N	0.968960	0.434599	0.661635
	N241	N	0.040148	0.607719	0.661230
	N242	N	0.968528	0.608126	0.302788
	N243	N	0.039588	0.435318	0.302695
	N244	N	0.415754	0.703359	0.946020
	N245	N	0.590846	0.702061	0.015560
	N246	N	0.591937	0.340445	0.946975
	N247	N	0.416163	0.340923	0.016609
	N248	N	0.685297	0.986195	0.395879
	N249	N	0.685135	0.056721	0.569366
	N250	N	0.324987	0.986230	0.568387
	N251	N	0.323976	0.056132	0.394277
	N252	N	0.916471	0.487698	0.162221
	N253	N	0.091207	0.556390	0.162806
	N254	N	0.091580	0.486347	0.800486
	N255	N	0.916913	0.556442	0.800265
	N256	N	0.183157	0.935586	0.446247
	N257	N	0.185894	0.109155	0.516883
	N258	N	0.826362	0.106642	0.447699
	N259	N	0.825325	0.935127	0.518373
	N260	N	0.469130	0.202024	0.894590
	N261	N	0.538042	0.203223	0.070037
	N262	N	0.469333	0.841183	0.068150
	N263	N	0.539115	0.840692	0.893385
	N264	N	0.469295	0.934871	0.160275
	N265	N	0.539692	0.106992	0.160216
	N266	N	0.469573	0.109725	0.800887
	N267	N	0.540581	0.936348	0.803029
	N268	N	0.917367	0.201521	0.448633
	N269	N	0.093665	0.203292	0.516535
	N270	N	0.091944	0.841128	0.447462
	N271	N	0.916079	0.839894	0.516827
	N272	N	0.183572	0.486289	0.895439
	N273	N	0.183101	0.557162	0.068101
	N274	N	0.824363	0.487183	0.067148
	N275	N	0.822051	0.556003	0.891760
	O276	O	1.203257	1.204034	0.183004
	H277	H	1.216350	1.220210	0.195683
	H278	H	1.179523	1.205279	0.179511
	O279	O	-0.200791	0.003995	0.952937
	H280	H	-0.188056	-0.001475	0.967162
	H281	H	-0.200357	-0.013334	0.970113
	O282	O	0.286690	0.305904	0.511632
	H283	H	0.308277	0.296840	0.506959
	H284	H	0.262202	0.278291	0.519512
	O285	O	0.485533	0.507218	0.660985
	H286	H	0.471286	0.506761	0.652877
	H287	H	0.482902	0.513702	0.655145
	O288	O	1.546845	-0.623345	1.265257
	H289	H	1.546026	-0.636766	1.247691
	H290	H	1.545933	-0.609913	1.260810
	O291	O	0.476902	0.744250	0.265263
	H292	H	0.460634	0.755315	0.245781
	H293	H	0.446767	0.749862	0.257738
	O294	O	0.056284	1.064966	-0.817542
	H295	H	0.060220	1.078269	-0.816496
	H296	H	0.074906	1.070403	-0.822390
	O297	O	0.730366	-0.380011	-0.524878
	H298	H	0.742281	-0.373580	-0.527475
	H299	H	0.727767	-0.375392	-0.510791
	O300	O	-0.279289	-0.545723	0.266631
	H301	H	-0.268024	-0.542344	0.247090
	H302	H	-0.280311	-0.569073	0.273213
	O303	O	-0.059890	-0.042707	-0.199505
	H304	H	-0.045975	-0.011222	-0.206656
	H305	H	-0.071830	-0.025687	-0.203944
	O306	O	0.473439	-0.487476	1.409852
	H307	H	0.467064	-0.496901	1.425336
	H308	H	0.468853	-0.473720	1.396197
	O309	O	0.291235	0.627631	0.272369
	H310	H	0.297195	0.588616	0.275974
	H311	H	0.271996	0.623006	0.266872
	O312	O	-0.208036	-0.129560	0.193302
	H313	H	-0.234052	-0.158575	0.220186
	H314	H	-0.204918	-0.131409	0.187686
	O315	O	1.000361	-0.023495	1.053295
	H316	H	1.001617	-0.036689	1.060045
	H317	H	0.999542	-0.037416	1.045253
	O318	O	0.656136	0.738654	0.477468
	H319	H	0.651146	0.746629	0.478125
	H320	H	0.661481	0.743891	0.488937
	O321	O	0.016779	1.150652	0.969172
	H322	H	0.014460	1.144859	0.964130
	H323	H	0.032705	1.149521	0.968154
	O324	O	0.785173	-0.195805	1.025173
	H325	H	0.769666	-0.207248	1.024923
	H326	H	0.788177	-0.212216	1.030946
	O327	O	1.209564	-0.185681	0.843865
	H328	H	1.223871	-0.208860	0.822408
	H329	H	1.185880	-0.183730	0.830825
	O330	O	0.203620	0.048236	0.820387
	H331	H	0.200214	0.044753	0.840935
	H332	H	0.221197	0.033390	0.814152
	O333	O	0.620812	0.501158	0.700412
	H334	H	0.608497	0.509014	0.717149
	H335	H	0.598729	0.484972	0.692149
	O336	O	0.943456	-0.176641	1.179488
	H337	H	0.945511	-0.178017	1.179120
	H338	H	0.939987	-0.191231	1.167753
	O339	O	0.705317	0.394742	0.459601
	H340	H	0.712566	0.411993	0.459928
	H341	H	0.725104	0.391659	0.461922
	O342	O	0.146852	0.824995	0.137042
	H343	H	0.145771	0.843702	0.117976
	H344	H	0.133874	0.826379	0.132538
	O345	O	0.607594	0.557330	0.462824
	H346	H	0.613840	0.548538	0.464931
	H347	H	0.606027	0.552887	0.469241
	O348	O	0.105714	1.142214	0.779624
	H349	H	0.097650	1.149219	0.776765
	H350	H	0.109822	1.136694	0.784881
	O351	O	-0.193644	0.215952	0.881106
	H352	H	-0.206017	0.203969	0.909178
	H353	H	-0.205254	0.222145	0.874882
	O354	O	1.373373	-0.375148	1.459393
	H355	H	1.374709	-0.380247	1.449829
	H356	H	1.375228	-0.372807	1.458391
	O357	O	0.377467	0.720718	0.614151
	H358	H	0.395643	0.713348	0.607855
	H359	H	0.387064	0.717775	0.602405
	O360	O	0.293748	0.493594	0.689138
	H361	H	0.296375	0.494901	0.673099
	H362	H	0.266547	0.492992	0.703557
	O363	O	0.444156	0.325200	0.414155
	H364	H	0.456681	0.324944	0.409837
	H365	H	0.441676	0.322054	0.409749
	O366	O	1.222130	-0.114679	0.940886
	H367	H	1.231781	-0.141042	0.940492
	H368	H	1.221144	-0.102008	0.929241
	O369	O	0.311559	0.330613	0.677104
	H370	H	0.290120	0.347227	0.694723
	H371	H	0.325966	0.321360	0.648363
	O372	O	0.475383	1.305570	0.700763
	H373	H	0.452432	1.302231	0.706135
	H374	H	0.475672	1.282359	0.706897
	O375	O	0.991782	-0.199646	-0.051955
	H376	H	0.989229	-0.173685	-0.057810
	H377	H	1.003524	-0.208122	-0.066483
	O378	O	1.086391	1.241747	1.195042
	H379	H	1.075704	1.249374	1.171751
	H380	H	1.080439	1.247296	1.206569
	O381	O	0.144506	1.023737	-0.240752
	H382	H	0.166876	1.015684	-0.247727
	H383	H	0.157559	1.023292	-0.226648
	O384	O	0.601046	0.405705	0.517134
	H385	H	0.610528	0.418118	0.521970
	H386	H	0.606584	0.418868	0.516172
	O387	O	0.089417	0.817151	0.777347
	H388	H	0.084658	0.854914	0.782385
	H389	H	0.059861	0.793389	0.755593
	O390	O	0.036917	1.018538	1.107983
	H391	H	0.045453	1.018141	1.120736
	H392	H	0.042046	1.020075	1.104259
	O393	O	0.942770	-0.188871	-0.090355
	H394	H	0.923889	-0.194134	-0.103294
	H395	H	0.933836	-0.185240	-0.077501
	O396	O	1.214012	0.233504	0.007117
	H397	H	1.239192	0.245647	-0.000490
	H398	H	1.195648	0.234907	0.026063
	O399	O	-0.074630	0.016133	0.987116
	H400	H	-0.067615	0.018167	0.977255
	H401	H	-0.068425	0.032146	0.988110
	O402	O	0.878156	0.212400	1.172018
	H403	H	0.889132	0.203268	1.163272
	H404	H	0.888783	0.203248	1.163556
	O405	O	0.919492	0.216988	0.855929
	H406	H	0.904085	0.225213	0.873811
	H407	H	0.919759	0.200386	0.843798
	O408	O	1.020259	0.940379	0.943681
	H409	H	1.027095	0.933048	0.934816
	H410	H	1.016933	0.949488	0.932028
	O411	O	1.599406	1.338167	0.491739
	H412	H	1.609512	1.338855	0.494675
	H413	H	1.603954	1.353782	0.488803
	O414	O	-0.139926	0.023339	0.191245
	H415	H	-0.147660	0.015905	0.203200
	H416	H	-0.135136	0.008003	0.200101
	O417	O	-0.790509	0.011117	0.117532
	H418	H	-0.784128	0.013492	0.108685
	H419	H	-0.792584	0.013068	0.131402
	O420	O	0.795092	0.043839	0.783697
	H421	H	0.765343	0.042232	0.768403
	H422	H	0.801509	0.050571	0.799547
	O423	O	1.267522	0.803446	0.201299
	H424	H	1.257616	0.769967	0.189032
	H425	H	1.245332	0.816528	0.175605
	O426	O	0.297078	0.580154	0.529564
	H427	H	0.301185	0.588043	0.516773
	H428	H	0.288171	0.593374	0.515868
	O429	O	0.789686	1.133419	-0.004808
	H430	H	0.784620	1.120408	0.013807
	H431	H	0.790553	1.113856	0.004260
	O432	O	1.692004	-0.342834	1.292534
	H433	H	1.672945	-0.344504	1.305138
	H434	H	1.685129	-0.355069	1.312307
	O435	O	-0.015768	1.191627	1.028343
	H436	H	-0.019641	1.191598	1.005974
	H437	H	-0.016148	1.188383	1.017774
	O438	O	0.363223	0.507190	0.276397
	H439	H	0.353101	0.511291	0.276978
	H440	H	0.371607	0.494378	0.296791
	O441	O	0.382873	0.438841	0.475154
	H442	H	0.399807	0.429681	0.487292
	H443	H	0.377590	0.424351	0.475532
	O444	O	0.694286	0.323721	0.547851
	H445	H	0.688842	0.310418	0.544934
	H446	H	0.691537	0.337219	0.536815
	O447	O	0.768834	0.750664	0.751096
	H448	H	0.767372	0.729457	0.760423
	H449	H	0.747939	0.746537	0.725289
	O450	O	0.286338	0.738747	-0.544582
	H451	H	0.260363	0.769655	-0.557410
	H452	H	0.303178	0.738210	-0.564197
	O453	O	-0.479499	0.584895	0.507643
	H454	H	-0.476152	0.586067	0.500591
	H455	H	-0.477318	0.587795	0.509902
	O456	O	0.164870	1.035648	1.031951
	H457	H	0.162630	1.036036	1.046947
	H458	H	0.171006	1.035586	1.036037
	O459	O	0.522768	0.664777	0.702597
	H460	H	0.519530	0.681093	0.731545
	H461	H	0.521858	0.658786	0.686887
	O462	O	0.510770	0.674930	0.468310
	H463	H	0.506642	0.679417	0.463467
	H464	H	0.519262	0.667700	0.444774
	O465	O	0.359586	0.356148	0.329237
	H466	H	0.371295	0.351658	0.344229
	H467	H	0.369337	0.378615	0.333755
	O468	O	-0.262234	0.292203	-0.746263
	H469	H	-0.248048	0.271776	-0.766698
	H470	H	-0.278215	0.292974	-0.715236
	O471	O	0.704510	0.606284	0.678474
	H472	H	0.714221	0.600839	0.702053
	H473	H	0.668991	0.593575	0.682757
	O474	O	0.985349	1.231655	-0.233325
	H475	H	0.969426	1.241854	-0.243907
	H476	H	0.958567	1.232631	-0.238601
	O477	O	0.566922	0.583944	0.333774
	H478	H	0.573890	0.576415	0.341181
	H479	H	0.565903	0.594396	0.323108
