data_Molecule from HDF5

_cell_length_a		16.518247
_cell_length_b		16.438080
_cell_length_c		16.346756
_cell_angle_alpha	89.997925
_cell_angle_beta	89.940711
_cell_angle_gamma	90.022095
_symmetry_space_group_name_H-M	'P 1'
_symmetry_Int_Tables_number		1

loop_
	_symmetry_equiv_pos_as_xyz
	x,y,z

loop_
	_atom_site_label
	_atom_site_type_symbol
	_atom_site_fract_x
	_atom_site_fract_y
	_atom_site_fract_z
	H0	H	0.401103	0.834214	0.732705
	H1	H	0.612410	0.150418	0.735549
	H2	H	0.613948	0.835666	0.287449
	H3	H	0.396301	0.148257	0.287680
	H4	H	0.729624	0.382325	0.857151
	H5	H	0.728195	0.601814	0.171144
	H6	H	0.279295	0.602246	0.857784
	H7	H	0.283456	0.385734	0.172707
	H8	H	0.847316	0.715754	0.407584
	H9	H	0.160548	0.716479	0.623795
	H10	H	0.849762	0.265207	0.623780
	H11	H	0.161831	0.269877	0.406448
	H12	H	0.849707	0.379721	0.741355
	H13	H	0.161332	0.598121	0.738027
	H14	H	0.847078	0.600011	0.290611
	H15	H	0.162252	0.387167	0.291641
	H16	H	0.398587	0.713882	0.855096
	H17	H	0.615189	0.718552	0.169440
	H18	H	0.611317	0.270155	0.854665
	H19	H	0.393971	0.265833	0.169198
	H20	H	0.733110	0.837603	0.399838
	H21	H	0.731111	0.148260	0.622704
	H22	H	0.282951	0.834843	0.619413
	H23	H	0.277126	0.146804	0.399696
	H24	H	0.896710	0.333986	0.236770
	H25	H	0.109239	0.650041	0.236387
	H26	H	0.114912	0.334349	0.790931
	H27	H	0.899352	0.648897	0.791809
	H28	H	0.227931	0.882997	0.355535
	H29	H	0.230254	0.101063	0.669775
	H30	H	0.779068	0.103640	0.356564
	H31	H	0.778297	0.881438	0.669283
	H32	H	0.347650	0.214767	0.904625
	H33	H	0.660546	0.217295	0.121314
	H34	H	0.350172	0.767490	0.121338
	H35	H	0.660890	0.766943	0.901617
	H36	H	0.348756	0.884263	0.236447
	H37	H	0.661601	0.100248	0.236165
	H38	H	0.346645	0.096200	0.791387
	H39	H	0.661598	0.885177	0.788101
	H40	H	0.895084	0.218255	0.356774
	H41	H	0.113091	0.214419	0.671000
	H42	H	0.112441	0.767853	0.356741
	H43	H	0.898363	0.770405	0.673471
	H44	H	0.233193	0.337126	0.903851
	H45	H	0.229879	0.648100	0.125155
	H46	H	0.778686	0.335121	0.123498
	H47	H	0.780551	0.648693	0.904818
	H48	H	0.420328	0.102095	0.594742
	H49	H	0.584130	0.883521	0.598969
	H50	H	0.596060	0.106132	0.424430
	H51	H	0.414061	0.879386	0.426189
	H52	H	0.593743	0.406035	0.126876
	H53	H	0.595280	0.580582	0.899157
	H54	H	0.415298	0.576451	0.126835
	H55	H	0.418261	0.412004	0.902579
	H56	H	0.118109	0.579589	0.417499
	H57	H	0.892902	0.581304	0.602258
	H58	H	0.115927	0.404139	0.600453
	H59	H	0.891099	0.398253	0.429168
	H60	H	0.116637	0.404347	0.602617
	H61	H	0.893976	0.577451	0.600502
	H62	H	0.117187	0.587529	0.430161
	H63	H	0.895895	0.408327	0.430289
	H64	H	0.422117	0.578452	0.125425
	H65	H	0.594097	0.575554	0.901862
	H66	H	0.589456	0.406669	0.125221
	H67	H	0.421496	0.402794	0.901249
	H68	H	0.586152	0.102395	0.423923
	H69	H	0.596389	0.881861	0.592314
	H70	H	0.408320	0.107278	0.599012
	H71	H	0.416792	0.879147	0.423254
	H72	H	0.916449	0.602412	0.096888
	H73	H	0.090342	0.379851	0.103629
	H74	H	0.087488	0.601351	0.928403
	H75	H	0.924808	0.386022	0.938273
	H76	H	0.096370	0.905752	0.628203
	H77	H	0.091631	0.072485	0.402355
	H78	H	0.914410	0.069005	0.623144
	H79	H	0.915516	0.907191	0.401186
	H80	H	0.614355	0.080372	0.930317
	H81	H	0.395620	0.075726	0.096874
	H82	H	0.615355	0.905676	0.094589
	H83	H	0.393130	0.901907	0.925252
	H84	H	0.616596	0.909344	0.101559
	H85	H	0.391744	0.079646	0.103925
	H86	H	0.618127	0.076856	0.919489
	H87	H	0.393785	0.903585	0.923448
	H88	H	0.927448	0.078314	0.621783
	H89	H	0.087010	0.084406	0.399840
	H90	H	0.092323	0.903372	0.626803
	H91	H	0.923170	0.907603	0.404052
	H92	H	0.095572	0.602730	0.932956
	H93	H	0.093265	0.381353	0.098157
	H94	H	0.911969	0.605873	0.101873
	H95	H	0.902886	0.376047	0.932451
	H96	H	0.418703	0.107634	0.607272
	H97	H	0.594663	0.877573	0.605307
	H98	H	0.591449	0.101456	0.433189
	H99	H	0.417661	0.881064	0.427060
	H100	H	0.590829	0.402537	0.127262
	H101	H	0.589859	0.580247	0.900946
	H102	H	0.417572	0.583605	0.127748
	H103	H	0.412335	0.404785	0.898891
	H104	H	0.112261	0.573558	0.430043
	H105	H	0.892959	0.577993	0.603936
	H106	H	0.116526	0.402387	0.601419
	H107	H	0.891556	0.405263	0.420798
	H108	H	0.918912	0.604410	0.103957
	H109	H	0.096143	0.377840	0.102326
	H110	H	0.093994	0.605988	0.924307
	H111	H	0.921638	0.376127	0.915844
	H112	H	0.096084	0.901511	0.629174
	H113	H	0.099160	0.081257	0.396874
	H114	H	0.914371	0.083923	0.629184
	H115	H	0.920589	0.900891	0.399859
	H116	H	0.619304	0.087925	0.922124
	H117	H	0.392658	0.084027	0.096351
	H118	H	0.618791	0.901541	0.100672
	H119	H	0.391994	0.901913	0.923211
	C120	C	0.383637	0.001235	0.633335
	C121	C	0.626001	0.984370	0.633291
	C122	C	0.626325	0.000565	0.391535
	C123	C	0.382212	0.982929	0.390363
	C124	C	0.624874	0.371565	0.021909
	C125	C	0.627096	0.613817	1.004445
	C126	C	0.384043	0.613952	0.022793
	C127	C	0.383586	0.371633	1.004941
	C128	C	0.012326	0.613516	0.392589
	C129	C	0.996311	0.612807	0.636051
	C130	C	0.013846	0.368671	0.636820
	C131	C	0.996249	0.370881	0.392936
	C132	C	0.882013	0.500413	0.135505
	C133	C	0.125861	0.483700	0.135389
	C134	C	0.127112	0.500152	0.893797
	C135	C	0.882988	0.482945	0.893587
	C136	C	0.127172	0.869825	0.523211
	C137	C	0.126506	0.112873	0.504106
	C138	C	0.883842	0.113103	0.521829
	C139	C	0.884272	0.870741	0.505314
	C140	C	0.513327	0.114199	0.890576
	C141	C	0.496392	0.113987	0.133835
	C142	C	0.514135	0.871015	0.133519
	C143	C	0.496355	0.869662	0.890141
	C144	C	0.382337	0.881912	0.693340
	C145	C	0.630249	0.102711	0.695310
	C146	C	0.631117	0.882890	0.328348
	C147	C	0.378549	0.100953	0.328092
	C148	C	0.687642	0.366384	0.903687
	C149	C	0.688301	0.618625	0.123335
	C150	C	0.320927	0.618810	0.904748
	C151	C	0.322607	0.367384	0.124356
	C152	C	0.894504	0.675118	0.389628
	C153	C	0.113704	0.675377	0.640887
	C154	C	0.896831	0.305593	0.641710
	C155	C	0.114637	0.310175	0.389026
	C156	C	0.896783	0.363033	0.700189
	C157	C	0.114144	0.616453	0.697950
	C158	C	0.894254	0.617335	0.331223
	C159	C	0.114529	0.368505	0.331588
	C160	C	0.380359	0.674699	0.903363
	C161	C	0.632018	0.677281	0.122258
	C162	C	0.628482	0.310473	0.902576
	C163	C	0.378053	0.307848	0.122749
	C164	C	0.690876	0.884080	0.384124
	C165	C	0.689439	0.101708	0.638840
	C166	C	0.323259	0.882459	0.637054
	C167	C	0.319023	0.100083	0.384050
	C168	C	0.878425	0.381796	0.197096
	C169	C	0.128129	0.602471	0.196520
	C170	C	0.131645	0.381966	0.831691
	C171	C	0.880560	0.601481	0.831722
	C172	C	0.187547	0.866005	0.403535
	C173	C	0.189013	0.117771	0.622365
	C174	C	0.820569	0.119755	0.403822
	C175	C	0.820052	0.865023	0.622725
	C176	C	0.394924	0.174789	0.887091
	C177	C	0.613698	0.176408	0.138526
	C178	C	0.396974	0.808244	0.138553
	C179	C	0.613861	0.808095	0.885193
	C180	C	0.396128	0.866804	0.195589
	C181	C	0.614062	0.118136	0.196084
	C182	C	0.394532	0.115643	0.830470
	C183	C	0.614219	0.867037	0.828298
	C184	C	0.878200	0.177380	0.404112
	C185	C	0.130448	0.174384	0.623249
	C186	C	0.130232	0.808185	0.404167
	C187	C	0.880123	0.809745	0.624635
	C188	C	0.190879	0.383395	0.887966
	C189	C	0.188084	0.601469	0.140891
	C190	C	0.819591	0.382414	0.140571
	C191	C	0.821192	0.601203	0.888012
	C192	C	0.408570	0.084103	0.607581
	C193	C	0.599517	0.902442	0.606458
	C194	C	0.599138	0.082076	0.419276
	C195	C	0.408555	0.901047	0.417646
	C196	C	0.598771	0.397550	0.104671
	C197	C	0.600725	0.586654	0.922001
	C198	C	0.410788	0.587453	0.105185
	C199	C	0.409924	0.398698	0.922461
	C200	C	0.094334	0.587647	0.418373
	C201	C	0.914684	0.586488	0.609800
	C202	C	0.095112	0.395843	0.609493
	C203	C	0.914164	0.396424	0.419016
	C204	C	0.908188	0.582604	0.108700
	C205	C	0.100304	0.401269	0.108995
	C206	C	0.099945	0.581984	0.920684
	C207	C	0.909148	0.400948	0.920912
	C208	C	0.102334	0.895962	0.606226
	C209	C	0.100234	0.086910	0.421359
	C210	C	0.910870	0.084909	0.603456
	C211	C	0.911668	0.897710	0.423199
	C212	C	0.595694	0.088974	0.916494
	C213	C	0.414745	0.087344	0.107018
	C214	C	0.595750	0.897746	0.106606
	C215	C	0.414265	0.895019	0.916407
	Zn216	Zn	0.504954	-0.007261	0.762388
	Zn217	Zn	0.504971	-0.007599	0.262520
	Zn218	Zn	0.753917	0.491507	0.014454
	Zn219	Zn	0.255761	0.492387	0.014880
	Zn220	Zn	0.004923	0.742547	0.514608
	Zn221	Zn	0.005322	0.240871	0.513667
	Zn222	Zn	0.005089	0.490818	0.765320
	Zn223	Zn	0.003751	0.491764	0.263452
	Zn224	Zn	0.505892	0.741761	0.012551
	Zn225	Zn	0.504031	0.243092	0.012787
	Zn226	Zn	0.755628	-0.007923	0.512532
	Zn227	Zn	0.254795	-0.008200	0.512770
	N228	N	0.419001	0.956911	0.691382
	N229	N	0.591337	0.028887	0.691827
	N230	N	0.591584	0.956457	0.332752
	N231	N	0.417381	0.027222	0.331951
	N232	N	0.685378	0.403828	0.978724
	N233	N	0.685510	0.579998	0.048851
	N234	N	0.322978	0.581907	0.980121
	N235	N	0.325954	0.406177	0.050021
	N236	N	0.969077	0.673052	0.426907
	N237	N	0.039477	0.673342	0.603222
	N238	N	0.970527	0.309206	0.603015
	N239	N	0.040075	0.311379	0.426311
	N240	N	0.970709	0.401386	0.697566
	N241	N	0.040138	0.578241	0.695273
	N242	N	0.968604	0.580097	0.332742
	N243	N	0.039777	0.405292	0.333641
	N244	N	0.419107	0.671692	0.977705
	N245	N	0.594629	0.674352	0.047288
	N246	N	0.590107	0.313462	0.977207
	N247	N	0.415120	0.310172	0.047403
	N248	N	0.687733	0.958108	0.422931
	N249	N	0.687022	0.027011	0.601052
	N250	N	0.324023	0.957723	0.600582
	N251	N	0.321026	0.025541	0.421964
	N252	N	0.916493	0.456060	0.194077
	N253	N	0.090076	0.528199	0.193199
	N254	N	0.092565	0.455777	0.835041
	N255	N	0.917910	0.526789	0.834703
	N256	N	0.185874	0.903655	0.478678
	N257	N	0.187126	0.080607	0.547020
	N258	N	0.823867	0.080467	0.477920
	N259	N	0.822292	0.902115	0.547352
	N260	N	0.470036	0.174189	0.923666
	N261	N	0.539368	0.174293	0.100998
	N262	N	0.471347	0.810709	0.100856
	N263	N	0.539496	0.809480	0.922823
	N264	N	0.470108	0.905084	0.192760
	N265	N	0.539944	0.080204	0.193382
	N266	N	0.469045	0.078835	0.832611
	N267	N	0.540046	0.904577	0.831161
	N268	N	0.916878	0.173483	0.478529
	N269	N	0.092240	0.171303	0.548660
	N270	N	0.093444	0.810323	0.479558
	N271	N	0.919493	0.813373	0.550636
	N272	N	0.188157	0.457889	0.925643
	N273	N	0.186626	0.526720	0.103304
	N274	N	0.821689	0.457344	0.103063
	N275	N	0.822433	0.526344	0.925528
	O276	O	-0.206419	0.199722	-0.008314
	H277	H	-0.190905	0.198819	0.003482
	H278	H	-0.222242	0.214569	-0.005196
	O279	O	1.057917	0.215161	0.947241
	H280	H	1.040620	0.207771	0.979093
	H281	H	1.080398	0.201147	0.961021
	O282	O	0.390818	0.471406	0.301624
	H283	H	0.375867	0.459951	0.296794
	H284	H	0.397150	0.441537	0.310873
	O285	O	0.713434	0.471552	0.301178
	H286	H	0.720862	0.492359	0.324683
	H287	H	0.739787	0.466259	0.283122
	O288	O	1.218351	1.045063	-0.052695
	H289	H	1.222483	1.017036	-0.043922
	H290	H	1.205055	1.028530	-0.063021
	O291	O	-0.061002	-0.218520	-0.048942
	H292	H	-0.027804	-0.223879	-0.033368
	H293	H	-0.075245	-0.218039	-0.035545
	O294	O	-0.210544	-0.221590	1.034658
	H295	H	-0.202800	-0.200764	1.007969
	H296	H	-0.243356	-0.252563	1.033303
	O297	O	0.413710	1.276097	-0.569284
	H298	H	0.424133	1.276656	-0.607364
	H299	H	0.443801	1.287845	-0.560573
	O300	O	0.728098	0.509862	0.732846
	H301	H	0.715059	0.560741	0.721646
	H302	H	0.763313	0.517702	0.768996
	O303	O	0.697371	0.588055	0.482759
	H304	H	0.674727	0.602258	0.493280
	H305	H	0.697574	0.602891	0.489586
	O306	O	0.670075	0.713034	0.504074
	H307	H	0.683541	0.739024	0.496703
	H308	H	0.634651	0.725292	0.483064
	O309	O	0.534266	0.620585	0.297327
	H310	H	0.500917	0.596830	0.304809
	H311	H	0.549039	0.622420	0.291014
	O312	O	-0.174525	1.165521	0.831568
	H313	H	-0.183657	1.161488	0.867802
	H314	H	-0.121368	1.177193	0.819634
	O315	O	0.195179	0.804532	0.834972
	H316	H	0.170445	0.794192	0.820295
	H317	H	0.205636	0.852294	0.828105
	O318	O	0.401575	0.611724	0.699931
	H319	H	0.403415	0.594992	0.692654
	H320	H	0.389680	0.589366	0.702859
	O321	O	-0.013772	0.202281	-0.200358
	H322	H	0.008550	0.214487	-0.152482
	H323	H	-0.015445	0.243894	-0.230561
	O324	O	0.578170	0.283406	0.557787
	H325	H	0.576727	0.290972	0.580252
	H326	H	0.586082	0.289373	0.548928
	O327	O	0.303302	0.455912	0.472684
	H328	H	0.318430	0.438849	0.468006
	H329	H	0.298394	0.438417	0.461163
	O330	O	-0.024170	1.022391	0.238712
	H331	H	-0.006245	1.009079	0.230237
	H332	H	0.000842	1.038759	0.238366
	O333	O	0.814012	0.064358	1.078508
	H334	H	0.844420	0.067186	1.078392
	H335	H	0.796566	0.053994	1.096874
	O336	O	0.054507	-0.217094	0.064810
	H337	H	0.091820	-0.212128	0.055885
	H338	H	0.046350	-0.228905	0.105724
	O339	O	0.442043	1.452322	0.717043
	H340	H	0.433092	1.446307	0.718698
	H341	H	0.461794	1.464381	0.710453
	O342	O	0.686426	0.285273	1.512837
	H343	H	0.690001	0.295408	1.518730
	H344	H	0.700096	0.276475	1.523203
	O345	O	0.789130	0.930843	-0.044467
	H346	H	0.792932	0.948254	-0.039041
	H347	H	0.785999	0.943884	-0.050918
	O348	O	0.501742	0.653090	0.713764
	H349	H	0.492545	0.628002	0.715125
	H350	H	0.495997	0.661396	0.740678
	O351	O	0.030380	0.783502	0.804810
	H352	H	0.033836	0.773663	0.795449
	H353	H	0.021939	0.776203	0.805794
	O354	O	-0.487929	0.640204	0.302724
	H355	H	-0.484388	0.655951	0.280401
	H356	H	-0.469936	0.625216	0.289409
	O357	O	0.092109	-0.062597	1.168605
	H358	H	0.076224	-0.067528	1.159229
	H359	H	0.075215	-0.082293	1.164916
	O360	O	0.385027	0.589089	0.572016
	H361	H	0.386401	0.560448	0.558236
	H362	H	0.389983	0.573626	0.585209
	O363	O	0.026590	0.208311	1.235744
	H364	H	0.042075	0.236570	1.263995
	H365	H	0.069295	0.207160	1.230286
	O366	O	0.949761	0.938662	-0.196780
	H367	H	0.928395	0.927281	-0.195209
	H368	H	0.932956	0.925595	-0.191096
	O369	O	0.573938	0.559945	0.578400
	H370	H	0.583680	0.569677	0.609190
	H371	H	0.551697	0.564223	0.574154
	O372	O	0.522012	0.270833	0.294226
	H373	H	0.553830	0.264140	0.286096
	H374	H	0.549054	0.255009	0.278351
	O375	O	0.685561	0.664012	0.691801
	H376	H	0.653037	0.677039	0.681907
	H377	H	0.677740	0.676917	0.657953
	O378	O	0.482284	0.277527	0.723939
	H379	H	0.469156	0.286725	0.716040
	H380	H	0.486113	0.246882	0.745810
	O381	O	1.672510	0.314739	0.337913
	H382	H	1.681159	0.362202	0.331140
	H383	H	1.686178	0.304307	0.389874
	O384	O	0.558875	0.708784	0.542281
	H385	H	0.535645	0.709058	0.542623
	H386	H	0.539841	0.695856	0.541512
	O387	O	0.075342	0.048690	0.796064
	H388	H	0.052917	0.076395	0.793991
	H389	H	0.041290	0.039080	0.791883
	O390	O	-0.678955	-0.684209	-0.308352
	H391	H	-0.654864	-0.686255	-0.315624
	H392	H	-0.688581	-0.678102	-0.344808
	O393	O	1.218651	0.905493	1.100570
	H394	H	1.227315	0.867397	1.088496
	H395	H	1.206338	0.906105	1.114152
	O396	O	1.183021	0.176404	0.194602
	H397	H	1.193478	0.188263	0.140235
	H398	H	1.197381	0.122491	0.203105
	O399	O	1.011371	0.027961	1.018337
	H400	H	1.006251	0.028082	1.013455
	H401	H	1.028023	0.021075	1.011727
	O402	O	0.953421	1.195017	1.078399
	H403	H	0.955225	1.189127	1.092603
	H404	H	0.966138	1.185889	1.102076
	O405	O	0.973205	0.960344	0.042419
	H406	H	0.980970	0.968754	0.025619
	H407	H	0.959182	0.940476	0.036257
	O408	O	0.796847	-0.027344	0.223439
	H409	H	0.834166	-0.004101	0.240478
	H410	H	0.771840	-0.021404	0.243710
	O411	O	0.310715	1.573482	0.320228
	H412	H	0.313715	1.591105	0.333234
	H413	H	0.312539	1.559800	0.306684
	O414	O	0.294727	0.277337	0.529376
	H415	H	0.322583	0.272801	0.505567
	H416	H	0.276375	0.241004	0.521483
	O417	O	0.393332	0.472835	0.725365
	H418	H	0.400029	0.436235	0.719553
	H419	H	0.381294	0.461799	0.746562
	O420	O	-0.172423	-0.190734	0.197579
	H421	H	-0.184326	-0.137029	0.206045
	H422	H	-0.185089	-0.201215	0.144423
	O423	O	0.191461	0.980581	-0.171019
	H424	H	0.210017	0.980411	-0.188749
	H425	H	0.152061	1.001821	-0.188450
	O426	O	0.789184	0.007272	-0.193122
	H427	H	0.798142	0.044615	-0.186068
	H428	H	0.762706	0.003884	-0.214208
	O429	O	1.216902	0.779416	0.002242
	H430	H	1.208547	0.800879	-0.041820
	H431	H	1.238896	0.744895	-0.000927
	O432	O	0.474925	0.477828	0.464361
	H433	H	0.474892	0.455081	0.473299
	H434	H	0.481369	0.494278	0.462083
	O435	O	0.315843	0.676679	0.394898
	H436	H	0.353823	0.676597	0.394285
	H437	H	0.305112	0.693990	0.420630
	O438	O	0.282195	0.636312	-0.482054
	H439	H	0.277514	0.615578	-0.476881
	H440	H	0.260572	0.649883	-0.487571
	O441	O	0.984806	-0.226485	0.232991
	H442	H	0.947921	-0.226534	0.227597
	H443	H	0.964659	-0.251491	0.258668
	O444	O	0.219721	1.015598	1.223470
	H445	H	0.206431	0.990046	1.227324
	H446	H	0.235677	1.004381	1.247438
	O447	O	0.518269	0.441166	0.491747
	H448	H	0.519001	0.451110	0.495650
	H449	H	0.508450	0.446860	0.489171
	O450	O	0.210936	1.207432	1.033333
	H451	H	0.226540	1.174337	1.009333
	H452	H	0.221810	1.226125	1.020645
	O453	O	0.724443	0.474594	0.534879
	H454	H	0.715723	0.483702	0.560787
	H455	H	0.724590	0.502444	0.538163
