data_Molecule from HDF5

_cell_length_a		16.293244
_cell_length_b		16.212472
_cell_length_c		16.158880
_cell_angle_alpha	89.704284
_cell_angle_beta	89.796310
_cell_angle_gamma	90.036041
_symmetry_space_group_name_H-M	'P 1'
_symmetry_Int_Tables_number		1

loop_
	_symmetry_equiv_pos_as_xyz
	x,y,z

loop_
	_atom_site_label
	_atom_site_type_symbol
	_atom_site_fract_x
	_atom_site_fract_y
	_atom_site_fract_z
	H0	H	0.389187	0.842562	0.714556
	H1	H	0.587076	0.170246	0.711965
	H2	H	0.586671	0.841027	0.285858
	H3	H	0.388610	0.169883	0.283004
	H4	H	0.705617	0.406872	0.836301
	H5	H	0.704877	0.604479	0.165148
	H6	H	0.277040	0.608084	0.835546
	H7	H	0.273579	0.404397	0.163029
	H8	H	0.826105	0.721953	0.397365
	H9	H	0.151755	0.721064	0.596505
	H10	H	0.826670	0.286572	0.603831
	H11	H	0.151787	0.288454	0.397859
	H12	H	0.827118	0.404826	0.717820
	H13	H	0.152892	0.605376	0.712005
	H14	H	0.826496	0.605159	0.283493
	H15	H	0.153773	0.408858	0.285741
	H16	H	0.394072	0.718756	0.835068
	H17	H	0.587811	0.719174	0.165528
	H18	H	0.591268	0.291394	0.836180
	H19	H	0.388968	0.289538	0.163567
	H20	H	0.704095	0.841818	0.398337
	H21	H	0.706337	0.168091	0.600869
	H22	H	0.272000	0.842881	0.601536
	H23	H	0.271850	0.168950	0.396666
	H24	H	0.892197	0.341688	0.214228
	H25	H	0.088509	0.670687	0.211893
	H26	H	0.089962	0.341438	0.784953
	H27	H	0.892810	0.670305	0.785195
	H28	H	0.205676	0.905254	0.335941
	H29	H	0.202661	0.104929	0.662937
	H30	H	0.773386	0.107978	0.335365
	H31	H	0.772649	0.903272	0.662394
	H32	H	0.326516	0.223113	0.898976
	H33	H	0.652491	0.219556	0.098406
	H34	H	0.325346	0.789213	0.100275
	H35	H	0.653107	0.792077	0.900330
	H36	H	0.325330	0.905591	0.215723
	H37	H	0.652170	0.104437	0.213480
	H38	H	0.324883	0.105571	0.785360
	H39	H	0.652000	0.907853	0.783273
	H40	H	0.889318	0.221448	0.335158
	H41	H	0.088442	0.218700	0.663132
	H42	H	0.087181	0.794792	0.333388
	H43	H	0.887929	0.789385	0.662249
	H44	H	0.207926	0.342730	0.898664
	H45	H	0.205107	0.669783	0.098123
	H46	H	0.774649	0.342475	0.103019
	H47	H	0.773626	0.668352	0.897085
	H48	H	0.390272	0.125978	0.594613
	H49	H	0.577773	0.890250	0.588590
	H50	H	0.580958	0.122354	0.406508
	H51	H	0.407614	0.895506	0.416621
	H52	H	0.592373	0.406378	0.122736
	H53	H	0.582832	0.609255	0.880509
	H54	H	0.403573	0.598312	0.116222
	H55	H	0.395559	0.419087	0.882521
	H56	H	0.108516	0.607248	0.402834
	H57	H	0.874883	0.592432	0.588553
	H58	H	0.107277	0.410783	0.595011
	H59	H	0.869855	0.407820	0.404189
	H60	H	0.104979	0.408851	0.586983
	H61	H	0.870991	0.597116	0.598268
	H62	H	0.103862	0.600508	0.411002
	H63	H	0.874733	0.413352	0.414760
	H64	H	0.392657	0.602085	0.120431
	H65	H	0.591678	0.593885	0.881806
	H66	H	0.583150	0.425277	0.114184
	H67	H	0.403696	0.415072	0.884135
	H68	H	0.582228	0.122534	0.407364
	H69	H	0.583424	0.889218	0.589272
	H70	H	0.398708	0.123062	0.592782
	H71	H	0.383245	0.886990	0.415876
	H72	H	0.899491	0.618930	0.078855
	H73	H	0.079789	0.389441	0.091711
	H74	H	0.095439	0.628354	0.900577
	H75	H	0.891817	0.386939	0.909673
	H76	H	0.081473	0.913298	0.617359
	H77	H	0.082143	0.087665	0.383803
	H78	H	0.898117	0.094045	0.615380
	H79	H	0.897751	0.906175	0.378431
	H80	H	0.605468	0.101299	0.908152
	H81	H	0.374064	0.089477	0.094704
	H82	H	0.610504	0.904123	0.100623
	H83	H	0.373273	0.912502	0.909306
	H84	H	0.602675	0.908238	0.080014
	H85	H	0.368824	0.104954	0.097009
	H86	H	0.604134	0.094155	0.906154
	H87	H	0.372005	0.912893	0.904611
	H88	H	0.896745	0.097605	0.616706
	H89	H	0.071394	0.102947	0.382662
	H90	H	0.078956	0.912898	0.615925
	H91	H	0.887999	0.916795	0.378592
	H92	H	0.075634	0.622766	0.897711
	H93	H	0.086241	0.388956	0.088076
	H94	H	0.885423	0.627608	0.093505
	H95	H	0.901354	0.387683	0.902843
	H96	H	0.392253	0.122779	0.585994
	H97	H	0.578917	0.887845	0.594514
	H98	H	0.582474	0.122871	0.406039
	H99	H	0.397808	0.885190	0.394456
	H100	H	0.571140	0.406312	0.116287
	H101	H	0.574705	0.594340	0.887216
	H102	H	0.394206	0.590766	0.116823
	H103	H	0.397309	0.409450	0.879815
	H104	H	0.106813	0.596200	0.400423
	H105	H	0.870982	0.603556	0.588352
	H106	H	0.103950	0.416791	0.589418
	H107	H	0.873613	0.419809	0.403346
	H108	H	0.905488	0.623245	0.099683
	H109	H	0.085192	0.387623	0.095873
	H110	H	0.083627	0.619583	0.915835
	H111	H	0.901480	0.391038	0.913850
	H112	H	0.080479	0.910905	0.616830
	H113	H	0.089823	0.103837	0.376031
	H114	H	0.894603	0.094087	0.616864
	H115	H	0.900958	0.919103	0.384329
	H116	H	0.606559	0.099490	0.901636
	H117	H	0.375004	0.100514	0.082513
	H118	H	0.601677	0.924059	0.095586
	H119	H	0.370837	0.909409	0.907372
	C120	C	0.365413	0.015421	0.621121
	C121	C	0.609635	0.997178	0.619990
	C122	C	0.610582	0.013995	0.377476
	C123	C	0.366722	0.997273	0.378246
	C124	C	0.611624	0.384083	0.009138
	C125	C	0.611788	0.627666	0.991955
	C126	C	0.369056	0.627052	0.008829
	C127	C	0.368707	0.384671	0.990593
	C128	C	-0.001702	0.629275	0.375603
	C129	C	0.980362	0.627039	0.619733
	C130	C	-0.001805	0.382374	0.621613
	C131	C	0.980833	0.384653	0.378107
	C132	C	0.868268	0.514626	0.121286
	C133	C	0.111615	0.497494	0.120284
	C134	C	0.113733	0.514792	0.875995
	C135	C	0.869179	0.496844	0.878647
	C136	C	0.109557	0.884310	0.507845
	C137	C	0.110065	0.126528	0.489846
	C138	C	0.867168	0.126559	0.507989
	C139	C	0.866530	0.883930	0.489467
	C140	C	0.497455	0.127739	0.876863
	C141	C	0.480400	0.126960	0.120517
	C142	C	0.497212	0.883203	0.121661
	C143	C	0.480379	0.883625	0.877748
	C144	C	0.368094	0.891741	0.677223
	C145	C	0.607867	0.120666	0.675282
	C146	C	0.607627	0.890327	0.322798
	C147	C	0.368602	0.120656	0.321309
	C148	C	0.667861	0.386071	0.885495
	C149	C	0.667296	0.625100	0.115780
	C150	C	0.314877	0.626613	0.884764
	C151	C	0.312042	0.385250	0.114136
	C152	C	0.875151	0.684170	0.377522
	C153	C	0.103157	0.683025	0.616989
	C154	C	0.875464	0.325605	0.622441
	C155	C	0.103456	0.327876	0.378784
	C156	C	0.875623	0.384268	0.679272
	C157	C	0.103722	0.625293	0.674448
	C158	C	0.875303	0.626179	0.320685
	C159	C	0.104410	0.387632	0.322903
	C160	C	0.372835	0.682203	0.884523
	C161	C	0.609115	0.682148	0.115914
	C162	C	0.610791	0.328785	0.885411
	C163	C	0.369532	0.328103	0.114486
	C164	C	0.666108	0.890749	0.378939
	C165	C	0.667116	0.119622	0.619580
	C166	C	0.310062	0.891931	0.620846
	C167	C	0.310317	0.120297	0.377833
	C168	C	0.871285	0.390962	0.177062
	C169	C	0.108999	0.621120	0.174901
	C170	C	0.110492	0.390891	0.822051
	C171	C	0.871836	0.620566	0.822441
	C172	C	0.166601	0.886020	0.384542
	C173	C	0.165360	0.124686	0.613468
	C174	C	0.811596	0.127040	0.384419
	C175	C	0.810273	0.883671	0.613066
	C176	C	0.375045	0.184449	0.879047
	C177	C	0.603680	0.182015	0.118649
	C178	C	0.373994	0.827730	0.120187
	C179	C	0.603724	0.828967	0.879565
	C180	C	0.374189	0.885566	0.177617
	C181	C	0.603280	0.124571	0.175877
	C182	C	0.374127	0.125937	0.822421
	C183	C	0.603212	0.886997	0.821750
	C184	C	0.869296	0.183454	0.384274
	C185	C	0.108129	0.181391	0.613780
	C186	C	0.107881	0.830851	0.383347
	C187	C	0.868188	0.827403	0.613246
	C188	C	0.169363	0.391573	0.878588
	C189	C	0.166737	0.621029	0.117866
	C190	C	0.812659	0.391392	0.121745
	C191	C	0.812770	0.619874	0.878495
	C192	C	0.387262	0.101595	0.598013
	C193	C	0.586820	0.911300	0.597556
	C194	C	0.588355	0.100192	0.400052
	C195	C	0.389463	0.911360	0.402177
	C196	C	0.588925	0.406190	0.095380
	C197	C	0.589633	0.605686	0.905567
	C198	C	0.390519	0.603906	0.095521
	C199	C	0.391964	0.407727	0.904517
	C200	C	0.084277	0.607755	0.398233
	C201	C	0.894563	0.604468	0.598031
	C202	C	0.083260	0.405334	0.597591
	C203	C	0.895147	0.407087	0.400752
	C204	C	0.890119	0.601046	0.097658
	C205	C	0.089998	0.410949	0.098354
	C206	C	0.091638	0.601200	0.898164
	C207	C	0.891729	0.410830	0.902079
	C208	C	0.087033	0.905979	0.594453
	C209	C	0.087837	0.104565	0.403250
	C210	C	0.889823	0.102433	0.593870
	C211	C	0.889126	0.907332	0.402894
	C212	C	0.583246	0.105114	0.898902
	C213	C	0.394843	0.104887	0.097994
	C214	C	0.582984	0.905522	0.098821
	C215	C	0.394278	0.905138	0.900529
	Zn216	Zn	0.487663	0.006307	0.748225
	Zn217	Zn	0.488658	0.005681	0.249739
	Zn218	Zn	0.739949	0.505097	0.000582
	Zn219	Zn	0.241127	0.506554	-0.000770
	Zn220	Zn	-0.011584	0.756729	0.498245
	Zn221	Zn	-0.011204	0.254517	0.499175
	Zn222	Zn	-0.009947	0.505582	0.749255
	Zn223	Zn	-0.010312	0.506564	0.248653
	Zn224	Zn	0.489036	0.755160	0.000253
	Zn225	Zn	0.489806	0.256182	-0.000311
	Zn226	Zn	0.739132	0.005520	0.498758
	Zn227	Zn	0.237687	0.005503	0.499127
	N228	N	0.401770	0.969535	0.677569
	N229	N	0.572651	0.043659	0.675659
	N230	N	0.573648	0.967923	0.321835
	N231	N	0.402950	0.043125	0.321481
	N232	N	0.668424	0.419659	0.963334
	N233	N	0.669117	0.591913	0.037544
	N234	N	0.312383	0.592918	0.963026
	N235	N	0.311432	0.419661	0.036005
	N236	N	0.952650	0.686132	0.411252
	N237	N	0.025372	0.684529	0.583813
	N238	N	0.952620	0.324242	0.587311
	N239	N	0.025850	0.326054	0.412569
	N240	N	0.952811	0.418790	0.679070
	N241	N	0.026525	0.591063	0.676086
	N242	N	0.952886	0.593092	0.319279
	N243	N	0.027280	0.422214	0.322300
	N244	N	0.405855	0.682312	0.962822
	N245	N	0.575366	0.683936	0.038042
	N246	N	0.576202	0.327530	0.963323
	N247	N	0.404020	0.327450	0.036784
	N248	N	0.668159	0.968818	0.411999
	N249	N	0.668180	0.041805	0.585844
	N250	N	0.308210	0.969858	0.586627
	N251	N	0.309128	0.042610	0.412659
	N252	N	0.904966	0.468690	0.176973
	N253	N	0.075424	0.543178	0.176316
	N254	N	0.076703	0.468652	0.820353
	N255	N	0.906092	0.542890	0.822423
	N256	N	0.167959	0.918619	0.463003
	N257	N	0.166774	0.091366	0.535347
	N258	N	0.809900	0.092541	0.462518
	N259	N	0.809406	0.918348	0.535117
	N260	N	0.452807	0.185778	0.912217
	N261	N	0.526393	0.183550	0.084699
	N262	N	0.451568	0.826153	0.086099
	N263	N	0.526314	0.827082	0.914014
	N264	N	0.451619	0.919432	0.178531
	N265	N	0.525656	0.091134	0.177158
	N266	N	0.451076	0.091270	0.821120
	N267	N	0.525407	0.919866	0.820203
	N268	N	0.903310	0.183147	0.462067
	N269	N	0.074437	0.182685	0.535788
	N270	N	0.073039	0.829713	0.461020
	N271	N	0.902419	0.827417	0.535321
	N272	N	0.171487	0.469788	0.911328
	N273	N	0.168869	0.542997	0.084802
	N274	N	0.810712	0.469359	0.087589
	N275	N	0.810812	0.541974	0.912826
	O276	O	0.023193	-0.009162	-0.054053
	H277	H	0.026957	-0.010418	-0.058977
	H278	H	0.028741	-0.002715	-0.054655
	O279	O	0.552410	0.444668	0.479366
	H280	H	0.548648	0.437226	0.483290
	H281	H	0.545974	0.450590	0.491961
	O282	O	0.544964	0.400328	0.426919
	H283	H	0.547207	0.414013	0.417979
	H284	H	0.533986	0.397686	0.433915
	O285	O	-0.018307	0.993941	0.019521
	H286	H	-0.004302	0.994216	0.018475
	H287	H	-0.020486	0.998250	0.017008
	O288	O	0.482920	0.473485	0.471685
	H289	H	0.482051	0.488694	0.478617
	H290	H	0.484636	0.462128	0.459808
	O291	O	0.897390	0.994665	1.034535
	H292	H	0.894845	0.984628	1.034154
	H293	H	0.888076	0.991687	1.042764
	O294	O	1.027105	0.948611	0.991513
	H295	H	1.015664	0.957512	0.988845
	H296	H	1.025821	0.960485	0.986957
	O297	O	0.911197	-0.027760	1.008147
	H298	H	0.918189	-0.026804	1.009347
	H299	H	0.899994	-0.031593	1.002814
	O300	O	0.489701	0.630936	0.544794
	H301	H	0.490445	0.634282	0.553593
	H302	H	0.496002	0.635303	0.552623
	O303	O	0.921643	-0.027137	0.058550
	H304	H	0.919417	-0.029270	0.052898
	H305	H	0.928609	-0.036584	0.057772
	O306	O	-0.008574	0.999789	1.031029
	H307	H	-0.010854	0.990790	1.031287
	H308	H	-0.005850	0.995545	1.023818
	O309	O	0.412564	0.563755	0.512368
	H310	H	0.415682	0.564519	0.512051
	H311	H	0.402306	0.565955	0.515626
	O312	O	0.934667	0.041608	0.981391
	H313	H	0.934089	0.036256	0.982306
	H314	H	0.937041	0.047188	0.995982
	O315	O	0.943145	1.061487	-0.015898
	H316	H	0.943078	1.056191	-0.019630
	H317	H	0.933159	1.059430	-0.004973
	O318	O	0.325415	0.372466	0.582625
	H319	H	0.333488	0.355869	0.588307
	H320	H	0.307936	0.371447	0.589548
	O321	O	1.010041	1.027728	0.903323
	H322	H	1.014476	1.021535	0.903957
	H323	H	1.012500	1.031768	0.906133
	O324	O	0.421324	0.459916	0.389564
	H325	H	0.436020	0.456859	0.394918
	H326	H	0.432244	0.457829	0.386054
	O327	O	0.551562	0.440528	0.363351
	H328	H	0.560189	0.452683	0.357669
	H329	H	0.551186	0.436505	0.352255
	O330	O	1.053270	0.031958	0.937007
	H331	H	1.050931	0.035134	0.934364
	H332	H	1.043666	0.028531	0.943437
	O333	O	1.058428	1.075746	-0.008082
	H334	H	1.065742	1.085802	-0.009494
	H335	H	1.055938	1.072344	-0.003244
	O336	O	0.422433	0.566919	0.584723
	H337	H	0.424027	0.562783	0.600514
	H338	H	0.426409	0.546535	0.588378
	O339	O	0.441815	0.589237	0.495976
	H340	H	0.442050	0.588618	0.497339
	H341	H	0.436716	0.594269	0.501806
	O342	O	0.502570	0.498275	0.642029
	H343	H	0.500579	0.485034	0.644995
	H344	H	0.493993	0.503096	0.638701
	O345	O	0.032955	-0.049177	-0.033638
	H346	H	0.041754	-0.044239	-0.030108
	H347	H	0.025557	-0.041733	-0.042905
	O348	O	0.546001	0.585312	0.527776
	H349	H	0.537981	0.585149	0.524041
	H350	H	0.552897	0.584285	0.520125
	O351	O	0.551670	0.548705	0.502884
	H352	H	0.550952	0.561627	0.495336
	H353	H	0.555316	0.549940	0.502762
	O354	O	0.463459	0.469822	0.443613
	H355	H	0.463379	0.465733	0.433152
	H356	H	0.458214	0.473797	0.451805
	O357	O	0.455853	0.426584	0.504811
	H358	H	0.445302	0.418307	0.503108
	H359	H	0.461823	0.423973	0.495868
	O360	O	0.616470	-0.436073	0.539684
	H361	H	0.603375	-0.442151	0.541614
	H362	H	0.612254	-0.450557	0.545466
	O363	O	0.454793	0.396339	0.561221
	H364	H	0.456519	0.396803	0.570073
	H365	H	0.450510	0.401038	0.558965
	O366	O	-0.006409	0.022111	0.977666
	H367	H	-0.009985	0.009434	0.972531
	H368	H	-0.002328	0.022831	0.975307
	O369	O	0.588117	0.451083	0.583148
	H370	H	0.590374	0.453464	0.573544
	H371	H	0.601579	0.457310	0.580473
