data_Molecule from HDF5

_cell_length_a		16.251704
_cell_length_b		16.291658
_cell_length_c		16.201836
_cell_angle_alpha	89.978560
_cell_angle_beta	90.053366
_cell_angle_gamma	90.214690
_symmetry_space_group_name_H-M	'P 1'
_symmetry_Int_Tables_number		1

loop_
	_symmetry_equiv_pos_as_xyz
	x,y,z

loop_
	_atom_site_label
	_atom_site_type_symbol
	_atom_site_fract_x
	_atom_site_fract_y
	_atom_site_fract_z
	H0	H	0.404314	0.832972	0.714091
	H1	H	0.602630	0.160859	0.715217
	H2	H	0.600493	0.832670	0.288537
	H3	H	0.406168	0.160703	0.285185
	H4	H	0.716180	0.397269	0.836616
	H5	H	0.717398	0.594554	0.164970
	H6	H	0.289154	0.593977	0.837161
	H7	H	0.289337	0.395799	0.164740
	H8	H	0.838605	0.710636	0.402513
	H9	H	0.166948	0.713383	0.601627
	H10	H	0.839756	0.280265	0.600099
	H11	H	0.166191	0.282089	0.400052
	H12	H	0.838688	0.397937	0.714726
	H13	H	0.167351	0.595442	0.715054
	H14	H	0.838669	0.594303	0.286260
	H15	H	0.167395	0.400834	0.288170
	H16	H	0.403228	0.711167	0.836870
	H17	H	0.604541	0.711115	0.164302
	H18	H	0.601260	0.282622	0.836466
	H19	H	0.404465	0.281024	0.165036
	H20	H	0.718421	0.833905	0.401862
	H21	H	0.718646	0.160704	0.599152
	H22	H	0.286310	0.834661	0.600748
	H23	H	0.288998	0.161125	0.399761
	H24	H	0.904590	0.332532	0.214897
	H25	H	0.102949	0.660865	0.214704
	H26	H	0.100934	0.332913	0.785293
	H27	H	0.906991	0.661494	0.787824
	H28	H	0.216696	0.899297	0.336277
	H29	H	0.217955	0.096303	0.664195
	H30	H	0.789721	0.095033	0.336466
	H31	H	0.788675	0.897081	0.664678
	H32	H	0.339270	0.210543	0.900706
	H33	H	0.666611	0.211845	0.101184
	H34	H	0.340407	0.780628	0.099295
	H35	H	0.667202	0.781219	0.900363
	H36	H	0.339410	0.896947	0.214560
	H37	H	0.667508	0.094915	0.214693
	H38	H	0.339442	0.093230	0.785944
	H39	H	0.668167	0.898791	0.786261
	H40	H	0.903939	0.210593	0.335870
	H41	H	0.103186	0.212408	0.664194
	H42	H	0.102871	0.782097	0.336718
	H43	H	0.903578	0.782179	0.664330
	H44	H	0.217189	0.332245	0.901960
	H45	H	0.220793	0.659434	0.100588
	H46	H	0.788749	0.332504	0.098499
	H47	H	0.787684	0.659717	0.900232
	H48	H	0.406601	0.116271	0.597765
	H49	H	0.590309	0.878068	0.608406
	H50	H	0.603017	0.114709	0.412528
	H51	H	0.404721	0.881887	0.415948
	H52	H	0.585719	0.403809	0.115255
	H53	H	0.593636	0.587692	0.884212
	H54	H	0.412450	0.596687	0.119953
	H55	H	0.417507	0.401398	0.884739
	H56	H	0.115501	0.582115	0.413314
	H57	H	0.888194	0.589850	0.588990
	H58	H	0.119077	0.406050	0.592349
	H59	H	0.886968	0.410488	0.403589
	H60	H	0.120132	0.404721	0.593653
	H61	H	0.886475	0.587221	0.596046
	H62	H	0.122177	0.590565	0.397846
	H63	H	0.882259	0.396189	0.404056
	H64	H	0.404742	0.584369	0.118868
	H65	H	0.595360	0.590158	0.882860
	H66	H	0.600677	0.393333	0.122321
	H67	H	0.405452	0.396051	0.880635
	H68	H	0.598725	0.116734	0.400289
	H69	H	0.588139	0.886414	0.581815
	H70	H	0.416687	0.113173	0.595773
	H71	H	0.405329	0.877309	0.400990
	H72	H	0.903392	0.615861	0.095224
	H73	H	0.102316	0.379109	0.091181
	H74	H	0.097340	0.611238	0.911261
	H75	H	0.911456	0.380629	0.905602
	H76	H	0.087526	0.900291	0.617356
	H77	H	0.097896	0.090854	0.382214
	H78	H	0.908052	0.080210	0.616276
	H79	H	0.909486	0.902408	0.382069
	H80	H	0.623041	0.091353	0.899347
	H81	H	0.389525	0.084953	0.085627
	H82	H	0.621193	0.902252	0.094297
	H83	H	0.384894	0.896369	0.906644
	H84	H	0.620535	0.903190	0.093443
	H85	H	0.386384	0.082944	0.099066
	H86	H	0.620643	0.097106	0.914216
	H87	H	0.389992	0.905589	0.915306
	H88	H	0.921180	0.090928	0.615108
	H89	H	0.096009	0.089726	0.383235
	H90	H	0.103760	0.902153	0.620939
	H91	H	0.910526	0.905782	0.383900
	H92	H	0.099150	0.613999	0.907567
	H93	H	0.095933	0.378543	0.101787
	H94	H	0.915157	0.612696	0.098455
	H95	H	0.911414	0.381496	0.910053
	H96	H	0.409971	0.112624	0.587835
	H97	H	0.611887	0.876356	0.591372
	H98	H	0.590897	0.111238	0.409519
	H99	H	0.417898	0.883362	0.408900
	H100	H	0.602621	0.411516	0.117384
	H101	H	0.596949	0.587008	0.883632
	H102	H	0.419015	0.585158	0.115234
	H103	H	0.406260	0.409241	0.883909
	H104	H	0.120756	0.600214	0.413554
	H105	H	0.885164	0.593841	0.595003
	H106	H	0.118924	0.403985	0.591536
	H107	H	0.888687	0.402468	0.416684
	H108	H	0.912212	0.610767	0.086730
	H109	H	0.090609	0.382545	0.090806
	H110	H	0.095350	0.612079	0.907210
	H111	H	0.907675	0.379891	0.908341
	H112	H	0.094215	0.914780	0.614425
	H113	H	0.095406	0.091776	0.382366
	H114	H	0.906311	0.096769	0.621568
	H115	H	0.913201	0.902670	0.383320
	H116	H	0.616458	0.082129	0.911382
	H117	H	0.384357	0.095571	0.093142
	H118	H	0.621139	0.904028	0.094880
	H119	H	0.387993	0.908177	0.902888
	C120	C	0.382178	0.005419	0.622124
	C121	C	0.625845	0.988491	0.622457
	C122	C	0.625488	0.005817	0.379339
	C123	C	0.381309	0.988921	0.379005
	C124	C	0.624528	0.374756	0.009510
	C125	C	0.624802	0.617107	0.992142
	C126	C	0.382617	0.617411	0.009596
	C127	C	0.381628	0.373608	0.992056
	C128	C	0.011137	0.619096	0.379444
	C129	C	0.994861	0.619270	0.622579
	C130	C	0.011149	0.375294	0.622023
	C131	C	0.994180	0.375257	0.379261
	C132	C	0.881512	0.504733	0.121823
	C133	C	0.125488	0.488230	0.122808
	C134	C	0.125202	0.504437	0.879283
	C135	C	0.881734	0.488600	0.879034
	C136	C	0.124655	0.876119	0.509161
	C137	C	0.125216	0.119465	0.491340
	C138	C	0.882996	0.117834	0.509007
	C139	C	0.882141	0.875229	0.491687
	C140	C	0.511963	0.118240	0.878876
	C141	C	0.494878	0.117047	0.121703
	C142	C	0.512621	0.874195	0.122590
	C143	C	0.495668	0.874698	0.878906
	C144	C	0.384532	0.881886	0.676191
	C145	C	0.622920	0.111877	0.677282
	C146	C	0.621913	0.882039	0.325221
	C147	C	0.384892	0.111900	0.323007
	C148	C	0.679010	0.377199	0.885716
	C149	C	0.679976	0.614743	0.115863
	C150	C	0.327016	0.614829	0.886064
	C151	C	0.327141	0.375816	0.115865
	C152	C	0.887642	0.673308	0.381804
	C153	C	0.118104	0.675009	0.621057
	C154	C	0.888361	0.318884	0.620322
	C155	C	0.117721	0.320495	0.380698
	C156	C	0.887719	0.377579	0.676876
	C157	C	0.118336	0.616542	0.677576
	C158	C	0.887598	0.615502	0.324163
	C159	C	0.118166	0.379136	0.324816
	C160	C	0.383665	0.672989	0.885980
	C161	C	0.623987	0.672909	0.115477
	C162	C	0.621804	0.319972	0.885733
	C163	C	0.384415	0.318869	0.116027
	C164	C	0.680381	0.882613	0.381725
	C165	C	0.680639	0.111817	0.619426
	C166	C	0.325605	0.882848	0.619974
	C167	C	0.326950	0.112127	0.380338
	C168	C	0.884544	0.381402	0.176749
	C169	C	0.123225	0.611643	0.177348
	C170	C	0.122006	0.381599	0.823387
	C171	C	0.885120	0.612117	0.824321
	C172	C	0.179290	0.878581	0.385394
	C173	C	0.180537	0.117202	0.615110
	C174	C	0.827591	0.115683	0.385329
	C175	C	0.826444	0.877178	0.615385
	C176	C	0.388135	0.172555	0.880959
	C177	C	0.617943	0.173454	0.120655
	C178	C	0.389335	0.818468	0.120086
	C179	C	0.618527	0.819331	0.880710
	C180	C	0.388807	0.876136	0.177488
	C181	C	0.618324	0.115218	0.177217
	C182	C	0.388322	0.114656	0.823638
	C183	C	0.618950	0.877834	0.823802
	C184	C	0.884341	0.173067	0.385138
	C185	C	0.123544	0.174877	0.614816
	C186	C	0.122726	0.820394	0.385671
	C187	C	0.883885	0.820265	0.615545
	C188	C	0.179720	0.381282	0.881517
	C189	C	0.182073	0.610922	0.120772
	C190	C	0.826726	0.381377	0.119161
	C191	C	0.826004	0.611212	0.880446
	C192	C	0.404476	0.091644	0.600115
	C193	C	0.603493	0.902438	0.600334
	C194	C	0.603935	0.091902	0.401184
	C195	C	0.402930	0.903138	0.401812
	C196	C	0.602805	0.396529	0.096025
	C197	C	0.602007	0.594758	0.905901
	C198	C	0.405395	0.595152	0.095689
	C199	C	0.403285	0.395767	0.905729
	C200	C	0.097131	0.597497	0.401702
	C201	C	0.908823	0.597019	0.600107
	C202	C	0.097150	0.398181	0.599201
	C203	C	0.908318	0.396597	0.401506
	C204	C	0.903644	0.590858	0.099659
	C205	C	0.102842	0.402202	0.100978
	C206	C	0.103670	0.590275	0.902011
	C207	C	0.903767	0.402876	0.901448
	C208	C	0.102004	0.899015	0.595191
	C209	C	0.103076	0.097349	0.404960
	C210	C	0.905283	0.095881	0.595346
	C211	C	0.904397	0.897276	0.405445
	C212	C	0.597809	0.096713	0.901641
	C213	C	0.408823	0.094579	0.099117
	C214	C	0.598726	0.896487	0.100599
	C215	C	0.409713	0.896777	0.901545
	Zn216	Zn	0.503626	-0.003531	0.750444
	Zn217	Zn	0.503578	-0.003792	0.250752
	Zn218	Zn	0.752947	0.496112	0.000600
	Zn219	Zn	0.254200	0.495482	0.001325
	Zn220	Zn	0.003231	0.747724	0.501188
	Zn221	Zn	0.002907	0.246923	0.499971
	Zn222	Zn	0.002939	0.497216	0.750089
	Zn223	Zn	0.003173	0.496851	0.251372
	Zn224	Zn	0.503912	0.745665	0.000710
	Zn225	Zn	0.503224	0.246407	0.001095
	Zn226	Zn	0.754711	-0.002895	0.500382
	Zn227	Zn	0.252753	-0.002240	0.500418
	N228	N	0.418736	0.959239	0.677796
	N229	N	0.589572	0.034059	0.679303
	N230	N	0.588408	0.959577	0.323545
	N231	N	0.417890	0.034245	0.321953
	N232	N	0.680761	0.410541	0.963706
	N233	N	0.680752	0.580842	0.038075
	N234	N	0.326124	0.581002	0.963818
	N235	N	0.325096	0.409077	0.037789
	N236	N	0.965538	0.675657	0.415311
	N237	N	0.040360	0.676772	0.587525
	N238	N	0.966231	0.317451	0.586888
	N239	N	0.039848	0.317959	0.413730
	N240	N	0.965269	0.411885	0.677935
	N241	N	0.040723	0.582662	0.678540
	N242	N	0.965323	0.582561	0.322499
	N243	N	0.040531	0.412571	0.323805
	N244	N	0.417542	0.674693	0.963890
	N245	N	0.590311	0.674637	0.037539
	N246	N	0.588538	0.318279	0.963669
	N247	N	0.417577	0.317413	0.038040
	N248	N	0.682717	0.960463	0.414598
	N249	N	0.682624	0.034063	0.586253
	N250	N	0.324193	0.960753	0.587095
	N251	N	0.324557	0.034727	0.414496
	N252	N	0.918048	0.459208	0.178603
	N253	N	0.088936	0.534262	0.178969
	N254	N	0.088980	0.459221	0.821868
	N255	N	0.919129	0.534853	0.823294
	N256	N	0.180515	0.912557	0.463066
	N257	N	0.181605	0.083254	0.537346
	N258	N	0.826582	0.082099	0.463103
	N259	N	0.825480	0.910902	0.537403
	N260	N	0.465962	0.174989	0.914585
	N261	N	0.540237	0.174637	0.086721
	N262	N	0.467131	0.817293	0.086528
	N263	N	0.540664	0.817116	0.914198
	N264	N	0.466375	0.909891	0.179229
	N265	N	0.540851	0.080673	0.177975
	N266	N	0.465944	0.081384	0.822403
	N267	N	0.541522	0.911644	0.822899
	N268	N	0.918262	0.174418	0.463067
	N269	N	0.090016	0.176375	0.536886
	N270	N	0.089411	0.818885	0.463774
	N271	N	0.917741	0.818925	0.537839
	N272	N	0.181814	0.458666	0.915592
	N273	N	0.183432	0.533170	0.087601
	N274	N	0.824853	0.459060	0.085901
	N275	N	0.823695	0.533426	0.913569
	O276	O	0.949564	0.958520	0.027221
	H277	H	0.946354	0.967185	0.026874
	H278	H	0.947322	0.968000	0.030384
	O279	O	0.000113	-0.024542	0.025840
	H280	H	-0.000149	-0.023047	0.024407
	H281	H	-0.003168	-0.022704	0.021122
	O282	O	-0.026092	0.067211	1.023704
	H283	H	-0.025210	0.072755	1.027975
	H284	H	-0.015363	0.066474	1.017525
	O285	O	0.430243	0.517047	0.609393
	H286	H	0.430513	0.521778	0.614503
	H287	H	0.428991	0.520060	0.615083
	O288	O	0.446506	0.607357	0.495736
	H289	H	0.440716	0.618809	0.487102
	H290	H	0.445031	0.613125	0.489462
	O291	O	0.432657	0.532813	0.455768
	H292	H	0.436625	0.522574	0.460986
	H293	H	0.432902	0.532456	0.455066
	O294	O	0.018540	-0.019981	-0.110033
	H295	H	0.012081	-0.019165	-0.109290
	H296	H	0.018267	-0.023344	-0.107906
	O297	O	0.446331	0.541168	0.525514
	H298	H	0.448432	0.541008	0.524680
	H299	H	0.440418	0.544479	0.513617
	O300	O	0.024962	1.056328	0.915401
	H301	H	0.023978	1.052189	0.912134
	H302	H	0.021689	1.058542	0.907359
	O303	O	0.436130	0.497503	0.503371
	H304	H	0.438120	0.509722	0.510366
	H305	H	0.436861	0.489473	0.504189
	O306	O	0.027292	-0.024573	0.935792
	H307	H	0.024887	-0.037104	0.934565
	H308	H	0.014704	-0.020266	0.949540
	O309	O	1.034653	0.990398	0.961605
	H310	H	1.043443	0.989348	0.952108
	H311	H	1.032106	0.978814	0.963170
	O312	O	0.446810	0.450112	0.537281
	H313	H	0.435244	0.444696	0.552359
	H314	H	0.442003	0.445642	0.537957
	O315	O	0.478265	0.586175	0.508348
	H316	H	0.474248	0.590289	0.502962
	H317	H	0.478664	0.574816	0.511535
	O318	O	0.009343	0.959587	-0.003951
	H319	H	0.013277	0.959800	-0.015031
	H320	H	0.005669	0.969300	-0.005825
	O321	O	0.985034	0.958277	-0.059326
	H322	H	0.985625	0.945481	-0.048042
	H323	H	0.994235	0.956928	-0.061119
