data_Molecule from HDF5

_cell_length_a		16.311233
_cell_length_b		16.467956
_cell_length_c		16.373805
_cell_angle_alpha	90.023566
_cell_angle_beta	90.080602
_cell_angle_gamma	89.930818
_symmetry_space_group_name_H-M	'P 1'
_symmetry_Int_Tables_number		1

loop_
	_symmetry_equiv_pos_as_xyz
	x,y,z

loop_
	_atom_site_label
	_atom_site_type_symbol
	_atom_site_fract_x
	_atom_site_fract_y
	_atom_site_fract_z
	H0	H	0.392842	0.848586	0.718139
	H1	H	0.612761	0.159970	0.715584
	H2	H	0.606993	0.845451	0.268499
	H3	H	0.395744	0.162381	0.268395
	H4	H	0.726922	0.398774	0.833097
	H5	H	0.725902	0.611936	0.149599
	H6	H	0.281346	0.610014	0.831780
	H7	H	0.285829	0.402217	0.151438
	H8	H	0.844839	0.724469	0.383783
	H9	H	0.161327	0.727914	0.601150
	H10	H	0.845953	0.280266	0.598777
	H11	H	0.162279	0.279667	0.383108
	H12	H	0.845654	0.396720	0.713970
	H13	H	0.163158	0.609634	0.712764
	H14	H	0.845358	0.610223	0.268647
	H15	H	0.164882	0.399540	0.272906
	H16	H	0.393648	0.728766	0.832924
	H17	H	0.609512	0.727161	0.149533
	H18	H	0.615372	0.279054	0.835131
	H19	H	0.395990	0.281994	0.149108
	H20	H	0.723208	0.843823	0.385132
	H21	H	0.728582	0.159427	0.598710
	H22	H	0.280859	0.846024	0.597955
	H23	H	0.279128	0.160691	0.383414
	H24	H	0.898232	0.345640	0.212470
	H25	H	0.113147	0.659879	0.217208
	H26	H	0.113960	0.347419	0.766648
	H27	H	0.895579	0.661209	0.765882
	H28	H	0.226074	0.896634	0.331848
	H29	H	0.226637	0.109307	0.649209
	H30	H	0.780010	0.110659	0.333486
	H31	H	0.780741	0.894149	0.648755
	H32	H	0.347224	0.231069	0.879926
	H33	H	0.661832	0.226919	0.098089
	H34	H	0.344793	0.782525	0.099470
	H35	H	0.660049	0.778916	0.881700
	H36	H	0.343908	0.899716	0.212522
	H37	H	0.661410	0.113008	0.214308
	H38	H	0.346190	0.113875	0.766187
	H39	H	0.661297	0.894585	0.766735
	H40	H	0.893088	0.228543	0.334570
	H41	H	0.113458	0.226314	0.648730
	H42	H	0.111993	0.778565	0.332896
	H43	H	0.894804	0.778441	0.648429
	H44	H	0.228525	0.347571	0.883841
	H45	H	0.225022	0.662786	0.096892
	H46	H	0.780757	0.347659	0.097670
	H47	H	0.782094	0.662827	0.884625
	H48	H	0.413877	0.116675	0.580508
	H49	H	0.591738	0.892942	0.572273
	H50	H	0.590963	0.115494	0.404010
	H51	H	0.416390	0.892592	0.404249
	H52	H	0.592988	0.415787	0.105173
	H53	H	0.592402	0.595512	0.876603
	H54	H	0.416395	0.595601	0.103849
	H55	H	0.424701	0.420175	0.881881
	H56	H	0.117716	0.587966	0.401651
	H57	H	0.891647	0.591972	0.573626
	H58	H	0.120846	0.408863	0.581165
	H59	H	0.889505	0.413490	0.404235
	H60	H	0.115760	0.415049	0.573126
	H61	H	0.891768	0.586418	0.578051
	H62	H	0.119261	0.595422	0.403738
	H63	H	0.890622	0.416327	0.403993
	H64	H	0.414264	0.595588	0.104901
	H65	H	0.591473	0.590320	0.878447
	H66	H	0.591517	0.419568	0.103066
	H67	H	0.416729	0.409229	0.874753
	H68	H	0.594353	0.117184	0.402403
	H69	H	0.595435	0.887180	0.582824
	H70	H	0.420816	0.114783	0.579635
	H71	H	0.412437	0.888885	0.399975
	H72	H	0.915745	0.619220	0.084025
	H73	H	0.096310	0.391492	0.076840
	H74	H	0.092478	0.615499	0.906492
	H75	H	0.919352	0.393957	0.902631
	H76	H	0.090473	0.913835	0.603363
	H77	H	0.093571	0.088148	0.377876
	H78	H	0.914342	0.092654	0.605870
	H79	H	0.913451	0.913562	0.376207
	H80	H	0.619993	0.096248	0.900363
	H81	H	0.390858	0.092308	0.075924
	H82	H	0.617123	0.914127	0.077222
	H83	H	0.393184	0.926329	0.903802
	H84	H	0.615426	0.918038	0.076512
	H85	H	0.388703	0.092746	0.081364
	H86	H	0.615931	0.094013	0.910913
	H87	H	0.385852	0.914208	0.898486
	H88	H	0.917404	0.087542	0.603057
	H89	H	0.086494	0.089757	0.380175
	H90	H	0.092437	0.914217	0.604366
	H91	H	0.915835	0.915087	0.378802
	H92	H	0.093088	0.618012	0.899761
	H93	H	0.097526	0.388378	0.084940
	H94	H	0.921569	0.615086	0.079870
	H95	H	0.915251	0.392807	0.906081
	H96	H	0.416087	0.114327	0.574080
	H97	H	0.584256	0.892821	0.581841
	H98	H	0.590957	0.116066	0.400328
	H99	H	0.419006	0.891705	0.398223
	H100	H	0.588855	0.416231	0.103471
	H101	H	0.587527	0.594078	0.878783
	H102	H	0.415135	0.593716	0.104122
	H103	H	0.410064	0.422766	0.877069
	H104	H	0.115944	0.590573	0.408949
	H105	H	0.889220	0.592817	0.580401
	H106	H	0.117350	0.419373	0.583130
	H107	H	0.889540	0.415006	0.401253
	H108	H	0.914054	0.616555	0.076093
	H109	H	0.089593	0.391868	0.082749
	H110	H	0.087034	0.615941	0.902452
	H111	H	0.915209	0.390743	0.901013
	H112	H	0.091658	0.915895	0.603205
	H113	H	0.090461	0.094377	0.376480
	H114	H	0.920279	0.093497	0.603575
	H115	H	0.916508	0.911474	0.377206
	H116	H	0.615479	0.085834	0.902751
	H117	H	0.388115	0.096674	0.077386
	H118	H	0.616873	0.917027	0.080575
	H119	H	0.392586	0.914637	0.912007
	C120	C	0.382165	0.012217	0.612538
	C121	C	0.624790	0.994722	0.612364
	C122	C	0.625038	0.011967	0.368846
	C123	C	0.381804	0.995227	0.368260
	C124	C	0.625238	0.383901	-0.000148
	C125	C	0.624249	0.626432	0.982643
	C126	C	0.381325	0.627360	-0.000429
	C127	C	0.383657	0.384368	0.982701
	C128	C	0.012502	0.624207	0.370576
	C129	C	0.995439	0.624135	0.611414
	C130	C	0.013300	0.381989	0.612587
	C131	C	0.995181	0.382109	0.370569
	C132	C	0.883356	0.512782	0.113026
	C133	C	0.126756	0.495065	0.114012
	C134	C	0.125695	0.512734	0.869475
	C135	C	0.882428	0.495924	0.869203
	C136	C	0.125193	0.880962	0.499182
	C137	C	0.124605	0.124026	0.482689
	C138	C	0.882968	0.124421	0.499879
	C139	C	0.882235	0.880770	0.482190
	C140	C	0.512754	0.126455	0.869506
	C141	C	0.494315	0.126813	0.112205
	C142	C	0.511542	0.884157	0.111522
	C143	C	0.494292	0.883260	0.869922
	C144	C	0.376724	0.895033	0.675892
	C145	C	0.629734	0.112808	0.674400
	C146	C	0.626244	0.892902	0.308492
	C147	C	0.377917	0.114363	0.307911
	C148	C	0.686782	0.380599	0.880795
	C149	C	0.685695	0.629711	0.101773
	C150	C	0.320688	0.628930	0.879839
	C151	C	0.324374	0.383087	0.103043
	C152	C	0.892859	0.684799	0.366457
	C153	C	0.113985	0.686752	0.617404
	C154	C	0.893579	0.320818	0.616099
	C155	C	0.114636	0.320290	0.365886
	C156	C	0.893398	0.378850	0.673490
	C157	C	0.115015	0.627721	0.672990
	C158	C	0.893072	0.627571	0.309148
	C159	C	0.115974	0.380231	0.311087
	C160	C	0.376794	0.688118	0.880289
	C161	C	0.627665	0.687223	0.101750
	C162	C	0.630878	0.321070	0.881631
	C163	C	0.379598	0.323338	0.101906
	C164	C	0.684093	0.892089	0.366713
	C165	C	0.687419	0.112603	0.616089
	C166	C	0.320785	0.893701	0.615800
	C167	C	0.319792	0.113551	0.365162
	C168	C	0.880355	0.393500	0.172595
	C169	C	0.130079	0.613026	0.176087
	C170	C	0.130531	0.394697	0.807614
	C171	C	0.877839	0.613983	0.806794
	C172	C	0.186180	0.878148	0.379720
	C173	C	0.186525	0.127344	0.601437
	C174	C	0.820206	0.128276	0.381350
	C175	C	0.821102	0.877182	0.601424
	C176	C	0.394641	0.189875	0.863145
	C177	C	0.613763	0.187416	0.115936
	C178	C	0.392087	0.823053	0.116292
	C179	C	0.612787	0.819785	0.864627
	C180	C	0.391726	0.881597	0.172619
	C181	C	0.613450	0.130500	0.173900
	C182	C	0.393960	0.130966	0.806806
	C183	C	0.613385	0.877926	0.807773
	C184	C	0.876992	0.187152	0.381751
	C185	C	0.129996	0.185659	0.601150
	C186	C	0.129227	0.819420	0.380222
	C187	C	0.878167	0.819349	0.600919
	C188	C	0.187837	0.394592	0.865978
	C189	C	0.185965	0.614425	0.116029
	C190	C	0.821404	0.394655	0.115640
	C191	C	0.821499	0.615095	0.866108
	C192	C	0.409152	0.093943	0.585707
	C193	C	0.598198	0.912484	0.586449
	C194	C	0.599776	0.094656	0.394703
	C195	C	0.408302	0.912774	0.393437
	C196	C	0.598520	0.409806	0.082370
	C197	C	0.597974	0.600854	0.899655
	C198	C	0.407697	0.602413	0.082777
	C199	C	0.409583	0.409816	0.899683
	C200	C	0.096018	0.598538	0.397017
	C201	C	0.912498	0.597928	0.585010
	C202	C	0.096115	0.407327	0.586787
	C203	C	0.911811	0.407590	0.395933
	C204	C	0.909698	0.595410	0.087467
	C205	C	0.101650	0.412032	0.088646
	C206	C	0.098622	0.594803	0.895534
	C207	C	0.908866	0.414055	0.895352
	C208	C	0.098964	0.906972	0.582022
	C209	C	0.097982	0.098136	0.399654
	C210	C	0.909709	0.098467	0.582552
	C211	C	0.907705	0.906216	0.399244
	C212	C	0.595322	0.099805	0.896866
	C213	C	0.411022	0.101156	0.085822
	C214	C	0.594503	0.909312	0.085476
	C215	C	0.412125	0.910590	0.897099
	Zn216	Zn	0.503670	0.004243	0.742055
	Zn217	Zn	0.503326	0.004700	0.239463
	Zn218	Zn	0.753617	0.505466	-0.008621
	Zn219	Zn	0.254680	0.504408	-0.008865
	Zn220	Zn	0.003755	0.752532	0.490731
	Zn221	Zn	0.004330	0.253507	0.491002
	Zn222	Zn	0.004319	0.503917	0.740420
	Zn223	Zn	0.004145	0.502984	0.242481
	Zn224	Zn	0.502248	0.755274	-0.008848
	Zn225	Zn	0.504097	0.255283	-0.008641
	Zn226	Zn	0.754380	0.001957	0.490940
	Zn227	Zn	0.253664	0.003524	0.490442
	N228	N	0.413954	0.969828	0.674210
	N229	N	0.591753	0.038355	0.672338
	N230	N	0.590769	0.968557	0.309346
	N231	N	0.415829	0.039743	0.309681
	N232	N	0.683461	0.418921	0.955143
	N233	N	0.683663	0.592755	0.026588
	N234	N	0.323131	0.592226	0.955133
	N235	N	0.326555	0.419982	0.027700
	N236	N	0.968301	0.682789	0.404151
	N237	N	0.038802	0.684689	0.579661
	N238	N	0.969084	0.322444	0.579074
	N239	N	0.038553	0.321016	0.401984
	N240	N	0.968653	0.416112	0.671581
	N241	N	0.040262	0.589500	0.669491
	N242	N	0.968780	0.591112	0.311305
	N243	N	0.040646	0.417721	0.313638
	N244	N	0.413633	0.687284	0.955938
	N245	N	0.590209	0.685336	0.026429
	N246	N	0.592970	0.323136	0.956550
	N247	N	0.415400	0.323613	0.025952
	N248	N	0.683818	0.967412	0.403193
	N249	N	0.684598	0.038152	0.578517
	N250	N	0.324154	0.967562	0.577060
	N251	N	0.321729	0.038400	0.401542
	N252	N	0.918014	0.468118	0.171125
	N253	N	0.093694	0.537750	0.174824
	N254	N	0.092533	0.469364	0.809478
	N255	N	0.915077	0.539025	0.808498
	N256	N	0.183918	0.915762	0.454572
	N257	N	0.183407	0.089862	0.526427
	N258	N	0.823540	0.090178	0.455895
	N259	N	0.823468	0.914763	0.526639
	N260	N	0.469649	0.187436	0.901231
	N261	N	0.538332	0.185201	0.078290
	N262	N	0.467489	0.824229	0.078984
	N263	N	0.537631	0.822907	0.902515
	N264	N	0.466919	0.918940	0.169713
	N265	N	0.537985	0.093586	0.171822
	N266	N	0.468657	0.092380	0.810450
	N267	N	0.538663	0.916432	0.810728
	N268	N	0.915190	0.185016	0.456527
	N269	N	0.092196	0.183738	0.526111
	N270	N	0.092174	0.821042	0.455551
	N271	N	0.915653	0.821508	0.525813
	N272	N	0.184826	0.468925	0.903651
	N273	N	0.184059	0.539965	0.078163
	N274	N	0.823409	0.469782	0.079116
	N275	N	0.823993	0.540747	0.904207
	O276	O	0.532701	0.530574	0.416355
	H277	H	0.539462	0.518862	0.416973
	H278	H	0.525192	0.531521	0.415770
	O279	O	0.294989	0.315192	0.498951
	H280	H	0.268785	0.298823	0.513724
	H281	H	0.302226	0.315598	0.533235
	O282	O	0.573657	0.517099	0.293978
	H283	H	0.557353	0.503800	0.296603
	H284	H	0.554935	0.528885	0.304924
	O285	O	1.059374	0.967706	0.195557
	H286	H	1.062344	0.954962	0.189576
	H287	H	1.057042	0.940774	0.194103
	O288	O	0.626039	0.312382	0.372998
	H289	H	0.609347	0.317183	0.375781
	H290	H	0.620489	0.341079	0.371743
	O291	O	0.399204	0.671793	0.313191
	H292	H	0.416473	0.679106	0.306524
	H293	H	0.391380	0.645610	0.315449
	O294	O	1.163059	1.182090	1.167103
	H295	H	1.115546	1.192034	1.181351
	H296	H	1.165557	1.154177	1.161772
	O297	O	0.707037	0.300294	0.413600
	H298	H	0.732740	0.272453	0.423797
	H299	H	0.677532	0.305418	0.380432
	O300	O	0.313313	0.475651	0.673747
	H301	H	0.321654	0.501673	0.657415
	H302	H	0.297449	0.488713	0.689935
	O303	O	0.579787	0.586641	0.443364
	H304	H	0.573691	0.576884	0.440732
	H305	H	0.581855	0.585418	0.450492
	O306	O	-0.023602	0.217499	0.784890
	H307	H	-0.000177	0.202481	0.798681
	H308	H	-0.012647	0.243000	0.756882
	O309	O	1.203628	0.036862	0.193618
	H310	H	1.201376	0.039505	0.190092
	H311	H	1.200678	0.033983	0.215773
	O312	O	0.677022	0.677032	0.666500
	H313	H	0.690700	0.626059	0.678050
	H314	H	0.676134	0.685423	0.627439
	O315	O	0.533580	0.488126	0.632902
	H316	H	0.533658	0.496126	0.632060
	H317	H	0.527740	0.500987	0.630685
	O318	O	0.001819	-0.080712	-0.036444
	H319	H	-0.013076	-0.096827	-0.031036
	H320	H	-0.014472	-0.063138	-0.025879
	O321	O	0.530721	0.440655	0.367258
	H322	H	0.538194	0.427699	0.379745
	H323	H	0.528036	0.418000	0.373398
	O324	O	0.925878	0.198226	1.086879
	H325	H	0.948110	0.186416	1.075318
	H326	H	0.934472	0.180021	1.099456
	O327	O	0.318633	0.700523	0.419519
	H328	H	0.293478	0.701765	0.409495
	H329	H	0.335670	0.691387	0.396988
	O330	O	-0.203971	1.042883	1.040783
	H331	H	-0.207740	1.040552	1.026584
	H332	H	-0.208026	1.035252	1.086809
	O333	O	0.217060	0.790347	-0.026141
	H334	H	0.246409	0.755480	-0.029251
	H335	H	0.203436	0.800082	-0.079983
	O336	O	0.974538	0.902762	-0.036014
	H337	H	0.969663	0.891057	-0.029242
	H338	H	0.973073	0.897928	-0.070634
	O339	O	0.204238	0.966508	1.029361
	H340	H	0.204376	0.940455	1.033348
	H341	H	0.210232	0.952956	1.051015
	O342	O	0.663051	0.505084	0.300453
	H343	H	0.669397	0.518373	0.290196
	H344	H	0.656028	0.516970	0.289637
	O345	O	0.009416	-0.189015	0.798369
	H346	H	-0.007407	-0.158001	0.797335
	H347	H	-0.001540	-0.191999	0.770789
	O348	O	0.343764	0.522268	0.302257
	H349	H	0.327415	0.513856	0.304093
	H350	H	0.350901	0.506199	0.306117
	O351	O	1.057610	0.830068	0.035069
	H352	H	1.096665	0.816339	0.025156
	H353	H	1.037051	0.831994	0.000992
	O354	O	0.969404	0.932746	0.833621
	H355	H	0.937905	0.949644	0.830263
	H356	H	0.987393	0.961346	0.827173
	O357	O	0.212467	-0.020268	-0.221789
	H358	H	0.227152	0.001603	-0.196223
	H359	H	0.235542	-0.009769	-0.234071
	O360	O	-0.185179	0.183680	0.807434
	H361	H	-0.131920	0.198315	0.798525
	H362	H	-0.197239	0.200315	0.845515
	O363	O	0.803780	0.207392	-0.022475
	H364	H	0.822867	0.208831	-0.007955
	H365	H	0.793339	0.213640	-0.018181
	O366	O	-0.054169	0.057634	1.186024
	H367	H	-0.049012	0.036095	1.173217
	H368	H	-0.061602	0.035511	1.186997
	O369	O	0.792245	-0.208550	1.014330
	H370	H	0.786130	-0.182691	0.986285
	H371	H	0.769607	-0.231516	1.006757
	O372	O	0.542784	0.295759	0.418550
	H373	H	0.545105	0.283240	0.433001
	H374	H	0.532135	0.290923	0.427512
	O375	O	-0.569786	-0.330766	1.542404
	H376	H	-0.582372	-0.324906	1.544521
	H377	H	-0.578848	-0.320104	1.542496
	O378	O	0.635339	0.345769	0.579609
	H379	H	0.639082	0.365163	0.564203
	H380	H	0.631656	0.328733	0.561791
	O381	O	-0.174285	0.824469	0.174788
	H382	H	-0.139673	0.829270	0.185751
	H383	H	-0.185516	0.811906	0.121024
	O384	O	0.438874	0.589811	0.494026
	H385	H	0.430137	0.582261	0.480692
	H386	H	0.446698	0.600983	0.503837
	O387	O	0.503855	0.482015	0.351566
	H388	H	0.495509	0.481156	0.376621
	H389	H	0.509024	0.469655	0.338106
	O390	O	1.204218	1.082212	-0.085188
	H391	H	1.203390	1.111795	-0.066927
	H392	H	1.208732	1.057192	-0.046973
	O393	O	1.056828	0.068039	0.808671
	H394	H	1.061253	0.066885	0.818805
	H395	H	1.080099	0.069138	0.826448
	O396	O	0.517252	0.719735	0.696378
	H397	H	0.556304	0.717271	0.687801
	H398	H	0.516000	0.746657	0.720159
	O399	O	0.325654	0.500961	0.454989
	H400	H	0.344791	0.502371	0.458759
	H401	H	0.298061	0.490817	0.465016
	O402	O	0.785939	1.024481	-0.225752
	H403	H	0.746845	1.028679	-0.264907
	H404	H	0.796241	1.077731	-0.211677
	O405	O	0.622985	0.460335	0.647132
	H406	H	0.621333	0.451255	0.652108
	H407	H	0.637829	0.454983	0.636202
	O408	O	0.352456	0.321706	0.668073
	H409	H	0.373892	0.320732	0.678946
	H410	H	0.352246	0.358837	0.675808
	O411	O	1.022128	1.187347	1.174644
	H412	H	0.994782	1.160665	1.173093
	H413	H	1.015467	1.213900	1.204909
	O414	O	0.043868	0.212430	0.947477
	H415	H	0.052681	0.201614	0.962966
	H416	H	0.042243	0.215455	0.942909
	O417	O	-0.199279	0.939734	0.924750
	H418	H	-0.186427	0.955432	0.914803
	H419	H	-0.210177	0.957267	0.906271
	O420	O	-0.216781	0.981367	1.209299
	H421	H	-0.234702	0.986317	1.240324
	H422	H	-0.214238	0.942570	1.210516
	O423	O	-0.014009	0.792041	0.204837
	H424	H	-0.008501	0.785641	0.184354
	H425	H	-0.010556	0.760528	0.219659
	O426	O	0.711038	0.504758	0.668441
	H427	H	0.736219	0.500598	0.674405
	H428	H	0.713230	0.484647	0.642476
	O429	O	0.404408	0.552873	0.642627
	H430	H	0.412830	0.570133	0.643716
	H431	H	0.409604	0.567019	0.634836
	O432	O	0.493252	0.299238	0.662566
	H433	H	0.512106	0.319526	0.666090
	H434	H	0.496866	0.270855	0.690018
	O435	O	0.176942	-0.178700	-0.183043
	H436	H	0.149254	-0.162549	-0.195021
	H437	H	0.162353	-0.150137	-0.196782
	O438	O	0.218726	1.220543	1.006269
	H439	H	0.228857	1.232411	1.013280
	H440	H	0.223080	1.229144	1.036926
	O441	O	0.700992	0.701122	0.509684
	H442	H	0.690454	0.685034	0.501940
	H443	H	0.718882	0.718677	0.507124
