data_Molecule from HDF5

_cell_length_a		16.209951
_cell_length_b		16.274437
_cell_length_c		16.202216
_cell_angle_alpha	89.905225
_cell_angle_beta	90.116804
_cell_angle_gamma	90.078153
_symmetry_space_group_name_H-M	'P 1'
_symmetry_Int_Tables_number		1

loop_
	_symmetry_equiv_pos_as_xyz
	x,y,z

loop_
	_atom_site_label
	_atom_site_type_symbol
	_atom_site_fract_x
	_atom_site_fract_y
	_atom_site_fract_z
	H0	H	0.398868	0.843809	0.708101
	H1	H	0.599183	0.171053	0.707179
	H2	H	0.595676	0.842589	0.280202
	H3	H	0.398729	0.170317	0.275756
	H4	H	0.716244	0.409938	0.829411
	H5	H	0.718503	0.608247	0.157872
	H6	H	0.288263	0.606043	0.828794
	H7	H	0.289232	0.408731	0.158397
	H8	H	0.836774	0.721412	0.393311
	H9	H	0.164877	0.724107	0.593918
	H10	H	0.836885	0.293351	0.595693
	H11	H	0.164226	0.291620	0.395077
	H12	H	0.837983	0.409356	0.709689
	H13	H	0.167097	0.606502	0.706973
	H14	H	0.838479	0.606320	0.277250
	H15	H	0.166776	0.410100	0.283298
	H16	H	0.404070	0.721521	0.829342
	H17	H	0.603775	0.723910	0.157624
	H18	H	0.602782	0.292392	0.829635
	H19	H	0.403439	0.291732	0.156941
	H20	H	0.714558	0.843949	0.392701
	H21	H	0.714811	0.170724	0.592451
	H22	H	0.284333	0.843759	0.591094
	H23	H	0.284695	0.171417	0.393498
	H24	H	0.903585	0.343216	0.209122
	H25	H	0.101959	0.671285	0.208521
	H26	H	0.101306	0.343541	0.779849
	H27	H	0.905581	0.672303	0.780261
	H28	H	0.211780	0.909320	0.328641
	H29	H	0.215649	0.107481	0.656479
	H30	H	0.785876	0.105593	0.328039
	H31	H	0.784913	0.909193	0.657972
	H32	H	0.337599	0.223651	0.891384
	H33	H	0.665455	0.219849	0.091647
	H34	H	0.337900	0.791869	0.091561
	H35	H	0.665819	0.794277	0.894091
	H36	H	0.335495	0.909019	0.203687
	H37	H	0.663740	0.105677	0.208457
	H38	H	0.335282	0.103798	0.779790
	H39	H	0.664760	0.909273	0.778267
	H40	H	0.898920	0.224541	0.330428
	H41	H	0.098694	0.220114	0.658075
	H42	H	0.097980	0.793399	0.330036
	H43	H	0.899101	0.791715	0.657938
	H44	H	0.214938	0.343337	0.897149
	H45	H	0.216251	0.671696	0.092042
	H46	H	0.785566	0.344307	0.094479
	H47	H	0.788204	0.671618	0.894563
	H48	H	0.407768	0.123548	0.585176
	H49	H	0.603485	0.888828	0.580139
	H50	H	0.592379	0.124762	0.399321
	H51	H	0.405095	0.888538	0.391701
	H52	H	0.594296	0.408615	0.111943
	H53	H	0.583075	0.598972	0.881324
	H54	H	0.398894	0.605621	0.115584
	H55	H	0.412618	0.418686	0.877791
	H56	H	0.123420	0.616544	0.400983
	H57	H	0.883302	0.603513	0.586806
	H58	H	0.119489	0.410669	0.585852
	H59	H	0.882189	0.409510	0.400310
	H60	H	0.116739	0.415778	0.584213
	H61	H	0.884917	0.597523	0.583638
	H62	H	0.113407	0.597540	0.414784
	H63	H	0.886284	0.418140	0.407910
	H64	H	0.410693	0.588327	0.107406
	H65	H	0.598870	0.612012	0.872901
	H66	H	0.598980	0.415766	0.111318
	H67	H	0.409937	0.409313	0.875436
	H68	H	0.589145	0.123417	0.399935
	H69	H	0.589977	0.887042	0.599106
	H70	H	0.406968	0.123744	0.584152
	H71	H	0.410075	0.892503	0.402296
	H72	H	0.911102	0.621862	0.080398
	H73	H	0.100166	0.391883	0.079633
	H74	H	0.099023	0.626265	0.898494
	H75	H	0.916704	0.396203	0.909628
	H76	H	0.090894	0.911685	0.611909
	H77	H	0.081022	0.105166	0.377551
	H78	H	0.898769	0.102283	0.613619
	H79	H	0.918267	0.907066	0.377814
	H80	H	0.622590	0.109876	0.893408
	H81	H	0.380848	0.095785	0.092494
	H82	H	0.617741	0.915740	0.084405
	H83	H	0.383427	0.911225	0.901560
	H84	H	0.618925	0.915202	0.089421
	H85	H	0.379514	0.111031	0.084955
	H86	H	0.615489	0.102533	0.912293
	H87	H	0.384238	0.914410	0.901543
	H88	H	0.908299	0.093329	0.608121
	H89	H	0.098336	0.106513	0.371646
	H90	H	0.096158	0.916865	0.611691
	H91	H	0.894894	0.908057	0.371857
	H92	H	0.093692	0.623934	0.899318
	H93	H	0.102976	0.386385	0.096130
	H94	H	0.905999	0.625427	0.087797
	H95	H	0.897751	0.388525	0.904766
	H96	H	0.407367	0.124138	0.585473
	H97	H	0.580713	0.896607	0.578807
	H98	H	0.591346	0.122889	0.402103
	H99	H	0.398281	0.889303	0.400997
	H100	H	0.590867	0.415987	0.109390
	H101	H	0.603781	0.591540	0.876854
	H102	H	0.420158	0.608398	0.110027
	H103	H	0.403729	0.416664	0.875217
	H104	H	0.120253	0.593866	0.390469
	H105	H	0.884257	0.597758	0.590676
	H106	H	0.119176	0.415118	0.589487
	H107	H	0.883929	0.420468	0.396396
	H108	H	0.915013	0.623526	0.089463
	H109	H	0.087094	0.391894	0.091140
	H110	H	0.097014	0.623934	0.904084
	H111	H	0.913309	0.389407	0.891231
	H112	H	0.089478	0.917852	0.609438
	H113	H	0.092622	0.090832	0.378458
	H114	H	0.911780	0.106487	0.611684
	H115	H	0.905882	0.927033	0.379368
	H116	H	0.616262	0.089207	0.894149
	H117	H	0.386650	0.097248	0.075909
	H118	H	0.619436	0.912435	0.085882
	H119	H	0.382979	0.912943	0.899053
	C120	C	0.377522	0.015762	0.614176
	C121	C	0.620857	0.998845	0.614616
	C122	C	0.620095	0.015493	0.371603
	C123	C	0.376068	0.998639	0.369742
	C124	C	0.623747	0.385594	0.002391
	C125	C	0.624331	0.629877	0.985314
	C126	C	0.380922	0.629195	0.002231
	C127	C	0.380504	0.385933	0.984719
	C128	C	0.010549	0.630144	0.372192
	C129	C	0.992939	0.628965	0.615505
	C130	C	0.010042	0.385770	0.616053
	C131	C	0.992661	0.386768	0.373159
	C132	C	0.881104	0.515712	0.115566
	C133	C	0.124960	0.498624	0.117056
	C134	C	0.124357	0.516197	0.872253
	C135	C	0.881052	0.499624	0.872850
	C136	C	0.120407	0.886984	0.502127
	C137	C	0.120347	0.129261	0.484452
	C138	C	0.877425	0.129471	0.502195
	C139	C	0.877529	0.885261	0.485071
	C140	C	0.509490	0.128895	0.871051
	C141	C	0.491257	0.129092	0.113878
	C142	C	0.509870	0.886126	0.114087
	C143	C	0.492419	0.885328	0.871520
	C144	C	0.379116	0.892590	0.669945
	C145	C	0.619227	0.121914	0.669959
	C146	C	0.616699	0.891802	0.317460
	C147	C	0.378479	0.121480	0.314143
	C148	C	0.678848	0.388910	0.878557
	C149	C	0.680462	0.628283	0.108862
	C150	C	0.326117	0.626105	0.878233
	C151	C	0.326565	0.388351	0.108922
	C152	C	0.886317	0.684119	0.373453
	C153	C	0.116316	0.685448	0.613463
	C154	C	0.886361	0.330889	0.615153
	C155	C	0.115558	0.330251	0.375328
	C156	C	0.886724	0.388861	0.671588
	C157	C	0.117408	0.626869	0.669796
	C158	C	0.887239	0.626986	0.315643
	C159	C	0.117008	0.389535	0.319908
	C160	C	0.383365	0.684061	0.878543
	C161	C	0.623392	0.685842	0.108702
	C162	C	0.622543	0.330438	0.878742
	C163	C	0.383324	0.330205	0.108425
	C164	C	0.675750	0.892497	0.373537
	C165	C	0.676723	0.121816	0.612661
	C166	C	0.321977	0.892750	0.611982
	C167	C	0.321824	0.122089	0.372729
	C168	C	0.883182	0.392402	0.171341
	C169	C	0.122509	0.622181	0.171266
	C170	C	0.121531	0.392690	0.817700
	C171	C	0.884555	0.623317	0.818003
	C172	C	0.174445	0.889159	0.378142
	C173	C	0.177070	0.127423	0.607827
	C174	C	0.822767	0.126635	0.377912
	C175	C	0.822528	0.888062	0.608935
	C176	C	0.386175	0.184960	0.871951
	C177	C	0.615880	0.182809	0.111910
	C178	C	0.386343	0.830186	0.111704
	C179	C	0.616472	0.831380	0.873651
	C180	C	0.385243	0.888453	0.167389
	C181	C	0.614886	0.126117	0.170157
	C182	C	0.384947	0.125541	0.816668
	C183	C	0.615775	0.888691	0.816084
	C184	C	0.878699	0.185845	0.379036
	C185	C	0.118901	0.183321	0.608622
	C186	C	0.117680	0.831826	0.378678
	C187	C	0.879545	0.829975	0.608983
	C188	C	0.178455	0.392610	0.875735
	C189	C	0.179259	0.622331	0.113306
	C190	C	0.824562	0.392822	0.114474
	C191	C	0.826217	0.622901	0.874704
	C192	C	0.400551	0.101571	0.591622
	C193	C	0.598080	0.913059	0.592378
	C194	C	0.597551	0.101330	0.393870
	C195	C	0.397982	0.912317	0.391875
	C196	C	0.601222	0.407155	0.088502
	C197	C	0.601908	0.607491	0.899222
	C198	C	0.403367	0.607223	0.088741
	C199	C	0.402361	0.408322	0.898556
	C200	C	0.096769	0.608896	0.395375
	C201	C	0.906718	0.606366	0.593492
	C202	C	0.096256	0.407525	0.593154
	C203	C	0.906452	0.409403	0.395092
	C204	C	0.903971	0.601320	0.092675
	C205	C	0.103063	0.412284	0.095552
	C206	C	0.102857	0.602425	0.894023
	C207	C	0.902653	0.413684	0.895392
	C208	C	0.098715	0.908860	0.588680
	C209	C	0.097512	0.107247	0.398366
	C210	C	0.899680	0.107244	0.588717
	C211	C	0.899787	0.907407	0.398689
	C212	C	0.595653	0.107053	0.893363
	C213	C	0.404860	0.107582	0.091310
	C214	C	0.596362	0.908131	0.092911
	C215	C	0.405971	0.906613	0.894017
	Zn216	Zn	0.499538	0.007107	0.743026
	Zn217	Zn	0.499196	0.006853	0.242005
	Zn218	Zn	0.751657	0.507627	-0.005863
	Zn219	Zn	0.252431	0.507750	-0.005693
	Zn220	Zn	0.000069	0.757732	0.494353
	Zn221	Zn	-0.000098	0.257722	0.493973
	Zn222	Zn	0.002453	0.507616	0.743654
	Zn223	Zn	0.002791	0.507596	0.244761
	Zn224	Zn	0.502724	0.757939	-0.005883
	Zn225	Zn	0.501636	0.257372	-0.007341
	Zn226	Zn	0.749374	0.007307	0.493105
	Zn227	Zn	0.248522	0.007552	0.492516
	N228	N	0.413001	0.970242	0.671423
	N229	N	0.584947	0.044343	0.671298
	N230	N	0.582916	0.969310	0.315990
	N231	N	0.411470	0.043684	0.312204
	N232	N	0.679809	0.422399	0.956381
	N233	N	0.681159	0.594439	0.031196
	N234	N	0.324453	0.592852	0.956406
	N235	N	0.324757	0.422132	0.031061
	N236	N	0.963916	0.686130	0.408057
	N237	N	0.037966	0.686927	0.580447
	N238	N	0.964150	0.328671	0.581276
	N239	N	0.037143	0.328314	0.407686
	N240	N	0.964603	0.422214	0.672376
	N241	N	0.039743	0.592520	0.671277
	N242	N	0.965446	0.594320	0.314582
	N243	N	0.039534	0.423900	0.318535
	N244	N	0.416778	0.686091	0.956634
	N245	N	0.588980	0.686941	0.030952
	N246	N	0.588874	0.328329	0.956695
	N247	N	0.416075	0.328372	0.030143
	N248	N	0.677991	0.970524	0.406525
	N249	N	0.677971	0.044376	0.579180
	N250	N	0.321013	0.970255	0.577905
	N251	N	0.320386	0.044564	0.406654
	N252	N	0.917852	0.469786	0.172033
	N253	N	0.089623	0.544133	0.173962
	N254	N	0.088645	0.470543	0.815388
	N255	N	0.917869	0.545593	0.816511
	N256	N	0.176177	0.922843	0.455924
	N257	N	0.178181	0.094463	0.529735
	N258	N	0.821800	0.092461	0.455626
	N259	N	0.821389	0.921862	0.530996
	N260	N	0.464596	0.187447	0.904905
	N261	N	0.538105	0.184887	0.077733
	N262	N	0.464768	0.828684	0.079181
	N263	N	0.538604	0.829176	0.907585
	N264	N	0.462940	0.922600	0.169046
	N265	N	0.536451	0.093754	0.171736
	N266	N	0.462511	0.091400	0.815888
	N267	N	0.537601	0.921153	0.814602
	N268	N	0.911727	0.187917	0.457314
	N269	N	0.084220	0.184660	0.530902
	N270	N	0.084805	0.830341	0.456855
	N271	N	0.912857	0.827816	0.530875
	N272	N	0.180499	0.470439	0.908878
	N273	N	0.180977	0.544507	0.080402
	N274	N	0.823073	0.470374	0.080650
	N275	N	0.823881	0.545173	0.908129
	O276	O	0.040311	-0.013387	0.023807
	H277	H	0.046215	-0.015894	0.025156
	H278	H	0.044907	-0.008310	0.026262
	O279	O	1.465101	0.480809	1.349519
	H280	H	1.463582	0.489097	1.335966
	H281	H	1.457706	0.489151	1.364189
	O282	O	0.465742	0.442592	0.508259
	H283	H	0.473552	0.443670	0.500593
	H284	H	0.458429	0.442510	0.504557
	O285	O	0.961638	0.033486	0.990884
	H286	H	0.958326	0.039407	0.986775
	H287	H	0.968651	0.022908	0.988978
	O288	O	0.938414	0.012998	0.008524
	H289	H	0.938890	0.016009	0.012605
	H290	H	0.936136	0.018118	0.005210
	O291	O	0.425973	0.384285	0.488994
	H292	H	0.430787	0.394262	0.481943
	H293	H	0.432642	0.378011	0.485822
	O294	O	1.516398	0.566674	0.412546
	H295	H	1.515348	0.583995	0.423103
	H296	H	1.492584	0.572853	0.413916
	O297	O	-0.540681	-0.552749	-0.420398
	H298	H	-0.537832	-0.557876	-0.432792
	H299	H	-0.550862	-0.552965	-0.416344
	O300	O	0.446462	0.521642	0.526917
	H301	H	0.455243	0.530676	0.527830
	H302	H	0.440768	0.516030	0.536207
	O303	O	0.449260	0.559776	0.508096
	H304	H	0.444114	0.561834	0.514599
	H305	H	0.448025	0.560409	0.519983
	O306	O	1.011424	0.025830	-0.001181
	H307	H	1.008769	0.019133	-0.004870
	H308	H	1.019260	0.031509	-0.002295
	O309	O	-0.449246	-0.543085	1.377349
	H310	H	-0.447696	-0.549335	1.374062
	H311	H	-0.445847	-0.544755	1.366512
	O312	O	1.029588	1.030607	0.998597
	H313	H	1.022274	1.027756	1.000365
	H314	H	1.024926	1.027050	0.990528
	O315	O	0.596037	0.486913	0.498743
	H316	H	0.608258	0.477081	0.491503
	H317	H	0.599670	0.496042	0.506465
	O318	O	0.533861	0.534144	0.542725
	H319	H	0.521870	0.529316	0.545884
	H320	H	0.548902	0.540486	0.549271
	O321	O	-0.021214	0.993144	0.990090
	H322	H	-0.027708	0.984626	0.991059
	H323	H	-0.021270	0.992418	0.990456
	O324	O	0.572061	0.496551	0.615956
	H325	H	0.572308	0.494917	0.610342
	H326	H	0.559531	0.487847	0.631620
	O327	O	0.507380	0.526285	0.417259
	H328	H	0.500748	0.526166	0.426450
	H329	H	0.509966	0.529636	0.412016
	O330	O	0.514812	0.594220	0.439684
	H331	H	0.522570	0.600529	0.448339
	H332	H	0.509276	0.597917	0.445419
	O333	O	0.583068	0.606061	0.617858
	H334	H	0.575042	0.594850	0.635970
	H335	H	0.583521	0.599185	0.613207
	O336	O	0.518744	0.392349	0.426702
	H337	H	0.531152	0.387498	0.405236
	H338	H	0.522103	0.384870	0.408050
	O339	O	1.065721	0.967203	-0.039631
	H340	H	1.063734	0.963540	-0.039933
	H341	H	1.069530	0.966030	-0.043854
	O342	O	0.481022	0.551640	0.560034
	H343	H	0.480085	0.554434	0.564932
	H344	H	0.487994	0.537501	0.564250
	O345	O	0.511695	0.502459	0.556726
	H346	H	0.507843	0.494677	0.552499
	H347	H	0.515859	0.491580	0.554289
	O348	O	-0.018112	-0.027470	0.013413
	H349	H	-0.013400	-0.023450	0.008361
	H350	H	-0.012944	-0.027753	0.019201
	O351	O	0.144104	1.120900	1.078275
	H352	H	0.140741	1.130737	1.074657
	H353	H	0.141132	1.114571	1.076460
	O354	O	0.530457	0.486757	0.448560
	H355	H	0.532348	0.488537	0.448688
	H356	H	0.542279	0.488066	0.443465
	O357	O	-0.057461	0.995986	0.995748
	H358	H	-0.055316	0.997270	0.989571
	H359	H	-0.059285	1.001285	1.001883
