data_Molecule from HDF5

_cell_length_a		16.431146
_cell_length_b		16.449498
_cell_length_c		16.416665
_cell_angle_alpha	90.006284
_cell_angle_beta	89.943870
_cell_angle_gamma	89.960547
_symmetry_space_group_name_H-M	'P 1'
_symmetry_Int_Tables_number		1

loop_
	_symmetry_equiv_pos_as_xyz
	x,y,z

loop_
	_atom_site_label
	_atom_site_type_symbol
	_atom_site_fract_x
	_atom_site_fract_y
	_atom_site_fract_z
	H0	H	0.397508	0.848730	0.724250
	H1	H	0.611940	0.163380	0.720994
	H2	H	0.610342	0.846519	0.277656
	H3	H	0.395754	0.161531	0.275815
	H4	H	0.728789	0.397313	0.842123
	H5	H	0.725963	0.613286	0.156026
	H6	H	0.279669	0.614684	0.841252
	H7	H	0.280967	0.399427	0.156349
	H8	H	0.849522	0.730174	0.390877
	H9	H	0.161586	0.728459	0.609938
	H10	H	0.846657	0.281283	0.604959
	H11	H	0.161347	0.279392	0.389927
	H12	H	0.847368	0.394729	0.723173
	H13	H	0.161135	0.611341	0.724117
	H14	H	0.846894	0.611659	0.277673
	H15	H	0.161473	0.398233	0.276260
	H16	H	0.395141	0.729908	0.840969
	H17	H	0.609204	0.728258	0.155907
	H18	H	0.613154	0.282520	0.841732
	H19	H	0.394894	0.280737	0.155730
	H20	H	0.724808	0.845596	0.395227
	H21	H	0.728065	0.161920	0.605213
	H22	H	0.278954	0.848524	0.611592
	H23	H	0.278903	0.160612	0.391395
	H24	H	0.896600	0.347382	0.221582
	H25	H	0.111977	0.662056	0.223899
	H26	H	0.112188	0.346484	0.777177
	H27	H	0.896379	0.660562	0.773220
	H28	H	0.231012	0.894675	0.343830
	H29	H	0.228751	0.113690	0.656104
	H30	H	0.784370	0.107064	0.340760
	H31	H	0.781359	0.895307	0.657513
	H32	H	0.348424	0.230977	0.888925
	H33	H	0.662262	0.228461	0.105472
	H34	H	0.346015	0.783150	0.106471
	H35	H	0.660181	0.780311	0.889529
	H36	H	0.346352	0.899287	0.221926
	H37	H	0.662312	0.113198	0.222806
	H38	H	0.349177	0.116204	0.773013
	H39	H	0.661588	0.897705	0.776125
	H40	H	0.896598	0.225709	0.340259
	H41	H	0.111931	0.228630	0.655987
	H42	H	0.114802	0.779998	0.343088
	H43	H	0.897737	0.780092	0.657158
	H44	H	0.229788	0.349765	0.889944
	H45	H	0.226879	0.663207	0.107188
	H46	H	0.780403	0.348615	0.106192
	H47	H	0.782682	0.663200	0.891612
	H48	H	0.418618	0.113868	0.580339
	H49	H	0.595889	0.890645	0.589683
	H50	H	0.594404	0.117296	0.410798
	H51	H	0.415658	0.890865	0.411238
	H52	H	0.588564	0.417860	0.111363
	H53	H	0.595168	0.588696	0.885679
	H54	H	0.414148	0.588548	0.109756
	H55	H	0.417653	0.417056	0.886328
	H56	H	0.117860	0.591361	0.411160
	H57	H	0.896682	0.582242	0.582144
	H58	H	0.116386	0.419963	0.589107
	H59	H	0.892121	0.409757	0.417516
	H60	H	0.118994	0.412541	0.588553
	H61	H	0.889860	0.591749	0.593575
	H62	H	0.117323	0.591121	0.412020
	H63	H	0.894048	0.423312	0.410835
	H64	H	0.421322	0.596192	0.109773
	H65	H	0.587193	0.593594	0.887744
	H66	H	0.593601	0.416454	0.112273
	H67	H	0.415900	0.420078	0.886626
	H68	H	0.594921	0.118266	0.411011
	H69	H	0.591709	0.891570	0.591251
	H70	H	0.413087	0.118400	0.587468
	H71	H	0.420863	0.893485	0.410789
	H72	H	0.911867	0.618484	0.085818
	H73	H	0.098110	0.392520	0.082850
	H74	H	0.087490	0.617251	0.908502
	H75	H	0.920484	0.394197	0.912682
	H76	H	0.096862	0.915528	0.614839
	H77	H	0.090896	0.084533	0.389143
	H78	H	0.916034	0.091483	0.611441
	H79	H	0.905506	0.919899	0.385497
	H80	H	0.618886	0.096477	0.908800
	H81	H	0.391742	0.095013	0.088447
	H82	H	0.616507	0.912770	0.082682
	H83	H	0.389843	0.916650	0.908612
	H84	H	0.615292	0.922383	0.086892
	H85	H	0.392774	0.094135	0.085599
	H86	H	0.615959	0.096379	0.915535
	H87	H	0.393128	0.917053	0.916595
	H88	H	0.918294	0.093988	0.612284
	H89	H	0.087159	0.094616	0.387631
	H90	H	0.090995	0.921934	0.609898
	H91	H	0.925068	0.923542	0.392592
	H92	H	0.089550	0.616580	0.914444
	H93	H	0.092336	0.390873	0.092780
	H94	H	0.916985	0.620046	0.092589
	H95	H	0.911102	0.391801	0.915431
	H96	H	0.422712	0.116325	0.589478
	H97	H	0.592581	0.892400	0.586862
	H98	H	0.594444	0.117841	0.410033
	H99	H	0.417499	0.894607	0.415375
	H100	H	0.592289	0.421126	0.110174
	H101	H	0.594380	0.597880	0.883184
	H102	H	0.411132	0.598317	0.112917
	H103	H	0.419353	0.419965	0.887846
	H104	H	0.117333	0.590303	0.411396
	H105	H	0.893138	0.597589	0.578363
	H106	H	0.115267	0.415696	0.582631
	H107	H	0.887755	0.411815	0.402866
	H108	H	0.919635	0.615620	0.085429
	H109	H	0.087184	0.396682	0.083498
	H110	H	0.093266	0.618552	0.910532
	H111	H	0.914842	0.389923	0.906695
	H112	H	0.087692	0.913127	0.611779
	H113	H	0.097122	0.092383	0.385017
	H114	H	0.915444	0.093914	0.613083
	H115	H	0.920435	0.905165	0.384404
	H116	H	0.616479	0.089678	0.911861
	H117	H	0.392548	0.091443	0.088167
	H118	H	0.619396	0.914471	0.092660
	H119	H	0.392715	0.923781	0.911577
	C120	C	0.383645	0.013393	0.621187
	C121	C	0.627071	0.995843	0.621815
	C122	C	0.626423	0.013210	0.378253
	C123	C	0.383528	0.996336	0.378555
	C124	C	0.625484	0.384915	0.007347
	C125	C	0.625028	0.627052	0.989581
	C126	C	0.382131	0.627737	0.006827
	C127	C	0.383271	0.384974	0.990625
	C128	C	0.013884	0.625403	0.378008
	C129	C	0.996847	0.624420	0.619856
	C130	C	0.012949	0.382267	0.620277
	C131	C	0.995021	0.381638	0.376747
	C132	C	0.882516	0.513911	0.120845
	C133	C	0.125785	0.497229	0.120265
	C134	C	0.124890	0.513601	0.877315
	C135	C	0.882316	0.496060	0.877255
	C136	C	0.126858	0.882333	0.509010
	C137	C	0.125106	0.125008	0.490932
	C138	C	0.883400	0.125468	0.507550
	C139	C	0.884038	0.882668	0.491815
	C140	C	0.513742	0.128103	0.877485
	C141	C	0.496137	0.127502	0.121163
	C142	C	0.512517	0.883877	0.120441
	C143	C	0.495551	0.884808	0.878401
	C144	C	0.379405	0.895840	0.684181
	C145	C	0.629937	0.115384	0.681409
	C146	C	0.628519	0.894048	0.317996
	C147	C	0.378690	0.114277	0.316432
	C148	C	0.687849	0.380438	0.889245
	C149	C	0.685776	0.630863	0.108546
	C150	C	0.320212	0.631936	0.888598
	C151	C	0.321326	0.381512	0.109044
	C152	C	0.896181	0.688600	0.373464
	C153	C	0.114524	0.687051	0.625963
	C154	C	0.894445	0.320909	0.623616
	C155	C	0.113826	0.320172	0.372618
	C156	C	0.894660	0.377583	0.682442
	C157	C	0.114261	0.628861	0.683210
	C158	C	0.894975	0.629435	0.317156
	C159	C	0.114106	0.379288	0.315980
	C160	C	0.377828	0.689335	0.888316
	C161	C	0.627506	0.688118	0.108459
	C162	C	0.629957	0.323280	0.888967
	C163	C	0.378185	0.322249	0.108527
	C164	C	0.685686	0.893519	0.376489
	C165	C	0.687746	0.114699	0.623552
	C166	C	0.320665	0.895787	0.627406
	C167	C	0.320592	0.113855	0.374187
	C168	C	0.878649	0.395449	0.181682
	C169	C	0.129602	0.614891	0.182947
	C170	C	0.129660	0.394852	0.816769
	C171	C	0.878556	0.613728	0.814531
	C172	C	0.190041	0.877611	0.391010
	C173	C	0.187214	0.130116	0.609190
	C174	C	0.823249	0.126381	0.388438
	C175	C	0.822038	0.878132	0.610138
	C176	C	0.395757	0.190365	0.872322
	C177	C	0.614730	0.188553	0.123726
	C178	C	0.393659	0.823601	0.123753
	C179	C	0.613554	0.821778	0.873270
	C180	C	0.393831	0.881358	0.181655
	C181	C	0.614588	0.131257	0.182367
	C182	C	0.396092	0.132851	0.814548
	C183	C	0.614093	0.880505	0.816686
	C184	C	0.879647	0.185503	0.388272
	C185	C	0.129234	0.187824	0.608741
	C186	C	0.132055	0.820300	0.390775
	C187	C	0.880274	0.820699	0.610144
	C188	C	0.188630	0.396533	0.872859
	C189	C	0.186731	0.615715	0.124390
	C190	C	0.820712	0.395762	0.123908
	C191	C	0.821702	0.614912	0.873231
	C192	C	0.410443	0.094984	0.593727
	C193	C	0.600970	0.913294	0.596672
	C194	C	0.601686	0.096000	0.403316
	C195	C	0.410365	0.914431	0.404914
	C196	C	0.598945	0.410829	0.089671
	C197	C	0.599609	0.600852	0.907011
	C198	C	0.408068	0.601803	0.089269
	C199	C	0.409823	0.411544	0.908385
	C200	C	0.095923	0.598711	0.404119
	C201	C	0.914819	0.598115	0.592446
	C202	C	0.095370	0.408454	0.594145
	C203	C	0.912842	0.407324	0.403094
	C204	C	0.908719	0.596412	0.095316
	C205	C	0.099980	0.414893	0.093781
	C206	C	0.097937	0.595736	0.903443
	C207	C	0.908072	0.413648	0.903765
	C208	C	0.099662	0.909288	0.590654
	C209	C	0.099197	0.098039	0.408771
	C210	C	0.909129	0.100430	0.590682
	C211	C	0.909862	0.908727	0.409184
	C212	C	0.595936	0.101630	0.904211
	C213	C	0.413812	0.101119	0.095140
	C214	C	0.595489	0.909299	0.094619
	C215	C	0.413546	0.911462	0.904770
	Zn216	Zn	0.505206	0.005875	0.750026
	Zn217	Zn	0.505337	0.005015	0.249214
	Zn218	Zn	0.753925	0.505855	-0.001228
	Zn219	Zn	0.253852	0.506792	-0.001959
	Zn220	Zn	0.005602	0.753772	0.500044
	Zn221	Zn	0.004121	0.254106	0.498282
	Zn222	Zn	0.003995	0.503641	0.748748
	Zn223	Zn	0.004216	0.504708	0.249185
	Zn224	Zn	0.503039	0.755557	-0.001726
	Zn225	Zn	0.504668	0.255850	-0.000946
	Zn226	Zn	0.755119	0.003685	0.499978
	Zn227	Zn	0.254610	0.004443	0.500461
	N228	N	0.417985	0.969882	0.680251
	N229	N	0.592906	0.040438	0.680310
	N230	N	0.592286	0.969307	0.319067
	N231	N	0.417105	0.040242	0.319058
	N232	N	0.685283	0.418032	0.963722
	N233	N	0.684478	0.593566	0.033602
	N234	N	0.322592	0.594401	0.963296
	N235	N	0.324291	0.419799	0.034592
	N236	N	0.971159	0.686427	0.410427
	N237	N	0.040523	0.684150	0.586940
	N238	N	0.969072	0.323440	0.585853
	N239	N	0.038580	0.321254	0.409282
	N240	N	0.969360	0.414983	0.680506
	N241	N	0.040034	0.590717	0.679631
	N242	N	0.969108	0.590917	0.319765
	N243	N	0.039543	0.416720	0.318270
	N244	N	0.415426	0.686869	0.962910
	N245	N	0.590595	0.685995	0.033448
	N246	N	0.591539	0.326135	0.963413
	N247	N	0.415807	0.324206	0.033904
	N248	N	0.684537	0.968575	0.413355
	N249	N	0.686234	0.039297	0.587515
	N250	N	0.323046	0.970007	0.589006
	N251	N	0.323364	0.039368	0.412033
	N252	N	0.916221	0.469989	0.180083
	N253	N	0.092494	0.540073	0.180540
	N254	N	0.090704	0.468728	0.819341
	N255	N	0.915139	0.538749	0.816776
	N256	N	0.187284	0.915283	0.465734
	N257	N	0.184879	0.091846	0.534877
	N258	N	0.825350	0.089926	0.463783
	N259	N	0.824565	0.916290	0.535683
	N260	N	0.469997	0.187494	0.910668
	N261	N	0.539852	0.186393	0.086507
	N262	N	0.468603	0.824805	0.086615
	N263	N	0.538913	0.824308	0.911057
	N264	N	0.468934	0.918147	0.179657
	N265	N	0.539535	0.094356	0.181186
	N266	N	0.470469	0.094738	0.817649
	N267	N	0.540053	0.919003	0.819738
	N268	N	0.916383	0.184841	0.463412
	N269	N	0.091320	0.184806	0.534167
	N270	N	0.093466	0.823030	0.465025
	N271	N	0.917984	0.823262	0.535484
	N272	N	0.185762	0.471365	0.909940
	N273	N	0.184758	0.541389	0.086329
	N274	N	0.822826	0.470623	0.086995
	N275	N	0.823739	0.540426	0.911405
	O276	O	0.301346	0.356700	0.467733
	H277	H	0.295690	0.342845	0.493376
	H278	H	0.292637	0.363823	0.489524
	O279	O	0.956683	0.214391	0.819126
	H280	H	0.970030	0.215672	0.794661
	H281	H	0.972825	0.207861	0.802892
	O282	O	0.484427	0.301709	0.704168
	H283	H	0.508946	0.314523	0.698216
	H284	H	0.498182	0.290420	0.729774
	O285	O	0.484313	0.485509	0.320833
	H286	H	0.466717	0.470288	0.331122
	H287	H	0.513539	0.462759	0.307461
	O288	O	0.990954	0.856341	0.214105
	H289	H	0.995691	0.851226	0.239222
	H290	H	0.993441	0.880864	0.229073
	O291	O	0.252533	0.245964	0.223548
	H292	H	0.218030	0.255566	0.238902
	H293	H	0.262232	0.257314	0.181274
	O294	O	0.093894	0.188978	0.953098
	H295	H	0.113773	0.185609	0.956183
	H296	H	0.094242	0.179228	0.917367
	O297	O	0.704295	0.687791	0.506860
	H298	H	0.701316	0.693281	0.503620
	H299	H	0.710757	0.665866	0.486461
	O300	O	0.716997	0.490675	0.707726
	H301	H	0.713929	0.519138	0.689659
	H302	H	0.754791	0.492812	0.739773
	O303	O	0.590207	0.383628	0.626076
	H304	H	0.602761	0.387274	0.617755
	H305	H	0.595331	0.390200	0.618842
	O306	O	0.515352	0.708212	0.443950
	H307	H	0.516691	0.712290	0.428317
	H308	H	0.509169	0.702882	0.440824
	O309	O	0.556466	0.517237	0.442452
	H310	H	0.546090	0.534957	0.438495
	H311	H	0.543155	0.505424	0.433611
	O312	O	-0.183899	1.199442	1.007798
	H313	H	-0.183765	1.215716	1.005113
	H314	H	-0.167552	1.191971	1.023620
	O315	O	0.717340	0.456067	0.592095
	H316	H	0.715113	0.474716	0.595131
	H317	H	0.718524	0.458767	0.588570
	O318	O	0.643377	0.297040	0.478120
	H319	H	0.663881	0.285418	0.483829
	H320	H	0.631013	0.303694	0.473346
	O321	O	-0.025055	-0.018906	-0.061449
	H322	H	-0.017207	-0.013304	-0.054580
	H323	H	-0.013001	-0.003061	-0.076015
	O324	O	0.527359	0.290269	0.281877
	H325	H	0.512731	0.272428	0.284281
	H326	H	0.526565	0.270673	0.280626
	O327	O	0.527632	0.699603	0.707723
	H328	H	0.526374	0.716172	0.718973
	H329	H	0.533413	0.703579	0.695844
	O330	O	0.100670	1.011350	0.032744
	H331	H	0.117941	1.027697	0.027544
	H332	H	0.107467	1.027688	0.018246
	O333	O	0.480273	0.494807	0.359482
	H334	H	0.481696	0.495845	0.341288
	H335	H	0.465131	0.493173	0.367438
	O336	O	0.056406	0.220928	0.186821
	H337	H	0.054708	0.246722	0.226861
	H338	H	0.045389	0.189597	0.189963
	O339	O	0.213375	1.012555	0.879654
	H340	H	0.218002	0.995275	0.896111
	H341	H	0.202688	0.979990	0.851595
	O342	O	-0.100084	0.817477	1.155494
	H343	H	-0.076959	0.817291	1.161907
	H344	H	-0.091026	0.808995	1.127375
	O345	O	0.853450	0.791142	-0.007332
	H346	H	0.824057	0.782977	0.000114
	H347	H	0.848091	0.807683	0.003053
	O348	O	0.462267	0.600342	0.286454
	H349	H	0.459760	0.587779	0.284527
	H350	H	0.454908	0.577521	0.283243
	O351	O	0.174138	0.907403	0.794879
	H352	H	0.152315	0.867558	0.795537
	H353	H	0.194678	0.898197	0.797941
	O354	O	0.213387	1.023964	0.213887
	H355	H	0.200599	1.061815	0.199884
	H356	H	0.245314	1.027772	0.247266
	O357	O	-0.012452	0.201229	1.014721
	H358	H	0.005031	0.201078	1.010521
	H359	H	0.007369	0.209032	1.029432
	O360	O	0.565278	0.595662	0.541467
	H361	H	0.562468	0.600031	0.537463
	H362	H	0.577454	0.586764	0.541202
	O363	O	0.106380	0.060350	0.797839
	H364	H	0.109895	0.029310	0.785366
	H365	H	0.111815	0.034986	0.798470
	O366	O	0.482078	0.618556	0.538966
	H367	H	0.463564	0.618163	0.533447
	H368	H	0.492165	0.619516	0.529869
	O369	O	0.451687	0.704586	0.334863
	H370	H	0.445742	0.703824	0.312927
	H371	H	0.458294	0.684162	0.337442
	O372	O	0.931797	-0.054845	0.786489
	H373	H	0.913810	-0.052733	0.794944
	H374	H	0.922800	-0.063918	0.783466
	O375	O	0.446804	0.362478	0.368749
	H376	H	0.421929	0.380496	0.373897
	H377	H	0.436635	0.335044	0.369385
	O378	O	0.341277	0.599203	0.648157
	H379	H	0.365513	0.605461	0.660593
	H380	H	0.341782	0.593289	0.654528
	O381	O	1.145633	-0.194022	1.025298
	H382	H	1.133514	-0.194946	1.028310
	H383	H	1.154654	-0.206833	1.031747
	O384	O	0.689102	0.417961	0.320015
	H385	H	0.687527	0.402588	0.346567
	H386	H	0.673560	0.407123	0.299894
	O387	O	0.199295	0.018326	0.998962
	H388	H	0.198609	0.004625	1.010338
	H389	H	0.207953	0.009247	1.006187
	O390	O	-0.163018	-0.039714	-0.003793
	H391	H	-0.174050	-0.059594	-0.002824
	H392	H	-0.167464	-0.042438	0.001998
	O393	O	0.786765	1.030192	0.782325
	H394	H	0.804049	1.071330	0.796223
	H395	H	0.750581	1.032841	0.746201
	O396	O	0.980667	-0.185907	0.001114
	H397	H	0.962315	-0.165376	0.021163
	H398	H	0.963415	-0.187927	0.011078
	O399	O	0.817757	0.186292	0.820917
	H400	H	0.809424	0.189430	0.865981
	H401	H	0.868362	0.198870	0.811228
	O402	O	1.052654	0.928665	1.204192
	H403	H	1.077082	0.946626	1.200326
	H404	H	1.040314	0.955098	1.205782
	O405	O	0.799599	0.949525	0.190607
	H406	H	0.819069	0.930134	0.179881
	H407	H	0.777044	0.931840	0.196985
	O408	O	0.795563	-0.003677	0.011388
	H409	H	0.800541	0.002034	0.013758
	H410	H	0.791579	0.014620	-0.005446
	O411	O	0.914092	1.043324	0.202299
	H412	H	0.892848	1.030485	0.192841
	H413	H	0.903713	1.032799	0.189334
	O414	O	0.289591	0.719502	0.482174
	H415	H	0.269354	0.747098	0.484993
	H416	H	0.301625	0.722409	0.464225
	O417	O	0.292713	0.574343	0.489438
	H418	H	0.285961	0.583845	0.518609
	H419	H	0.289733	0.588253	0.492948
	O420	O	0.216129	0.210120	0.070257
	H421	H	0.229276	0.192448	0.058183
	H422	H	0.227558	0.217100	0.057628
	O423	O	0.650628	0.647333	0.680965
	H424	H	0.662179	0.647442	0.645562
	H425	H	0.629661	0.649558	0.681315
	O426	O	0.702777	0.350466	0.423605
	H427	H	0.689456	0.365210	0.431480
	H428	H	0.713538	0.339383	0.437770
	O429	O	0.307568	0.430454	0.640100
	H430	H	0.305830	0.453705	0.648651
	H431	H	0.324602	0.441186	0.644751
	O432	O	0.468341	0.362989	0.458261
	H433	H	0.452648	0.357118	0.470562
	H434	H	0.453622	0.373142	0.469266
	O435	O	0.345163	0.511152	0.478945
	H436	H	0.347129	0.503321	0.496635
	H437	H	0.342082	0.515005	0.466275
	O438	O	-0.143475	0.087896	0.068620
	H439	H	-0.144093	0.105203	0.059470
	H440	H	-0.151261	0.091818	0.056987
	O441	O	1.010556	-0.198114	-0.173213
	H442	H	0.994015	-0.193436	-0.162034
	H443	H	0.995039	-0.211135	-0.158873
	O444	O	0.166057	0.844374	0.900831
	H445	H	0.137239	0.846578	0.907059
	H446	H	0.175750	0.824434	0.930351
	O447	O	0.395319	0.573972	0.515334
	H448	H	0.428093	0.584029	0.509568
	H449	H	0.398234	0.546099	0.508186
	O450	O	0.701304	0.634299	0.483521
	H451	H	0.688208	0.615597	0.459980
	H452	H	0.702240	0.638906	0.475500
	O453	O	0.304179	0.302673	0.616271
	H454	H	0.289447	0.309209	0.621438
	H455	H	0.334162	0.309902	0.642422
