data_Molecule from HDF5

_cell_length_a		16.713204
_cell_length_b		16.530075
_cell_length_c		16.519442
_cell_angle_alpha	89.958765
_cell_angle_beta	89.949160
_cell_angle_gamma	89.883927
_symmetry_space_group_name_H-M	'P 1'
_symmetry_Int_Tables_number		1

loop_
	_symmetry_equiv_pos_as_xyz
	x,y,z

loop_
	_atom_site_label
	_atom_site_type_symbol
	_atom_site_fract_x
	_atom_site_fract_y
	_atom_site_fract_z
	H0	H	0.389004	0.841222	0.716675
	H1	H	0.591589	0.157690	0.713604
	H2	H	0.598333	0.844946	0.273038
	H3	H	0.385410	0.155189	0.274055
	H4	H	0.712599	0.395081	0.839047
	H5	H	0.711747	0.601782	0.152847
	H6	H	0.271228	0.605903	0.839496
	H7	H	0.269356	0.392977	0.150055
	H8	H	0.836896	0.720729	0.391603
	H9	H	0.146983	0.720898	0.600389
	H10	H	0.838501	0.276718	0.602416
	H11	H	0.146493	0.275575	0.389350
	H12	H	0.837366	0.396185	0.716978
	H13	H	0.146519	0.604647	0.717635
	H14	H	0.835517	0.601976	0.277358
	H15	H	0.145787	0.391871	0.271791
	H16	H	0.389870	0.719267	0.838065
	H17	H	0.595727	0.718553	0.152751
	H18	H	0.593069	0.282033	0.836589
	H19	H	0.386663	0.277431	0.150745
	H20	H	0.716159	0.846082	0.387242
	H21	H	0.710509	0.156337	0.599577
	H22	H	0.271113	0.842222	0.603066
	H23	H	0.267811	0.153885	0.389383
	H24	H	0.892025	0.340511	0.213345
	H25	H	0.095875	0.655659	0.216983
	H26	H	0.097404	0.342950	0.774499
	H27	H	0.888467	0.656331	0.775901
	H28	H	0.214871	0.890981	0.341641
	H29	H	0.213089	0.103971	0.653707
	H30	H	0.768172	0.109420	0.343000
	H31	H	0.770703	0.894454	0.652654
	H32	H	0.336483	0.222377	0.888254
	H33	H	0.646502	0.218890	0.098370
	H34	H	0.338282	0.775955	0.103220
	H35	H	0.649173	0.779193	0.892631
	H36	H	0.339487	0.890321	0.221747
	H37	H	0.643939	0.106396	0.218905
	H38	H	0.335516	0.102771	0.775033
	H39	H	0.648670	0.895754	0.775838
	H40	H	0.888553	0.220329	0.340234
	H41	H	0.096198	0.219945	0.653882
	H42	H	0.093604	0.781361	0.338212
	H43	H	0.889242	0.779743	0.653535
	H44	H	0.216620	0.345292	0.887394
	H45	H	0.215339	0.654721	0.103837
	H46	H	0.775520	0.340071	0.097235
	H47	H	0.769118	0.654570	0.888419
	H48	H	0.401011	0.111312	0.585990
	H49	H	0.578987	0.887953	0.584430
	H50	H	0.581969	0.109655	0.414640
	H51	H	0.398929	0.885218	0.407019
	H52	H	0.581492	0.406112	0.108630
	H53	H	0.582443	0.586150	0.882609
	H54	H	0.404500	0.585080	0.106595
	H55	H	0.403867	0.412933	0.883019
	H56	H	0.103472	0.589734	0.406548
	H57	H	0.879555	0.586639	0.591612
	H58	H	0.105075	0.411303	0.589612
	H59	H	0.881531	0.409959	0.410166
	H60	H	0.105096	0.404468	0.583555
	H61	H	0.879637	0.595943	0.583460
	H62	H	0.103370	0.587554	0.405694
	H63	H	0.882075	0.412148	0.404958
	H64	H	0.403636	0.587584	0.107659
	H65	H	0.581046	0.587967	0.883514
	H66	H	0.585889	0.406508	0.110253
	H67	H	0.404032	0.413112	0.883544
	H68	H	0.584413	0.114483	0.404617
	H69	H	0.585174	0.886664	0.581974
	H70	H	0.401956	0.110055	0.584410
	H71	H	0.409702	0.888792	0.406591
	H72	H	0.903112	0.611564	0.087427
	H73	H	0.085111	0.387782	0.079467
	H74	H	0.077628	0.609652	0.910558
	H75	H	0.898596	0.387167	0.911489
	H76	H	0.080334	0.909483	0.609014
	H77	H	0.080737	0.093869	0.383023
	H78	H	0.904039	0.084189	0.608077
	H79	H	0.907016	0.912052	0.385698
	H80	H	0.603893	0.090977	0.903013
	H81	H	0.381694	0.084820	0.080752
	H82	H	0.598943	0.909963	0.073563
	H83	H	0.382996	0.914230	0.906683
	H84	H	0.600668	0.920972	0.088028
	H85	H	0.379699	0.086036	0.086858
	H86	H	0.602923	0.090500	0.905980
	H87	H	0.378584	0.906435	0.900809
	H88	H	0.904172	0.090187	0.609995
	H89	H	0.087276	0.082105	0.384283
	H90	H	0.081973	0.909004	0.609816
	H91	H	0.900611	0.907610	0.382181
	H92	H	0.084288	0.611880	0.909684
	H93	H	0.081943	0.385539	0.086556
	H94	H	0.899277	0.610834	0.082859
	H95	H	0.899418	0.383561	0.901617
	H96	H	0.399997	0.110650	0.584041
	H97	H	0.583377	0.884487	0.588684
	H98	H	0.573898	0.111042	0.406766
	H99	H	0.404118	0.890017	0.416265
	H100	H	0.583552	0.409949	0.108735
	H101	H	0.583067	0.588688	0.883058
	H102	H	0.401969	0.585764	0.107632
	H103	H	0.404530	0.412325	0.883827
	H104	H	0.104481	0.589049	0.404270
	H105	H	0.884014	0.585099	0.580363
	H106	H	0.101902	0.412601	0.581437
	H107	H	0.879928	0.406783	0.406061
	H108	H	0.897169	0.614512	0.087638
	H109	H	0.077577	0.389719	0.081331
	H110	H	0.079413	0.612685	0.904568
	H111	H	0.907730	0.388221	0.906116
	H112	H	0.081519	0.911092	0.609488
	H113	H	0.074607	0.082818	0.388382
	H114	H	0.898945	0.086784	0.610110
	H115	H	0.899254	0.916373	0.384159
	H116	H	0.602621	0.088011	0.903808
	H117	H	0.379615	0.090592	0.082215
	H118	H	0.606544	0.903982	0.088738
	H119	H	0.381471	0.904380	0.910236
	C120	C	0.370188	0.006976	0.617495
	C121	C	0.612573	0.990902	0.616646
	C122	C	0.612744	0.008797	0.375313
	C123	C	0.370475	0.990775	0.375846
	C124	C	0.613441	0.377470	0.004020
	C125	C	0.613171	0.618965	0.987328
	C126	C	0.371601	0.620025	0.004118
	C127	C	0.371268	0.379434	0.986393
	C128	C	0.000759	0.620646	0.374003
	C129	C	0.983632	0.621167	0.617178
	C130	C	0.001186	0.377674	0.617893
	C131	C	0.983578	0.377129	0.374485
	C132	C	0.870329	0.507510	0.116690
	C133	C	0.113443	0.490909	0.116290
	C134	C	0.113447	0.508315	0.874661
	C135	C	0.870150	0.490154	0.874327
	C136	C	0.113064	0.877775	0.505232
	C137	C	0.113136	0.119172	0.488763
	C138	C	0.870555	0.120827	0.506021
	C139	C	0.870434	0.879206	0.487395
	C140	C	0.500111	0.121454	0.872423
	C141	C	0.482318	0.120298	0.115864
	C142	C	0.500613	0.877755	0.117497
	C143	C	0.484308	0.877268	0.874437
	C144	C	0.369549	0.888622	0.677319
	C145	C	0.611871	0.109949	0.674938
	C146	C	0.616318	0.891699	0.313629
	C147	C	0.367233	0.108231	0.314733
	C148	C	0.672254	0.376527	0.885559
	C149	C	0.672240	0.620657	0.105753
	C150	C	0.311702	0.623612	0.886123
	C151	C	0.310344	0.375328	0.103743
	C152	C	0.883267	0.680007	0.373277
	C153	C	0.100387	0.681017	0.619145
	C154	C	0.884547	0.317240	0.620370
	C155	C	0.100210	0.316122	0.371444
	C156	C	0.884059	0.376292	0.677253
	C157	C	0.100090	0.623355	0.677467
	C158	C	0.882889	0.621200	0.316259
	C159	C	0.099733	0.373888	0.313079
	C160	C	0.370512	0.680025	0.885767
	C161	C	0.614549	0.678516	0.105767
	C162	C	0.613158	0.320370	0.884545
	C163	C	0.368374	0.318055	0.103991
	C164	C	0.674816	0.892281	0.370512
	C165	C	0.670677	0.109549	0.618279
	C166	C	0.310800	0.889134	0.620806
	C167	C	0.308628	0.107503	0.371769
	C168	C	0.871691	0.388141	0.174439
	C169	C	0.115167	0.608401	0.177299
	C170	C	0.115775	0.390384	0.814435
	C171	C	0.868968	0.608885	0.814935
	C172	C	0.173540	0.874415	0.387930
	C173	C	0.173149	0.122211	0.606663
	C174	C	0.809669	0.125654	0.388850
	C175	C	0.810778	0.876245	0.605585
	C176	C	0.383119	0.181699	0.870103
	C177	C	0.599013	0.180346	0.118041
	C178	C	0.384727	0.816262	0.121120
	C179	C	0.602200	0.818868	0.873715
	C180	C	0.385251	0.873174	0.179962
	C181	C	0.598228	0.123739	0.177312
	C182	C	0.382719	0.122478	0.813544
	C183	C	0.601929	0.876782	0.815635
	C184	C	0.869161	0.181033	0.387835
	C185	C	0.114938	0.179679	0.606838
	C186	C	0.113648	0.819524	0.386249
	C187	C	0.869535	0.819417	0.606150
	C188	C	0.174982	0.391466	0.870495
	C189	C	0.174130	0.608271	0.120746
	C190	C	0.813985	0.387798	0.116612
	C191	C	0.809830	0.607770	0.871069
	C192	C	0.394248	0.089266	0.592088
	C193	C	0.589221	0.908015	0.591960
	C194	C	0.586984	0.090493	0.401093
	C195	C	0.396678	0.909312	0.402264
	C196	C	0.590179	0.400736	0.087363
	C197	C	0.589123	0.594346	0.904627
	C198	C	0.396436	0.593714	0.085986
	C199	C	0.396760	0.405500	0.904706
	C200	C	0.082575	0.595946	0.398497
	C201	C	0.902135	0.596285	0.592266
	C202	C	0.082755	0.402475	0.592406
	C203	C	0.902366	0.402387	0.399802
	C204	C	0.893028	0.590587	0.092735
	C205	C	0.088572	0.408990	0.089828
	C206	C	0.087774	0.590313	0.900791
	C207	C	0.894945	0.407713	0.899123
	C208	C	0.088208	0.902628	0.587916
	C209	C	0.088167	0.093527	0.406703
	C210	C	0.895467	0.094549	0.587946
	C211	C	0.895202	0.904601	0.405364
	C212	C	0.581756	0.096972	0.897254
	C213	C	0.401312	0.094456	0.090625
	C214	C	0.581114	0.904207	0.090969
	C215	C	0.402387	0.901350	0.898916
	Zn216	Zn	0.491754	-0.001396	0.745115
	Zn217	Zn	0.491048	-0.000021	0.246335
	Zn218	Zn	0.741989	0.498560	-0.004485
	Zn219	Zn	0.242352	0.500160	-0.004804
	Zn220	Zn	-0.008200	0.750195	0.495632
	Zn221	Zn	-0.007567	0.248135	0.496415
	Zn222	Zn	-0.007978	0.499653	0.746664
	Zn223	Zn	-0.008062	0.498697	0.245033
	Zn224	Zn	0.492645	0.748249	-0.003863
	Zn225	Zn	0.490986	0.249989	-0.005478
	Zn226	Zn	0.742042	0.000707	0.496151
	Zn227	Zn	0.241427	-0.001803	0.497037
	N228	N	0.405841	0.962931	0.675443
	N229	N	0.576525	0.035088	0.674099
	N230	N	0.578378	0.965241	0.316273
	N231	N	0.405088	0.034572	0.317280
	N232	N	0.672773	0.411145	0.961082
	N233	N	0.671739	0.584592	0.030814
	N234	N	0.312000	0.587132	0.960802
	N235	N	0.312044	0.412833	0.029686
	N236	N	0.957710	0.680009	0.408427
	N237	N	0.026803	0.679817	0.582335
	N238	N	0.958678	0.317642	0.584478
	N239	N	0.027015	0.317867	0.408991
	N240	N	0.957714	0.412725	0.676036
	N241	N	0.026485	0.586834	0.676315
	N242	N	0.956976	0.584937	0.316571
	N243	N	0.026381	0.411092	0.314867
	N244	N	0.406863	0.678118	0.960176
	N245	N	0.578600	0.677601	0.031195
	N246	N	0.577391	0.320677	0.959291
	N247	N	0.405690	0.320547	0.030062
	N248	N	0.672741	0.966103	0.408245
	N249	N	0.671444	0.034386	0.583096
	N250	N	0.311064	0.963577	0.584335
	N251	N	0.310480	0.033246	0.408943
	N252	N	0.905573	0.463726	0.174993
	N253	N	0.078331	0.534271	0.174759
	N254	N	0.078261	0.464280	0.816755
	N255	N	0.905800	0.534632	0.816708
	N256	N	0.173298	0.909767	0.463058
	N257	N	0.172270	0.085524	0.532023
	N258	N	0.810395	0.089002	0.463359
	N259	N	0.810965	0.912388	0.530755
	N260	N	0.457133	0.181408	0.905870
	N261	N	0.525857	0.178480	0.080497
	N262	N	0.457504	0.819137	0.082876
	N263	N	0.527911	0.818715	0.909288
	N264	N	0.458385	0.910754	0.177956
	N265	N	0.524563	0.087275	0.176195
	N266	N	0.456553	0.085837	0.814797
	N267	N	0.527539	0.912224	0.815795
	N268	N	0.906377	0.178201	0.461775
	N269	N	0.078529	0.178078	0.532402
	N270	N	0.076741	0.821392	0.460456
	N271	N	0.905921	0.820771	0.531549
	N272	N	0.173742	0.465926	0.907088
	N273	N	0.173247	0.534056	0.083383
	N274	N	0.812758	0.463155	0.081563
	N275	N	0.810302	0.532934	0.907081
	O276	O	0.210255	0.792266	-0.036488
	H277	H	0.234809	0.779914	-0.032411
	H278	H	0.206514	0.808891	-0.048917
	O279	O	0.505361	0.628028	0.417811
	H280	H	0.505871	0.629052	0.422591
	H281	H	0.522526	0.632584	0.406319
	O282	O	0.923257	-0.194409	1.197780
	H283	H	0.944002	-0.206109	1.197459
	H284	H	0.921550	-0.194237	1.203301
	O285	O	0.487234	0.318533	0.386565
	H286	H	0.472376	0.318466	0.390502
	H287	H	0.471380	0.339116	0.384363
	O288	O	0.633235	0.480189	0.708964
	H289	H	0.634955	0.491817	0.720029
	H290	H	0.628803	0.493922	0.705667
	O291	O	0.276925	0.476992	0.695922
	H292	H	0.276342	0.446873	0.697575
	H293	H	0.267463	0.459234	0.715001
	O294	O	1.107880	-0.051121	1.109259
	H295	H	1.110136	-0.052809	1.115400
	H296	H	1.111705	-0.037971	1.095706
	O297	O	0.264482	0.465156	0.484918
	H298	H	0.264191	0.461000	0.483414
	H299	H	0.258422	0.454636	0.478265
	O300	O	0.015537	-0.018254	0.819998
	H301	H	0.012550	-0.019881	0.817421
	H302	H	0.017473	-0.038617	0.833066
	O303	O	0.657698	0.471002	0.538248
	H304	H	0.652447	0.473738	0.541817
	H305	H	0.657306	0.476583	0.547316
	O306	O	0.706747	0.291765	0.480887
	H307	H	0.723139	0.279025	0.484058
	H308	H	0.694161	0.305824	0.474658
	O309	O	0.637277	0.501040	0.708785
	H310	H	0.648908	0.501760	0.719245
	H311	H	0.620959	0.527201	0.705930
	O312	O	0.716220	0.462188	0.271424
	H313	H	0.738771	0.455127	0.261306
	H314	H	0.729556	0.450237	0.274499
	O315	O	1.193402	1.155010	0.842798
	H316	H	1.185080	1.146213	0.860447
	H317	H	1.184322	1.145241	0.860705
	O318	O	0.286773	0.300685	0.696592
	H319	H	0.283651	0.273220	0.723083
	H320	H	0.321552	0.294405	0.688178
	O321	O	0.333731	0.689848	0.643571
	H322	H	0.344337	0.673695	0.639244
	H323	H	0.349256	0.678430	0.630134
	O324	O	0.774760	0.781625	0.210621
	H325	H	0.791243	0.794896	0.188799
	H326	H	0.791267	0.801851	0.197585
	O327	O	0.219689	0.017075	1.215745
	H328	H	0.230215	0.047204	1.230150
	H329	H	0.219038	0.038121	1.228440
	O330	O	0.287406	0.707475	0.349878
	H331	H	0.288941	0.688585	0.358624
	H332	H	0.296744	0.712780	0.357140
	O333	O	0.775251	0.071916	0.783687
	H334	H	0.766743	0.111054	0.772415
	H335	H	0.771567	0.079754	0.772282
	O336	O	0.694537	0.297641	0.299660
	H337	H	0.650198	0.292897	0.307519
	H338	H	0.703374	0.316856	0.324087
	O339	O	0.767897	0.219624	0.961482
	H340	H	0.740935	0.246613	0.947224
	H341	H	0.769436	0.217607	0.923934
	O342	O	0.007510	0.178456	0.156537
	H343	H	-0.022400	0.194704	0.152126
	H344	H	-0.007134	0.175204	0.159223
	O345	O	0.194678	1.208045	1.010365
	H346	H	0.194366	1.207809	1.019987
	H347	H	0.199293	1.216081	1.016688
	O348	O	0.374757	0.583561	0.339042
	H349	H	0.384285	0.577776	0.322467
	H350	H	0.379887	0.583960	0.356378
	O351	O	0.116189	0.803594	0.131263
	H352	H	0.123739	0.826601	0.122527
	H353	H	0.132303	0.797720	0.137760
	O354	O	0.070573	0.166091	1.138400
	H355	H	0.075370	0.160066	1.150936
	H356	H	0.056857	0.170728	1.102198
	O357	O	0.271026	0.282371	0.525405
	H358	H	0.266230	0.293615	0.538779
	H359	H	0.244912	0.260049	0.539089
	O360	O	0.516085	0.302319	0.286144
	H361	H	0.507431	0.307675	0.267841
	H362	H	0.518597	0.297584	0.289738
	O363	O	0.194752	-0.204332	-0.205315
	H364	H	0.208086	-0.218668	-0.189863
	H365	H	0.167259	-0.208382	-0.216562
	O366	O	0.315749	0.322102	0.312648
	H367	H	0.337187	0.339172	0.322587
	H368	H	0.311555	0.340488	0.315726
	O369	O	1.113087	-0.018859	-0.035589
	H370	H	1.117103	-0.006654	-0.011973
	H371	H	1.128016	-0.025878	-0.051279
	O372	O	0.926848	0.970316	-0.140884
	H373	H	0.919938	0.973012	-0.149757
	H374	H	0.913174	0.974367	-0.133855
	O375	O	0.773693	0.001697	0.010195
	H376	H	0.781646	0.016428	0.013531
	H377	H	0.767312	0.016001	0.012095
	O378	O	0.705821	0.556708	0.428126
	H379	H	0.701225	0.564106	0.436021
	H380	H	0.708387	0.558633	0.426640
	O381	O	0.160348	1.041031	0.841435
	H382	H	0.166655	1.010989	0.818272
	H383	H	0.161437	1.028475	0.854682
	O384	O	0.851259	0.122474	1.188956
	H385	H	0.832739	0.119203	1.197030
	H386	H	0.859603	0.096539	1.186870
	O387	O	0.777837	0.779622	0.026189
	H388	H	0.774873	0.767524	0.024619
	H389	H	0.774097	0.786533	0.019147
	O390	O	0.502343	0.282640	0.531324
	H391	H	0.502525	0.289254	0.513486
	H392	H	0.489128	0.280318	0.513916
	O393	O	0.567329	0.581129	0.296564
	H394	H	0.571751	0.576212	0.293943
	H395	H	0.583319	0.594867	0.286036
	O396	O	-0.177072	1.206943	0.789238
	H397	H	-0.136018	1.218655	0.778084
	H398	H	-0.191699	1.227400	0.764355
	O399	O	-0.059037	0.085511	1.140855
	H400	H	-0.072840	0.080129	1.137101
	H401	H	-0.061699	0.088582	1.126516
	O402	O	0.791302	-0.107429	0.829002
	H403	H	0.794644	-0.092098	0.831223
	H404	H	0.787595	-0.095552	0.842734
	O405	O	1.452805	0.286233	0.707032
	H406	H	1.464865	0.256554	0.725181
	H407	H	1.474297	0.307768	0.695100
	O408	O	-0.090026	0.204413	0.065238
	H409	H	-0.111448	0.220768	0.086433
	H410	H	-0.077198	0.208327	0.050821
	O411	O	0.832715	0.964005	1.028924
	H412	H	0.837590	0.978074	1.039135
	H413	H	0.835933	0.965851	1.024828
	O414	O	0.594719	0.473831	0.420756
	H415	H	0.591817	0.479891	0.435872
	H416	H	0.585823	0.491470	0.417768
	O417	O	0.631361	0.705193	0.359338
	H418	H	0.650594	0.722365	0.330653
	H419	H	0.637170	0.695216	0.366795
	O420	O	0.440041	0.574440	0.690002
	H421	H	0.451614	0.590817	0.697098
	H422	H	0.421498	0.570928	0.679444
	O423	O	0.022912	-0.211046	0.785096
	H424	H	0.026743	-0.205080	0.783397
	H425	H	0.016328	-0.220788	0.780312
	O426	O	0.454110	0.674434	0.551535
	H427	H	0.447844	0.681455	0.535404
	H428	H	0.449594	0.681656	0.552549
	O429	O	1.223959	0.953557	1.049226
	H430	H	1.229070	0.966431	1.078253
	H431	H	1.214258	0.951928	1.048097
	O432	O	0.525140	0.717569	0.714819
	H433	H	0.545379	0.729648	0.721279
	H434	H	0.520510	0.727795	0.725418
	O435	O	-0.306334	0.700657	-0.302187
	H436	H	-0.291037	0.716182	-0.321625
	H437	H	-0.314002	0.694833	-0.288603
	O438	O	0.007273	-0.228857	0.010589
	H439	H	0.024144	-0.220240	0.007984
	H440	H	0.020414	-0.235163	0.023010
	O441	O	-0.285871	-0.283576	-0.470526
	H442	H	-0.264950	-0.258449	-0.467334
	H443	H	-0.296795	-0.277398	-0.476717
	O444	O	0.268203	0.662669	0.486496
	H445	H	0.264244	0.666088	0.490518
	H446	H	0.253039	0.653274	0.483274
	O447	O	-0.036461	1.167211	0.835989
	H448	H	-0.028655	1.189727	0.816695
	H449	H	-0.010351	1.148765	0.834308
	O450	O	-0.011590	0.962316	0.970388
	H451	H	-0.015964	0.961627	0.979134
	H452	H	-0.006081	0.963144	0.960985
	O453	O	0.500280	0.665919	0.287875
	H454	H	0.500343	0.659431	0.280978
	H455	H	0.501186	0.672707	0.271687
	O456	O	0.451081	0.374884	1.475926
	H457	H	0.440505	0.383437	1.479887
	H458	H	0.435647	0.370806	1.470287
	O459	O	1.086885	0.986273	-0.224240
	H460	H	1.090398	0.948907	-0.227523
	H461	H	1.077042	0.974927	-0.236045
	O462	O	0.419252	0.563600	0.554418
	H463	H	0.414992	0.567042	0.567064
	H464	H	0.424896	0.584238	0.553764
	O465	O	1.168415	0.208220	0.208874
	H466	H	1.186491	0.223367	0.209657
	H467	H	1.136402	0.206512	0.214170
	O468	O	0.434015	0.454331	0.371501
	H469	H	0.443920	0.467036	0.376243
	H470	H	0.443299	0.443493	0.371900
	O471	O	0.687048	0.309501	0.684591
	H472	H	0.669482	0.320404	0.659535
	H473	H	0.668208	0.335054	0.670573
	O474	O	0.253658	0.662933	0.256145
	H475	H	0.263458	0.675242	0.264524
	H476	H	0.246942	0.660536	0.247568
	O477	O	1.029758	0.035179	2.176062
	H478	H	1.024866	0.038268	2.183313
	H479	H	1.026200	0.033701	2.182794
	O480	O	0.409170	0.521903	0.574742
	H481	H	0.406923	0.528514	0.579837
	H482	H	0.401397	0.526854	0.573092
	O483	O	-0.121689	0.798419	-0.109652
	H484	H	-0.117924	0.807915	-0.096037
	H485	H	-0.110786	0.801931	-0.098835
	O486	O	0.773282	-0.020603	1.210566
	H487	H	0.748890	-0.023052	1.222854
	H488	H	0.783768	-0.020430	1.200393
	O489	O	1.001699	1.153328	-0.064262
	H490	H	0.995007	1.161066	-0.063973
	H491	H	1.015994	1.151553	-0.066236
