data_Molecule from HDF5

_cell_length_a		16.228323
_cell_length_b		16.281549
_cell_length_c		16.315053
_cell_angle_alpha	89.901531
_cell_angle_beta	90.280233
_cell_angle_gamma	89.885958
_symmetry_space_group_name_H-M	'P 1'
_symmetry_Int_Tables_number		1

loop_
	_symmetry_equiv_pos_as_xyz
	x,y,z

loop_
	_atom_site_label
	_atom_site_type_symbol
	_atom_site_fract_x
	_atom_site_fract_y
	_atom_site_fract_z
	H0	H	0.403435	0.838566	0.715400
	H1	H	0.599524	0.165288	0.715552
	H2	H	0.599538	0.838226	0.287965
	H3	H	0.402489	0.166775	0.287323
	H4	H	0.712078	0.405533	0.837279
	H5	H	0.715235	0.599442	0.164854
	H6	H	0.284807	0.599671	0.837289
	H7	H	0.286845	0.404163	0.165412
	H8	H	0.836970	0.716886	0.402541
	H9	H	0.164585	0.713969	0.601210
	H10	H	0.836533	0.288427	0.599148
	H11	H	0.165392	0.288214	0.406493
	H12	H	0.835569	0.404758	0.714700
	H13	H	0.163913	0.599476	0.717624
	H14	H	0.835999	0.601194	0.287411
	H15	H	0.164338	0.401887	0.288110
	H16	H	0.399063	0.717578	0.837550
	H17	H	0.599200	0.716023	0.164859
	H18	H	0.597468	0.287845	0.837372
	H19	H	0.402297	0.286459	0.165208
	H20	H	0.713729	0.838050	0.405941
	H21	H	0.713337	0.166241	0.597944
	H22	H	0.288358	0.838182	0.598835
	H23	H	0.284617	0.166627	0.402413
	H24	H	0.901648	0.338246	0.217250
	H25	H	0.100606	0.666111	0.218338
	H26	H	0.097958	0.337750	0.789540
	H27	H	0.899590	0.665185	0.785892
	H28	H	0.214603	0.903625	0.338702
	H29	H	0.213848	0.097106	0.666539
	H30	H	0.786897	0.098947	0.338906
	H31	H	0.788326	0.903974	0.665421
	H32	H	0.336223	0.215762	0.902832
	H33	H	0.665228	0.214263	0.099175
	H34	H	0.335393	0.788914	0.098038
	H35	H	0.664656	0.788024	0.904049
	H36	H	0.336601	0.902956	0.217139
	H37	H	0.665066	0.099774	0.216569
	H38	H	0.337041	0.101197	0.785511
	H39	H	0.664875	0.904055	0.788707
	H40	H	0.900866	0.216630	0.339452
	H41	H	0.099846	0.214903	0.666064
	H42	H	0.099800	0.785728	0.338893
	H43	H	0.903398	0.787519	0.665773
	H44	H	0.212128	0.337825	0.907075
	H45	H	0.215726	0.666228	0.100245
	H46	H	0.787496	0.337258	0.098460
	H47	H	0.785573	0.666112	0.903561
	H48	H	0.404363	0.119895	0.593754
	H49	H	0.589073	0.886175	0.596479
	H50	H	0.595935	0.121886	0.399622
	H51	H	0.407069	0.887191	0.409513
	H52	H	0.596418	0.411238	0.117249
	H53	H	0.606603	0.597919	0.879822
	H54	H	0.414759	0.598842	0.116375
	H55	H	0.391436	0.408405	0.881426
	H56	H	0.120608	0.599823	0.405332
	H57	H	0.883186	0.588576	0.598201
	H58	H	0.117662	0.411605	0.600714
	H59	H	0.884276	0.413280	0.407264
	H60	H	0.119910	0.403233	0.598084
	H61	H	0.880446	0.600053	0.597906
	H62	H	0.115001	0.594823	0.419021
	H63	H	0.881948	0.406270	0.405305
	H64	H	0.402723	0.598701	0.119160
	H65	H	0.587903	0.582727	0.889853
	H66	H	0.590090	0.407034	0.116231
	H67	H	0.412432	0.420297	0.890869
	H68	H	0.585393	0.116155	0.410177
	H69	H	0.598339	0.885228	0.590771
	H70	H	0.409253	0.119163	0.597856
	H71	H	0.407904	0.886438	0.407074
	H72	H	0.909751	0.620609	0.106308
	H73	H	0.078809	0.390740	0.095287
	H74	H	0.104518	0.621333	0.909323
	H75	H	0.910384	0.385540	0.905930
	H76	H	0.090813	0.908054	0.617019
	H77	H	0.088149	0.100105	0.386034
	H78	H	0.914587	0.090775	0.615837
	H79	H	0.903912	0.901822	0.382859
	H80	H	0.622260	0.099328	0.897193
	H81	H	0.384333	0.096465	0.090936
	H82	H	0.618222	0.906787	0.098544
	H83	H	0.387529	0.914730	0.915720
	H84	H	0.616940	0.907129	0.092912
	H85	H	0.385269	0.090253	0.093744
	H86	H	0.617933	0.103742	0.917632
	H87	H	0.381909	0.915110	0.897943
	H88	H	0.908497	0.105211	0.622614
	H89	H	0.099149	0.096926	0.383399
	H90	H	0.096094	0.903606	0.619549
	H91	H	0.902717	0.914290	0.386302
	H92	H	0.085731	0.620565	0.897261
	H93	H	0.102385	0.387895	0.083863
	H94	H	0.917120	0.612851	0.087198
	H95	H	0.904495	0.386024	0.911727
	H96	H	0.409511	0.117974	0.591676
	H97	H	0.597978	0.882378	0.601193
	H98	H	0.600682	0.118680	0.414571
	H99	H	0.409938	0.887318	0.409440
	H100	H	0.596712	0.404041	0.119578
	H101	H	0.583187	0.607385	0.884552
	H102	H	0.407598	0.588488	0.115057
	H103	H	0.413976	0.395997	0.883700
	H104	H	0.114837	0.585094	0.407040
	H105	H	0.885350	0.594818	0.587721
	H106	H	0.115798	0.408972	0.592453
	H107	H	0.884406	0.406928	0.412358
	H108	H	0.896010	0.619744	0.088750
	H109	H	0.099625	0.380727	0.108916
	H110	H	0.085774	0.614156	0.918914
	H111	H	0.903189	0.382978	0.904805
	H112	H	0.097242	0.910523	0.618297
	H113	H	0.091559	0.089192	0.387598
	H114	H	0.897945	0.091627	0.620880
	H115	H	0.914579	0.907829	0.387841
	H116	H	0.613868	0.083998	0.910035
	H117	H	0.382395	0.095627	0.097543
	H118	H	0.615500	0.911336	0.096135
	H119	H	0.380761	0.899412	0.908411
	C120	C	0.379549	0.010815	0.622791
	C121	C	0.623142	0.993146	0.623837
	C122	C	0.622396	0.010553	0.380337
	C123	C	0.379192	0.995032	0.379895
	C124	C	0.622099	0.379454	0.009532
	C125	C	0.621666	0.623749	0.992732
	C126	C	0.378691	0.623776	0.008888
	C127	C	0.378143	0.379698	0.993549
	C128	C	0.008704	0.622806	0.381093
	C129	C	0.991360	0.622555	0.623507
	C130	C	0.009026	0.380093	0.624347
	C131	C	0.992230	0.379941	0.380526
	C132	C	0.879261	0.509653	0.122706
	C133	C	0.122686	0.494429	0.124628
	C134	C	0.120422	0.510312	0.881126
	C135	C	0.877575	0.493443	0.879194
	C136	C	0.123164	0.878839	0.510559
	C137	C	0.121597	0.122898	0.494185
	C138	C	0.878711	0.123528	0.511171
	C139	C	0.879769	0.880059	0.494029
	C140	C	0.509275	0.123772	0.879560
	C141	C	0.492545	0.122356	0.122459
	C142	C	0.508579	0.879912	0.123899
	C143	C	0.492051	0.881289	0.879977
	C144	C	0.382829	0.887486	0.677812
	C145	C	0.619921	0.116571	0.677581
	C146	C	0.619873	0.887074	0.325730
	C147	C	0.381250	0.117924	0.324764
	C148	C	0.674926	0.384004	0.886042
	C149	C	0.676915	0.620119	0.116269
	C150	C	0.322545	0.620916	0.886124
	C151	C	0.324229	0.383296	0.116641
	C152	C	0.885497	0.678542	0.382405
	C153	C	0.115397	0.676673	0.621352
	C154	C	0.885345	0.326117	0.620414
	C155	C	0.115714	0.324903	0.384480
	C156	C	0.885175	0.383145	0.678165
	C157	C	0.115241	0.620012	0.679338
	C158	C	0.885193	0.621123	0.325146
	C159	C	0.115430	0.381933	0.325994
	C160	C	0.379473	0.679334	0.886264
	C161	C	0.619531	0.678384	0.115959
	C162	C	0.617971	0.325612	0.886257
	C163	C	0.381481	0.324708	0.116410
	C164	C	0.676769	0.886985	0.384231
	C165	C	0.676524	0.117066	0.619307
	C166	C	0.325650	0.887069	0.619671
	C167	C	0.323159	0.117942	0.382310
	C168	C	0.881700	0.386817	0.178298
	C169	C	0.120818	0.617341	0.180147
	C170	C	0.118283	0.386697	0.827141
	C171	C	0.879604	0.616469	0.824053
	C172	C	0.177422	0.882137	0.387577
	C173	C	0.176549	0.118646	0.617477
	C174	C	0.824305	0.120040	0.387822
	C175	C	0.825788	0.883200	0.616923
	C176	C	0.385218	0.178283	0.881971
	C177	C	0.616216	0.176924	0.120000
	C178	C	0.384697	0.825931	0.119917
	C179	C	0.615756	0.825894	0.883270
	C180	C	0.385248	0.882658	0.178878
	C181	C	0.616079	0.120450	0.178366
	C182	C	0.385905	0.121570	0.823561
	C183	C	0.615769	0.883649	0.826134
	C184	C	0.881207	0.178381	0.388168
	C185	C	0.119837	0.176955	0.617340
	C186	C	0.120272	0.823497	0.387884
	C187	C	0.882910	0.825177	0.616839
	C188	C	0.174879	0.386759	0.885467
	C189	C	0.178091	0.617455	0.121666
	C190	C	0.825116	0.386212	0.119258
	C191	C	0.822620	0.616701	0.882224
	C192	C	0.401270	0.096860	0.600901
	C193	C	0.601702	0.906858	0.602465
	C194	C	0.600459	0.096746	0.401753
	C195	C	0.401697	0.909141	0.402164
	C196	C	0.600648	0.400827	0.095611
	C197	C	0.599280	0.602319	0.906951
	C198	C	0.401723	0.601681	0.094674
	C199	C	0.399552	0.401690	0.907440
	C200	C	0.094592	0.599920	0.403767
	C201	C	0.905360	0.600847	0.601127
	C202	C	0.095566	0.401756	0.603259
	C203	C	0.905715	0.402198	0.402040
	C204	C	0.901353	0.595738	0.100628
	C205	C	0.100273	0.408766	0.102566
	C206	C	0.098438	0.596552	0.902195
	C207	C	0.899582	0.407105	0.901029
	C208	C	0.101094	0.900899	0.596338
	C209	C	0.099402	0.101640	0.407998
	C210	C	0.900671	0.102177	0.597431
	C211	C	0.900868	0.901498	0.407934
	C212	C	0.595651	0.102167	0.901694
	C213	C	0.406285	0.100502	0.100446
	C214	C	0.594636	0.901936	0.102267
	C215	C	0.405784	0.903284	0.901140
	Zn216	Zn	0.501131	0.002361	0.751448
	Zn217	Zn	0.500979	0.002249	0.251771
	Zn218	Zn	0.750181	0.501349	0.001433
	Zn219	Zn	0.250305	0.502450	0.001508
	Zn220	Zn	0.000240	0.750366	0.502315
	Zn221	Zn	0.000570	0.251934	0.503253
	Zn222	Zn	-0.000101	0.501948	0.751918
	Zn223	Zn	0.000403	0.502437	0.252390
	Zn224	Zn	0.499892	0.752637	0.000805
	Zn225	Zn	0.500174	0.251023	0.001588
	Zn226	Zn	0.750852	0.001425	0.502399
	Zn227	Zn	0.250737	0.002382	0.501819
	N228	N	0.415877	0.965213	0.679621
	N229	N	0.587441	0.038845	0.680343
	N230	N	0.587012	0.964944	0.323163
	N231	N	0.415370	0.040624	0.323382
	N232	N	0.677533	0.416758	0.963614
	N233	N	0.678595	0.586989	0.038748
	N234	N	0.322119	0.586904	0.963416
	N235	N	0.321909	0.416599	0.039071
	N236	N	0.963060	0.679658	0.416350
	N237	N	0.037603	0.678393	0.587498
	N238	N	0.963175	0.324141	0.587835
	N239	N	0.038030	0.323734	0.417631
	N240	N	0.963301	0.416151	0.680736
	N241	N	0.037351	0.586914	0.680819
	N242	N	0.962904	0.587197	0.324123
	N243	N	0.037581	0.415682	0.323588
	N244	N	0.413619	0.681123	0.963633
	N245	N	0.585968	0.680679	0.038426
	N246	N	0.585833	0.322927	0.964125
	N247	N	0.414219	0.322447	0.038903
	N248	N	0.678373	0.964584	0.417490
	N249	N	0.678620	0.039127	0.586596
	N250	N	0.323398	0.964702	0.586309
	N251	N	0.321528	0.040248	0.415708
	N252	N	0.914693	0.464534	0.180323
	N253	N	0.087297	0.539783	0.182105
	N254	N	0.084968	0.464473	0.824479
	N255	N	0.913157	0.538795	0.822212
	N256	N	0.179489	0.915619	0.464803
	N257	N	0.177769	0.085815	0.539864
	N258	N	0.822639	0.086737	0.465279
	N259	N	0.823639	0.916535	0.539587
	N260	N	0.462802	0.179666	0.916109
	N261	N	0.538446	0.178198	0.085845
	N262	N	0.462383	0.824004	0.086676
	N263	N	0.537805	0.824480	0.916283
	N264	N	0.463274	0.915513	0.181364
	N265	N	0.538351	0.087229	0.179884
	N266	N	0.463988	0.088431	0.822017
	N267	N	0.537996	0.917273	0.823924
	N268	N	0.914320	0.180731	0.465988
	N269	N	0.086339	0.179576	0.539687
	N270	N	0.087184	0.821434	0.465451
	N271	N	0.915943	0.823393	0.539468
	N272	N	0.176268	0.464408	0.918355
	N273	N	0.179574	0.540120	0.088062
	N274	N	0.823434	0.463679	0.085373
	N275	N	0.821529	0.539198	0.916085
	O276	O	-0.006463	0.033922	1.112926
	H277	H	-0.001783	0.036997	1.121766
	H278	H	0.003876	0.027009	1.116858
	O279	O	0.386079	0.586949	0.420277
	H280	H	0.373846	0.589945	0.423821
	H281	H	0.385039	0.580241	0.426155
	O282	O	0.381560	0.600133	0.365619
	H283	H	0.383682	0.606797	0.364054
	H284	H	0.384393	0.601537	0.354404
	O285	O	0.405504	0.601775	0.366691
	H286	H	0.402275	0.600483	0.362995
	H287	H	0.404382	0.603692	0.376418
	O288	O	1.041781	0.042758	0.132238
	H289	H	1.039259	0.043614	0.131234
	H290	H	1.045411	0.042809	0.137665
	O291	O	-0.001885	1.037552	1.102190
	H292	H	-0.003758	1.041873	1.110262
	H293	H	-0.002237	1.041054	1.105310
	O294	O	0.360299	0.588623	0.411022
	H295	H	0.350991	0.594682	0.390467
	H296	H	0.361202	0.591723	0.409369
	O297	O	1.028480	0.045924	0.101949
	H298	H	1.020550	0.046687	0.094362
	H299	H	1.022436	0.047288	0.100293
