data_Molecule from HDF5

_cell_length_a		16.288886
_cell_length_b		16.258774
_cell_length_c		16.284771
_cell_angle_alpha	90.045946
_cell_angle_beta	89.935703
_cell_angle_gamma	90.093454
_symmetry_space_group_name_H-M	'P 1'
_symmetry_Int_Tables_number		1

loop_
	_symmetry_equiv_pos_as_xyz
	x,y,z

loop_
	_atom_site_label
	_atom_site_type_symbol
	_atom_site_fract_x
	_atom_site_fract_y
	_atom_site_fract_z
	H0	H	0.401379	0.835822	0.713160
	H1	H	0.598183	0.164019	0.714004
	H2	H	0.597863	0.835932	0.286047
	H3	H	0.403294	0.163723	0.286490
	H4	H	0.714747	0.401521	0.836205
	H5	H	0.715078	0.599136	0.163799
	H6	H	0.287056	0.596966	0.836302
	H7	H	0.285569	0.401113	0.163861
	H8	H	0.835390	0.713001	0.404070
	H9	H	0.163243	0.715601	0.598427
	H10	H	0.835928	0.285013	0.598819
	H11	H	0.163904	0.285561	0.401527
	H12	H	0.836428	0.401437	0.715170
	H13	H	0.163796	0.599169	0.713787
	H14	H	0.835921	0.597857	0.285800
	H15	H	0.164004	0.403105	0.286426
	H16	H	0.403656	0.711677	0.835742
	H17	H	0.598930	0.715512	0.163281
	H18	H	0.598305	0.285008	0.836438
	H19	H	0.403414	0.287051	0.164436
	H20	H	0.712908	0.835596	0.401771
	H21	H	0.712991	0.164196	0.597020
	H22	H	0.284576	0.836511	0.598425
	H23	H	0.287377	0.164538	0.402520
	H24	H	0.902784	0.335998	0.213122
	H25	H	0.098767	0.664329	0.213704
	H26	H	0.098302	0.335839	0.785278
	H27	H	0.903507	0.664140	0.786268
	H28	H	0.213832	0.902151	0.336877
	H29	H	0.215447	0.099976	0.662865
	H30	H	0.786312	0.097922	0.335420
	H31	H	0.784119	0.901942	0.663869
	H32	H	0.335842	0.212889	0.903047
	H33	H	0.664261	0.214047	0.097136
	H34	H	0.335899	0.786480	0.097587
	H35	H	0.663918	0.786206	0.902109
	H36	H	0.336149	0.902510	0.213689
	H37	H	0.664488	0.097783	0.213052
	H38	H	0.336498	0.098229	0.785200
	H39	H	0.663532	0.903017	0.786602
	H40	H	0.902909	0.213076	0.335913
	H41	H	0.097939	0.214323	0.664024
	H42	H	0.097825	0.785861	0.336764
	H43	H	0.901946	0.786887	0.664651
	H44	H	0.214447	0.336139	0.901325
	H45	H	0.214850	0.663963	0.098074
	H46	H	0.786455	0.336137	0.097477
	H47	H	0.785568	0.664159	0.900365
	H48	H	0.396558	0.119624	0.591716
	H49	H	0.588514	0.884737	0.590770
	H50	H	0.590619	0.117975	0.399679
	H51	H	0.406985	0.886317	0.415625
	H52	H	0.594776	0.400231	0.118592
	H53	H	0.594556	0.592571	0.883241
	H54	H	0.411075	0.595190	0.115743
	H55	H	0.388361	0.414056	0.880684
	H56	H	0.121335	0.602998	0.399870
	H57	H	0.881794	0.599977	0.590848
	H58	H	0.112357	0.408756	0.582030
	H59	H	0.882994	0.409555	0.401438
	H60	H	0.115816	0.416437	0.599529
	H61	H	0.886666	0.587011	0.590270
	H62	H	0.113549	0.595718	0.417497
	H63	H	0.881673	0.400808	0.406290
	H64	H	0.404221	0.596184	0.118436
	H65	H	0.592512	0.591904	0.884364
	H66	H	0.598898	0.410984	0.117064
	H67	H	0.421263	0.417752	0.891311
	H68	H	0.592553	0.114878	0.411498
	H69	H	0.597623	0.881981	0.590660
	H70	H	0.411545	0.118335	0.603087
	H71	H	0.398751	0.879850	0.403439
	H72	H	0.906245	0.616416	0.092623
	H73	H	0.085766	0.386491	0.090645
	H74	H	0.094560	0.618767	0.899412
	H75	H	0.904800	0.381933	0.905628
	H76	H	0.085421	0.906514	0.615553
	H77	H	0.094776	0.095612	0.382413
	H78	H	0.899203	0.088060	0.617161
	H79	H	0.905571	0.908640	0.384133
	H80	H	0.618906	0.095857	0.900682
	H81	H	0.382328	0.093739	0.095641
	H82	H	0.617832	0.901402	0.090448
	H83	H	0.380953	0.898957	0.905980
	H84	H	0.614691	0.911178	0.089625
	H85	H	0.384047	0.094310	0.091282
	H86	H	0.615398	0.096940	0.912750
	H87	H	0.385421	0.907273	0.911747
	H88	H	0.912606	0.090277	0.614135
	H89	H	0.095378	0.091019	0.383879
	H90	H	0.097571	0.902206	0.619995
	H91	H	0.907558	0.904065	0.383808
	H92	H	0.088221	0.614616	0.908614
	H93	H	0.099939	0.382361	0.088609
	H94	H	0.907300	0.617384	0.093846
	H95	H	0.909186	0.384539	0.906084
	H96	H	0.413444	0.112084	0.584945
	H97	H	0.592677	0.881934	0.598518
	H98	H	0.601478	0.119671	0.404952
	H99	H	0.413767	0.884090	0.401384
	H100	H	0.588065	0.409053	0.114158
	H101	H	0.593378	0.594065	0.883801
	H102	H	0.406157	0.589718	0.116455
	H103	H	0.410194	0.387653	0.877784
	H104	H	0.114717	0.583748	0.401162
	H105	H	0.881256	0.592162	0.601665
	H106	H	0.119658	0.398106	0.596108
	H107	H	0.885190	0.408485	0.411007
	H108	H	0.908020	0.616488	0.092204
	H109	H	0.094053	0.380970	0.101831
	H110	H	0.099407	0.617227	0.910143
	H111	H	0.906145	0.384490	0.910157
	H112	H	0.096387	0.914306	0.615662
	H113	H	0.090787	0.092958	0.384428
	H114	H	0.905136	0.100110	0.618112
	H115	H	0.903154	0.904404	0.382227
	H116	H	0.614039	0.085509	0.906736
	H117	H	0.384802	0.090079	0.093453
	H118	H	0.617895	0.908069	0.098725
	H119	H	0.382228	0.908605	0.901261
	C120	C	0.378248	0.008444	0.621609
	C121	C	0.621231	0.991346	0.621207
	C122	C	0.622126	0.008740	0.377817
	C123	C	0.378567	0.991673	0.378595
	C124	C	0.622043	0.378414	0.008482
	C125	C	0.621801	0.621572	0.991923
	C126	C	0.378618	0.621185	0.008575
	C127	C	0.378364	0.378279	0.991720
	C128	C	0.008100	0.621968	0.378610
	C129	C	0.991613	0.621883	0.622264
	C130	C	0.007808	0.379022	0.621370
	C131	C	0.991728	0.378075	0.378178
	C132	C	0.878983	0.508631	0.121029
	C133	C	0.121770	0.491820	0.121725
	C134	C	0.122029	0.508100	0.878059
	C135	C	0.878607	0.492041	0.878563
	C136	C	0.121114	0.878883	0.508850
	C137	C	0.121665	0.121755	0.491682
	C138	C	0.877958	0.121220	0.507926
	C139	C	0.877462	0.878304	0.491941
	C140	C	0.508045	0.121470	0.878413
	C141	C	0.492150	0.121321	0.121339
	C142	C	0.508523	0.878462	0.121605
	C143	C	0.491178	0.877764	0.878232
	C144	C	0.380857	0.885019	0.675811
	C145	C	0.618582	0.114969	0.676016
	C146	C	0.618636	0.884809	0.323584
	C147	C	0.382429	0.115175	0.324524
	C148	C	0.677121	0.380811	0.885058
	C149	C	0.677059	0.619488	0.114967
	C150	C	0.324485	0.617719	0.885161
	C151	C	0.323628	0.381173	0.115103
	C152	C	0.884237	0.675491	0.382777
	C153	C	0.114529	0.677151	0.619197
	C154	C	0.884841	0.323470	0.618805
	C155	C	0.114933	0.323358	0.381072
	C156	C	0.885045	0.380807	0.676958
	C157	C	0.114825	0.619380	0.676680
	C158	C	0.884646	0.618395	0.324068
	C159	C	0.115149	0.381495	0.323656
	C160	C	0.382469	0.674709	0.884890
	C161	C	0.619672	0.677457	0.114757
	C162	C	0.619118	0.323223	0.885082
	C163	C	0.381898	0.324177	0.115219
	C164	C	0.675759	0.884674	0.381230
	C165	C	0.675676	0.115123	0.617876
	C166	C	0.323008	0.885079	0.618577
	C167	C	0.324243	0.115080	0.381570
	C168	C	0.881938	0.384949	0.175692
	C169	C	0.119413	0.615254	0.176239
	C170	C	0.119141	0.384853	0.822846
	C171	C	0.882408	0.615436	0.823920
	C172	C	0.175947	0.881435	0.385562
	C173	C	0.176825	0.119668	0.614635
	C174	C	0.824209	0.118081	0.384458
	C175	C	0.822291	0.881462	0.615396
	C176	C	0.384845	0.175839	0.881572
	C177	C	0.615554	0.176008	0.117747
	C178	C	0.384754	0.823903	0.118389
	C179	C	0.614768	0.823653	0.881029
	C180	C	0.385120	0.881065	0.176546
	C181	C	0.615588	0.118294	0.175368
	C182	C	0.385163	0.118639	0.823396
	C183	C	0.614663	0.881636	0.823759
	C184	C	0.881761	0.175615	0.384782
	C185	C	0.118758	0.176781	0.614895
	C186	C	0.118127	0.823969	0.385515
	C187	C	0.880813	0.824475	0.615625
	C188	C	0.176491	0.384972	0.880808
	C189	C	0.177105	0.614939	0.118843
	C190	C	0.824375	0.384943	0.118089
	C191	C	0.823938	0.615349	0.880630
	C192	C	0.400613	0.094541	0.599685
	C193	C	0.599438	0.905143	0.599644
	C194	C	0.601003	0.095228	0.398986
	C195	C	0.400114	0.905512	0.400443
	C196	C	0.600422	0.400336	0.094489
	C197	C	0.600079	0.599399	0.905994
	C198	C	0.400583	0.599813	0.094774
	C199	C	0.400171	0.400103	0.905649
	C200	C	0.094248	0.600596	0.399885
	C201	C	0.905451	0.599668	0.600480
	C202	C	0.093816	0.401354	0.599288
	C203	C	0.905521	0.399983	0.399736
	C204	C	0.900906	0.594697	0.099396
	C205	C	0.099751	0.405284	0.099934
	C206	C	0.100565	0.594650	0.899823
	C207	C	0.900308	0.405918	0.900836
	C208	C	0.099391	0.901018	0.594890
	C209	C	0.099939	0.099681	0.405567
	C210	C	0.899379	0.099324	0.594252
	C211	C	0.899074	0.899667	0.405791
	C212	C	0.594028	0.099361	0.900425
	C213	C	0.405952	0.099136	0.099812
	C214	C	0.594528	0.900349	0.099586
	C215	C	0.405017	0.898695	0.899795
	Zn216	Zn	0.499479	-0.000226	0.749788
	Zn217	Zn	0.500257	-0.000066	0.250249
	Zn218	Zn	0.750361	0.500467	-0.000221
	Zn219	Zn	0.250024	0.499791	0.000009
	Zn220	Zn	-0.000737	0.750232	0.500637
	Zn221	Zn	-0.000435	0.249749	0.500383
	Zn222	Zn	0.000256	0.500004	0.750392
	Zn223	Zn	0.000039	0.500479	0.249784
	Zn224	Zn	0.499935	0.749613	0.000066
	Zn225	Zn	0.499866	0.250204	0.000126
	Zn226	Zn	0.749514	-0.000067	0.499553
	Zn227	Zn	0.250043	0.000291	0.500247
	N228	N	0.414630	0.962455	0.677579
	N229	N	0.585108	0.037197	0.678030
	N230	N	0.586038	0.962832	0.321164
	N231	N	0.415337	0.037230	0.322358
	N232	N	0.678927	0.414400	0.962562
	N233	N	0.678634	0.585604	0.037619
	N234	N	0.322061	0.585106	0.963021
	N235	N	0.321295	0.414007	0.037298
	N236	N	0.961967	0.677821	0.415776
	N237	N	0.036861	0.678711	0.586136
	N238	N	0.962356	0.322217	0.584952
	N239	N	0.037286	0.321199	0.414329
	N240	N	0.962360	0.414828	0.678257
	N241	N	0.037248	0.585565	0.678496
	N242	N	0.962482	0.585656	0.321573
	N243	N	0.037534	0.414729	0.321640
	N244	N	0.415319	0.676924	0.962614
	N245	N	0.585811	0.678512	0.037498
	N246	N	0.585573	0.321645	0.962705
	N247	N	0.415267	0.322342	0.037562
	N248	N	0.677913	0.962569	0.414279
	N249	N	0.677448	0.037375	0.584552
	N250	N	0.321246	0.963040	0.585651
	N251	N	0.321880	0.037329	0.414490
	N252	N	0.915127	0.462792	0.177642
	N253	N	0.085774	0.537700	0.178255
	N254	N	0.085897	0.462600	0.821282
	N255	N	0.915475	0.537629	0.822409
	N256	N	0.177648	0.915077	0.463043
	N257	N	0.178701	0.086340	0.536952
	N258	N	0.821595	0.085114	0.462332
	N259	N	0.820080	0.914094	0.537477
	N260	N	0.462350	0.177699	0.915054
	N261	N	0.537742	0.177981	0.085098
	N262	N	0.462407	0.822130	0.084980
	N263	N	0.537263	0.821321	0.914454
	N264	N	0.462872	0.914278	0.178570
	N265	N	0.537874	0.084930	0.177705
	N266	N	0.462702	0.085328	0.821526
	N267	N	0.536796	0.914149	0.821477
	N268	N	0.914642	0.177453	0.462563
	N269	N	0.084748	0.177690	0.537594
	N270	N	0.084835	0.822029	0.463200
	N271	N	0.914479	0.822646	0.538055
	N272	N	0.178259	0.462622	0.914321
	N273	N	0.178228	0.537176	0.085354
	N274	N	0.822410	0.462706	0.084823
	N275	N	0.821403	0.537663	0.913784
