data_Molecule from HDF5

_cell_length_a		16.350766
_cell_length_b		16.271632
_cell_length_c		16.024548
_cell_angle_alpha	90.485345
_cell_angle_beta	89.733651
_cell_angle_gamma	89.864107
_symmetry_space_group_name_H-M	'P 1'
_symmetry_Int_Tables_number		1

loop_
	_symmetry_equiv_pos_as_xyz
	x,y,z

loop_
	_atom_site_label
	_atom_site_type_symbol
	_atom_site_fract_x
	_atom_site_fract_y
	_atom_site_fract_z
	H0	H	0.399604	0.836653	0.706849
	H1	H	0.590851	0.166215	0.708008
	H2	H	0.594588	0.837537	0.281629
	H3	H	0.400198	0.166612	0.284524
	H4	H	0.715790	0.400283	0.830594
	H5	H	0.713425	0.603616	0.161634
	H6	H	0.286083	0.600414	0.831286
	H7	H	0.284818	0.403220	0.161027
	H8	H	0.836592	0.718162	0.397041
	H9	H	0.160831	0.719662	0.598050
	H10	H	0.835785	0.287110	0.599697
	H11	H	0.160353	0.284033	0.394091
	H12	H	0.834863	0.408889	0.710303
	H13	H	0.162674	0.599733	0.709444
	H14	H	0.835529	0.599240	0.284287
	H15	H	0.162094	0.401750	0.281124
	H16	H	0.404084	0.710567	0.828880
	H17	H	0.598165	0.717207	0.160772
	H18	H	0.599297	0.285287	0.830227
	H19	H	0.399834	0.289839	0.161864
	H20	H	0.715411	0.839274	0.391482
	H21	H	0.714122	0.163785	0.600481
	H22	H	0.281829	0.838569	0.594367
	H23	H	0.280026	0.163958	0.394370
	H24	H	0.902624	0.336765	0.208017
	H25	H	0.095074	0.666568	0.212016
	H26	H	0.097364	0.338312	0.781685
	H27	H	0.905595	0.666893	0.790211
	H28	H	0.212349	0.899949	0.330285
	H29	H	0.213097	0.102928	0.661488
	H30	H	0.785379	0.100110	0.329990
	H31	H	0.782595	0.905234	0.661394
	H32	H	0.336259	0.218609	0.895870
	H33	H	0.661511	0.218786	0.097618
	H34	H	0.336504	0.785189	0.095446
	H35	H	0.662178	0.783942	0.891944
	H36	H	0.333844	0.907846	0.206640
	H37	H	0.662478	0.098562	0.209208
	H38	H	0.333499	0.096072	0.785630
	H39	H	0.662859	0.903378	0.779599
	H40	H	0.899981	0.215833	0.330643
	H41	H	0.094388	0.215209	0.662821
	H42	H	0.097734	0.785538	0.331211
	H43	H	0.898166	0.791530	0.663056
	H44	H	0.216916	0.339647	0.892989
	H45	H	0.216647	0.665124	0.100296
	H46	H	0.782899	0.339584	0.097818
	H47	H	0.783425	0.663393	0.895694
	H48	H	0.404639	0.119172	0.595473
	H49	H	0.596602	0.882791	0.586759
	H50	H	0.604625	0.122090	0.407480
	H51	H	0.408403	0.886607	0.401808
	H52	H	0.592333	0.413175	0.114459
	H53	H	0.600912	0.592056	0.874609
	H54	H	0.406006	0.593296	0.114603
	H55	H	0.406269	0.404586	0.875542
	H56	H	0.113280	0.594831	0.408765
	H57	H	0.879297	0.605367	0.597010
	H58	H	0.113417	0.406858	0.582752
	H59	H	0.880948	0.411254	0.396582
	H60	H	0.114878	0.412265	0.591210
	H61	H	0.883327	0.599469	0.586302
	H62	H	0.114894	0.592155	0.403650
	H63	H	0.880695	0.400876	0.406229
	H64	H	0.410183	0.594413	0.114777
	H65	H	0.591447	0.586677	0.878681
	H66	H	0.590159	0.410662	0.113416
	H67	H	0.405143	0.413183	0.877998
	H68	H	0.588278	0.121365	0.391850
	H69	H	0.589105	0.883391	0.589499
	H70	H	0.407060	0.116422	0.586426
	H71	H	0.401639	0.885404	0.406172
	H72	H	0.907181	0.618232	0.089983
	H73	H	0.086128	0.387428	0.087305
	H74	H	0.084161	0.615371	0.907239
	H75	H	0.908843	0.382776	0.896814
	H76	H	0.093225	0.909924	0.616625
	H77	H	0.088670	0.091636	0.378619
	H78	H	0.904622	0.097416	0.615138
	H79	H	0.910187	0.905055	0.377204
	H80	H	0.618436	0.107346	0.903154
	H81	H	0.382935	0.096854	0.090888
	H82	H	0.618212	0.903518	0.092532
	H83	H	0.380535	0.891470	0.907004
	H84	H	0.613829	0.906093	0.080245
	H85	H	0.382046	0.098491	0.088758
	H86	H	0.610010	0.088416	0.913114
	H87	H	0.388099	0.914873	0.912747
	H88	H	0.902078	0.094029	0.615148
	H89	H	0.090811	0.092673	0.377202
	H90	H	0.091564	0.914229	0.614516
	H91	H	0.902047	0.907534	0.376777
	H92	H	0.103318	0.619454	0.914806
	H93	H	0.098726	0.386274	0.080075
	H94	H	0.906055	0.618183	0.088585
	H95	H	0.911675	0.387191	0.908454
	H96	H	0.398631	0.119402	0.588367
	H97	H	0.590789	0.885908	0.581239
	H98	H	0.585174	0.114902	0.413515
	H99	H	0.402132	0.882948	0.398999
	H100	H	0.593220	0.409151	0.114747
	H101	H	0.591833	0.597521	0.875712
	H102	H	0.406690	0.597091	0.115799
	H103	H	0.413712	0.409883	0.879021
	H104	H	0.116309	0.597804	0.404859
	H105	H	0.881978	0.593043	0.597296
	H106	H	0.117385	0.402098	0.590902
	H107	H	0.885814	0.413563	0.410575
	H108	H	0.905757	0.618853	0.090578
	H109	H	0.097917	0.382347	0.094615
	H110	H	0.098324	0.624267	0.894373
	H111	H	0.899880	0.382455	0.905642
	H112	H	0.088137	0.910201	0.615090
	H113	H	0.090915	0.090346	0.378691
	H114	H	0.906206	0.094139	0.613873
	H115	H	0.908267	0.913180	0.379250
	H116	H	0.615974	0.088156	0.890624
	H117	H	0.383215	0.096192	0.087916
	H118	H	0.613618	0.914356	0.089219
	H119	H	0.379918	0.908462	0.888753
	C120	C	0.375111	0.009949	0.617990
	C121	C	0.619109	0.992663	0.616421
	C122	C	0.620371	0.010724	0.374358
	C123	C	0.375335	0.993031	0.373665
	C124	C	0.620913	0.380817	0.004799
	C125	C	0.622231	0.622114	0.986529
	C126	C	0.379282	0.622577	0.005082
	C127	C	0.378812	0.380948	0.987099
	C128	C	0.007238	0.623416	0.376748
	C129	C	0.989767	0.626432	0.620819
	C130	C	0.007066	0.380270	0.618399
	C131	C	0.990009	0.378986	0.374338
	C132	C	0.877502	0.510495	0.118587
	C133	C	0.122096	0.493500	0.118307
	C134	C	0.123279	0.511524	0.874611
	C135	C	0.878982	0.492689	0.876139
	C136	C	0.119490	0.881168	0.505374
	C137	C	0.118804	0.121946	0.487699
	C138	C	0.876313	0.123428	0.505184
	C139	C	0.877465	0.881216	0.487379
	C140	C	0.506866	0.122604	0.874649
	C141	C	0.490390	0.125522	0.118793
	C142	C	0.507152	0.880075	0.116400
	C143	C	0.490712	0.877297	0.872322
	C144	C	0.378571	0.886109	0.670655
	C145	C	0.613552	0.116447	0.671920
	C146	C	0.616070	0.886842	0.318883
	C147	C	0.378961	0.116939	0.320233
	C148	C	0.677476	0.380890	0.880092
	C149	C	0.676327	0.622513	0.111587
	C150	C	0.324387	0.619920	0.880391
	C151	C	0.322613	0.382940	0.111551
	C152	C	0.885156	0.679545	0.377807
	C153	C	0.112251	0.681715	0.618185
	C154	C	0.884559	0.325662	0.618268
	C155	C	0.112138	0.322398	0.374881
	C156	C	0.883950	0.386418	0.673220
	C157	C	0.113304	0.621670	0.673453
	C158	C	0.884439	0.620046	0.321810
	C159	C	0.112994	0.381183	0.318745
	C160	C	0.382797	0.674941	0.879265
	C161	C	0.618774	0.678816	0.111475
	C162	C	0.619838	0.323623	0.880083
	C163	C	0.380136	0.326664	0.111999
	C164	C	0.675986	0.887689	0.373693
	C165	C	0.674646	0.115449	0.617944
	C166	C	0.319672	0.887210	0.615166
	C167	C	0.319275	0.115641	0.375207
	C168	C	0.881301	0.386454	0.171971
	C169	C	0.117280	0.617319	0.174441
	C170	C	0.119337	0.387950	0.818495
	C171	C	0.883316	0.616925	0.824590
	C172	C	0.174977	0.880854	0.380339
	C173	C	0.174809	0.122240	0.612150
	C174	C	0.822390	0.120726	0.379810
	C175	C	0.821144	0.884716	0.612262
	C176	C	0.384444	0.179075	0.876612
	C177	C	0.612800	0.180529	0.117333
	C178	C	0.384848	0.824294	0.114899
	C179	C	0.613650	0.822338	0.872490
	C180	C	0.383544	0.885090	0.170535
	C181	C	0.613436	0.120677	0.172651
	C182	C	0.382890	0.118196	0.822013
	C183	C	0.613737	0.881475	0.816389
	C184	C	0.879477	0.178076	0.380185
	C185	C	0.115910	0.178018	0.612839
	C186	C	0.117958	0.823833	0.380791
	C187	C	0.878990	0.828564	0.613166
	C188	C	0.178781	0.388495	0.873983
	C189	C	0.177835	0.616541	0.119123
	C190	C	0.821467	0.387870	0.117055
	C191	C	0.822694	0.615290	0.877554
	C192	C	0.396754	0.096023	0.596312
	C193	C	0.598279	0.906351	0.592741
	C194	C	0.598955	0.096959	0.397485
	C195	C	0.397347	0.907273	0.395785
	C196	C	0.598339	0.404083	0.091740
	C197	C	0.600974	0.599037	0.898887
	C198	C	0.401173	0.601209	0.092439
	C199	C	0.401785	0.402856	0.900141
	C200	C	0.092653	0.601284	0.399207
	C201	C	0.903767	0.605444	0.599782
	C202	C	0.093168	0.400903	0.595197
	C203	C	0.904650	0.401757	0.397674
	C204	C	0.899675	0.596220	0.096369
	C205	C	0.100713	0.407712	0.094281
	C206	C	0.101831	0.597391	0.898507
	C207	C	0.900378	0.406440	0.897362
	C208	C	0.097321	0.904733	0.592855
	C209	C	0.096582	0.098399	0.400682
	C210	C	0.897835	0.101515	0.592151
	C211	C	0.900249	0.902147	0.400283
	C212	C	0.592485	0.101009	0.896097
	C213	C	0.404696	0.103725	0.095889
	C214	C	0.592979	0.901608	0.093839
	C215	C	0.405203	0.898588	0.895878
	Zn216	Zn	0.497475	0.000386	0.744957
	Zn217	Zn	0.498270	0.002654	0.246520
	Zn218	Zn	0.749680	0.501593	-0.003405
	Zn219	Zn	0.251638	0.502297	-0.003668
	Zn220	Zn	-0.001507	0.754175	0.497920
	Zn221	Zn	-0.002019	0.250530	0.496038
	Zn222	Zn	-0.000471	0.502868	0.747820
	Zn223	Zn	-0.000709	0.501546	0.247142
	Zn224	Zn	0.500613	0.748912	-0.005363
	Zn225	Zn	0.499175	0.252831	-0.003603
	Zn226	Zn	0.748725	0.001829	0.495461
	Zn227	Zn	0.247065	0.001464	0.495956
	N228	N	0.412251	0.963441	0.672668
	N229	N	0.579724	0.038923	0.670953
	N230	N	0.582207	0.964340	0.318979
	N231	N	0.413506	0.039739	0.319310
	N232	N	0.678323	0.415683	0.958749
	N233	N	0.678349	0.587877	0.032962
	N234	N	0.322239	0.588006	0.959573
	N235	N	0.321318	0.415720	0.032722
	N236	N	0.962329	0.681405	0.411539
	N237	N	0.034447	0.684790	0.586271
	N238	N	0.962354	0.321700	0.584894
	N239	N	0.034666	0.321211	0.409016
	N240	N	0.961130	0.419853	0.673297
	N241	N	0.036192	0.588120	0.675344
	N242	N	0.961441	0.585610	0.320938
	N243	N	0.036047	0.415526	0.318252
	N244	N	0.415906	0.677221	0.958075
	N245	N	0.585915	0.678904	0.032566
	N246	N	0.585512	0.323193	0.958545
	N247	N	0.414449	0.325362	0.033622
	N248	N	0.678848	0.965831	0.407358
	N249	N	0.678269	0.037462	0.584168
	N250	N	0.317569	0.965241	0.582925
	N251	N	0.316726	0.037739	0.407436
	N252	N	0.915347	0.463690	0.173242
	N253	N	0.083441	0.539805	0.174288
	N254	N	0.085581	0.465450	0.818741
	N255	N	0.917765	0.539628	0.823545
	N256	N	0.176305	0.915619	0.459029
	N257	N	0.176713	0.088347	0.533292
	N258	N	0.820124	0.087493	0.458585
	N259	N	0.820086	0.916861	0.533085
	N260	N	0.462429	0.182079	0.908606
	N261	N	0.535131	0.183584	0.084673
	N262	N	0.462763	0.820974	0.082029
	N263	N	0.536379	0.819518	0.906622
	N264	N	0.460593	0.919143	0.171563
	N265	N	0.536153	0.087566	0.174115
	N266	N	0.459863	0.083728	0.820338
	N267	N	0.536324	0.915014	0.816259
	N268	N	0.912009	0.180072	0.459182
	N269	N	0.081915	0.178143	0.534446
	N270	N	0.084312	0.824007	0.459629
	N271	N	0.913172	0.826237	0.534637
	N272	N	0.181549	0.466344	0.908045
	N273	N	0.180994	0.538659	0.085055
	N274	N	0.818936	0.465970	0.084709
	N275	N	0.819706	0.537047	0.908834
	O276	O	-0.029231	-0.012046	0.014609
	H277	H	-0.036219	-0.015767	0.010254
	H278	H	-0.021974	-0.013555	0.013038
	O279	O	0.491123	0.585362	0.502085
	H280	H	0.491388	0.585746	0.493491
	H281	H	0.497052	0.595193	0.519871
	O282	O	0.519911	0.466040	0.504365
	H283	H	0.524835	0.484082	0.501880
	H284	H	0.505137	0.463559	0.512307
	O285	O	-0.019642	0.990263	1.025101
	H286	H	-0.034445	0.985529	1.021158
	H287	H	-0.018022	0.993991	1.017562
	O288	O	0.502209	0.528285	0.493703
	H289	H	0.514942	0.528596	0.492610
	H290	H	0.501019	0.528276	0.501525
	O291	O	1.040742	0.977069	0.975120
	H292	H	1.050636	0.973974	0.970116
	H293	H	1.038867	0.971272	0.976228
	O294	O	1.054060	0.989898	0.947716
	H295	H	1.050135	0.989015	0.944310
	H296	H	1.057805	0.987595	0.944366
	O297	O	1.063943	0.016232	1.024706
	H298	H	1.070881	0.021457	1.023735
	H299	H	1.056833	0.024250	1.024432
	O300	O	0.504277	0.510286	0.540917
	H301	H	0.504438	0.518988	0.540661
	H302	H	0.504216	0.490338	0.541825
	O303	O	0.954859	0.031128	0.016665
	H304	H	0.968105	0.041587	0.017344
	H305	H	0.961555	0.024623	0.008270
	O306	O	-0.072362	0.916080	1.022234
	H307	H	-0.071062	0.912865	1.025275
	H308	H	-0.072242	0.918334	1.029189
	O309	O	0.545838	0.483419	0.486737
	H310	H	0.556185	0.462249	0.488155
	H311	H	0.549288	0.478544	0.479632
	O312	O	1.068381	0.048819	0.946387
	H313	H	1.067115	0.046875	0.937366
	H314	H	1.067251	0.042076	0.946106
	O315	O	0.497861	0.412056	0.426137
	H316	H	0.498087	0.413197	0.419912
	H317	H	0.501625	0.411116	0.411393
	O318	O	0.546463	0.515960	0.499857
	H319	H	0.548274	0.504737	0.483362
	H320	H	0.536641	0.523911	0.486957
	O321	O	1.090053	0.910367	0.910042
	H322	H	1.098263	0.906598	0.911830
	H323	H	1.094794	0.920443	0.912456
	O324	O	0.465681	0.512579	0.517681
	H325	H	0.458316	0.502905	0.512036
	H326	H	0.480849	0.512148	0.523076
	O327	O	0.470131	0.379845	0.444194
	H328	H	0.466320	0.383755	0.441691
	H329	H	0.471175	0.381216	0.443314
	O330	O	0.926437	-0.002630	0.933252
	H331	H	0.926229	-0.008285	0.932789
	H332	H	0.933798	-0.012091	0.933448
	O333	O	0.933802	1.018684	-0.055668
	H334	H	0.922218	1.023532	-0.052252
	H335	H	0.930636	1.013397	-0.055339
	O336	O	0.243153	0.878744	0.822268
	H337	H	0.245119	0.887781	0.826258
	H338	H	0.236132	0.879659	0.824109
	O339	O	0.518993	0.596565	0.445825
	H340	H	0.531942	0.603901	0.447080
	H341	H	0.511044	0.605305	0.446981
	O342	O	-0.027315	0.914449	0.001763
	H343	H	-0.031734	0.916655	-0.001129
	H344	H	-0.015900	0.910433	0.000933
	O345	O	-0.054272	0.008513	0.009528
	H346	H	-0.048272	-0.000914	0.003842
	H347	H	-0.047709	0.009783	0.005571
	O348	O	0.432052	0.460549	0.425867
	H349	H	0.432300	0.474878	0.430642
	H350	H	0.427943	0.462090	0.432074
	O351	O	0.507080	0.466797	0.471895
	H352	H	0.499059	0.453544	0.474115
	H353	H	0.495989	0.467289	0.466725
	O354	O	0.538919	0.527165	0.536499
	H355	H	0.536482	0.524403	0.541255
	H356	H	0.550315	0.527607	0.524714
	O357	O	0.471347	0.488946	0.634896
	H358	H	0.476656	0.496914	0.645005
	H359	H	0.469231	0.475125	0.633697
	O360	O	0.024510	0.064195	0.001831
	H361	H	0.017218	0.063960	0.011376
	H362	H	0.029285	0.059297	0.001923
	O363	O	0.440753	0.479582	0.462295
	H364	H	0.438408	0.485562	0.469541
	H365	H	0.433125	0.471354	0.458933
	O366	O	-0.007748	0.032489	0.984661
	H367	H	-0.022941	0.029550	0.994581
	H368	H	-0.007905	0.040605	0.978026
	O369	O	0.493319	0.368093	0.465336
	H370	H	0.503754	0.359061	0.450988
	H371	H	0.474377	0.356259	0.468268
