data_Molecule from HDF5

_cell_length_a		16.272346
_cell_length_b		16.367078
_cell_length_c		16.410887
_cell_angle_alpha	89.901471
_cell_angle_beta	90.090305
_cell_angle_gamma	89.874130
_symmetry_space_group_name_H-M	'P 1'
_symmetry_Int_Tables_number		1

loop_
	_symmetry_equiv_pos_as_xyz
	x,y,z

loop_
	_atom_site_label
	_atom_site_type_symbol
	_atom_site_fract_x
	_atom_site_fract_y
	_atom_site_fract_z
	H0	H	0.392084	0.834988	0.719360
	H1	H	0.603084	0.153658	0.719495
	H2	H	0.601184	0.834843	0.278083
	H3	H	0.390053	0.154010	0.275922
	H4	H	0.716200	0.394179	0.839200
	H5	H	0.713435	0.596619	0.161451
	H6	H	0.276136	0.598287	0.839011
	H7	H	0.278148	0.390616	0.159380
	H8	H	0.836171	0.713554	0.397059
	H9	H	0.158126	0.714958	0.604499
	H10	H	0.836182	0.277516	0.601311
	H11	H	0.157918	0.273446	0.394672
	H12	H	0.836018	0.392817	0.717200
	H13	H	0.157732	0.599297	0.718867
	H14	H	0.835612	0.598308	0.281868
	H15	H	0.157148	0.388548	0.278573
	H16	H	0.390798	0.715493	0.839074
	H17	H	0.599332	0.715277	0.159492
	H18	H	0.602816	0.275372	0.839976
	H19	H	0.394702	0.275102	0.158743
	H20	H	0.714969	0.833642	0.396717
	H21	H	0.712878	0.156621	0.597688
	H22	H	0.277377	0.834795	0.602528
	H23	H	0.275998	0.154161	0.392733
	H24	H	0.892551	0.335942	0.221373
	H25	H	0.101784	0.655254	0.219939
	H26	H	0.104330	0.337459	0.776979
	H27	H	0.893809	0.656459	0.781558
	H28	H	0.218239	0.889669	0.339110
	H29	H	0.218515	0.097965	0.657711
	H30	H	0.778914	0.097575	0.338803
	H31	H	0.777843	0.891521	0.658722
	H32	H	0.336199	0.216632	0.892130
	H33	H	0.658293	0.211652	0.101115
	H34	H	0.335547	0.776315	0.102275
	H35	H	0.657512	0.776470	0.896943
	H36	H	0.336660	0.888655	0.219318
	H37	H	0.657140	0.096850	0.216575
	H38	H	0.335657	0.098056	0.778494
	H39	H	0.657971	0.890635	0.780763
	H40	H	0.891081	0.217314	0.341296
	H41	H	0.102624	0.213832	0.658883
	H42	H	0.102897	0.772478	0.340673
	H43	H	0.894459	0.776296	0.659766
	H44	H	0.218389	0.335940	0.893969
	H45	H	0.214733	0.656338	0.101206
	H46	H	0.779073	0.334408	0.102839
	H47	H	0.779399	0.657034	0.899415
	H48	H	0.415842	0.104950	0.585065
	H49	H	0.593002	0.878090	0.588527
	H50	H	0.584532	0.108870	0.404795
	H51	H	0.402030	0.878389	0.407448
	H52	H	0.587117	0.403437	0.113458
	H53	H	0.589679	0.581254	0.886472
	H54	H	0.409621	0.583440	0.110835
	H55	H	0.403749	0.413943	0.887014
	H56	H	0.111365	0.581063	0.409792
	H57	H	0.881049	0.586371	0.594237
	H58	H	0.114880	0.399116	0.592062
	H59	H	0.879619	0.404931	0.402294
	H60	H	0.109687	0.405679	0.581966
	H61	H	0.881234	0.590371	0.587383
	H62	H	0.113414	0.584642	0.408530
	H63	H	0.883034	0.399341	0.416794
	H64	H	0.407497	0.591078	0.114762
	H65	H	0.582203	0.585357	0.887827
	H66	H	0.588117	0.401523	0.114477
	H67	H	0.416294	0.407602	0.888799
	H68	H	0.588705	0.109292	0.409221
	H69	H	0.585717	0.879553	0.595242
	H70	H	0.403630	0.108128	0.582376
	H71	H	0.414009	0.880701	0.402725
	H72	H	0.899636	0.613496	0.096548
	H73	H	0.083003	0.381889	0.094745
	H74	H	0.082240	0.608968	0.907417
	H75	H	0.904612	0.380244	0.910171
	H76	H	0.091529	0.905468	0.614094
	H77	H	0.088782	0.089042	0.383198
	H78	H	0.903145	0.081090	0.613176
	H79	H	0.906530	0.897354	0.383386
	H80	H	0.608409	0.077177	0.909498
	H81	H	0.383701	0.080539	0.085288
	H82	H	0.612200	0.900756	0.088827
	H83	H	0.379063	0.903375	0.903213
	H84	H	0.608807	0.906689	0.081958
	H85	H	0.380067	0.084731	0.091034
	H86	H	0.614605	0.086334	0.899438
	H87	H	0.381904	0.902125	0.912651
	H88	H	0.911525	0.085799	0.612185
	H89	H	0.087225	0.078065	0.385959
	H90	H	0.084737	0.911596	0.609594
	H91	H	0.902165	0.907008	0.383807
	H92	H	0.084941	0.607224	0.913358
	H93	H	0.083807	0.382914	0.084928
	H94	H	0.914008	0.608568	0.094882
	H95	H	0.906513	0.380091	0.904786
	H96	H	0.408737	0.110458	0.593715
	H97	H	0.584369	0.881787	0.585822
	H98	H	0.589580	0.111274	0.403528
	H99	H	0.411187	0.883945	0.414917
	H100	H	0.588829	0.403533	0.114391
	H101	H	0.589267	0.589396	0.884191
	H102	H	0.402000	0.584382	0.113925
	H103	H	0.405015	0.400251	0.883130
	H104	H	0.111766	0.584166	0.412474
	H105	H	0.883830	0.582755	0.587819
	H106	H	0.111565	0.412049	0.593691
	H107	H	0.887200	0.414085	0.412923
	H108	H	0.904032	0.608043	0.082555
	H109	H	0.091503	0.380069	0.090373
	H110	H	0.089097	0.610676	0.908770
	H111	H	0.909806	0.381962	0.908167
	H112	H	0.082874	0.901512	0.611088
	H113	H	0.078617	0.085553	0.387665
	H114	H	0.903654	0.089514	0.616549
	H115	H	0.911788	0.905290	0.386803
	H116	H	0.611655	0.090693	0.913403
	H117	H	0.381235	0.088178	0.083899
	H118	H	0.610883	0.909767	0.090908
	H119	H	0.382127	0.911460	0.908030
	C120	C	0.376888	0.002510	0.619197
	C121	C	0.618916	0.985727	0.620397
	C122	C	0.618661	0.003673	0.375698
	C123	C	0.375681	0.986321	0.376008
	C124	C	0.619305	0.372999	0.007970
	C125	C	0.617809	0.616926	0.991708
	C126	C	0.374718	0.617375	0.007509
	C127	C	0.376396	0.374368	0.990985
	C128	C	0.005884	0.615667	0.378746
	C129	C	0.988343	0.617435	0.621201
	C130	C	0.005897	0.374486	0.620487
	C131	C	0.988776	0.373192	0.378455
	C132	C	0.875394	0.503675	0.121914
	C133	C	0.117927	0.487216	0.121248
	C134	C	0.118189	0.503980	0.877812
	C135	C	0.875569	0.487076	0.877834
	C136	C	0.118694	0.873611	0.506760
	C137	C	0.118464	0.116093	0.490556
	C138	C	0.875346	0.116487	0.507927
	C139	C	0.875698	0.872598	0.490477
	C140	C	0.505442	0.116903	0.875750
	C141	C	0.487885	0.115211	0.118352
	C142	C	0.504864	0.873939	0.119182
	C143	C	0.487465	0.873614	0.877003
	C144	C	0.374460	0.882477	0.679028
	C145	C	0.620709	0.106112	0.679187
	C146	C	0.619666	0.882775	0.317725
	C147	C	0.372570	0.106087	0.315734
	C148	C	0.677612	0.373911	0.887539
	C149	C	0.675303	0.616639	0.112715
	C150	C	0.315424	0.617870	0.887076
	C151	C	0.317398	0.372437	0.111215
	C152	C	0.884489	0.674394	0.378285
	C153	C	0.109551	0.675987	0.622905
	C154	C	0.884618	0.316119	0.620976
	C155	C	0.109454	0.313026	0.376195
	C156	C	0.884601	0.373548	0.678609
	C157	C	0.109476	0.618558	0.680010
	C158	C	0.884122	0.617051	0.320843
	C159	C	0.109097	0.370350	0.318389
	C160	C	0.372637	0.675976	0.887064
	C161	C	0.618418	0.675565	0.111881
	C162	C	0.620968	0.314950	0.887724
	C163	C	0.375496	0.314815	0.111020
	C164	C	0.676411	0.882146	0.376656
	C165	C	0.675351	0.107761	0.618452
	C166	C	0.317300	0.882311	0.620711
	C167	C	0.315558	0.106157	0.373994
	C168	C	0.874134	0.383373	0.181068
	C169	C	0.120187	0.607410	0.180274
	C170	C	0.121566	0.384661	0.817447
	C171	C	0.875070	0.608496	0.820674
	C172	C	0.178838	0.870909	0.387136
	C173	C	0.178564	0.117029	0.610144
	C174	C	0.817560	0.116996	0.387316
	C175	C	0.817184	0.872313	0.610910
	C176	C	0.384410	0.176325	0.874015
	C177	C	0.609757	0.172767	0.119522
	C178	C	0.383786	0.815248	0.120689
	C179	C	0.609033	0.814968	0.876978
	C180	C	0.384403	0.871178	0.179205
	C181	C	0.609126	0.115687	0.177264
	C182	C	0.384036	0.117800	0.817070
	C183	C	0.609284	0.871944	0.819204
	C184	C	0.873274	0.176717	0.388564
	C185	C	0.120986	0.174744	0.610655
	C186	C	0.121427	0.812703	0.387788
	C187	C	0.875303	0.814912	0.611313
	C188	C	0.178468	0.384003	0.875788
	C189	C	0.176061	0.608138	0.120928
	C190	C	0.817700	0.382696	0.122159
	C191	C	0.818080	0.608622	0.879329
	C192	C	0.402213	0.086000	0.594395
	C193	C	0.594762	0.901701	0.596654
	C194	C	0.594594	0.087929	0.399143
	C195	C	0.401707	0.902769	0.401200
	C196	C	0.595065	0.396076	0.092322
	C197	C	0.593838	0.592564	0.907823
	C198	C	0.399435	0.593260	0.091241
	C199	C	0.401250	0.399692	0.907830
	C200	C	0.090294	0.590419	0.403186
	C201	C	0.903865	0.593465	0.596821
	C202	C	0.090116	0.398797	0.596436
	C203	C	0.905059	0.398839	0.403596
	C204	C	0.899038	0.588072	0.098318
	C205	C	0.093324	0.403283	0.097024
	C206	C	0.092789	0.587369	0.902528
	C207	C	0.899968	0.402741	0.900876
	C208	C	0.093709	0.898882	0.589897
	C209	C	0.092457	0.091305	0.407326
	C210	C	0.899300	0.092363	0.592062
	C211	C	0.899749	0.896329	0.406641
	C212	C	0.589642	0.092112	0.900355
	C213	C	0.403679	0.091326	0.093804
	C214	C	0.588718	0.898540	0.094397
	C215	C	0.403058	0.898558	0.900744
	Zn216	Zn	0.497098	-0.005615	0.748640
	Zn217	Zn	0.496402	-0.005196	0.247416
	Zn218	Zn	0.747212	0.495385	0.000200
	Zn219	Zn	0.246565	0.495394	-0.000351
	Zn220	Zn	-0.002105	0.743880	0.499641
	Zn221	Zn	-0.002579	0.245194	0.500090
	Zn222	Zn	-0.002877	0.496237	0.748686
	Zn223	Zn	-0.002712	0.495456	0.250603
	Zn224	Zn	0.496095	0.746172	-0.001457
	Zn225	Zn	0.497031	0.244402	-0.001671
	Zn226	Zn	0.746896	-0.005300	0.498674
	Zn227	Zn	0.247744	-0.005043	0.498264
	N228	N	0.410727	0.958235	0.678052
	N229	N	0.586477	0.029367	0.680653
	N230	N	0.584763	0.959286	0.316808
	N231	N	0.409082	0.030263	0.316810
	N232	N	0.676981	0.408836	0.963515
	N233	N	0.675091	0.580855	0.036904
	N234	N	0.316555	0.582171	0.962870
	N235	N	0.317788	0.408808	0.035635
	N236	N	0.961291	0.673865	0.413361
	N237	N	0.033205	0.675306	0.586898
	N238	N	0.961164	0.316423	0.585726
	N239	N	0.033645	0.314809	0.413026
	N240	N	0.961087	0.408970	0.678535
	N241	N	0.033203	0.582924	0.679183
	N242	N	0.960690	0.581324	0.321115
	N243	N	0.033111	0.407134	0.319626
	N244	N	0.408715	0.675913	0.962944
	N245	N	0.583423	0.675781	0.035583
	N246	N	0.585585	0.314307	0.963750
	N247	N	0.411171	0.315689	0.035160
	N248	N	0.676186	0.958338	0.411872
	N249	N	0.674492	0.031855	0.582701
	N250	N	0.318899	0.957806	0.583948
	N251	N	0.317415	0.030608	0.410701
	N252	N	0.909372	0.459644	0.180990
	N253	N	0.084782	0.531214	0.180580
	N254	N	0.084719	0.460262	0.818648
	N255	N	0.910143	0.531957	0.819556
	N256	N	0.177278	0.908030	0.462200
	N257	N	0.177141	0.081373	0.534429
	N258	N	0.818565	0.080315	0.462665
	N259	N	0.817146	0.907438	0.534833
	N260	N	0.461120	0.176321	0.909362
	N261	N	0.533482	0.172481	0.083366
	N262	N	0.459662	0.816622	0.084075
	N263	N	0.532317	0.815625	0.911877
	N264	N	0.460381	0.907326	0.178140
	N265	N	0.532549	0.080562	0.176635
	N266	N	0.460178	0.081592	0.818092
	N267	N	0.532655	0.907511	0.818980
	N268	N	0.908589	0.176403	0.464570
	N269	N	0.084387	0.174507	0.535125
	N270	N	0.084864	0.814155	0.463107
	N271	N	0.910911	0.814686	0.535286
	N272	N	0.176571	0.459256	0.912673
	N273	N	0.174836	0.532321	0.084951
	N274	N	0.818471	0.458293	0.085900
	N275	N	0.818174	0.532188	0.914066
	O276	O	0.543148	0.383055	0.310630
	H277	H	0.541387	0.378112	0.312261
	H278	H	0.541543	0.400967	0.314211
	O279	O	0.553424	0.528502	0.461973
	H280	H	0.546978	0.521155	0.463643
	H281	H	0.553219	0.529805	0.455987
	O282	O	0.462900	0.422867	0.372848
	H283	H	0.463217	0.416086	0.378627
	H284	H	0.458596	0.423969	0.377397
	O285	O	0.841061	0.100233	-0.086100
	H286	H	0.829564	0.108009	-0.101919
	H287	H	0.848684	0.113592	-0.083518
	O288	O	-0.359634	0.654849	0.675659
	H289	H	-0.345903	0.652945	0.673971
	H290	H	-0.361563	0.651996	0.672876
	O291	O	0.495758	0.446101	0.460454
	H292	H	0.497385	0.437768	0.461925
	H293	H	0.496102	0.441901	0.469661
	O294	O	0.511602	0.671721	0.683089
	H295	H	0.515076	0.696488	0.700265
	H296	H	0.524900	0.654578	0.677072
	O297	O	1.039900	1.011367	1.112178
	H298	H	1.044027	1.006057	1.124420
	H299	H	1.033456	1.004643	1.102251
	O300	O	0.040506	-0.167045	0.042979
	H301	H	0.032107	-0.168644	0.037662
	H302	H	0.045383	-0.154640	0.043281
	O303	O	0.575283	0.562199	0.590341
	H304	H	0.564729	0.568470	0.582279
	H305	H	0.575410	0.571266	0.592132
	O306	O	0.984857	-0.085235	-0.025283
	H307	H	0.983689	-0.082642	-0.025163
	H308	H	0.978468	-0.074343	-0.033764
	O309	O	0.509122	0.369646	0.549603
	H310	H	0.498660	0.373947	0.545330
	H311	H	0.508403	0.368739	0.549857
	O312	O	0.804340	0.860411	0.058345
	H313	H	0.808706	0.863146	0.057037
	H314	H	0.796482	0.865777	0.044798
	O315	O	0.309666	0.598392	0.350363
	H316	H	0.306033	0.611857	0.332754
	H317	H	0.311953	0.602153	0.369477
	O318	O	0.877757	0.931753	-0.163377
	H319	H	0.888056	0.940009	-0.184901
	H320	H	0.871989	0.966865	-0.157686
	O321	O	1.394810	-0.551319	1.530730
	H322	H	1.401113	-0.549608	1.521948
	H323	H	1.378967	-0.552753	1.529710
	O324	O	-0.077616	0.200666	1.100471
	H325	H	-0.077844	0.217832	1.111983
	H326	H	-0.087071	0.188583	1.104299
	O327	O	0.606952	0.422335	0.624784
	H328	H	0.594889	0.416492	0.636527
	H329	H	0.603196	0.419313	0.619614
	O330	O	0.452389	0.358862	0.588085
	H331	H	0.456088	0.354997	0.587515
	H332	H	0.442398	0.365739	0.589436
	O333	O	1.166122	1.155733	1.157267
	H334	H	1.133944	1.162724	1.161302
	H335	H	1.171978	1.129276	1.164838
	O336	O	0.543899	0.570798	0.431028
	H337	H	0.531169	0.561413	0.434702
	H338	H	0.540971	0.585305	0.420906
	O339	O	0.915212	-0.097645	1.080988
	H340	H	0.922871	-0.092660	1.096317
	H341	H	0.903557	-0.103410	1.078595
	O342	O	0.116689	1.027682	1.135593
	H343	H	0.132325	1.024887	1.142148
	H344	H	0.129152	1.006204	1.116863
	O345	O	-0.162918	0.947001	1.082607
	H346	H	-0.175867	0.947731	1.076610
	H347	H	-0.152342	0.935659	1.071192
	O348	O	0.658483	0.682563	0.250375
	H349	H	0.644626	0.668817	0.244568
	H350	H	0.677890	0.675674	0.247195
	O351	O	0.173005	-0.205586	-0.026742
	H352	H	0.160357	-0.215062	-0.026803
	H353	H	0.183456	-0.216946	-0.034306
	O354	O	0.981032	1.196599	-0.203319
	H355	H	0.993043	1.185701	-0.198182
	H356	H	0.978943	1.218015	-0.215496
	O357	O	-0.010122	1.099086	-0.097936
	H358	H	0.018188	1.106760	-0.077707
	H359	H	-0.023190	1.097639	-0.085798
	O360	O	0.445685	0.449782	0.494180
	H361	H	0.447959	0.445413	0.497396
	H362	H	0.437749	0.444383	0.484012
	O363	O	0.508597	0.609495	0.493292
	H364	H	0.517526	0.608596	0.505708
	H365	H	0.510161	0.616897	0.500737
	O366	O	0.374971	0.484314	0.662143
	H367	H	0.372530	0.481516	0.653833
	H368	H	0.372388	0.486975	0.655072
	O369	O	0.386227	0.333256	0.609099
	H370	H	0.369517	0.330966	0.604215
	H371	H	0.388546	0.331695	0.601911
	O372	O	-0.085064	1.126876	0.084471
	H373	H	-0.066587	1.140876	0.097801
	H374	H	-0.103796	1.117007	0.085994
	O375	O	0.527316	0.389619	0.391299
	H376	H	0.536220	0.395949	0.388695
	H377	H	0.544172	0.377894	0.382408
	O378	O	0.336222	0.480554	0.517755
	H379	H	0.344846	0.488347	0.510253
	H380	H	0.338456	0.473382	0.525318
	O381	O	0.664924	0.552611	0.539747
	H382	H	0.663398	0.557708	0.542979
	H383	H	0.666545	0.553269	0.532893
	O384	O	-0.033330	0.944994	1.192169
	H385	H	-0.035766	0.944831	1.196728
	H386	H	-0.039557	0.940089	1.180965
	O387	O	1.320521	0.662977	0.430892
	H388	H	1.309094	0.681574	0.434237
	H389	H	1.342445	0.669231	0.435064
	O390	O	0.611758	0.523889	0.425669
	H391	H	0.619685	0.510049	0.438589
	H392	H	0.614817	0.513898	0.420517
	O393	O	0.814394	0.174878	0.822926
	H394	H	0.832600	0.187081	0.840908
	H395	H	0.814847	0.194341	0.821719
	O396	O	0.096115	1.025322	0.866371
	H397	H	0.075099	1.026841	0.865825
	H398	H	0.110801	1.027532	0.868899
	O399	O	0.532331	0.509907	0.473633
	H400	H	0.526181	0.513975	0.473548
	H401	H	0.540456	0.506938	0.482898
	O402	O	0.871788	-0.089685	0.925291
	H403	H	0.875857	-0.072632	0.919644
	H404	H	0.857889	-0.083510	0.927651
	O405	O	0.007394	0.103446	-0.087915
	H406	H	-0.004253	0.098882	-0.098417
	H407	H	0.006897	0.107542	-0.075807
	O408	O	0.876446	0.897519	1.140475
	H409	H	0.872834	0.879584	1.135400
	H410	H	0.872351	0.899156	1.146658
	O411	O	1.134447	0.876161	-0.160947
	H412	H	1.123155	0.869249	-0.169349
	H413	H	1.135668	0.877116	-0.159706
	O414	O	0.187368	-0.005592	0.958944
	H415	H	0.206988	-0.000090	0.959064
	H416	H	0.172869	-0.019178	0.972038
	O417	O	0.445685	0.472135	0.441463
	H418	H	0.443588	0.495863	0.438764
	H419	H	0.429702	0.475785	0.431444
	O420	O	-0.008999	0.948527	-0.022678
	H421	H	-0.011800	0.949230	-0.042011
	H422	H	-0.032070	0.943805	-0.022142
	O423	O	1.140649	0.026393	0.092889
	H424	H	1.148995	0.043296	0.085541
	H425	H	1.133028	0.012080	0.090362
	O426	O	0.159219	0.105805	0.968042
	H427	H	0.176335	0.125771	0.969011
	H428	H	0.162048	0.102032	0.996739
	O429	O	0.549447	0.447248	0.602136
	H430	H	0.550816	0.448365	0.607319
	H431	H	0.543754	0.439595	0.601110
