data_Molecule from HDF5

_cell_length_a		16.359701
_cell_length_b		16.175992
_cell_length_c		16.401357
_cell_angle_alpha	89.870065
_cell_angle_beta	89.917085
_cell_angle_gamma	90.006480
_symmetry_space_group_name_H-M	'P 1'
_symmetry_Int_Tables_number		1

loop_
	_symmetry_equiv_pos_as_xyz
	x,y,z

loop_
	_atom_site_label
	_atom_site_type_symbol
	_atom_site_fract_x
	_atom_site_fract_y
	_atom_site_fract_z
	H0	H	0.392056	0.828949	0.721949
	H1	H	0.598830	0.153824	0.719737
	H2	H	0.596749	0.828111	0.286280
	H3	H	0.392456	0.153765	0.283921
	H4	H	0.716341	0.388667	0.840816
	H5	H	0.717004	0.596847	0.160917
	H6	H	0.280165	0.597336	0.838948
	H7	H	0.275110	0.389913	0.160048
	H8	H	0.832923	0.706581	0.401630
	H9	H	0.157746	0.709337	0.598323
	H10	H	0.833382	0.277919	0.598566
	H11	H	0.157284	0.273868	0.397492
	H12	H	0.836119	0.390171	0.719516
	H13	H	0.157660	0.597336	0.716931
	H14	H	0.835340	0.596639	0.280543
	H15	H	0.157214	0.389691	0.280090
	H16	H	0.398828	0.710064	0.839646
	H17	H	0.595335	0.707145	0.164020
	H18	H	0.598590	0.272950	0.841190
	H19	H	0.394630	0.276517	0.163220
	H20	H	0.710773	0.827480	0.403236
	H21	H	0.713774	0.153591	0.603609
	H22	H	0.277601	0.827978	0.604811
	H23	H	0.277935	0.153275	0.399466
	H24	H	0.890815	0.332420	0.219077
	H25	H	0.096743	0.656667	0.214359
	H26	H	0.098890	0.331196	0.782633
	H27	H	0.896139	0.656876	0.782023
	H28	H	0.218573	0.884159	0.342734
	H29	H	0.215113	0.095862	0.660743
	H30	H	0.776734	0.092901	0.339851
	H31	H	0.777303	0.887487	0.661963
	H32	H	0.334000	0.208633	0.903299
	H33	H	0.656956	0.210766	0.105218
	H34	H	0.333796	0.776362	0.101130
	H35	H	0.659209	0.778359	0.904467
	H36	H	0.336000	0.886349	0.221965
	H37	H	0.656689	0.094669	0.220573
	H38	H	0.336120	0.096282	0.782661
	H39	H	0.656290	0.887550	0.782179
	H40	H	0.893644	0.208710	0.338039
	H41	H	0.095163	0.209687	0.661008
	H42	H	0.094876	0.776569	0.338001
	H43	H	0.894177	0.771914	0.660941
	H44	H	0.213963	0.331691	0.898576
	H45	H	0.210602	0.657450	0.098257
	H46	H	0.778939	0.331001	0.102683
	H47	H	0.779063	0.656617	0.897124
	H48	H	0.411502	0.103140	0.590185
	H49	H	0.582811	0.875942	0.594759
	H50	H	0.594207	0.110142	0.412087
	H51	H	0.419342	0.879010	0.407822
	H52	H	0.580686	0.408630	0.111228
	H53	H	0.577072	0.579714	0.890810
	H54	H	0.404326	0.575801	0.113103
	H55	H	0.401159	0.392647	0.883363
	H56	H	0.108155	0.584053	0.416325
	H57	H	0.885634	0.569114	0.590282
	H58	H	0.109550	0.404123	0.588830
	H59	H	0.885350	0.406623	0.416554
	H60	H	0.111712	0.402397	0.594460
	H61	H	0.876289	0.586050	0.602676
	H62	H	0.110861	0.575212	0.400290
	H63	H	0.881020	0.408180	0.398552
	H64	H	0.408141	0.589840	0.116251
	H65	H	0.589107	0.597456	0.882833
	H66	H	0.587132	0.392823	0.117769
	H67	H	0.399162	0.411790	0.887776
	H68	H	0.582705	0.108735	0.403178
	H69	H	0.587485	0.875904	0.591008
	H70	H	0.399320	0.107067	0.587862
	H71	H	0.403014	0.878460	0.426235
	H72	H	0.905110	0.610286	0.088638
	H73	H	0.085284	0.376191	0.094402
	H74	H	0.101670	0.614959	0.908032
	H75	H	0.913466	0.377611	0.901258
	H76	H	0.084336	0.899992	0.614995
	H77	H	0.086020	0.082142	0.385763
	H78	H	0.898892	0.080111	0.614235
	H79	H	0.897015	0.900649	0.383788
	H80	H	0.609867	0.083273	0.915778
	H81	H	0.381059	0.086689	0.089912
	H82	H	0.607831	0.908956	0.090356
	H83	H	0.380847	0.899898	0.913340
	H84	H	0.614580	0.902088	0.105531
	H85	H	0.382905	0.077571	0.092494
	H86	H	0.609352	0.075604	0.909846
	H87	H	0.382425	0.904823	0.912301
	H88	H	0.908369	0.081726	0.612649
	H89	H	0.089581	0.082428	0.386260
	H90	H	0.086714	0.901350	0.614896
	H91	H	0.903504	0.905817	0.388725
	H92	H	0.081827	0.613183	0.894301
	H93	H	0.082327	0.379295	0.086539
	H94	H	0.907668	0.609789	0.091590
	H95	H	0.910933	0.381906	0.918812
	H96	H	0.404582	0.109106	0.599435
	H97	H	0.587954	0.873545	0.596260
	H98	H	0.581759	0.104056	0.416796
	H99	H	0.396478	0.869271	0.404021
	H100	H	0.597757	0.407466	0.116718
	H101	H	0.598427	0.576833	0.885640
	H102	H	0.394361	0.585496	0.118524
	H103	H	0.416445	0.402456	0.889672
	H104	H	0.115925	0.593271	0.401752
	H105	H	0.882203	0.589730	0.581643
	H106	H	0.112102	0.398390	0.589730
	H107	H	0.878546	0.391952	0.407078
	H108	H	0.908425	0.608237	0.088235
	H109	H	0.091015	0.377480	0.087893
	H110	H	0.080980	0.605175	0.917094
	H111	H	0.896903	0.375150	0.909147
	H112	H	0.084671	0.903100	0.614498
	H113	H	0.088101	0.079304	0.387011
	H114	H	0.902821	0.088774	0.617050
	H115	H	0.905722	0.896461	0.385060
	H116	H	0.612382	0.084875	0.906655
	H117	H	0.379303	0.083377	0.098892
	H118	H	0.613180	0.891717	0.091019
	H119	H	0.380960	0.902270	0.908668
	C120	C	0.373941	-0.000862	0.623623
	C121	C	0.617025	0.982648	0.624014
	C122	C	0.616488	-0.000224	0.381134
	C123	C	0.374960	0.982471	0.381141
	C124	C	0.619048	0.371166	0.009669
	C125	C	0.618159	0.614730	0.992888
	C126	C	0.374284	0.614982	0.009308
	C127	C	0.374390	0.371525	0.992969
	C128	C	0.004587	0.614465	0.377223
	C129	C	0.988060	0.613150	0.620568
	C130	C	0.004391	0.371575	0.621088
	C131	C	0.987828	0.370957	0.376593
	C132	C	0.875476	0.502373	0.120697
	C133	C	0.116858	0.484990	0.120030
	C134	C	0.118347	0.503031	0.877309
	C135	C	0.875898	0.485377	0.878460
	C136	C	0.116307	0.870355	0.508810
	C137	C	0.117558	0.112918	0.492112
	C138	C	0.873022	0.113678	0.508547
	C139	C	0.872506	0.869609	0.491946
	C140	C	0.504342	0.112948	0.880866
	C141	C	0.487289	0.113371	0.124309
	C142	C	0.505035	0.869831	0.124758
	C143	C	0.487936	0.871194	0.880917
	C144	C	0.373270	0.877571	0.682612
	C145	C	0.617713	0.105133	0.681174
	C146	C	0.615999	0.876634	0.324993
	C147	C	0.373752	0.104860	0.322661
	C148	C	0.676987	0.369977	0.888983
	C149	C	0.676687	0.615133	0.113573
	C150	C	0.318728	0.615599	0.887573
	C151	C	0.315389	0.371196	0.112810
	C152	C	0.882096	0.669892	0.380016
	C153	C	0.109444	0.671086	0.618663
	C154	C	0.882292	0.315754	0.619195
	C155	C	0.109020	0.312935	0.377435
	C156	C	0.883766	0.371123	0.679633
	C157	C	0.109342	0.615400	0.677929
	C158	C	0.883285	0.614874	0.320005
	C159	C	0.108968	0.370498	0.319098
	C160	C	0.377710	0.671906	0.887683
	C161	C	0.616218	0.670103	0.115146
	C162	C	0.618465	0.312199	0.889191
	C163	C	0.374670	0.314569	0.114270
	C164	C	0.672503	0.876307	0.383116
	C165	C	0.674986	0.105008	0.623517
	C166	C	0.316215	0.877009	0.624548
	C167	C	0.316670	0.104623	0.380157
	C168	C	0.873439	0.380531	0.179478
	C169	C	0.116253	0.607772	0.176505
	C170	C	0.118373	0.380271	0.820879
	C171	C	0.876235	0.608036	0.820691
	C172	C	0.177024	0.867622	0.389370
	C173	C	0.175519	0.114526	0.612790
	C174	C	0.815648	0.112653	0.387694
	C175	C	0.815962	0.868655	0.613579
	C176	C	0.382904	0.170783	0.882436
	C177	C	0.608668	0.171391	0.124304
	C178	C	0.382981	0.813473	0.122383
	C179	C	0.610197	0.815253	0.883047
	C180	C	0.383776	0.868668	0.182136
	C181	C	0.608625	0.113522	0.181689
	C182	C	0.383731	0.114756	0.822663
	C183	C	0.608544	0.869417	0.822202
	C184	C	0.873878	0.170248	0.386882
	C185	C	0.116019	0.171270	0.612861
	C186	C	0.115507	0.814062	0.387044
	C187	C	0.874138	0.811154	0.613016
	C188	C	0.175414	0.380340	0.878573
	C189	C	0.173057	0.608175	0.118656
	C190	C	0.817270	0.380306	0.121687
	C191	C	0.817979	0.607824	0.877780
	C192	C	0.397999	0.084339	0.599339
	C193	C	0.593151	0.897368	0.600641
	C194	C	0.593239	0.085275	0.404205
	C195	C	0.399251	0.897679	0.405698
	C196	C	0.595238	0.395809	0.093509
	C197	C	0.595014	0.591441	0.908497
	C198	C	0.396077	0.590935	0.094024
	C199	C	0.398602	0.395304	0.908695
	C200	C	0.089411	0.591115	0.399463
	C201	C	0.903410	0.588651	0.598005
	C202	C	0.089178	0.394809	0.597774
	C203	C	0.903518	0.395347	0.400225
	C204	C	0.900047	0.587383	0.096471
	C205	C	0.093143	0.399965	0.096521
	C206	C	0.095050	0.588855	0.899815
	C207	C	0.900177	0.400221	0.902641
	C208	C	0.092142	0.894630	0.592937
	C209	C	0.094781	0.088447	0.408079
	C210	C	0.896606	0.090285	0.592957
	C211	C	0.895321	0.894078	0.407799
	C212	C	0.588640	0.088210	0.904123
	C213	C	0.403039	0.089456	0.100857
	C214	C	0.589844	0.893744	0.102311
	C215	C	0.403343	0.895422	0.904618
	Zn216	Zn	0.495849	-0.008240	0.751752
	Zn217	Zn	0.495878	-0.008824	0.253150
	Zn218	Zn	0.747641	0.494189	0.000303
	Zn219	Zn	0.245114	0.493836	-0.000720
	Zn220	Zn	-0.004281	0.741734	0.499521
	Zn221	Zn	-0.004443	0.242382	0.499149
	Zn222	Zn	-0.003090	0.493374	0.750152
	Zn223	Zn	-0.004023	0.493752	0.248480
	Zn224	Zn	0.496455	0.742933	0.002272
	Zn225	Zn	0.496140	0.242099	0.002409
	Zn226	Zn	0.744072	-0.008281	0.501553
	Zn227	Zn	0.246569	-0.009436	0.501491
	N228	N	0.408535	0.954722	0.682037
	N229	N	0.582328	0.028128	0.681547
	N230	N	0.581989	0.954327	0.323486
	N231	N	0.409293	0.027829	0.323144
	N232	N	0.677642	0.405782	0.964871
	N233	N	0.678213	0.581652	0.036546
	N234	N	0.316398	0.580806	0.964169
	N235	N	0.314882	0.405748	0.036043
	N236	N	0.958453	0.669739	0.414782
	N237	N	0.033042	0.669716	0.583681
	N238	N	0.958446	0.315866	0.583449
	N239	N	0.032590	0.312969	0.412421
	N240	N	0.960736	0.405137	0.680849
	N241	N	0.032966	0.579980	0.679113
	N242	N	0.960503	0.581235	0.317961
	N243	N	0.032477	0.405704	0.318292
	N244	N	0.411214	0.671872	0.964432
	N245	N	0.580670	0.670079	0.039230
	N246	N	0.583121	0.312836	0.965315
	N247	N	0.410785	0.314873	0.038705
	N248	N	0.672842	0.953804	0.417321
	N249	N	0.674752	0.027792	0.588785
	N250	N	0.316689	0.953630	0.588477
	N251	N	0.317214	0.027706	0.415642
	N252	N	0.909026	0.457519	0.179066
	N253	N	0.081947	0.530168	0.177490
	N254	N	0.083901	0.457585	0.819925
	N255	N	0.911409	0.530724	0.820813
	N256	N	0.177501	0.901978	0.466095
	N257	N	0.176522	0.078753	0.536772
	N258	N	0.815029	0.078102	0.464490
	N259	N	0.814816	0.904423	0.537436
	N260	N	0.458970	0.169971	0.917753
	N261	N	0.532432	0.171461	0.089377
	N262	N	0.459424	0.814119	0.087451
	N263	N	0.534081	0.816128	0.918858
	N264	N	0.460563	0.903047	0.183758
	N265	N	0.532096	0.077898	0.181902
	N266	N	0.460285	0.079664	0.821518
	N267	N	0.531515	0.903293	0.820734
	N268	N	0.908970	0.170877	0.462967
	N269	N	0.080807	0.170393	0.536858
	N270	N	0.078727	0.815470	0.462276
	N271	N	0.908498	0.811609	0.536592
	N272	N	0.175783	0.457907	0.912627
	N273	N	0.173937	0.530780	0.084455
	N274	N	0.818536	0.457032	0.085721
	N275	N	0.817685	0.530582	0.912892
	O276	O	0.606356	0.479118	0.579219
	H277	H	0.601598	0.477765	0.579128
	H278	H	0.603684	0.479071	0.580697
	O279	O	0.453040	0.636567	0.629962
	H280	H	0.441838	0.638624	0.622180
	H281	H	0.456659	0.632663	0.640430
	O282	O	0.999056	-0.061268	0.979111
	H283	H	0.994338	-0.055427	0.993735
	H284	H	1.000920	-0.064182	0.991275
	O285	O	1.013154	1.079114	1.027699
	H286	H	1.015677	1.077474	1.023636
	H287	H	1.018203	1.079617	1.039694
	O288	O	0.959151	1.086143	0.812362
	H289	H	0.969855	1.073441	0.804398
	H290	H	0.948986	1.078475	0.813513
	O291	O	-0.119488	0.857901	0.056313
	H292	H	-0.105614	0.848793	0.065270
	H293	H	-0.134890	0.863971	0.057462
	O294	O	0.368781	0.370510	0.585736
	H295	H	0.372899	0.358126	0.584179
	H296	H	0.376770	0.357389	0.583376
	O297	O	0.446216	0.443207	0.463239
	H298	H	0.443783	0.435874	0.464095
	H299	H	0.425357	0.454966	0.464186
	O300	O	0.512796	0.350890	0.372006
	H301	H	0.515822	0.347702	0.364846
	H302	H	0.529899	0.350563	0.374089
	O303	O	0.418531	0.413094	0.446915
	H304	H	0.422094	0.418121	0.440726
	H305	H	0.430242	0.407648	0.444550
	O306	O	0.459074	0.511427	0.594372
	H307	H	0.445069	0.525893	0.592589
	H308	H	0.458929	0.505418	0.592870
	O309	O	0.319921	0.433500	0.464619
	H310	H	0.335870	0.423621	0.451304
	H311	H	0.316197	0.421040	0.451280
	O312	O	0.135385	-0.043234	0.174893
	H313	H	0.142670	-0.033439	0.179691
	H314	H	0.132205	-0.028521	0.173207
	O315	O	0.990718	0.957746	0.147527
	H316	H	1.003922	0.961597	0.145393
	H317	H	0.980684	0.961175	0.160744
	O318	O	-0.024418	0.906349	1.012195
	H319	H	-0.031098	0.910233	1.026657
	H320	H	-0.020686	0.916470	1.026034
	O321	O	0.951395	0.063663	0.998174
	H322	H	0.949861	0.076504	0.992395
	H323	H	0.954082	0.057765	1.000614
	O324	O	0.481618	0.557639	-0.610498
	H325	H	0.482540	0.550425	-0.603306
	H326	H	0.486701	0.559978	-0.614588
	O327	O	0.320882	0.688714	0.394111
	H328	H	0.309649	0.698101	0.386097
	H329	H	0.312425	0.678544	0.391892
	O330	O	-0.059697	0.179871	1.012178
	H331	H	-0.064975	0.179129	1.001745
	H332	H	-0.050617	0.168056	1.002544
	O333	O	0.036356	-0.074766	0.840714
	H334	H	0.038886	-0.094073	0.839261
	H335	H	0.026900	-0.087139	0.840350
	O336	O	0.690681	0.338148	0.387679
	H337	H	0.703651	0.344907	0.383159
	H338	H	0.687528	0.331355	0.409942
	O339	O	0.949793	0.075236	-0.129773
	H340	H	0.950644	0.083474	-0.145089
	H341	H	0.954456	0.057261	-0.136702
	O342	O	0.094697	0.121800	-0.019269
	H343	H	0.066264	0.112483	-0.025332
	H344	H	0.100456	0.117275	-0.009509
	O345	O	0.550274	-0.399086	1.347728
	H346	H	0.535774	-0.399192	1.339056
	H347	H	0.549275	-0.391729	1.345456
	O348	O	1.112582	0.883956	-0.112185
	H349	H	1.109644	0.881173	-0.114246
	H350	H	1.103445	0.881247	-0.107431
	O351	O	0.515456	0.425413	0.496720
	H352	H	0.510702	0.421185	0.502896
	H353	H	0.522437	0.430352	0.495700
	O354	O	0.857616	-0.112573	1.031093
	H355	H	0.851753	-0.103361	1.037656
	H356	H	0.852664	-0.105632	1.015193
	O357	O	0.543252	0.528619	0.594153
	H358	H	0.529695	0.537318	0.602717
	H359	H	0.545677	0.536829	0.590404
	O360	O	0.351871	0.576349	0.511556
	H361	H	0.348153	0.567086	0.509742
	H362	H	0.355427	0.583332	0.516921
	O363	O	-0.029910	1.074603	0.862491
	H364	H	-0.025635	1.066461	0.864629
	H365	H	-0.032072	1.080876	0.866313
	O366	O	0.596287	0.532859	0.509653
	H367	H	0.601528	0.528109	0.505825
	H368	H	0.599808	0.532321	0.511922
	O369	O	0.054407	1.166292	0.027327
	H370	H	0.058353	1.171419	0.028192
	H371	H	0.065779	1.171969	0.013760
	O372	O	0.084390	1.080344	0.029242
	H373	H	0.077526	1.069019	0.032668
	H374	H	0.080492	1.075455	0.030307
	O375	O	0.603233	0.572032	0.515068
	H376	H	0.585993	0.580466	0.510472
	H377	H	0.611139	0.566856	0.523709
	O378	O	0.454050	0.464397	0.674178
	H379	H	0.450142	0.467949	0.663023
	H380	H	0.452895	0.453286	0.673260
	O381	O	0.944593	-0.049223	0.055722
	H382	H	0.950640	-0.050507	0.064716
	H383	H	0.940738	-0.044709	0.068334
	O384	O	0.914086	0.881797	0.065094
	H385	H	0.919695	0.901251	0.057530
	H386	H	0.924864	0.874571	0.066925
	O387	O	0.021995	-0.189742	0.121458
	H388	H	0.018084	-0.184689	0.122331
	H389	H	0.019440	-0.187162	0.117374
	O390	O	0.058087	1.090136	0.102131
	H391	H	0.050436	1.098253	0.091380
	H392	H	0.045774	1.092409	0.108808
	O393	O	0.807301	1.014940	0.903175
	H394	H	0.801578	1.026556	0.887035
	H395	H	0.811703	1.007935	0.898700
	O396	O	0.614686	0.474901	0.620814
	H397	H	0.625061	0.502748	0.621742
	H398	H	0.604045	0.465361	0.644044
	O399	O	0.036621	1.025307	1.147559
	H400	H	0.048596	1.020124	1.151523
	H401	H	0.036243	1.023972	1.152847
	O402	O	0.529860	0.390900	0.408143
	H403	H	0.526753	0.382119	0.410597
	H404	H	0.531492	0.400336	0.415709
	O405	O	1.408595	1.389116	0.551790
	H406	H	1.405863	1.386202	0.564455
	H407	H	1.421458	1.371520	0.549830
	O408	O	1.079779	0.959566	-0.177516
	H409	H	1.080031	0.944855	-0.181657
	H410	H	1.073506	0.952829	-0.168686
	O411	O	0.519413	-0.451138	0.496514
	H412	H	0.512988	-0.456524	0.497460
	H413	H	0.508831	-0.433217	0.501805
	O414	O	0.494393	0.523184	0.484202
	H415	H	0.500308	0.515515	0.482336
	H416	H	0.496404	0.520164	0.489781
	O417	O	0.646334	0.483513	0.517368
	H418	H	0.645967	0.481708	0.516835
	H419	H	0.641842	0.487461	0.525601
