data_Molecule from HDF5

_cell_length_a		16.001498
_cell_length_b		16.336032
_cell_length_c		16.324548
_cell_angle_alpha	90.342740
_cell_angle_beta	90.096906
_cell_angle_gamma	90.378243
_symmetry_space_group_name_H-M	'P 1'
_symmetry_Int_Tables_number		1

loop_
	_symmetry_equiv_pos_as_xyz
	x,y,z

loop_
	_atom_site_label
	_atom_site_type_symbol
	_atom_site_fract_x
	_atom_site_fract_y
	_atom_site_fract_z
	H0	H	0.392016	0.842426	0.709790
	H1	H	0.599539	0.165419	0.717034
	H2	H	0.594420	0.842974	0.277161
	H3	H	0.392053	0.167478	0.278612
	H4	H	0.705675	0.408666	0.830632
	H5	H	0.707347	0.602090	0.159231
	H6	H	0.282747	0.598821	0.829698
	H7	H	0.279239	0.408898	0.159184
	H8	H	0.828443	0.717284	0.394398
	H9	H	0.159537	0.722849	0.595801
	H10	H	0.829127	0.291127	0.594186
	H11	H	0.160909	0.293199	0.396251
	H12	H	0.828965	0.406364	0.707999
	H13	H	0.160025	0.608646	0.710470
	H14	H	0.829527	0.602808	0.280547
	H15	H	0.161238	0.406789	0.282001
	H16	H	0.392076	0.721762	0.832485
	H17	H	0.598231	0.723652	0.156979
	H18	H	0.596271	0.284344	0.834326
	H19	H	0.390879	0.288441	0.159031
	H20	H	0.705547	0.840809	0.397642
	H21	H	0.708305	0.168705	0.594122
	H22	H	0.278994	0.841885	0.590919
	H23	H	0.284072	0.171197	0.401601
	H24	H	0.892701	0.343278	0.210630
	H25	H	0.099541	0.667320	0.214769
	H26	H	0.095141	0.343911	0.775583
	H27	H	0.893768	0.667829	0.778617
	H28	H	0.205051	0.911831	0.330066
	H29	H	0.207546	0.105353	0.659647
	H30	H	0.781470	0.099660	0.330833
	H31	H	0.780602	0.909254	0.659879
	H32	H	0.328425	0.216555	0.897287
	H33	H	0.659551	0.220677	0.097790
	H34	H	0.328887	0.789425	0.093564
	H35	H	0.660651	0.793029	0.896528
	H36	H	0.327126	0.906977	0.206598
	H37	H	0.659095	0.106322	0.211255
	H38	H	0.328754	0.102898	0.782094
	H39	H	0.658578	0.903683	0.780055
	H40	H	0.893393	0.220855	0.331681
	H41	H	0.098507	0.226712	0.655976
	H42	H	0.095543	0.787537	0.332859
	H43	H	0.890451	0.787380	0.657094
	H44	H	0.205133	0.340377	0.897662
	H45	H	0.208671	0.669801	0.091599
	H46	H	0.781525	0.341115	0.090149
	H47	H	0.781741	0.669731	0.899023
	H48	H	0.396103	0.124247	0.593429
	H49	H	0.585371	0.885963	0.597229
	H50	H	0.585061	0.119451	0.405639
	H51	H	0.409609	0.893234	0.401876
	H52	H	0.591796	0.409252	0.113823
	H53	H	0.585204	0.597863	0.879911
	H54	H	0.406196	0.602591	0.110333
	H55	H	0.401257	0.412200	0.880420
	H56	H	0.116763	0.609718	0.401934
	H57	H	0.877522	0.598118	0.582873
	H58	H	0.113999	0.413149	0.585625
	H59	H	0.877737	0.420625	0.399099
	H60	H	0.112068	0.416901	0.583787
	H61	H	0.876570	0.592514	0.589479
	H62	H	0.109507	0.596322	0.415823
	H63	H	0.872565	0.405713	0.396005
	H64	H	0.399859	0.595767	0.110348
	H65	H	0.586444	0.601743	0.877498
	H66	H	0.587467	0.416167	0.110426
	H67	H	0.406174	0.406842	0.880336
	H68	H	0.590182	0.121386	0.402591
	H69	H	0.577362	0.892269	0.585316
	H70	H	0.409425	0.121013	0.597529
	H71	H	0.392311	0.889470	0.409680
	H72	H	0.902754	0.624388	0.097045
	H73	H	0.080081	0.393134	0.083146
	H74	H	0.089722	0.623862	0.896556
	H75	H	0.899003	0.388332	0.895585
	H76	H	0.076762	0.905948	0.610548
	H77	H	0.089667	0.107557	0.375151
	H78	H	0.901200	0.094932	0.610723
	H79	H	0.897739	0.909998	0.377273
	H80	H	0.615423	0.103424	0.904833
	H81	H	0.376240	0.090808	0.090491
	H82	H	0.610550	0.910995	0.077722
	H83	H	0.374005	0.912586	0.899758
	H84	H	0.611269	0.924575	0.091713
	H85	H	0.371872	0.099921	0.093280
	H86	H	0.608670	0.093322	0.915134
	H87	H	0.373799	0.907177	0.903928
	H88	H	0.909766	0.100891	0.609007
	H89	H	0.093396	0.097360	0.377852
	H90	H	0.095093	0.911197	0.614331
	H91	H	0.902477	0.913405	0.380411
	H92	H	0.082597	0.619980	0.901254
	H93	H	0.094747	0.386980	0.086958
	H94	H	0.910474	0.619733	0.088138
	H95	H	0.906398	0.390870	0.900343
	H96	H	0.404996	0.119553	0.584535
	H97	H	0.593300	0.887369	0.583808
	H98	H	0.584012	0.121593	0.399650
	H99	H	0.395668	0.885581	0.390964
	H100	H	0.583053	0.408212	0.112156
	H101	H	0.589747	0.598746	0.877578
	H102	H	0.409342	0.594173	0.107721
	H103	H	0.399257	0.404805	0.878273
	H104	H	0.113420	0.590085	0.396066
	H105	H	0.874172	0.600623	0.589830
	H106	H	0.113903	0.416802	0.587794
	H107	H	0.878126	0.409356	0.411539
	H108	H	0.898664	0.622095	0.086141
	H109	H	0.082785	0.387126	0.097427
	H110	H	0.091170	0.621809	0.906091
	H111	H	0.898874	0.390326	0.904019
	H112	H	0.081528	0.923280	0.607301
	H113	H	0.083010	0.099619	0.380310
	H114	H	0.900515	0.104997	0.613389
	H115	H	0.903521	0.906673	0.379098
	H116	H	0.612720	0.088880	0.900950
	H117	H	0.376067	0.099381	0.082749
	H118	H	0.617448	0.906516	0.095450
	H119	H	0.377093	0.913357	0.906469
	C120	C	0.372398	0.014040	0.618745
	C121	C	0.616143	0.996035	0.618580
	C122	C	0.614974	0.013097	0.373491
	C123	C	0.371793	0.997520	0.373834
	C124	C	0.616157	0.382393	0.004107
	C125	C	0.616693	0.628102	0.986319
	C126	C	0.374587	0.626007	0.002293
	C127	C	0.372241	0.381052	0.987721
	C128	C	0.003689	0.626236	0.374810
	C129	C	0.985519	0.627474	0.616570
	C130	C	0.003663	0.385723	0.614956
	C131	C	0.986213	0.384061	0.373627
	C132	C	0.873686	0.513934	0.117571
	C133	C	0.116668	0.496928	0.117993
	C134	C	0.116110	0.513705	0.872703
	C135	C	0.872562	0.497475	0.872191
	C136	C	0.114411	0.884851	0.503209
	C137	C	0.117308	0.129915	0.486127
	C138	C	0.873954	0.127317	0.502965
	C139	C	0.871683	0.882179	0.486914
	C140	C	0.502810	0.124042	0.876853
	C141	C	0.484597	0.126463	0.118408
	C142	C	0.503198	0.884448	0.116236
	C143	C	0.484899	0.883195	0.874438
	C144	C	0.372146	0.891315	0.672613
	C145	C	0.617470	0.117415	0.677088
	C146	C	0.613323	0.890934	0.316643
	C147	C	0.373330	0.119581	0.318157
	C148	C	0.669450	0.386593	0.880317
	C149	C	0.670929	0.623859	0.109836
	C150	C	0.319492	0.621147	0.879194
	C151	C	0.316605	0.386675	0.110325
	C152	C	0.878142	0.679979	0.375398
	C153	C	0.110132	0.684633	0.615512
	C154	C	0.878811	0.329366	0.613548
	C155	C	0.111354	0.330146	0.375796
	C156	C	0.878800	0.386725	0.670343
	C157	C	0.110302	0.627772	0.672409
	C158	C	0.878607	0.622949	0.318851
	C159	C	0.111549	0.386918	0.319250
	C160	C	0.374143	0.681952	0.880420
	C161	C	0.616639	0.684663	0.108459
	C162	C	0.614997	0.324861	0.882106
	C163	C	0.372260	0.326588	0.110221
	C164	C	0.669094	0.890000	0.376403
	C165	C	0.671874	0.119197	0.615996
	C166	C	0.315986	0.891141	0.613393
	C167	C	0.319705	0.121498	0.379419
	C168	C	0.874244	0.391562	0.172103
	C169	C	0.117589	0.619414	0.174783
	C170	C	0.114434	0.391775	0.815375
	C171	C	0.874165	0.619694	0.817093
	C172	C	0.168797	0.889404	0.379489
	C173	C	0.171227	0.126686	0.610041
	C174	C	0.818551	0.122218	0.379782
	C175	C	0.817424	0.887279	0.610535
	C176	C	0.378029	0.178800	0.877869
	C177	C	0.609566	0.182644	0.117475
	C178	C	0.378109	0.828257	0.113613
	C179	C	0.610538	0.829356	0.876229
	C180	C	0.377476	0.886242	0.170215
	C181	C	0.609555	0.125875	0.173856
	C182	C	0.378155	0.122260	0.820697
	C183	C	0.609601	0.884612	0.818521
	C184	C	0.874441	0.182372	0.380432
	C185	C	0.116962	0.187068	0.608168
	C186	C	0.114248	0.827816	0.380875
	C187	C	0.871952	0.826533	0.608987
	C188	C	0.169256	0.390075	0.875857
	C189	C	0.172103	0.620455	0.113834
	C190	C	0.818657	0.390537	0.112107
	C191	C	0.818621	0.620667	0.876927
	C192	C	0.396412	0.099557	0.597946
	C193	C	0.592468	0.910620	0.595455
	C194	C	0.592978	0.098702	0.396151
	C195	C	0.393064	0.911619	0.394450
	C196	C	0.594056	0.404597	0.089886
	C197	C	0.593908	0.605906	0.900432
	C198	C	0.398342	0.604046	0.087492
	C199	C	0.395384	0.401741	0.901940
	C200	C	0.090687	0.605033	0.397876
	C201	C	0.898402	0.603855	0.593808
	C202	C	0.090944	0.408765	0.592337
	C203	C	0.898739	0.405689	0.395634
	C204	C	0.897021	0.599852	0.096541
	C205	C	0.092850	0.411505	0.095936
	C206	C	0.094252	0.599434	0.894842
	C207	C	0.894921	0.411914	0.893585
	C208	C	0.091387	0.907117	0.588558
	C209	C	0.095188	0.107925	0.400105
	C210	C	0.897059	0.106449	0.588738
	C211	C	0.894471	0.903678	0.401162
	C212	C	0.589763	0.101901	0.900117
	C213	C	0.397397	0.103450	0.095615
	C214	C	0.590506	0.907340	0.094734
	C215	C	0.397755	0.904759	0.896761
	Zn216	Zn	0.494069	0.004125	0.748084
	Zn217	Zn	0.493427	0.005790	0.244512
	Zn218	Zn	0.744923	0.506159	-0.004714
	Zn219	Zn	0.244337	0.505090	-0.005316
	Zn220	Zn	-0.006439	0.753829	0.495125
	Zn221	Zn	-0.004488	0.257585	0.494329
	Zn222	Zn	-0.005197	0.506093	0.742931
	Zn223	Zn	-0.004796	0.505533	0.247731
	Zn224	Zn	0.495080	0.756623	-0.005254
	Zn225	Zn	0.493971	0.252151	-0.003077
	Zn226	Zn	0.743949	0.005326	0.495761
	Zn227	Zn	0.243885	0.006762	0.495937
	N228	N	0.406613	0.968658	0.676099
	N229	N	0.583745	0.039652	0.678902
	N230	N	0.580372	0.968476	0.314824
	N231	N	0.405275	0.041550	0.314581
	N232	N	0.670215	0.421851	0.957206
	N233	N	0.671131	0.589360	0.032725
	N234	N	0.319544	0.586987	0.956068
	N235	N	0.316534	0.419911	0.033197
	N236	N	0.956811	0.682164	0.409442
	N237	N	0.031434	0.684537	0.581540
	N238	N	0.957640	0.328671	0.579984
	N239	N	0.032460	0.328225	0.408873
	N240	N	0.957390	0.421076	0.671228
	N241	N	0.031912	0.593016	0.673337
	N242	N	0.957572	0.590249	0.318382
	N243	N	0.032472	0.419616	0.317499
	N244	N	0.407725	0.685006	0.958082
	N245	N	0.583619	0.687164	0.030702
	N246	N	0.582589	0.322107	0.960089
	N247	N	0.406177	0.323132	0.032833
	N248	N	0.670221	0.966927	0.411140
	N249	N	0.671189	0.042840	0.580275
	N250	N	0.316175	0.968390	0.580580
	N251	N	0.318589	0.044675	0.413264
	N252	N	0.907682	0.469372	0.175626
	N253	N	0.084018	0.541635	0.177717
	N254	N	0.082363	0.469757	0.813094
	N255	N	0.906862	0.541969	0.813851
	N256	N	0.169038	0.924152	0.456629
	N257	N	0.171831	0.091940	0.533188
	N258	N	0.818012	0.088842	0.456909
	N259	N	0.816800	0.920972	0.533560
	N260	N	0.456427	0.179824	0.912449
	N261	N	0.530843	0.183207	0.083646
	N262	N	0.457349	0.826643	0.081212
	N263	N	0.532027	0.828362	0.910475
	N264	N	0.456123	0.920504	0.171914
	N265	N	0.530712	0.091557	0.174500
	N266	N	0.456921	0.088920	0.819885
	N267	N	0.530666	0.917264	0.817164
	N268	N	0.908324	0.185545	0.457996
	N269	N	0.084079	0.189007	0.530195
	N270	N	0.080978	0.825054	0.458414
	N271	N	0.904994	0.823345	0.531186
	N272	N	0.170334	0.466778	0.910885
	N273	N	0.171824	0.543493	0.079312
	N274	N	0.818447	0.467754	0.078820
	N275	N	0.817208	0.543686	0.910353
	O276	O	-0.040830	-0.063750	0.004471
	H277	H	-0.039125	-0.056790	0.012128
	H278	H	-0.043886	-0.064360	-0.007175
	O279	O	0.540324	0.391950	0.469205
	H280	H	0.551521	0.407968	0.462305
	H281	H	0.539418	0.385576	0.462437
	O282	O	0.544974	0.613537	0.490704
	H283	H	0.543028	0.607896	0.505576
	H284	H	0.543319	0.628014	0.490289
	O285	O	0.019414	0.912547	0.985542
	H286	H	0.022783	0.907144	0.980346
	H287	H	0.013078	0.913649	0.975247
	O288	O	0.387602	0.479899	0.487539
	H289	H	0.384316	0.479395	0.494819
	H290	H	0.368918	0.485627	0.466736
	O291	O	0.994159	1.025877	0.935096
	H292	H	0.987990	1.028533	0.927449
	H293	H	0.989174	1.023814	0.928445
	O294	O	1.009161	0.937797	0.967192
	H295	H	1.002976	0.938461	0.957582
	H296	H	1.000557	0.935495	0.959227
	O297	O	0.985707	-0.035566	0.967954
	H298	H	0.988891	-0.034181	0.973967
	H299	H	0.990688	-0.022959	0.965590
	O300	O	0.566524	0.432407	0.507001
	H301	H	0.575906	0.426682	0.500836
	H302	H	0.568184	0.436683	0.512739
	O303	O	0.985255	0.049720	-0.012319
	H304	H	0.990071	0.053970	0.001980
	H305	H	0.986651	0.043820	-0.018882
	O306	O	0.013370	0.978658	1.053935
	H307	H	0.015803	0.979918	1.053292
	H308	H	0.014195	0.977180	1.055875
	O309	O	0.545498	0.564883	0.544364
	H310	H	0.531190	0.564329	0.562349
	H311	H	0.555425	0.565688	0.547939
	O312	O	0.945994	-0.014784	0.960238
	H313	H	0.942576	-0.022804	0.975484
	H314	H	0.949030	-0.006942	0.954073
	O315	O	0.431836	0.511714	0.502958
	H316	H	0.435583	0.518487	0.494596
	H317	H	0.418312	0.500602	0.509815
	O318	O	0.500853	0.586326	0.401083
	H319	H	0.483044	0.596601	0.395253
	H320	H	0.495235	0.584331	0.396325
	O321	O	0.950160	1.033406	0.918314
	H322	H	0.949003	1.037559	0.917560
	H323	H	0.944543	1.035269	0.919754
	O324	O	0.528384	0.418989	0.437628
	H325	H	0.528842	0.420430	0.435218
	H326	H	0.523153	0.424141	0.424064
	O327	O	0.540956	0.509786	0.495515
	H328	H	0.542245	0.520053	0.500394
	H329	H	0.542027	0.504069	0.483992
	O330	O	0.971512	-0.013425	0.949617
	H331	H	0.960457	-0.014802	0.944252
	H332	H	0.974269	-0.009584	0.947574
	O333	O	1.000266	1.099590	-0.048294
	H334	H	1.001080	1.099828	-0.038208
	H335	H	0.991630	1.088690	-0.052043
	O336	O	0.528193	0.563131	0.541253
	H337	H	0.533000	0.564550	0.551914
	H338	H	0.533786	0.551087	0.543715
	O339	O	0.410901	0.554879	0.448132
	H340	H	0.414058	0.552939	0.452643
	H341	H	0.412273	0.553698	0.443051
	O342	O	0.514058	0.529233	0.513230
	H343	H	0.514406	0.538370	0.513696
	H344	H	0.515261	0.532979	0.512857
	O345	O	0.001262	0.030416	-0.011315
	H346	H	0.004561	0.024649	-0.006217
	H347	H	0.005792	0.028596	-0.008166
	O348	O	0.599346	0.509942	0.411837
	H349	H	0.597938	0.512985	0.406072
	H350	H	0.609018	0.503668	0.420503
	O351	O	0.532778	0.439881	0.482521
	H352	H	0.541002	0.443387	0.480323
	H353	H	0.538611	0.441484	0.480382
	O354	O	0.434096	0.473477	0.597469
	H355	H	0.428000	0.471062	0.600516
	H356	H	0.429574	0.475490	0.594600
	O357	O	0.479273	0.478065	0.491819
	H358	H	0.481961	0.468456	0.495788
	H359	H	0.486023	0.471429	0.481183
	O360	O	-0.025115	0.064614	0.010638
	H361	H	-0.017416	0.067250	0.011425
	H362	H	-0.026420	0.060456	0.011792
	O363	O	0.414506	0.537801	0.464201
	H364	H	0.412457	0.530894	0.466981
	H365	H	0.411448	0.541020	0.454692
	O366	O	0.012111	-0.018115	1.000997
	H367	H	0.009247	-0.018344	1.001353
	H368	H	0.017630	-0.015818	0.996576
	O369	O	0.504373	0.441426	0.600070
	H370	H	0.498414	0.437466	0.601990
	H371	H	0.503128	0.429784	0.604063
