data_Molecule from HDF5

_cell_length_a		16.202615
_cell_length_b		16.298761
_cell_length_c		16.145064
_cell_angle_alpha	90.509393
_cell_angle_beta	89.462108
_cell_angle_gamma	89.279940
_symmetry_space_group_name_H-M	'P 1'
_symmetry_Int_Tables_number		1

loop_
	_symmetry_equiv_pos_as_xyz
	x,y,z

loop_
	_atom_site_label
	_atom_site_type_symbol
	_atom_site_fract_x
	_atom_site_fract_y
	_atom_site_fract_z
	H0	H	0.395659	0.840232	0.708815
	H1	H	0.586058	0.169361	0.710607
	H2	H	0.596503	0.842736	0.276779
	H3	H	0.393525	0.169234	0.284793
	H4	H	0.708921	0.404490	0.829546
	H5	H	0.703619	0.602162	0.161126
	H6	H	0.280337	0.604295	0.830075
	H7	H	0.277249	0.407473	0.159368
	H8	H	0.830396	0.723375	0.397101
	H9	H	0.157517	0.718236	0.595712
	H10	H	0.828392	0.294024	0.597019
	H11	H	0.155813	0.285328	0.391885
	H12	H	0.828557	0.410071	0.710862
	H13	H	0.158705	0.600765	0.706747
	H14	H	0.827995	0.605062	0.284221
	H15	H	0.156612	0.401479	0.277988
	H16	H	0.392787	0.721125	0.831549
	H17	H	0.590608	0.719717	0.159940
	H18	H	0.597177	0.286023	0.832564
	H19	H	0.394116	0.295258	0.161753
	H20	H	0.712997	0.842366	0.391319
	H21	H	0.704378	0.169324	0.594616
	H22	H	0.279135	0.840615	0.594893
	H23	H	0.275272	0.167880	0.398654
	H24	H	0.897700	0.340370	0.207057
	H25	H	0.088897	0.668321	0.211131
	H26	H	0.096406	0.341625	0.776092
	H27	H	0.897292	0.670394	0.786512
	H28	H	0.209126	0.904169	0.330860
	H29	H	0.201271	0.102556	0.661758
	H30	H	0.780008	0.102460	0.329562
	H31	H	0.779683	0.909997	0.660266
	H32	H	0.329747	0.224313	0.899271
	H33	H	0.657675	0.217936	0.095993
	H34	H	0.330002	0.793166	0.097427
	H35	H	0.657287	0.786938	0.891883
	H36	H	0.329525	0.911295	0.210517
	H37	H	0.657757	0.102777	0.208494
	H38	H	0.326375	0.104515	0.786751
	H39	H	0.657416	0.904688	0.778945
	H40	H	0.892596	0.219020	0.330132
	H41	H	0.088552	0.220533	0.659656
	H42	H	0.098447	0.784969	0.332539
	H43	H	0.894426	0.794590	0.660482
	H44	H	0.214102	0.342017	0.891156
	H45	H	0.206009	0.668494	0.095678
	H46	H	0.781167	0.340310	0.092163
	H47	H	0.778678	0.668785	0.898997
	H48	H	0.392656	0.120720	0.585672
	H49	H	0.595511	0.886972	0.585546
	H50	H	0.580191	0.121831	0.397982
	H51	H	0.403962	0.891178	0.407181
	H52	H	0.587098	0.416905	0.113000
	H53	H	0.580620	0.602226	0.876929
	H54	H	0.403315	0.603032	0.112301
	H55	H	0.404386	0.416025	0.879805
	H56	H	0.111847	0.595126	0.400612
	H57	H	0.875051	0.604867	0.591806
	H58	H	0.111261	0.408342	0.583718
	H59	H	0.876341	0.414599	0.405847
	H60	H	0.108716	0.410967	0.581790
	H61	H	0.876103	0.601333	0.587883
	H62	H	0.110144	0.595414	0.405176
	H63	H	0.874364	0.413583	0.398133
	H64	H	0.396237	0.599360	0.113921
	H65	H	0.595936	0.599430	0.873112
	H66	H	0.583545	0.409339	0.114131
	H67	H	0.409738	0.410923	0.878941
	H68	H	0.584736	0.119453	0.410280
	H69	H	0.583022	0.887555	0.592614
	H70	H	0.391870	0.124161	0.597109
	H71	H	0.397795	0.886953	0.400674
	H72	H	0.896628	0.622555	0.094504
	H73	H	0.079897	0.389375	0.089679
	H74	H	0.089500	0.622129	0.901987
	H75	H	0.898943	0.388016	0.903449
	H76	H	0.079223	0.909824	0.613380
	H77	H	0.081245	0.098351	0.377879
	H78	H	0.888501	0.099358	0.615691
	H79	H	0.905829	0.910990	0.378145
	H80	H	0.608739	0.092307	0.902759
	H81	H	0.378102	0.094181	0.091652
	H82	H	0.613410	0.906916	0.087292
	H83	H	0.379010	0.916874	0.910227
	H84	H	0.609843	0.911475	0.080041
	H85	H	0.372558	0.106026	0.097422
	H86	H	0.611541	0.096795	0.899943
	H87	H	0.374341	0.914727	0.896909
	H88	H	0.902926	0.093860	0.609607
	H89	H	0.090097	0.097671	0.375932
	H90	H	0.089751	0.907113	0.616265
	H91	H	0.902490	0.910243	0.376672
	H92	H	0.085137	0.622128	0.899835
	H93	H	0.087290	0.391622	0.075636
	H94	H	0.900473	0.620385	0.089376
	H95	H	0.902562	0.387109	0.896432
	H96	H	0.401114	0.120301	0.592906
	H97	H	0.583245	0.892355	0.579698
	H98	H	0.592733	0.124458	0.401375
	H99	H	0.407207	0.888432	0.398571
	H100	H	0.591729	0.410087	0.114296
	H101	H	0.586285	0.588243	0.879851
	H102	H	0.402181	0.595110	0.110963
	H103	H	0.403126	0.409765	0.877323
	H104	H	0.108747	0.591361	0.402679
	H105	H	0.875557	0.598801	0.593042
	H106	H	0.109900	0.412548	0.586458
	H107	H	0.874078	0.408040	0.402808
	H108	H	0.893916	0.622505	0.089782
	H109	H	0.094640	0.385638	0.087839
	H110	H	0.085582	0.620174	0.904247
	H111	H	0.906981	0.389347	0.902820
	H112	H	0.087652	0.917564	0.613055
	H113	H	0.086171	0.090401	0.378732
	H114	H	0.901337	0.109006	0.614092
	H115	H	0.902551	0.913347	0.377204
	H116	H	0.608876	0.098030	0.905295
	H117	H	0.377188	0.105500	0.083086
	H118	H	0.610750	0.915270	0.087970
	H119	H	0.374009	0.904275	0.905826
	C120	C	0.368887	0.013248	0.618990
	C121	C	0.613546	0.997100	0.615983
	C122	C	0.616459	0.014258	0.372669
	C123	C	0.372618	0.996749	0.374792
	C124	C	0.617249	0.381985	0.004658
	C125	C	0.614521	0.625529	0.986218
	C126	C	0.371523	0.627802	0.003932
	C127	C	0.374598	0.384640	0.987195
	C128	C	0.001704	0.624936	0.374911
	C129	C	0.984888	0.627921	0.618076
	C130	C	0.001501	0.383733	0.615312
	C131	C	0.983453	0.381620	0.372004
	C132	C	0.870557	0.513165	0.117980
	C133	C	0.114217	0.496815	0.114757
	C134	C	0.117580	0.513482	0.871238
	C135	C	0.873379	0.496816	0.873981
	C136	C	0.115766	0.881686	0.505076
	C137	C	0.112955	0.125121	0.486707
	C138	C	0.869989	0.127830	0.503788
	C139	C	0.873779	0.884466	0.486567
	C140	C	0.500925	0.126049	0.875235
	C141	C	0.484563	0.128818	0.118740
	C142	C	0.502739	0.884375	0.116141
	C143	C	0.484378	0.882212	0.873480
	C144	C	0.373855	0.889715	0.672462
	C145	C	0.608658	0.120282	0.672928
	C146	C	0.615946	0.891471	0.315458
	C147	C	0.373342	0.120111	0.321436
	C148	C	0.671963	0.384140	0.879598
	C149	C	0.667315	0.623051	0.111234
	C150	C	0.317418	0.624681	0.879668
	C151	C	0.316473	0.387449	0.110586
	C152	C	0.878754	0.683344	0.377704
	C153	C	0.108356	0.681145	0.615328
	C154	C	0.877640	0.331254	0.615481
	C155	C	0.106977	0.324253	0.372532
	C156	C	0.877862	0.388592	0.672579
	C157	C	0.109124	0.622854	0.670834
	C158	C	0.877613	0.624336	0.321532
	C159	C	0.107374	0.382022	0.315730
	C160	C	0.373290	0.682952	0.880314
	C161	C	0.611052	0.681500	0.110701
	C162	C	0.616393	0.325069	0.881194
	C163	C	0.374667	0.331564	0.111882
	C164	C	0.673982	0.891212	0.372465
	C165	C	0.667130	0.120311	0.615095
	C166	C	0.316087	0.889673	0.615392
	C167	C	0.314449	0.119244	0.378247
	C168	C	0.875862	0.389517	0.170645
	C169	C	0.110235	0.619589	0.172550
	C170	C	0.116558	0.390558	0.814445
	C171	C	0.876321	0.620936	0.822438
	C172	C	0.172237	0.883242	0.380584
	C173	C	0.165195	0.123310	0.611805
	C174	C	0.816595	0.123820	0.379210
	C175	C	0.817818	0.888915	0.610955
	C176	C	0.377923	0.184198	0.879050
	C177	C	0.608366	0.181558	0.116408
	C178	C	0.379272	0.830541	0.116819
	C179	C	0.608097	0.825461	0.872933
	C180	C	0.379098	0.889355	0.172941
	C181	C	0.608418	0.124172	0.172332
	C182	C	0.376416	0.124543	0.823083
	C183	C	0.607960	0.883669	0.816350
	C184	C	0.872234	0.182015	0.379677
	C185	C	0.108850	0.181702	0.610821
	C186	C	0.116855	0.824315	0.381248
	C187	C	0.875059	0.831607	0.611025
	C188	C	0.175238	0.390864	0.871731
	C189	C	0.168536	0.619793	0.115029
	C190	C	0.818077	0.389375	0.113406
	C191	C	0.817108	0.620020	0.878027
	C192	C	0.389111	0.099422	0.597890
	C193	C	0.593259	0.911281	0.592784
	C194	C	0.592872	0.099667	0.396392
	C195	C	0.396083	0.910856	0.396004
	C196	C	0.594354	0.405121	0.091413
	C197	C	0.593641	0.603332	0.899372
	C198	C	0.393948	0.605708	0.090069
	C199	C	0.398766	0.405757	0.900747
	C200	C	0.087966	0.600977	0.396734
	C201	C	0.898112	0.607456	0.597254
	C202	C	0.087614	0.404529	0.591179
	C203	C	0.897392	0.405212	0.395376
	C204	C	0.890665	0.599461	0.097221
	C205	C	0.093430	0.411162	0.091176
	C206	C	0.093779	0.599457	0.895065
	C207	C	0.896158	0.410283	0.894759
	C208	C	0.092543	0.904647	0.591789
	C209	C	0.092197	0.102252	0.400032
	C210	C	0.891183	0.106870	0.590674
	C211	C	0.896798	0.905129	0.399654
	C212	C	0.587374	0.102636	0.896430
	C213	C	0.398225	0.108256	0.097164
	C214	C	0.588972	0.905027	0.092123
	C215	C	0.398028	0.905245	0.897312
	Zn216	Zn	0.491720	0.004486	0.746136
	Zn217	Zn	0.494048	0.006569	0.245049
	Zn218	Zn	0.743674	0.504391	-0.004903
	Zn219	Zn	0.245462	0.505469	-0.005095
	Zn220	Zn	-0.005924	0.754904	0.496339
	Zn221	Zn	-0.008135	0.254877	0.494423
	Zn222	Zn	-0.006493	0.505491	0.743967
	Zn223	Zn	-0.007096	0.504070	0.245372
	Zn224	Zn	0.493340	0.754330	-0.004589
	Zn225	Zn	0.494455	0.255609	-0.002098
	Zn226	Zn	0.744465	0.005364	0.494602
	Zn227	Zn	0.241725	0.003815	0.496445
	N228	N	0.405956	0.967480	0.674966
	N229	N	0.576343	0.042664	0.673701
	N230	N	0.580871	0.968930	0.315413
	N231	N	0.409053	0.043047	0.319425
	N232	N	0.672651	0.418676	0.957515
	N233	N	0.669674	0.588736	0.032926
	N234	N	0.316117	0.591012	0.957512
	N235	N	0.316362	0.419748	0.032136
	N236	N	0.957049	0.684112	0.409886
	N237	N	0.029992	0.684528	0.583344
	N238	N	0.955447	0.327891	0.580722
	N239	N	0.028988	0.323873	0.406946
	N240	N	0.955975	0.420773	0.672648
	N241	N	0.031239	0.590322	0.672664
	N242	N	0.955172	0.588636	0.319696
	N243	N	0.029670	0.417042	0.315297
	N244	N	0.406003	0.685243	0.958633
	N245	N	0.579166	0.683227	0.031929
	N246	N	0.583116	0.323528	0.960015
	N247	N	0.410286	0.329722	0.034062
	N248	N	0.674474	0.968503	0.407411
	N249	N	0.670268	0.042826	0.580376
	N250	N	0.312704	0.967565	0.582925
	N251	N	0.313769	0.041317	0.410522
	N252	N	0.907353	0.467418	0.173751
	N253	N	0.077380	0.542081	0.172614
	N254	N	0.081519	0.467955	0.814001
	N255	N	0.910797	0.543148	0.819852
	N256	N	0.171678	0.918146	0.458637
	N257	N	0.167886	0.088811	0.533724
	N258	N	0.814826	0.090943	0.457387
	N259	N	0.816732	0.920892	0.532478
	N260	N	0.456526	0.185272	0.910877
	N261	N	0.530402	0.184792	0.083799
	N262	N	0.457224	0.827443	0.082057
	N263	N	0.530146	0.824280	0.907834
	N264	N	0.456826	0.922116	0.172596
	N265	N	0.530350	0.092160	0.174026
	N266	N	0.453989	0.089164	0.820747
	N267	N	0.529994	0.918175	0.816552
	N268	N	0.904982	0.184507	0.458089
	N269	N	0.077013	0.183058	0.531981
	N270	N	0.082669	0.823150	0.459615
	N271	N	0.909280	0.828871	0.532652
	N272	N	0.175990	0.468450	0.906191
	N273	N	0.171243	0.542490	0.079896
	N274	N	0.814302	0.467409	0.081547
	N275	N	0.815144	0.541781	0.909188
	O276	O	0.103993	-0.000607	-0.002149
	H277	H	0.102499	0.000352	0.005791
	H278	H	0.093892	0.003318	-0.004810
	O279	O	0.465369	0.443894	0.458465
	H280	H	0.467786	0.450760	0.452232
	H281	H	0.473110	0.437352	0.455150
	O282	O	0.524952	0.514912	0.499313
	H283	H	0.525235	0.515360	0.503491
	H284	H	0.532104	0.508298	0.499316
	O285	O	0.014416	0.930686	0.964115
	H286	H	0.013750	0.937687	0.969214
	H287	H	0.012357	0.930395	0.960582
	O288	O	0.448917	0.450063	0.444579
	H289	H	0.450465	0.449061	0.434232
	H290	H	0.441795	0.456661	0.439318
	O291	O	0.966949	0.976517	1.004508
	H292	H	0.979855	0.971900	1.004787
	H293	H	0.967357	0.981962	1.004588
	O294	O	1.063467	1.030154	0.992339
	H295	H	1.072165	1.025467	0.986892
	H296	H	1.067843	1.033146	0.985199
	O297	O	0.998348	-0.018142	0.964666
	H298	H	0.999828	-0.012719	0.974621
	H299	H	0.998640	-0.018650	0.956912
	O300	O	0.537442	0.496570	0.503615
	H301	H	0.521540	0.499137	0.525661
	H302	H	0.533972	0.490814	0.502639
	O303	O	0.965057	0.027578	-0.019944
	H304	H	0.964245	0.019793	-0.022173
	H305	H	0.971732	0.018860	-0.016916
	O306	O	0.005799	1.009007	0.973757
	H307	H	0.015105	1.001577	0.964095
	H308	H	0.010341	1.017571	0.971888
	O309	O	0.494229	0.502555	0.497996
	H310	H	0.487816	0.499264	0.504468
	H311	H	0.487032	0.488863	0.490143
	O312	O	0.988229	-0.081446	0.964684
	H313	H	0.993751	-0.083970	0.971736
	H314	H	0.985004	-0.081966	0.969503
	O315	O	0.506732	0.432271	0.514209
	H316	H	0.501355	0.426554	0.508191
	H317	H	0.517799	0.415860	0.503387
	O318	O	0.389354	0.509829	0.543098
	H319	H	0.391500	0.510927	0.546661
	H320	H	0.392164	0.519973	0.534119
	O321	O	0.985042	0.996171	1.032758
	H322	H	0.993816	1.001217	1.035439
	H323	H	0.969744	0.995293	1.030563
	O324	O	0.505337	0.389091	0.446652
	H325	H	0.515120	0.389530	0.438942
	H326	H	0.497592	0.376912	0.445810
	O327	O	0.478406	0.486465	0.513158
	H328	H	0.482889	0.480973	0.509922
	H329	H	0.471951	0.487324	0.521305
	O330	O	0.961521	0.031788	0.957253
	H331	H	0.962794	0.035031	0.958230
	H332	H	0.956290	0.022547	0.953601
	O333	O	1.043180	0.968743	-0.016657
	H334	H	1.035679	0.968128	-0.021352
	H335	H	1.042757	0.969476	-0.019011
	O336	O	0.596627	0.470184	0.410410
	H337	H	0.603596	0.471900	0.419002
	H338	H	0.603717	0.467466	0.413172
	O339	O	0.552205	0.601193	0.409338
	H340	H	0.541217	0.616937	0.417864
	H341	H	0.556655	0.604865	0.401974
	O342	O	0.533459	0.498082	0.503086
	H343	H	0.528361	0.493756	0.491397
	H344	H	0.544786	0.506437	0.517859
	O345	O	-0.008762	0.025377	-0.020210
	H346	H	-0.000835	0.019993	-0.025628
	H347	H	-0.008454	0.022763	-0.021467
	O348	O	0.471317	0.536095	0.571766
	H349	H	0.468268	0.545573	0.568075
	H350	H	0.465040	0.535119	0.579704
	O351	O	0.407492	0.487268	0.435759
	H352	H	0.408379	0.493988	0.436606
	H353	H	0.412557	0.483785	0.434287
	O354	O	0.491084	0.494512	0.516216
	H355	H	0.490869	0.481358	0.514298
	H356	H	0.482910	0.502177	0.506993
	O357	O	0.545316	0.486350	0.483607
	H358	H	0.534343	0.477534	0.485637
	H359	H	0.552876	0.485853	0.487711
	O360	O	-0.013414	0.083346	-0.032991
	H361	H	-0.014671	0.078933	-0.033484
	H362	H	-0.020857	0.087686	-0.041130
	O363	O	0.582273	0.554879	0.600107
	H364	H	0.582540	0.563285	0.601344
	H365	H	0.585155	0.544870	0.592148
	O366	O	-0.015451	0.104465	0.955907
	H367	H	-0.011960	0.108008	0.945818
	H368	H	-0.017312	0.101754	0.954514
	O369	O	0.382476	0.637461	0.498330
	H370	H	0.388266	0.644328	0.498239
	H371	H	0.384883	0.636069	0.492332
