data_Molecule from HDF5

_cell_length_a		16.169554
_cell_length_b		16.224100
_cell_length_c		16.400751
_cell_angle_alpha	89.956708
_cell_angle_beta	89.935504
_cell_angle_gamma	90.313915
_symmetry_space_group_name_H-M	'P 1'
_symmetry_Int_Tables_number		1

loop_
	_symmetry_equiv_pos_as_xyz
	x,y,z

loop_
	_atom_site_label
	_atom_site_type_symbol
	_atom_site_fract_x
	_atom_site_fract_y
	_atom_site_fract_z
	H0	H	0.402023	0.841099	0.718485
	H1	H	0.605683	0.167278	0.718421
	H2	H	0.604337	0.841468	0.286710
	H3	H	0.404266	0.167928	0.285662
	H4	H	0.719208	0.407385	0.839750
	H5	H	0.719532	0.604522	0.165527
	H6	H	0.290889	0.603277	0.838973
	H7	H	0.288462	0.406941	0.165420
	H8	H	0.839401	0.716848	0.405194
	H9	H	0.169384	0.718793	0.597852
	H10	H	0.839525	0.292026	0.599522
	H11	H	0.170431	0.294816	0.405708
	H12	H	0.839635	0.404578	0.716673
	H13	H	0.168193	0.606951	0.716847
	H14	H	0.840397	0.604916	0.288034
	H15	H	0.167837	0.405296	0.284515
	H16	H	0.406524	0.720829	0.839559
	H17	H	0.602954	0.720704	0.164943
	H18	H	0.602414	0.291382	0.839010
	H19	H	0.403438	0.287867	0.164173
	H20	H	0.716661	0.840185	0.405737
	H21	H	0.717119	0.169628	0.598698
	H22	H	0.290090	0.840530	0.598936
	H23	H	0.293783	0.170139	0.406234
	H24	H	0.901611	0.343263	0.218783
	H25	H	0.106816	0.669510	0.218320
	H26	H	0.103080	0.342127	0.786032
	H27	H	0.904227	0.669164	0.786082
	H28	H	0.218320	0.909111	0.338871
	H29	H	0.219824	0.103942	0.665676
	H30	H	0.791243	0.101943	0.338843
	H31	H	0.789408	0.906503	0.665245
	H32	H	0.339850	0.217820	0.903747
	H33	H	0.669227	0.220154	0.099631
	H34	H	0.340271	0.790843	0.100155
	H35	H	0.669992	0.793337	0.905363
	H36	H	0.341235	0.903525	0.218212
	H37	H	0.668730	0.106672	0.217260
	H38	H	0.340651	0.103196	0.787189
	H39	H	0.668405	0.904454	0.786826
	H40	H	0.906441	0.220826	0.339710
	H41	H	0.104245	0.222026	0.665205
	H42	H	0.103616	0.790827	0.338911
	H43	H	0.905069	0.789308	0.664559
	H44	H	0.215658	0.340737	0.904880
	H45	H	0.218736	0.670510	0.098412
	H46	H	0.791230	0.341020	0.098723
	H47	H	0.794001	0.671118	0.906803
	H48	H	0.411550	0.122881	0.597098
	H49	H	0.605184	0.888025	0.584375
	H50	H	0.596338	0.122234	0.406476
	H51	H	0.412330	0.885068	0.398801
	H52	H	0.601455	0.418950	0.116842
	H53	H	0.610116	0.599100	0.883584
	H54	H	0.418618	0.584894	0.111550
	H55	H	0.415669	0.407129	0.887018
	H56	H	0.123075	0.600055	0.406408
	H57	H	0.883835	0.599444	0.599944
	H58	H	0.119443	0.415766	0.588816
	H59	H	0.887181	0.417582	0.403717
	H60	H	0.121362	0.420272	0.599820
	H61	H	0.886593	0.599389	0.590827
	H62	H	0.120862	0.598415	0.412379
	H63	H	0.885358	0.406627	0.407987
	H64	H	0.419164	0.612509	0.119465
	H65	H	0.593523	0.590135	0.890441
	H66	H	0.589347	0.412974	0.115374
	H67	H	0.404330	0.408413	0.884232
	H68	H	0.594755	0.120420	0.410461
	H69	H	0.600711	0.881894	0.609500
	H70	H	0.416521	0.120945	0.597785
	H71	H	0.420560	0.891511	0.413626
	H72	H	0.917558	0.621035	0.092690
	H73	H	0.093890	0.390147	0.091756
	H74	H	0.096216	0.621209	0.911556
	H75	H	0.894133	0.384224	0.911453
	H76	H	0.093364	0.903399	0.618685
	H77	H	0.096935	0.105269	0.386961
	H78	H	0.923468	0.092739	0.612742
	H79	H	0.912874	0.908019	0.385993
	H80	H	0.619686	0.096841	0.917483
	H81	H	0.386644	0.097151	0.097185
	H82	H	0.622059	0.906711	0.087612
	H83	H	0.389816	0.915316	0.915191
	H84	H	0.619624	0.923997	0.095353
	H85	H	0.387689	0.096427	0.092414
	H86	H	0.621629	0.090555	0.902642
	H87	H	0.386200	0.916026	0.904229
	H88	H	0.910729	0.113671	0.622246
	H89	H	0.104583	0.098854	0.386474
	H90	H	0.105584	0.913074	0.619953
	H91	H	0.906966	0.910861	0.385023
	H92	H	0.100766	0.624231	0.906286
	H93	H	0.096792	0.387756	0.096655
	H94	H	0.906966	0.623656	0.093487
	H95	H	0.918977	0.386579	0.892607
	H96	H	0.413482	0.120696	0.592872
	H97	H	0.581493	0.891340	0.594617
	H98	H	0.598994	0.122396	0.410497
	H99	H	0.402628	0.886641	0.414214
	H100	H	0.599908	0.405214	0.120300
	H101	H	0.593197	0.609240	0.885568
	H102	H	0.394825	0.597344	0.121818
	H103	H	0.410596	0.417102	0.888695
	H104	H	0.121296	0.593905	0.407686
	H105	H	0.888284	0.591363	0.595832
	H106	H	0.124168	0.408586	0.598353
	H107	H	0.889437	0.415135	0.415115
	H108	H	0.913412	0.624550	0.102256
	H109	H	0.091388	0.390423	0.097065
	H110	H	0.093599	0.622405	0.904820
	H111	H	0.921452	0.396031	0.921359
	H112	H	0.092194	0.918620	0.613767
	H113	H	0.095695	0.095309	0.388744
	H114	H	0.897865	0.090455	0.619518
	H115	H	0.911880	0.914500	0.387642
	H116	H	0.625836	0.106318	0.906062
	H117	H	0.388071	0.092245	0.095439
	H118	H	0.626835	0.909395	0.105359
	H119	H	0.385901	0.905745	0.909892
	C120	C	0.383661	0.013208	0.624360
	C121	C	0.625645	0.995688	0.624075
	C122	C	0.625700	0.013402	0.380660
	C123	C	0.383333	0.996338	0.380572
	C124	C	0.625826	0.383594	0.010332
	C125	C	0.627145	0.627812	0.994048
	C126	C	0.382925	0.627099	0.010180
	C127	C	0.381399	0.382339	0.993949
	C128	C	0.012991	0.626380	0.380548
	C129	C	0.995226	0.626210	0.623389
	C130	C	0.012638	0.385387	0.623725
	C131	C	0.996243	0.384746	0.380277
	C132	C	0.882816	0.514649	0.124178
	C133	C	0.124410	0.497687	0.123450
	C134	C	0.125281	0.514155	0.879609
	C135	C	0.883159	0.497520	0.880435
	C136	C	0.126157	0.883558	0.510124
	C137	C	0.127407	0.128354	0.494768
	C138	C	0.882819	0.127073	0.510413
	C139	C	0.881887	0.882514	0.493918
	C140	C	0.513641	0.126410	0.880405
	C141	C	0.495917	0.125853	0.123474
	C142	C	0.513748	0.883965	0.124280
	C143	C	0.496475	0.884070	0.881584
	C144	C	0.383240	0.890047	0.680012
	C145	C	0.624821	0.119002	0.679501
	C146	C	0.623725	0.890079	0.325296
	C147	C	0.385121	0.119335	0.324651
	C148	C	0.680825	0.386704	0.887973
	C149	C	0.681955	0.624943	0.116638
	C150	C	0.328202	0.624544	0.887829
	C151	C	0.325975	0.385637	0.116533
	C152	C	0.888894	0.680416	0.383942
	C153	C	0.119890	0.681530	0.619644
	C154	C	0.888614	0.329707	0.620624
	C155	C	0.120531	0.331115	0.384084
	C156	C	0.888796	0.385704	0.678838
	C157	C	0.119200	0.625823	0.678628
	C158	C	0.889328	0.624831	0.325682
	C159	C	0.119326	0.386060	0.323970
	C160	C	0.385635	0.683093	0.888127
	C161	C	0.624179	0.682828	0.116462
	C162	C	0.623181	0.328519	0.887961
	C163	C	0.383289	0.326723	0.116001
	C164	C	0.679720	0.889452	0.384160
	C165	C	0.680176	0.120028	0.620028
	C166	C	0.327790	0.889621	0.620603
	C167	C	0.330144	0.120481	0.384636
	C168	C	0.883139	0.391537	0.179781
	C169	C	0.125184	0.620820	0.179521
	C170	C	0.122942	0.390760	0.824624
	C171	C	0.885035	0.620571	0.824876
	C172	C	0.180743	0.887698	0.387512
	C173	C	0.182050	0.125128	0.617203
	C174	C	0.828934	0.123160	0.387490
	C175	C	0.826763	0.885321	0.616453
	C176	C	0.389174	0.180194	0.883418
	C177	C	0.619937	0.182212	0.120542
	C178	C	0.389704	0.828431	0.121246
	C179	C	0.620743	0.830418	0.884830
	C180	C	0.390099	0.884373	0.179877
	C181	C	0.619807	0.125864	0.178950
	C182	C	0.389679	0.123869	0.825123
	C183	C	0.619759	0.885591	0.825895
	C184	C	0.886330	0.181975	0.387952
	C185	C	0.124689	0.183778	0.616881
	C186	C	0.123665	0.828988	0.387491
	C187	C	0.884583	0.827313	0.616112
	C188	C	0.179264	0.390224	0.883216
	C189	C	0.180607	0.621478	0.120078
	C190	C	0.827732	0.390602	0.120633
	C191	C	0.829957	0.621583	0.884713
	C192	C	0.407056	0.099267	0.602589
	C193	C	0.602655	0.909585	0.602515
	C194	C	0.603229	0.099460	0.402661
	C195	C	0.405327	0.910050	0.402440
	C196	C	0.603482	0.405828	0.095621
	C197	C	0.605454	0.605999	0.908477
	C198	C	0.404494	0.604875	0.095687
	C199	C	0.403524	0.404232	0.908739
	C200	C	0.099399	0.604125	0.402372
	C201	C	0.908660	0.603570	0.601871
	C202	C	0.099286	0.408135	0.602051
	C203	C	0.909567	0.406523	0.402523
	C204	C	0.905991	0.600721	0.102417
	C205	C	0.100841	0.411830	0.101557
	C206	C	0.103466	0.600350	0.901261
	C207	C	0.905049	0.411140	0.902177
	C208	C	0.103735	0.905230	0.595389
	C209	C	0.105705	0.106325	0.409597
	C210	C	0.904266	0.105193	0.596117
	C211	C	0.903929	0.904685	0.408353
	C212	C	0.599871	0.104471	0.902159
	C213	C	0.409806	0.102157	0.101463
	C214	C	0.600457	0.906882	0.102761
	C215	C	0.409650	0.905992	0.903303
	Zn216	Zn	0.504845	0.004361	0.752939
	Zn217	Zn	0.505110	0.005203	0.252081
	Zn218	Zn	0.755306	0.505766	0.002518
	Zn219	Zn	0.252980	0.505491	0.002279
	Zn220	Zn	0.004306	0.753430	0.501546
	Zn221	Zn	0.004704	0.257314	0.502691
	Zn222	Zn	0.003842	0.505266	0.751757
	Zn223	Zn	0.004064	0.506476	0.252825
	Zn224	Zn	0.505181	0.756377	0.002179
	Zn225	Zn	0.504418	0.253846	0.002087
	Zn226	Zn	0.753369	0.004578	0.502235
	Zn227	Zn	0.255872	0.005543	0.502782
	N228	N	0.417532	0.967964	0.682281
	N229	N	0.591530	0.040911	0.681982
	N230	N	0.591074	0.968342	0.322937
	N231	N	0.417373	0.041109	0.322041
	N232	N	0.682771	0.420180	0.964951
	N233	N	0.683650	0.591279	0.039550
	N234	N	0.326482	0.590295	0.964605
	N235	N	0.324727	0.419776	0.039514
	N236	N	0.966847	0.681482	0.417263
	N237	N	0.041836	0.682105	0.586087
	N238	N	0.966548	0.329307	0.587090
	N239	N	0.042734	0.330316	0.418473
	N240	N	0.967084	0.419525	0.680836
	N241	N	0.040795	0.592343	0.681187
	N242	N	0.967683	0.591792	0.323548
	N243	N	0.040910	0.418270	0.321410
	N244	N	0.419070	0.684643	0.965319
	N245	N	0.590634	0.684576	0.039405
	N246	N	0.589482	0.326801	0.965105
	N247	N	0.416578	0.324437	0.038997
	N248	N	0.680954	0.967010	0.417962
	N249	N	0.680696	0.042323	0.586173
	N250	N	0.327666	0.967136	0.586932
	N251	N	0.329081	0.042959	0.418911
	N252	N	0.916777	0.469588	0.182168
	N253	N	0.091038	0.542717	0.181905
	N254	N	0.090361	0.468795	0.822249
	N255	N	0.917251	0.542317	0.822166
	N256	N	0.182706	0.920905	0.464794
	N257	N	0.184032	0.091528	0.540208
	N258	N	0.826504	0.089907	0.464692
	N259	N	0.825212	0.919011	0.539383
	N260	N	0.466984	0.181982	0.916882
	N261	N	0.541960	0.182323	0.086800
	N262	N	0.467536	0.827895	0.087540
	N263	N	0.542878	0.829656	0.918994
	N264	N	0.468256	0.918283	0.181684
	N265	N	0.541795	0.091680	0.180822
	N266	N	0.467937	0.090936	0.823067
	N267	N	0.541372	0.917951	0.823612
	N268	N	0.919076	0.184572	0.465451
	N269	N	0.091592	0.186090	0.539647
	N270	N	0.090325	0.826371	0.464653
	N271	N	0.918109	0.825481	0.538930
	N272	N	0.180785	0.467825	0.916968
	N273	N	0.180359	0.544148	0.086029
	N274	N	0.827545	0.468151	0.086814
	N275	N	0.828714	0.544002	0.918617
	O276	O	0.445150	0.460965	0.536071
	H277	H	0.446754	0.464200	0.541192
	H278	H	0.442995	0.451315	0.541545
	O279	O	0.063827	0.053266	-0.002843
	H280	H	0.069242	0.044809	0.005090
	H281	H	0.066219	0.054572	-0.016542
	O282	O	0.442288	0.444855	0.493570
	H283	H	0.451586	0.441315	0.481321
	H284	H	0.438577	0.446415	0.496865
	O285	O	0.474228	0.401651	0.519693
	H286	H	0.468830	0.406160	0.519743
	H287	H	0.481941	0.398212	0.518261
	O288	O	1.091317	0.098588	-0.003424
	H289	H	1.086932	0.096859	0.007082
	H290	H	1.103509	0.108984	0.010601
	O291	O	-0.547590	0.444252	-0.472773
	H292	H	-0.542825	0.433443	-0.468328
	H293	H	-0.551380	0.438502	-0.474736
	O294	O	0.504810	0.492416	0.516041
	H295	H	0.499156	0.490719	0.523288
	H296	H	0.501548	0.482283	0.513814
	O297	O	0.040533	1.051328	0.009080
	H298	H	0.032417	1.049022	0.003659
	H299	H	0.045714	1.047966	-0.000777
	O300	O	1.059069	0.030234	0.981704
	H301	H	1.065740	0.035538	0.975799
	H302	H	1.062929	0.036230	0.985929
	O303	O	0.540310	0.507653	0.510743
	H304	H	0.544174	0.513835	0.513493
	H305	H	0.536676	0.512176	0.513809
	O306	O	0.107234	1.078401	1.031331
	H307	H	0.090756	1.073445	1.034127
	H308	H	0.108558	1.075830	1.034606
	O309	O	0.466047	0.501757	0.494733
	H310	H	0.460148	0.505685	0.489836
	H311	H	0.462738	0.504958	0.496446
