data_Molecule from HDF5

_cell_length_a		16.288347
_cell_length_b		16.098124
_cell_length_c		16.348003
_cell_angle_alpha	89.877682
_cell_angle_beta	89.667170
_cell_angle_gamma	90.263922
_symmetry_space_group_name_H-M	'P 1'
_symmetry_Int_Tables_number		1

loop_
	_symmetry_equiv_pos_as_xyz
	x,y,z

loop_
	_atom_site_label
	_atom_site_type_symbol
	_atom_site_fract_x
	_atom_site_fract_y
	_atom_site_fract_z
	H0	H	0.404104	0.832360	0.711991
	H1	H	0.604673	0.162214	0.709978
	H2	H	0.603556	0.831881	0.282117
	H3	H	0.405142	0.162101	0.282729
	H4	H	0.719470	0.397698	0.835804
	H5	H	0.717676	0.599296	0.159777
	H6	H	0.287354	0.598030	0.834332
	H7	H	0.283693	0.395994	0.159821
	H8	H	0.836787	0.709097	0.403479
	H9	H	0.166646	0.710086	0.593467
	H10	H	0.837558	0.282660	0.595254
	H11	H	0.167271	0.285894	0.400368
	H12	H	0.839114	0.394498	0.715409
	H13	H	0.165245	0.597465	0.712341
	H14	H	0.837890	0.597663	0.283641
	H15	H	0.164931	0.397718	0.279677
	H16	H	0.408363	0.709398	0.833582
	H17	H	0.598457	0.710899	0.161274
	H18	H	0.599270	0.285546	0.833702
	H19	H	0.401366	0.281288	0.160618
	H20	H	0.715544	0.830731	0.399744
	H21	H	0.716856	0.161942	0.593064
	H22	H	0.289405	0.831523	0.597551
	H23	H	0.290146	0.161811	0.398438
	H24	H	0.900010	0.331880	0.213034
	H25	H	0.099382	0.662797	0.210248
	H26	H	0.100667	0.331792	0.784014
	H27	H	0.904567	0.661850	0.783894
	H28	H	0.220242	0.896097	0.335300
	H29	H	0.218508	0.096840	0.661409
	H30	H	0.789232	0.096228	0.334855
	H31	H	0.785132	0.896239	0.660471
	H32	H	0.337329	0.208473	0.902388
	H33	H	0.666286	0.212160	0.091902
	H34	H	0.338432	0.783697	0.095130
	H35	H	0.667173	0.786196	0.900543
	H36	H	0.341028	0.893752	0.216270
	H37	H	0.666751	0.098622	0.210420
	H38	H	0.339848	0.098601	0.780422
	H39	H	0.665836	0.898784	0.780589
	H40	H	0.907379	0.210095	0.334220
	H41	H	0.099440	0.211028	0.662011
	H42	H	0.100451	0.783685	0.334272
	H43	H	0.904587	0.783222	0.661914
	H44	H	0.215008	0.331315	0.899228
	H45	H	0.215277	0.662352	0.095464
	H46	H	0.785000	0.331994	0.097870
	H47	H	0.790463	0.662169	0.900639
	H48	H	0.409542	0.115163	0.587807
	H49	H	0.595935	0.880555	0.582288
	H50	H	0.601799	0.115032	0.404562
	H51	H	0.403686	0.877996	0.409060
	H52	H	0.596780	0.402875	0.114803
	H53	H	0.587754	0.582292	0.887276
	H54	H	0.410096	0.589061	0.112621
	H55	H	0.408126	0.405714	0.882554
	H56	H	0.121583	0.592426	0.392623
	H57	H	0.886895	0.585725	0.590258
	H58	H	0.118448	0.408392	0.593030
	H59	H	0.884987	0.400197	0.404799
	H60	H	0.119655	0.403355	0.593795
	H61	H	0.884316	0.587406	0.596934
	H62	H	0.117475	0.596800	0.411173
	H63	H	0.887288	0.404591	0.408039
	H64	H	0.405531	0.592305	0.115452
	H65	H	0.593900	0.605550	0.877623
	H66	H	0.592724	0.408999	0.111870
	H67	H	0.409080	0.403776	0.880830
	H68	H	0.596639	0.116786	0.398687
	H69	H	0.600776	0.875146	0.594799
	H70	H	0.410589	0.116978	0.591454
	H71	H	0.413919	0.877701	0.397874
	H72	H	0.910056	0.612325	0.082871
	H73	H	0.091821	0.378048	0.095508
	H74	H	0.097051	0.615078	0.906391
	H75	H	0.902194	0.380447	0.918142
	H76	H	0.099265	0.907856	0.613942
	H77	H	0.102338	0.095634	0.379997
	H78	H	0.913947	0.090969	0.613297
	H79	H	0.913223	0.894485	0.379737
	H80	H	0.621318	0.094928	0.896724
	H81	H	0.387838	0.088433	0.089024
	H82	H	0.622054	0.898757	0.090166
	H83	H	0.387506	0.909420	0.905442
	H84	H	0.617063	0.908454	0.085363
	H85	H	0.387354	0.083466	0.093986
	H86	H	0.618659	0.093463	0.905895
	H87	H	0.383738	0.903624	0.897388
	H88	H	0.903259	0.093531	0.617398
	H89	H	0.101478	0.084680	0.383053
	H90	H	0.091410	0.903466	0.613324
	H91	H	0.899083	0.905137	0.379156
	H92	H	0.096464	0.615955	0.899910
	H93	H	0.087170	0.381348	0.086574
	H94	H	0.900483	0.617853	0.094202
	H95	H	0.902862	0.373317	0.894957
	H96	H	0.413682	0.114494	0.589486
	H97	H	0.586267	0.880144	0.593923
	H98	H	0.593657	0.112989	0.405880
	H99	H	0.417966	0.882476	0.411248
	H100	H	0.589373	0.402303	0.113541
	H101	H	0.611099	0.585298	0.878090
	H102	H	0.404396	0.586830	0.113586
	H103	H	0.406379	0.403517	0.880041
	H104	H	0.114165	0.578473	0.404437
	H105	H	0.884529	0.592594	0.591779
	H106	H	0.117739	0.404715	0.588215
	H107	H	0.885808	0.406066	0.402381
	H108	H	0.915964	0.615322	0.096911
	H109	H	0.097284	0.378723	0.086309
	H110	H	0.092323	0.614508	0.903846
	H111	H	0.922722	0.382279	0.905813
	H112	H	0.098811	0.899143	0.616066
	H113	H	0.092707	0.091124	0.383723
	H114	H	0.905277	0.082410	0.612368
	H115	H	0.913942	0.911241	0.385621
	H116	H	0.618340	0.086218	0.900497
	H117	H	0.384273	0.089659	0.094445
	H118	H	0.620600	0.908044	0.096022
	H119	H	0.385478	0.899642	0.906620
	C120	C	0.382405	0.005826	0.618560
	C121	C	0.624128	0.988029	0.618080
	C122	C	0.625376	0.005473	0.375195
	C123	C	0.383100	0.988315	0.376787
	C124	C	0.622856	0.375850	0.006266
	C125	C	0.624810	0.619750	0.988879
	C126	C	0.379611	0.618562	0.006085
	C127	C	0.378520	0.374723	0.988822
	C128	C	0.009545	0.618419	0.375790
	C129	C	0.993487	0.617949	0.620255
	C130	C	0.010443	0.375202	0.620259
	C131	C	0.994220	0.375584	0.375891
	C132	C	0.879015	0.505907	0.120228
	C133	C	0.121581	0.488655	0.118125
	C134	C	0.123457	0.505420	0.876009
	C135	C	0.881198	0.487867	0.877459
	C136	C	0.124988	0.875079	0.506300
	C137	C	0.126178	0.119436	0.490107
	C138	C	0.881113	0.117681	0.506232
	C139	C	0.879903	0.874489	0.489394
	C140	C	0.510948	0.119746	0.874059
	C141	C	0.494341	0.118242	0.119667
	C142	C	0.511824	0.875129	0.119755
	C143	C	0.494190	0.875928	0.874880
	C144	C	0.383984	0.881652	0.674438
	C145	C	0.623430	0.112792	0.672101
	C146	C	0.623429	0.881212	0.319891
	C147	C	0.385738	0.112794	0.321349
	C148	C	0.680328	0.377836	0.884114
	C149	C	0.679280	0.618246	0.111376
	C150	C	0.325711	0.617044	0.882987
	C151	C	0.322609	0.376416	0.111438
	C152	C	0.886088	0.672617	0.381076
	C153	C	0.117181	0.673043	0.615342
	C154	C	0.886981	0.319687	0.616747
	C155	C	0.117926	0.322572	0.379574
	C156	C	0.887672	0.374982	0.676605
	C157	C	0.116492	0.617133	0.674680
	C158	C	0.886590	0.616851	0.321680
	C159	C	0.116641	0.377747	0.319073
	C160	C	0.385580	0.672721	0.882562
	C161	C	0.620079	0.674045	0.112158
	C162	C	0.620219	0.322373	0.882884
	C163	C	0.381032	0.319233	0.111824
	C164	C	0.678906	0.880555	0.378572
	C165	C	0.679038	0.112809	0.614019
	C166	C	0.327082	0.881327	0.617259
	C167	C	0.328002	0.112576	0.378274
	C168	C	0.880249	0.381318	0.175241
	C169	C	0.119401	0.613295	0.172440
	C170	C	0.120735	0.380809	0.821808
	C171	C	0.884174	0.612342	0.821869
	C172	C	0.181309	0.876873	0.383874
	C173	C	0.180729	0.117213	0.612665
	C174	C	0.827075	0.115831	0.383248
	C175	C	0.823631	0.875890	0.611948
	C176	C	0.386841	0.172727	0.879615
	C177	C	0.617307	0.174810	0.114309
	C178	C	0.387811	0.820771	0.116233
	C179	C	0.617958	0.822892	0.878930
	C180	C	0.389245	0.875488	0.176514
	C181	C	0.617522	0.118568	0.173267
	C182	C	0.388264	0.117959	0.819102
	C183	C	0.617226	0.879009	0.819491
	C184	C	0.886056	0.172365	0.383012
	C185	C	0.121309	0.173761	0.613201
	C186	C	0.121795	0.820868	0.383149
	C187	C	0.882931	0.819859	0.612766
	C188	C	0.177804	0.380944	0.878906
	C189	C	0.177331	0.613048	0.115695
	C190	C	0.823258	0.381260	0.118076
	C191	C	0.827827	0.612860	0.880221
	C192	C	0.404615	0.092909	0.596063
	C193	C	0.601271	0.901002	0.596607
	C194	C	0.603628	0.092462	0.396635
	C195	C	0.405235	0.901905	0.399450
	C196	C	0.599773	0.398170	0.091428
	C197	C	0.603826	0.597587	0.903088
	C198	C	0.400600	0.596057	0.091710
	C199	C	0.401048	0.397586	0.903154
	C200	C	0.095384	0.595925	0.396609
	C201	C	0.907432	0.595170	0.599225
	C202	C	0.096485	0.398699	0.598092
	C203	C	0.908160	0.397413	0.398388
	C204	C	0.901839	0.592790	0.097976
	C205	C	0.098572	0.401625	0.095960
	C206	C	0.101657	0.592615	0.897127
	C207	C	0.903003	0.401155	0.899757
	C208	C	0.102811	0.896980	0.592278
	C209	C	0.105041	0.097294	0.404303
	C210	C	0.901527	0.095467	0.592145
	C211	C	0.902274	0.896819	0.403585
	C212	C	0.597191	0.098234	0.894927
	C213	C	0.408750	0.094314	0.098704
	C214	C	0.597778	0.898099	0.097103
	C215	C	0.407871	0.897766	0.896721
	Zn216	Zn	0.503140	-0.001899	0.745580
	Zn217	Zn	0.504196	-0.003288	0.248459
	Zn218	Zn	0.752724	0.497504	-0.001185
	Zn219	Zn	0.250320	0.497089	-0.002396
	Zn220	Zn	0.002349	0.746616	0.497987
	Zn221	Zn	0.002488	0.247237	0.498308
	Zn222	Zn	0.001789	0.496050	0.748960
	Zn223	Zn	0.000766	0.497206	0.246223
	Zn224	Zn	0.502522	0.747574	-0.002600
	Zn225	Zn	0.501514	0.246600	-0.003051
	Zn226	Zn	0.751569	-0.003565	0.497332
	Zn227	Zn	0.254670	-0.003227	0.498151
	N228	N	0.417809	0.960179	0.675244
	N229	N	0.589986	0.034199	0.674833
	N230	N	0.590799	0.959957	0.317746
	N231	N	0.419069	0.034346	0.319993
	N232	N	0.682018	0.410596	0.961761
	N233	N	0.682425	0.585394	0.033717
	N234	N	0.321897	0.584157	0.960721
	N235	N	0.320944	0.410047	0.033967
	N236	N	0.963608	0.673760	0.414079
	N237	N	0.039619	0.673635	0.582191
	N238	N	0.964424	0.319637	0.582636
	N239	N	0.040549	0.320890	0.413989
	N240	N	0.965416	0.408819	0.678808
	N241	N	0.038611	0.583501	0.677796
	N242	N	0.964378	0.583891	0.318100
	N243	N	0.038557	0.409844	0.316574
	N244	N	0.418404	0.673958	0.960024
	N245	N	0.586736	0.674952	0.035136
	N246	N	0.585253	0.321021	0.959610
	N247	N	0.415011	0.318000	0.034537
	N248	N	0.680577	0.958878	0.411947
	N249	N	0.679535	0.034218	0.580993
	N250	N	0.325859	0.959735	0.583495
	N251	N	0.326285	0.034333	0.412097
	N252	N	0.914064	0.459791	0.176708
	N253	N	0.085838	0.534630	0.174155
	N254	N	0.087846	0.459404	0.819602
	N255	N	0.916605	0.533539	0.820005
	N256	N	0.183459	0.909704	0.461631
	N257	N	0.183926	0.084223	0.535061
	N258	N	0.823883	0.082674	0.461029
	N259	N	0.821633	0.909150	0.534296
	N260	N	0.464263	0.174101	0.912676
	N261	N	0.539691	0.174836	0.081761
	N262	N	0.465128	0.820532	0.081518
	N263	N	0.540313	0.820972	0.912741
	N264	N	0.467297	0.908449	0.178818
	N265	N	0.540084	0.083839	0.176627
	N266	N	0.466335	0.085749	0.815638
	N267	N	0.539228	0.911311	0.817019
	N268	N	0.919038	0.173408	0.460249
	N269	N	0.088355	0.175495	0.535969
	N270	N	0.087510	0.819622	0.460240
	N271	N	0.917178	0.818861	0.535516
	N272	N	0.179544	0.459509	0.911763
	N273	N	0.178671	0.534485	0.082639
	N274	N	0.822313	0.459796	0.084678
	N275	N	0.825683	0.534515	0.913842
	O276	O	0.631983	0.440111	0.469838
	H277	H	0.632571	0.433583	0.467856
	H278	H	0.639965	0.443637	0.468607
	O279	O	0.470809	0.528676	0.540872
	H280	H	0.470283	0.529984	0.539123
	H281	H	0.477579	0.529519	0.543874
	O282	O	0.482371	0.455811	0.495619
	H283	H	0.490735	0.457295	0.483798
	H284	H	0.474890	0.453383	0.491794
	O285	O	0.042160	1.004217	1.031106
	H286	H	0.039316	0.997573	1.039266
	H287	H	0.041496	1.002015	1.029765
	O288	O	0.541770	0.455173	0.445871
	H289	H	0.548631	0.455074	0.439546
	H290	H	0.538483	0.448393	0.463307
	O291	O	-0.524564	0.488746	0.529226
	H292	H	-0.523868	0.494700	0.531093
	H293	H	-0.531446	0.489327	0.524609
	O294	O	0.472522	0.460265	0.407767
	H295	H	0.471216	0.459672	0.412114
	H296	H	0.472354	0.452405	0.425565
	O297	O	0.514636	0.461718	0.512052
	H298	H	0.524099	0.451991	0.513672
	H299	H	0.515884	0.457299	0.514887
	O300	O	0.473095	0.476781	0.509237
	H301	H	0.484090	0.485077	0.510980
	H302	H	0.475472	0.479176	0.515546
	O303	O	0.490668	0.428730	0.523639
	H304	H	0.486598	0.430310	0.521278
	H305	H	0.496118	0.436832	0.535352
	O306	O	0.484120	0.495359	1.394926
	H307	H	0.486336	0.493038	1.389986
	H308	H	0.474492	0.501165	1.383925
	O309	O	0.501605	0.527727	0.507956
	H310	H	0.498614	0.524326	0.502931
	H311	H	0.507443	0.533894	0.501836
	O312	O	0.491557	0.535084	0.543726
	H313	H	0.489607	0.533640	0.537327
	H314	H	0.484139	0.534048	0.545491
	O315	O	1.060224	0.025431	1.073803
	H316	H	1.067688	0.023612	1.075932
	H317	H	1.059251	0.022563	1.070652
	O318	O	0.042951	0.002866	0.063454
	H319	H	0.040764	0.013388	0.065792
	H320	H	0.042969	0.001569	0.067365
	O321	O	0.527342	0.580331	0.469801
	H322	H	0.519731	0.580595	0.475312
	H323	H	0.536113	0.576556	0.468568
	O324	O	1.039616	0.031557	0.043391
	H325	H	1.041765	0.023796	0.045097
	H326	H	1.042643	0.033812	0.038994
	O327	O	1.039645	1.037135	0.039699
	H328	H	1.044267	1.045018	0.038702
	H329	H	1.037093	1.037744	0.046559
	O330	O	0.469299	0.433647	0.471377
	H331	H	0.471918	0.433294	0.467961
	H332	H	0.456904	0.425782	0.479606
	O333	O	0.446925	0.458196	0.541522
	H334	H	0.440005	0.448670	0.529210
	H335	H	0.442630	0.463999	0.547632
