data_Molecule from HDF5

_cell_length_a		16.234654
_cell_length_b		16.220373
_cell_length_c		16.195544
_cell_angle_alpha	91.667126
_cell_angle_beta	89.183176
_cell_angle_gamma	88.954249
_symmetry_space_group_name_H-M	'P 1'
_symmetry_Int_Tables_number		1

loop_
	_symmetry_equiv_pos_as_xyz
	x,y,z

loop_
	_atom_site_label
	_atom_site_type_symbol
	_atom_site_fract_x
	_atom_site_fract_y
	_atom_site_fract_z
	H0	H	0.405516	0.840375	0.710501
	H1	H	0.600515	0.167808	0.718840
	H2	H	0.609454	0.843558	0.275670
	H3	H	0.407263	0.173295	0.295940
	H4	H	0.726510	0.396753	0.837155
	H5	H	0.710234	0.606962	0.165511
	H6	H	0.288605	0.603868	0.836474
	H7	H	0.289904	0.415485	0.165038
	H8	H	0.841840	0.721006	0.408909
	H9	H	0.169679	0.721550	0.602539
	H10	H	0.839177	0.298788	0.597913
	H11	H	0.167793	0.282985	0.394419
	H12	H	0.840675	0.414229	0.715760
	H13	H	0.169747	0.606232	0.717081
	H14	H	0.839138	0.602884	0.295165
	H15	H	0.167817	0.398075	0.277900
	H16	H	0.404969	0.714173	0.833552
	H17	H	0.599612	0.726804	0.160631
	H18	H	0.608630	0.283927	0.835517
	H19	H	0.406168	0.300974	0.165384
	H20	H	0.725802	0.842698	0.391651
	H21	H	0.712545	0.169981	0.600386
	H22	H	0.293000	0.840153	0.594035
	H23	H	0.285608	0.168107	0.405531
	H24	H	0.907218	0.340516	0.210555
	H25	H	0.096661	0.669702	0.220112
	H26	H	0.110026	0.343586	0.778140
	H27	H	0.904721	0.672121	0.795994
	H28	H	0.224383	0.896612	0.335937
	H29	H	0.213476	0.105300	0.664998
	H30	H	0.791725	0.102545	0.335075
	H31	H	0.787087	0.911511	0.662190
	H32	H	0.341535	0.222569	0.903338
	H33	H	0.668774	0.220123	0.098094
	H34	H	0.338324	0.800138	0.094795
	H35	H	0.666491	0.780334	0.890059
	H36	H	0.340740	0.915331	0.213480
	H37	H	0.669735	0.106521	0.212100
	H38	H	0.340059	0.103737	0.789984
	H39	H	0.667371	0.896691	0.775787
	H40	H	0.905887	0.217326	0.335345
	H41	H	0.100614	0.224534	0.662780
	H42	H	0.111605	0.780719	0.338198
	H43	H	0.907648	0.801699	0.666229
	H44	H	0.224996	0.343971	0.894070
	H45	H	0.211892	0.672112	0.103211
	H46	H	0.790702	0.341502	0.098014
	H47	H	0.786082	0.669048	0.908515
	H48	H	0.407689	0.125227	0.605823
	H49	H	0.601573	0.886123	0.589617
	H50	H	0.612283	0.128719	0.404623
	H51	H	0.421108	0.891692	0.405466
	H52	H	0.589535	0.419323	0.113933
	H53	H	0.595560	0.587151	0.884240
	H54	H	0.400361	0.599793	0.118176
	H55	H	0.422057	0.411800	0.884775
	H56	H	0.123326	0.592028	0.407162
	H57	H	0.888493	0.603365	0.600579
	H58	H	0.121893	0.410683	0.588479
	H59	H	0.886860	0.407801	0.409729
	H60	H	0.121391	0.413444	0.586703
	H61	H	0.887565	0.606360	0.600940
	H62	H	0.121638	0.593546	0.410929
	H63	H	0.889345	0.417134	0.409078
	H64	H	0.415787	0.603558	0.113645
	H65	H	0.596499	0.594890	0.879980
	H66	H	0.595593	0.405565	0.121211
	H67	H	0.413800	0.405645	0.880580
	H68	H	0.588071	0.124633	0.397864
	H69	H	0.593018	0.889153	0.583882
	H70	H	0.416699	0.117884	0.592451
	H71	H	0.411159	0.887367	0.403926
	H72	H	0.906493	0.622552	0.098289
	H73	H	0.098651	0.387831	0.092144
	H74	H	0.081438	0.619326	0.913998
	H75	H	0.917535	0.388505	0.902556
	H76	H	0.103614	0.924251	0.615547
	H77	H	0.096391	0.105983	0.378321
	H78	H	0.919862	0.097387	0.611107
	H79	H	0.917541	0.904106	0.380548
	H80	H	0.621069	0.097387	0.912719
	H81	H	0.386522	0.105856	0.098390
	H82	H	0.619692	0.922008	0.087902
	H83	H	0.383465	0.908251	0.897147
	H84	H	0.624565	0.906024	0.089074
	H85	H	0.386340	0.106293	0.097730
	H86	H	0.619030	0.085910	0.907924
	H87	H	0.387877	0.907168	0.911293
	H88	H	0.907567	0.117862	0.621557
	H89	H	0.110944	0.084733	0.380340
	H90	H	0.088573	0.914845	0.614914
	H91	H	0.912598	0.913152	0.381729
	H92	H	0.105464	0.624401	0.922546
	H93	H	0.095981	0.390486	0.084031
	H94	H	0.903402	0.624469	0.100905
	H95	H	0.918267	0.389938	0.907874
	H96	H	0.399927	0.121549	0.590838
	H97	H	0.602845	0.888825	0.579309
	H98	H	0.596108	0.119005	0.421493
	H99	H	0.418207	0.887089	0.396068
	H100	H	0.604573	0.418796	0.117946
	H101	H	0.603169	0.588473	0.881118
	H102	H	0.405907	0.615208	0.120515
	H103	H	0.411805	0.416854	0.882568
	H104	H	0.121211	0.589080	0.409287
	H105	H	0.889184	0.606037	0.597369
	H106	H	0.121705	0.413838	0.590395
	H107	H	0.885831	0.412530	0.401719
	H108	H	0.907043	0.623209	0.102378
	H109	H	0.105278	0.388389	0.085135
	H110	H	0.099803	0.629787	0.897077
	H111	H	0.913246	0.388105	0.906020
	H112	H	0.104096	0.907700	0.621869
	H113	H	0.086497	0.084295	0.388279
	H114	H	0.897215	0.095080	0.618256
	H115	H	0.922702	0.911617	0.384229
	H116	H	0.624337	0.094147	0.900370
	H117	H	0.387421	0.105654	0.097572
	H118	H	0.617940	0.911907	0.074984
	H119	H	0.390167	0.920141	0.903858
	C120	C	0.381667	0.012880	0.621867
	C121	C	0.625233	0.996447	0.617429
	C122	C	0.629564	0.015850	0.374775
	C123	C	0.385586	0.997242	0.377782
	C124	C	0.628144	0.381539	0.008950
	C125	C	0.623932	0.623857	0.990229
	C126	C	0.380013	0.630717	0.008524
	C127	C	0.385252	0.386835	0.991756
	C128	C	0.013441	0.623510	0.382803
	C129	C	0.997075	0.631703	0.626670
	C130	C	0.012903	0.386985	0.619079
	C131	C	0.995606	0.380634	0.375381
	C132	C	0.880007	0.514125	0.125023
	C133	C	0.125077	0.497665	0.120241
	C134	C	0.127508	0.516089	0.878128
	C135	C	0.884812	0.497816	0.880846
	C136	C	0.129660	0.881685	0.509325
	C137	C	0.125246	0.124307	0.490676
	C138	C	0.881234	0.129295	0.508400
	C139	C	0.886207	0.885370	0.490975
	C140	C	0.513094	0.123865	0.879567
	C141	C	0.495946	0.131769	0.123818
	C142	C	0.512283	0.887557	0.115457
	C143	C	0.495278	0.879620	0.872658
	C144	C	0.385715	0.889465	0.673618
	C145	C	0.620783	0.119326	0.678176
	C146	C	0.629315	0.892387	0.315033
	C147	C	0.386447	0.122640	0.329886
	C148	C	0.687021	0.378883	0.885992
	C149	C	0.674738	0.626205	0.115344
	C150	C	0.325693	0.625121	0.885182
	C151	C	0.328579	0.393928	0.115813
	C152	C	0.890353	0.681931	0.387717
	C153	C	0.120547	0.684587	0.623176
	C154	C	0.888780	0.335375	0.618007
	C155	C	0.118856	0.322352	0.375166
	C156	C	0.889454	0.392933	0.676543
	C157	C	0.120468	0.627222	0.680214
	C158	C	0.889058	0.623301	0.330977
	C159	C	0.118918	0.379630	0.317471
	C160	C	0.383899	0.679890	0.883608
	C161	C	0.619805	0.685722	0.112895
	C162	C	0.628552	0.322442	0.885184
	C163	C	0.386241	0.336718	0.116054
	C164	C	0.686758	0.891761	0.373075
	C165	C	0.676837	0.120455	0.619498
	C166	C	0.329624	0.889098	0.615507
	C167	C	0.325761	0.120134	0.384071
	C168	C	0.885410	0.390036	0.175342
	C169	C	0.118531	0.621248	0.180252
	C170	C	0.128812	0.392774	0.817899
	C171	C	0.884791	0.622220	0.831194
	C172	C	0.186431	0.878350	0.385425
	C173	C	0.177502	0.125120	0.615124
	C174	C	0.828529	0.123792	0.384235
	C175	C	0.826954	0.890759	0.613939
	C176	C	0.389999	0.182441	0.883185
	C177	C	0.619667	0.184095	0.119057
	C178	C	0.387938	0.836487	0.114807
	C179	C	0.617711	0.819549	0.871109
	C180	C	0.389334	0.893802	0.173975
	C181	C	0.620134	0.127217	0.175724
	C182	C	0.389554	0.123701	0.826432
	C183	C	0.618272	0.878029	0.814675
	C184	C	0.885444	0.180747	0.384216
	C185	C	0.121319	0.184330	0.614106
	C186	C	0.130217	0.820789	0.386478
	C187	C	0.887053	0.836225	0.616097
	C188	C	0.185773	0.392860	0.875714
	C189	C	0.175613	0.622358	0.121984
	C190	C	0.827477	0.390543	0.119211
	C191	C	0.825819	0.620758	0.887286
	C192	C	0.401895	0.099301	0.602174
	C193	C	0.605150	0.910330	0.591644
	C194	C	0.605829	0.101897	0.400436
	C195	C	0.409655	0.911048	0.396238
	C196	C	0.603728	0.407133	0.095171
	C197	C	0.604240	0.597694	0.904203
	C198	C	0.401262	0.612025	0.094965
	C199	C	0.408956	0.405714	0.905040
	C200	C	0.099634	0.598867	0.403177
	C201	C	0.910698	0.611395	0.605739
	C202	C	0.099400	0.406867	0.595398
	C203	C	0.909612	0.405274	0.399718
	C204	C	0.899851	0.600961	0.106329
	C205	C	0.105663	0.411461	0.094654
	C206	C	0.102839	0.602138	0.903731
	C207	C	0.909136	0.411261	0.899869
	C208	C	0.105878	0.907929	0.595259
	C209	C	0.104267	0.098989	0.404455
	C210	C	0.901921	0.109392	0.594601
	C211	C	0.910544	0.904080	0.404477
	C212	C	0.599060	0.099564	0.900879
	C213	C	0.409280	0.111850	0.103792
	C214	C	0.598345	0.907495	0.091169
	C215	C	0.409310	0.904515	0.897115
	Zn216	Zn	0.504277	0.003554	0.747858
	Zn217	Zn	0.506319	0.008555	0.248414
	Zn218	Zn	0.754683	0.504539	0.001993
	Zn219	Zn	0.255265	0.507918	-0.000152
	Zn220	Zn	0.006876	0.756143	0.502204
	Zn221	Zn	0.003776	0.254724	0.498648
	Zn222	Zn	0.005650	0.507917	0.751347
	Zn223	Zn	0.003462	0.504227	0.250120
	Zn224	Zn	0.503020	0.754348	-0.003727
	Zn225	Zn	0.504858	0.255655	0.000656
	Zn226	Zn	0.755907	0.006425	0.498163
	Zn227	Zn	0.255295	0.003627	0.499158
	N228	N	0.417405	0.967622	0.677789
	N229	N	0.589450	0.041184	0.677036
	N230	N	0.594730	0.970495	0.315843
	N231	N	0.422920	0.045434	0.325628
	N232	N	0.686884	0.414916	0.964000
	N233	N	0.677540	0.588380	0.038308
	N234	N	0.323142	0.595270	0.963718
	N235	N	0.327802	0.424152	0.037368
	N236	N	0.968672	0.681871	0.419360
	N237	N	0.042639	0.687828	0.590844
	N238	N	0.966644	0.331484	0.583062
	N239	N	0.041076	0.322770	0.410430
	N240	N	0.967712	0.424145	0.677345
	N241	N	0.042430	0.595482	0.682805
	N242	N	0.966584	0.587455	0.327758
	N243	N	0.041237	0.414865	0.317290
	N244	N	0.416971	0.683731	0.961362
	N245	N	0.589073	0.684522	0.034114
	N246	N	0.592557	0.323968	0.962753
	N247	N	0.420747	0.332026	0.037828
	N248	N	0.687284	0.969531	0.409281
	N249	N	0.679612	0.042962	0.582310
	N250	N	0.326985	0.966865	0.584025
	N251	N	0.325145	0.041246	0.413249
	N252	N	0.917405	0.467987	0.179054
	N253	N	0.087760	0.542704	0.179278
	N254	N	0.093331	0.470492	0.819208
	N255	N	0.920786	0.544704	0.827061
	N256	N	0.186210	0.915388	0.462820
	N257	N	0.179918	0.088200	0.537240
	N258	N	0.825555	0.092825	0.462319
	N259	N	0.826401	0.920412	0.535198
	N260	N	0.468006	0.182879	0.915504
	N261	N	0.541342	0.187230	0.087421
	N262	N	0.465513	0.832264	0.079169
	N263	N	0.539919	0.820316	0.906276
	N264	N	0.467751	0.924812	0.174253
	N265	N	0.542208	0.095574	0.178998
	N266	N	0.466975	0.087880	0.824352
	N267	N	0.540989	0.914381	0.815307
	N268	N	0.917566	0.184352	0.462222
	N269	N	0.089895	0.184038	0.535825
	N270	N	0.095639	0.822463	0.464650
	N271	N	0.923224	0.832559	0.538595
	N272	N	0.185357	0.470609	0.912192
	N273	N	0.179725	0.544670	0.085303
	N274	N	0.823879	0.468787	0.088847
	N275	N	0.825873	0.542177	0.917384
	O276	O	0.450020	0.537047	0.543869
	H277	H	0.435510	0.547451	0.536068
	H278	H	0.459061	0.544724	0.548298
	O279	O	0.404796	0.597884	0.515093
	H280	H	0.415740	0.588666	0.517824
	H281	H	0.399128	0.599960	0.509929
	O282	O	1.013000	1.037139	-0.039785
	H283	H	1.029766	1.024614	-0.043952
	H284	H	1.000761	1.044970	-0.037416
	O285	O	1.025147	0.035669	1.163311
	H286	H	1.015695	0.035636	1.170432
	H287	H	1.035678	0.018120	1.154733
	O288	O	0.548591	0.461201	0.571426
	H289	H	0.559549	0.458536	0.576440
	H290	H	0.533691	0.455026	0.561977
	O291	O	0.575946	0.584156	0.462834
	H292	H	0.576087	0.579277	0.464297
	H293	H	0.581056	0.586585	0.461819
	O294	O	0.457995	0.420193	0.578276
	H295	H	0.448371	0.415318	0.575681
	H296	H	0.457451	0.429634	0.580391
	O297	O	0.066531	-0.067375	1.087726
	H298	H	0.070027	-0.067761	1.093279
	H299	H	0.060950	-0.071928	1.094510
	O300	O	0.585374	0.423795	0.438353
	H301	H	0.590702	0.417809	0.453213
	H302	H	0.581752	0.424440	0.440083
	O303	O	0.472844	0.600765	0.518033
	H304	H	0.472786	0.597312	0.508747
	H305	H	0.468462	0.597875	0.517469
	O306	O	0.019940	1.066715	1.021830
	H307	H	0.016512	1.076899	1.020944
	H308	H	0.009334	1.078644	1.016420
	O309	O	0.567624	0.499095	0.511493
	H310	H	0.567496	0.488616	0.506054
	H311	H	0.564241	0.495389	0.516496
	O312	O	0.130677	-0.049762	-0.073458
	H313	H	0.135376	-0.055259	-0.077728
	H314	H	0.140342	-0.060794	-0.076138
	O315	O	1.038786	0.110292	0.022649
	H316	H	1.034229	0.121860	0.026783
	H317	H	1.035420	0.104793	0.012997
	O318	O	1.174525	0.955371	1.046989
	H319	H	1.172594	0.961801	1.036718
	H320	H	1.178794	0.967119	1.046009
	O321	O	-0.076008	-0.025599	0.979663
	H322	H	-0.087859	-0.016242	0.984103
	H323	H	-0.070643	-0.024988	0.976428
	O324	O	0.362021	0.546447	0.455506
	H325	H	0.356110	0.548355	0.449662
	H326	H	0.364083	0.549510	0.455294
	O327	O	-0.019888	-0.147897	-0.021600
	H328	H	-0.021141	-0.157571	-0.029928
	H329	H	-0.021907	-0.132895	-0.022866
	O330	O	0.544858	0.636090	0.657333
	H331	H	0.551842	0.657833	0.675263
	H332	H	0.575194	0.631864	0.652126
	O333	O	-0.069965	0.934765	1.028674
	H334	H	-0.077198	0.914940	1.031670
	H335	H	-0.079074	0.934097	1.016655
	O336	O	-0.008423	0.103951	0.067406
	H337	H	-0.010124	0.105434	0.076460
	H338	H	0.001772	0.110266	0.061872
	O339	O	0.539192	0.505593	0.561202
	H340	H	0.540464	0.515092	0.569682
	H341	H	0.537276	0.506819	0.555254
	O342	O	1.038350	0.946792	0.911431
	H343	H	1.043508	0.941890	0.914337
	H344	H	1.056228	0.953583	0.920616
	O345	O	1.160590	1.047018	-0.026977
	H346	H	1.161678	1.058602	-0.030212
	H347	H	1.174685	1.048707	-0.032959
	O348	O	0.561859	0.434863	0.402480
	H349	H	0.573342	0.433377	0.405372
	H350	H	0.572105	0.435189	0.399255
	O351	O	0.576329	0.554627	0.498538
	H352	H	0.581075	0.543552	0.483133
	H353	H	0.569059	0.549420	0.488942
	O354	O	-0.053363	-0.056687	-0.027158
	H355	H	-0.055376	-0.051967	-0.017350
	H356	H	-0.053321	-0.068338	-0.019932
	O357	O	0.860459	0.025333	1.035453
	H358	H	0.862413	0.012838	1.030852
	H359	H	0.853711	0.034710	1.044293
	O360	O	0.551711	0.386542	0.448540
	H361	H	0.546374	0.397601	0.451015
	H362	H	0.546944	0.369509	0.442637
	O363	O	0.538622	0.416889	0.435019
	H364	H	0.532133	0.411862	0.426630
	H365	H	0.545655	0.421691	0.439679
	O366	O	0.935911	1.065202	0.993687
	H367	H	0.928800	1.071297	0.992769
	H368	H	0.940036	1.051214	0.983573
	O369	O	1.016385	0.039858	0.902312
	H370	H	1.026521	0.032946	0.905133
	H371	H	1.018783	0.042977	0.903674
	O372	O	-0.095866	0.000797	-0.087184
	H373	H	-0.094796	0.010295	-0.103026
	H374	H	-0.098171	0.001080	-0.103448
	O375	O	0.944801	0.064632	-0.058405
	H376	H	0.955124	0.059336	-0.040986
	H377	H	0.937436	0.052166	-0.050955
	O378	O	0.518830	0.494023	0.543194
	H379	H	0.516735	0.498623	0.544533
	H380	H	0.519709	0.496306	0.549291
	O381	O	0.517986	0.570924	0.409161
	H382	H	0.514017	0.570367	0.409589
	H383	H	0.517820	0.574699	0.413060
