data_Molecule from HDF5

_cell_length_a		16.575611
_cell_length_b		16.425011
_cell_length_c		16.462657
_cell_angle_alpha	89.912573
_cell_angle_beta	89.836295
_cell_angle_gamma	89.962190
_symmetry_space_group_name_H-M	'P 1'
_symmetry_Int_Tables_number		1

loop_
	_symmetry_equiv_pos_as_xyz
	x,y,z

loop_
	_atom_site_label
	_atom_site_type_symbol
	_atom_site_fract_x
	_atom_site_fract_y
	_atom_site_fract_z
	H0	H	0.399174	0.836612	0.713055
	H1	H	0.611111	0.152190	0.713511
	H2	H	0.607065	0.834962	0.272721
	H3	H	0.403223	0.154585	0.272398
	H4	H	0.729217	0.389111	0.834159
	H5	H	0.724026	0.598596	0.150307
	H6	H	0.281544	0.605512	0.835131
	H7	H	0.283609	0.387591	0.147969
	H8	H	0.848669	0.715026	0.387084
	H9	H	0.162718	0.716542	0.594702
	H10	H	0.847905	0.276282	0.594954
	H11	H	0.162883	0.274807	0.388444
	H12	H	0.848466	0.392212	0.712781
	H13	H	0.163125	0.601430	0.712028
	H14	H	0.850582	0.601273	0.268529
	H15	H	0.163205	0.391386	0.270836
	H16	H	0.400127	0.718397	0.833411
	H17	H	0.607662	0.714096	0.149892
	H18	H	0.611306	0.274120	0.833051
	H19	H	0.402603	0.274554	0.149045
	H20	H	0.725208	0.835888	0.387280
	H21	H	0.727356	0.152407	0.596769
	H22	H	0.281539	0.838038	0.598603
	H23	H	0.284695	0.153605	0.386784
	H24	H	0.905468	0.335862	0.209176
	H25	H	0.110391	0.654415	0.210234
	H26	H	0.110927	0.336373	0.770794
	H27	H	0.905113	0.655232	0.773359
	H28	H	0.225506	0.891658	0.332787
	H29	H	0.227620	0.102569	0.648059
	H30	H	0.786216	0.099224	0.331960
	H31	H	0.782302	0.888597	0.647644
	H32	H	0.349493	0.218189	0.884799
	H33	H	0.663917	0.213573	0.092431
	H34	H	0.346876	0.777192	0.092567
	H35	H	0.664033	0.777661	0.888845
	H36	H	0.345669	0.894390	0.207733
	H37	H	0.662316	0.098096	0.210850
	H38	H	0.348519	0.100239	0.769563
	H39	H	0.662947	0.892019	0.770205
	H40	H	0.903507	0.214609	0.331789
	H41	H	0.108036	0.214428	0.650239
	H42	H	0.107709	0.776836	0.332009
	H43	H	0.899460	0.773111	0.648803
	H44	H	0.229466	0.338003	0.884415
	H45	H	0.227640	0.653121	0.095250
	H46	H	0.786672	0.336352	0.094360
	H47	H	0.786038	0.653761	0.887172
	H48	H	0.412147	0.110341	0.583443
	H49	H	0.596924	0.882524	0.574902
	H50	H	0.596841	0.108735	0.402324
	H51	H	0.409072	0.878930	0.398589
	H52	H	0.593459	0.412279	0.100123
	H53	H	0.601248	0.585314	0.875942
	H54	H	0.424213	0.577482	0.098250
	H55	H	0.420900	0.412317	0.881670
	H56	H	0.117053	0.584655	0.405664
	H57	H	0.894133	0.582732	0.581860
	H58	H	0.117198	0.405989	0.579205
	H59	H	0.891846	0.411613	0.390305
	H60	H	0.118705	0.407092	0.583990
	H61	H	0.893032	0.584037	0.581658
	H62	H	0.118801	0.581782	0.397958
	H63	H	0.889353	0.393709	0.401293
	H64	H	0.418108	0.594522	0.106443
	H65	H	0.594692	0.580261	0.880521
	H66	H	0.591298	0.397386	0.105263
	H67	H	0.421512	0.403182	0.877579
	H68	H	0.596565	0.109088	0.398936
	H69	H	0.595585	0.880983	0.583950
	H70	H	0.424436	0.104899	0.580213
	H71	H	0.419079	0.881712	0.397307
	H72	H	0.916370	0.608859	0.081546
	H73	H	0.093520	0.381603	0.082012
	H74	H	0.096814	0.609040	0.901893
	H75	H	0.919144	0.380963	0.898473
	H76	H	0.094342	0.907767	0.603866
	H77	H	0.093236	0.078980	0.380879
	H78	H	0.914357	0.075437	0.601554
	H79	H	0.915547	0.903272	0.377366
	H80	H	0.617952	0.083761	0.901209
	H81	H	0.393539	0.083688	0.078438
	H82	H	0.619323	0.908768	0.088144
	H83	H	0.396370	0.913080	0.905026
	H84	H	0.621402	0.896890	0.085051
	H85	H	0.392889	0.083491	0.083892
	H86	H	0.616302	0.082775	0.902675
	H87	H	0.391043	0.905793	0.894510
	H88	H	0.922527	0.087026	0.601813
	H89	H	0.091111	0.088746	0.378841
	H90	H	0.093076	0.906726	0.603346
	H91	H	0.913478	0.905363	0.376885
	H92	H	0.091751	0.606938	0.901448
	H93	H	0.093001	0.383888	0.076030
	H94	H	0.912823	0.608885	0.079194
	H95	H	0.918906	0.384612	0.906871
	H96	H	0.414288	0.105710	0.570744
	H97	H	0.588569	0.884135	0.578487
	H98	H	0.594211	0.107091	0.400789
	H99	H	0.414187	0.883265	0.406907
	H100	H	0.604775	0.404471	0.107654
	H101	H	0.593266	0.589144	0.877837
	H102	H	0.406007	0.579256	0.105371
	H103	H	0.413127	0.408158	0.877466
	H104	H	0.120670	0.589501	0.400006
	H105	H	0.894752	0.583293	0.580216
	H106	H	0.119468	0.402640	0.581681
	H107	H	0.897921	0.410693	0.410622
	H108	H	0.913028	0.611013	0.083474
	H109	H	0.099090	0.381914	0.078305
	H110	H	0.095061	0.607185	0.906034
	H111	H	0.911700	0.380742	0.903218
	H112	H	0.094160	0.906328	0.604580
	H113	H	0.100034	0.084841	0.376455
	H114	H	0.909404	0.087782	0.606987
	H115	H	0.916018	0.906193	0.377728
	H116	H	0.616636	0.082033	0.900846
	H117	H	0.392173	0.087837	0.081279
	H118	H	0.616336	0.904857	0.076420
	H119	H	0.392122	0.899893	0.906679
	C120	C	0.383865	0.003193	0.611725
	C121	C	0.626108	0.986681	0.611708
	C122	C	0.626887	0.003132	0.369228
	C123	C	0.383350	0.986480	0.369409
	C124	C	0.628289	0.373168	-0.000173
	C125	C	0.627146	0.616231	0.982887
	C126	C	0.384182	0.616968	-0.000623
	C127	C	0.385847	0.374518	0.982781
	C128	C	0.014764	0.616979	0.369284
	C129	C	0.997724	0.616669	0.612723
	C130	C	0.014277	0.373690	0.613414
	C131	C	0.997304	0.373788	0.369539
	C132	C	0.884267	0.503908	0.112494
	C133	C	0.127078	0.486894	0.111008
	C134	C	0.127890	0.503574	0.870004
	C135	C	0.885230	0.486925	0.870764
	C136	C	0.125483	0.875255	0.499085
	C137	C	0.126643	0.116764	0.482855
	C138	C	0.884129	0.115754	0.498848
	C139	C	0.883371	0.873007	0.482006
	C140	C	0.513981	0.116480	0.868881
	C141	C	0.497120	0.116358	0.112358
	C142	C	0.513999	0.873342	0.113045
	C143	C	0.496823	0.873737	0.869587
	C144	C	0.381076	0.884103	0.672573
	C145	C	0.629233	0.105094	0.672908
	C146	C	0.626870	0.882856	0.311472
	C147	C	0.383386	0.106620	0.311311
	C148	C	0.688673	0.371066	0.881092
	C149	C	0.684935	0.617254	0.102479
	C150	C	0.322799	0.622024	0.881647
	C151	C	0.324632	0.370574	0.100948
	C152	C	0.896128	0.675897	0.368077
	C153	C	0.115618	0.676938	0.613855
	C154	C	0.895415	0.315295	0.614538
	C155	C	0.115975	0.314589	0.369025
	C156	C	0.895711	0.373100	0.672797
	C157	C	0.115773	0.619246	0.672027
	C158	C	0.897045	0.619166	0.309254
	C159	C	0.115964	0.372279	0.310519
	C160	C	0.381804	0.678280	0.880905
	C161	C	0.626918	0.674741	0.102339
	C162	C	0.629954	0.314030	0.880455
	C163	C	0.383768	0.314243	0.101623
	C164	C	0.685604	0.883472	0.368225
	C165	C	0.687232	0.104920	0.615185
	C166	C	0.322321	0.884932	0.615766
	C167	C	0.324674	0.106127	0.368301
	C168	C	0.885369	0.383709	0.170273
	C169	C	0.128820	0.606569	0.170398
	C170	C	0.129965	0.384359	0.810136
	C171	C	0.885513	0.607115	0.812244
	C172	C	0.185154	0.873435	0.379936
	C173	C	0.187026	0.119994	0.601114
	C174	C	0.825667	0.117704	0.379460
	C175	C	0.822811	0.870427	0.600730
	C176	C	0.396247	0.177445	0.866779
	C177	C	0.616175	0.174405	0.112198
	C178	C	0.394213	0.816312	0.111888
	C179	C	0.616184	0.816192	0.869241
	C180	C	0.393799	0.874268	0.169539
	C181	C	0.615534	0.117150	0.171057
	C182	C	0.395601	0.118942	0.809349
	C183	C	0.615580	0.872891	0.810048
	C184	C	0.883970	0.175115	0.379439
	C185	C	0.127631	0.175906	0.602107
	C186	C	0.126567	0.816547	0.379486
	C187	C	0.880985	0.812898	0.601108
	C188	C	0.189119	0.385163	0.866428
	C189	C	0.187390	0.605958	0.113511
	C190	C	0.826621	0.383803	0.113256
	C191	C	0.826602	0.606811	0.869119
	C192	C	0.409560	0.085531	0.585776
	C193	C	0.600761	0.903960	0.586366
	C194	C	0.602776	0.086430	0.393527
	C195	C	0.407133	0.903153	0.393806
	C196	C	0.603559	0.397686	0.082830
	C197	C	0.603494	0.591946	0.899566
	C198	C	0.409149	0.590987	0.081802
	C199	C	0.411253	0.400536	0.900442
	C200	C	0.097324	0.592467	0.394039
	C201	C	0.915223	0.590888	0.588200
	C202	C	0.096868	0.397991	0.588720
	C203	C	0.914534	0.398281	0.393745
	C204	C	0.907300	0.587725	0.088326
	C205	C	0.102210	0.404153	0.085944
	C206	C	0.102099	0.586166	0.895885
	C207	C	0.909487	0.403837	0.895733
	C208	C	0.100972	0.899864	0.582371
	C209	C	0.101912	0.091473	0.400085
	C210	C	0.908318	0.090664	0.581861
	C211	C	0.908004	0.897878	0.399012
	C212	C	0.595829	0.090371	0.894146
	C213	C	0.414396	0.092046	0.088226
	C214	C	0.597274	0.896770	0.089914
	C215	C	0.414554	0.898992	0.894607
	Zn216	Zn	0.504503	-0.005273	0.740380
	Zn217	Zn	0.504980	-0.005606	0.241564
	Zn218	Zn	0.756035	0.495752	-0.008593
	Zn219	Zn	0.256276	0.495113	-0.009259
	Zn220	Zn	0.005514	0.745669	0.490824
	Zn221	Zn	0.005167	0.244758	0.491246
	Zn222	Zn	0.006504	0.495331	0.742106
	Zn223	Zn	0.006865	0.495588	0.240354
	Zn224	Zn	0.505853	0.744869	-0.008941
	Zn225	Zn	0.506079	0.245250	-0.009224
	Zn226	Zn	0.755133	-0.005318	0.490480
	Zn227	Zn	0.254834	-0.004653	0.491341
	N228	N	0.418498	0.958671	0.670382
	N229	N	0.591818	0.030523	0.670933
	N230	N	0.590981	0.958224	0.311944
	N231	N	0.419174	0.031131	0.311991
	N232	N	0.687959	0.406714	0.956467
	N233	N	0.685172	0.581620	0.027084
	N234	N	0.324223	0.584482	0.956303
	N235	N	0.325870	0.407550	0.026121
	N236	N	0.970396	0.674554	0.404856
	N237	N	0.040953	0.675455	0.577960
	N238	N	0.970239	0.315519	0.578385
	N239	N	0.041105	0.315368	0.404973
	N240	N	0.970596	0.408331	0.672462
	N241	N	0.041330	0.582452	0.671480
	N242	N	0.971825	0.583403	0.309769
	N243	N	0.041239	0.408208	0.310748
	N244	N	0.419359	0.675289	0.955119
	N245	N	0.591658	0.674227	0.026950
	N246	N	0.593120	0.315086	0.955316
	N247	N	0.420888	0.316508	0.027153
	N248	N	0.685848	0.959319	0.403191
	N249	N	0.685485	0.030151	0.577941
	N250	N	0.323759	0.959888	0.578847
	N251	N	0.324450	0.030396	0.403662
	N252	N	0.920431	0.459396	0.169894
	N253	N	0.092203	0.531538	0.169163
	N254	N	0.092671	0.459084	0.812052
	N255	N	0.921482	0.531725	0.813470
	N256	N	0.184793	0.909132	0.455458
	N257	N	0.186777	0.084118	0.525838
	N258	N	0.825638	0.081650	0.454812
	N259	N	0.824280	0.907144	0.525664
	N260	N	0.470912	0.176104	0.902940
	N261	N	0.541434	0.174135	0.076653
	N262	N	0.470071	0.815199	0.077878
	N263	N	0.541305	0.816521	0.905337
	N264	N	0.469394	0.908642	0.170683
	N265	N	0.540360	0.082000	0.171440
	N266	N	0.469816	0.081863	0.810455
	N267	N	0.540296	0.907708	0.810052
	N268	N	0.919264	0.174456	0.454840
	N269	N	0.090811	0.173956	0.527533
	N270	N	0.090453	0.817474	0.454689
	N271	N	0.917931	0.814478	0.526402
	N272	N	0.188021	0.460492	0.902613
	N273	N	0.186375	0.530685	0.077277
	N274	N	0.825500	0.459864	0.078547
	N275	N	0.826359	0.531131	0.904921
	O276	O	0.544868	0.493925	0.378297
	H277	H	0.550813	0.490630	0.381430
	H278	H	0.553118	0.504340	0.371718
	O279	O	0.721164	0.519824	0.478873
	H280	H	0.729864	0.502422	0.482633
	H281	H	0.711288	0.498617	0.470046
	O282	O	1.144435	0.828674	0.105024
	H283	H	1.144270	0.848663	0.114947
	H284	H	1.142666	0.833227	0.101842
	O285	O	0.710924	0.526013	0.699809
	H286	H	0.709581	0.547383	0.702207
	H287	H	0.720035	0.530717	0.702323
	O288	O	-0.155705	-0.027191	0.005043
	H289	H	-0.159735	-0.026984	-0.000280
	H290	H	-0.159335	-0.036418	-0.011478
	O291	O	0.809786	1.179044	0.124831
	H292	H	0.826819	1.161921	0.109221
	H293	H	0.819084	1.173682	0.117462
	O294	O	-0.006255	0.944188	0.071275
	H295	H	-0.009370	0.955517	0.064595
	H296	H	-0.007586	0.925618	0.075293
	O297	O	0.639367	0.622315	0.290135
	H298	H	0.618040	0.604829	0.299918
	H299	H	0.628019	0.616805	0.297135
	O300	O	0.307031	0.297582	0.686868
	H301	H	0.297757	0.315120	0.665457
	H302	H	0.320612	0.321470	0.684450
	O303	O	0.477879	0.278217	0.711354
	H304	H	0.452253	0.283305	0.709857
	H305	H	0.479689	0.249938	0.728286
	O306	O	0.211502	1.005403	0.828544
	H307	H	0.213361	0.999559	0.832251
	H308	H	0.224568	0.995204	0.810859
	O309	O	1.037880	1.013310	1.178864
	H310	H	1.042525	1.023342	1.176625
	H311	H	1.034125	1.013800	1.182921
	O312	O	0.528211	0.705624	0.439515
	H313	H	0.530872	0.697990	0.439295
	H314	H	0.533880	0.709254	0.425334
	O315	O	0.105789	-0.012830	1.023930
	H316	H	0.104345	-0.008940	1.003366
	H317	H	0.107324	-0.004045	1.030374
	O318	O	-0.485502	0.367800	0.593227
	H319	H	-0.472766	0.363432	0.607548
	H320	H	-0.484717	0.360015	0.571248
	O321	O	0.698863	0.692862	0.691351
	H322	H	0.726208	0.717484	0.695325
	H323	H	0.701623	0.682835	0.657121
	O324	O	0.962885	0.193529	0.945576
	H325	H	0.972512	0.195471	0.932637
	H326	H	0.949090	0.195266	0.931469
	O327	O	1.308943	0.688085	0.360609
	H328	H	1.297248	0.690261	0.385790
	H329	H	1.318735	0.674343	0.355048
	O330	O	1.137275	0.182307	-0.126622
	H331	H	1.156592	0.189754	-0.133573
	H332	H	1.139534	0.173909	-0.120219
	O333	O	0.957011	0.910277	0.845937
	H334	H	0.967134	0.912111	0.841880
	H335	H	0.963344	0.911292	0.837577
	O336	O	0.802690	0.081947	0.785614
	H337	H	0.800045	0.081213	0.766656
	H338	H	0.805683	0.089914	0.786520
	O339	O	0.335853	0.282705	0.490604
	H340	H	0.332033	0.273012	0.496560
	H341	H	0.340535	0.286600	0.501668
	O342	O	0.727594	0.461854	0.273301
	H343	H	0.743409	0.441684	0.253889
	H344	H	0.728209	0.458601	0.261288
	O345	O	-0.288764	0.291783	0.420694
	H346	H	-0.293913	0.295193	0.406887
	H347	H	-0.276638	0.290819	0.408644
	O348	O	1.054327	0.201954	1.164942
	H349	H	1.037837	0.194858	1.167687
	H350	H	1.047180	0.218674	1.173560
	O351	O	0.862540	0.994689	-0.072064
	H352	H	0.881593	0.975767	-0.062037
	H353	H	0.864258	0.999099	-0.067623
	O354	O	0.359221	0.446169	0.361947
	H355	H	0.359679	0.454073	0.373492
	H356	H	0.365079	0.446041	0.364822
	O357	O	1.191847	0.917195	0.877245
	H358	H	1.196870	0.913493	0.872521
	H359	H	1.184049	0.908736	0.883444
	O360	O	0.472505	0.586234	0.321964
	H361	H	0.448188	0.587185	0.317474
	H362	H	0.474668	0.599563	0.319073
	O363	O	0.088660	0.772676	0.204268
	H364	H	0.083670	0.777094	0.205984
	H365	H	0.066988	0.770882	0.206179
	O366	O	1.010931	-0.035066	1.066209
	H367	H	1.012461	-0.051730	1.066734
	H368	H	1.008742	-0.034809	1.072724
	O369	O	0.308740	0.356396	0.351216
	H370	H	0.309637	0.370349	0.363059
	H371	H	0.320221	0.373160	0.375955
	O372	O	0.519747	0.583315	0.697210
	H373	H	0.537019	0.588797	0.702043
	H374	H	0.540405	0.576669	0.702535
	O375	O	0.334398	0.660799	0.716887
	H376	H	0.355595	0.664216	0.730991
	H377	H	0.324140	0.660475	0.719246
	O378	O	0.290341	0.469822	0.703428
	H379	H	0.285190	0.476714	0.713684
	H380	H	0.302357	0.488106	0.721818
	O381	O	0.860565	-0.144346	-0.201802
	H382	H	0.855110	-0.127094	-0.184711
	H383	H	0.882503	-0.121434	-0.193170
	O384	O	0.002423	-0.199144	0.819642
	H385	H	0.000024	-0.190818	0.817739
	H386	H	-0.010277	-0.206833	0.813449
	O387	O	0.166125	0.841583	0.858711
	H388	H	0.165369	0.846989	0.864616
	H389	H	0.155629	0.829675	0.870995
	O390	O	-0.140449	0.202183	0.929086
	H391	H	-0.141793	0.200527	0.903051
	H392	H	-0.137903	0.203013	0.922841
	O393	O	0.886073	1.021913	-0.114789
	H394	H	0.880590	1.020918	-0.111700
	H395	H	0.910084	1.028126	-0.124638
	O396	O	0.466578	0.635392	0.488421
	H397	H	0.471794	0.632694	0.497077
	H398	H	0.468426	0.655218	0.488500
	O399	O	0.346973	0.678760	0.383045
	H400	H	0.331839	0.692256	0.373934
	H401	H	0.341533	0.682812	0.390654
	O402	O	0.087848	-0.097093	1.065576
	H403	H	0.083399	-0.088197	1.083112
	H404	H	0.093269	-0.095311	1.074160
	O405	O	-0.091415	0.148130	-0.176970
	H406	H	-0.097127	0.169866	-0.180930
	H407	H	-0.101125	0.159484	-0.193509
	O408	O	0.599618	0.568638	0.389917
	H409	H	0.588319	0.558408	0.382055
	H410	H	0.604206	0.556605	0.384581
	O411	O	0.515937	0.282425	0.319890
	H412	H	0.511233	0.283237	0.314682
	H413	H	0.509436	0.275310	0.330791
	O414	O	0.398402	0.534491	0.519143
	H415	H	0.404678	0.541022	0.516610
	H416	H	0.397120	0.538348	0.528653
	O417	O	0.303397	0.549184	0.287374
	H418	H	0.296676	0.552689	0.289684
	H419	H	0.302484	0.543172	0.293125
	O420	O	0.370472	0.420824	0.549878
	H421	H	0.387058	0.420188	0.549386
	H422	H	0.372157	0.430856	0.547009
	O423	O	-0.112037	0.900332	0.129685
	H424	H	-0.111157	0.902882	0.117972
	H425	H	-0.113250	0.890819	0.144165
	O426	O	1.204911	1.170925	1.017198
	H427	H	1.222726	1.180430	1.030828
	H428	H	1.208976	1.183203	1.037686
	O429	O	0.098643	0.109247	0.882015
	H430	H	0.110681	0.116761	0.869151
	H431	H	0.117552	0.115120	0.869749
	O432	O	0.469515	0.579861	0.574287
	H433	H	0.468881	0.595419	0.578573
	H434	H	0.465224	0.583989	0.593728
	O435	O	0.178863	0.157544	0.135416
	H436	H	0.145628	0.152585	0.142055
	H437	H	0.199054	0.179680	0.161690
	O438	O	1.156625	0.026167	0.191423
	H439	H	1.149489	0.042564	0.187170
	H440	H	1.162761	0.030869	0.202086
	O441	O	0.699454	0.686046	0.504882
	H442	H	0.694190	0.677327	0.483023
	H443	H	0.706562	0.681200	0.492481
	O444	O	-0.167230	0.861247	1.080094
	H445	H	-0.174285	0.849562	1.102344
	H446	H	-0.174917	0.872849	1.084459
	O447	O	0.507699	0.667901	0.613942
	H448	H	0.521497	0.681397	0.616644
	H449	H	0.519000	0.678557	0.619050
	O450	O	0.676227	0.340847	0.674538
	H451	H	0.658539	0.338629	0.656989
	H452	H	0.681205	0.362023	0.681869
	O453	O	0.493902	0.375148	0.598376
	H454	H	0.496130	0.371621	0.621319
	H455	H	0.511326	0.384293	0.593145
	O456	O	0.665604	0.288931	0.284075
	H457	H	0.636918	0.287202	0.300078
	H458	H	0.684775	0.264552	0.255620
	O459	O	0.698291	0.376468	0.513813
	H460	H	0.682950	0.387531	0.507213
	H461	H	0.716605	0.356696	0.512047
	O462	O	-0.105922	0.801930	0.988882
	H463	H	-0.113998	0.786920	0.989213
	H464	H	-0.101068	0.809256	1.009160
	O465	O	0.885766	-0.073863	0.186626
	H466	H	0.881938	-0.081732	0.204316
	H467	H	0.892569	-0.074089	0.172549
