data_Molecule from HDF5

_cell_length_a		16.273655
_cell_length_b		16.223504
_cell_length_c		16.115759
_cell_angle_alpha	90.334929
_cell_angle_beta	90.304579
_cell_angle_gamma	90.917218
_symmetry_space_group_name_H-M	'P 1'
_symmetry_Int_Tables_number		1

loop_
	_symmetry_equiv_pos_as_xyz
	x,y,z

loop_
	_atom_site_label
	_atom_site_type_symbol
	_atom_site_fract_x
	_atom_site_fract_y
	_atom_site_fract_z
	H0	H	0.391246	0.840243	0.706228
	H1	H	0.593228	0.168886	0.708061
	H2	H	0.584321	0.839938	0.279800
	H3	H	0.395587	0.169037	0.280387
	H4	H	0.705747	0.407143	0.826864
	H5	H	0.713603	0.608118	0.157024
	H6	H	0.281906	0.602013	0.827576
	H7	H	0.277100	0.402929	0.157099
	H8	H	0.829045	0.714776	0.389453
	H9	H	0.155677	0.723845	0.593499
	H10	H	0.830978	0.285121	0.591523
	H11	H	0.157519	0.289669	0.392528
	H12	H	0.830092	0.402557	0.703674
	H13	H	0.157874	0.606402	0.707471
	H14	H	0.829852	0.597302	0.276085
	H15	H	0.158444	0.407120	0.278896
	H16	H	0.399424	0.714991	0.827095
	H17	H	0.597883	0.721756	0.157985
	H18	H	0.590803	0.290040	0.828079
	H19	H	0.394696	0.290686	0.158597
	H20	H	0.703077	0.839555	0.391530
	H21	H	0.712934	0.167267	0.595006
	H22	H	0.273017	0.841544	0.593767
	H23	H	0.279014	0.168542	0.394158
	H24	H	0.895324	0.338585	0.201227
	H25	H	0.098193	0.667114	0.209840
	H26	H	0.086181	0.338280	0.778972
	H27	H	0.898251	0.668109	0.777418
	H28	H	0.204497	0.906258	0.327356
	H29	H	0.209593	0.107066	0.657836
	H30	H	0.779408	0.099486	0.328976
	H31	H	0.776846	0.902111	0.657818
	H32	H	0.330311	0.216638	0.893254
	H33	H	0.656353	0.223127	0.095161
	H34	H	0.331810	0.783699	0.093677
	H35	H	0.659309	0.793962	0.895558
	H36	H	0.328057	0.904754	0.203736
	H37	H	0.656192	0.106474	0.209680
	H38	H	0.328718	0.099082	0.780179
	H39	H	0.657584	0.907639	0.778268
	H40	H	0.895819	0.213317	0.327691
	H41	H	0.094767	0.220677	0.657567
	H42	H	0.087527	0.792276	0.327036
	H43	H	0.891670	0.786840	0.657408
	H44	H	0.206395	0.339746	0.889615
	H45	H	0.212922	0.668011	0.093116
	H46	H	0.774683	0.342261	0.091128
	H47	H	0.782828	0.669436	0.892052
	H48	H	0.404201	0.120974	0.583946
	H49	H	0.579382	0.890872	0.575903
	H50	H	0.590368	0.125195	0.393781
	H51	H	0.401211	0.891587	0.409284
	H52	H	0.584568	0.417984	0.109538
	H53	H	0.586380	0.601348	0.875257
	H54	H	0.404588	0.584369	0.106790
	H55	H	0.406245	0.416334	0.877680
	H56	H	0.108853	0.594449	0.401878
	H57	H	0.873871	0.599780	0.587582
	H58	H	0.109789	0.415359	0.586076
	H59	H	0.874384	0.404617	0.391262
	H60	H	0.111876	0.411115	0.586569
	H61	H	0.878549	0.594912	0.578282
	H62	H	0.112729	0.601604	0.396924
	H63	H	0.877924	0.402588	0.402306
	H64	H	0.412924	0.601850	0.110652
	H65	H	0.591579	0.600584	0.872889
	H66	H	0.585926	0.411382	0.111694
	H67	H	0.403263	0.400423	0.872732
	H68	H	0.579840	0.119203	0.406039
	H69	H	0.595247	0.883168	0.587057
	H70	H	0.398533	0.123762	0.586021
	H71	H	0.384426	0.883842	0.400625
	H72	H	0.896969	0.624718	0.086214
	H73	H	0.084910	0.386928	0.083852
	H74	H	0.087885	0.618353	0.907282
	H75	H	0.902505	0.390842	0.904854
	H76	H	0.086807	0.910149	0.612539
	H77	H	0.094934	0.105702	0.369169
	H78	H	0.906066	0.093286	0.610578
	H79	H	0.899163	0.918239	0.378033
	H80	H	0.609251	0.098480	0.906538
	H81	H	0.373508	0.106762	0.083473
	H82	H	0.612631	0.902855	0.083007
	H83	H	0.379191	0.913796	0.899279
	H84	H	0.605009	0.924195	0.081385
	H85	H	0.378118	0.090975	0.080487
	H86	H	0.609769	0.096606	0.899950
	H87	H	0.374437	0.902633	0.895441
	H88	H	0.902857	0.099072	0.613102
	H89	H	0.091274	0.084937	0.377072
	H90	H	0.086280	0.919189	0.610281
	H91	H	0.903373	0.901389	0.374087
	H92	H	0.099010	0.623675	0.899351
	H93	H	0.087204	0.386421	0.082997
	H94	H	0.911369	0.621855	0.090872
	H95	H	0.888511	0.384702	0.899986
	H96	H	0.403110	0.122520	0.591352
	H97	H	0.576862	0.885844	0.596283
	H98	H	0.595823	0.121757	0.409190
	H99	H	0.401078	0.885835	0.388590
	H100	H	0.590367	0.416106	0.111455
	H101	H	0.588705	0.595394	0.876199
	H102	H	0.394201	0.598789	0.115286
	H103	H	0.390446	0.411221	0.872251
	H104	H	0.110101	0.603821	0.405110
	H105	H	0.877001	0.588948	0.587278
	H106	H	0.110708	0.412191	0.582074
	H107	H	0.878564	0.413374	0.397238
	H108	H	0.906888	0.618433	0.077383
	H109	H	0.087954	0.385567	0.085858
	H110	H	0.085515	0.622496	0.893064
	H111	H	0.901462	0.385631	0.890175
	H112	H	0.078470	0.912914	0.609319
	H113	H	0.074082	0.099688	0.377809
	H114	H	0.898930	0.093786	0.612417
	H115	H	0.886579	0.906661	0.371318
	H116	H	0.612096	0.102912	0.901085
	H117	H	0.373159	0.095521	0.096736
	H118	H	0.614565	0.916001	0.100745
	H119	H	0.377980	0.904350	0.907935
	C120	C	0.371225	0.013665	0.615122
	C121	C	0.614752	0.994997	0.616224
	C122	C	0.614034	0.013028	0.372669
	C123	C	0.369436	0.996045	0.371611
	C124	C	0.614799	0.385441	0.001650
	C125	C	0.618303	0.628182	0.983903
	C126	C	0.375236	0.623995	0.001445
	C127	C	0.371240	0.381150	0.983589
	C128	C	0.001984	0.625607	0.370725
	C129	C	0.984642	0.625872	0.614382
	C130	C	0.002658	0.382444	0.613371
	C131	C	0.985565	0.380185	0.369602
	C132	C	0.873993	0.513282	0.113060
	C133	C	0.117425	0.494867	0.114340
	C134	C	0.116266	0.512663	0.870071
	C135	C	0.871311	0.495841	0.869849
	C136	C	0.112030	0.885006	0.501551
	C137	C	0.116180	0.126950	0.483820
	C138	C	0.873478	0.122812	0.502492
	C139	C	0.868482	0.879700	0.483722
	C140	C	0.501980	0.125727	0.873092
	C141	C	0.483782	0.127566	0.116444
	C142	C	0.502464	0.883107	0.115654
	C143	C	0.485419	0.881144	0.871537
	C144	C	0.371332	0.889629	0.669123
	C145	C	0.614096	0.119283	0.671342
	C146	C	0.607411	0.889144	0.316620
	C147	C	0.373985	0.119877	0.317427
	C148	C	0.668407	0.386950	0.876443
	C149	C	0.675377	0.627804	0.107797
	C150	C	0.319830	0.621981	0.876962
	C151	C	0.315487	0.383445	0.108004
	C152	C	0.878416	0.677555	0.370931
	C153	C	0.107246	0.684484	0.613367
	C154	C	0.879806	0.324425	0.611356
	C155	C	0.108851	0.327092	0.372480
	C156	C	0.879469	0.382852	0.667293
	C157	C	0.108244	0.625830	0.669919
	C158	C	0.878979	0.619543	0.313757
	C159	C	0.109263	0.385504	0.315870
	C160	C	0.378290	0.678206	0.876762
	C161	C	0.617816	0.684308	0.108467
	C162	C	0.611458	0.328907	0.877120
	C163	C	0.373752	0.327395	0.108819
	C164	C	0.666073	0.889058	0.372794
	C165	C	0.673377	0.118407	0.615051
	C166	C	0.312277	0.890428	0.613498
	C167	C	0.316246	0.119709	0.374105
	C168	C	0.874865	0.388600	0.165322
	C169	C	0.117397	0.618198	0.171177
	C170	C	0.109199	0.388045	0.815445
	C171	C	0.876503	0.619321	0.814921
	C172	C	0.166869	0.886372	0.376844
	C173	C	0.172166	0.126615	0.608163
	C174	C	0.817669	0.119780	0.378041
	C175	C	0.814315	0.881795	0.608409
	C176	C	0.378982	0.179202	0.873915
	C177	C	0.607323	0.184323	0.115073
	C178	C	0.379838	0.824051	0.113100
	C179	C	0.609844	0.830069	0.874421
	C180	C	0.378015	0.884229	0.167857
	C181	C	0.607043	0.126430	0.172228
	C182	C	0.378243	0.120613	0.817533
	C183	C	0.608849	0.886576	0.816266
	C184	C	0.875307	0.176604	0.377636
	C185	C	0.114637	0.182897	0.608256
	C186	C	0.108475	0.829948	0.376590
	C187	C	0.871348	0.824569	0.608145
	C188	C	0.168855	0.388788	0.870668
	C189	C	0.174488	0.618644	0.113024
	C190	C	0.814916	0.390472	0.110700
	C191	C	0.819125	0.619789	0.871960
	C192	C	0.395033	0.099952	0.593495
	C193	C	0.590811	0.909054	0.593222
	C194	C	0.594474	0.099620	0.396229
	C195	C	0.389575	0.909456	0.393079
	C196	C	0.593215	0.408348	0.088337
	C197	C	0.595409	0.605686	0.897346
	C198	C	0.397474	0.601836	0.088618
	C199	C	0.393538	0.402771	0.896750
	C200	C	0.088456	0.605829	0.394479
	C201	C	0.898510	0.601720	0.591133
	C202	C	0.088541	0.405964	0.591261
	C203	C	0.899337	0.400411	0.390887
	C204	C	0.898217	0.599506	0.091178
	C205	C	0.093673	0.408500	0.091055
	C206	C	0.096748	0.599183	0.893059
	C207	C	0.891563	0.409372	0.891846
	C208	C	0.090353	0.907680	0.588382
	C209	C	0.093336	0.103669	0.397247
	C210	C	0.896151	0.101575	0.589523
	C211	C	0.889997	0.901858	0.396925
	C212	C	0.588219	0.105340	0.895928
	C213	C	0.397223	0.104366	0.093588
	C214	C	0.588466	0.907250	0.094443
	C215	C	0.399409	0.900913	0.894096
	Zn216	Zn	0.492174	0.003750	0.744122
	Zn217	Zn	0.491877	0.004855	0.244169
	Zn218	Zn	0.744437	0.506093	-0.007902
	Zn219	Zn	0.245365	0.503600	-0.008293
	Zn220	Zn	-0.007895	0.754650	0.492420
	Zn221	Zn	-0.005918	0.252807	0.492545
	Zn222	Zn	-0.006143	0.503906	0.742190
	Zn223	Zn	-0.005344	0.503110	0.241977
	Zn224	Zn	0.495565	0.753718	-0.006738
	Zn225	Zn	0.493556	0.255411	-0.005783
	Zn226	Zn	0.743247	0.002542	0.493844
	Zn227	Zn	0.242121	0.005068	0.493202
	N228	N	0.407221	0.967165	0.670280
	N229	N	0.578662	0.041694	0.672433
	N230	N	0.575723	0.967323	0.316348
	N231	N	0.406383	0.042099	0.315840
	N232	N	0.670720	0.421388	0.954687
	N233	N	0.676027	0.593870	0.029368
	N234	N	0.317849	0.589075	0.955576
	N235	N	0.313663	0.416057	0.029183
	N236	N	0.956022	0.681546	0.405322
	N237	N	0.029304	0.684641	0.579526
	N238	N	0.957552	0.323917	0.578530
	N239	N	0.030895	0.323579	0.405015
	N240	N	0.956786	0.418499	0.668605
	N241	N	0.030842	0.590162	0.670594
	N242	N	0.956908	0.587604	0.313728
	N243	N	0.031557	0.417728	0.313888
	N244	N	0.412096	0.679281	0.955307
	N245	N	0.582943	0.684722	0.030517
	N246	N	0.579081	0.327573	0.955984
	N247	N	0.407596	0.325887	0.030666
	N248	N	0.670397	0.967168	0.406817
	N249	N	0.674115	0.040060	0.581558
	N250	N	0.312126	0.968488	0.580478
	N251	N	0.313450	0.041615	0.407202
	N252	N	0.910891	0.465957	0.167036
	N253	N	0.082584	0.540198	0.172143
	N254	N	0.077196	0.466179	0.814887
	N255	N	0.908300	0.541303	0.813439
	N256	N	0.169160	0.919897	0.455550
	N257	N	0.173261	0.092675	0.529753
	N258	N	0.816386	0.087090	0.456764
	N259	N	0.812226	0.915087	0.529978
	N260	N	0.456826	0.182340	0.907975
	N261	N	0.529460	0.185317	0.081364
	N262	N	0.458275	0.823046	0.081427
	N263	N	0.532396	0.826619	0.908148
	N264	N	0.455110	0.920523	0.169563
	N265	N	0.529113	0.092007	0.173350
	N266	N	0.455862	0.087965	0.816991
	N267	N	0.530547	0.917501	0.814299
	N268	N	0.909315	0.178724	0.455982
	N269	N	0.080575	0.183464	0.529839
	N270	N	0.075246	0.828907	0.455115
	N271	N	0.904151	0.822929	0.529514
	N272	N	0.173135	0.467060	0.904014
	N273	N	0.174540	0.540831	0.078259
	N274	N	0.814303	0.469040	0.078951
	N275	N	0.815805	0.541805	0.905311
	O276	O	-0.033665	0.062067	-0.014837
	H277	H	-0.036270	0.063997	-0.020698
	H278	H	-0.037672	0.064259	-0.012184
	O279	O	0.435150	0.515060	0.595122
	H280	H	0.428885	0.517812	0.601438
	H281	H	0.423114	0.501798	0.586493
	O282	O	0.475406	0.499694	0.342023
	H283	H	0.473852	0.504806	0.342658
	H284	H	0.470061	0.492454	0.341820
	O285	O	-0.001662	0.967594	1.027644
	H286	H	0.009654	0.963385	1.011846
	H287	H	-0.008209	0.963302	1.038774
	O288	O	0.407733	0.447584	0.518529
	H289	H	0.403799	0.461582	0.523963
	H290	H	0.412725	0.431696	0.515970
	O291	O	0.945091	1.010182	0.985993
	H292	H	0.949941	1.009210	0.974603
	H293	H	0.943313	1.011389	0.984182
	O294	O	0.986642	0.917481	1.034992
	H295	H	0.978201	0.910421	1.035402
	H296	H	0.982591	0.922782	1.041758
	O297	O	1.063743	0.012698	1.008707
	H298	H	1.070045	0.014331	1.010645
	H299	H	1.055963	0.011960	1.015331
	O300	O	0.480344	0.552189	0.499785
	H301	H	0.494660	0.554746	0.495453
	H302	H	0.487578	0.556633	0.496536
	O303	O	0.986094	0.023914	-0.015570
	H304	H	0.979651	0.022154	-0.025542
	H305	H	0.999469	0.007658	-0.013081
	O306	O	0.016743	0.979158	0.970223
	H307	H	0.025240	0.986348	0.972349
	H308	H	0.015428	0.974716	0.964795
	O309	O	0.560674	0.654052	0.507114
	H310	H	0.575506	0.659986	0.504635
	H311	H	0.550017	0.654196	0.515361
	O312	O	1.051206	-0.000944	1.019881
	H313	H	1.052226	-0.004404	1.023167
	H314	H	1.055486	0.007721	1.020875
	O315	O	0.642897	0.661572	0.592047
	H316	H	0.643877	0.647182	0.590975
	H317	H	0.638194	0.671425	0.596083
	O318	O	0.505984	0.485288	0.455665
	H319	H	0.495995	0.483105	0.451891
	H320	H	0.511939	0.507657	0.463918
	O321	O	0.977974	0.995656	0.997535
	H322	H	0.977588	0.988864	0.997959
	H323	H	0.977072	0.994055	1.001106
	O324	O	0.530785	0.406232	0.491937
	H325	H	0.522969	0.400545	0.490098
	H326	H	0.540255	0.410787	0.503646
	O327	O	0.576848	0.538941	0.510640
	H328	H	0.565534	0.529003	0.518590
	H329	H	0.584430	0.536580	0.516064
	O330	O	1.003873	-0.013567	1.037256
	H331	H	1.002864	-0.018073	1.024779
	H332	H	1.006930	-0.021531	1.048382
	O333	O	1.002474	1.007153	0.062028
	H334	H	1.006312	1.008938	0.067694
	H335	H	0.994285	1.007890	0.056051
	O336	O	0.509665	0.428639	0.388469
	H337	H	0.499581	0.435196	0.389009
	H338	H	0.520080	0.419037	0.372751
	O339	O	0.510293	0.544997	0.635969
	H340	H	0.511260	0.550043	0.632823
	H341	H	0.525411	0.553015	0.630423
	O342	O	0.394621	0.632798	0.449632
	H343	H	0.398227	0.632874	0.451683
	H344	H	0.400487	0.629512	0.427842
	O345	O	0.003319	-0.040135	-0.099542
	H346	H	0.004435	-0.025202	-0.096681
	H347	H	0.004865	-0.040044	-0.089692
	O348	O	0.399948	0.398334	0.452784
	H349	H	0.386248	0.395979	0.457499
	H350	H	0.402923	0.389742	0.450148
	O351	O	0.624260	0.520465	0.544354
	H352	H	0.628266	0.532013	0.550686
	H353	H	0.613706	0.526324	0.543572
	O354	O	0.470814	0.644803	0.518561
	H355	H	0.475695	0.637776	0.523228
	H356	H	0.480251	0.644862	0.507883
	O357	O	0.585152	0.442418	0.396586
	H358	H	0.585712	0.427867	0.396145
	H359	H	0.595336	0.442565	0.398005
	O360	O	0.009708	-0.006697	-0.039841
	H361	H	0.026262	-0.006864	-0.046591
	H362	H	0.010710	-0.006798	-0.035759
	O363	O	0.341385	0.489006	0.562425
	H364	H	0.338685	0.480197	0.564217
	H365	H	0.355202	0.491016	0.554184
	O366	O	0.000644	0.031927	1.012640
	H367	H	-0.004502	0.026112	1.006471
	H368	H	-0.008470	0.036820	1.014198
	O369	O	0.482020	0.400137	0.502718
	H370	H	0.476277	0.397799	0.507460
	H371	H	0.475805	0.411305	0.511757
