data_Molecule from HDF5

_cell_length_a		16.112053
_cell_length_b		16.148622
_cell_length_c		16.413763
_cell_angle_alpha	89.977558
_cell_angle_beta	89.949916
_cell_angle_gamma	89.184634
_symmetry_space_group_name_H-M	'P 1'
_symmetry_Int_Tables_number		1

loop_
	_symmetry_equiv_pos_as_xyz
	x,y,z

loop_
	_atom_site_label
	_atom_site_type_symbol
	_atom_site_fract_x
	_atom_site_fract_y
	_atom_site_fract_z
	H0	H	0.392582	0.844538	0.708814
	H1	H	0.594916	0.169630	0.708391
	H2	H	0.599038	0.843416	0.273830
	H3	H	0.388372	0.171554	0.273131
	H4	H	0.709869	0.404892	0.829392
	H5	H	0.704566	0.603183	0.154739
	H6	H	0.272835	0.610632	0.829714
	H7	H	0.279421	0.411562	0.154634
	H8	H	0.829330	0.725490	0.393441
	H9	H	0.159463	0.713753	0.587596
	H10	H	0.827280	0.297591	0.588746
	H11	H	0.158928	0.293027	0.394692
	H12	H	0.827141	0.411504	0.704900
	H13	H	0.153696	0.611477	0.711499
	H14	H	0.827414	0.610792	0.277232
	H15	H	0.155821	0.401988	0.273554
	H16	H	0.388115	0.725651	0.829630
	H17	H	0.588696	0.720104	0.154032
	H18	H	0.592284	0.291663	0.828198
	H19	H	0.395021	0.292479	0.153091
	H20	H	0.710369	0.842810	0.393609
	H21	H	0.701883	0.173729	0.586143
	H22	H	0.285765	0.841040	0.588443
	H23	H	0.278595	0.172365	0.394985
	H24	H	0.891124	0.343326	0.208400
	H25	H	0.089397	0.670740	0.206889
	H26	H	0.095861	0.344896	0.774504
	H27	H	0.883993	0.671895	0.774705
	H28	H	0.212061	0.905868	0.329238
	H29	H	0.205842	0.101427	0.655749
	H30	H	0.777198	0.109219	0.328873
	H31	H	0.780912	0.910400	0.654324
	H32	H	0.327918	0.222255	0.893040
	H33	H	0.659440	0.215651	0.085168
	H34	H	0.326270	0.799572	0.087576
	H35	H	0.656615	0.789493	0.892387
	H36	H	0.329914	0.909715	0.207078
	H37	H	0.657345	0.107522	0.204583
	H38	H	0.329824	0.111541	0.773651
	H39	H	0.657170	0.904110	0.775548
	H40	H	0.894481	0.224487	0.329068
	H41	H	0.091530	0.221855	0.654759
	H42	H	0.097098	0.788235	0.330193
	H43	H	0.897577	0.794310	0.654755
	H44	H	0.206238	0.343115	0.895150
	H45	H	0.200239	0.673485	0.088176
	H46	H	0.784363	0.340568	0.086324
	H47	H	0.774392	0.671344	0.895798
	H48	H	0.402144	0.127199	0.593596
	H49	H	0.589846	0.886283	0.592081
	H50	H	0.587498	0.129991	0.385467
	H51	H	0.404282	0.889534	0.395538
	H52	H	0.586862	0.417724	0.105732
	H53	H	0.584747	0.599765	0.875253
	H54	H	0.394508	0.610788	0.109856
	H55	H	0.394397	0.415678	0.873838
	H56	H	0.109054	0.592494	0.398759
	H57	H	0.875005	0.601456	0.579433
	H58	H	0.108546	0.418347	0.583478
	H59	H	0.878737	0.415263	0.413622
	H60	H	0.111695	0.415201	0.587022
	H61	H	0.873273	0.599095	0.587708
	H62	H	0.111931	0.594496	0.392805
	H63	H	0.876591	0.431583	0.391269
	H64	H	0.389801	0.596778	0.107195
	H65	H	0.584028	0.596016	0.876650
	H66	H	0.580615	0.407623	0.106687
	H67	H	0.401284	0.419190	0.876618
	H68	H	0.572360	0.121519	0.396547
	H69	H	0.577998	0.892663	0.582022
	H70	H	0.409474	0.120302	0.577065
	H71	H	0.408851	0.890685	0.395783
	H72	H	0.901815	0.623066	0.082919
	H73	H	0.094491	0.386907	0.084531
	H74	H	0.071825	0.624336	0.894202
	H75	H	0.902807	0.389604	0.895810
	H76	H	0.098167	0.910746	0.609412
	H77	H	0.084672	0.083976	0.380896
	H78	H	0.898069	0.100184	0.607203
	H79	H	0.893339	0.909811	0.371342
	H80	H	0.611496	0.093187	0.892194
	H81	H	0.378058	0.097433	0.076803
	H82	H	0.611520	0.910172	0.081901
	H83	H	0.377606	0.922027	0.904025
	H84	H	0.610830	0.913694	0.081210
	H85	H	0.374386	0.095894	0.090354
	H86	H	0.614581	0.103111	0.894619
	H87	H	0.373689	0.923187	0.892195
	H88	H	0.900948	0.104934	0.607516
	H89	H	0.073662	0.111744	0.376983
	H90	H	0.086038	0.917694	0.604457
	H91	H	0.901944	0.927920	0.379992
	H92	H	0.081088	0.623805	0.907172
	H93	H	0.079355	0.389000	0.092082
	H94	H	0.893787	0.625293	0.083195
	H95	H	0.902370	0.388841	0.896391
	H96	H	0.390744	0.126511	0.577985
	H97	H	0.593667	0.889131	0.576371
	H98	H	0.590884	0.125043	0.405049
	H99	H	0.406354	0.891322	0.399417
	H100	H	0.592485	0.407824	0.110162
	H101	H	0.580433	0.598812	0.876842
	H102	H	0.404799	0.600903	0.104715
	H103	H	0.401051	0.410709	0.874420
	H104	H	0.111298	0.599160	0.397498
	H105	H	0.872117	0.607560	0.585850
	H106	H	0.110778	0.412938	0.582654
	H107	H	0.868535	0.404537	0.390451
	H108	H	0.897879	0.625656	0.089358
	H109	H	0.080493	0.392977	0.075715
	H110	H	0.086840	0.629439	0.893653
	H111	H	0.902051	0.389382	0.895270
	H112	H	0.085672	0.903266	0.608619
	H113	H	0.102458	0.105158	0.371037
	H114	H	0.895949	0.104220	0.608508
	H115	H	0.914309	0.909748	0.378093
	H116	H	0.609759	0.096244	0.902113
	H117	H	0.372647	0.107859	0.083851
	H118	H	0.611764	0.912997	0.084302
	H119	H	0.372205	0.911934	0.897623
	C120	C	0.372943	0.015992	0.612261
	C121	C	0.614658	0.998657	0.611725
	C122	C	0.615531	0.016775	0.367432
	C123	C	0.373643	0.998931	0.368487
	C124	C	0.615588	0.382794	-0.000103
	C125	C	0.611890	0.627186	0.983396
	C126	C	0.367320	0.631736	-0.000079
	C127	C	0.370677	0.386408	0.982437
	C128	C	0.001852	0.627951	0.368892
	C129	C	0.982999	0.629534	0.612663
	C130	C	0.001387	0.387592	0.612795
	C131	C	0.983712	0.386130	0.369514
	C132	C	0.870254	0.515766	0.113433
	C133	C	0.112308	0.498369	0.112684
	C134	C	0.111883	0.517321	0.869529
	C135	C	0.870351	0.498384	0.868904
	C136	C	0.119256	0.881985	0.499979
	C137	C	0.115114	0.128029	0.483904
	C138	C	0.870178	0.131593	0.500100
	C139	C	0.874376	0.887091	0.483675
	C140	C	0.502826	0.128520	0.867818
	C141	C	0.484343	0.128254	0.111213
	C142	C	0.502024	0.885674	0.111665
	C143	C	0.483258	0.886435	0.869090
	C144	C	0.374153	0.892982	0.669346
	C145	C	0.613413	0.121437	0.668727
	C146	C	0.617528	0.892926	0.311849
	C147	C	0.371243	0.122580	0.312569
	C148	C	0.671587	0.385352	0.877888
	C149	C	0.666825	0.624012	0.105879
	C150	C	0.310945	0.630518	0.878261
	C151	C	0.316707	0.390143	0.105452
	C152	C	0.878087	0.686474	0.372366
	C153	C	0.108793	0.679797	0.609108
	C154	C	0.876934	0.334027	0.609706
	C155	C	0.108810	0.329890	0.372926
	C156	C	0.876737	0.390591	0.667392
	C157	C	0.105805	0.628931	0.670866
	C158	C	0.877175	0.629353	0.314692
	C159	C	0.107156	0.384023	0.312654
	C160	C	0.368620	0.687795	0.878071
	C161	C	0.609277	0.682414	0.105426
	C162	C	0.613215	0.328734	0.877205
	C163	C	0.373967	0.330772	0.104849
	C164	C	0.673008	0.892488	0.371449
	C165	C	0.667085	0.123480	0.608144
	C166	C	0.320879	0.891238	0.609386
	C167	C	0.316161	0.122855	0.372748
	C168	C	0.872002	0.392036	0.169387
	C169	C	0.109382	0.621942	0.168463
	C170	C	0.113905	0.393874	0.813208
	C171	C	0.867292	0.622569	0.813657
	C172	C	0.174258	0.885173	0.377997
	C173	C	0.168987	0.123486	0.606819
	C174	C	0.815397	0.129451	0.377475
	C175	C	0.818832	0.890088	0.605889
	C176	C	0.377969	0.184930	0.871445
	C177	C	0.609448	0.180432	0.106736
	C178	C	0.376487	0.834674	0.108828
	C179	C	0.607301	0.828091	0.871884
	C180	C	0.378433	0.889110	0.168285
	C181	C	0.608283	0.126933	0.166406
	C182	C	0.378583	0.129527	0.812489
	C183	C	0.607703	0.884956	0.813834
	C184	C	0.873343	0.186938	0.377709
	C185	C	0.112241	0.183219	0.606307
	C186	C	0.117373	0.826403	0.378439
	C187	C	0.877014	0.832197	0.606012
	C188	C	0.169101	0.392988	0.873125
	C189	C	0.164332	0.623399	0.109211
	C190	C	0.818529	0.390656	0.109151
	C191	C	0.812717	0.622611	0.873966
	C192	C	0.394693	0.102296	0.589768
	C193	C	0.593121	0.911862	0.589826
	C194	C	0.590710	0.103087	0.389192
	C195	C	0.398972	0.912779	0.390449
	C196	C	0.593144	0.404563	0.085388
	C197	C	0.589762	0.604675	0.898180
	C198	C	0.389883	0.609366	0.085070
	C199	C	0.392567	0.408439	0.897177
	C200	C	0.088518	0.602858	0.390301
	C201	C	0.896038	0.609012	0.590592
	C202	C	0.088005	0.409162	0.590853
	C203	C	0.896998	0.410047	0.391856
	C204	C	0.891367	0.602149	0.091746
	C205	C	0.091060	0.411936	0.090571
	C206	C	0.086998	0.603544	0.891782
	C207	C	0.895045	0.411675	0.889678
	C208	C	0.096637	0.903887	0.585532
	C209	C	0.093384	0.106560	0.398439
	C210	C	0.891967	0.109658	0.585582
	C211	C	0.896876	0.909215	0.398451
	C212	C	0.589548	0.104466	0.889640
	C213	C	0.397392	0.106819	0.089979
	C214	C	0.588726	0.906329	0.089302
	C215	C	0.396753	0.911675	0.891262
	Zn216	Zn	0.493419	0.007393	0.740349
	Zn217	Zn	0.494188	0.007882	0.238639
	Zn218	Zn	0.743121	0.505673	-0.008018
	Zn219	Zn	0.239979	0.508571	-0.008679
	Zn220	Zn	-0.005300	0.755040	0.491701
	Zn221	Zn	-0.006705	0.259265	0.492024
	Zn222	Zn	-0.008738	0.509268	0.739956
	Zn223	Zn	-0.008775	0.506635	0.240878
	Zn224	Zn	0.490883	0.758517	-0.009354
	Zn225	Zn	0.493598	0.255045	-0.009447
	Zn226	Zn	0.742400	0.008650	0.491051
	Zn227	Zn	0.246292	0.006152	0.491805
	N228	N	0.405892	0.971615	0.671368
	N229	N	0.581692	0.042664	0.671203
	N230	N	0.582602	0.971222	0.309204
	N231	N	0.406370	0.044365	0.309610
	N232	N	0.673039	0.418385	0.955300
	N233	N	0.668696	0.590396	0.028922
	N234	N	0.310011	0.596335	0.954958
	N235	N	0.314450	0.423797	0.028371
	N236	N	0.956637	0.685775	0.405244
	N237	N	0.031396	0.680469	0.573616
	N238	N	0.955268	0.332001	0.576410
	N239	N	0.030898	0.330923	0.407544
	N240	N	0.955156	0.423115	0.669615
	N241	N	0.026576	0.598566	0.673436
	N242	N	0.955252	0.593710	0.312397
	N243	N	0.028454	0.418179	0.310422
	N244	N	0.402757	0.688734	0.954832
	N245	N	0.575682	0.684346	0.028385
	N246	N	0.578843	0.327224	0.953822
	N247	N	0.406812	0.328104	0.027391
	N248	N	0.672035	0.970495	0.405403
	N249	N	0.667873	0.046024	0.573383
	N250	N	0.320148	0.968553	0.574412
	N251	N	0.317596	0.044967	0.406741
	N252	N	0.903453	0.470772	0.172199
	N253	N	0.077781	0.543251	0.170829
	N254	N	0.078936	0.472186	0.810929
	N255	N	0.902469	0.544426	0.810526
	N256	N	0.175695	0.918736	0.454911
	N257	N	0.170861	0.089861	0.529776
	N258	N	0.813004	0.096004	0.454519
	N259	N	0.817213	0.923763	0.528833
	N260	N	0.456173	0.184454	0.905255
	N261	N	0.531043	0.181745	0.073185
	N262	N	0.454251	0.832321	0.074340
	N263	N	0.528712	0.828755	0.905330
	N264	N	0.457561	0.920088	0.170240
	N265	N	0.529587	0.095140	0.169278
	N266	N	0.457131	0.095119	0.810262
	N267	N	0.529629	0.920289	0.811801
	N268	N	0.906772	0.188214	0.454801
	N269	N	0.079410	0.186133	0.528953
	N270	N	0.083767	0.824419	0.455367
	N271	N	0.910965	0.830275	0.529004
	N272	N	0.168001	0.470787	0.907306
	N273	N	0.166461	0.545487	0.075358
	N274	N	0.817317	0.468396	0.074868
	N275	N	0.814277	0.544511	0.907434
	O276	O	-0.075359	-0.062053	0.070183
	H277	H	-0.080039	-0.070960	0.066609
	H278	H	-0.077908	-0.063280	0.052565
	O279	O	0.488273	0.515024	0.481667
	H280	H	0.483296	0.532402	0.490901
	H281	H	0.488199	0.503678	0.467787
	O282	O	0.475121	0.399659	0.432857
	H283	H	0.472175	0.399847	0.436694
	H284	H	0.465258	0.402465	0.422940
	O285	O	0.011603	1.007045	0.993566
	H286	H	0.014753	1.012667	1.001504
	H287	H	0.017784	1.005587	0.997251
	O288	O	0.558777	0.559007	0.502352
	H289	H	0.566838	0.548517	0.503375
	H290	H	0.558401	0.563360	0.514266
	O291	O	0.997375	0.966562	1.068801
	H292	H	0.990257	0.960488	1.075686
	H293	H	0.981140	0.976993	1.077372
	O294	O	1.076594	1.001505	0.972768
	H295	H	1.088199	0.997898	0.975056
	H296	H	1.069582	1.010728	0.969766
	O297	O	1.061219	0.045595	1.033963
	H298	H	1.066427	0.044259	1.045453
	H299	H	1.062763	0.050836	1.035119
	O300	O	0.382100	0.465683	0.627367
	H301	H	0.378622	0.467615	0.625747
	H302	H	0.389887	0.467462	0.630616
	O303	O	0.986399	-0.010459	-0.066655
	H304	H	0.986737	0.001698	-0.061314
	H305	H	0.975493	-0.004990	-0.076565
	O306	O	-0.082749	1.004919	1.024497
	H307	H	-0.077913	1.002802	1.023831
	H308	H	-0.087277	1.013473	1.023177
	O309	O	0.401125	0.474786	0.571204
	H310	H	0.397657	0.467922	0.557709
	H311	H	0.392449	0.482132	0.573099
	O312	O	1.013470	0.007049	1.014144
	H313	H	1.009047	0.015406	1.019677
	H314	H	1.010710	0.008374	1.010604
	O315	O	0.490895	0.527413	0.588795
	H316	H	0.489757	0.535154	0.588353
	H317	H	0.490416	0.519943	0.581447
	O318	O	0.467443	0.581641	0.380298
	H319	H	0.470643	0.575758	0.392456
	H320	H	0.462391	0.581715	0.382885
	O321	O	1.071907	0.996139	0.978345
	H322	H	1.073213	0.988411	0.975869
	H323	H	1.074964	1.005322	0.972428
	O324	O	0.502442	0.463553	0.520002
	H325	H	0.506129	0.473584	0.514997
	H326	H	0.495943	0.463698	0.527172
	O327	O	0.494420	0.485781	0.445091
	H328	H	0.515859	0.477380	0.450324
	H329	H	0.489849	0.487580	0.434204
	O330	O	0.991279	0.013181	1.035251
	H331	H	0.998702	0.014313	1.037172
	H332	H	0.983173	0.000402	1.042940
	O333	O	1.056595	0.970926	0.023630
	H334	H	1.055359	0.970619	0.031763
	H335	H	1.054868	0.969524	0.020724
	O336	O	0.357554	0.596727	0.391816
	H337	H	0.366331	0.590054	0.385192
	H338	H	0.348990	0.605690	0.381618
	O339	O	0.559186	0.484375	0.549107
	H340	H	0.552423	0.484033	0.545544
	H341	H	0.549725	0.483841	0.549690
	O342	O	0.582587	0.584887	0.515300
	H343	H	0.580677	0.582578	0.525538
	H344	H	0.588131	0.586200	0.519462
	O345	O	0.024134	-0.009079	-0.019579
	H346	H	0.027513	-0.010479	-0.017358
	H347	H	0.027851	-0.008025	-0.021352
	O348	O	0.482216	0.422717	0.536409
	H349	H	0.471018	0.436113	0.547975
	H350	H	0.480813	0.418484	0.540663
	O351	O	0.453786	0.477054	0.467665
	H352	H	0.454039	0.478118	0.464448
	H353	H	0.453075	0.470343	0.463163
	O354	O	0.431712	0.564009	0.391533
	H355	H	0.433746	0.581129	0.391460
	H356	H	0.423657	0.562492	0.382526
	O357	O	0.546595	0.357481	0.435905
	H358	H	0.558421	0.368797	0.444346
	H359	H	0.540908	0.350887	0.441908
	O360	O	0.330763	-0.286147	0.283024
	H361	H	0.336991	-0.282423	0.272310
	H362	H	0.338807	-0.289902	0.291560
	O363	O	0.533796	0.503675	0.567017
	H364	H	0.527808	0.515786	0.556482
	H365	H	0.534130	0.500342	0.564852
	O366	O	-0.052623	-0.014247	0.984558
	H367	H	-0.052254	-0.019590	0.978350
	H368	H	-0.047704	-0.008077	0.980848
	O369	O	0.447732	0.614422	0.440590
	H370	H	0.450631	0.612653	0.446982
	H371	H	0.443644	0.621869	0.441744
