data_Molecule from HDF5

_cell_length_a		16.560265
_cell_length_b		16.734298
_cell_length_c		16.629862
_cell_angle_alpha	89.980967
_cell_angle_beta	89.863470
_cell_angle_gamma	89.958495
_symmetry_space_group_name_H-M	'P 1'
_symmetry_Int_Tables_number		1

loop_
	_symmetry_equiv_pos_as_xyz
	x,y,z

loop_
	_atom_site_label
	_atom_site_type_symbol
	_atom_site_fract_x
	_atom_site_fract_y
	_atom_site_fract_z
	H0	H	0.369735	0.839006	0.730419
	H1	H	0.579646	0.148399	0.727981
	H2	H	0.587107	0.841690	0.281238
	H3	H	0.372335	0.148100	0.287706
	H4	H	0.699428	0.387270	0.854038
	H5	H	0.695863	0.596937	0.163107
	H6	H	0.255143	0.598908	0.851761
	H7	H	0.257411	0.391899	0.163563
	H8	H	0.820048	0.714306	0.402412
	H9	H	0.130594	0.716484	0.615048
	H10	H	0.821530	0.271073	0.615729
	H11	H	0.133243	0.275624	0.405625
	H12	H	0.820961	0.387106	0.730891
	H13	H	0.130911	0.599083	0.728954
	H14	H	0.819752	0.597693	0.287612
	H15	H	0.133842	0.392061	0.290765
	H16	H	0.369971	0.715851	0.852391
	H17	H	0.581355	0.714845	0.162237
	H18	H	0.584099	0.270099	0.853969
	H19	H	0.369948	0.272275	0.162003
	H20	H	0.702357	0.841594	0.398565
	H21	H	0.695277	0.149015	0.609960
	H22	H	0.253846	0.838579	0.613484
	H23	H	0.255534	0.147734	0.404349
	H24	H	0.869867	0.339475	0.230058
	H25	H	0.081565	0.647096	0.229181
	H26	H	0.081850	0.339390	0.785956
	H27	H	0.867046	0.645955	0.782782
	H28	H	0.195795	0.890387	0.351813
	H29	H	0.196913	0.099251	0.663263
	H30	H	0.755133	0.100059	0.353253
	H31	H	0.755106	0.889334	0.663093
	H32	H	0.321576	0.215506	0.900593
	H33	H	0.629317	0.217373	0.115160
	H34	H	0.321346	0.770556	0.116074
	H35	H	0.631097	0.770531	0.900496
	H36	H	0.321208	0.887466	0.230520
	H37	H	0.629716	0.100552	0.230351
	H38	H	0.321465	0.099298	0.785671
	H39	H	0.632507	0.887582	0.786439
	H40	H	0.871082	0.215978	0.353463
	H41	H	0.084944	0.218921	0.661188
	H42	H	0.083881	0.770648	0.353140
	H43	H	0.868847	0.770735	0.661823
	H44	H	0.197408	0.339238	0.902588
	H45	H	0.196230	0.648021	0.111040
	H46	H	0.755438	0.338702	0.112321
	H47	H	0.750615	0.645939	0.899803
	H48	H	0.391774	0.104127	0.604530
	H49	H	0.567564	0.881195	0.598139
	H50	H	0.565389	0.102035	0.424268
	H51	H	0.392873	0.882973	0.416144
	H52	H	0.567305	0.403715	0.120893
	H53	H	0.562865	0.583065	0.896329
	H54	H	0.389693	0.592264	0.120549
	H55	H	0.383249	0.403162	0.893594
	H56	H	0.089293	0.586006	0.420269
	H57	H	0.863751	0.577183	0.601193
	H58	H	0.086953	0.402170	0.592056
	H59	H	0.862442	0.401704	0.418535
	H60	H	0.085434	0.410259	0.594688
	H61	H	0.861925	0.588809	0.594509
	H62	H	0.087098	0.580576	0.419731
	H63	H	0.864391	0.403651	0.421932
	H64	H	0.378173	0.580426	0.121085
	H65	H	0.564811	0.580922	0.895905
	H66	H	0.561984	0.409700	0.117382
	H67	H	0.389574	0.406727	0.896646
	H68	H	0.568677	0.106088	0.416514
	H69	H	0.563114	0.883513	0.597861
	H70	H	0.390284	0.099789	0.589924
	H71	H	0.386437	0.884167	0.424082
	H72	H	0.880943	0.605885	0.095750
	H73	H	0.062882	0.384704	0.095289
	H74	H	0.068899	0.606142	0.917545
	H75	H	0.896495	0.384630	0.916252
	H76	H	0.060339	0.899237	0.619367
	H77	H	0.068005	0.084832	0.395552
	H78	H	0.892558	0.082987	0.618253
	H79	H	0.889778	0.903458	0.396092
	H80	H	0.587606	0.079512	0.917533
	H81	H	0.363969	0.084188	0.093601
	H82	H	0.586834	0.900256	0.090462
	H83	H	0.361427	0.899518	0.913037
	H84	H	0.584522	0.909759	0.091809
	H85	H	0.365238	0.079249	0.093266
	H86	H	0.589372	0.084085	0.917579
	H87	H	0.364873	0.900888	0.926290
	H88	H	0.885518	0.086978	0.621461
	H89	H	0.064039	0.080639	0.398319
	H90	H	0.068447	0.903809	0.620555
	H91	H	0.888330	0.905585	0.395964
	H92	H	0.062098	0.604275	0.914092
	H93	H	0.070994	0.381248	0.097013
	H94	H	0.890303	0.604996	0.103352
	H95	H	0.888293	0.387152	0.928274
	H96	H	0.378473	0.106605	0.596917
	H97	H	0.565395	0.882589	0.593666
	H98	H	0.560076	0.101947	0.416706
	H99	H	0.383016	0.879815	0.415677
	H100	H	0.559033	0.401479	0.119201
	H101	H	0.562021	0.580318	0.896892
	H102	H	0.393078	0.577082	0.114888
	H103	H	0.390447	0.399457	0.894131
	H104	H	0.089498	0.583291	0.414715
	H105	H	0.868513	0.578627	0.588215
	H106	H	0.089725	0.405100	0.600106
	H107	H	0.863592	0.405946	0.418197
	H108	H	0.891156	0.601018	0.091968
	H109	H	0.064710	0.380211	0.103153
	H110	H	0.063011	0.602727	0.921683
	H111	H	0.882264	0.380557	0.916769
	H112	H	0.061177	0.908287	0.616779
	H113	H	0.061905	0.086146	0.396929
	H114	H	0.885018	0.078930	0.618931
	H115	H	0.890855	0.905488	0.397060
	H116	H	0.587422	0.081610	0.922142
	H117	H	0.364006	0.081364	0.097784
	H118	H	0.589924	0.904889	0.099292
	H119	H	0.366461	0.911241	0.917632
	C120	C	0.354168	0.001643	0.629912
	C121	C	0.596929	0.985267	0.628316
	C122	C	0.598884	0.002317	0.385321
	C123	C	0.355156	0.984632	0.386572
	C124	C	0.596821	0.371928	0.016989
	C125	C	0.595902	0.613473	0.999116
	C126	C	0.354502	0.615473	0.016013
	C127	C	0.355669	0.372193	0.998287
	C128	C	-0.014900	0.614732	0.386318
	C129	C	0.967333	0.614607	0.628257
	C130	C	-0.015442	0.373033	0.628723
	C131	C	0.967308	0.372708	0.387626
	C132	C	0.855154	0.501689	0.129088
	C133	C	0.097904	0.484491	0.129267
	C134	C	0.097251	0.502268	0.885887
	C135	C	0.854505	0.485155	0.886493
	C136	C	0.096646	0.871978	0.516261
	C137	C	0.097316	0.115450	0.499564
	C138	C	0.855383	0.115670	0.516962
	C139	C	0.855396	0.872176	0.498878
	C140	C	0.485474	0.114424	0.886225
	C141	C	0.466958	0.114572	0.128062
	C142	C	0.484681	0.872025	0.128277
	C143	C	0.467540	0.871774	0.886426
	C144	C	0.351579	0.885299	0.690070
	C145	C	0.598354	0.102018	0.687614
	C146	C	0.603818	0.887403	0.322797
	C147	C	0.353790	0.101480	0.327765
	C148	C	0.658382	0.369059	0.900151
	C149	C	0.655943	0.615698	0.116336
	C150	C	0.294767	0.617469	0.898573
	C151	C	0.296512	0.372028	0.116115
	C152	C	0.866966	0.674118	0.384458
	C153	C	0.083928	0.675874	0.632429
	C154	C	0.867839	0.311840	0.632886
	C155	C	0.085902	0.314764	0.386804
	C156	C	0.867817	0.369526	0.690178
	C157	C	0.084140	0.617513	0.689130
	C158	C	0.866719	0.616084	0.327492
	C159	C	0.086150	0.372790	0.329690
	C160	C	0.351872	0.675591	0.898938
	C161	C	0.599031	0.674076	0.115853
	C162	C	0.601100	0.311027	0.900383
	C163	C	0.352548	0.312685	0.115522
	C164	C	0.661226	0.887285	0.381044
	C165	C	0.655804	0.102342	0.629097
	C166	C	0.294253	0.885051	0.631794
	C167	C	0.295629	0.101168	0.385492
	C168	C	0.852099	0.385821	0.189345
	C169	C	0.099752	0.601058	0.188799
	C170	C	0.099867	0.385694	0.826078
	C171	C	0.849552	0.600166	0.824048
	C172	C	0.156591	0.871204	0.398772
	C173	C	0.157363	0.117850	0.616319
	C174	C	0.795398	0.118076	0.399990
	C175	C	0.794640	0.870225	0.615949
	C176	C	0.368302	0.175157	0.882911
	C177	C	0.583163	0.176203	0.132399
	C178	C	0.368021	0.811161	0.132999
	C179	C	0.584577	0.811040	0.882801
	C180	C	0.367974	0.869113	0.190103
	C181	C	0.583386	0.118340	0.189629
	C182	C	0.368245	0.117298	0.825755
	C183	C	0.585163	0.869246	0.826007
	C184	C	0.852761	0.175937	0.400141
	C185	C	0.101722	0.177282	0.615565
	C186	C	0.100633	0.811969	0.399374
	C187	C	0.851299	0.811330	0.615318
	C188	C	0.157349	0.385841	0.884023
	C189	C	0.156787	0.601267	0.130124
	C190	C	0.795190	0.385335	0.130941
	C191	C	0.791800	0.600136	0.882183
	C192	C	0.379626	0.082572	0.604553
	C193	C	0.572361	0.903751	0.603710
	C194	C	0.572160	0.082619	0.411674
	C195	C	0.380342	0.903462	0.411497
	C196	C	0.570347	0.397665	0.098002
	C197	C	0.570569	0.588542	0.917559
	C198	C	0.379572	0.590470	0.097568
	C199	C	0.380739	0.396393	0.916156
	C200	C	0.067038	0.590449	0.410918
	C201	C	0.885893	0.588853	0.602096
	C202	C	0.066034	0.398541	0.602764
	C203	C	0.884919	0.396880	0.412306
	C204	C	0.880296	0.582967	0.104136
	C205	C	0.073167	0.403106	0.105341
	C206	C	0.071890	0.583148	0.910598
	C207	C	0.881470	0.404984	0.912837
	C208	C	0.070831	0.896625	0.597605
	C209	C	0.071857	0.091009	0.418074
	C210	C	0.880615	0.090277	0.598315
	C211	C	0.881943	0.897601	0.417638
	C212	C	0.567037	0.089005	0.911853
	C213	C	0.385495	0.088807	0.102232
	C214	C	0.565962	0.897734	0.101535
	C215	C	0.385575	0.896542	0.911737
	Zn216	Zn	0.476437	-0.007300	0.758494
	Zn217	Zn	0.476559	-0.006874	0.256757
	Zn218	Zn	0.725560	0.493354	0.008219
	Zn219	Zn	0.226795	0.493842	0.007018
	Zn220	Zn	-0.023967	0.742664	0.507056
	Zn221	Zn	-0.023514	0.244227	0.508751
	Zn222	Zn	-0.024128	0.493613	0.757053
	Zn223	Zn	-0.024054	0.493453	0.258438
	Zn224	Zn	0.476232	0.743298	0.007135
	Zn225	Zn	0.476163	0.242816	0.007298
	Zn226	Zn	0.727238	-0.006141	0.507299
	Zn227	Zn	0.225310	-0.006779	0.508668
	N228	N	0.388125	0.958879	0.689093
	N229	N	0.562627	0.028067	0.687381
	N230	N	0.565580	0.960001	0.325373
	N231	N	0.390003	0.027631	0.328045
	N232	N	0.655984	0.406270	0.973810
	N233	N	0.654199	0.578716	0.042737
	N234	N	0.296335	0.580667	0.972308
	N235	N	0.298099	0.408171	0.041958
	N236	N	0.941526	0.673643	0.420177
	N237	N	0.010121	0.674301	0.595304
	N238	N	0.941587	0.313688	0.595372
	N239	N	0.010830	0.314431	0.422134
	N240	N	0.941271	0.407052	0.687442
	N241	N	0.010510	0.580080	0.686724
	N242	N	0.941036	0.579691	0.328439
	N243	N	0.011191	0.407895	0.329759
	N244	N	0.388084	0.674855	0.973027
	N245	N	0.562506	0.672940	0.041861
	N246	N	0.563573	0.312618	0.973997
	N247	N	0.388415	0.312463	0.041130
	N248	N	0.658400	0.959715	0.419178
	N249	N	0.655130	0.028637	0.592978
	N250	N	0.295399	0.958575	0.595401
	N251	N	0.296233	0.027341	0.421394
	N252	N	0.888544	0.459353	0.188547
	N253	N	0.063752	0.527182	0.188626
	N254	N	0.063486	0.459307	0.826582
	N255	N	0.888113	0.527674	0.826648
	N256	N	0.154456	0.907691	0.472585
	N257	N	0.154834	0.079911	0.543260
	N258	N	0.796755	0.081216	0.473755
	N259	N	0.796906	0.907238	0.542336
	N260	N	0.442307	0.173561	0.919859
	N261	N	0.509629	0.174043	0.094974
	N262	N	0.441717	0.812773	0.095164
	N263	N	0.510480	0.812449	0.919699
	N264	N	0.441801	0.906180	0.187632
	N265	N	0.509926	0.080475	0.187036
	N266	N	0.442218	0.080327	0.827324
	N267	N	0.511265	0.906453	0.828112
	N268	N	0.889132	0.174814	0.474051
	N269	N	0.064960	0.175982	0.541911
	N270	N	0.064133	0.812010	0.473490
	N271	N	0.888364	0.812347	0.541418
	N272	N	0.156115	0.459322	0.920376
	N273	N	0.156106	0.527650	0.094150
	N274	N	0.796649	0.458611	0.094166
	N275	N	0.794978	0.527581	0.920441
	O276	O	0.520531	1.437672	0.712011
	H277	H	0.530584	1.434158	0.713669
	H278	H	0.496918	1.457684	0.715050
	O279	O	-0.060343	-0.062163	0.169566
	H280	H	-0.086466	-0.081149	0.171960
	H281	H	-0.054831	-0.067138	0.168725
	O282	O	0.975147	0.077839	1.064764
	H283	H	0.981449	0.072489	1.077153
	H284	H	0.963477	0.059971	1.063422
	O285	O	0.167101	0.837337	0.190295
	H286	H	0.183179	0.830356	0.172883
	H287	H	0.158331	0.842081	0.197062
	O288	O	0.974828	1.189342	-0.206780
	H289	H	0.959626	1.197959	-0.199421
	H290	H	0.952703	1.197927	-0.209428
	O291	O	0.312914	0.399296	0.416497
	H292	H	0.321021	0.407639	0.414069
	H293	H	0.332481	0.414034	0.414027
	O294	O	1.536399	0.552582	0.283992
	H295	H	1.531549	0.561012	0.280832
	H296	H	1.527975	0.553039	0.287614
	O297	O	0.804187	0.174704	0.173190
	H298	H	0.821866	0.169888	0.148312
	H299	H	0.817705	0.147261	0.173199
	O300	O	0.184430	0.207595	1.213440
	H301	H	0.182507	0.164654	1.218400
	H302	H	0.219118	0.235535	1.247407
	O303	O	0.463009	0.521094	0.731576
	H304	H	0.436512	0.519159	0.729872
	H305	H	0.467296	0.544260	0.737375
	O306	O	0.689883	0.533209	0.710320
	H307	H	0.693995	0.529618	0.706100
	H308	H	0.686767	0.529797	0.721508
	O309	O	0.714629	0.387992	0.268579
	H310	H	0.742078	0.381058	0.243149
	H311	H	0.716222	0.361219	0.272820
	O312	O	0.326171	0.596287	0.378702
	H313	H	0.313523	0.601509	0.376223
	H314	H	0.321245	0.587432	0.383016
	O315	O	0.827538	1.144428	0.878524
	H316	H	0.830619	1.142440	0.891717
	H317	H	0.807875	1.168363	0.861387
	O318	O	0.685007	0.706223	0.712711
	H319	H	0.717857	0.735327	0.745688
	H320	H	0.689411	0.676395	0.699345
	O321	O	0.256412	0.717501	0.478896
	H322	H	0.236699	0.731957	0.469942
	H323	H	0.240638	0.703178	0.490264
	O324	O	1.212866	0.760880	-0.228464
	H325	H	1.216401	0.790661	-0.234228
	H326	H	1.206638	0.743937	-0.212763
	O327	O	0.287015	0.296899	1.315880
	H328	H	0.293059	0.319857	1.346147
	H329	H	0.320227	0.308678	1.324421
	O330	O	0.694167	0.275361	0.472310
	H331	H	0.699498	0.279334	0.458291
	H332	H	0.718096	0.263690	0.476188
	O333	O	0.771125	0.205353	-0.023225
	H334	H	0.766863	0.232532	-0.021645
	H335	H	0.788729	0.206410	-0.038814
	O336	O	0.442150	0.279099	0.721862
	H337	H	0.457354	0.260448	0.722127
	H338	H	0.439077	0.283470	0.729319
	O339	O	1.254206	-0.531861	0.733201
	H340	H	1.230545	-0.550440	0.753875
	H341	H	1.251548	-0.565381	0.733106
	O342	O	0.195936	0.037593	0.038152
	H343	H	0.203557	0.022309	0.048303
	H344	H	0.196188	0.040520	0.053837
	O345	O	-0.327904	0.287385	1.306597
	H346	H	-0.306029	0.282068	1.286970
	H347	H	-0.319662	0.281455	1.318486
	O348	O	-0.008419	-0.232056	-0.187378
	H349	H	0.004523	-0.234875	-0.197603
	H350	H	-0.015822	-0.240185	-0.201510
	O351	O	1.540641	0.655113	-0.475171
	H352	H	1.531088	0.659031	-0.465278
	H353	H	1.523889	0.656301	-0.471674
	O354	O	0.200743	0.218490	1.032662
	H355	H	0.208602	0.224764	1.063750
	H356	H	0.215287	0.235177	1.055429
	O357	O	1.008761	0.220423	0.228852
	H358	H	1.037252	0.226188	0.232820
	H359	H	1.015436	0.227804	0.252343
	O360	O	0.122802	-0.012816	1.228855
	H361	H	0.110561	-0.010202	1.238098
	H362	H	0.119477	-0.026560	1.242307
	O363	O	0.014554	-0.011525	0.020507
	H364	H	0.026737	-0.011222	0.015145
	H365	H	0.016414	-0.024067	0.015680
	O366	O	0.691060	0.717261	0.534113
	H367	H	0.700887	0.732394	0.541315
	H368	H	0.696205	0.720080	0.549523
	O369	O	0.583518	0.695979	0.309514
	H370	H	0.578974	0.684748	0.323715
	H371	H	0.569653	0.699060	0.319201
	O372	O	1.164559	0.958769	-0.211129
	H373	H	1.190930	0.961210	-0.220235
	H374	H	1.164847	0.958567	-0.210406
	O375	O	0.763947	-0.028973	-0.130835
	H376	H	0.744768	-0.016665	-0.131113
	H377	H	0.756740	-0.020597	-0.128508
	O378	O	1.014421	1.007224	-0.177729
	H379	H	1.010919	1.018597	-0.175501
	H380	H	1.014508	1.010126	-0.179657
	O381	O	0.007546	1.166480	0.998900
	H382	H	0.017508	1.168388	1.013727
	H383	H	0.016225	1.162079	0.992491
	O384	O	0.705699	0.263006	0.741441
	H385	H	0.678702	0.279154	0.730310
	H386	H	0.698870	0.271029	0.726202
	O387	O	0.747288	1.008050	0.173014
	H388	H	0.726612	1.003854	0.180385
	H389	H	0.754731	0.981550	0.161526
	O390	O	0.762006	0.774825	0.218697
	H391	H	0.758237	0.775605	0.212942
	H392	H	0.750837	0.754795	0.245227
	O393	O	0.545186	0.508996	0.464328
	H394	H	0.539700	0.511950	0.473403
	H395	H	0.549013	0.505565	0.480340
	O396	O	-0.045969	0.772944	1.228880
	H397	H	-0.061148	0.777292	1.227751
	H398	H	-0.044278	0.751333	1.240156
	O399	O	-0.065761	0.068871	0.802475
	H400	H	-0.085319	0.064435	0.813837
	H401	H	-0.056002	0.080722	0.795858
	O402	O	-0.040394	-0.226261	1.036745
	H403	H	-0.027015	-0.233905	1.027921
	H404	H	-0.026123	-0.220602	1.048544
	O405	O	1.369270	0.708895	0.611297
	H406	H	1.347108	0.716466	0.622459
	H407	H	1.376354	0.707722	0.625400
	O408	O	-0.053066	0.143527	0.009330
	H409	H	-0.042373	0.135961	0.020099
	H410	H	-0.049115	0.145042	-0.001175
	O411	O	0.929709	0.956791	1.073416
	H412	H	0.942230	0.949384	1.074140
	H413	H	0.917688	0.954755	1.075453
	O414	O	0.294293	0.544118	0.435719
	H415	H	0.283077	0.538540	0.435543
	H416	H	0.304064	0.555151	0.436210
	O417	O	0.389310	0.529744	0.600456
	H418	H	0.395512	0.518190	0.598306
	H419	H	0.381171	0.529575	0.615584
	O420	O	0.377410	0.422795	0.557907
	H421	H	0.390192	0.429747	0.554630
	H422	H	0.374424	0.404149	0.559573
	O423	O	0.006210	-0.201786	0.900915
	H424	H	0.008395	-0.214769	0.897575
	H425	H	0.011718	-0.190198	0.906968
	O426	O	0.635141	0.483044	0.401241
	H427	H	0.624900	0.487270	0.382117
	H428	H	0.626408	0.492367	0.411070
	O429	O	1.207597	0.961972	1.023862
	H430	H	1.215938	0.968405	1.033606
	H431	H	1.197920	0.972487	1.027745
	O432	O	0.495806	0.266743	0.531272
	H433	H	0.485878	0.266600	0.527265
	H434	H	0.507242	0.263264	0.533662
	O435	O	0.264260	0.285265	0.552865
	H436	H	0.253651	0.282721	0.559720
	H437	H	0.260641	0.284043	0.553372
	O438	O	0.243868	-0.284777	0.279225
	H439	H	0.245563	-0.298533	0.273710
	H440	H	0.237886	-0.279346	0.296970
	O441	O	0.121479	-0.192832	0.045452
	H442	H	0.114851	-0.189371	0.046390
	H443	H	0.130421	-0.198886	0.031496
	O444	O	0.269209	0.283876	0.719159
	H445	H	0.295082	0.280749	0.699123
	H446	H	0.248699	0.253336	0.747639
	O447	O	-0.144783	0.917959	1.066227
	H448	H	-0.142835	0.907341	1.058444
	H449	H	-0.151404	0.921040	1.063053
	O450	O	-0.246991	0.770085	1.031032
	H451	H	-0.257337	0.761970	1.046315
	H452	H	-0.249396	0.758770	1.037199
	O453	O	0.530588	0.663894	0.697151
	H454	H	0.554963	0.667019	0.689972
	H455	H	0.549155	0.688051	0.712681
	O456	O	-0.178796	-0.020848	0.845598
	H457	H	-0.184615	-0.002970	0.846047
	H458	H	-0.175297	-0.005966	0.830446
	O459	O	1.164480	1.182837	-0.182947
	H460	H	1.153796	1.162393	-0.175641
	H461	H	1.137505	1.178621	-0.163050
	O462	O	0.464244	0.615255	0.551222
	H463	H	0.473419	0.621846	0.556692
	H464	H	0.455333	0.624329	0.555375
	O465	O	1.169943	-0.199889	-0.033128
	H466	H	1.182189	-0.191512	-0.030493
	H467	H	1.175568	-0.207495	-0.034690
	O468	O	0.258556	0.550311	0.532097
	H469	H	0.257323	0.550274	0.544881
	H470	H	0.257230	0.537908	0.535851
	O471	O	0.679824	0.537391	0.464803
	H472	H	0.672139	0.536630	0.474026
	H473	H	0.679672	0.554097	0.470421
	O474	O	0.787479	0.799921	0.818232
	H475	H	0.801263	0.822200	0.837494
	H476	H	0.812902	0.812738	0.832901
	O477	O	0.456336	0.388917	1.374844
	H478	H	0.473508	0.375380	1.362445
	H479	H	0.452577	0.407493	1.379608
	O480	O	0.505634	0.274718	0.295788
	H481	H	0.526391	0.269944	0.306981
	H482	H	0.520038	0.252493	0.275125
	O483	O	0.496176	0.723499	0.375709
	H484	H	0.483259	0.734920	0.380041
	H485	H	0.506283	0.730019	0.392219
	O486	O	0.677798	0.364602	0.624127
	H487	H	0.669945	0.373838	0.615024
	H488	H	0.666011	0.368982	0.610855
	O489	O	0.793252	1.037071	0.000365
	H490	H	0.792015	1.045482	0.004398
	H491	H	0.797533	1.043197	0.016005
	O492	O	-0.092484	0.110525	0.163675
	H493	H	-0.079245	0.128004	0.163835
	H494	H	-0.099962	0.097598	0.157258
	O495	O	0.100449	1.002402	0.953196
	H496	H	0.099902	1.015677	0.940982
	H497	H	0.099183	1.006845	0.949045
	O498	O	1.445481	1.316540	1.420366
	H499	H	1.456017	1.316001	1.408910
	H500	H	1.449962	1.315852	1.421212
	O501	O	0.469139	0.640424	0.393376
	H502	H	0.455968	0.665510	0.379972
	H503	H	0.482222	0.642572	0.375881
