data_Molecule from HDF5

_cell_length_a		16.240165
_cell_length_b		16.506251
_cell_length_c		16.426951
_cell_angle_alpha	89.954864
_cell_angle_beta	90.020850
_cell_angle_gamma	89.952330
_symmetry_space_group_name_H-M	'P 1'
_symmetry_Int_Tables_number		1

loop_
	_symmetry_equiv_pos_as_xyz
	x,y,z

loop_
	_atom_site_label
	_atom_site_type_symbol
	_atom_site_fract_x
	_atom_site_fract_y
	_atom_site_fract_z
	H0	H	0.394392	0.847025	0.717800
	H1	H	0.612232	0.159571	0.716655
	H2	H	0.614286	0.847993	0.266581
	H3	H	0.395605	0.160512	0.269312
	H4	H	0.726111	0.398459	0.833769
	H5	H	0.725346	0.608173	0.150570
	H6	H	0.281487	0.607593	0.833897
	H7	H	0.282004	0.397467	0.150898
	H8	H	0.844937	0.726490	0.385803
	H9	H	0.163068	0.723379	0.598974
	H10	H	0.844407	0.278045	0.601592
	H11	H	0.161885	0.280265	0.383261
	H12	H	0.843116	0.395823	0.714748
	H13	H	0.163386	0.606650	0.712333
	H14	H	0.843603	0.610660	0.271668
	H15	H	0.162165	0.398216	0.271906
	H16	H	0.392490	0.727406	0.836883
	H17	H	0.612512	0.726690	0.149650
	H18	H	0.616209	0.277708	0.835997
	H19	H	0.396333	0.280144	0.149583
	H20	H	0.724926	0.844682	0.388207
	H21	H	0.725814	0.159871	0.598757
	H22	H	0.283433	0.844851	0.596622
	H23	H	0.283080	0.162073	0.389358
	H24	H	0.892516	0.346867	0.218353
	H25	H	0.110163	0.660318	0.215021
	H26	H	0.112197	0.346371	0.767795
	H27	H	0.894077	0.659416	0.768205
	H28	H	0.224371	0.900412	0.333638
	H29	H	0.223175	0.107035	0.651868
	H30	H	0.778919	0.109017	0.335154
	H31	H	0.782967	0.896955	0.651566
	H32	H	0.345733	0.226742	0.884264
	H33	H	0.662402	0.226382	0.101482
	H34	H	0.343364	0.781748	0.099907
	H35	H	0.661387	0.778365	0.884578
	H36	H	0.343811	0.896585	0.215008
	H37	H	0.660971	0.112707	0.218027
	H38	H	0.343957	0.109785	0.771727
	H39	H	0.662457	0.894709	0.771212
	H40	H	0.890201	0.228938	0.336653
	H41	H	0.112786	0.227531	0.648860
	H42	H	0.113326	0.780002	0.334823
	H43	H	0.895089	0.778222	0.649734
	H44	H	0.226738	0.345412	0.885569
	H45	H	0.224087	0.660960	0.096559
	H46	H	0.780287	0.345325	0.098916
	H47	H	0.782468	0.661229	0.887721
	H48	H	0.414450	0.116567	0.583884
	H49	H	0.591613	0.890693	0.581126
	H50	H	0.589964	0.115973	0.401444
	H51	H	0.414125	0.889439	0.399438
	H52	H	0.596201	0.417517	0.105393
	H53	H	0.590217	0.590462	0.880338
	H54	H	0.415537	0.586831	0.104388
	H55	H	0.415184	0.417169	0.880086
	H56	H	0.120459	0.594053	0.400484
	H57	H	0.890090	0.593318	0.573583
	H58	H	0.113723	0.419693	0.578199
	H59	H	0.889757	0.415326	0.408754
	H60	H	0.118870	0.413670	0.584625
	H61	H	0.890581	0.585732	0.580642
	H62	H	0.117360	0.593409	0.408353
	H63	H	0.889323	0.417293	0.405074
	H64	H	0.419501	0.595949	0.106157
	H65	H	0.588561	0.592283	0.879971
	H66	H	0.584292	0.417515	0.101619
	H67	H	0.419667	0.413846	0.880423
	H68	H	0.585656	0.113052	0.406054
	H69	H	0.593063	0.889254	0.583715
	H70	H	0.414422	0.116454	0.583912
	H71	H	0.420561	0.892520	0.403512
	H72	H	0.905865	0.620340	0.086386
	H73	H	0.083704	0.393063	0.081629
	H74	H	0.087203	0.611963	0.908114
	H75	H	0.915456	0.393106	0.911063
	H76	H	0.090307	0.912805	0.605108
	H77	H	0.087429	0.088594	0.381699
	H78	H	0.922340	0.099376	0.604340
	H79	H	0.919476	0.913329	0.380415
	H80	H	0.617367	0.089541	0.907166
	H81	H	0.388783	0.090402	0.083157
	H82	H	0.618117	0.910936	0.078566
	H83	H	0.389277	0.912811	0.907447
	H84	H	0.615017	0.917941	0.076275
	H85	H	0.389778	0.093946	0.075998
	H86	H	0.618054	0.089874	0.903650
	H87	H	0.389845	0.918386	0.905919
	H88	H	0.909615	0.088951	0.607373
	H89	H	0.089974	0.098802	0.377363
	H90	H	0.091713	0.910212	0.606130
	H91	H	0.914593	0.913483	0.379246
	H92	H	0.097976	0.617341	0.902993
	H93	H	0.096212	0.390677	0.076331
	H94	H	0.923522	0.614825	0.089132
	H95	H	0.909844	0.387139	0.899839
	H96	H	0.414441	0.116761	0.583856
	H97	H	0.589774	0.889983	0.583640
	H98	H	0.592241	0.114518	0.407945
	H99	H	0.413590	0.891372	0.407806
	H100	H	0.589785	0.407589	0.107039
	H101	H	0.591126	0.592804	0.878921
	H102	H	0.409482	0.594154	0.108872
	H103	H	0.414895	0.411633	0.878592
	H104	H	0.117199	0.587156	0.403369
	H105	H	0.886061	0.595073	0.583353
	H106	H	0.116366	0.410323	0.575463
	H107	H	0.887496	0.413467	0.405837
	H108	H	0.915473	0.611658	0.072419
	H109	H	0.092709	0.387451	0.088999
	H110	H	0.087787	0.615912	0.896142
	H111	H	0.923121	0.391838	0.899761
	H112	H	0.092887	0.913096	0.606006
	H113	H	0.097649	0.090579	0.377392
	H114	H	0.922930	0.083567	0.600606
	H115	H	0.916607	0.917550	0.381216
	H116	H	0.618428	0.092771	0.906074
	H117	H	0.392901	0.087075	0.077207
	H118	H	0.617919	0.916529	0.083631
	H119	H	0.387914	0.914576	0.902187
	C120	C	0.381631	0.012204	0.615809
	C121	C	0.625276	0.993922	0.615755
	C122	C	0.624170	0.011068	0.371468
	C123	C	0.382276	0.995122	0.370980
	C124	C	0.624943	0.381473	0.000786
	C125	C	0.624034	0.624447	0.984082
	C126	C	0.381307	0.624746	0.002123
	C127	C	0.382564	0.381260	0.983782
	C128	C	0.012688	0.624500	0.371683
	C129	C	0.994688	0.623611	0.612401
	C130	C	0.011282	0.381229	0.613106
	C131	C	0.994098	0.382209	0.372255
	C132	C	0.881106	0.511605	0.115406
	C133	C	0.124149	0.494571	0.114470
	C134	C	0.124833	0.511294	0.869998
	C135	C	0.881938	0.494429	0.870561
	C136	C	0.125469	0.880740	0.501236
	C137	C	0.124792	0.125075	0.483312
	C138	C	0.882512	0.124260	0.500873
	C139	C	0.882952	0.881263	0.484152
	C140	C	0.513108	0.124606	0.871945
	C141	C	0.494993	0.124209	0.113141
	C142	C	0.511525	0.882208	0.113424
	C143	C	0.494032	0.881196	0.871574
	C144	C	0.377814	0.893751	0.676439
	C145	C	0.629427	0.112055	0.676402
	C146	C	0.630201	0.894269	0.308652
	C147	C	0.378733	0.113657	0.310430
	C148	C	0.686736	0.379431	0.881743
	C149	C	0.685027	0.626332	0.103085
	C150	C	0.320575	0.626711	0.882452
	C151	C	0.322201	0.379056	0.103255
	C152	C	0.892586	0.685975	0.368146
	C153	C	0.115214	0.683450	0.616113
	C154	C	0.891973	0.318967	0.618021
	C155	C	0.114023	0.320806	0.366848
	C156	C	0.891232	0.377870	0.674293
	C157	C	0.115185	0.625257	0.672763
	C158	C	0.891881	0.628163	0.311353
	C159	C	0.114179	0.379570	0.311211
	C160	C	0.376260	0.686331	0.883668
	C161	C	0.628767	0.685630	0.102451
	C162	C	0.631225	0.319602	0.882519
	C163	C	0.378853	0.320284	0.102373
	C164	C	0.685387	0.892626	0.369350
	C165	C	0.686411	0.112246	0.617951
	C166	C	0.322250	0.892810	0.616294
	C167	C	0.322430	0.114183	0.369843
	C168	C	0.876286	0.393711	0.177140
	C169	C	0.127498	0.612936	0.174575
	C170	C	0.129440	0.393469	0.808443
	C171	C	0.877138	0.612332	0.808765
	C172	C	0.185666	0.880139	0.381798
	C173	C	0.184676	0.126407	0.603252
	C174	C	0.819177	0.127672	0.382848
	C175	C	0.822337	0.878638	0.603441
	C176	C	0.393565	0.186423	0.867418
	C177	C	0.614567	0.186074	0.118546
	C178	C	0.391452	0.821655	0.117274
	C179	C	0.613761	0.819461	0.867744
	C180	C	0.391885	0.879031	0.174722
	C181	C	0.613910	0.129009	0.176347
	C182	C	0.392489	0.127514	0.811535
	C183	C	0.614356	0.877465	0.811073
	C184	C	0.875058	0.187281	0.383439
	C185	C	0.129146	0.186351	0.601885
	C186	C	0.130003	0.820415	0.382259
	C187	C	0.878499	0.819465	0.602447
	C188	C	0.186342	0.392783	0.867484
	C189	C	0.184330	0.613345	0.115484
	C190	C	0.819904	0.393097	0.117743
	C191	C	0.821462	0.613342	0.868423
	C192	C	0.407341	0.094911	0.591024
	C193	C	0.598879	0.911628	0.590345
	C194	C	0.597234	0.093263	0.397630
	C195	C	0.408516	0.912512	0.396212
	C196	C	0.597864	0.406978	0.083179
	C197	C	0.597556	0.599180	0.901390
	C198	C	0.407472	0.599439	0.084767
	C199	C	0.408855	0.406949	0.901278
	C200	C	0.096364	0.598900	0.396762
	C201	C	0.910853	0.598488	0.586587
	C202	C	0.094688	0.406932	0.586878
	C203	C	0.910735	0.407864	0.398908
	C204	C	0.907187	0.594082	0.089760
	C205	C	0.098391	0.411894	0.089519
	C206	C	0.098713	0.593450	0.895214
	C207	C	0.908406	0.412282	0.896181
	C208	C	0.099321	0.905160	0.584159
	C209	C	0.099246	0.099846	0.400325
	C210	C	0.910369	0.098059	0.582887
	C211	C	0.909373	0.907240	0.401774
	C212	C	0.596182	0.098401	0.898019
	C213	C	0.411989	0.098056	0.086396
	C214	C	0.595270	0.907872	0.086948
	C215	C	0.410871	0.907459	0.897692
	Zn216	Zn	0.503518	0.002883	0.744406
	Zn217	Zn	0.502906	0.003280	0.240996
	Zn218	Zn	0.753366	0.503325	-0.007842
	Zn219	Zn	0.253308	0.502250	-0.007272
	Zn220	Zn	0.004235	0.752135	0.492119
	Zn221	Zn	0.002916	0.253502	0.491607
	Zn222	Zn	0.002824	0.502979	0.740928
	Zn223	Zn	0.002904	0.503017	0.244219
	Zn224	Zn	0.502708	0.753631	-0.006953
	Zn225	Zn	0.504456	0.252486	-0.007407
	Zn226	Zn	0.753341	0.002635	0.493284
	Zn227	Zn	0.253284	0.003263	0.492875
	N228	N	0.413677	0.969205	0.676496
	N229	N	0.592312	0.037207	0.675365
	N230	N	0.593021	0.969048	0.309824
	N231	N	0.415172	0.038488	0.310922
	N232	N	0.682687	0.417259	0.956179
	N233	N	0.682080	0.588927	0.028527
	N234	N	0.323484	0.589010	0.957057
	N235	N	0.324167	0.416113	0.028319
	N236	N	0.968621	0.683976	0.404733
	N237	N	0.039100	0.682786	0.579543
	N238	N	0.967897	0.320854	0.580782
	N239	N	0.038239	0.322231	0.404139
	N240	N	0.966401	0.415699	0.671490
	N241	N	0.039030	0.588943	0.670676
	N242	N	0.967630	0.590700	0.313311
	N243	N	0.038680	0.417050	0.314519
	N244	N	0.413162	0.685490	0.958962
	N245	N	0.591552	0.684579	0.027163
	N246	N	0.593492	0.320659	0.957382
	N247	N	0.415497	0.321469	0.026992
	N248	N	0.681867	0.966577	0.407612
	N249	N	0.683912	0.037828	0.580891
	N250	N	0.324355	0.967547	0.579440
	N251	N	0.324698	0.039546	0.406741
	N252	N	0.913327	0.468540	0.176011
	N253	N	0.090627	0.538014	0.173924
	N254	N	0.091763	0.467965	0.809872
	N255	N	0.914056	0.537362	0.809774
	N256	N	0.183216	0.916653	0.456753
	N257	N	0.182076	0.088933	0.528500
	N258	N	0.823499	0.089301	0.456971
	N259	N	0.824894	0.916454	0.528949
	N260	N	0.469695	0.184999	0.903880
	N261	N	0.539548	0.183305	0.079821
	N262	N	0.467195	0.823549	0.080033
	N263	N	0.537965	0.821649	0.904766
	N264	N	0.467795	0.915805	0.172611
	N265	N	0.538867	0.090972	0.172788
	N266	N	0.467857	0.089816	0.814079
	N267	N	0.538933	0.915186	0.813145
	N268	N	0.913793	0.185165	0.457877
	N269	N	0.092841	0.185833	0.526327
	N270	N	0.093367	0.820582	0.457811
	N271	N	0.915347	0.820768	0.527152
	N272	N	0.183778	0.467149	0.904916
	N273	N	0.182430	0.538592	0.078786
	N274	N	0.822785	0.467512	0.080102
	N275	N	0.824292	0.538997	0.906063
	O276	O	0.561651	0.631590	0.440305
	H277	H	0.564194	0.616753	0.446801
	H278	H	0.551918	0.647288	0.434431
	O279	O	0.297673	0.379294	0.469763
	H280	H	0.295783	0.388788	0.495132
	H281	H	0.286284	0.366805	0.480568
	O282	O	0.491783	0.476023	0.308302
	H283	H	0.516266	0.481671	0.293286
	H284	H	0.485059	0.493488	0.323443
	O285	O	1.032269	1.031947	0.132924
	H286	H	1.046581	1.036383	0.137108
	H287	H	1.031280	1.014361	0.137350
	O288	O	0.537146	0.353746	0.530139
	H289	H	0.523585	0.362813	0.557314
	H290	H	0.516870	0.355484	0.525774
	O291	O	0.356378	0.478501	0.319241
	H292	H	0.366612	0.485395	0.322095
	H293	H	0.357832	0.454975	0.316026
	O294	O	1.185969	1.133044	1.171676
	H295	H	1.191600	1.142619	1.148111
	H296	H	1.169439	1.131773	1.167216
	O297	O	0.675865	0.326210	0.315941
	H298	H	0.676359	0.312945	0.358007
	H299	H	0.634349	0.323867	0.305497
	O300	O	0.496025	0.510618	0.640554
	H301	H	0.483285	0.503889	0.649421
	H302	H	0.508888	0.525615	0.636662
	O303	O	0.356996	0.688567	0.345954
	H304	H	0.356047	0.690952	0.355406
	H305	H	0.343180	0.664761	0.345310
	O306	O	0.067165	0.072520	0.971714
	H307	H	0.054434	0.060601	0.978009
	H308	H	0.061805	0.056308	0.967837
	O309	O	1.140223	0.022810	0.203675
	H310	H	1.120417	0.040142	0.204253
	H311	H	1.169173	0.021990	0.227261
	O312	O	0.681907	0.649197	0.610125
	H313	H	0.693118	0.625914	0.615316
	H314	H	0.681056	0.643194	0.603862
	O315	O	0.532995	0.527838	0.611165
	H316	H	0.540971	0.535613	0.610683
	H317	H	0.532545	0.540338	0.598945
	O318	O	-0.060521	-0.046045	-0.120499
	H319	H	-0.048784	-0.060585	-0.121403
	H320	H	-0.074397	-0.046301	-0.120947
	O321	O	0.715439	0.482913	0.277008
	H322	H	0.744899	0.484450	0.252131
	H323	H	0.714524	0.440831	0.282292
	O324	O	1.069988	0.158714	0.882785
	H325	H	1.083558	0.135204	0.866845
	H326	H	1.082870	0.172066	0.871870
	O327	O	0.328893	0.494119	0.588935
	H328	H	0.310622	0.499529	0.603492
	H329	H	0.348837	0.511863	0.591755
	O330	O	-0.207481	1.097997	1.039264
	H331	H	-0.219733	1.099380	1.014848
	H332	H	-0.193058	1.111538	1.020453
	O333	O	0.108162	0.786212	0.074218
	H334	H	0.113188	0.765132	0.071754
	H335	H	0.098156	0.784717	0.051025
	O336	O	0.973806	1.002226	-0.014847
	H337	H	0.982083	1.001055	0.002250
	H338	H	0.971341	1.002817	-0.018358
	O339	O	0.196389	0.896158	0.938771
	H340	H	0.199599	0.890310	0.980705
	H341	H	0.178960	0.869785	0.933216
	O342	O	0.520962	0.389699	0.297181
	H343	H	0.511866	0.387043	0.283534
	H344	H	0.529133	0.397023	0.306085
	O345	O	-0.058122	-0.153947	0.902077
	H346	H	-0.054082	-0.143140	0.923448
	H347	H	-0.064180	-0.148685	0.909807
	O348	O	0.501732	0.677078	0.406264
	H349	H	0.474767	0.683599	0.415285
	H350	H	0.510127	0.671165	0.393011
	O351	O	0.967967	1.165613	-0.042245
	H352	H	0.982291	1.161587	-0.038792
	H353	H	0.984575	1.161822	-0.031924
	O354	O	1.001233	0.794366	0.794494
	H355	H	0.985995	0.793735	0.789146
	H356	H	0.997626	0.793883	0.793419
	O357	O	0.180297	0.032023	-0.167286
	H358	H	0.187095	0.045784	-0.164388
	H359	H	0.205834	0.028922	-0.175735
	O360	O	-0.157139	0.183138	0.810401
	H361	H	-0.113919	0.187789	0.802315
	H362	H	-0.159113	0.185956	0.835395
	O363	O	0.863770	0.212421	0.041054
	H364	H	0.883715	0.224282	0.050485
	H365	H	0.842763	0.228810	0.042316
	O366	O	-0.105828	-0.062048	1.197535
	H367	H	-0.091184	-0.068769	1.182501
	H368	H	-0.132499	-0.058281	1.201082
	O369	O	0.800603	-0.203492	1.017585
	H370	H	0.786664	-0.227418	1.011070
	H371	H	0.809580	-0.191514	1.019509
	O372	O	0.638287	0.302334	0.478187
	H373	H	0.645843	0.282252	0.478524
	H374	H	0.623929	0.300314	0.490303
	O375	O	-0.627386	-0.427680	1.413351
	H376	H	-0.632239	-0.430072	1.394794
	H377	H	-0.616658	-0.434695	1.410975
	O378	O	0.701654	0.531800	0.586031
	H379	H	0.700448	0.529873	0.552664
	H380	H	0.703213	0.512866	0.570415
	O381	O	-0.112695	0.808342	0.064576
	H382	H	-0.114611	0.831970	0.058668
	H383	H	-0.112970	0.823136	0.042661
	O384	O	0.343913	0.546956	0.523526
	H385	H	0.354519	0.543582	0.524837
	H386	H	0.348873	0.557585	0.525767
	O387	O	0.702149	0.567287	0.473599
	H388	H	0.712535	0.563949	0.452432
	H389	H	0.700013	0.563822	0.460589
	O390	O	1.208637	1.097848	0.023229
	H391	H	1.186826	1.116741	0.030032
	H392	H	1.207952	1.072842	0.037409
	O393	O	1.075006	-0.130114	0.896457
	H394	H	1.070632	-0.130457	0.908209
	H395	H	1.064793	-0.138351	0.911572
	O396	O	0.430050	0.620050	0.687678
	H397	H	0.442862	0.642450	0.679925
	H398	H	0.449790	0.623338	0.681994
	O399	O	0.427856	0.319889	0.464671
	H400	H	0.424002	0.349875	0.471306
	H401	H	0.407380	0.300159	0.469963
	O402	O	0.862978	1.089166	-0.156972
	H403	H	0.857396	1.089203	-0.179925
	H404	H	0.867437	1.122065	-0.159062
	O405	O	0.523325	0.648157	0.685150
	H406	H	0.528789	0.676494	0.699642
	H407	H	0.572414	0.643685	0.677670
	O408	O	0.383494	0.305654	0.689194
	H409	H	0.406390	0.286213	0.707845
	H410	H	0.362334	0.339646	0.690209
	O411	O	0.987210	1.176800	1.153936
	H412	H	0.980888	1.165705	1.169769
	H413	H	0.997927	1.187153	1.170783
	O414	O	0.158986	0.194168	0.762730
	H415	H	0.159609	0.185193	0.738999
	H416	H	0.160579	0.196039	0.765447
	O417	O	-0.203887	0.963896	0.944496
	H418	H	-0.197658	0.967547	0.931130
	H419	H	-0.209071	0.968217	0.942219
	O420	O	-0.201167	0.981471	1.203999
	H421	H	-0.205530	1.001786	1.174335
	H422	H	-0.232435	0.987491	1.224308
	O423	O	0.043265	0.817486	0.170513
	H424	H	0.013299	0.828343	0.177986
	H425	H	0.026407	0.798661	0.177949
	O426	O	0.649240	0.466764	0.665374
	H427	H	0.656461	0.456053	0.671225
	H428	H	0.660102	0.457299	0.646546
	O429	O	0.449243	0.625955	0.343161
	H430	H	0.452225	0.640959	0.339394
	H431	H	0.426089	0.621348	0.346010
	O432	O	0.514816	0.326662	0.669399
	H433	H	0.520126	0.348974	0.678659
	H434	H	0.506864	0.315094	0.687795
	O435	O	0.172186	-0.102315	-0.197850
	H436	H	0.160645	-0.108679	-0.201130
	H437	H	0.192035	-0.093000	-0.215977
	O438	O	0.178094	1.172678	0.957004
	H439	H	0.198980	1.170049	0.951896
	H440	H	0.165720	1.183342	0.952895
	O441	O	0.509666	0.713936	0.496397
	H442	H	0.494809	0.722440	0.494996
	H443	H	0.533256	0.727669	0.506529
