data_Molecule from HDF5

_cell_length_a		16.338647
_cell_length_b		16.182676
_cell_length_c		16.176835
_cell_angle_alpha	89.399583
_cell_angle_beta	90.077904
_cell_angle_gamma	90.568990
_symmetry_space_group_name_H-M	'P 1'
_symmetry_Int_Tables_number		1

loop_
	_symmetry_equiv_pos_as_xyz
	x,y,z

loop_
	_atom_site_label
	_atom_site_type_symbol
	_atom_site_fract_x
	_atom_site_fract_y
	_atom_site_fract_z
	H0	H	0.389273	0.837365	0.709883
	H1	H	0.589789	0.167065	0.705599
	H2	H	0.582705	0.835405	0.283854
	H3	H	0.390720	0.165543	0.277668
	H4	H	0.703176	0.403722	0.832074
	H5	H	0.705116	0.604917	0.158543
	H6	H	0.271585	0.605349	0.830754
	H7	H	0.270515	0.397949	0.157481
	H8	H	0.824526	0.717381	0.393224
	H9	H	0.152048	0.717105	0.592147
	H10	H	0.826967	0.280556	0.599017
	H11	H	0.151897	0.292442	0.398577
	H12	H	0.825183	0.398394	0.711677
	H13	H	0.151040	0.601297	0.710358
	H14	H	0.824402	0.601555	0.277929
	H15	H	0.150233	0.404847	0.279573
	H16	H	0.389083	0.719190	0.830129
	H17	H	0.586154	0.715842	0.159802
	H18	H	0.585015	0.292604	0.829844
	H19	H	0.387572	0.285053	0.158119
	H20	H	0.702254	0.837023	0.394894
	H21	H	0.707845	0.164295	0.593700
	H22	H	0.270825	0.837926	0.595779
	H23	H	0.274709	0.165966	0.390826
	H24	H	0.887721	0.337414	0.209333
	H25	H	0.086022	0.667642	0.205480
	H26	H	0.082468	0.336498	0.784979
	H27	H	0.889734	0.665813	0.778039
	H28	H	0.200615	0.905738	0.329086
	H29	H	0.206392	0.100661	0.658147
	H30	H	0.774001	0.103013	0.330871
	H31	H	0.771047	0.896133	0.657337
	H32	H	0.324869	0.217972	0.892155
	H33	H	0.650638	0.218707	0.091953
	H34	H	0.325171	0.784450	0.093820
	H35	H	0.651465	0.790841	0.897201
	H36	H	0.324376	0.900273	0.209023
	H37	H	0.651032	0.102031	0.208615
	H38	H	0.325394	0.101035	0.776628
	H39	H	0.651248	0.905945	0.781942
	H40	H	0.892004	0.217620	0.330444
	H41	H	0.089150	0.214840	0.660570
	H42	H	0.084059	0.793182	0.328306
	H43	H	0.890109	0.785632	0.658474
	H44	H	0.202247	0.339191	0.894398
	H45	H	0.205240	0.666105	0.093718
	H46	H	0.769011	0.339325	0.098068
	H47	H	0.773719	0.665899	0.892500
	H48	H	0.396737	0.121816	0.593412
	H49	H	0.584439	0.877431	0.606568
	H50	H	0.583389	0.117656	0.403609
	H51	H	0.396478	0.885910	0.404066
	H52	H	0.571477	0.405447	0.112189
	H53	H	0.581783	0.593727	0.878299
	H54	H	0.400436	0.586441	0.107783
	H55	H	0.386837	0.417017	0.876657
	H56	H	0.104775	0.605229	0.403244
	H57	H	0.872226	0.588801	0.590775
	H58	H	0.101766	0.412856	0.585847
	H59	H	0.870653	0.405999	0.401097
	H60	H	0.104749	0.413397	0.594969
	H61	H	0.871244	0.598638	0.586504
	H62	H	0.100317	0.592155	0.404009
	H63	H	0.872445	0.407353	0.407680
	H64	H	0.398540	0.599632	0.112333
	H65	H	0.578347	0.598059	0.878858
	H66	H	0.586250	0.407018	0.115501
	H67	H	0.401287	0.414892	0.879999
	H68	H	0.585419	0.119498	0.399584
	H69	H	0.561997	0.891616	0.583682
	H70	H	0.406215	0.114951	0.579886
	H71	H	0.390442	0.883442	0.405626
	H72	H	0.888015	0.624247	0.091092
	H73	H	0.087336	0.383165	0.086105
	H74	H	0.073633	0.615875	0.907668
	H75	H	0.897457	0.384234	0.898449
	H76	H	0.080045	0.910464	0.610746
	H77	H	0.083436	0.095929	0.377584
	H78	H	0.901004	0.090018	0.610456
	H79	H	0.883796	0.913304	0.373188
	H80	H	0.602238	0.102181	0.908595
	H81	H	0.369860	0.092912	0.093592
	H82	H	0.604869	0.902940	0.085009
	H83	H	0.371940	0.911133	0.900325
	H84	H	0.601869	0.916320	0.086485
	H85	H	0.370350	0.099288	0.083008
	H86	H	0.602539	0.089859	0.897796
	H87	H	0.371166	0.907810	0.902698
	H88	H	0.896005	0.094168	0.613649
	H89	H	0.080425	0.098476	0.378479
	H90	H	0.080807	0.906997	0.611893
	H91	H	0.900645	0.918330	0.380963
	H92	H	0.090078	0.620242	0.906626
	H93	H	0.076756	0.383885	0.096288
	H94	H	0.904983	0.618192	0.089538
	H95	H	0.895226	0.388198	0.912931
	H96	H	0.390123	0.119349	0.577472
	H97	H	0.593304	0.884184	0.573762
	H98	H	0.580053	0.117768	0.399438
	H99	H	0.392856	0.883102	0.399583
	H100	H	0.578071	0.418597	0.109590
	H101	H	0.584279	0.598931	0.875924
	H102	H	0.387771	0.589761	0.113454
	H103	H	0.393649	0.403370	0.874063
	H104	H	0.106078	0.597394	0.392938
	H105	H	0.874669	0.591698	0.580099
	H106	H	0.106053	0.404739	0.590210
	H107	H	0.872696	0.412543	0.402512
	H108	H	0.894525	0.617400	0.075296
	H109	H	0.073795	0.388328	0.081912
	H110	H	0.079386	0.622090	0.892889
	H111	H	0.884144	0.382099	0.905157
	H112	H	0.083434	0.909612	0.611693
	H113	H	0.083179	0.099189	0.376340
	H114	H	0.894873	0.087386	0.611379
	H115	H	0.898027	0.901320	0.374647
	H116	H	0.608252	0.105192	0.893143
	H117	H	0.374660	0.087131	0.082881
	H118	H	0.607454	0.907981	0.096869
	H119	H	0.373389	0.911521	0.904276
	C120	C	0.367427	0.010376	0.614780
	C121	C	0.610271	0.992931	0.615791
	C122	C	0.609670	0.009576	0.372871
	C123	C	0.366015	0.992818	0.372347
	C124	C	0.607735	0.382495	0.003678
	C125	C	0.609783	0.624910	0.986678
	C126	C	0.367051	0.622815	0.002844
	C127	C	0.364788	0.380684	0.985160
	C128	C	-0.004012	0.625801	0.371098
	C129	C	0.980095	0.623028	0.615886
	C130	C	-0.003323	0.379192	0.619132
	C131	C	0.979826	0.381477	0.374592
	C132	C	0.865736	0.511477	0.115810
	C133	C	0.108891	0.493944	0.116003
	C134	C	0.108360	0.510804	0.874098
	C135	C	0.864824	0.493061	0.874291
	C136	C	0.109082	0.881558	0.502489
	C137	C	0.111793	0.125330	0.486305
	C138	C	0.868280	0.121677	0.503465
	C139	C	0.866033	0.879928	0.484954
	C140	C	0.496619	0.126664	0.870225
	C141	C	0.479273	0.123232	0.115273
	C142	C	0.496921	0.878885	0.117821
	C143	C	0.479827	0.881896	0.874017
	C144	C	0.368892	0.886350	0.671431
	C145	C	0.609403	0.117381	0.668852
	C146	C	0.604765	0.885205	0.319738
	C147	C	0.369666	0.116482	0.315397
	C148	C	0.664283	0.384569	0.880520
	C149	C	0.666300	0.623593	0.109651
	C150	C	0.310631	0.623544	0.879378
	C151	C	0.309114	0.379578	0.108615
	C152	C	0.873301	0.679674	0.373411
	C153	C	0.102898	0.679095	0.613131
	C154	C	0.875110	0.320307	0.618133
	C155	C	0.102793	0.328865	0.377370
	C156	C	0.874213	0.378961	0.674173
	C157	C	0.102494	0.621547	0.671939
	C158	C	0.873269	0.622285	0.315773
	C159	C	0.101865	0.384853	0.318221
	C160	C	0.368865	0.680391	0.879233
	C161	C	0.607158	0.679080	0.110409
	C162	C	0.605676	0.329032	0.879443
	C163	C	0.367285	0.323356	0.108964
	C164	C	0.664102	0.885980	0.375135
	C165	C	0.668077	0.115974	0.613272
	C166	C	0.310039	0.886822	0.614904
	C167	C	0.312198	0.116676	0.371968
	C168	C	0.867135	0.387057	0.171993
	C169	C	0.106890	0.617957	0.169429
	C170	C	0.103834	0.386232	0.821314
	C171	C	0.868829	0.616930	0.816829
	C172	C	0.163238	0.885091	0.378312
	C173	C	0.168158	0.121614	0.609442
	C174	C	0.812770	0.121981	0.379748
	C175	C	0.810134	0.878313	0.608667
	C176	C	0.373592	0.180138	0.872433
	C177	C	0.601934	0.180105	0.112763
	C178	C	0.373747	0.822703	0.114633
	C179	C	0.602659	0.827740	0.876903
	C180	C	0.373442	0.880234	0.171907
	C181	C	0.602166	0.121802	0.170454
	C182	C	0.374033	0.122457	0.814435
	C183	C	0.602575	0.884675	0.818934
	C184	C	0.871529	0.178865	0.379567
	C185	C	0.109831	0.178331	0.610713
	C186	C	0.105121	0.829002	0.377917
	C187	C	0.869102	0.823182	0.609125
	C188	C	0.163458	0.387599	0.875789
	C189	C	0.166050	0.617300	0.113629
	C190	C	0.808031	0.387984	0.116661
	C191	C	0.810993	0.616892	0.873385
	C192	C	0.390658	0.096316	0.590627
	C193	C	0.586652	0.906772	0.594324
	C194	C	0.589006	0.095821	0.394253
	C195	C	0.387061	0.906496	0.396284
	C196	C	0.585184	0.404054	0.089897
	C197	C	0.587978	0.603294	0.900106
	C198	C	0.389132	0.598966	0.088956
	C199	C	0.387207	0.404677	0.899214
	C200	C	0.081646	0.604583	0.393520
	C201	C	0.894750	0.599828	0.592831
	C202	C	0.082058	0.403235	0.596843
	C203	C	0.894102	0.402466	0.397225
	C204	C	0.888975	0.597739	0.092138
	C205	C	0.085888	0.407376	0.094644
	C206	C	0.087226	0.597038	0.895983
	C207	C	0.885986	0.407124	0.898347
	C208	C	0.087830	0.902687	0.589250
	C209	C	0.088937	0.104233	0.399777
	C210	C	0.890772	0.097626	0.589480
	C211	C	0.887757	0.904097	0.398585
	C212	C	0.582189	0.105597	0.893132
	C213	C	0.393750	0.099857	0.092992
	C214	C	0.582374	0.902148	0.095870
	C215	C	0.394349	0.903701	0.896135
	Zn216	Zn	0.489147	0.002426	0.743633
	Zn217	Zn	0.487545	0.001276	0.245110
	Zn218	Zn	0.737115	0.502757	-0.004583
	Zn219	Zn	0.237253	0.502142	-0.005683
	Zn220	Zn	-0.011974	0.753602	0.493402
	Zn221	Zn	-0.010831	0.251942	0.496297
	Zn222	Zn	-0.013062	0.501236	0.746775
	Zn223	Zn	-0.013045	0.502234	0.244000
	Zn224	Zn	0.487966	0.752210	-0.005061
	Zn225	Zn	0.487118	0.253932	-0.006359
	Zn226	Zn	0.738515	0.000314	0.494355
	Zn227	Zn	0.238348	0.002315	0.493264
	N228	N	0.403982	0.964016	0.671482
	N229	N	0.574143	0.039734	0.670695
	N230	N	0.571850	0.963128	0.317840
	N231	N	0.402358	0.038495	0.315639
	N232	N	0.665684	0.417063	0.958788
	N233	N	0.668025	0.590623	0.031517
	N234	N	0.309403	0.588361	0.957215
	N235	N	0.307479	0.414495	0.030749
	N236	N	0.950625	0.682109	0.407037
	N237	N	0.025737	0.680105	0.578957
	N238	N	0.952483	0.320243	0.584567
	N239	N	0.025756	0.326616	0.411766
	N240	N	0.950741	0.415112	0.674835
	N241	N	0.024994	0.587375	0.673713
	N242	N	0.950534	0.589398	0.314160
	N243	N	0.024213	0.416969	0.316507
	N244	N	0.403354	0.680007	0.956854
	N245	N	0.572806	0.679949	0.032831
	N246	N	0.571040	0.327779	0.956925
	N247	N	0.401092	0.323464	0.030959
	N248	N	0.667430	0.964274	0.407430
	N249	N	0.668957	0.037586	0.581186
	N250	N	0.309074	0.964931	0.580266
	N251	N	0.309946	0.038702	0.406889
	N252	N	0.902299	0.464745	0.171731
	N253	N	0.072010	0.540173	0.170909
	N254	N	0.070334	0.463992	0.820069
	N255	N	0.901660	0.539068	0.817174
	N256	N	0.166069	0.916986	0.456777
	N257	N	0.169434	0.089469	0.531025
	N258	N	0.810746	0.087127	0.457625
	N259	N	0.807977	0.912774	0.530493
	N260	N	0.450845	0.183023	0.906274
	N261	N	0.524490	0.181127	0.079027
	N262	N	0.451348	0.821585	0.081795
	N263	N	0.525155	0.825811	0.910231
	N264	N	0.450894	0.914516	0.174010
	N265	N	0.524814	0.087357	0.172250
	N266	N	0.451645	0.090085	0.812805
	N267	N	0.525384	0.917769	0.817040
	N268	N	0.905236	0.178936	0.457706
	N269	N	0.075577	0.180747	0.533052
	N270	N	0.072234	0.826624	0.456235
	N271	N	0.902917	0.823788	0.531366
	N272	N	0.166350	0.465949	0.907887
	N273	N	0.167577	0.538929	0.081462
	N274	N	0.807192	0.466294	0.082408
	N275	N	0.808236	0.539116	0.908184
	O276	O	-0.052751	-0.068448	-0.010254
	H277	H	-0.049616	-0.071684	-0.013934
	H278	H	-0.057424	-0.068250	-0.014601
	O279	O	0.390057	0.388786	0.581423
	H280	H	0.384635	0.378249	0.567741
	H281	H	0.391111	0.389740	0.578101
	O282	O	0.485454	0.611445	0.507289
	H283	H	0.482566	0.613651	0.527228
	H284	H	0.488060	0.605012	0.499465
	O285	O	0.380705	1.442889	0.392682
	H286	H	0.375036	1.457513	0.389588
	H287	H	0.380786	1.440604	0.391800
	O288	O	0.479635	0.627638	0.553723
	H289	H	0.476910	0.636036	0.551579
	H290	H	0.480362	0.629249	0.557760
	O291	O	0.992039	1.088808	0.934087
	H292	H	0.980861	1.088761	0.946106
	H293	H	0.996582	1.099722	0.939366
	O294	O	0.974838	0.996119	1.042598
	H295	H	0.976183	0.980822	1.030739
	H296	H	0.974549	0.993050	1.040427
	O297	O	1.042948	0.035119	1.048987
	H298	H	1.053528	0.026065	1.049846
	H299	H	1.037954	0.043202	1.059891
	O300	O	0.610950	0.406858	0.406046
	H301	H	0.622511	0.407574	0.397097
	H302	H	0.617420	0.406041	0.403584
	O303	O	0.990743	-0.052074	0.017308
	H304	H	0.995122	-0.055007	0.014384
	H305	H	0.996010	-0.052051	0.002908
	O306	O	0.006326	1.097684	1.007850
	H307	H	0.006378	1.098726	1.014462
	H308	H	0.007171	1.105284	1.000919
	O309	O	0.433720	0.387466	0.555600
	H310	H	0.429984	0.375307	0.550939
	H311	H	0.440683	0.386938	0.547182
	O312	O	1.050109	0.046987	1.000398
	H313	H	1.049955	0.043278	1.002287
	H314	H	1.054605	0.056635	1.005577
	O315	O	0.718499	0.767931	0.233585
	H316	H	0.719981	0.764140	0.232361
	H317	H	0.726869	0.764619	0.227255
	O318	O	0.494334	0.522910	0.484222
	H319	H	0.476044	0.527214	0.492391
	H320	H	0.495372	0.518864	0.486013
	O321	O	1.043041	0.984455	1.036469
	H322	H	1.038791	0.990787	1.027786
	H323	H	1.041245	0.990932	1.043202
	O324	O	0.424617	0.537647	0.450804
	H325	H	0.424351	0.530438	0.451403
	H326	H	0.431316	0.546659	0.453639
	O327	O	0.521412	0.578333	0.459160
	H328	H	0.521893	0.588357	0.452263
	H329	H	0.517874	0.572018	0.469572
	O330	O	0.915609	0.020466	0.974696
	H331	H	0.920350	0.027143	0.980800
	H332	H	0.915573	0.017773	0.980732
	O333	O	0.992878	1.012479	0.036993
	H334	H	0.988027	1.013794	0.044065
	H335	H	0.999185	1.016776	0.037922
	O336	O	0.491735	0.453043	0.592257
	H337	H	0.491072	0.449175	0.592294
	H338	H	0.496596	0.455245	0.589787
	O339	O	0.435009	0.551614	0.460857
	H340	H	0.424865	0.541168	0.461905
	H341	H	0.435923	0.558612	0.464567
	O342	O	0.515901	0.500123	0.391578
	H343	H	0.520467	0.507145	0.395580
	H344	H	0.511351	0.510461	0.388180
	O345	O	-0.077917	-0.006356	-0.089010
	H346	H	-0.082481	-0.006454	-0.093405
	H347	H	-0.088390	-0.003144	-0.099894
	O348	O	0.477152	0.542612	0.498707
	H349	H	0.473247	0.539548	0.507175
	H350	H	0.474288	0.549125	0.496149
	O351	O	0.502881	0.619529	0.570560
	H352	H	0.504794	0.607830	0.575544
	H353	H	0.496251	0.608871	0.571321
	O354	O	0.457279	0.441171	0.566117
	H355	H	0.464993	0.426465	0.561946
	H356	H	0.454250	0.442451	0.573710
	O357	O	0.502657	0.543077	0.504852
	H358	H	0.492985	0.550409	0.502795
	H359	H	0.508549	0.545240	0.505296
	O360	O	0.596541	-0.532521	0.443157
	H361	H	0.599901	-0.520127	0.438854
	H362	H	0.609653	-0.535757	0.436897
	O363	O	0.557508	0.415685	0.418126
	H364	H	0.554799	0.424064	0.410042
	H365	H	0.550498	0.407969	0.420458
	O366	O	-0.042037	0.046351	1.064534
	H367	H	-0.045311	0.042122	1.071695
	H368	H	-0.048583	0.028398	1.069150
	O369	O	0.495681	0.489315	0.564276
	H370	H	0.491143	0.489506	0.565941
	H371	H	0.492157	0.480987	0.587732
