data_Molecule from HDF5

_cell_length_a		16.308062
_cell_length_b		16.181544
_cell_length_c		16.195976
_cell_angle_alpha	89.731863
_cell_angle_beta	90.120649
_cell_angle_gamma	89.901924
_symmetry_space_group_name_H-M	'P 1'
_symmetry_Int_Tables_number		1

loop_
	_symmetry_equiv_pos_as_xyz
	x,y,z

loop_
	_atom_site_label
	_atom_site_type_symbol
	_atom_site_fract_x
	_atom_site_fract_y
	_atom_site_fract_z
	H0	H	0.406941	0.834376	0.703733
	H1	H	0.601937	0.164481	0.700518
	H2	H	0.601877	0.835211	0.277715
	H3	H	0.404816	0.163913	0.275074
	H4	H	0.720253	0.399873	0.826099
	H5	H	0.720888	0.598623	0.153741
	H6	H	0.289495	0.598290	0.825519
	H7	H	0.290875	0.398708	0.154466
	H8	H	0.840139	0.713442	0.390789
	H9	H	0.167390	0.712961	0.589432
	H10	H	0.839834	0.284969	0.588352
	H11	H	0.167527	0.284862	0.393183
	H12	H	0.840557	0.398883	0.705790
	H13	H	0.167102	0.596663	0.704525
	H14	H	0.841230	0.599160	0.273302
	H15	H	0.168673	0.401789	0.277697
	H16	H	0.406160	0.713598	0.824955
	H17	H	0.602840	0.712122	0.154869
	H18	H	0.602467	0.285722	0.825098
	H19	H	0.407979	0.284408	0.155172
	H20	H	0.720529	0.835852	0.390468
	H21	H	0.719375	0.162976	0.588985
	H22	H	0.289744	0.834860	0.591599
	H23	H	0.288358	0.163342	0.388953
	H24	H	0.907291	0.334286	0.204334
	H25	H	0.102059	0.663737	0.201860
	H26	H	0.102181	0.333544	0.777477
	H27	H	0.904822	0.663202	0.773985
	H28	H	0.218808	0.899540	0.325912
	H29	H	0.220420	0.097969	0.654082
	H30	H	0.788326	0.101689	0.326495
	H31	H	0.790023	0.899978	0.654453
	H32	H	0.341167	0.214969	0.890449
	H33	H	0.668079	0.210819	0.087792
	H34	H	0.340603	0.784727	0.088188
	H35	H	0.667613	0.783238	0.889989
	H36	H	0.341145	0.900513	0.205372
	H37	H	0.667176	0.098072	0.205419
	H38	H	0.340855	0.099131	0.773070
	H39	H	0.668631	0.900622	0.775989
	H40	H	0.906245	0.213212	0.324902
	H41	H	0.101558	0.210671	0.655654
	H42	H	0.100899	0.786740	0.324924
	H43	H	0.905643	0.784017	0.654425
	H44	H	0.220268	0.334478	0.890736
	H45	H	0.218986	0.662998	0.087603
	H46	H	0.789862	0.335657	0.092498
	H47	H	0.788752	0.663127	0.888502
	H48	H	0.420941	0.113168	0.576017
	H49	H	0.606956	0.876293	0.590202
	H50	H	0.591982	0.116848	0.393779
	H51	H	0.405459	0.880060	0.397402
	H52	H	0.595238	0.401293	0.107341
	H53	H	0.602609	0.589439	0.872341
	H54	H	0.405216	0.605161	0.113517
	H55	H	0.414310	0.407617	0.873401
	H56	H	0.120169	0.587652	0.393004
	H57	H	0.887582	0.588208	0.585463
	H58	H	0.119744	0.402914	0.578313
	H59	H	0.889952	0.412825	0.399123
	H60	H	0.119647	0.410885	0.586571
	H61	H	0.886424	0.595247	0.582102
	H62	H	0.123241	0.597990	0.393049
	H63	H	0.886220	0.406444	0.389582
	H64	H	0.402577	0.578063	0.105778
	H65	H	0.592208	0.587115	0.876110
	H66	H	0.604199	0.403144	0.109132
	H67	H	0.410978	0.403264	0.872427
	H68	H	0.596979	0.115416	0.403391
	H69	H	0.587170	0.883556	0.586549
	H70	H	0.400667	0.116891	0.574909
	H71	H	0.414593	0.882144	0.394059
	H72	H	0.914541	0.617386	0.085306
	H73	H	0.099349	0.381048	0.081801
	H74	H	0.088617	0.614821	0.891323
	H75	H	0.922449	0.383678	0.894181
	H76	H	0.093892	0.900294	0.607955
	H77	H	0.094535	0.083593	0.376673
	H78	H	0.922284	0.097334	0.605615
	H79	H	0.922610	0.907050	0.375721
	H80	H	0.622167	0.099039	0.899884
	H81	H	0.388604	0.084321	0.083802
	H82	H	0.619080	0.906088	0.078545
	H83	H	0.389088	0.902912	0.903274
	H84	H	0.620374	0.908974	0.087570
	H85	H	0.384282	0.096571	0.087583
	H86	H	0.618599	0.086653	0.898047
	H87	H	0.390677	0.915164	0.896492
	H88	H	0.900633	0.098658	0.612949
	H89	H	0.090786	0.100349	0.372762
	H90	H	0.103999	0.906070	0.608999
	H91	H	0.904837	0.899075	0.368786
	H92	H	0.096425	0.612242	0.906954
	H93	H	0.100885	0.380107	0.085672
	H94	H	0.914907	0.614932	0.077193
	H95	H	0.910425	0.384659	0.910093
	H96	H	0.410651	0.119917	0.592233
	H97	H	0.600997	0.884277	0.571739
	H98	H	0.602494	0.119467	0.394626
	H99	H	0.412214	0.883796	0.403516
	H100	H	0.597862	0.409761	0.105496
	H101	H	0.594948	0.597198	0.871337
	H102	H	0.426840	0.590589	0.103000
	H103	H	0.408690	0.408319	0.871974
	H104	H	0.119208	0.594058	0.402055
	H105	H	0.889054	0.590175	0.577827
	H106	H	0.123088	0.399915	0.587964
	H107	H	0.886949	0.401724	0.399984
	H108	H	0.907575	0.617337	0.080878
	H109	H	0.097158	0.380827	0.085349
	H110	H	0.105716	0.619597	0.893915
	H111	H	0.903829	0.378209	0.892660
	H112	H	0.094627	0.912005	0.604493
	H113	H	0.106421	0.093515	0.369414
	H114	H	0.908276	0.078931	0.604520
	H115	H	0.905545	0.918692	0.374433
	H116	H	0.622967	0.093369	0.888204
	H117	H	0.389241	0.094410	0.074960
	H118	H	0.622720	0.900786	0.085352
	H119	H	0.386061	0.904138	0.889041
	C120	C	0.382793	0.007603	0.610944
	C121	C	0.626536	0.990308	0.611005
	C122	C	0.625891	0.008482	0.368923
	C123	C	0.382068	0.990816	0.368824
	C124	C	0.626916	0.376610	-0.001386
	C125	C	0.625853	0.620197	0.981661
	C126	C	0.382541	0.620698	-0.001443
	C127	C	0.383566	0.377337	0.981602
	C128	C	0.012862	0.621638	0.367397
	C129	C	0.995613	0.619519	0.610890
	C130	C	0.012530	0.376167	0.612731
	C131	C	0.995851	0.378130	0.368522
	C132	C	0.884114	0.507712	0.110944
	C133	C	0.127042	0.490034	0.111938
	C134	C	0.125761	0.507000	0.868713
	C135	C	0.882665	0.490447	0.868661
	C136	C	0.125596	0.877653	0.498325
	C137	C	0.125532	0.120231	0.481923
	C138	C	0.882349	0.121237	0.498696
	C139	C	0.882741	0.878751	0.481701
	C140	C	0.512881	0.121723	0.866693
	C141	C	0.495566	0.120126	0.111154
	C142	C	0.512724	0.876792	0.112377
	C143	C	0.496494	0.877992	0.867782
	C144	C	0.386453	0.883531	0.666105
	C145	C	0.623205	0.114801	0.664441
	C146	C	0.623065	0.884399	0.314738
	C147	C	0.384425	0.114533	0.312883
	C148	C	0.682134	0.379222	0.874871
	C149	C	0.682033	0.618420	0.104993
	C150	C	0.327227	0.618726	0.874819
	C151	C	0.329088	0.379110	0.105701
	C152	C	0.889398	0.676475	0.369445
	C153	C	0.118618	0.674856	0.609225
	C154	C	0.889047	0.321890	0.609483
	C155	C	0.118912	0.322917	0.372257
	C156	C	0.889296	0.378697	0.667709
	C157	C	0.118601	0.616990	0.666424
	C158	C	0.889799	0.619146	0.311615
	C159	C	0.119468	0.381004	0.314747
	C160	C	0.385218	0.675877	0.874391
	C161	C	0.623234	0.674676	0.105587
	C162	C	0.623614	0.322617	0.874462
	C163	C	0.386714	0.321953	0.105800
	C164	C	0.682195	0.884937	0.370479
	C165	C	0.681173	0.114276	0.608471
	C166	C	0.327611	0.884048	0.610496
	C167	C	0.326539	0.114342	0.369592
	C168	C	0.886718	0.383772	0.166604
	C169	C	0.123504	0.614332	0.165479
	C170	C	0.123207	0.382895	0.814673
	C171	C	0.884477	0.614040	0.811957
	C172	C	0.180729	0.879683	0.374863
	C173	C	0.181446	0.117949	0.605408
	C174	C	0.826880	0.120243	0.375158
	C175	C	0.827778	0.879838	0.605393
	C176	C	0.389658	0.176451	0.869737
	C177	C	0.619006	0.174034	0.108659
	C178	C	0.389694	0.821941	0.109307
	C179	C	0.619052	0.821862	0.870276
	C180	C	0.389885	0.879309	0.167590
	C181	C	0.618445	0.117917	0.167081
	C182	C	0.389714	0.119085	0.811505
	C183	C	0.619529	0.880086	0.813304
	C184	C	0.885505	0.176055	0.374487
	C185	C	0.122735	0.174230	0.605934
	C186	C	0.122119	0.823498	0.374355
	C187	C	0.884985	0.821983	0.605213
	C188	C	0.181854	0.383481	0.870898
	C189	C	0.181452	0.614139	0.108531
	C190	C	0.828651	0.384167	0.110530
	C191	C	0.826371	0.613879	0.868597
	C192	C	0.404529	0.094385	0.587890
	C193	C	0.604874	0.903737	0.589323
	C194	C	0.603711	0.094900	0.390831
	C195	C	0.404409	0.904218	0.391655
	C196	C	0.605361	0.398271	0.084896
	C197	C	0.603381	0.597857	0.895653
	C198	C	0.404936	0.597919	0.085013
	C199	C	0.405007	0.399893	0.894929
	C200	C	0.098683	0.599656	0.389570
	C201	C	0.909813	0.597691	0.588340
	C202	C	0.098469	0.398040	0.590862
	C203	C	0.910021	0.400525	0.389965
	C204	C	0.905999	0.594180	0.087769
	C205	C	0.105493	0.403342	0.090562
	C206	C	0.103316	0.593232	0.890772
	C207	C	0.905577	0.404185	0.892126
	C208	C	0.103901	0.899709	0.584571
	C209	C	0.103705	0.098598	0.395325
	C210	C	0.904137	0.098341	0.585286
	C211	C	0.904728	0.901498	0.395346
	C212	C	0.598717	0.099503	0.888901
	C213	C	0.409592	0.098211	0.088638
	C214	C	0.598504	0.898933	0.090425
	C215	C	0.410714	0.900716	0.889882
	Zn216	Zn	0.504901	-0.000727	0.738020
	Zn217	Zn	0.504157	-0.000634	0.240753
	Zn218	Zn	0.755449	0.499067	-0.009982
	Zn219	Zn	0.254853	0.498318	-0.009860
	Zn220	Zn	0.003988	0.749610	0.489919
	Zn221	Zn	0.003566	0.248932	0.490419
	Zn222	Zn	0.004132	0.498504	0.740389
	Zn223	Zn	0.004855	0.499342	0.239060
	Zn224	Zn	0.504447	0.748929	-0.009954
	Zn225	Zn	0.504539	0.249047	-0.009697
	Zn226	Zn	0.754228	-0.000334	0.490001
	Zn227	Zn	0.254227	-0.000914	0.489782
	N228	N	0.420019	0.961538	0.666477
	N229	N	0.589750	0.036844	0.666037
	N230	N	0.588932	0.962030	0.313604
	N231	N	0.418526	0.036687	0.312632
	N232	N	0.684651	0.412140	0.953040
	N233	N	0.683829	0.585276	0.027044
	N234	N	0.325655	0.585197	0.953087
	N235	N	0.326936	0.412798	0.027482
	N236	N	0.966651	0.678283	0.403457
	N237	N	0.041270	0.676666	0.575569
	N238	N	0.966497	0.320223	0.576125
	N239	N	0.041131	0.321009	0.404841
	N240	N	0.967146	0.411692	0.669985
	N241	N	0.041077	0.583374	0.667792
	N242	N	0.967648	0.585992	0.309914
	N243	N	0.042061	0.414710	0.312515
	N244	N	0.418709	0.677517	0.952419
	N245	N	0.588900	0.675961	0.027863
	N246	N	0.589979	0.321016	0.952222
	N247	N	0.419752	0.320704	0.027682
	N248	N	0.684111	0.963251	0.403354
	N249	N	0.683347	0.035923	0.575866
	N250	N	0.325450	0.962222	0.576756
	N251	N	0.324914	0.036367	0.403507
	N252	N	0.920494	0.461609	0.166938
	N253	N	0.090624	0.536252	0.167671
	N254	N	0.089030	0.460690	0.813068
	N255	N	0.918743	0.536200	0.811819
	N256	N	0.183183	0.912705	0.453066
	N257	N	0.183429	0.085309	0.527129
	N258	N	0.824611	0.087040	0.453454
	N259	N	0.826297	0.914381	0.527552
	N260	N	0.467113	0.178213	0.903298
	N261	N	0.541638	0.175663	0.074543
	N262	N	0.467112	0.820362	0.075772
	N263	N	0.541477	0.820452	0.903502
	N264	N	0.467271	0.912848	0.169298
	N265	N	0.540665	0.085146	0.168871
	N266	N	0.467441	0.085896	0.809238
	N267	N	0.542321	0.914401	0.811690
	N268	N	0.919263	0.176674	0.452435
	N269	N	0.088610	0.175721	0.528088
	N270	N	0.088673	0.822221	0.452090
	N271	N	0.918308	0.821076	0.527284
	N272	N	0.183414	0.461607	0.903931
	N273	N	0.183829	0.535620	0.076147
	N274	N	0.826786	0.462327	0.076674
	N275	N	0.825321	0.535999	0.903118
	O276	O	0.958895	0.949608	0.037201
	H277	H	0.953239	0.943949	0.039460
	H278	H	0.958818	0.948283	0.040807
	O279	O	0.485158	-0.383088	1.441690
	H280	H	0.486633	-0.377963	1.431579
	H281	H	0.488874	-0.386297	1.437511
	O282	O	-0.010516	0.061456	-0.064766
	H283	H	-0.008001	0.055839	-0.073076
	H284	H	-0.010116	0.060608	-0.064116
	O285	O	0.520877	0.496823	0.536356
	H286	H	0.514888	0.495400	0.531709
	H287	H	0.520961	0.501270	0.540537
	O288	O	0.037890	-0.043514	-0.034108
	H289	H	0.035705	-0.040894	-0.036489
	H290	H	0.033527	-0.053735	-0.037151
	O291	O	-0.045407	0.930208	0.077476
	H292	H	-0.043595	0.924355	0.081379
	H293	H	-0.037617	0.930022	0.084687
	O294	O	0.001692	0.962688	-0.033528
	H295	H	-0.001968	0.968092	-0.022538
	H296	H	-0.001342	0.969159	-0.030613
	O297	O	0.481758	0.560466	0.487590
	H298	H	0.472038	0.566157	0.480145
	H299	H	0.486368	0.548973	0.480604
	O300	O	0.530072	0.501841	0.485384
	H301	H	0.523845	0.506841	0.492536
	H302	H	0.534242	0.496163	0.485360
	O303	O	0.949916	-0.007730	1.013610
	H304	H	0.946836	-0.008223	1.022725
	H305	H	0.934358	-0.002153	1.010585
	O306	O	-0.012330	0.965021	0.966108
	H307	H	0.001145	0.964635	0.964339
	H308	H	-0.022460	0.975635	0.960398
	O309	O	-0.070887	0.922784	0.993424
	H310	H	-0.073915	0.924080	0.994316
	H311	H	-0.063299	0.922913	0.992198
	O312	O	0.011385	0.024311	0.968256
	H313	H	0.005328	0.021977	0.965239
	H314	H	0.018035	0.027624	0.974755
	O315	O	0.484271	0.505406	0.489570
	H316	H	0.479221	0.505515	0.483544
	H317	H	0.481087	0.512592	0.497470
	O318	O	0.070694	-0.059613	0.981407
	H319	H	0.070887	-0.056444	0.976618
	H320	H	0.072879	-0.050910	0.979396
	O321	O	0.050795	0.958865	0.983189
	H322	H	0.053503	0.953731	0.973740
	H323	H	0.047806	0.965591	0.971210
	O324	O	1.033569	-0.029973	0.900668
	H325	H	1.035566	-0.028850	0.898483
	H326	H	1.041203	-0.024893	0.897259
	O327	O	0.929588	1.035374	1.040201
	H328	H	0.930471	1.025282	1.041990
	H329	H	0.919088	1.035303	1.041247
	O330	O	0.497077	0.446287	0.491609
	H331	H	0.506243	0.448716	0.499760
	H332	H	0.493806	0.443588	0.478458
	O333	O	0.482536	0.488439	0.485543
	H334	H	0.471682	0.498067	0.487203
	H335	H	0.477481	0.486716	0.480233
	O336	O	0.508982	0.497932	0.514617
	H337	H	0.509901	0.502362	0.518367
	H338	H	0.506633	0.505232	0.510718
	O339	O	0.460419	0.518897	0.498882
	H340	H	0.455611	0.523080	0.493456
	H341	H	0.453053	0.525912	0.495760
	O342	O	0.478910	0.486295	0.431818
	H343	H	0.476619	0.482275	0.435530
	H344	H	0.482007	0.483705	0.435475
	O345	O	0.521618	0.513786	0.434782
	H346	H	0.520548	0.509503	0.436298
	H347	H	0.524273	0.519524	0.433590
