data_Molecule from HDF5

_cell_length_a		16.189273
_cell_length_b		16.180994
_cell_length_c		16.278742
_cell_angle_alpha	89.839487
_cell_angle_beta	90.025092
_cell_angle_gamma	90.370386
_symmetry_space_group_name_H-M	'P 1'
_symmetry_Int_Tables_number		1

loop_
	_symmetry_equiv_pos_as_xyz
	x,y,z

loop_
	_atom_site_label
	_atom_site_type_symbol
	_atom_site_fract_x
	_atom_site_fract_y
	_atom_site_fract_z
	H0	H	0.399034	0.833998	0.704204
	H1	H	0.601641	0.162686	0.703035
	H2	H	0.598818	0.833664	0.275542
	H3	H	0.402096	0.162392	0.271897
	H4	H	0.715367	0.400272	0.824250
	H5	H	0.717233	0.596938	0.151676
	H6	H	0.289364	0.596270	0.824530
	H7	H	0.286097	0.397990	0.151222
	H8	H	0.836474	0.711326	0.388685
	H9	H	0.165169	0.714571	0.585357
	H10	H	0.836545	0.283089	0.585621
	H11	H	0.166594	0.286666	0.390733
	H12	H	0.837537	0.396812	0.703757
	H13	H	0.165578	0.599537	0.701394
	H14	H	0.837546	0.597359	0.272174
	H15	H	0.166154	0.400301	0.274154
	H16	H	0.403684	0.712444	0.825270
	H17	H	0.600853	0.711648	0.152879
	H18	H	0.599887	0.284571	0.824411
	H19	H	0.402807	0.283066	0.151884
	H20	H	0.712827	0.833743	0.390685
	H21	H	0.716885	0.162496	0.586653
	H22	H	0.286171	0.833419	0.586620
	H23	H	0.289487	0.163867	0.390343
	H24	H	0.900633	0.334649	0.203804
	H25	H	0.103000	0.662961	0.202068
	H26	H	0.101089	0.334028	0.772818
	H27	H	0.903811	0.662569	0.772657
	H28	H	0.213922	0.901517	0.324052
	H29	H	0.216343	0.098486	0.651543
	H30	H	0.786494	0.097148	0.323795
	H31	H	0.786416	0.899112	0.651482
	H32	H	0.336682	0.211447	0.889083
	H33	H	0.666185	0.212647	0.086138
	H34	H	0.337737	0.782789	0.087067
	H35	H	0.666202	0.786146	0.891531
	H36	H	0.337304	0.897307	0.202622
	H37	H	0.665673	0.098883	0.203317
	H38	H	0.336846	0.097923	0.772223
	H39	H	0.664983	0.898612	0.772896
	H40	H	0.902757	0.211772	0.323782
	H41	H	0.099713	0.212298	0.651943
	H42	H	0.097922	0.786261	0.323553
	H43	H	0.900616	0.781864	0.650559
	H44	H	0.213583	0.333188	0.890052
	H45	H	0.216587	0.663117	0.084778
	H46	H	0.786472	0.333822	0.086907
	H47	H	0.789685	0.663197	0.888658
	H48	H	0.415194	0.114468	0.585940
	H49	H	0.589251	0.879676	0.588255
	H50	H	0.578450	0.114786	0.381687
	H51	H	0.408013	0.884061	0.404662
	H52	H	0.588248	0.407221	0.102868
	H53	H	0.594862	0.597315	0.870691
	H54	H	0.406823	0.589828	0.106375
	H55	H	0.410408	0.393423	0.869409
	H56	H	0.119030	0.594947	0.397282
	H57	H	0.881657	0.592027	0.585791
	H58	H	0.118466	0.401659	0.574860
	H59	H	0.881417	0.405862	0.388447
	H60	H	0.116333	0.412747	0.580424
	H61	H	0.883967	0.592777	0.575190
	H62	H	0.117860	0.588914	0.394709
	H63	H	0.883643	0.399260	0.398297
	H64	H	0.409369	0.588572	0.104920
	H65	H	0.598835	0.589638	0.871400
	H66	H	0.595201	0.397711	0.107066
	H67	H	0.397024	0.408141	0.868535
	H68	H	0.590481	0.109782	0.414082
	H69	H	0.588879	0.883383	0.576488
	H70	H	0.409869	0.113775	0.573717
	H71	H	0.397606	0.876622	0.392020
	H72	H	0.914421	0.613424	0.077377
	H73	H	0.099865	0.376538	0.086893
	H74	H	0.097689	0.616898	0.891112
	H75	H	0.907553	0.382573	0.903447
	H76	H	0.086608	0.890846	0.607718
	H77	H	0.092904	0.102030	0.368808
	H78	H	0.899197	0.083700	0.604745
	H79	H	0.906960	0.908361	0.372360
	H80	H	0.617546	0.096695	0.902350
	H81	H	0.383941	0.092071	0.079308
	H82	H	0.618815	0.911367	0.085942
	H83	H	0.385460	0.911161	0.894849
	H84	H	0.622984	0.900808	0.085490
	H85	H	0.385051	0.086746	0.079480
	H86	H	0.615396	0.082083	0.895736
	H87	H	0.380745	0.901174	0.890290
	H88	H	0.918485	0.086046	0.600819
	H89	H	0.104435	0.089824	0.368854
	H90	H	0.108403	0.909882	0.608075
	H91	H	0.907891	0.901334	0.369498
	H92	H	0.092865	0.615141	0.892378
	H93	H	0.082709	0.382942	0.084896
	H94	H	0.904836	0.616424	0.077846
	H95	H	0.900696	0.376672	0.890370
	H96	H	0.401585	0.118090	0.584106
	H97	H	0.600061	0.879158	0.581625
	H98	H	0.611282	0.123270	0.389547
	H99	H	0.414334	0.881402	0.388630
	H100	H	0.599835	0.409517	0.105368
	H101	H	0.591006	0.590594	0.873153
	H102	H	0.409540	0.591554	0.106044
	H103	H	0.415432	0.411798	0.874899
	H104	H	0.120794	0.594255	0.390601
	H105	H	0.885678	0.583320	0.580761
	H106	H	0.121481	0.403695	0.587077
	H107	H	0.886701	0.410602	0.397765
	H108	H	0.910934	0.617218	0.085371
	H109	H	0.093961	0.383757	0.071773
	H110	H	0.096540	0.616078	0.896066
	H111	H	0.915366	0.382287	0.890540
	H112	H	0.083007	0.917603	0.598003
	H113	H	0.089174	0.086050	0.375437
	H114	H	0.907837	0.100882	0.607548
	H115	H	0.901521	0.904509	0.368754
	H116	H	0.621592	0.094930	0.886507
	H117	H	0.383753	0.089452	0.083872
	H118	H	0.617925	0.906166	0.076671
	H119	H	0.384756	0.900793	0.900983
	C120	C	0.379181	0.006879	0.610195
	C121	C	0.622392	0.989681	0.609904
	C122	C	0.621782	0.007047	0.367025
	C123	C	0.378889	0.989828	0.366221
	C124	C	0.622983	0.376808	-0.003351
	C125	C	0.624032	0.620756	0.979934
	C126	C	0.380196	0.619165	-0.002714
	C127	C	0.378882	0.375503	0.979020
	C128	C	0.010231	0.620262	0.365566
	C129	C	0.992604	0.619579	0.608788
	C130	C	0.010069	0.376521	0.609628
	C131	C	0.992722	0.376839	0.366330
	C132	C	0.880077	0.507180	0.109331
	C133	C	0.122494	0.489962	0.109119
	C134	C	0.123415	0.506878	0.865637
	C135	C	0.880400	0.489427	0.866108
	C136	C	0.121273	0.877824	0.496255
	C137	C	0.123827	0.121171	0.479174
	C138	C	0.879660	0.119351	0.496152
	C139	C	0.877227	0.875604	0.478603
	C140	C	0.509749	0.119967	0.865891
	C141	C	0.492828	0.119362	0.110063
	C142	C	0.510883	0.876501	0.110555
	C143	C	0.492425	0.876638	0.867524
	C144	C	0.379891	0.882920	0.665590
	C145	C	0.621186	0.113697	0.664706
	C146	C	0.618759	0.882859	0.313220
	C147	C	0.381600	0.113260	0.310100
	C148	C	0.677810	0.379609	0.873419
	C149	C	0.679388	0.617388	0.102896
	C150	C	0.326529	0.616863	0.873538
	C151	C	0.323383	0.377475	0.102403
	C152	C	0.885909	0.674133	0.368324
	C153	C	0.116364	0.676061	0.605674
	C154	C	0.885911	0.320765	0.606641
	C155	C	0.116912	0.323152	0.369457
	C156	C	0.886387	0.377236	0.665350
	C157	C	0.116408	0.618754	0.663306
	C158	C	0.886527	0.617881	0.310098
	C159	C	0.116821	0.380084	0.311646
	C160	C	0.383544	0.674641	0.874209
	C161	C	0.621631	0.674523	0.103604
	C162	C	0.620347	0.322109	0.873405
	C163	C	0.381592	0.320455	0.102744
	C164	C	0.675555	0.882884	0.370347
	C165	C	0.678585	0.113444	0.607079
	C166	C	0.323571	0.882629	0.607399
	C167	C	0.325888	0.114199	0.369243
	C168	C	0.880918	0.383407	0.165494
	C169	C	0.122104	0.613888	0.163733
	C170	C	0.120938	0.383247	0.810423
	C171	C	0.883475	0.613554	0.810672
	C172	C	0.175982	0.881170	0.372844
	C173	C	0.178494	0.118612	0.602738
	C174	C	0.824494	0.117213	0.372874
	C175	C	0.823073	0.877897	0.602107
	C176	C	0.385831	0.174452	0.868396
	C177	C	0.616807	0.175149	0.107278
	C178	C	0.386691	0.820692	0.107473
	C179	C	0.616781	0.823223	0.870538
	C180	C	0.386593	0.877644	0.164867
	C181	C	0.616528	0.118546	0.165404
	C182	C	0.385944	0.117883	0.810340
	C183	C	0.616124	0.879148	0.811586
	C184	C	0.881935	0.174546	0.372878
	C185	C	0.120606	0.175428	0.602816
	C186	C	0.118396	0.823755	0.372555
	C187	C	0.880006	0.819915	0.601786
	C188	C	0.176786	0.382597	0.868877
	C189	C	0.178857	0.613725	0.105684
	C190	C	0.824163	0.383164	0.107419
	C191	C	0.826471	0.613768	0.868245
	C192	C	0.401918	0.093078	0.588087
	C193	C	0.599470	0.903202	0.588413
	C194	C	0.599841	0.093672	0.388711
	C195	C	0.400274	0.903110	0.388516
	C196	C	0.600740	0.398388	0.082822
	C197	C	0.601640	0.599028	0.893826
	C198	C	0.401983	0.596567	0.083446
	C199	C	0.401009	0.397859	0.893238
	C200	C	0.096881	0.598825	0.387425
	C201	C	0.906115	0.596310	0.586821
	C202	C	0.096369	0.399458	0.587400
	C203	C	0.906195	0.398859	0.388369
	C204	C	0.903205	0.593381	0.086782
	C205	C	0.099100	0.403432	0.087419
	C206	C	0.102026	0.593395	0.886961
	C207	C	0.901625	0.402856	0.888133
	C208	C	0.099090	0.899506	0.582362
	C209	C	0.101918	0.099176	0.393220
	C210	C	0.902016	0.096818	0.582151
	C211	C	0.899098	0.898016	0.392586
	C212	C	0.595957	0.097944	0.888313
	C213	C	0.406437	0.096200	0.087503
	C214	C	0.597516	0.899314	0.089009
	C215	C	0.405912	0.897881	0.889132
	Zn216	Zn	0.501056	-0.002160	0.738744
	Zn217	Zn	0.501468	-0.002106	0.238214
	Zn218	Zn	0.751972	0.498624	-0.012401
	Zn219	Zn	0.250947	0.497709	-0.012805
	Zn220	Zn	0.000387	0.748082	0.487334
	Zn221	Zn	0.001189	0.248473	0.487409
	Zn222	Zn	0.001591	0.498265	0.737483
	Zn223	Zn	0.001844	0.498401	0.237949
	Zn224	Zn	0.501875	0.748724	-0.010714
	Zn225	Zn	0.501335	0.247560	-0.012022
	Zn226	Zn	0.749929	-0.001781	0.487752
	Zn227	Zn	0.251035	-0.001501	0.488551
	N228	N	0.413910	0.960963	0.667548
	N229	N	0.586961	0.035494	0.666907
	N230	N	0.586004	0.961116	0.311029
	N231	N	0.413892	0.034977	0.308183
	N232	N	0.679471	0.412794	0.951060
	N233	N	0.681139	0.584565	0.024860
	N234	N	0.324433	0.583081	0.950956
	N235	N	0.321500	0.410816	0.024475
	N236	N	0.963805	0.675875	0.402175
	N237	N	0.038209	0.676577	0.572420
	N238	N	0.963764	0.320056	0.572831
	N239	N	0.038799	0.321375	0.402867
	N240	N	0.964483	0.411098	0.667365
	N241	N	0.038452	0.584517	0.665338
	N242	N	0.964809	0.585249	0.308231
	N243	N	0.038459	0.412678	0.309493
	N244	N	0.416143	0.676231	0.952358
	N245	N	0.587970	0.676695	0.026066
	N246	N	0.586931	0.320204	0.951169
	N247	N	0.415163	0.318896	0.025166
	N248	N	0.677637	0.961261	0.403098
	N249	N	0.679376	0.035398	0.574015
	N250	N	0.322942	0.960668	0.573419
	N251	N	0.324113	0.036293	0.403704
	N252	N	0.914935	0.461501	0.167080
	N253	N	0.087760	0.535827	0.165892
	N254	N	0.088418	0.461633	0.808237
	N255	N	0.916189	0.535266	0.809157
	N256	N	0.177909	0.914140	0.450795
	N257	N	0.180621	0.085457	0.525037
	N258	N	0.822800	0.083648	0.450516
	N259	N	0.821358	0.911634	0.524541
	N260	N	0.463726	0.175827	0.902408
	N261	N	0.538898	0.175736	0.073423
	N262	N	0.464890	0.819756	0.074519
	N263	N	0.539096	0.821634	0.904604
	N264	N	0.464748	0.911631	0.167107
	N265	N	0.538468	0.084524	0.167174
	N266	N	0.463915	0.084621	0.808844
	N267	N	0.537739	0.911720	0.809523
	N268	N	0.915500	0.176163	0.450630
	N269	N	0.087187	0.177128	0.525074
	N270	N	0.084832	0.821746	0.450201
	N271	N	0.913083	0.818278	0.523987
	N272	N	0.178586	0.460456	0.902489
	N273	N	0.179192	0.535692	0.072317
	N274	N	0.823778	0.460959	0.073048
	N275	N	0.824386	0.535757	0.902176
	O276	O	0.949980	0.994758	-0.078702
	H277	H	0.941849	0.989026	-0.073908
	H278	H	0.954852	0.996331	-0.077802
	O279	O	0.574126	-0.496697	1.486608
	H280	H	0.578948	-0.495101	1.492740
	H281	H	0.572142	-0.496156	1.481706
	O282	O	-0.012134	-0.033838	-0.055739
	H283	H	-0.014110	-0.030037	-0.049691
	H284	H	-0.022974	-0.028458	-0.049551
	O285	O	0.506690	0.433394	0.459785
	H286	H	0.511424	0.435579	0.466821
	H287	H	0.494515	0.427551	0.455338
	O288	O	-0.005862	0.067451	-0.045898
	H289	H	-0.001684	0.069819	-0.039458
	H290	H	-0.006637	0.069564	-0.048477
	O291	O	0.009713	0.991658	0.025755
	H292	H	0.010222	0.981658	0.016799
	H293	H	0.006293	0.997826	0.010549
	O294	O	0.080009	1.022980	0.024593
	H295	H	0.085927	1.024984	0.028650
	H296	H	0.087132	1.021053	0.020110
	O297	O	0.503515	0.466596	0.520728
	H298	H	0.511172	0.466068	0.523604
	H299	H	0.499103	0.478155	0.522892
	O300	O	0.528443	0.426191	0.532236
	H301	H	0.535056	0.420375	0.526803
	H302	H	0.538686	0.425046	0.531846
	O303	O	0.983816	-0.001047	1.025734
	H304	H	0.986160	-0.001578	1.024668
	H305	H	0.988926	-0.002785	1.024790
	O306	O	-0.012256	0.934529	0.950350
	H307	H	-0.006630	0.933669	0.954725
	H308	H	-0.010651	0.935458	0.938340
	O309	O	0.049412	1.053601	0.946592
	H310	H	0.050871	1.065632	0.942275
	H311	H	0.054750	1.051313	0.951707
	O312	O	-0.049273	0.029531	1.007049
	H313	H	-0.052100	0.034983	1.007889
	H314	H	-0.056546	0.038390	1.019283
	O315	O	0.543204	0.513362	0.541839
	H316	H	0.554809	0.523107	0.542698
	H317	H	0.542262	0.517405	0.529470
	O318	O	0.038454	0.005702	1.062990
	H319	H	0.042892	0.007230	1.064525
	H320	H	0.022222	0.003984	1.063319
	O321	O	0.002098	0.955482	0.973377
	H322	H	-0.000095	0.952203	0.976930
	H323	H	0.002018	0.948814	0.969120
	O324	O	1.004103	0.040515	0.947757
	H325	H	1.004453	0.036580	0.943912
	H326	H	1.012232	0.038989	0.953290
	O327	O	0.967076	0.952438	0.974619
	H328	H	0.972112	0.952876	0.974430
	H329	H	0.965701	0.954165	0.978041
	O330	O	0.574261	0.556903	0.551919
	H331	H	0.580241	0.554667	0.544912
	H332	H	0.585437	0.562305	0.559781
	O333	O	0.486438	0.517380	0.533811
	H334	H	0.482640	0.505863	0.537591
	H335	H	0.490573	0.513735	0.537237
	O336	O	0.590251	0.505785	0.470516
	H337	H	0.580014	0.506297	0.470842
	H338	H	0.590165	0.506219	0.471033
	O339	O	0.495375	0.512298	0.554037
	H340	H	0.494385	0.497321	0.556007
	H341	H	0.494665	0.510915	0.550831
	O342	O	0.556828	0.483219	0.528731
	H343	H	0.553614	0.486797	0.525792
	H344	H	0.544861	0.480805	0.531806
	O345	O	0.479989	0.495295	0.480678
	H346	H	0.472616	0.492528	0.477065
	H347	H	0.483113	0.502986	0.487483
