data_Molecule from HDF5

_cell_length_a		16.478521
_cell_length_b		16.448138
_cell_length_c		16.549914
_cell_angle_alpha	89.877480
_cell_angle_beta	90.042256
_cell_angle_gamma	90.001218
_symmetry_space_group_name_H-M	'P 1'
_symmetry_Int_Tables_number		1

loop_
	_symmetry_equiv_pos_as_xyz
	x,y,z

loop_
	_atom_site_label
	_atom_site_type_symbol
	_atom_site_fract_x
	_atom_site_fract_y
	_atom_site_fract_z
	H0	H	0.382757	0.853660	0.715882
	H1	H	0.601412	0.165229	0.712017
	H2	H	0.603272	0.853584	0.263503
	H3	H	0.388244	0.166823	0.267947
	H4	H	0.715993	0.403136	0.831747
	H5	H	0.719649	0.620771	0.142358
	H6	H	0.266816	0.620977	0.833759
	H7	H	0.272467	0.406144	0.144953
	H8	H	0.836797	0.734855	0.380392
	H9	H	0.149084	0.733648	0.596779
	H10	H	0.835927	0.286146	0.596648
	H11	H	0.151089	0.292325	0.388948
	H12	H	0.837259	0.400401	0.713956
	H13	H	0.148197	0.619708	0.715126
	H14	H	0.836164	0.619011	0.264166
	H15	H	0.149411	0.406260	0.269453
	H16	H	0.384264	0.736570	0.833140
	H17	H	0.603415	0.736456	0.143541
	H18	H	0.600664	0.286308	0.832680
	H19	H	0.388174	0.288042	0.144351
	H20	H	0.718684	0.853484	0.379692
	H21	H	0.716458	0.165510	0.595795
	H22	H	0.270312	0.851148	0.596532
	H23	H	0.273556	0.166150	0.385996
	H24	H	0.885759	0.351419	0.210207
	H25	H	0.096892	0.668185	0.210541
	H26	H	0.097180	0.352239	0.769572
	H27	H	0.883541	0.666127	0.762681
	H28	H	0.214768	0.902897	0.331469
	H29	H	0.213662	0.111841	0.646166
	H30	H	0.771208	0.115127	0.331478
	H31	H	0.766137	0.897989	0.643693
	H32	H	0.335613	0.231154	0.883298
	H33	H	0.651336	0.232618	0.094380
	H34	H	0.336584	0.787971	0.094610
	H35	H	0.649587	0.784916	0.878633
	H36	H	0.336192	0.903576	0.210040
	H37	H	0.650776	0.118542	0.212781
	H38	H	0.336974	0.117796	0.765027
	H39	H	0.648838	0.899877	0.761862
	H40	H	0.888017	0.230165	0.330701
	H41	H	0.096525	0.228105	0.647095
	H42	H	0.099048	0.786858	0.331320
	H43	H	0.883610	0.782829	0.643966
	H44	H	0.214292	0.353483	0.884617
	H45	H	0.215805	0.667833	0.097125
	H46	H	0.769922	0.352677	0.093810
	H47	H	0.769081	0.667407	0.879698
	H48	H	0.406668	0.121215	0.577675
	H49	H	0.572955	0.899838	0.575492
	H50	H	0.578017	0.120986	0.400254
	H51	H	0.407350	0.894201	0.392310
	H52	H	0.578371	0.417998	0.099938
	H53	H	0.576128	0.595855	0.878539
	H54	H	0.407877	0.599787	0.099697
	H55	H	0.400906	0.419444	0.873550
	H56	H	0.103297	0.592832	0.400149
	H57	H	0.880795	0.598213	0.576228
	H58	H	0.102113	0.424017	0.572303
	H59	H	0.877964	0.418598	0.400114
	H60	H	0.106102	0.423929	0.587171
	H61	H	0.884932	0.593752	0.569059
	H62	H	0.106383	0.598521	0.395936
	H63	H	0.877684	0.420868	0.397138
	H64	H	0.403469	0.597928	0.100255
	H65	H	0.579701	0.602015	0.876403
	H66	H	0.586173	0.422883	0.101249
	H67	H	0.402288	0.425257	0.874998
	H68	H	0.582569	0.121218	0.401909
	H69	H	0.579468	0.898826	0.569275
	H70	H	0.403920	0.120013	0.574301
	H71	H	0.408432	0.897559	0.403189
	H72	H	0.901046	0.621726	0.071874
	H73	H	0.084015	0.397188	0.076424
	H74	H	0.075273	0.622532	0.897954
	H75	H	0.909819	0.400471	0.900981
	H76	H	0.082160	0.918155	0.601219
	H77	H	0.079584	0.102418	0.375811
	H78	H	0.909143	0.097931	0.598621
	H79	H	0.907990	0.927391	0.379942
	H80	H	0.606504	0.099751	0.898707
	H81	H	0.379958	0.094143	0.086466
	H82	H	0.606950	0.920748	0.075975
	H83	H	0.381523	0.921868	0.901656
	H84	H	0.604439	0.924869	0.074265
	H85	H	0.377665	0.109000	0.079632
	H86	H	0.604230	0.097391	0.904291
	H87	H	0.384250	0.924869	0.904303
	H88	H	0.901333	0.101589	0.602871
	H89	H	0.087219	0.102779	0.374081
	H90	H	0.083211	0.923224	0.599895
	H91	H	0.909230	0.919656	0.378828
	H92	H	0.078480	0.621911	0.906130
	H93	H	0.083092	0.396802	0.081535
	H94	H	0.904805	0.623969	0.082255
	H95	H	0.902235	0.398913	0.906735
	H96	H	0.402816	0.122212	0.577569
	H97	H	0.580695	0.896067	0.577773
	H98	H	0.582052	0.122618	0.397522
	H99	H	0.398460	0.892739	0.399210
	H100	H	0.578554	0.427250	0.097310
	H101	H	0.583514	0.595857	0.876799
	H102	H	0.406664	0.595251	0.097424
	H103	H	0.406256	0.420299	0.876184
	H104	H	0.104384	0.600109	0.402875
	H105	H	0.883840	0.589117	0.577093
	H106	H	0.109034	0.411078	0.578306
	H107	H	0.876517	0.417929	0.397208
	H108	H	0.911836	0.619216	0.074790
	H109	H	0.079515	0.398658	0.078645
	H110	H	0.083668	0.625583	0.899423
	H111	H	0.902021	0.395815	0.897547
	H112	H	0.078171	0.921006	0.598902
	H113	H	0.083634	0.095780	0.376653
	H114	H	0.901442	0.092621	0.599756
	H115	H	0.902491	0.923207	0.377040
	H116	H	0.604366	0.093317	0.898681
	H117	H	0.384708	0.095691	0.070889
	H118	H	0.606581	0.925395	0.078236
	H119	H	0.382492	0.926373	0.900204
	C120	C	0.371350	0.017115	0.610208
	C121	C	0.612587	1.001103	0.608336
	C122	C	0.615202	0.018403	0.366320
	C123	C	0.372955	0.999751	0.367352
	C124	C	0.613908	0.389319	-0.003655
	C125	C	0.614958	0.632621	0.979775
	C126	C	0.371821	0.632290	-0.003341
	C127	C	0.371358	0.389267	0.979011
	C128	C	0.001004	0.630868	0.366860
	C129	C	0.985324	0.629151	0.608993
	C130	C	0.001780	0.387364	0.611502
	C131	C	0.982834	0.388434	0.367865
	C132	C	0.871070	0.518396	0.109698
	C133	C	0.114510	0.501918	0.111246
	C134	C	0.112793	0.519126	0.868647
	C135	C	0.871107	0.501649	0.867093
	C136	C	0.114221	0.887476	0.496794
	C137	C	0.114328	0.130475	0.480321
	C138	C	0.871225	0.130598	0.496919
	C139	C	0.871394	0.888083	0.480954
	C140	C	0.501503	0.130627	0.867425
	C141	C	0.485016	0.132449	0.111134
	C142	C	0.502371	0.889806	0.109431
	C143	C	0.485371	0.889160	0.867090
	C144	C	0.366152	0.900275	0.673984
	C145	C	0.618113	0.118282	0.670988
	C146	C	0.620039	0.900353	0.304741
	C147	C	0.370411	0.119295	0.308281
	C148	C	0.675248	0.385701	0.878779
	C149	C	0.678362	0.637609	0.095935
	C150	C	0.308331	0.637919	0.880220
	C151	C	0.311880	0.386931	0.097472
	C152	C	0.883727	0.693731	0.362705
	C153	C	0.102331	0.692481	0.613965
	C154	C	0.883179	0.326623	0.614273
	C155	C	0.102993	0.330961	0.368676
	C156	C	0.883903	0.383392	0.672999
	C157	C	0.101819	0.635703	0.672979
	C158	C	0.883230	0.636102	0.304906
	C159	C	0.102242	0.387299	0.309320
	C160	C	0.367091	0.695198	0.879872
	C161	C	0.620316	0.695524	0.096227
	C162	C	0.617994	0.327242	0.879256
	C163	C	0.369715	0.328680	0.097357
	C164	C	0.677621	0.900447	0.362677
	C165	C	0.675322	0.118611	0.612931
	C166	C	0.310345	0.898709	0.614319
	C167	C	0.313241	0.118891	0.366652
	C168	C	0.867429	0.399515	0.170450
	C169	C	0.116275	0.620571	0.171219
	C170	C	0.115596	0.400016	0.809264
	C171	C	0.866328	0.619394	0.804179
	C172	C	0.175087	0.884448	0.378643
	C173	C	0.173923	0.130844	0.598922
	C174	C	0.811256	0.133021	0.378648
	C175	C	0.807899	0.881903	0.597254
	C176	C	0.383232	0.191444	0.864965
	C177	C	0.603912	0.192849	0.113030
	C178	C	0.384015	0.828191	0.112551
	C179	C	0.602562	0.825944	0.861601
	C180	C	0.383971	0.885817	0.170235
	C181	C	0.603430	0.136018	0.172021
	C182	C	0.383709	0.134769	0.806191
	C183	C	0.602064	0.883123	0.803261
	C184	C	0.869388	0.190668	0.378385
	C185	C	0.115548	0.188645	0.599427
	C186	C	0.116913	0.827008	0.378651
	C187	C	0.866286	0.824191	0.597333
	C188	C	0.173910	0.400731	0.866466
	C189	C	0.175313	0.620397	0.114676
	C190	C	0.809491	0.400228	0.112586
	C191	C	0.809423	0.619979	0.862575
	C192	C	0.397165	0.099710	0.583772
	C193	C	0.585300	0.919483	0.581599
	C194	C	0.588525	0.100302	0.392309
	C195	C	0.397902	0.916514	0.391277
	C196	C	0.588279	0.415461	0.078183
	C197	C	0.587642	0.605723	0.898308
	C198	C	0.398545	0.605292	0.077958
	C199	C	0.396067	0.414414	0.896347
	C200	C	0.083234	0.604564	0.392285
	C201	C	0.904220	0.601486	0.581871
	C202	C	0.084166	0.412494	0.586414
	C203	C	0.899285	0.412154	0.391265
	C204	C	0.898056	0.600298	0.083701
	C205	C	0.089344	0.419249	0.086037
	C206	C	0.086596	0.601654	0.893799
	C207	C	0.897287	0.419772	0.893964
	C208	C	0.088548	0.913437	0.578632
	C209	C	0.090150	0.107197	0.397205
	C210	C	0.896657	0.104882	0.579092
	C211	C	0.898688	0.915686	0.399800
	C212	C	0.583693	0.104334	0.893174
	C213	C	0.402484	0.106907	0.086225
	C214	C	0.584411	0.916165	0.083778
	C215	C	0.404103	0.916273	0.894358
	Zn216	Zn	0.493078	0.009706	0.738094
	Zn217	Zn	0.494104	0.009711	0.238592
	Zn218	Zn	0.742885	0.510187	-0.012125
	Zn219	Zn	0.242108	0.511607	-0.011161
	Zn220	Zn	-0.007341	0.759108	0.488465
	Zn221	Zn	-0.007620	0.259432	0.489481
	Zn222	Zn	-0.007846	0.509754	0.739434
	Zn223	Zn	-0.008187	0.509685	0.238536
	Zn224	Zn	0.493312	0.761169	-0.011304
	Zn225	Zn	0.493687	0.259877	-0.012208
	Zn226	Zn	0.742066	0.009186	0.489056
	Zn227	Zn	0.243488	0.008193	0.488277
	N228	N	0.403303	0.975031	0.671410
	N229	N	0.579608	0.044207	0.668062
	N230	N	0.582092	0.974690	0.306664
	N231	N	0.406902	0.044206	0.308500
	N232	N	0.672914	0.423652	0.952627
	N233	N	0.675203	0.599366	0.022364
	N234	N	0.311238	0.599371	0.953834
	N235	N	0.312758	0.423650	0.022862
	N236	N	0.957827	0.690476	0.400603
	N237	N	0.029057	0.688573	0.574653
	N238	N	0.957434	0.328872	0.576435
	N239	N	0.027614	0.331356	0.404267
	N240	N	0.958444	0.420455	0.671313
	N241	N	0.028141	0.596882	0.669763
	N242	N	0.957129	0.597491	0.307460
	N243	N	0.026375	0.421901	0.308448
	N244	N	0.405743	0.691902	0.953284
	N245	N	0.581908	0.692592	0.022534
	N246	N	0.580612	0.329510	0.953336
	N247	N	0.405811	0.329588	0.022472
	N248	N	0.674801	0.974961	0.400027
	N249	N	0.672187	0.044581	0.574791
	N250	N	0.313423	0.972556	0.575355
	N251	N	0.314645	0.043593	0.402599
	N252	N	0.904688	0.474385	0.169152
	N253	N	0.079110	0.545870	0.169293
	N254	N	0.078468	0.474779	0.810392
	N255	N	0.903758	0.544957	0.806938
	N256	N	0.173955	0.921015	0.453257
	N257	N	0.173475	0.095482	0.523835
	N258	N	0.812018	0.096624	0.453354
	N259	N	0.810939	0.920801	0.523629
	N260	N	0.457550	0.188834	0.902532
	N261	N	0.529053	0.191105	0.076269
	N262	N	0.458760	0.830350	0.075538
	N263	N	0.528893	0.829401	0.900351
	N264	N	0.458663	0.922871	0.168855
	N265	N	0.528420	0.099431	0.171256
	N266	N	0.458339	0.097510	0.807618
	N267	N	0.527979	0.921476	0.806318
	N268	N	0.905815	0.189467	0.453218
	N269	N	0.079376	0.188718	0.524597
	N270	N	0.080361	0.828346	0.453297
	N271	N	0.904873	0.827949	0.523892
	N272	N	0.172245	0.475902	0.902651
	N273	N	0.174412	0.545536	0.078017
	N274	N	0.811444	0.475160	0.075850
	N275	N	0.812130	0.545855	0.901137
	O276	O	0.127882	-0.181510	0.799590
	H277	H	0.100940	-0.171778	0.800207
	H278	H	0.127746	-0.161378	0.793473
	O279	O	0.666486	0.682471	0.668348
	H280	H	0.662163	0.695477	0.636473
	H281	H	0.661050	0.665298	0.655692
	O282	O	0.920084	1.212233	-0.209252
	H283	H	0.935987	1.216171	-0.206289
	H284	H	0.947242	1.207351	-0.212486
	O285	O	0.497420	0.401623	0.689962
	H286	H	0.505380	0.394188	0.695083
	H287	H	0.519613	0.399973	0.689519
	O288	O	0.202705	-0.145430	-0.002206
	H289	H	0.184805	-0.138109	-0.016963
	H290	H	0.218518	-0.160487	-0.002134
	O291	O	1.396316	0.652396	0.651714
	H292	H	1.403362	0.651763	0.668466
	H293	H	1.402930	0.637963	0.642990
	O294	O	0.710385	0.294263	-0.535969
	H295	H	0.730203	0.281672	-0.528899
	H296	H	0.706665	0.288640	-0.548980
	O297	O	-0.222235	-0.205922	1.012068
	H298	H	-0.249509	-0.216298	1.005003
	H299	H	-0.219865	-0.207856	0.995287
	O300	O	0.709692	0.487214	0.269933
	H301	H	0.734615	0.490602	0.241855
	H302	H	0.692677	0.512487	0.270748
	O303	O	-0.220350	-0.013654	1.203285
	H304	H	-0.225353	0.002860	1.220966
	H305	H	-0.225623	-0.031844	1.212925
	O306	O	0.199144	1.212679	1.167657
	H307	H	0.228651	1.243563	1.191571
	H308	H	0.168759	1.207608	1.184485
	O309	O	0.312275	1.686980	1.456692
	H310	H	0.321712	1.682799	1.477954
	H311	H	0.287087	1.709593	1.454630
	O312	O	0.904009	-0.159867	0.862758
	H313	H	0.901713	-0.152580	0.875848
	H314	H	0.907612	-0.149832	0.867001
	O315	O	0.185710	0.222923	1.009193
	H316	H	0.200762	0.241697	1.013022
	H317	H	0.192203	0.224352	1.046275
	O318	O	-0.569412	0.514606	0.535865
	H319	H	-0.565446	0.531088	0.552581
	H320	H	-0.569842	0.514397	0.519026
	O321	O	0.424955	0.698430	0.550773
	H322	H	0.435731	0.704270	0.559915
	H323	H	0.417164	0.689442	0.550738
	O324	O	1.511708	-0.269554	0.707665
	H325	H	1.519074	-0.242594	0.733677
	H326	H	1.521437	-0.286720	0.712352
	O327	O	1.458477	0.301511	0.538277
	H328	H	1.459327	0.290535	0.550200
	H329	H	1.444687	0.313494	0.555027
	O330	O	1.172585	-0.077271	-0.141474
	H331	H	1.173780	-0.070527	-0.140539
	H332	H	1.168974	-0.067025	-0.134106
	O333	O	1.207700	1.267748	0.797489
	H334	H	1.208966	1.254678	0.768780
	H335	H	1.215094	1.291168	0.799761
	O336	O	1.503930	0.420863	0.533088
	H337	H	1.512728	0.417211	0.531889
	H338	H	1.514319	0.425233	0.536137
	O339	O	0.555431	0.720188	0.417591
	H340	H	0.527027	0.729457	0.400465
	H341	H	0.526474	0.719561	0.422175
	O342	O	1.179186	0.889427	0.025970
	H343	H	1.181114	0.883100	0.037262
	H344	H	1.176106	0.880860	0.010069
	O345	O	0.201956	0.037726	0.200251
	H346	H	0.213650	0.046106	0.199581
	H347	H	0.209634	0.050128	0.205567
	O348	O	1.342895	-0.420107	1.624556
	H349	H	1.361698	-0.414212	1.632169
	H350	H	1.352674	-0.426398	1.625160
	O351	O	1.020030	0.876505	-0.197781
	H352	H	1.013433	0.865233	-0.211257
	H353	H	1.020622	0.877905	-0.180483
	O354	O	0.289222	0.502446	0.279667
	H355	H	0.315310	0.487509	0.273281
	H356	H	0.279653	0.496538	0.271742
	O357	O	1.209685	1.064723	0.938947
	H358	H	1.211940	1.061783	0.950036
	H359	H	1.205609	1.082751	0.949489
	O360	O	0.555140	0.567984	0.259057
	H361	H	0.541987	0.586886	0.256254
	H362	H	0.551967	0.578726	0.262218
	O363	O	0.165921	1.043576	-0.206484
	H364	H	0.175415	1.040838	-0.210992
	H365	H	0.166218	1.035013	-0.200345
	O366	O	0.924284	0.192451	1.008156
	H367	H	0.957044	0.189431	1.003721
	H368	H	0.916523	0.187689	0.991193
	O369	O	0.093230	0.167063	0.861529
	H370	H	0.100513	0.161796	0.857634
	H371	H	0.103137	0.174296	0.855580
	O372	O	0.704163	0.526146	0.699857
	H373	H	0.730890	0.527340	0.725486
	H374	H	0.700117	0.542786	0.681412
	O375	O	1.496728	0.434199	-0.536378
	H376	H	1.508189	0.433818	-0.544280
	H377	H	1.508799	0.445727	-0.546741
	O378	O	0.703925	-0.282982	-0.488639
	H379	H	0.696082	-0.273839	-0.509868
	H380	H	0.707603	-0.263601	-0.503391
	O381	O	0.772803	0.222931	-0.226121
	H382	H	0.802482	0.225152	-0.238362
	H383	H	0.773810	0.220607	-0.179391
	O384	O	0.028264	-0.021817	1.207540
	H385	H	0.021136	-0.011657	1.210501
	H386	H	0.044757	-0.021661	1.205083
	O387	O	-0.480671	0.291369	1.264115
	H388	H	-0.473449	0.254594	1.234804
	H389	H	-0.459657	0.289710	1.288515
	O390	O	-0.025542	-0.188458	1.194452
	H391	H	-0.033911	-0.178090	1.202483
	H392	H	-0.022850	-0.200557	1.201576
	O393	O	0.710157	0.494050	0.499503
	H394	H	0.713860	0.484265	0.519402
	H395	H	0.712995	0.512412	0.488402
	O396	O	0.283509	0.302498	0.280824
	H397	H	0.304877	0.324833	0.300471
	H398	H	0.298473	0.307569	0.303044
	O399	O	0.692669	0.615926	0.377463
	H400	H	0.687776	0.625924	0.377641
	H401	H	0.694455	0.630554	0.362816
	O402	O	-0.509971	0.299576	1.576283
	H403	H	-0.526361	0.307567	1.581449
	H404	H	-0.512922	0.296886	1.596145
	O405	O	-0.013622	-0.011484	-0.069033
	H406	H	-0.024870	-0.005794	-0.078096
	H407	H	-0.005323	-0.015065	-0.067175
	O408	O	0.806641	0.825269	0.176882
	H409	H	0.807353	0.847371	0.166062
	H410	H	0.819563	0.818244	0.147899
	O411	O	0.547672	0.439855	0.554930
	H412	H	0.563404	0.447368	0.553560
	H413	H	0.568941	0.444098	0.557104
	O414	O	0.818179	0.911892	0.943350
	H415	H	0.807109	0.903619	0.939323
	H416	H	0.827158	0.920312	0.930015
	O417	O	0.313122	0.695266	0.300817
	H418	H	0.299172	0.683081	0.329731
	H419	H	0.292870	0.671127	0.292930
	O420	O	0.439348	0.447797	0.265910
	H421	H	0.458987	0.435078	0.273945
	H422	H	0.463751	0.435242	0.265762
	O423	O	0.053693	0.926125	0.075619
	H424	H	0.043325	0.940925	0.070274
	H425	H	0.052251	0.927384	0.074345
	O426	O	0.301698	1.317280	1.578332
	H427	H	0.294711	1.330386	1.567757
	H428	H	0.316482	1.315046	1.571714
	O429	O	0.023901	-0.957544	0.773050
	H430	H	0.019567	-0.963523	0.773891
	H431	H	0.027314	-0.956327	0.768042
	O432	O	0.675475	0.326305	0.305678
	H433	H	0.662904	0.319140	0.327689
	H434	H	0.687322	0.377450	0.298529
	O435	O	0.027782	-0.197989	0.028065
	H436	H	0.022708	-0.188856	0.028337
	H437	H	0.038186	-0.202639	0.025391
	O438	O	0.787648	0.217760	-0.034953
	H439	H	0.796095	0.228414	-0.023529
	H440	H	0.771798	0.207080	-0.019342
	O441	O	0.471019	0.730958	0.265614
	H442	H	0.465746	0.767657	0.228352
	H443	H	0.418441	0.717620	0.278297
	O444	O	-0.226013	1.038887	1.020471
	H445	H	-0.219475	1.040950	1.051838
	H446	H	-0.229493	1.020650	1.002211
	O447	O	0.954358	1.170579	0.938405
	H448	H	0.982316	1.170145	0.943624
	H449	H	0.962777	1.178943	0.917980
	O450	O	0.330528	0.418424	0.411781
	H451	H	0.351990	0.417509	0.405384
	H452	H	0.332555	0.429989	0.436024
	O453	O	0.802617	1.025923	-0.218885
	H454	H	0.801550	1.049209	-0.217644
	H455	H	0.793962	1.047301	-0.225833
	O456	O	0.429970	0.513886	0.529653
	H457	H	0.429885	0.501113	0.538601
	H458	H	0.429872	0.532272	0.535909
	O459	O	0.279046	0.485521	0.706168
	H460	H	0.262138	0.488114	0.730517
	H461	H	0.297115	0.504057	0.708404
	O462	O	0.028321	1.223082	1.207820
	H463	H	0.041424	1.236546	1.224461
	H464	H	0.011334	1.228752	1.202425
	O465	O	0.913518	0.079729	0.158616
	H466	H	0.917185	0.065524	0.161503
	H467	H	0.931929	0.097227	0.144768
