data_Molecule from HDF5

_cell_length_a		16.369804
_cell_length_b		16.473436
_cell_length_c		16.094494
_cell_angle_alpha	90.196315
_cell_angle_beta	89.837174
_cell_angle_gamma	89.860313
_symmetry_space_group_name_H-M	'P 1'
_symmetry_Int_Tables_number		1

loop_
	_symmetry_equiv_pos_as_xyz
	x,y,z

loop_
	_atom_site_label
	_atom_site_type_symbol
	_atom_site_fract_x
	_atom_site_fract_y
	_atom_site_fract_z
	H0	H	0.394530	0.827869	0.718613
	H1	H	0.588915	0.151312	0.719484
	H2	H	0.591489	0.828289	0.287985
	H3	H	0.389296	0.150594	0.286259
	H4	H	0.709340	0.388349	0.836123
	H5	H	0.711739	0.589212	0.164242
	H6	H	0.281404	0.589464	0.836756
	H7	H	0.276421	0.389683	0.164108
	H8	H	0.835568	0.711334	0.394702
	H9	H	0.154480	0.709217	0.603968
	H10	H	0.834204	0.271050	0.607414
	H11	H	0.153010	0.267306	0.392841
	H12	H	0.831941	0.394651	0.715011
	H13	H	0.158098	0.586858	0.713128
	H14	H	0.833589	0.589588	0.284008
	H15	H	0.156467	0.390556	0.284995
	H16	H	0.394395	0.706752	0.839650
	H17	H	0.597548	0.705129	0.166418
	H18	H	0.599209	0.268858	0.839524
	H19	H	0.390748	0.272948	0.165687
	H20	H	0.712402	0.830923	0.399674
	H21	H	0.714474	0.148228	0.612510
	H22	H	0.273918	0.829620	0.607559
	H23	H	0.272317	0.149198	0.401810
	H24	H	0.892494	0.329894	0.219583
	H25	H	0.097003	0.649555	0.220181
	H26	H	0.094638	0.327691	0.783436
	H27	H	0.898268	0.652312	0.787158
	H28	H	0.212525	0.886326	0.340299
	H29	H	0.203689	0.088232	0.667436
	H30	H	0.772321	0.092227	0.340072
	H31	H	0.777536	0.888507	0.666665
	H32	H	0.336604	0.213337	0.895804
	H33	H	0.653189	0.210811	0.111680
	H34	H	0.334144	0.768735	0.109483
	H35	H	0.655057	0.770221	0.898646
	H36	H	0.330160	0.891632	0.217983
	H37	H	0.653610	0.089441	0.221918
	H38	H	0.330502	0.088674	0.790800
	H39	H	0.655110	0.889659	0.785632
	H40	H	0.886672	0.209317	0.338867
	H41	H	0.093663	0.207930	0.664106
	H42	H	0.097793	0.772621	0.338868
	H43	H	0.890145	0.771770	0.664115
	H44	H	0.217661	0.331117	0.892679
	H45	H	0.214292	0.649453	0.105260
	H46	H	0.774922	0.329988	0.105332
	H47	H	0.773985	0.648766	0.895574
	H48	H	0.397183	0.107399	0.606452
	H49	H	0.586053	0.872262	0.602359
	H50	H	0.582504	0.103573	0.415354
	H51	H	0.404996	0.874056	0.402949
	H52	H	0.586574	0.399094	0.117717
	H53	H	0.589220	0.584584	0.881482
	H54	H	0.399075	0.574810	0.119233
	H55	H	0.411173	0.389854	0.883766
	H56	H	0.111372	0.590192	0.413646
	H57	H	0.881387	0.578847	0.589623
	H58	H	0.112500	0.388702	0.590141
	H59	H	0.878219	0.399306	0.408313
	H60	H	0.106654	0.398963	0.581820
	H61	H	0.877825	0.583194	0.595652
	H62	H	0.106107	0.576593	0.417650
	H63	H	0.879408	0.395373	0.413318
	H64	H	0.410434	0.580362	0.116614
	H65	H	0.585984	0.573646	0.886311
	H66	H	0.585423	0.400933	0.118004
	H67	H	0.398811	0.403216	0.883947
	H68	H	0.582842	0.102964	0.416073
	H69	H	0.577651	0.879229	0.590897
	H70	H	0.404727	0.100744	0.592854
	H71	H	0.408073	0.880669	0.421384
	H72	H	0.906457	0.604020	0.096873
	H73	H	0.087409	0.376363	0.091087
	H74	H	0.091985	0.604242	0.910272
	H75	H	0.900579	0.375548	0.910530
	H76	H	0.082561	0.888702	0.622306
	H77	H	0.082157	0.073066	0.386612
	H78	H	0.909978	0.083041	0.617011
	H79	H	0.900352	0.905272	0.386561
	H80	H	0.608612	0.084150	0.919663
	H81	H	0.376857	0.089112	0.090481
	H82	H	0.608057	0.902994	0.100408
	H83	H	0.379330	0.898836	0.912446
	H84	H	0.612209	0.888901	0.095553
	H85	H	0.382365	0.078818	0.087584
	H86	H	0.605667	0.073235	0.914513
	H87	H	0.377608	0.893282	0.911895
	H88	H	0.899257	0.085744	0.620482
	H89	H	0.078897	0.080863	0.385469
	H90	H	0.091336	0.904148	0.620720
	H91	H	0.909070	0.900147	0.387532
	H92	H	0.089259	0.605285	0.904532
	H93	H	0.084154	0.377791	0.088176
	H94	H	0.908583	0.598701	0.083442
	H95	H	0.900530	0.373918	0.905176
	H96	H	0.388486	0.105880	0.591833
	H97	H	0.592690	0.875559	0.588180
	H98	H	0.582960	0.103450	0.414827
	H99	H	0.390458	0.873193	0.416505
	H100	H	0.583851	0.398804	0.118542
	H101	H	0.577480	0.582744	0.886843
	H102	H	0.400957	0.586004	0.121661
	H103	H	0.415424	0.405822	0.890661
	H104	H	0.110753	0.579095	0.402942
	H105	H	0.879435	0.587030	0.588868
	H106	H	0.110328	0.401867	0.595754
	H107	H	0.880927	0.401746	0.413942
	H108	H	0.896017	0.604312	0.086897
	H109	H	0.088161	0.376693	0.086564
	H110	H	0.086641	0.602817	0.909678
	H111	H	0.905602	0.375676	0.907423
	H112	H	0.074939	0.903051	0.615131
	H113	H	0.087094	0.079051	0.383864
	H114	H	0.901596	0.075386	0.616273
	H115	H	0.901591	0.895752	0.382994
	H116	H	0.611876	0.082086	0.907465
	H117	H	0.377116	0.080989	0.098688
	H118	H	0.605466	0.899111	0.085722
	H119	H	0.379535	0.895286	0.917292
	C120	C	0.368851	-0.001866	0.626653
	C121	C	0.614937	0.981450	0.625640
	C122	C	0.613360	-0.002144	0.383259
	C123	C	0.369859	0.981320	0.382306
	C124	C	0.616340	0.368056	0.010147
	C125	C	0.615403	0.609737	0.993070
	C126	C	0.373888	0.610495	0.010929
	C127	C	0.375313	0.369186	0.993449
	C128	C	0.003521	0.612057	0.379336
	C129	C	0.986138	0.612412	0.621813
	C130	C	0.003163	0.368179	0.621263
	C131	C	0.985524	0.367583	0.379049
	C132	C	0.872817	0.497494	0.121658
	C133	C	0.116706	0.481924	0.120984
	C134	C	0.119026	0.498196	0.876871
	C135	C	0.873041	0.481428	0.878456
	C136	C	0.114682	0.867996	0.511544
	C137	C	0.112399	0.109068	0.492922
	C138	C	0.871000	0.112277	0.510628
	C139	C	0.872835	0.869533	0.493685
	C140	C	0.502426	0.110478	0.883019
	C141	C	0.484551	0.112758	0.125047
	C142	C	0.501883	0.867584	0.124812
	C143	C	0.485118	0.866359	0.881729
	C144	C	0.372928	0.876581	0.681685
	C145	C	0.610993	0.102882	0.682176
	C146	C	0.612140	0.877192	0.325498
	C147	C	0.369989	0.102103	0.324825
	C148	C	0.672320	0.368280	0.886271
	C149	C	0.673116	0.608927	0.115876
	C150	C	0.318781	0.609507	0.886632
	C151	C	0.315522	0.369415	0.115615
	C152	C	0.883106	0.670901	0.376858
	C153	C	0.106884	0.669872	0.622378
	C154	C	0.881894	0.311235	0.624035
	C155	C	0.105802	0.308308	0.376227
	C156	C	0.881040	0.372198	0.678342
	C157	C	0.108730	0.609015	0.676715
	C158	C	0.882101	0.610568	0.321760
	C159	C	0.107414	0.369281	0.322219
	C160	C	0.374894	0.667762	0.887857
	C161	C	0.616370	0.666576	0.116692
	C162	C	0.617267	0.309139	0.887754
	C163	C	0.372567	0.311643	0.116370
	C164	C	0.672371	0.878218	0.381266
	C165	C	0.673110	0.101176	0.628570
	C166	C	0.312790	0.877490	0.626432
	C167	C	0.311750	0.101710	0.382349
	C168	C	0.873229	0.377709	0.180584
	C169	C	0.116249	0.601740	0.180510
	C170	C	0.116354	0.376718	0.820574
	C171	C	0.876541	0.603449	0.824068
	C172	C	0.173566	0.867281	0.389011
	C173	C	0.167505	0.108640	0.617325
	C174	C	0.811580	0.112096	0.388586
	C175	C	0.815532	0.869138	0.617044
	C176	C	0.382949	0.171385	0.879801
	C177	C	0.605249	0.170885	0.128586
	C178	C	0.381504	0.808995	0.127029
	C179	C	0.606459	0.809206	0.880053
	C180	C	0.379566	0.870019	0.181105
	C181	C	0.605381	0.110649	0.183810
	C182	C	0.380134	0.109328	0.827239
	C183	C	0.606563	0.868666	0.823731
	C184	C	0.868442	0.170297	0.387957
	C185	C	0.112373	0.167834	0.615900
	C186	C	0.116256	0.810818	0.388174
	C187	C	0.871674	0.811050	0.615761
	C188	C	0.177350	0.378283	0.875111
	C189	C	0.174798	0.601695	0.123477
	C190	C	0.814784	0.377654	0.123483
	C191	C	0.814379	0.601480	0.877588
	C192	C	0.390490	0.082746	0.603915
	C193	C	0.592196	0.897446	0.600993
	C194	C	0.589610	0.081648	0.408321
	C195	C	0.394077	0.897597	0.406350
	C196	C	0.592209	0.392367	0.095927
	C197	C	0.591219	0.586906	0.907271
	C198	C	0.396882	0.587170	0.096846
	C199	C	0.400967	0.392680	0.908290
	C200	C	0.087587	0.588731	0.404218
	C201	C	0.901396	0.589591	0.598265
	C202	C	0.087783	0.389924	0.596338
	C203	C	0.901524	0.391559	0.404435
	C204	C	0.896556	0.580751	0.096356
	C205	C	0.093184	0.398524	0.095837
	C206	C	0.096004	0.582356	0.901081
	C207	C	0.895681	0.396970	0.901091
	C208	C	0.089935	0.891718	0.597196
	C209	C	0.089444	0.084744	0.407533
	C210	C	0.896238	0.088404	0.595792
	C211	C	0.896595	0.893599	0.407953
	C212	C	0.586579	0.086836	0.907072
	C213	C	0.400768	0.089968	0.099646
	C214	C	0.586478	0.890393	0.100923
	C215	C	0.400654	0.889087	0.906749
	Zn216	Zn	0.492305	-0.010537	0.754274
	Zn217	Zn	0.491741	-0.009992	0.252864
	Zn218	Zn	0.743754	0.488894	0.000235
	Zn219	Zn	0.246926	0.489637	0.000222
	Zn220	Zn	-0.006318	0.741547	0.501297
	Zn221	Zn	-0.006357	0.238953	0.500099
	Zn222	Zn	-0.004665	0.490161	0.749524
	Zn223	Zn	-0.005090	0.489744	0.251022
	Zn224	Zn	0.494604	0.737920	0.004117
	Zn225	Zn	0.495262	0.240687	0.002795
	Zn226	Zn	0.744404	-0.010220	0.503809
	Zn227	Zn	0.240690	-0.010711	0.503792
	N228	N	0.406910	0.952624	0.682118
	N229	N	0.575370	0.027432	0.680291
	N230	N	0.576189	0.952761	0.326413
	N231	N	0.405577	0.026391	0.324902
	N232	N	0.671892	0.404204	0.963555
	N233	N	0.673009	0.574585	0.038051
	N234	N	0.318000	0.574805	0.964187
	N235	N	0.317090	0.404286	0.038139
	N236	N	0.959519	0.672005	0.411938
	N237	N	0.029531	0.671911	0.589006
	N238	N	0.958693	0.308595	0.589255
	N239	N	0.028779	0.307048	0.410707
	N240	N	0.957335	0.406971	0.676731
	N241	N	0.032685	0.573925	0.676441
	N242	N	0.958007	0.574846	0.323090
	N243	N	0.031540	0.405166	0.323601
	N244	N	0.408183	0.668645	0.966134
	N245	N	0.581306	0.667397	0.039138
	N246	N	0.583334	0.308690	0.965948
	N247	N	0.409003	0.311321	0.039340
	N248	N	0.673240	0.954345	0.416294
	N249	N	0.675745	0.024760	0.594178
	N250	N	0.310086	0.954153	0.593019
	N251	N	0.311684	0.025576	0.417332
	N252	N	0.908735	0.453232	0.179553
	N253	N	0.080580	0.526353	0.179052
	N254	N	0.080880	0.452315	0.821532
	N255	N	0.912361	0.527805	0.824372
	N256	N	0.172971	0.901963	0.466736
	N257	N	0.167601	0.072581	0.540091
	N258	N	0.812940	0.077134	0.466047
	N259	N	0.816194	0.904772	0.539925
	N260	N	0.459832	0.172207	0.913828
	N261	N	0.529115	0.172433	0.092663
	N262	N	0.458624	0.807192	0.092812
	N263	N	0.529912	0.807701	0.915346
	N264	N	0.455390	0.905773	0.179937
	N265	N	0.529526	0.075332	0.181761
	N266	N	0.455326	0.071912	0.829277
	N267	N	0.530036	0.903452	0.824460
	N268	N	0.904721	0.170584	0.465020
	N269	N	0.078951	0.168461	0.537636
	N270	N	0.080396	0.811087	0.465517
	N271	N	0.906564	0.811035	0.537938
	N272	N	0.179243	0.454884	0.909530
	N273	N	0.174773	0.526435	0.086619
	N274	N	0.814454	0.453095	0.087439
	N275	N	0.812260	0.524636	0.910837
	O276	O	0.448722	0.440466	0.523292
	H277	H	0.445745	0.443338	0.526823
	H278	H	0.447171	0.436029	0.524913
	O279	O	0.547692	0.661500	0.505376
	H280	H	0.551569	0.663506	0.522006
	H281	H	0.554643	0.664877	0.508457
	O282	O	0.990699	0.161529	1.197704
	H283	H	0.988385	0.188302	1.206675
	H284	H	1.022155	0.156998	1.192829
	O285	O	0.800729	0.918146	1.096558
	H286	H	0.794443	0.917366	1.106710
	H287	H	0.806017	0.917417	1.098567
	O288	O	0.861294	1.009514	1.079412
	H289	H	0.859040	0.994626	1.079165
	H290	H	0.858092	1.011396	1.075450
	O291	O	0.093017	0.855722	-0.087476
	H292	H	0.097075	0.844200	-0.087353
	H293	H	0.071435	0.858138	-0.090771
	O294	O	0.584530	0.644411	0.379039
	H295	H	0.588137	0.649175	0.395503
	H296	H	0.599517	0.656334	0.379133
	O297	O	0.584504	0.563626	0.670737
	H298	H	0.600260	0.551511	0.673661
	H299	H	0.592486	0.576179	0.669564
	O300	O	0.550557	0.404935	0.349359
	H301	H	0.553885	0.405175	0.362986
	H302	H	0.544475	0.397739	0.339388
	O303	O	0.564623	0.582251	0.619163
	H304	H	0.552892	0.594497	0.627208
	H305	H	0.582372	0.576524	0.607995
	O306	O	0.581427	0.429594	0.633802
	H307	H	0.574161	0.424072	0.620399
	H308	H	0.583004	0.430529	0.636824
	O309	O	0.645475	0.626770	0.523352
	H310	H	0.649967	0.622378	0.543682
	H311	H	0.649182	0.620634	0.517337
	O312	O	-0.089934	0.045267	-0.133022
	H313	H	-0.057278	0.050657	-0.127503
	H314	H	-0.093310	0.036617	-0.133527
	O315	O	0.881263	0.746029	0.103003
	H316	H	0.887484	0.735533	0.098995
	H317	H	0.895529	0.751024	0.100805
	O318	O	-0.029518	1.106854	0.969853
	H319	H	-0.042417	1.124967	0.979997
	H320	H	-0.031889	1.104070	0.963422
	O321	O	0.900847	-0.155691	0.986102
	H322	H	0.909565	-0.148632	0.983764
	H323	H	0.920604	-0.154946	0.991935
	O324	O	0.425539	0.581532	-0.369586
	H325	H	0.445257	0.587101	-0.372610
	H326	H	0.424881	0.576315	-0.384182
	O327	O	0.502784	0.548896	0.321369
	H328	H	0.504638	0.564279	0.331961
	H329	H	0.487378	0.567713	0.316632
	O330	O	-0.090318	0.032943	0.843972
	H331	H	-0.108904	0.034620	0.841552
	H332	H	-0.108573	0.032716	0.848771
	O333	O	-0.072037	0.109439	0.951005
	H334	H	-0.077956	0.110909	0.976213
	H335	H	-0.057407	0.129514	0.955071
	O336	O	0.388879	0.601659	0.442511
	H337	H	0.405064	0.605890	0.441458
	H338	H	0.391020	0.612646	0.441131
	O339	O	1.140699	0.126589	-0.039691
	H340	H	1.138243	0.142146	-0.035980
	H341	H	1.147186	0.116964	-0.059553
	O342	O	-0.000715	0.036250	-0.094831
	H343	H	-0.011879	0.035253	-0.108490
	H344	H	-0.010215	0.029751	-0.107325
	O345	O	0.974090	-0.040833	1.182894
	H346	H	0.974655	-0.040511	1.175806
	H347	H	0.985639	-0.038239	1.191944
	O348	O	0.934859	0.930623	0.032987
	H349	H	0.933478	0.944304	0.029276
	H350	H	0.938042	0.941808	0.025133
	O351	O	0.444116	0.495141	0.470348
	H352	H	0.445779	0.489968	0.477899
	H353	H	0.443789	0.497347	0.479537
	O354	O	1.136099	-0.066440	1.078281
	H355	H	1.132443	-0.073216	1.063937
	H356	H	1.134787	-0.062481	1.080703
	O357	O	0.537583	0.472693	0.499791
	H358	H	0.544053	0.478321	0.497592
	H359	H	0.530603	0.459508	0.479872
	O360	O	0.432669	0.407951	0.569022
	H361	H	0.425221	0.408172	0.559292
	H362	H	0.437097	0.390685	0.571782
	O363	O	-0.044995	1.116279	0.840263
	H364	H	-0.040668	1.108632	0.836889
	H365	H	-0.058778	1.111160	0.827872
	O366	O	0.556572	0.536294	0.486046
	H367	H	0.552864	0.524896	0.483808
	H368	H	0.562972	0.539597	0.480986
	O369	O	-0.065922	1.124946	-0.081416
	H370	H	-0.060972	1.126000	-0.057895
	H371	H	-0.072227	1.126030	-0.079240
	O372	O	0.061053	0.839252	0.138041
	H373	H	0.066101	0.844005	0.130444
	H374	H	0.059238	0.859688	0.141552
	O375	O	0.530613	0.296618	0.488014
	H376	H	0.549726	0.274840	0.472674
	H377	H	0.524843	0.312734	0.460656
	O378	O	0.500264	0.508876	0.586797
	H379	H	0.495838	0.504879	0.585952
	H380	H	0.510560	0.501765	0.591354
	O381	O	0.999213	-0.156609	-0.066086
	H382	H	0.997656	-0.166887	-0.078079
	H383	H	1.003645	-0.164033	-0.068891
	O384	O	1.038214	1.086623	-0.052895
	H385	H	1.051655	1.077751	-0.054682
	H386	H	1.044680	1.083171	-0.046352
	O387	O	0.027707	-0.108956	-0.081459
	H388	H	0.015548	-0.090926	-0.078442
	H389	H	0.029568	-0.101664	-0.072246
	O390	O	0.066205	1.118947	0.139448
	H391	H	0.055338	1.119757	0.126157
	H392	H	0.080797	1.100757	0.130508
	O393	O	1.115925	0.993256	0.861803
	H394	H	1.130906	0.981903	0.841558
	H395	H	1.111899	0.986399	0.878774
	O396	O	0.422689	0.400280	0.490863
	H397	H	0.437680	0.398910	0.499309
	H398	H	0.405240	0.400193	0.501059
	O399	O	-0.106559	0.820687	1.169437
	H400	H	-0.104812	0.826440	1.169327
	H401	H	-0.093944	0.815740	1.174839
	O402	O	0.399687	0.428782	0.487418
	H403	H	0.404299	0.438848	0.488278
	H404	H	0.385937	0.422211	0.465395
	O405	O	1.398716	1.359539	0.580559
	H406	H	1.403790	1.352977	0.587258
	H407	H	1.403936	1.370329	0.569497
	O408	O	1.145988	1.044592	0.142903
	H409	H	1.148821	1.041512	0.134179
	H410	H	1.146652	1.032866	0.158231
	O411	O	0.587578	-0.657159	0.429446
	H412	H	0.575919	-0.650767	0.419566
	H413	H	0.589043	-0.644038	0.423891
	O414	O	0.414976	0.472356	0.398197
	H415	H	0.408346	0.472726	0.394170
	H416	H	0.407981	0.475170	0.399981
	O417	O	0.365093	0.609675	0.562778
	H418	H	0.383895	0.602628	0.560521
	H419	H	0.355923	0.605420	0.569375
