data_Molecule from HDF5

_cell_length_a		16.406248
_cell_length_b		16.283083
_cell_length_c		16.460651
_cell_angle_alpha	89.819677
_cell_angle_beta	90.035162
_cell_angle_gamma	90.152440
_symmetry_space_group_name_H-M	'P 1'
_symmetry_Int_Tables_number		1

loop_
	_symmetry_equiv_pos_as_xyz
	x,y,z

loop_
	_atom_site_label
	_atom_site_type_symbol
	_atom_site_fract_x
	_atom_site_fract_y
	_atom_site_fract_z
	H0	H	0.398716	0.843735	0.714032
	H1	H	0.612264	0.162584	0.714375
	H2	H	0.613577	0.845336	0.270045
	H3	H	0.401685	0.162959	0.272218
	H4	H	0.727705	0.396647	0.833002
	H5	H	0.726316	0.607741	0.149886
	H6	H	0.282556	0.613584	0.833612
	H7	H	0.284246	0.398601	0.149457
	H8	H	0.844053	0.722846	0.387610
	H9	H	0.165456	0.724308	0.593464
	H10	H	0.845804	0.281824	0.596428
	H11	H	0.163908	0.284713	0.387187
	H12	H	0.846570	0.396420	0.713673
	H13	H	0.163622	0.611696	0.713682
	H14	H	0.844771	0.609218	0.269941
	H15	H	0.162628	0.399396	0.269269
	H16	H	0.399486	0.728221	0.834318
	H17	H	0.609225	0.722432	0.151096
	H18	H	0.609127	0.282425	0.831792
	H19	H	0.404233	0.285420	0.151132
	H20	H	0.725987	0.844648	0.387034
	H21	H	0.728095	0.163037	0.599487
	H22	H	0.283077	0.843650	0.598195
	H23	H	0.285956	0.162755	0.387260
	H24	H	0.895972	0.345611	0.216114
	H25	H	0.109552	0.664422	0.210678
	H26	H	0.111694	0.345761	0.769186
	H27	H	0.895965	0.661622	0.766291
	H28	H	0.227963	0.897520	0.334718
	H29	H	0.230363	0.112995	0.648431
	H30	H	0.783503	0.109883	0.333746
	H31	H	0.782095	0.896133	0.649913
	H32	H	0.345133	0.223230	0.886807
	H33	H	0.664544	0.224146	0.095852
	H34	H	0.346772	0.782150	0.097457
	H35	H	0.663581	0.782239	0.886915
	H36	H	0.347583	0.896262	0.215459
	H37	H	0.663686	0.110453	0.214223
	H38	H	0.347744	0.111498	0.767857
	H39	H	0.661616	0.894176	0.767334
	H40	H	0.902341	0.223886	0.332467
	H41	H	0.113903	0.228292	0.648384
	H42	H	0.105770	0.787660	0.331096
	H43	H	0.898948	0.780242	0.648945
	H44	H	0.225692	0.344970	0.885621
	H45	H	0.226448	0.663549	0.095882
	H46	H	0.782019	0.344464	0.099366
	H47	H	0.782993	0.662778	0.883433
	H48	H	0.415537	0.120076	0.586048
	H49	H	0.587237	0.892580	0.578463
	H50	H	0.591559	0.117949	0.403052
	H51	H	0.414110	0.888874	0.408524
	H52	H	0.593652	0.420241	0.101639
	H53	H	0.587375	0.590367	0.881678
	H54	H	0.419397	0.597862	0.105006
	H55	H	0.416294	0.417113	0.878404
	H56	H	0.117059	0.595157	0.405026
	H57	H	0.890771	0.595313	0.580398
	H58	H	0.120091	0.409402	0.581093
	H59	H	0.889516	0.411019	0.401658
	H60	H	0.114244	0.419879	0.573827
	H61	H	0.893719	0.589544	0.574417
	H62	H	0.118530	0.590848	0.394645
	H63	H	0.893213	0.416804	0.406843
	H64	H	0.408052	0.590431	0.106489
	H65	H	0.594813	0.599841	0.876243
	H66	H	0.590541	0.410188	0.103916
	H67	H	0.415959	0.411645	0.876933
	H68	H	0.593242	0.116665	0.406065
	H69	H	0.596796	0.890357	0.576876
	H70	H	0.423796	0.114938	0.579583
	H71	H	0.413317	0.886449	0.400051
	H72	H	0.918272	0.616245	0.077407
	H73	H	0.096747	0.387812	0.083355
	H74	H	0.089407	0.619439	0.895625
	H75	H	0.915866	0.390434	0.904868
	H76	H	0.099085	0.917123	0.606137
	H77	H	0.096718	0.097997	0.376988
	H78	H	0.917247	0.090516	0.603872
	H79	H	0.912918	0.919259	0.379544
	H80	H	0.617762	0.092493	0.904478
	H81	H	0.390473	0.093195	0.087584
	H82	H	0.620246	0.910751	0.079877
	H83	H	0.396029	0.918278	0.912522
	H84	H	0.617060	0.919064	0.080685
	H85	H	0.390369	0.095674	0.081714
	H86	H	0.618239	0.091096	0.902897
	H87	H	0.392634	0.924154	0.898112
	H88	H	0.916264	0.091824	0.604406
	H89	H	0.098960	0.089014	0.378504
	H90	H	0.089222	0.918234	0.602127
	H91	H	0.917061	0.913233	0.378294
	H92	H	0.089297	0.615753	0.907565
	H93	H	0.087962	0.390297	0.082789
	H94	H	0.914129	0.617487	0.077887
	H95	H	0.916174	0.389253	0.901986
	H96	H	0.413744	0.116894	0.574679
	H97	H	0.592317	0.887965	0.585942
	H98	H	0.594893	0.118213	0.403843
	H99	H	0.420702	0.889008	0.403264
	H100	H	0.600044	0.412945	0.105814
	H101	H	0.599327	0.587510	0.878123
	H102	H	0.418659	0.584648	0.101087
	H103	H	0.411689	0.414911	0.876687
	H104	H	0.120919	0.601051	0.396441
	H105	H	0.893219	0.587185	0.582837
	H106	H	0.118561	0.422171	0.586936
	H107	H	0.891403	0.419035	0.399303
	H108	H	0.917325	0.618376	0.081285
	H109	H	0.093419	0.391620	0.076261
	H110	H	0.099920	0.620752	0.902674
	H111	H	0.918724	0.390870	0.903429
	H112	H	0.092389	0.909120	0.606107
	H113	H	0.090478	0.091946	0.381212
	H114	H	0.915547	0.090971	0.604553
	H115	H	0.910089	0.913258	0.376357
	H116	H	0.618604	0.093534	0.902232
	H117	H	0.392497	0.089816	0.082234
	H118	H	0.620337	0.915014	0.087504
	H119	H	0.389556	0.908839	0.902223
	C120	C	0.383916	0.011998	0.613414
	C121	C	0.626157	0.995274	0.613389
	C122	C	0.625990	0.012411	0.371983
	C123	C	0.384413	0.994212	0.371602
	C124	C	0.627251	0.381252	-0.000683
	C125	C	0.626357	0.624424	0.983282
	C126	C	0.383314	0.625279	-0.000284
	C127	C	0.383276	0.382578	0.982529
	C128	C	0.013170	0.626654	0.368162
	C129	C	0.997165	0.624496	0.611675
	C130	C	0.013239	0.382780	0.613207
	C131	C	0.996597	0.383712	0.370419
	C132	C	0.883301	0.512406	0.112538
	C133	C	0.125305	0.495684	0.112179
	C134	C	0.125443	0.513276	0.870216
	C135	C	0.883409	0.495101	0.869598
	C136	C	0.125493	0.883442	0.499852
	C137	C	0.128328	0.126257	0.482779
	C138	C	0.884278	0.124212	0.499793
	C139	C	0.881302	0.881675	0.482857
	C140	C	0.513577	0.125006	0.870228
	C141	C	0.496381	0.125177	0.114597
	C142	C	0.514528	0.881769	0.115026
	C143	C	0.496987	0.883037	0.871346
	C144	C	0.380538	0.891926	0.674354
	C145	C	0.630206	0.114927	0.674250
	C146	C	0.630019	0.892849	0.311032
	C147	C	0.383114	0.114944	0.311923
	C148	C	0.687665	0.378306	0.880416
	C149	C	0.686382	0.626138	0.102546
	C150	C	0.322843	0.630485	0.881230
	C151	C	0.324379	0.380696	0.102063
	C152	C	0.892299	0.684302	0.368361
	C153	C	0.117149	0.684873	0.612922
	C154	C	0.893774	0.321674	0.615069
	C155	C	0.116129	0.324307	0.368424
	C156	C	0.894010	0.378697	0.673589
	C157	C	0.116312	0.628602	0.672682
	C158	C	0.892673	0.627694	0.309541
	C159	C	0.115401	0.381601	0.309935
	C160	C	0.381534	0.687380	0.881533
	C161	C	0.628055	0.683197	0.103163
	C162	C	0.628390	0.321583	0.879923
	C163	C	0.383778	0.324077	0.102766
	C164	C	0.685830	0.892237	0.369730
	C165	C	0.687917	0.115086	0.616882
	C166	C	0.322811	0.891853	0.616869
	C167	C	0.325584	0.114930	0.369247
	C168	C	0.878980	0.393050	0.174875
	C169	C	0.127732	0.616271	0.171330
	C170	C	0.129154	0.393274	0.809573
	C171	C	0.879235	0.614235	0.807426
	C172	C	0.186528	0.880530	0.381351
	C173	C	0.190076	0.130377	0.600964
	C174	C	0.823557	0.128028	0.381116
	C175	C	0.821502	0.877995	0.601937
	C176	C	0.393514	0.184031	0.868356
	C177	C	0.616205	0.185115	0.115614
	C178	C	0.394627	0.821504	0.116739
	C179	C	0.615925	0.822136	0.868837
	C180	C	0.395143	0.878310	0.175471
	C181	C	0.615881	0.128157	0.174466
	C182	C	0.394767	0.128330	0.808906
	C183	C	0.614907	0.878027	0.809219
	C184	C	0.882654	0.184917	0.380421
	C185	C	0.131735	0.187788	0.601027
	C186	C	0.126154	0.825353	0.379667
	C187	C	0.879746	0.820406	0.601760
	C188	C	0.185816	0.392876	0.867716
	C189	C	0.186037	0.615849	0.114269
	C190	C	0.822196	0.392464	0.116591
	C191	C	0.822511	0.614623	0.865612
	C192	C	0.409899	0.095450	0.587428
	C193	C	0.599808	0.912048	0.587751
	C194	C	0.600444	0.095923	0.397157
	C195	C	0.408887	0.910193	0.396679
	C196	C	0.602105	0.406965	0.082122
	C197	C	0.601123	0.599775	0.900400
	C198	C	0.408137	0.598778	0.082687
	C199	C	0.407540	0.407418	0.899028
	C200	C	0.097123	0.602703	0.391854
	C201	C	0.914266	0.598467	0.586430
	C202	C	0.095990	0.409449	0.588022
	C203	C	0.913201	0.408398	0.395583
	C204	C	0.909244	0.595702	0.086368
	C205	C	0.099985	0.411945	0.087794
	C206	C	0.100170	0.596717	0.895018
	C207	C	0.909427	0.411731	0.895872
	C208	C	0.100705	0.907920	0.583149
	C209	C	0.102852	0.100402	0.400539
	C210	C	0.909170	0.098485	0.582763
	C211	C	0.906169	0.907668	0.399707
	C212	C	0.596832	0.099661	0.895773
	C213	C	0.413131	0.100034	0.090690
	C214	C	0.597501	0.907309	0.089885
	C215	C	0.414261	0.909508	0.897009
	Zn216	Zn	0.505206	0.003440	0.741658
	Zn217	Zn	0.505559	0.003058	0.243548
	Zn218	Zn	0.755794	0.503423	-0.009123
	Zn219	Zn	0.253917	0.504653	-0.009315
	Zn220	Zn	0.004437	0.754187	0.490790
	Zn221	Zn	0.005368	0.253858	0.491668
	Zn222	Zn	0.005108	0.504088	0.741919
	Zn223	Zn	0.003945	0.504540	0.241034
	Zn224	Zn	0.505249	0.753961	-0.007514
	Zn225	Zn	0.504801	0.253087	-0.008740
	Zn226	Zn	0.753734	0.004252	0.492060
	Zn227	Zn	0.255839	0.003131	0.492212
	N228	N	0.417801	0.967664	0.672228
	N229	N	0.592525	0.039595	0.672148
	N230	N	0.593200	0.968372	0.312627
	N231	N	0.418935	0.038833	0.313314
	N232	N	0.687239	0.414454	0.955723
	N233	N	0.685650	0.590481	0.026925
	N234	N	0.324116	0.592287	0.955698
	N235	N	0.323646	0.415947	0.026198
	N236	N	0.968197	0.683889	0.403944
	N237	N	0.041937	0.682529	0.575866
	N238	N	0.968925	0.323923	0.578281
	N239	N	0.041254	0.325739	0.405559
	N240	N	0.969332	0.415718	0.672718
	N241	N	0.040698	0.591880	0.672147
	N242	N	0.968768	0.592723	0.309281
	N243	N	0.039916	0.417629	0.311168
	N244	N	0.418460	0.684195	0.956437
	N245	N	0.591573	0.682435	0.027979
	N246	N	0.591802	0.323141	0.954972
	N247	N	0.419392	0.324878	0.027192
	N248	N	0.683373	0.967617	0.406981
	N249	N	0.685554	0.039590	0.579764
	N250	N	0.324795	0.967455	0.579713
	N251	N	0.326147	0.038794	0.405599
	N252	N	0.916199	0.468636	0.172526
	N253	N	0.090596	0.540583	0.170283
	N254	N	0.092259	0.468859	0.810904
	N255	N	0.916494	0.538795	0.809890
	N256	N	0.186331	0.915625	0.457229
	N257	N	0.188209	0.092837	0.526471
	N258	N	0.824348	0.091402	0.456403
	N259	N	0.822621	0.915396	0.526964
	N260	N	0.468352	0.181933	0.905998
	N261	N	0.541043	0.183467	0.079079
	N262	N	0.469705	0.823444	0.079864
	N263	N	0.541460	0.825379	0.906981
	N264	N	0.470779	0.914933	0.174643
	N265	N	0.540299	0.091593	0.174151
	N266	N	0.470638	0.092618	0.809662
	N267	N	0.540010	0.915294	0.810818
	N268	N	0.919731	0.182678	0.455276
	N269	N	0.094163	0.185570	0.526475
	N270	N	0.088705	0.827253	0.454253
	N271	N	0.916100	0.822474	0.526601
	N272	N	0.183767	0.468545	0.904656
	N273	N	0.184829	0.539755	0.078413
	N274	N	0.824777	0.467713	0.078369
	N275	N	0.825101	0.539440	0.903599
	O276	O	0.613796	0.322824	0.537468
	H277	H	0.630338	0.309796	0.523874
	H278	H	0.616357	0.327066	0.511760
	O279	O	0.488507	0.426249	0.657818
	H280	H	0.490897	0.409400	0.624408
	H281	H	0.499015	0.423673	0.663067
	O282	O	0.708890	0.688461	0.510321
	H283	H	0.711681	0.699498	0.509649
	H284	H	0.717096	0.699988	0.522151
	O285	O	1.040778	0.995789	0.153976
	H286	H	1.026163	0.982057	0.159769
	H287	H	1.035561	1.015593	0.135805
	O288	O	0.472627	0.460378	0.450706
	H289	H	0.475515	0.462535	0.455437
	H290	H	0.466827	0.465301	0.474397
	O291	O	0.465608	0.561411	0.651584
	H292	H	0.466471	0.574438	0.654573
	H293	H	0.450685	0.537414	0.649209
	O294	O	1.191257	1.189950	1.180784
	H295	H	1.164435	1.200757	1.166895
	H296	H	1.202569	1.176972	1.196498
	O297	O	0.440120	0.698879	0.286963
	H298	H	0.459970	0.708031	0.300192
	H299	H	0.439475	0.721890	0.288648
	O300	O	0.608907	0.572241	0.318588
	H301	H	0.606960	0.559950	0.334165
	H302	H	0.621361	0.569695	0.308925
	O303	O	0.374874	0.309372	0.573938
	H304	H	0.368719	0.311283	0.559050
	H305	H	0.385930	0.304791	0.559384
	O306	O	-0.111745	-0.052424	0.849119
	H307	H	-0.106144	-0.045271	0.862266
	H308	H	-0.107067	-0.090884	0.851202
	O309	O	0.987878	-0.193127	-0.208769
	H310	H	1.015318	-0.188695	-0.198482
	H311	H	1.005026	-0.208797	-0.225048
	O312	O	0.317506	0.504805	0.403603
	H313	H	0.329213	0.514994	0.389475
	H314	H	0.317454	0.508535	0.409015
	O315	O	0.661772	0.440197	0.498824
	H316	H	0.682692	0.422050	0.502487
	H317	H	0.665922	0.457812	0.475721
	O318	O	-0.183505	-0.177101	0.177839
	H319	H	-0.182859	-0.131951	0.186802
	H320	H	-0.161644	-0.178895	0.168091
	O321	O	0.600864	0.312803	0.300732
	H322	H	0.602476	0.292397	0.282919
	H323	H	0.571098	0.323654	0.289238
	O324	O	1.041138	0.059837	0.936056
	H325	H	1.049047	0.069691	0.942680
	H326	H	1.036163	0.070658	0.931094
	O327	O	0.399264	0.316660	0.625965
	H328	H	0.404463	0.319875	0.625803
	H329	H	0.400768	0.310153	0.616903
	O330	O	0.122417	0.833449	1.011436
	H331	H	0.131788	0.834595	1.018320
	H332	H	0.118982	0.836888	1.011946
	O333	O	0.193726	1.068076	-0.055954
	H334	H	0.192043	1.077418	-0.076559
	H335	H	0.188961	1.068715	-0.052783
	O336	O	0.925497	1.108874	-0.199630
	H337	H	0.906627	1.085890	-0.206588
	H338	H	0.919912	1.107946	-0.167351
	O339	O	-0.008270	1.211225	0.777451
	H340	H	-0.041678	1.193438	0.790468
	H341	H	-0.015902	1.242558	0.751205
	O342	O	0.457467	0.475105	0.507295
	H343	H	0.462795	0.487519	0.519407
	H344	H	0.457167	0.482515	0.501421
	O345	O	0.129809	0.094761	0.854507
	H346	H	0.155976	0.091084	0.841332
	H347	H	0.116451	0.121955	0.832035
	O348	O	0.626169	0.325765	0.333255
	H349	H	0.603050	0.332200	0.327640
	H350	H	0.622132	0.343020	0.329221
	O351	O	0.804178	0.898691	0.016218
	H352	H	0.804801	0.893629	0.003244
	H353	H	0.798736	0.888063	0.014815
	O354	O	1.195548	0.814944	0.899611
	H355	H	1.203249	0.800881	0.919662
	H356	H	1.209540	0.838154	0.905630
	O357	O	0.221855	0.220655	0.021590
	H358	H	0.248361	0.244366	0.033061
	H359	H	0.225103	0.214284	0.029778
	O360	O	-0.187414	0.202850	0.903369
	H361	H	-0.153900	0.198475	0.915399
	H362	H	-0.213366	0.204856	0.893581
	O363	O	0.795148	0.131604	0.016468
	H364	H	0.793314	0.152948	0.000770
	H365	H	0.790312	0.116687	-0.016286
	O366	O	0.001834	0.024525	1.199221
	H367	H	-0.023649	0.025992	1.192177
	H368	H	-0.016602	0.023024	1.206505
	O369	O	1.046209	0.147827	1.110462
	H370	H	1.056239	0.161378	1.134415
	H371	H	1.061712	0.128536	1.102876
	O372	O	0.657734	0.650145	0.616319
	H373	H	0.657515	0.628685	0.616149
	H374	H	0.643258	0.655776	0.617333
	O375	O	-0.503687	-0.321699	1.500252
	H376	H	-0.507528	-0.308970	1.508881
	H377	H	-0.505387	-0.328440	1.521574
	O378	O	0.540268	0.580775	0.506846
	H379	H	0.548687	0.584403	0.515223
	H380	H	0.537106	0.574335	0.514918
	O381	O	-0.115655	0.899264	-0.042812
	H382	H	-0.112936	0.894503	-0.056325
	H383	H	-0.112566	0.876631	-0.038774
	O384	O	0.466745	0.633993	0.537449
	H385	H	0.467914	0.621653	0.550868
	H386	H	0.465075	0.624979	0.543112
	O387	O	0.432541	0.404990	0.302701
	H388	H	0.418331	0.436009	0.305484
	H389	H	0.461767	0.411245	0.306352
	O390	O	1.103535	0.924270	-0.209105
	H391	H	1.103214	0.933371	-0.208917
	H392	H	1.124472	0.913977	-0.232265
	O393	O	1.152646	-0.000710	1.173779
	H394	H	1.142684	0.015607	1.180565
	H395	H	1.157900	0.002140	1.176764
	O396	O	0.359876	0.418956	0.701419
	H397	H	0.346307	0.390871	0.714588
	H398	H	0.366674	0.395798	0.694728
	O399	O	0.643666	0.520463	0.615142
	H400	H	0.657920	0.523134	0.621089
	H401	H	0.634923	0.533488	0.628619
	O402	O	0.947146	1.207447	0.055905
	H403	H	0.965633	1.210215	0.059918
	H404	H	0.950841	1.212423	0.039807
	O405	O	0.500011	0.647824	0.691508
	H406	H	0.491576	0.635810	0.698437
	H407	H	0.505605	0.629390	0.702882
	O408	O	0.315438	0.559165	0.335158
	H409	H	0.312098	0.572376	0.325887
	H410	H	0.326504	0.567628	0.328007
	O411	O	1.121221	0.944449	0.810476
	H412	H	1.117340	0.936107	0.824830
	H413	H	1.120520	0.985307	0.803240
	O414	O	-0.188061	-0.008215	1.190332
	H415	H	-0.194062	-0.001860	1.183638
	H416	H	-0.184970	0.010439	1.181959
	O417	O	0.078919	1.020595	1.093328
	H418	H	0.078128	1.019468	1.085450
	H419	H	0.078627	1.046027	1.103408
	O420	O	-0.117899	0.788852	0.979005
	H421	H	-0.118342	0.794521	1.003101
	H422	H	-0.113657	0.781204	0.967352
	O423	O	0.008881	0.862324	0.132654
	H424	H	0.026024	0.865624	0.145961
	H425	H	0.018975	0.854948	0.131323
	O426	O	0.297991	0.616852	0.378905
	H427	H	0.293889	0.632855	0.381599
	H428	H	0.295030	0.629021	0.355311
	O429	O	0.584098	0.501868	0.457807
	H430	H	0.596698	0.509179	0.455213
	H431	H	0.599962	0.507802	0.467324
	O432	O	0.459334	0.533101	0.507951
	H433	H	0.449116	0.533090	0.497764
	H434	H	0.475997	0.526380	0.516154
	O435	O	0.125645	-0.095757	0.189978
	H436	H	0.128714	-0.095362	0.180821
	H437	H	0.118079	-0.109768	0.195881
	O438	O	-0.194819	1.021206	0.780380
	H439	H	-0.192281	1.000389	0.777484
	H440	H	-0.206492	1.005606	0.774047
	O441	O	0.497392	0.368723	0.538902
	H442	H	0.491721	0.371013	0.528889
	H443	H	0.504805	0.353014	0.526624
