data_Molecule from HDF5

_cell_length_a		16.199164
_cell_length_b		16.241720
_cell_length_c		16.252401
_cell_angle_alpha	89.861291
_cell_angle_beta	89.954230
_cell_angle_gamma	90.324408
_symmetry_space_group_name_H-M	'P 1'
_symmetry_Int_Tables_number		1

loop_
	_symmetry_equiv_pos_as_xyz
	x,y,z

loop_
	_atom_site_label
	_atom_site_type_symbol
	_atom_site_fract_x
	_atom_site_fract_y
	_atom_site_fract_z
	H0	H	0.402389	0.834842	0.702032
	H1	H	0.604603	0.161283	0.702913
	H2	H	0.601094	0.834054	0.272762
	H3	H	0.405256	0.162107	0.271637
	H4	H	0.715015	0.400171	0.823696
	H5	H	0.716964	0.598091	0.151605
	H6	H	0.288131	0.596276	0.823394
	H7	H	0.286199	0.398614	0.151585
	H8	H	0.838014	0.712159	0.389699
	H9	H	0.166896	0.713946	0.586266
	H10	H	0.839322	0.281985	0.588447
	H11	H	0.167065	0.284925	0.387759
	H12	H	0.838591	0.398172	0.701866
	H13	H	0.167578	0.598138	0.701558
	H14	H	0.838432	0.597606	0.273104
	H15	H	0.166905	0.400991	0.273035
	H16	H	0.402305	0.713719	0.824221
	H17	H	0.600922	0.713402	0.151852
	H18	H	0.601633	0.284075	0.824720
	H19	H	0.402579	0.283457	0.151689
	H20	H	0.715686	0.833849	0.389451
	H21	H	0.716975	0.162686	0.584961
	H22	H	0.287983	0.834075	0.586521
	H23	H	0.289568	0.162355	0.387553
	H24	H	0.901403	0.334292	0.203699
	H25	H	0.101919	0.662492	0.201281
	H26	H	0.099644	0.334528	0.773239
	H27	H	0.902854	0.662298	0.771527
	H28	H	0.215044	0.902423	0.323252
	H29	H	0.219690	0.098729	0.651183
	H30	H	0.789894	0.096523	0.323216
	H31	H	0.787278	0.898975	0.652077
	H32	H	0.337777	0.211787	0.887380
	H33	H	0.666591	0.213576	0.086164
	H34	H	0.337099	0.784209	0.086714
	H35	H	0.665789	0.783833	0.887976
	H36	H	0.338180	0.898013	0.202175
	H37	H	0.666293	0.098371	0.201348
	H38	H	0.338109	0.096167	0.771452
	H39	H	0.666630	0.899595	0.772919
	H40	H	0.904780	0.213516	0.324511
	H41	H	0.103132	0.213868	0.651742
	H42	H	0.100806	0.786104	0.323732
	H43	H	0.901655	0.781959	0.651200
	H44	H	0.214798	0.333698	0.888788
	H45	H	0.217611	0.662243	0.086375
	H46	H	0.787210	0.333414	0.085184
	H47	H	0.788103	0.662564	0.888105
	H48	H	0.417808	0.111974	0.573810
	H49	H	0.588761	0.881092	0.584670
	H50	H	0.585514	0.108729	0.403754
	H51	H	0.410646	0.879472	0.388170
	H52	H	0.598917	0.405664	0.106944
	H53	H	0.602171	0.588349	0.870194
	H54	H	0.406322	0.584313	0.103872
	H55	H	0.404464	0.413650	0.871689
	H56	H	0.117751	0.585948	0.394660
	H57	H	0.884780	0.591971	0.581225
	H58	H	0.122392	0.403789	0.586644
	H59	H	0.885964	0.403374	0.398904
	H60	H	0.119872	0.403272	0.574655
	H61	H	0.885861	0.591217	0.578533
	H62	H	0.122964	0.595558	0.385431
	H63	H	0.887230	0.409171	0.395724
	H64	H	0.415899	0.591618	0.102511
	H65	H	0.587453	0.586527	0.874419
	H66	H	0.592298	0.408824	0.103488
	H67	H	0.416355	0.403210	0.872899
	H68	H	0.612137	0.118510	0.397500
	H69	H	0.593867	0.883394	0.572921
	H70	H	0.404398	0.116832	0.576696
	H71	H	0.412916	0.883849	0.398168
	H72	H	0.913830	0.616310	0.090081
	H73	H	0.093209	0.382814	0.077065
	H74	H	0.093849	0.616055	0.891701
	H75	H	0.905728	0.382022	0.895518
	H76	H	0.090658	0.895569	0.607482
	H77	H	0.099404	0.097101	0.369008
	H78	H	0.910130	0.090638	0.604669
	H79	H	0.911441	0.905724	0.371952
	H80	H	0.618063	0.091949	0.895461
	H81	H	0.387332	0.086792	0.074484
	H82	H	0.617378	0.908256	0.076732
	H83	H	0.385636	0.910231	0.892752
	H84	H	0.619728	0.907480	0.083918
	H85	H	0.384392	0.086377	0.085118
	H86	H	0.619124	0.091264	0.894977
	H87	H	0.382357	0.901865	0.892130
	H88	H	0.909425	0.090711	0.604946
	H89	H	0.098612	0.086551	0.371966
	H90	H	0.105779	0.908384	0.607375
	H91	H	0.909623	0.903748	0.370702
	H92	H	0.092543	0.614199	0.896943
	H93	H	0.097671	0.380301	0.081639
	H94	H	0.915477	0.610486	0.071877
	H95	H	0.907379	0.380626	0.892154
	H96	H	0.413800	0.116739	0.587033
	H97	H	0.601812	0.878768	0.582438
	H98	H	0.591799	0.118802	0.377464
	H99	H	0.401914	0.880013	0.396296
	H100	H	0.592015	0.400687	0.105809
	H101	H	0.592942	0.600979	0.869147
	H102	H	0.405186	0.595606	0.107052
	H103	H	0.402125	0.398788	0.866841
	H104	H	0.120705	0.599862	0.399644
	H105	H	0.885589	0.587734	0.580467
	H106	H	0.118513	0.413776	0.580173
	H107	H	0.884035	0.404004	0.392860
	H108	H	0.898701	0.618406	0.078960
	H109	H	0.090887	0.381169	0.084224
	H110	H	0.098653	0.615809	0.895884
	H111	H	0.909520	0.382108	0.894358
	H112	H	0.087917	0.914133	0.600348
	H113	H	0.090151	0.093447	0.373234
	H114	H	0.909831	0.090677	0.604454
	H115	H	0.908765	0.906645	0.371199
	H116	H	0.618883	0.091698	0.894502
	H117	H	0.382799	0.096769	0.078880
	H118	H	0.620319	0.902048	0.079213
	H119	H	0.386037	0.904495	0.899219
	C120	C	0.381964	0.006736	0.608337
	C121	C	0.624055	0.989714	0.608572
	C122	C	0.624299	0.006890	0.365236
	C123	C	0.380606	0.989433	0.364839
	C124	C	0.622656	0.377186	-0.003241
	C125	C	0.623272	0.620721	0.979521
	C126	C	0.379975	0.619595	-0.003886
	C127	C	0.378994	0.376076	0.979138
	C128	C	0.011402	0.621290	0.365308
	C129	C	0.994256	0.619707	0.608887
	C130	C	0.011794	0.377016	0.609468
	C131	C	0.994551	0.377677	0.366784
	C132	C	0.879864	0.506824	0.109558
	C133	C	0.123106	0.489925	0.108867
	C134	C	0.122991	0.506698	0.866292
	C135	C	0.879435	0.489888	0.865070
	C136	C	0.123419	0.877925	0.496169
	C137	C	0.125609	0.121413	0.479347
	C138	C	0.881641	0.119797	0.496322
	C139	C	0.880135	0.876001	0.479430
	C140	C	0.510344	0.120067	0.865492
	C141	C	0.493480	0.119696	0.108563
	C142	C	0.510766	0.876527	0.108763
	C143	C	0.493375	0.876863	0.865957
	C144	C	0.382525	0.883847	0.664515
	C145	C	0.623492	0.112674	0.664390
	C146	C	0.621755	0.883229	0.310155
	C147	C	0.384290	0.113147	0.309703
	C148	C	0.677516	0.380063	0.872796
	C149	C	0.679025	0.618348	0.102579
	C150	C	0.325199	0.617301	0.872672
	C151	C	0.324018	0.378024	0.102633
	C152	C	0.887302	0.675103	0.368753
	C153	C	0.118001	0.675436	0.606406
	C154	C	0.888232	0.320756	0.607731
	C155	C	0.117987	0.322847	0.368153
	C156	C	0.887923	0.378286	0.664340
	C157	C	0.118181	0.618056	0.663938
	C158	C	0.887556	0.618114	0.310864
	C159	C	0.118006	0.380830	0.311234
	C160	C	0.382019	0.675654	0.873178
	C161	C	0.621373	0.675656	0.102830
	C162	C	0.620929	0.322194	0.873195
	C163	C	0.381922	0.320902	0.102535
	C164	C	0.679051	0.883324	0.367936
	C165	C	0.679567	0.113430	0.606093
	C166	C	0.325921	0.883326	0.606663
	C167	C	0.326805	0.113341	0.367323
	C168	C	0.881577	0.383146	0.165218
	C169	C	0.121477	0.613538	0.163472
	C170	C	0.120056	0.383186	0.811371
	C171	C	0.882721	0.613375	0.809783
	C172	C	0.177929	0.881464	0.372586
	C173	C	0.181468	0.119075	0.602512
	C174	C	0.827454	0.117044	0.372430
	C175	C	0.824951	0.878531	0.602907
	C176	C	0.386805	0.174269	0.867535
	C177	C	0.617196	0.175672	0.106381
	C178	C	0.386632	0.821340	0.107085
	C179	C	0.616790	0.821515	0.868100
	C180	C	0.387017	0.878021	0.164349
	C181	C	0.617227	0.118478	0.163756
	C182	C	0.387075	0.116991	0.809701
	C183	C	0.617330	0.878931	0.810796
	C184	C	0.884477	0.175349	0.373025
	C185	C	0.123462	0.176190	0.602861
	C186	C	0.120923	0.823654	0.372647
	C187	C	0.881579	0.820139	0.602552
	C188	C	0.177184	0.382957	0.868852
	C189	C	0.179218	0.613333	0.106656
	C190	C	0.825008	0.382728	0.106197
	C191	C	0.825620	0.613595	0.867810
	C192	C	0.405126	0.092952	0.585719
	C193	C	0.601281	0.903619	0.586559
	C194	C	0.602918	0.092987	0.386420
	C195	C	0.402263	0.903395	0.387449
	C196	C	0.600842	0.398715	0.082932
	C197	C	0.600836	0.598570	0.893648
	C198	C	0.402490	0.596934	0.082189
	C199	C	0.401192	0.398660	0.892878
	C200	C	0.098201	0.600113	0.386839
	C201	C	0.907770	0.597004	0.586701
	C202	C	0.098059	0.400137	0.587073
	C203	C	0.908115	0.399238	0.389110
	C204	C	0.902566	0.592778	0.087069
	C205	C	0.100435	0.403723	0.087250
	C206	C	0.101307	0.593055	0.888093
	C207	C	0.901062	0.403754	0.887320
	C208	C	0.101285	0.899516	0.582708
	C209	C	0.102881	0.099203	0.393584
	C210	C	0.903479	0.097375	0.582387
	C211	C	0.903196	0.898632	0.393541
	C212	C	0.596679	0.097955	0.888133
	C213	C	0.407301	0.096777	0.086037
	C214	C	0.596910	0.899185	0.086453
	C215	C	0.406991	0.899100	0.888006
	Zn216	Zn	0.502583	-0.002093	0.737238
	Zn217	Zn	0.502555	-0.002269	0.236460
	Zn218	Zn	0.751005	0.498256	-0.012706
	Zn219	Zn	0.251312	0.497820	-0.012702
	Zn220	Zn	0.002613	0.748690	0.487935
	Zn221	Zn	0.003597	0.249087	0.488063
	Zn222	Zn	0.002409	0.498505	0.736867
	Zn223	Zn	0.002293	0.498535	0.237851
	Zn224	Zn	0.501498	0.748912	-0.012146
	Zn225	Zn	0.501953	0.248743	-0.012621
	Zn226	Zn	0.752125	-0.001662	0.487444
	Zn227	Zn	0.252951	-0.001434	0.487909
	N228	N	0.416820	0.961578	0.665597
	N229	N	0.589661	0.034756	0.666239
	N230	N	0.588525	0.960906	0.308209
	N231	N	0.416799	0.035264	0.307972
	N232	N	0.678749	0.413469	0.950533
	N233	N	0.680543	0.584959	0.024835
	N234	N	0.323894	0.583146	0.950149
	N235	N	0.322091	0.411623	0.024951
	N236	N	0.965385	0.677146	0.401935
	N237	N	0.039950	0.676518	0.572887
	N238	N	0.966389	0.319616	0.574430
	N239	N	0.040287	0.320952	0.402150
	N240	N	0.965641	0.412708	0.665563
	N241	N	0.040126	0.584263	0.665571
	N242	N	0.965657	0.585439	0.308671
	N243	N	0.040155	0.414225	0.310363
	N244	N	0.415223	0.677247	0.951212
	N245	N	0.587609	0.677487	0.025259
	N246	N	0.587642	0.320336	0.951088
	N247	N	0.415268	0.319498	0.024600
	N248	N	0.680835	0.961059	0.401515
	N249	N	0.680180	0.035886	0.572179
	N250	N	0.325336	0.960971	0.572540
	N251	N	0.324403	0.035519	0.401102
	N252	N	0.914929	0.461317	0.167352
	N253	N	0.087386	0.535687	0.165064
	N254	N	0.087021	0.461250	0.809636
	N255	N	0.915497	0.535412	0.807945
	N256	N	0.179495	0.914462	0.450471
	N257	N	0.182835	0.085503	0.524828
	N258	N	0.825573	0.083151	0.450095
	N259	N	0.823811	0.912482	0.525157
	N260	N	0.464678	0.176463	0.901378
	N261	N	0.539313	0.176601	0.072768
	N262	N	0.464475	0.820259	0.073349
	N263	N	0.538666	0.819969	0.901470
	N264	N	0.465182	0.911727	0.165762
	N265	N	0.539336	0.084085	0.165256
	N266	N	0.465091	0.083898	0.808412
	N267	N	0.539578	0.912787	0.809468
	N268	N	0.917543	0.177055	0.450885
	N269	N	0.089523	0.177714	0.525242
	N270	N	0.087774	0.821472	0.450601
	N271	N	0.915114	0.818406	0.524783
	N272	N	0.179158	0.460703	0.902111
	N273	N	0.180456	0.535514	0.073469
	N274	N	0.823542	0.460578	0.072479
	N275	N	0.823377	0.535924	0.901417
	O276	O	0.915568	1.049414	0.031177
	H277	H	0.907412	1.046179	0.035978
	H278	H	0.919748	1.047649	0.033155
	O279	O	0.471964	-0.507950	1.438817
	H280	H	0.477876	-0.505685	1.429522
	H281	H	0.475041	-0.498024	1.442037
	O282	O	0.029538	-0.040434	0.090051
	H283	H	0.030284	-0.039015	0.091003
	H284	H	0.028066	-0.045971	0.082911
	O285	O	0.547925	0.550161	0.548878
	H286	H	0.544487	0.543926	0.545556
	H287	H	0.552829	0.559309	0.551812
	O288	O	0.031886	0.029612	0.042684
	H289	H	0.031465	0.044600	0.046408
	H290	H	0.034965	0.025435	0.047818
	O291	O	-0.035185	0.961255	-0.033252
	H292	H	-0.037845	0.961598	-0.035152
	H293	H	-0.038130	0.963292	-0.035363
	O294	O	-0.032102	1.038055	0.033859
	H295	H	-0.030806	1.039174	0.031543
	H296	H	-0.039854	1.032779	0.035644
	O297	O	0.583244	0.501823	0.513428
	H298	H	0.584745	0.510252	0.521454
	H299	H	0.575018	0.502920	0.518773
	O300	O	0.584657	0.511876	0.522701
	H301	H	0.590584	0.504401	0.531214
	H302	H	0.582212	0.511812	0.520324
	O303	O	0.995400	-0.004367	0.928435
	H304	H	0.992746	-0.003061	0.918328
	H305	H	1.001039	-0.002699	0.937048
	O306	O	0.018791	0.911331	1.001698
	H307	H	0.014339	0.902527	1.010472
	H308	H	0.025389	0.908121	1.006292
	O309	O	-0.035316	1.010445	1.020912
	H310	H	-0.031269	1.003749	1.026735
	H311	H	-0.040715	1.004396	1.022973
	O312	O	0.039664	-0.040319	0.990311
	H313	H	0.045953	-0.039410	0.986835
	H314	H	0.047991	-0.037099	0.995407
	O315	O	0.559522	0.504416	0.483774
	H316	H	0.568454	0.497897	0.489672
	H317	H	0.566497	0.505164	0.483363
	O318	O	-0.005522	0.052425	1.010726
	H319	H	-0.008613	0.058078	1.009822
	H320	H	-0.010039	0.055676	1.011168
	O321	O	0.000948	0.991685	0.937616
	H322	H	-0.002505	0.992475	0.933029
	H323	H	0.000046	0.993433	0.936597
	O324	O	1.006083	-0.009394	0.978479
	H325	H	1.009335	-0.009237	0.975225
	H326	H	1.004970	-0.002921	0.980610
	O327	O	1.045264	0.979826	0.956361
	H328	H	1.045069	0.973719	0.953805
	H329	H	1.044250	0.978176	0.961974
	O330	O	0.456905	0.465969	0.500587
	H331	H	0.454626	0.468408	0.502412
	H332	H	0.451598	0.463792	0.504823
	O333	O	0.537906	0.528231	0.528132
	H334	H	0.539769	0.524513	0.528922
	H335	H	0.540369	0.539181	0.531756
	O336	O	0.489059	0.497687	0.431461
	H337	H	0.486597	0.506305	0.427837
	H338	H	0.493152	0.499504	0.425869
	O339	O	0.476325	0.486000	0.458955
	H340	H	0.477242	0.488279	0.458464
	H341	H	0.482473	0.474966	0.455468
	O342	O	0.518931	0.469271	0.542336
	H343	H	0.512815	0.464948	0.539623
	H344	H	0.514287	0.461516	0.542100
	O345	O	0.485022	0.459936	0.536079
	H346	H	0.481682	0.449747	0.523341
	H347	H	0.483311	0.463897	0.531521
