data_Molecule from HDF5

_cell_length_a		16.218057
_cell_length_b		16.075991
_cell_length_c		16.384450
_cell_angle_alpha	89.324310
_cell_angle_beta	89.474571
_cell_angle_gamma	90.271778
_symmetry_space_group_name_H-M	'P 1'
_symmetry_Int_Tables_number		1

loop_
	_symmetry_equiv_pos_as_xyz
	x,y,z

loop_
	_atom_site_label
	_atom_site_type_symbol
	_atom_site_fract_x
	_atom_site_fract_y
	_atom_site_fract_z
	H0	H	0.402408	0.837432	0.720020
	H1	H	0.607045	0.167127	0.715533
	H2	H	0.605809	0.835431	0.291394
	H3	H	0.407811	0.164778	0.284660
	H4	H	0.721171	0.405031	0.840518
	H5	H	0.717210	0.601421	0.164881
	H6	H	0.289956	0.602712	0.838057
	H7	H	0.282589	0.397082	0.163074
	H8	H	0.839600	0.718752	0.404937
	H9	H	0.169870	0.714906	0.594138
	H10	H	0.839411	0.286758	0.601910
	H11	H	0.170130	0.297458	0.406101
	H12	H	0.839135	0.400107	0.720287
	H13	H	0.165863	0.606462	0.718051
	H14	H	0.838592	0.607750	0.286119
	H15	H	0.165433	0.406125	0.284377
	H16	H	0.406754	0.719394	0.839107
	H17	H	0.597192	0.711250	0.166573
	H18	H	0.599572	0.292544	0.837908
	H19	H	0.401107	0.283160	0.163803
	H20	H	0.718875	0.836663	0.405812
	H21	H	0.716495	0.169321	0.594506
	H22	H	0.286737	0.838926	0.605734
	H23	H	0.298573	0.169288	0.403719
	H24	H	0.898978	0.339298	0.222500
	H25	H	0.100798	0.669617	0.211014
	H26	H	0.102137	0.338144	0.787582
	H27	H	0.901254	0.666166	0.785251
	H28	H	0.223387	0.907622	0.339122
	H29	H	0.221140	0.104218	0.664782
	H30	H	0.791915	0.105767	0.338195
	H31	H	0.787192	0.900126	0.662886
	H32	H	0.337295	0.212174	0.905834
	H33	H	0.668080	0.215515	0.095613
	H34	H	0.337951	0.787758	0.102001
	H35	H	0.668945	0.791362	0.907767
	H36	H	0.341730	0.898210	0.223458
	H37	H	0.669200	0.099752	0.213211
	H38	H	0.341376	0.103149	0.784195
	H39	H	0.667212	0.899969	0.786263
	H40	H	0.912191	0.219271	0.338248
	H41	H	0.101425	0.216400	0.666056
	H42	H	0.104269	0.793074	0.337339
	H43	H	0.904573	0.786894	0.664020
	H44	H	0.213883	0.336270	0.903932
	H45	H	0.216558	0.667107	0.096096
	H46	H	0.786771	0.338019	0.106698
	H47	H	0.792092	0.668673	0.905043
	H48	H	0.416962	0.119131	0.591555
	H49	H	0.603023	0.884737	0.586061
	H50	H	0.594808	0.119891	0.403144
	H51	H	0.413246	0.880824	0.406201
	H52	H	0.583384	0.404907	0.115722
	H53	H	0.595731	0.593134	0.888567
	H54	H	0.404772	0.583398	0.114952
	H55	H	0.413148	0.415359	0.888663
	H56	H	0.120190	0.597682	0.405059
	H57	H	0.883457	0.594283	0.605337
	H58	H	0.122372	0.405797	0.593325
	H59	H	0.887478	0.411314	0.415599
	H60	H	0.117052	0.418646	0.594230
	H61	H	0.886195	0.602296	0.588657
	H62	H	0.119385	0.595575	0.406084
	H63	H	0.885829	0.415423	0.408838
	H64	H	0.414560	0.595464	0.116574
	H65	H	0.596197	0.601051	0.885157
	H66	H	0.601261	0.399084	0.122312
	H67	H	0.411108	0.401551	0.883307
	H68	H	0.599629	0.119731	0.409985
	H69	H	0.601184	0.879013	0.607044
	H70	H	0.411889	0.121878	0.594116
	H71	H	0.419523	0.886240	0.416740
	H72	H	0.910624	0.622926	0.097856
	H73	H	0.093880	0.385221	0.092120
	H74	H	0.103934	0.625632	0.901183
	H75	H	0.906293	0.381234	0.908534
	H76	H	0.100712	0.915584	0.616662
	H77	H	0.108606	0.097600	0.385182
	H78	H	0.918275	0.097881	0.615306
	H79	H	0.918663	0.908233	0.385377
	H80	H	0.615951	0.088196	0.913384
	H81	H	0.390067	0.080731	0.098220
	H82	H	0.620642	0.907633	0.095837
	H83	H	0.389611	0.917799	0.912277
	H84	H	0.622915	0.906399	0.100595
	H85	H	0.383632	0.094976	0.104524
	H86	H	0.623195	0.093223	0.897949
	H87	H	0.383980	0.909243	0.903507
	H88	H	0.903056	0.100644	0.621449
	H89	H	0.098681	0.098203	0.387829
	H90	H	0.089287	0.910382	0.615183
	H91	H	0.905218	0.910674	0.382535
	H92	H	0.086527	0.619433	0.902771
	H93	H	0.092931	0.382414	0.100956
	H94	H	0.913222	0.619558	0.092246
	H95	H	0.917867	0.385378	0.909761
	H96	H	0.416904	0.120752	0.597128
	H97	H	0.584837	0.887930	0.596499
	H98	H	0.603029	0.122281	0.403068
	H99	H	0.406385	0.882443	0.418165
	H100	H	0.597255	0.417966	0.116075
	H101	H	0.602442	0.594812	0.885345
	H102	H	0.399940	0.596967	0.120926
	H103	H	0.400976	0.410695	0.882553
	H104	H	0.120779	0.596257	0.403503
	H105	H	0.891315	0.584077	0.591537
	H106	H	0.122169	0.412593	0.604739
	H107	H	0.884013	0.407916	0.410016
	H108	H	0.906334	0.622313	0.093267
	H109	H	0.085554	0.386110	0.096212
	H110	H	0.097552	0.618485	0.916861
	H111	H	0.910042	0.386159	0.919309
	H112	H	0.098665	0.903168	0.619584
	H113	H	0.103741	0.106631	0.384177
	H114	H	0.906926	0.085504	0.615643
	H115	H	0.913634	0.920826	0.387434
	H116	H	0.622635	0.104578	0.910898
	H117	H	0.388407	0.094432	0.088511
	H118	H	0.623131	0.902814	0.097261
	H119	H	0.386232	0.905376	0.915573
	C120	C	0.384084	0.011489	0.624417
	C121	C	0.626001	0.993488	0.623183
	C122	C	0.627511	0.010867	0.379397
	C123	C	0.385738	0.992598	0.383077
	C124	C	0.624108	0.380195	0.010619
	C125	C	0.624791	0.623361	0.994294
	C126	C	0.379729	0.622933	0.009976
	C127	C	0.378616	0.378857	0.992462
	C128	C	0.011708	0.626320	0.378166
	C129	C	0.995168	0.624104	0.622735
	C130	C	0.011911	0.381268	0.626110
	C131	C	0.994486	0.384305	0.381741
	C132	C	0.879817	0.512501	0.125465
	C133	C	0.121659	0.493883	0.122607
	C134	C	0.123955	0.511434	0.879344
	C135	C	0.882471	0.493514	0.882700
	C136	C	0.126587	0.882607	0.509423
	C137	C	0.129560	0.127930	0.493812
	C138	C	0.882967	0.125172	0.509688
	C139	C	0.882561	0.881954	0.492393
	C140	C	0.512168	0.123769	0.879304
	C141	C	0.495614	0.120660	0.123312
	C142	C	0.513187	0.876849	0.126960
	C143	C	0.495064	0.881019	0.881771
	C144	C	0.383323	0.886965	0.681392
	C145	C	0.625845	0.117900	0.677532
	C146	C	0.625921	0.885681	0.327309
	C147	C	0.387949	0.116390	0.324387
	C148	C	0.681961	0.384056	0.888638
	C149	C	0.678925	0.620816	0.116530
	C150	C	0.327112	0.622394	0.886927
	C151	C	0.321738	0.378502	0.114793
	C152	C	0.888531	0.682069	0.382433
	C153	C	0.119648	0.678788	0.617054
	C154	C	0.888253	0.324900	0.622840
	C155	C	0.119736	0.332582	0.384863
	C156	C	0.888310	0.381080	0.681734
	C157	C	0.117629	0.624612	0.678520
	C158	C	0.887935	0.626017	0.324147
	C159	C	0.117385	0.386484	0.324035
	C160	C	0.385029	0.680591	0.887509
	C161	C	0.619154	0.675606	0.117282
	C162	C	0.621089	0.328584	0.887291
	C163	C	0.380560	0.321796	0.115147
	C164	C	0.681897	0.886168	0.384672
	C165	C	0.680429	0.118995	0.617470
	C166	C	0.325817	0.887810	0.624664
	C167	C	0.334057	0.118571	0.383812
	C168	C	0.879785	0.388622	0.183883
	C169	C	0.121030	0.619199	0.174962
	C170	C	0.121764	0.387263	0.825081
	C171	C	0.882798	0.617541	0.825033
	C172	C	0.184315	0.886517	0.387551
	C173	C	0.183251	0.124157	0.616382
	C174	C	0.829739	0.124866	0.386897
	C175	C	0.825789	0.881343	0.614616
	C176	C	0.387593	0.177042	0.883379
	C177	C	0.619216	0.177178	0.117562
	C178	C	0.388070	0.824021	0.123345
	C179	C	0.619222	0.827161	0.885639
	C180	C	0.389911	0.878575	0.183819
	C181	C	0.619861	0.119562	0.175849
	C182	C	0.389380	0.122602	0.823264
	C183	C	0.618186	0.881355	0.825137
	C184	C	0.889496	0.181438	0.386858
	C185	C	0.123933	0.180169	0.616981
	C186	C	0.125085	0.829586	0.386519
	C187	C	0.884320	0.824913	0.615103
	C188	C	0.177295	0.386240	0.883045
	C189	C	0.178039	0.618291	0.117271
	C190	C	0.824112	0.387757	0.126104
	C191	C	0.828513	0.618764	0.884485
	C192	C	0.408255	0.098201	0.601232
	C193	C	0.603210	0.906508	0.602675
	C194	C	0.605659	0.098265	0.399334
	C195	C	0.406893	0.905628	0.406736
	C196	C	0.600819	0.401086	0.096081
	C197	C	0.604428	0.602379	0.908432
	C198	C	0.400200	0.598801	0.095297
	C199	C	0.401526	0.402427	0.907120
	C200	C	0.097852	0.603374	0.398883
	C201	C	0.909341	0.600550	0.601373
	C202	C	0.098251	0.405312	0.603934
	C203	C	0.907978	0.405492	0.404720
	C204	C	0.903149	0.599278	0.101419
	C205	C	0.097859	0.407016	0.102454
	C206	C	0.102467	0.598680	0.900622
	C207	C	0.904828	0.406847	0.905792
	C208	C	0.103112	0.903564	0.594906
	C209	C	0.109629	0.107295	0.407990
	C210	C	0.903231	0.101491	0.595220
	C211	C	0.905731	0.905889	0.407154
	C212	C	0.598307	0.101843	0.900816
	C213	C	0.409591	0.096825	0.103222
	C214	C	0.599881	0.898927	0.104599
	C215	C	0.408865	0.904211	0.903892
	Zn216	Zn	0.504728	0.002300	0.751840
	Zn217	Zn	0.505708	-0.000454	0.254157
	Zn218	Zn	0.754660	0.502514	0.003097
	Zn219	Zn	0.249637	0.500980	0.000651
	Zn220	Zn	0.004047	0.753203	0.500515
	Zn221	Zn	0.005583	0.255176	0.502712
	Zn222	Zn	0.002181	0.503109	0.753503
	Zn223	Zn	0.000950	0.504387	0.251537
	Zn224	Zn	0.503305	0.751757	0.002691
	Zn225	Zn	0.501976	0.250663	0.001365
	Zn226	Zn	0.753405	0.002730	0.500793
	Zn227	Zn	0.257238	0.004307	0.502213
	N228	N	0.419058	0.964912	0.681371
	N229	N	0.592647	0.038891	0.681246
	N230	N	0.592584	0.964210	0.323983
	N231	N	0.419691	0.037295	0.324064
	N232	N	0.683952	0.415263	0.966466
	N233	N	0.682477	0.588832	0.039106
	N234	N	0.323748	0.587133	0.963980
	N235	N	0.320537	0.413348	0.037637
	N236	N	0.966187	0.682170	0.415482
	N237	N	0.042571	0.678404	0.582785
	N238	N	0.966385	0.324693	0.589008
	N239	N	0.042269	0.331224	0.420193
	N240	N	0.966207	0.415192	0.683732
	N241	N	0.039312	0.591341	0.682229
	N242	N	0.965658	0.592186	0.321151
	N243	N	0.038572	0.417746	0.321844
	N244	N	0.416872	0.681169	0.964891
	N245	N	0.585989	0.677232	0.040269
	N246	N	0.585950	0.326070	0.964059
	N247	N	0.415455	0.321976	0.038173
	N248	N	0.683033	0.965104	0.416243
	N249	N	0.680747	0.040651	0.584414
	N250	N	0.326189	0.966136	0.589902
	N251	N	0.332565	0.040700	0.419756
	N252	N	0.913730	0.467304	0.183534
	N253	N	0.086369	0.540843	0.178274
	N254	N	0.089386	0.466154	0.822755
	N255	N	0.915496	0.538845	0.823915
	N256	N	0.185634	0.918475	0.465077
	N257	N	0.187159	0.092586	0.538675
	N258	N	0.825457	0.090776	0.464351
	N259	N	0.824553	0.916077	0.537440
	N260	N	0.464965	0.177810	0.917510
	N261	N	0.541085	0.178162	0.085686
	N262	N	0.465766	0.822957	0.088651
	N263	N	0.541636	0.826888	0.920200
	N264	N	0.468657	0.910577	0.186318
	N265	N	0.541934	0.085165	0.179791
	N266	N	0.467800	0.090342	0.820341
	N267	N	0.539814	0.914276	0.822710
	N268	N	0.921967	0.181753	0.464116
	N269	N	0.091353	0.182728	0.539879
	N270	N	0.089802	0.826952	0.463391
	N271	N	0.919330	0.825424	0.538212
	N272	N	0.178713	0.464522	0.916060
	N273	N	0.178478	0.539420	0.085455
	N274	N	0.823887	0.465667	0.090620
	N275	N	0.828228	0.540658	0.919937
	O276	O	0.010349	-0.058038	-0.008117
	H277	H	0.014831	-0.060059	-0.004877
	H278	H	-0.004139	-0.065373	-0.015503
	O279	O	0.575497	0.538236	0.542969
	H280	H	0.579759	0.539156	0.537787
	H281	H	0.574338	0.538742	0.551345
	O282	O	0.498845	0.488944	0.438140
	H283	H	0.506398	0.481497	0.440205
	H284	H	0.503680	0.490409	0.445384
	O285	O	0.982006	-0.045459	1.059397
	H286	H	0.972036	-0.047106	1.058436
	H287	H	0.989236	-0.042679	1.048184
	O288	O	0.993946	0.061507	0.024453
	H289	H	0.985941	0.057947	0.031522
	H290	H	0.999139	0.067434	0.008774
	O291	O	0.540748	0.486690	0.440311
	H292	H	0.537240	0.479383	0.437769
	H293	H	0.539702	0.484941	0.436792
	O294	O	1.534123	0.456157	0.441977
	H295	H	1.531402	0.440483	0.436970
	H296	H	1.541313	0.452459	0.449893
	O297	O	-0.053696	0.034855	0.020000
	H298	H	-0.066426	0.041552	0.018379
	H299	H	-0.051150	0.027403	0.017719
	O300	O	0.525253	0.494771	0.515412
	H301	H	0.519364	0.491319	0.513564
	H302	H	0.531196	0.497994	0.512905
	O303	O	0.419449	0.584280	0.443990
	H304	H	0.426584	0.598174	0.433096
	H305	H	0.414834	0.585598	0.447798
	O306	O	0.934318	0.037843	-0.060055
	H307	H	0.931559	0.042405	-0.050601
	H308	H	0.928667	0.029319	-0.058059
	O309	O	0.004001	-0.054079	0.936886
	H310	H	0.008637	-0.049415	0.926160
	H311	H	0.008276	-0.054928	0.936388
	O312	O	0.970330	0.935114	0.962293
	H313	H	0.971059	0.937946	0.960248
	H314	H	0.975138	0.938534	0.950246
	O315	O	0.552274	0.548953	0.472800
	H316	H	0.548989	0.542395	0.474293
	H317	H	0.556004	0.551299	0.468783
	O318	O	0.461159	0.445409	0.462185
	H319	H	0.453818	0.447324	0.448521
	H320	H	0.458145	0.450487	0.468385
	O321	O	0.014782	0.996507	0.953980
	H322	H	0.014430	1.001932	0.959194
	H323	H	0.017029	1.006058	0.959722
	O324	O	0.531472	0.407865	0.504377
	H325	H	0.534373	0.409274	0.508188
	H326	H	0.521122	0.406481	0.507511
	O327	O	0.517911	0.548851	0.573608
	H328	H	0.519754	0.549690	0.569940
	H329	H	0.503905	0.548075	0.567208
	O330	O	0.425292	0.443283	0.592901
	H331	H	0.429875	0.454588	0.591150
	H332	H	0.419953	0.464012	0.594231
	O333	O	0.499152	0.452991	0.457705
	H334	H	0.492348	0.460243	0.453111
	H335	H	0.492780	0.454805	0.458161
	O336	O	0.447756	0.468578	0.492663
	H337	H	0.455392	0.461770	0.497840
	H338	H	0.443046	0.472131	0.484875
	O339	O	0.973594	1.120960	-0.029356
	H340	H	0.973460	1.112007	-0.021470
	H341	H	0.969233	1.130216	-0.037269
	O342	O	0.527371	0.447065	0.548196
	H343	H	0.518833	0.442023	0.559258
	H344	H	0.534413	0.448239	0.540691
	O345	O	0.405891	0.550222	0.451355
	H346	H	0.396353	0.548680	0.446670
	H347	H	0.401805	0.546979	0.444089
	O348	O	0.030405	-0.036407	-0.020964
	H349	H	0.035215	-0.035904	-0.006760
	H350	H	0.030964	-0.037075	-0.017825
	O351	O	-0.002238	1.027792	0.909752
	H352	H	0.003049	1.032609	0.913072
	H353	H	-0.002900	1.023773	0.918217
	O354	O	0.465187	0.522554	0.489097
	H355	H	0.465457	0.512490	0.507378
	H356	H	0.459545	0.529085	0.479983
	O357	O	0.012563	1.018273	1.014754
	H358	H	0.007530	1.021160	1.015981
	H359	H	0.008233	1.015681	1.004943
