data_Molecule from HDF5

_cell_length_a		16.222609
_cell_length_b		16.325197
_cell_length_c		16.265198
_cell_angle_alpha	89.959147
_cell_angle_beta	90.079717
_cell_angle_gamma	90.095796
_symmetry_space_group_name_H-M	'P 1'
_symmetry_Int_Tables_number		1

loop_
	_symmetry_equiv_pos_as_xyz
	x,y,z

loop_
	_atom_site_label
	_atom_site_type_symbol
	_atom_site_fract_x
	_atom_site_fract_y
	_atom_site_fract_z
	H0	H	0.406558	0.830616	0.708037
	H1	H	0.603462	0.158087	0.707990
	H2	H	0.603047	0.830385	0.278197
	H3	H	0.406381	0.157084	0.279574
	H4	H	0.715679	0.398168	0.828948
	H5	H	0.716331	0.589943	0.158290
	H6	H	0.289576	0.590915	0.828934
	H7	H	0.290758	0.397058	0.158135
	H8	H	0.839897	0.707915	0.394512
	H9	H	0.168153	0.707560	0.592023
	H10	H	0.839133	0.279495	0.590676
	H11	H	0.168430	0.280675	0.396536
	H12	H	0.838412	0.396396	0.706097
	H13	H	0.167946	0.590289	0.707091
	H14	H	0.838760	0.589815	0.280876
	H15	H	0.168128	0.396534	0.280811
	H16	H	0.404455	0.708597	0.829412
	H17	H	0.602526	0.708530	0.157171
	H18	H	0.602128	0.279293	0.829517
	H19	H	0.404716	0.278533	0.157491
	H20	H	0.716810	0.829464	0.396914
	H21	H	0.719190	0.157263	0.591116
	H22	H	0.289818	0.829793	0.591993
	H23	H	0.290270	0.156652	0.396258
	H24	H	0.905501	0.329347	0.207718
	H25	H	0.102088	0.656802	0.208333
	H26	H	0.100607	0.329092	0.780446
	H27	H	0.904535	0.656514	0.778466
	H28	H	0.217544	0.896187	0.329557
	H29	H	0.217785	0.090069	0.657786
	H30	H	0.790930	0.089866	0.329410
	H31	H	0.791520	0.896302	0.658179
	H32	H	0.338804	0.206389	0.894931
	H33	H	0.668583	0.206886	0.090259
	H34	H	0.338905	0.779949	0.091484
	H35	H	0.668318	0.779842	0.894484
	H36	H	0.338764	0.896105	0.207000
	H37	H	0.668650	0.091474	0.206702
	H38	H	0.339473	0.090897	0.778995
	H39	H	0.669060	0.897419	0.780733
	H40	H	0.903776	0.208778	0.329717
	H41	H	0.103213	0.207919	0.657410
	H42	H	0.102580	0.779124	0.329747
	H43	H	0.905350	0.778603	0.656833
	H44	H	0.216525	0.329633	0.896589
	H45	H	0.218094	0.657458	0.091929
	H46	H	0.789538	0.329334	0.090545
	H47	H	0.790961	0.657834	0.897191
	H48	H	0.417337	0.108564	0.587339
	H49	H	0.602110	0.877376	0.583169
	H50	H	0.593428	0.108286	0.400111
	H51	H	0.408133	0.877902	0.405171
	H52	H	0.599005	0.398032	0.112486
	H53	H	0.598495	0.590266	0.875834
	H54	H	0.409774	0.602369	0.114436
	H55	H	0.411377	0.403453	0.878051
	H56	H	0.123519	0.589865	0.394163
	H57	H	0.884521	0.587533	0.589958
	H58	H	0.121319	0.399307	0.588124
	H59	H	0.883240	0.395970	0.394718
	H60	H	0.121507	0.399015	0.588086
	H61	H	0.885914	0.590241	0.583854
	H62	H	0.120363	0.592064	0.406541
	H63	H	0.887753	0.396377	0.407618
	H64	H	0.398220	0.578561	0.110700
	H65	H	0.598195	0.585755	0.876828
	H66	H	0.596670	0.402872	0.109962
	H67	H	0.412825	0.395802	0.876064
	H68	H	0.600462	0.109546	0.403086
	H69	H	0.598527	0.876134	0.593998
	H70	H	0.407912	0.109205	0.580503
	H71	H	0.408159	0.874507	0.395583
	H72	H	0.920363	0.606197	0.088142
	H73	H	0.104057	0.373709	0.095178
	H74	H	0.091040	0.608602	0.899242
	H75	H	0.913663	0.377773	0.898407
	H76	H	0.088618	0.901626	0.607076
	H77	H	0.087620	0.093867	0.378172
	H78	H	0.909635	0.094616	0.613284
	H79	H	0.912501	0.897754	0.376700
	H80	H	0.621906	0.087710	0.897167
	H81	H	0.389503	0.075721	0.089871
	H82	H	0.620992	0.903808	0.091744
	H83	H	0.389258	0.905383	0.902841
	H84	H	0.621296	0.895049	0.084734
	H85	H	0.381589	0.094936	0.094763
	H86	H	0.620625	0.091101	0.903159
	H87	H	0.385513	0.901012	0.894511
	H88	H	0.906919	0.081094	0.610502
	H89	H	0.105992	0.093208	0.372428
	H90	H	0.097872	0.891351	0.612709
	H91	H	0.908832	0.899412	0.375766
	H92	H	0.098156	0.608391	0.904971
	H93	H	0.087326	0.378641	0.090564
	H94	H	0.904865	0.608787	0.078672
	H95	H	0.905940	0.377501	0.903613
	H96	H	0.407118	0.112266	0.592247
	H97	H	0.591170	0.879710	0.585794
	H98	H	0.598875	0.111503	0.396242
	H99	H	0.416593	0.878935	0.399506
	H100	H	0.593896	0.397956	0.110018
	H101	H	0.594211	0.588526	0.877133
	H102	H	0.424508	0.581932	0.104488
	H103	H	0.405924	0.398918	0.875473
	H104	H	0.118461	0.580373	0.401665
	H105	H	0.888245	0.583265	0.585112
	H106	H	0.120613	0.399583	0.587916
	H107	H	0.888556	0.407697	0.399411
	H108	H	0.905411	0.613427	0.096372
	H109	H	0.100763	0.378576	0.078160
	H110	H	0.099516	0.611040	0.896599
	H111	H	0.905682	0.374589	0.895076
	H112	H	0.102573	0.905611	0.610394
	H113	H	0.097321	0.076898	0.379145
	H114	H	0.920125	0.086335	0.607925
	H115	H	0.912324	0.901911	0.377167
	H116	H	0.619293	0.084289	0.902818
	H117	H	0.389294	0.090667	0.075291
	H118	H	0.617774	0.905053	0.081262
	H119	H	0.386377	0.896467	0.903216
	C120	C	0.382579	0.001957	0.615193
	C121	C	0.626076	0.985925	0.615540
	C122	C	0.625853	0.001714	0.371424
	C123	C	0.382676	0.985320	0.371848
	C124	C	0.624612	0.372181	0.001815
	C125	C	0.625321	0.615957	0.985078
	C126	C	0.381961	0.615718	0.001430
	C127	C	0.381775	0.371700	0.985140
	C128	C	0.012060	0.615171	0.372258
	C129	C	0.995113	0.614865	0.614922
	C130	C	0.012031	0.371652	0.615267
	C131	C	0.995304	0.372161	0.372606
	C132	C	0.881888	0.501259	0.115385
	C133	C	0.125478	0.485230	0.115487
	C134	C	0.124632	0.501386	0.872117
	C135	C	0.881018	0.485140	0.871760
	C136	C	0.125096	0.871699	0.501960
	C137	C	0.125478	0.115399	0.485068
	C138	C	0.883082	0.115158	0.501912
	C139	C	0.882853	0.871550	0.485168
	C140	C	0.512166	0.115412	0.872233
	C141	C	0.495539	0.115154	0.114833
	C142	C	0.511553	0.872803	0.114601
	C143	C	0.495701	0.872568	0.871721
	C144	C	0.385981	0.878963	0.669817
	C145	C	0.623563	0.109234	0.670081
	C146	C	0.623200	0.879006	0.316378
	C147	C	0.385745	0.108189	0.317384
	C148	C	0.678740	0.376717	0.878172
	C149	C	0.679283	0.611690	0.109104
	C150	C	0.327412	0.611891	0.877782
	C151	C	0.327806	0.375615	0.108995
	C152	C	0.888542	0.669761	0.374537
	C153	C	0.118940	0.669635	0.612303
	C154	C	0.888040	0.317396	0.611662
	C155	C	0.119137	0.317940	0.375653
	C156	C	0.887494	0.375531	0.668578
	C157	C	0.118976	0.611694	0.669633
	C158	C	0.888286	0.611565	0.317615
	C159	C	0.119148	0.375580	0.318473
	C160	C	0.384047	0.670740	0.878220
	C161	C	0.622689	0.670472	0.108538
	C162	C	0.622077	0.317872	0.878237
	C163	C	0.384470	0.316855	0.108767
	C164	C	0.679692	0.878531	0.375445
	C165	C	0.681092	0.108997	0.612081
	C166	C	0.327442	0.878981	0.612760
	C167	C	0.328046	0.108202	0.375072
	C168	C	0.884791	0.378102	0.169844
	C169	C	0.122636	0.608296	0.170344
	C170	C	0.121695	0.378219	0.817662
	C171	C	0.884299	0.608043	0.816749
	C172	C	0.179924	0.875057	0.378317
	C173	C	0.179917	0.111206	0.608960
	C174	C	0.828221	0.111455	0.378359
	C175	C	0.828534	0.875031	0.608701
	C176	C	0.388256	0.169486	0.874229
	C177	C	0.619372	0.169754	0.111727
	C178	C	0.388040	0.817503	0.112243
	C179	C	0.619276	0.817574	0.874329
	C180	C	0.387953	0.875289	0.169617
	C181	C	0.619451	0.112102	0.169190
	C182	C	0.388401	0.111991	0.816926
	C183	C	0.619696	0.876012	0.817582
	C184	C	0.884269	0.170517	0.378699
	C185	C	0.123369	0.170089	0.608500
	C186	C	0.123306	0.816462	0.378744
	C187	C	0.884934	0.816381	0.608163
	C188	C	0.179044	0.378252	0.875672
	C189	C	0.180324	0.608497	0.112664
	C190	C	0.826983	0.378090	0.111957
	C191	C	0.827471	0.608552	0.875460
	C192	C	0.404467	0.087959	0.593198
	C193	C	0.603925	0.899975	0.594119
	C194	C	0.603969	0.087638	0.393262
	C195	C	0.404393	0.899217	0.393758
	C196	C	0.602965	0.393240	0.088394
	C197	C	0.603451	0.594542	0.898791
	C198	C	0.404227	0.594137	0.087559
	C199	C	0.403625	0.393064	0.898828
	C200	C	0.098518	0.593732	0.394325
	C201	C	0.908548	0.593252	0.592900
	C202	C	0.098720	0.393055	0.594235
	C203	C	0.908832	0.393686	0.394280
	C204	C	0.903700	0.587169	0.093769
	C205	C	0.103716	0.399251	0.094155
	C206	C	0.102789	0.587235	0.893863
	C207	C	0.902179	0.398957	0.892960
	C208	C	0.103038	0.893359	0.587950
	C209	C	0.103569	0.094259	0.398873
	C210	C	0.905714	0.093776	0.588291
	C211	C	0.904690	0.893357	0.398769
	C212	C	0.598355	0.094016	0.894404
	C213	C	0.409103	0.093607	0.093116
	C214	C	0.597774	0.894930	0.092479
	C215	C	0.409494	0.894361	0.893767
	Zn216	Zn	0.504313	-0.005667	0.744015
	Zn217	Zn	0.503861	-0.006244	0.243072
	Zn218	Zn	0.753049	0.493542	-0.005769
	Zn219	Zn	0.253695	0.493723	-0.006679
	Zn220	Zn	0.003910	0.743182	0.493535
	Zn221	Zn	0.003718	0.243888	0.493569
	Zn222	Zn	0.003330	0.493236	0.743206
	Zn223	Zn	0.003867	0.493087	0.244189
	Zn224	Zn	0.503365	0.744198	-0.006621
	Zn225	Zn	0.503574	0.243379	-0.006635
	Zn226	Zn	0.754681	-0.006621	0.494033
	Zn227	Zn	0.253597	-0.006946	0.493362
	N228	N	0.419294	0.956492	0.671584
	N229	N	0.590248	0.031673	0.672458
	N230	N	0.590367	0.956612	0.313996
	N231	N	0.418731	0.030648	0.315310
	N232	N	0.680114	0.409801	0.955993
	N233	N	0.680973	0.578671	0.031332
	N234	N	0.325915	0.578497	0.955446
	N235	N	0.326196	0.409038	0.031217
	N236	N	0.966388	0.671846	0.407858
	N237	N	0.040989	0.671550	0.578892
	N238	N	0.966323	0.314927	0.579353
	N239	N	0.041084	0.315786	0.408517
	N240	N	0.965706	0.408429	0.670970
	N241	N	0.041072	0.578455	0.671310
	N242	N	0.966073	0.578086	0.316230
	N243	N	0.041217	0.408591	0.316450
	N244	N	0.417311	0.672832	0.956040
	N245	N	0.589575	0.672901	0.030588
	N246	N	0.589211	0.314986	0.956154
	N247	N	0.417119	0.314212	0.030697
	N248	N	0.681527	0.955987	0.409055
	N249	N	0.682658	0.031497	0.578973
	N250	N	0.325420	0.956499	0.579328
	N251	N	0.326080	0.030583	0.408312
	N252	N	0.917967	0.455771	0.172410
	N253	N	0.089488	0.530663	0.172379
	N254	N	0.088430	0.455696	0.815483
	N255	N	0.916771	0.530261	0.814308
	N256	N	0.181166	0.908535	0.455817
	N257	N	0.181482	0.078053	0.531215
	N258	N	0.827270	0.077843	0.455985
	N259	N	0.826914	0.908480	0.531017
	N260	N	0.466080	0.171658	0.907883
	N261	N	0.541281	0.171691	0.078533
	N262	N	0.465803	0.815934	0.078612
	N263	N	0.541220	0.815428	0.907407
	N264	N	0.465856	0.908941	0.171062
	N265	N	0.541517	0.078962	0.171142
	N266	N	0.466377	0.079062	0.815613
	N267	N	0.542092	0.909578	0.816022
	N268	N	0.917582	0.172902	0.456600
	N269	N	0.090153	0.172762	0.530631
	N270	N	0.089786	0.814421	0.456431
	N271	N	0.918078	0.814349	0.530366
	N272	N	0.180984	0.455738	0.908843
	N273	N	0.182109	0.531106	0.079188
	N274	N	0.825291	0.455604	0.078784
	N275	N	0.825337	0.531188	0.908923
	O276	O	0.994643	-0.023033	1.039055
	H277	H	0.998503	-0.026651	1.044562
	H278	H	0.986688	-0.020436	1.036322
	O279	O	-0.017548	0.982995	1.033604
	H280	H	-0.027363	0.981076	1.037814
	H281	H	-0.013636	0.985244	1.026582
	O282	O	0.989043	0.974854	0.023442
	H283	H	0.996391	0.972022	0.023408
	H284	H	0.983777	0.973853	0.026120
	O285	O	-0.021672	0.985223	1.024984
	H286	H	-0.019596	0.971834	1.029161
	H287	H	-0.022356	0.998159	1.021669
