data_Molecule from HDF5

_cell_length_a		16.648373
_cell_length_b		16.482832
_cell_length_c		16.597147
_cell_angle_alpha	89.973283
_cell_angle_beta	90.032837
_cell_angle_gamma	90.111594
_symmetry_space_group_name_H-M	'P 1'
_symmetry_Int_Tables_number		1

loop_
	_symmetry_equiv_pos_as_xyz
	x,y,z

loop_
	_atom_site_label
	_atom_site_type_symbol
	_atom_site_fract_x
	_atom_site_fract_y
	_atom_site_fract_z
	H0	H	0.390290	0.837775	0.709755
	H1	H	0.594925	0.154878	0.709965
	H2	H	0.596760	0.838831	0.270964
	H3	H	0.388143	0.152061	0.270368
	H4	H	0.715389	0.386829	0.836049
	H5	H	0.716805	0.603284	0.145016
	H6	H	0.266686	0.605420	0.838269
	H7	H	0.270803	0.390253	0.147315
	H8	H	0.834636	0.715767	0.387580
	H9	H	0.149721	0.714242	0.592770
	H10	H	0.835750	0.275124	0.594234
	H11	H	0.145616	0.272009	0.384120
	H12	H	0.835220	0.391383	0.710592
	H13	H	0.148888	0.597961	0.710526
	H14	H	0.836076	0.602465	0.268691
	H15	H	0.145915	0.388770	0.267793
	H16	H	0.386885	0.718095	0.836782
	H17	H	0.598220	0.717159	0.146927
	H18	H	0.596312	0.273631	0.834741
	H19	H	0.388765	0.276076	0.147914
	H20	H	0.712427	0.838747	0.386767
	H21	H	0.712669	0.153035	0.595872
	H22	H	0.272191	0.838097	0.595587
	H23	H	0.271010	0.151719	0.385624
	H24	H	0.887040	0.338679	0.211098
	H25	H	0.098928	0.651586	0.214124
	H26	H	0.096291	0.337073	0.771490
	H27	H	0.888605	0.653319	0.771579
	H28	H	0.210960	0.892007	0.334276
	H29	H	0.214956	0.102552	0.646533
	H30	H	0.769363	0.100311	0.337005
	H31	H	0.769955	0.888639	0.648072
	H32	H	0.334847	0.216244	0.887265
	H33	H	0.646371	0.217627	0.095309
	H34	H	0.336817	0.772608	0.097434
	H35	H	0.647335	0.772932	0.885670
	H36	H	0.337992	0.886820	0.215947
	H37	H	0.646527	0.102550	0.214044
	H38	H	0.335461	0.101574	0.769464
	H39	H	0.647167	0.890149	0.768893
	H40	H	0.886338	0.216387	0.336712
	H41	H	0.098422	0.217452	0.647770
	H42	H	0.092382	0.778115	0.333010
	H43	H	0.889256	0.775465	0.649298
	H44	H	0.212213	0.338052	0.887057
	H45	H	0.215191	0.651135	0.098165
	H46	H	0.772577	0.337922	0.094472
	H47	H	0.771306	0.651789	0.885671
	H48	H	0.407500	0.107883	0.581098
	H49	H	0.580749	0.883501	0.579467
	H50	H	0.577641	0.105281	0.407063
	H51	H	0.398533	0.882199	0.405345
	H52	H	0.579384	0.411497	0.099881
	H53	H	0.585675	0.582134	0.878232
	H54	H	0.400569	0.577670	0.101957
	H55	H	0.402029	0.405842	0.878765
	H56	H	0.106270	0.591144	0.398786
	H57	H	0.882835	0.581626	0.576160
	H58	H	0.101985	0.413064	0.583373
	H59	H	0.878922	0.404136	0.399250
	H60	H	0.107557	0.401974	0.587372
	H61	H	0.878332	0.581894	0.589426
	H62	H	0.099934	0.584991	0.408840
	H63	H	0.881262	0.405580	0.407959
	H64	H	0.408989	0.581887	0.101149
	H65	H	0.578520	0.577873	0.882319
	H66	H	0.579431	0.400670	0.102972
	H67	H	0.400226	0.406859	0.878384
	H68	H	0.585390	0.109262	0.405722
	H69	H	0.581500	0.882965	0.581387
	H70	H	0.399129	0.108130	0.576182
	H71	H	0.403483	0.880959	0.399087
	H72	H	0.904897	0.607254	0.076877
	H73	H	0.082951	0.382807	0.078452
	H74	H	0.082175	0.606809	0.906630
	H75	H	0.899476	0.382934	0.906600
	H76	H	0.088841	0.905787	0.606111
	H77	H	0.080541	0.084655	0.380242
	H78	H	0.899492	0.082645	0.604410
	H79	H	0.899509	0.910197	0.380596
	H80	H	0.603709	0.087111	0.900108
	H81	H	0.380437	0.079744	0.083929
	H82	H	0.605049	0.903888	0.082788
	H83	H	0.382160	0.906905	0.906535
	H84	H	0.602397	0.906947	0.076710
	H85	H	0.378030	0.087274	0.083114
	H86	H	0.601938	0.085468	0.904552
	H87	H	0.381837	0.910941	0.900886
	H88	H	0.904673	0.080062	0.602256
	H89	H	0.082246	0.081975	0.379816
	H90	H	0.080846	0.909446	0.601361
	H91	H	0.904197	0.906482	0.381644
	H92	H	0.083017	0.609122	0.899579
	H93	H	0.079908	0.382104	0.081804
	H94	H	0.902362	0.609568	0.079559
	H95	H	0.900029	0.379784	0.896124
	H96	H	0.399551	0.111458	0.584836
	H97	H	0.579021	0.883516	0.580970
	H98	H	0.579672	0.108973	0.399048
	H99	H	0.406326	0.885152	0.405624
	H100	H	0.588675	0.407492	0.104411
	H101	H	0.577449	0.587234	0.879306
	H102	H	0.402097	0.586097	0.105273
	H103	H	0.401796	0.407927	0.879309
	H104	H	0.101823	0.578348	0.397501
	H105	H	0.877426	0.593520	0.581196
	H106	H	0.103043	0.402682	0.575202
	H107	H	0.882440	0.412157	0.401764
	H108	H	0.905732	0.608210	0.081352
	H109	H	0.078863	0.384673	0.077872
	H110	H	0.076162	0.606749	0.902092
	H111	H	0.908486	0.383902	0.900981
	H112	H	0.080562	0.900289	0.604555
	H113	H	0.080070	0.082084	0.380686
	H114	H	0.905001	0.085787	0.604491
	H115	H	0.899001	0.903921	0.378356
	H116	H	0.602449	0.082440	0.900402
	H117	H	0.381410	0.083821	0.076775
	H118	H	0.602398	0.910599	0.083162
	H119	H	0.380067	0.904071	0.900841
	C120	C	0.370892	0.004579	0.612093
	C121	C	0.612653	0.987389	0.612802
	C122	C	0.612943	0.004179	0.371329
	C123	C	0.370973	0.986562	0.370794
	C124	C	0.613836	0.373905	-0.000561
	C125	C	0.613419	0.615870	0.982794
	C126	C	0.370840	0.616134	0.000296
	C127	C	0.370173	0.374599	0.982374
	C128	C	-0.000461	0.616954	0.369961
	C129	C	0.983564	0.617001	0.613027
	C130	C	0.000769	0.373751	0.612804
	C131	C	0.983135	0.374439	0.370167
	C132	C	0.871561	0.504381	0.111288
	C133	C	0.113093	0.486816	0.112421
	C134	C	0.112975	0.503753	0.870219
	C135	C	0.870951	0.486195	0.869389
	C136	C	0.113652	0.874136	0.499688
	C137	C	0.113256	0.116177	0.483233
	C138	C	0.870681	0.115699	0.500758
	C139	C	0.869591	0.873879	0.483565
	C140	C	0.499724	0.117282	0.869812
	C141	C	0.482822	0.116720	0.113229
	C142	C	0.500891	0.873619	0.113521
	C143	C	0.483778	0.874031	0.870067
	C144	C	0.370635	0.885293	0.670703
	C145	C	0.613860	0.106804	0.670991
	C146	C	0.615235	0.886101	0.310879
	C147	C	0.368841	0.104802	0.310183
	C148	C	0.674319	0.369994	0.882404
	C149	C	0.675595	0.620504	0.098937
	C150	C	0.308520	0.621738	0.884238
	C151	C	0.310938	0.372253	0.100338
	C152	C	0.881990	0.676292	0.368878
	C153	C	0.102318	0.675033	0.612772
	C154	C	0.882661	0.314828	0.613130
	C155	C	0.099463	0.312931	0.366605
	C156	C	0.882448	0.372841	0.670893
	C157	C	0.101842	0.617481	0.671302
	C158	C	0.882478	0.619597	0.309774
	C159	C	0.099442	0.370871	0.308709
	C160	C	0.367893	0.677995	0.883630
	C161	C	0.616764	0.677284	0.099632
	C162	C	0.615080	0.313521	0.882021
	C163	C	0.369664	0.315611	0.100758
	C164	C	0.672637	0.885923	0.368673
	C165	C	0.672724	0.106128	0.614642
	C166	C	0.312027	0.885505	0.613969
	C167	C	0.311260	0.104834	0.367909
	C168	C	0.869246	0.385835	0.170873
	C169	C	0.116811	0.604434	0.173712
	C170	C	0.114640	0.384844	0.811143
	C171	C	0.869482	0.605202	0.810280
	C172	C	0.171561	0.873252	0.381310
	C173	C	0.174523	0.120152	0.599986
	C174	C	0.809845	0.118931	0.383526
	C175	C	0.810246	0.870791	0.601431
	C176	C	0.381931	0.176954	0.868197
	C177	C	0.599803	0.177561	0.114665
	C178	C	0.383843	0.812583	0.116012
	C179	C	0.600630	0.813528	0.867445
	C180	C	0.384353	0.869391	0.174918
	C181	C	0.599845	0.120305	0.173537
	C182	C	0.382086	0.119479	0.810039
	C183	C	0.600464	0.871661	0.809409
	C184	C	0.868302	0.176189	0.383323
	C185	C	0.116215	0.177356	0.600330
	C186	C	0.112421	0.816729	0.380808
	C187	C	0.869550	0.814482	0.601706
	C188	C	0.172453	0.385187	0.868561
	C189	C	0.174579	0.604383	0.116107
	C190	C	0.811935	0.385588	0.113119
	C191	C	0.811258	0.604810	0.867154
	C192	C	0.394969	0.087385	0.587561
	C193	C	0.587675	0.905083	0.587951
	C194	C	0.588001	0.086562	0.396741
	C195	C	0.395909	0.904291	0.396236
	C196	C	0.589430	0.399288	0.081214
	C197	C	0.587813	0.589728	0.901092
	C198	C	0.396627	0.589460	0.081659
	C199	C	0.394365	0.399732	0.900216
	C200	C	0.081359	0.591873	0.394549
	C201	C	0.901050	0.592765	0.589085
	C202	C	0.082816	0.398748	0.588727
	C203	C	0.902030	0.400079	0.395823
	C204	C	0.896828	0.586911	0.086209
	C205	C	0.087659	0.404525	0.086988
	C206	C	0.087760	0.586047	0.895601
	C207	C	0.895506	0.403599	0.894287
	C208	C	0.090281	0.898166	0.582493
	C209	C	0.088195	0.090391	0.401612
	C210	C	0.895861	0.090172	0.582469
	C211	C	0.893838	0.899597	0.401504
	C212	C	0.581263	0.092246	0.894622
	C213	C	0.401135	0.090842	0.088326
	C214	C	0.582105	0.899752	0.088232
	C215	C	0.402402	0.899872	0.895601
	Zn216	Zn	0.491651	-0.003674	0.741238
	Zn217	Zn	0.492065	-0.004652	0.242566
	Zn218	Zn	0.743118	0.495292	-0.009597
	Zn219	Zn	0.241394	0.495283	-0.008766
	Zn220	Zn	-0.008113	0.746007	0.491575
	Zn221	Zn	-0.007846	0.244684	0.491584
	Zn222	Zn	-0.007538	0.494940	0.741940
	Zn223	Zn	-0.008464	0.495434	0.240468
	Zn224	Zn	0.492469	0.744941	-0.007926
	Zn225	Zn	0.490980	0.245824	-0.008785
	Zn226	Zn	0.741177	-0.005009	0.492429
	Zn227	Zn	0.242360	-0.004668	0.491068
	N228	N	0.406450	0.960357	0.669780
	N229	N	0.577507	0.032009	0.670231
	N230	N	0.578668	0.960688	0.312499
	N231	N	0.405254	0.030216	0.311776
	N232	N	0.673878	0.406809	0.956496
	N233	N	0.673750	0.582941	0.025090
	N234	N	0.310275	0.583957	0.957852
	N235	N	0.311101	0.408186	0.025684
	N236	N	0.955936	0.674906	0.405442
	N237	N	0.027642	0.675049	0.577595
	N238	N	0.957382	0.315012	0.578065
	N239	N	0.026139	0.314956	0.404146
	N240	N	0.957077	0.408549	0.671162
	N241	N	0.026989	0.582094	0.671541
	N242	N	0.956665	0.583260	0.310157
	N243	N	0.025989	0.408343	0.310579
	N244	N	0.406081	0.674630	0.956790
	N245	N	0.578862	0.674443	0.026336
	N246	N	0.578120	0.315675	0.955841
	N247	N	0.405789	0.316885	0.026427
	N248	N	0.671288	0.960500	0.405575
	N249	N	0.672291	0.030779	0.579221
	N250	N	0.311646	0.960860	0.578620
	N251	N	0.312297	0.030369	0.404697
	N252	N	0.905241	0.460735	0.170189
	N253	N	0.079316	0.530116	0.171757
	N254	N	0.078459	0.459679	0.812032
	N255	N	0.905879	0.530578	0.811466
	N256	N	0.172642	0.908012	0.456529
	N257	N	0.172841	0.082668	0.526129
	N258	N	0.811077	0.082092	0.457727
	N259	N	0.810045	0.906950	0.526876
	N260	N	0.456113	0.175981	0.904458
	N261	N	0.526060	0.175551	0.077996
	N262	N	0.457480	0.814848	0.078709
	N263	N	0.526927	0.814867	0.904583
	N264	N	0.458178	0.906536	0.173736
	N265	N	0.525947	0.083287	0.172825
	N266	N	0.456402	0.083318	0.810583
	N267	N	0.526654	0.908363	0.810821
	N268	N	0.905479	0.174305	0.457115
	N269	N	0.079098	0.175225	0.526490
	N270	N	0.077294	0.817002	0.455497
	N271	N	0.905724	0.816328	0.527418
	N272	N	0.171753	0.460263	0.904425
	N273	N	0.172364	0.530123	0.078735
	N274	N	0.812908	0.460584	0.077050
	N275	N	0.811989	0.529683	0.903250
	O276	O	0.204665	0.789693	-0.041798
	H277	H	0.202891	0.788740	-0.031017
	H278	H	0.207612	0.781681	-0.035480
	O279	O	0.476959	0.657312	0.527659
	H280	H	0.491068	0.652347	0.532224
	H281	H	0.478977	0.661541	0.518681
	O282	O	0.824341	-0.036107	1.205976
	H283	H	0.816400	-0.026446	1.211731
	H284	H	0.842998	-0.029513	1.207112
	O285	O	0.430704	0.573981	0.707292
	H286	H	0.421271	0.559902	0.696526
	H287	H	0.425558	0.560748	0.708062
	O288	O	0.461338	0.283532	0.707436
	H289	H	0.481245	0.295194	0.721161
	H290	H	0.473552	0.271462	0.717126
	O291	O	0.290853	0.301081	0.691916
	H292	H	0.322200	0.295878	0.684583
	H293	H	0.284899	0.279337	0.695584
	O294	O	0.909959	-0.152605	0.934057
	H295	H	0.921704	-0.159164	0.925822
	H296	H	0.914659	-0.161937	0.929030
	O297	O	0.267043	0.473954	0.465877
	H298	H	0.274989	0.501111	0.446539
	H299	H	0.261840	0.488185	0.482147
	O300	O	-0.042823	0.215791	0.769959
	H301	H	-0.030459	0.220963	0.757370
	H302	H	-0.045844	0.223426	0.758693
	O303	O	0.606280	0.485770	0.475023
	H304	H	0.602257	0.490995	0.475618
	H305	H	0.605662	0.478039	0.462259
	O306	O	0.701903	0.290154	0.458508
	H307	H	0.711745	0.269299	0.443223
	H308	H	0.701285	0.290924	0.424337
	O309	O	0.704601	0.521838	0.713625
	H310	H	0.713836	0.525939	0.706717
	H311	H	0.722430	0.536006	0.719564
	O312	O	0.498654	0.403264	0.669508
	H313	H	0.505319	0.412013	0.666189
	H314	H	0.497861	0.411920	0.665523
	O315	O	1.127427	0.948878	0.770117
	H316	H	1.125653	0.942696	0.755289
	H317	H	1.116521	0.952401	0.756612
	O318	O	0.275365	0.472798	0.712975
	H319	H	0.254854	0.455678	0.726059
	H320	H	0.276434	0.440156	0.711102
	O321	O	0.303848	0.682714	0.681452
	H322	H	0.323831	0.665501	0.670195
	H323	H	0.310032	0.676010	0.683280
	O324	O	0.782409	0.787480	0.200314
	H325	H	0.762762	0.779756	0.198743
	H326	H	0.789901	0.826778	0.201309
	O327	O	0.209763	0.023721	1.200763
	H328	H	0.230465	0.034048	1.216046
	H329	H	0.212831	0.047756	1.194237
	O330	O	0.436435	0.316903	0.449531
	H331	H	0.418555	0.318497	0.458340
	H332	H	0.439169	0.313540	0.467401
	O333	O	0.628459	0.494804	0.530333
	H334	H	0.628809	0.487738	0.527144
	H335	H	0.636018	0.485935	0.517265
	O336	O	0.699944	0.291848	0.288702
	H337	H	0.663225	0.277167	0.274008
	H338	H	0.707820	0.278088	0.264360
	O339	O	0.806983	0.044506	0.832501
	H340	H	0.792030	0.030615	0.816855
	H341	H	0.808390	0.057866	0.831899
	O342	O	0.148511	-0.199637	0.151098
	H343	H	0.131617	-0.189808	0.143748
	H344	H	0.144138	-0.179283	0.141887
	O345	O	-0.032745	0.938820	1.143757
	H346	H	-0.027890	0.944097	1.147862
	H347	H	-0.031473	0.948216	1.135919
	O348	O	0.304169	0.482888	0.511512
	H349	H	0.307051	0.487259	0.516733
	H350	H	0.292568	0.484899	0.522124
	O351	O	0.460192	0.704567	0.299198
	H352	H	0.463874	0.702330	0.280905
	H353	H	0.461891	0.714714	0.297675
	O354	O	0.205364	0.203383	1.201225
	H355	H	0.182810	0.196490	1.186675
	H356	H	0.227006	0.227809	1.207281
	O357	O	0.275970	0.281127	0.516643
	H358	H	0.262365	0.278616	0.521802
	H359	H	0.261047	0.287961	0.517235
	O360	O	0.560239	0.496734	0.265137
	H361	H	0.556597	0.484315	0.270367
	H362	H	0.560676	0.492250	0.267432
	O363	O	0.200438	-0.210751	-0.214263
	H364	H	0.218006	-0.188959	-0.225814
	H365	H	0.216647	-0.223974	-0.188881
	O366	O	0.274791	0.523246	0.278774
	H367	H	0.260776	0.530843	0.268654
	H368	H	0.271475	0.540394	0.283442
	O369	O	0.908571	0.005490	-0.025281
	H370	H	0.903769	-0.003195	-0.037288
	H371	H	0.898012	-0.002577	-0.039999
	O372	O	0.802154	0.789542	0.005912
	H373	H	0.795325	0.789283	0.009751
	H374	H	0.804900	0.780527	-0.003141
	O375	O	0.903742	0.176374	0.075636
	H376	H	0.894988	0.182406	0.061836
	H377	H	0.901541	0.159941	0.062983
	O378	O	0.714366	0.467372	0.270596
	H379	H	0.723377	0.454960	0.254724
	H380	H	0.720151	0.443026	0.256066
	O381	O	0.067847	1.125989	0.950768
	H382	H	0.059709	1.137492	0.950880
	H383	H	0.068704	1.121488	0.956239
	O384	O	0.952379	0.039920	1.216209
	H385	H	0.958270	0.044004	1.208273
	H386	H	0.963511	0.044039	1.212327
	O387	O	0.861715	0.983212	0.022398
	H388	H	0.858579	0.979233	0.017692
	H389	H	0.867309	0.974611	0.038992
	O390	O	0.485465	0.517965	0.468020
	H391	H	0.485802	0.515262	0.463366
	H392	H	0.489444	0.516965	0.463805
	O393	O	0.434233	0.426419	0.293121
	H394	H	0.428422	0.442660	0.292956
	H395	H	0.436354	0.429941	0.307868
	O396	O	-0.229879	1.212570	0.954287
	H397	H	-0.235808	1.220232	0.925390
	H398	H	-0.235439	1.231048	0.939559
	O399	O	-0.222947	-0.018588	0.964315
	H400	H	-0.217724	-0.007125	0.941498
	H401	H	-0.223583	-0.017066	0.950080
	O402	O	0.652273	0.344206	0.686102
	H403	H	0.633876	0.361714	0.673981
	H404	H	0.655989	0.369106	0.675500
	O405	O	1.188614	0.118272	0.884227
	H406	H	1.180541	0.113723	0.884857
	H407	H	1.181392	0.105427	0.891631
	O408	O	0.208350	0.205929	0.030131
	H409	H	0.193633	0.202817	0.026438
	H410	H	0.228302	0.222894	0.024646
	O411	O	1.001716	0.895280	0.909997
	H412	H	1.010012	0.896890	0.923382
	H413	H	0.995254	0.892282	0.917572
	O414	O	0.618653	0.593211	0.427247
	H415	H	0.616485	0.593541	0.414949
	H416	H	0.620489	0.592408	0.425675
	O417	O	0.688678	0.539612	0.539405
	H418	H	0.681754	0.542971	0.529073
	H419	H	0.700454	0.536011	0.522822
	O420	O	0.527581	0.708203	0.706479
	H421	H	0.524756	0.717700	0.723567
	H422	H	0.513870	0.698902	0.711528
	O423	O	-0.036988	-0.226842	1.207483
	H424	H	-0.061898	-0.219360	1.215920
	H425	H	-0.049676	-0.242305	1.226890
	O426	O	0.693137	0.694018	0.695558
	H427	H	0.673193	0.687423	0.689761
	H428	H	0.686450	0.690982	0.678588
	O429	O	1.055386	1.039585	0.766406
	H430	H	1.048728	1.026137	0.776050
	H431	H	1.034617	1.026534	0.765856
	O432	O	0.691792	0.694175	0.421438
	H433	H	0.702765	0.715162	0.410219
	H434	H	0.695074	0.687675	0.425640
	O435	O	0.032333	0.771113	0.025798
	H436	H	0.025653	0.772454	0.014229
	H437	H	0.024659	0.768309	0.047037
	O438	O	0.032121	-0.226522	-0.230240
	H439	H	0.046427	-0.244186	-0.253874
	H440	H	0.069610	-0.230918	-0.235702
	O441	O	-0.160891	-0.158399	-0.201834
	H442	H	-0.177827	-0.188317	-0.222285
	H443	H	-0.149722	-0.148418	-0.179504
	O444	O	0.271364	0.716457	0.454302
	H445	H	0.288909	0.715296	0.427069
	H446	H	0.237238	0.747226	0.455088
	O447	O	0.061984	1.121441	0.919859
	H448	H	0.058297	1.107143	0.925369
	H449	H	0.043551	1.123570	0.916543
	O450	O	-0.110717	0.983393	0.804524
	H451	H	-0.127763	0.983167	0.794607
	H452	H	-0.118043	0.980436	0.818298
	O453	O	0.613754	0.642388	0.325063
	H454	H	0.604520	0.630400	0.311892
	H455	H	0.603267	0.643955	0.350422
	O456	O	0.301421	0.309223	1.302248
	H457	H	0.302374	0.336629	1.323174
	H458	H	0.313258	0.308962	1.301966
	O459	O	1.118851	0.941169	0.020165
	H460	H	1.127438	0.938846	0.011333
	H461	H	1.116744	0.926554	0.029984
	O462	O	0.536747	0.634506	0.447730
	H463	H	0.535487	0.632471	0.452840
	H464	H	0.542856	0.634785	0.453337
	O465	O	1.036803	0.127818	0.078097
	H466	H	1.038529	0.131334	0.061234
	H467	H	1.025408	0.133165	0.087807
	O468	O	0.532856	0.303511	0.567342
	H469	H	0.532871	0.322061	0.571347
	H470	H	0.540027	0.301578	0.563985
	O471	O	0.525484	0.279469	0.328493
	H472	H	0.509566	0.275065	0.315466
	H473	H	0.509364	0.269535	0.342494
	O474	O	0.214590	0.971276	0.025147
	H475	H	0.215552	0.971687	0.008308
	H476	H	0.213161	0.982286	0.027064
	O477	O	0.795076	0.188094	1.797156
	H478	H	0.778378	0.202654	1.781655
	H479	H	0.823701	0.179849	1.787000
	O480	O	0.418809	0.577624	0.494079
	H481	H	0.415952	0.578993	0.489547
	H482	H	0.413149	0.579085	0.492237
	O483	O	0.287942	0.693698	0.288920
	H484	H	0.316660	0.683456	0.284599
	H485	H	0.266747	0.719282	0.273180
	O486	O	0.807151	0.177506	1.183359
	H487	H	0.828684	0.163838	1.170407
	H488	H	0.812364	0.156907	1.165315
	O489	O	1.010330	1.165641	0.174863
	H490	H	1.017552	1.159090	0.180311
	H491	H	1.008599	1.170725	0.184236
