data_Molecule from HDF5

_cell_length_a		16.234770
_cell_length_b		16.471073
_cell_length_c		16.091489
_cell_angle_alpha	89.927652
_cell_angle_beta	90.081206
_cell_angle_gamma	89.882076
_symmetry_space_group_name_H-M	'P 1'
_symmetry_Int_Tables_number		1

loop_
	_symmetry_equiv_pos_as_xyz
	x,y,z

loop_
	_atom_site_label
	_atom_site_type_symbol
	_atom_site_fract_x
	_atom_site_fract_y
	_atom_site_fract_z
	H0	H	0.409257	0.838651	0.714347
	H1	H	0.603854	0.164703	0.717004
	H2	H	0.600911	0.838325	0.290857
	H3	H	0.409057	0.164277	0.285730
	H4	H	0.718778	0.404969	0.836135
	H5	H	0.717011	0.596371	0.168870
	H6	H	0.294483	0.597836	0.836941
	H7	H	0.295365	0.404827	0.169298
	H8	H	0.843125	0.719772	0.400057
	H9	H	0.169467	0.719797	0.603995
	H10	H	0.842922	0.286282	0.603901
	H11	H	0.169180	0.285197	0.398653
	H12	H	0.840906	0.407933	0.713539
	H13	H	0.172417	0.597233	0.712826
	H14	H	0.840764	0.597384	0.290635
	H15	H	0.172659	0.409066	0.291467
	H16	H	0.404432	0.716906	0.837916
	H17	H	0.607655	0.715668	0.166496
	H18	H	0.605932	0.286537	0.837072
	H19	H	0.406392	0.285477	0.167230
	H20	H	0.721615	0.840427	0.403302
	H21	H	0.721774	0.164994	0.600945
	H22	H	0.290100	0.841049	0.600989
	H23	H	0.291012	0.164149	0.400905
	H24	H	0.909904	0.340426	0.217269
	H25	H	0.102852	0.665898	0.215377
	H26	H	0.104920	0.340403	0.786374
	H27	H	0.909306	0.666515	0.788294
	H28	H	0.216025	0.907831	0.335022
	H29	H	0.218339	0.098771	0.667557
	H30	H	0.794724	0.098539	0.334924
	H31	H	0.795385	0.907608	0.667973
	H32	H	0.343769	0.219977	0.898257
	H33	H	0.669075	0.217342	0.103645
	H34	H	0.343896	0.784745	0.102185
	H35	H	0.669472	0.783978	0.899976
	H36	H	0.341270	0.905777	0.212769
	H37	H	0.671456	0.094254	0.212033
	H38	H	0.339639	0.096412	0.790505
	H39	H	0.671521	0.906669	0.790183
	H40	H	0.904802	0.218194	0.336554
	H41	H	0.106467	0.216814	0.666302
	H42	H	0.105510	0.789451	0.336260
	H43	H	0.906881	0.788511	0.666326
	H44	H	0.222320	0.340108	0.903697
	H45	H	0.224208	0.663993	0.102870
	H46	H	0.791981	0.340515	0.101284
	H47	H	0.788720	0.663899	0.901774
	H48	H	0.411341	0.118007	0.596150
	H49	H	0.608092	0.884307	0.603761
	H50	H	0.593998	0.116281	0.404963
	H51	H	0.416687	0.889637	0.410029
	H52	H	0.589066	0.402847	0.118135
	H53	H	0.591718	0.597547	0.885148
	H54	H	0.420012	0.593093	0.118822
	H55	H	0.416548	0.406707	0.885146
	H56	H	0.125719	0.598314	0.404021
	H57	H	0.890243	0.594861	0.593562
	H58	H	0.124092	0.410737	0.600344
	H59	H	0.892237	0.414988	0.411864
	H60	H	0.124266	0.400678	0.592022
	H61	H	0.888335	0.599459	0.595970
	H62	H	0.123689	0.603640	0.414385
	H63	H	0.886990	0.407738	0.403727
	H64	H	0.415251	0.598044	0.121690
	H65	H	0.602422	0.596619	0.881401
	H66	H	0.606837	0.401116	0.124138
	H67	H	0.412280	0.409486	0.883955
	H68	H	0.602354	0.115959	0.413623
	H69	H	0.588800	0.889902	0.596773
	H70	H	0.414491	0.116464	0.594467
	H71	H	0.404331	0.886019	0.412222
	H72	H	0.908540	0.617522	0.090715
	H73	H	0.099684	0.390499	0.086984
	H74	H	0.095653	0.616215	0.908704
	H75	H	0.907932	0.385503	0.905490
	H76	H	0.099271	0.907700	0.620776
	H77	H	0.090285	0.090027	0.387598
	H78	H	0.912443	0.093909	0.619334
	H79	H	0.908637	0.905271	0.380431
	H80	H	0.624918	0.100592	0.907710
	H81	H	0.390264	0.099674	0.084950
	H82	H	0.625026	0.912612	0.104195
	H83	H	0.387277	0.905119	0.906070
	H84	H	0.627246	0.894474	0.095108
	H85	H	0.391684	0.087646	0.092626
	H86	H	0.620594	0.095068	0.916567
	H87	H	0.389148	0.903678	0.912106
	H88	H	0.917737	0.094853	0.618244
	H89	H	0.095603	0.108210	0.381046
	H90	H	0.099358	0.911977	0.619405
	H91	H	0.913482	0.915731	0.384915
	H92	H	0.104031	0.616558	0.913767
	H93	H	0.110464	0.384451	0.099138
	H94	H	0.907029	0.619896	0.099759
	H95	H	0.917905	0.388928	0.904762
	H96	H	0.411518	0.116745	0.593051
	H97	H	0.605897	0.889909	0.583421
	H98	H	0.605233	0.120654	0.402156
	H99	H	0.410045	0.883720	0.399984
	H100	H	0.600211	0.417425	0.117839
	H101	H	0.597683	0.588070	0.886088
	H102	H	0.413605	0.591305	0.120458
	H103	H	0.416461	0.411570	0.886592
	H104	H	0.121566	0.592300	0.412807
	H105	H	0.890463	0.599869	0.590338
	H106	H	0.120426	0.412369	0.588173
	H107	H	0.889575	0.404106	0.414931
	H108	H	0.915981	0.617379	0.096350
	H109	H	0.093984	0.387769	0.103419
	H110	H	0.104686	0.619322	0.904052
	H111	H	0.912581	0.389925	0.913928
	H112	H	0.096192	0.909638	0.619084
	H113	H	0.108791	0.092845	0.381238
	H114	H	0.915076	0.098928	0.619842
	H115	H	0.919739	0.906569	0.384184
	H116	H	0.621745	0.089608	0.906148
	H117	H	0.385205	0.098585	0.098852
	H118	H	0.619644	0.910269	0.083788
	H119	H	0.390204	0.909249	0.910148
	C120	C	0.384191	0.010124	0.623079
	C121	C	0.628940	0.994635	0.623963
	C122	C	0.628288	0.010153	0.379266
	C123	C	0.383027	0.993756	0.378325
	C124	C	0.627593	0.379353	0.010738
	C125	C	0.626803	0.621987	0.993639
	C126	C	0.386167	0.622527	0.010954
	C127	C	0.385821	0.380328	0.994406
	C128	C	0.014834	0.625450	0.380747
	C129	C	0.998403	0.625154	0.622415
	C130	C	0.014349	0.380687	0.622959
	C131	C	0.998351	0.381505	0.380729
	C132	C	0.884004	0.510853	0.123680
	C133	C	0.129281	0.494504	0.124818
	C134	C	0.129536	0.510552	0.879878
	C135	C	0.883989	0.494902	0.879286
	C136	C	0.126482	0.882233	0.509873
	C137	C	0.127171	0.124186	0.492814
	C138	C	0.885541	0.123903	0.509803
	C139	C	0.885224	0.881603	0.492834
	C140	C	0.514218	0.123403	0.880236
	C141	C	0.497559	0.122455	0.121354
	C142	C	0.515241	0.878841	0.122801
	C143	C	0.497879	0.878668	0.880507
	C144	C	0.387717	0.887638	0.677396
	C145	C	0.625004	0.116392	0.679253
	C146	C	0.623456	0.887398	0.326620
	C147	C	0.387420	0.115897	0.323429
	C148	C	0.682020	0.383098	0.885842
	C149	C	0.680852	0.617935	0.118647
	C150	C	0.331511	0.618863	0.886247
	C151	C	0.331903	0.383562	0.119401
	C152	C	0.891664	0.680747	0.381364
	C153	C	0.121197	0.680445	0.622354
	C154	C	0.891389	0.325439	0.622173
	C155	C	0.121094	0.325263	0.381069
	C156	C	0.890428	0.385619	0.677227
	C157	C	0.122545	0.619759	0.676490
	C158	C	0.890412	0.620069	0.327015
	C159	C	0.122756	0.386369	0.327037
	C160	C	0.386384	0.678049	0.886902
	C161	C	0.626360	0.677195	0.117458
	C162	C	0.625385	0.325049	0.886230
	C163	C	0.387188	0.324346	0.118325
	C164	C	0.683584	0.888606	0.382495
	C165	C	0.683766	0.116706	0.621543
	C166	C	0.328837	0.888534	0.620630
	C167	C	0.328621	0.115675	0.380760
	C168	C	0.888378	0.388820	0.179441
	C169	C	0.125262	0.617138	0.178690
	C170	C	0.125857	0.388699	0.824771
	C171	C	0.887539	0.617478	0.825042
	C172	C	0.179759	0.886128	0.384855
	C173	C	0.181535	0.120204	0.617839
	C174	C	0.831488	0.120193	0.384693
	C175	C	0.831504	0.885610	0.618160
	C176	C	0.391672	0.180379	0.879605
	C177	C	0.620851	0.177981	0.121707
	C178	C	0.392331	0.823342	0.121874
	C179	C	0.621154	0.823510	0.881544
	C180	C	0.391071	0.883453	0.176700
	C181	C	0.622121	0.116894	0.175367
	C182	C	0.389590	0.118809	0.826284
	C183	C	0.621975	0.883963	0.826665
	C184	C	0.886252	0.179597	0.385708
	C185	C	0.125954	0.178926	0.617116
	C186	C	0.124703	0.827350	0.385590
	C187	C	0.887041	0.826587	0.617320
	C188	C	0.184349	0.388468	0.882927
	C189	C	0.185115	0.616222	0.122730
	C190	C	0.829881	0.388615	0.121865
	C191	C	0.827561	0.616123	0.881303
	C192	C	0.406048	0.095025	0.600964
	C193	C	0.607454	0.909908	0.601302
	C194	C	0.606909	0.095668	0.400674
	C195	C	0.404130	0.908443	0.400929
	C196	C	0.605363	0.400919	0.097604
	C197	C	0.604051	0.600196	0.906697
	C198	C	0.409330	0.600557	0.097820
	C199	C	0.408445	0.402612	0.907576
	C200	C	0.101356	0.604439	0.403697
	C201	C	0.912053	0.604134	0.599871
	C202	C	0.100639	0.401754	0.600263
	C203	C	0.911892	0.402863	0.403365
	C204	C	0.904423	0.596078	0.102009
	C205	C	0.107816	0.409793	0.102810
	C206	C	0.107913	0.595403	0.902194
	C207	C	0.906357	0.410039	0.901552
	C208	C	0.104760	0.903369	0.597180
	C209	C	0.104813	0.103159	0.405740
	C210	C	0.908316	0.102100	0.596802
	C211	C	0.907307	0.903026	0.405710
	C212	C	0.600014	0.101706	0.903365
	C213	C	0.411464	0.101595	0.098626
	C214	C	0.601886	0.899637	0.100844
	C215	C	0.411416	0.899746	0.902864
	Zn216	Zn	0.505462	0.001235	0.752989
	Zn217	Zn	0.506396	0.001593	0.249778
	Zn218	Zn	0.754291	0.501762	0.002078
	Zn219	Zn	0.258749	0.502178	0.003357
	Zn220	Zn	0.006382	0.754223	0.501585
	Zn221	Zn	0.006093	0.251903	0.501129
	Zn222	Zn	0.006436	0.503479	0.750579
	Zn223	Zn	0.006827	0.503407	0.253180
	Zn224	Zn	0.506722	0.750223	0.001889
	Zn225	Zn	0.506123	0.251776	0.001942
	Zn226	Zn	0.758199	0.003131	0.501431
	Zn227	Zn	0.254287	0.002491	0.501569
	N228	N	0.421616	0.964051	0.678898
	N229	N	0.591800	0.039604	0.680942
	N230	N	0.589767	0.964112	0.324601
	N231	N	0.420569	0.039219	0.321840
	N232	N	0.683721	0.416170	0.964423
	N233	N	0.681098	0.584113	0.040489
	N234	N	0.331690	0.584669	0.964290
	N235	N	0.330930	0.417565	0.041408
	N236	N	0.969990	0.683989	0.414288
	N237	N	0.043009	0.684076	0.589379
	N238	N	0.969643	0.322093	0.589193
	N239	N	0.042730	0.322025	0.413531
	N240	N	0.967832	0.419228	0.677851
	N241	N	0.044975	0.586052	0.676660
	N242	N	0.968128	0.586678	0.326270
	N243	N	0.045143	0.420468	0.326738
	N244	N	0.419677	0.680445	0.965586
	N245	N	0.593534	0.680025	0.038564
	N246	N	0.592628	0.322465	0.964858
	N247	N	0.419775	0.322115	0.039379
	N248	N	0.686624	0.965936	0.414603
	N249	N	0.686371	0.040033	0.587838
	N250	N	0.326418	0.965680	0.587531
	N251	N	0.325822	0.038623	0.414253
	N252	N	0.921311	0.465689	0.180752
	N253	N	0.091293	0.540814	0.180028
	N254	N	0.092405	0.465394	0.822940
	N255	N	0.921714	0.540965	0.823599
	N256	N	0.180757	0.919858	0.463006
	N257	N	0.182406	0.086827	0.539502
	N258	N	0.830827	0.086524	0.462891
	N259	N	0.830350	0.919047	0.539835
	N260	N	0.469932	0.183325	0.912509
	N261	N	0.542509	0.181509	0.088917
	N262	N	0.470430	0.820401	0.089077
	N263	N	0.542685	0.819759	0.913913
	N264	N	0.468586	0.917385	0.177285
	N265	N	0.544652	0.083150	0.175412
	N266	N	0.466896	0.084192	0.826478
	N267	N	0.544484	0.917532	0.826140
	N268	N	0.919139	0.182025	0.464585
	N269	N	0.092904	0.181555	0.538349
	N270	N	0.092478	0.824611	0.464651
	N271	N	0.919609	0.824006	0.538350
	N272	N	0.186859	0.465298	0.916489
	N273	N	0.187871	0.539067	0.089948
	N274	N	0.827018	0.465296	0.087939
	N275	N	0.825135	0.539042	0.914285
	O276	O	0.461009	0.459702	0.544599
	H277	H	0.460113	0.460084	0.551038
	H278	H	0.457756	0.453712	0.560363
	O279	O	0.050539	0.109274	-0.015238
	H280	H	0.041034	0.116952	-0.020572
	H281	H	0.051242	0.116463	-0.018004
	O282	O	0.516523	0.486363	0.535113
	H283	H	0.509191	0.484769	0.526767
	H284	H	0.517416	0.483541	0.544800
	O285	O	0.496378	0.481152	0.531029
	H286	H	0.488986	0.478165	0.539585
	H287	H	0.496908	0.490934	0.533080
	O288	O	0.972511	0.138757	-0.048666
	H289	H	0.965851	0.155697	-0.059689
	H290	H	0.965320	0.138103	-0.054603
	O291	O	-0.537762	0.502444	-0.442418
	H292	H	-0.527423	0.506856	-0.446687
	H293	H	-0.528607	0.506049	-0.438059
	O294	O	0.498370	0.488232	0.592414
	H295	H	0.502725	0.492783	0.581208
	H296	H	0.502675	0.493206	0.593534
	O297	O	-0.033668	1.112736	-0.003425
	H298	H	-0.021986	1.114845	-0.010372
	H299	H	-0.026692	1.109423	0.007603
	O300	O	1.013375	0.099936	0.987498
	H301	H	1.016657	0.095932	0.999072
	H302	H	1.004794	0.105194	0.980539
	O303	O	0.468790	0.529685	0.537496
	H304	H	0.466022	0.527373	0.538868
	H305	H	0.465147	0.525786	0.533253
	O306	O	-0.040600	1.129285	0.969411
	H307	H	-0.040281	1.120737	0.966954
	H308	H	-0.037396	1.127629	0.980096
	O309	O	0.531929	0.501893	0.505957
	H310	H	0.523880	0.495489	0.508042
	H311	H	0.540060	0.499936	0.512502
