data_Molecule from HDF5

_cell_length_a		16.500726
_cell_length_b		16.576422
_cell_length_c		16.535399
_cell_angle_alpha	90.072914
_cell_angle_beta	90.107485
_cell_angle_gamma	90.143001
_symmetry_space_group_name_H-M	'P 1'
_symmetry_Int_Tables_number		1

loop_
	_symmetry_equiv_pos_as_xyz
	x,y,z

loop_
	_atom_site_label
	_atom_site_type_symbol
	_atom_site_fract_x
	_atom_site_fract_y
	_atom_site_fract_z
	H0	H	0.398401	0.854817	0.728575
	H1	H	0.614870	0.165161	0.729874
	H2	H	0.608100	0.853290	0.283535
	H3	H	0.397767	0.166660	0.283084
	H4	H	0.722811	0.407009	0.848440
	H5	H	0.725632	0.615109	0.163507
	H6	H	0.286578	0.609369	0.847563
	H7	H	0.280816	0.401779	0.162405
	H8	H	0.847847	0.730168	0.400250
	H9	H	0.161980	0.729456	0.609397
	H10	H	0.846665	0.290343	0.606543
	H11	H	0.162817	0.288651	0.400562
	H12	H	0.845840	0.406552	0.722098
	H13	H	0.162475	0.611183	0.724789
	H14	H	0.847516	0.614104	0.283805
	H15	H	0.162165	0.404138	0.283922
	H16	H	0.400413	0.728745	0.848945
	H17	H	0.610503	0.731944	0.163295
	H18	H	0.609555	0.287692	0.849633
	H19	H	0.395786	0.285399	0.162534
	H20	H	0.723498	0.852422	0.401914
	H21	H	0.728925	0.165467	0.611248
	H22	H	0.281534	0.854480	0.611938
	H23	H	0.282613	0.166799	0.400614
	H24	H	0.898872	0.353012	0.227072
	H25	H	0.111572	0.665663	0.228774
	H26	H	0.110839	0.352143	0.782077
	H27	H	0.902547	0.666797	0.786809
	H28	H	0.226060	0.903858	0.348077
	H29	H	0.228276	0.117192	0.662080
	H30	H	0.783339	0.114101	0.349008
	H31	H	0.785467	0.906595	0.662323
	H32	H	0.347110	0.232711	0.897493
	H33	H	0.660764	0.229924	0.109091
	H34	H	0.345683	0.788907	0.109912
	H35	H	0.659615	0.787537	0.899720
	H36	H	0.347118	0.904374	0.227508
	H37	H	0.661316	0.112962	0.224984
	H38	H	0.347563	0.116144	0.781125
	H39	H	0.660477	0.905777	0.784700
	H40	H	0.899721	0.230585	0.348572
	H41	H	0.113261	0.234562	0.660836
	H42	H	0.111597	0.785644	0.349711
	H43	H	0.902556	0.791154	0.663415
	H44	H	0.227776	0.352372	0.898315
	H45	H	0.225802	0.666593	0.109766
	H46	H	0.782298	0.353469	0.110356
	H47	H	0.786678	0.667442	0.904334
	H48	H	0.419944	0.120861	0.593265
	H49	H	0.593151	0.898443	0.596367
	H50	H	0.595136	0.119452	0.423158
	H51	H	0.416195	0.898370	0.414382
	H52	H	0.590923	0.427065	0.116148
	H53	H	0.593799	0.597340	0.895109
	H54	H	0.414677	0.600995	0.120128
	H55	H	0.419262	0.417411	0.894884
	H56	H	0.117474	0.600552	0.416169
	H57	H	0.890685	0.598941	0.597061
	H58	H	0.116816	0.427561	0.597739
	H59	H	0.891385	0.413439	0.419438
	H60	H	0.121396	0.415116	0.598436
	H61	H	0.889637	0.602409	0.598258
	H62	H	0.115103	0.597649	0.423073
	H63	H	0.896360	0.425139	0.421001
	H64	H	0.413383	0.597539	0.118514
	H65	H	0.590729	0.603553	0.893452
	H66	H	0.587570	0.416251	0.117619
	H67	H	0.412208	0.421234	0.893765
	H68	H	0.600802	0.124848	0.412601
	H69	H	0.591840	0.899014	0.593856
	H70	H	0.416771	0.121467	0.590362
	H71	H	0.415877	0.899497	0.417123
	H72	H	0.913303	0.620013	0.089153
	H73	H	0.094138	0.399233	0.089381
	H74	H	0.100158	0.621631	0.916608
	H75	H	0.914244	0.396057	0.913053
	H76	H	0.088469	0.922444	0.614488
	H77	H	0.097868	0.097130	0.393194
	H78	H	0.917047	0.100708	0.618110
	H79	H	0.917585	0.923209	0.394374
	H80	H	0.617697	0.095674	0.908983
	H81	H	0.391671	0.096123	0.092629
	H82	H	0.613546	0.923131	0.091515
	H83	H	0.393363	0.922232	0.920376
	H84	H	0.617534	0.922234	0.099575
	H85	H	0.389444	0.098670	0.096881
	H86	H	0.618070	0.108996	0.919701
	H87	H	0.391438	0.923825	0.914947
	H88	H	0.916282	0.098242	0.617811
	H89	H	0.090430	0.094343	0.396297
	H90	H	0.093769	0.915259	0.618150
	H91	H	0.918270	0.913585	0.391652
	H92	H	0.091148	0.620704	0.910758
	H93	H	0.093873	0.395931	0.097489
	H94	H	0.912611	0.624440	0.099566
	H95	H	0.912621	0.396618	0.915843
	H96	H	0.416652	0.122518	0.594501
	H97	H	0.594536	0.898366	0.593643
	H98	H	0.587425	0.121473	0.412103
	H99	H	0.413506	0.897729	0.416217
	H100	H	0.597841	0.419492	0.120838
	H101	H	0.597977	0.602686	0.892509
	H102	H	0.416972	0.599118	0.118366
	H103	H	0.418560	0.424752	0.897139
	H104	H	0.115656	0.592855	0.416852
	H105	H	0.890727	0.602021	0.594861
	H106	H	0.115772	0.419281	0.587214
	H107	H	0.890861	0.421106	0.409966
	H108	H	0.921946	0.619578	0.095986
	H109	H	0.087298	0.400395	0.094277
	H110	H	0.091416	0.616874	0.920603
	H111	H	0.910798	0.395261	0.914205
	H112	H	0.097484	0.924613	0.617499
	H113	H	0.090668	0.102492	0.393548
	H114	H	0.918680	0.099149	0.616880
	H115	H	0.909874	0.918382	0.390488
	H116	H	0.611309	0.093861	0.924362
	H117	H	0.390360	0.101147	0.092336
	H118	H	0.617288	0.915281	0.093130
	H119	H	0.390248	0.918224	0.916831
	C120	C	0.384559	0.018675	0.625844
	C121	C	0.626629	1.001744	0.627133
	C122	C	0.625705	0.018143	0.384179
	C123	C	0.382687	1.001987	0.383543
	C124	C	0.624158	0.389241	0.014397
	C125	C	0.625977	0.632457	0.997797
	C126	C	0.383242	0.630099	0.014679
	C127	C	0.382746	0.387662	0.998150
	C128	C	0.012484	0.629621	0.385569
	C129	C	0.995306	0.631481	0.627719
	C130	C	0.013431	0.388549	0.625752
	C131	C	0.996638	0.387578	0.383860
	C132	C	0.883235	0.517967	0.127082
	C133	C	0.125471	0.501596	0.126767
	C134	C	0.126208	0.516492	0.883703
	C135	C	0.882365	0.500339	0.883969
	C136	C	0.126104	0.888250	0.513344
	C137	C	0.126364	0.131338	0.497448
	C138	C	0.884410	0.130750	0.513916
	C139	C	0.883819	0.888016	0.496467
	C140	C	0.512188	0.131979	0.884148
	C141	C	0.494848	0.130642	0.126126
	C142	C	0.512178	0.888317	0.127125
	C143	C	0.495367	0.889057	0.884836
	C144	C	0.380637	0.901450	0.687486
	C145	C	0.631703	0.118420	0.688843
	C146	C	0.626747	0.900154	0.324140
	C147	C	0.380007	0.119702	0.323383
	C148	C	0.683446	0.387926	0.895945
	C149	C	0.685963	0.633884	0.116093
	C150	C	0.325152	0.629458	0.895329
	C151	C	0.321043	0.383968	0.115490
	C152	C	0.894767	0.690360	0.381821
	C153	C	0.114804	0.689544	0.628305
	C154	C	0.894185	0.329493	0.626124
	C155	C	0.115307	0.328433	0.381987
	C156	C	0.893779	0.387443	0.683370
	C157	C	0.114897	0.631126	0.685757
	C158	C	0.894649	0.632551	0.324192
	C159	C	0.114951	0.385783	0.323898
	C160	C	0.381945	0.688495	0.895896
	C161	C	0.628404	0.691878	0.116068
	C162	C	0.626919	0.328535	0.896539
	C163	C	0.378403	0.326015	0.115448
	C164	C	0.684208	0.899657	0.382843
	C165	C	0.688573	0.118653	0.629936
	C166	C	0.322690	0.901230	0.629342
	C167	C	0.322473	0.119667	0.381606
	C168	C	0.880849	0.400011	0.186910
	C169	C	0.129060	0.619024	0.187836
	C170	C	0.128923	0.398874	0.822743
	C171	C	0.883023	0.619563	0.826125
	C172	C	0.186176	0.885508	0.395476
	C173	C	0.187695	0.134741	0.615080
	C174	C	0.824011	0.132270	0.395780
	C175	C	0.825202	0.887570	0.615228
	C176	C	0.394002	0.192240	0.880163
	C177	C	0.613556	0.190334	0.128052
	C178	C	0.393342	0.828530	0.128922
	C179	C	0.612917	0.828322	0.881818
	C180	C	0.393685	0.885942	0.187105
	C181	C	0.613975	0.132160	0.185420
	C182	C	0.394502	0.134524	0.822046
	C183	C	0.613313	0.886753	0.824662
	C184	C	0.881604	0.190425	0.395638
	C185	C	0.130767	0.193411	0.614479
	C186	C	0.129242	0.826655	0.396235
	C187	C	0.883128	0.830074	0.615699
	C188	C	0.186806	0.398858	0.880835
	C189	C	0.186148	0.619394	0.128926
	C190	C	0.822700	0.400245	0.129020
	C191	C	0.825467	0.619862	0.884455
	C192	C	0.410453	0.100300	0.600232
	C193	C	0.600486	0.919847	0.601789
	C194	C	0.601359	0.100478	0.408867
	C195	C	0.408091	0.919972	0.408627
	C196	C	0.599092	0.414061	0.096793
	C197	C	0.601162	0.608066	0.915067
	C198	C	0.407773	0.606108	0.097492
	C199	C	0.409124	0.413903	0.916573
	C200	C	0.094587	0.604201	0.411391
	C201	C	0.911954	0.607957	0.603613
	C202	C	0.096372	0.413341	0.601472
	C203	C	0.914271	0.412673	0.409350
	C204	C	0.908577	0.599989	0.102166
	C205	C	0.099406	0.419848	0.101080
	C206	C	0.101330	0.598316	0.908838
	C207	C	0.905781	0.417582	0.907517
	C208	C	0.100503	0.913736	0.595514
	C209	C	0.100338	0.105457	0.415611
	C210	C	0.910036	0.106183	0.596140
	C211	C	0.908189	0.911758	0.413815
	C212	C	0.594260	0.106784	0.910231
	C213	C	0.412151	0.105765	0.101240
	C214	C	0.594535	0.913099	0.102055
	C215	C	0.412963	0.914170	0.910137
	Zn216	Zn	0.505047	0.010520	0.755992
	Zn217	Zn	0.503616	0.010137	0.255062
	Zn218	Zn	0.753799	0.510171	0.006025
	Zn219	Zn	0.254313	0.508374	0.005970
	Zn220	Zn	0.004642	0.759040	0.505283
	Zn221	Zn	0.005103	0.260046	0.505159
	Zn222	Zn	0.004186	0.508709	0.755101
	Zn223	Zn	0.004841	0.509903	0.256356
	Zn224	Zn	0.503820	0.759824	0.006182
	Zn225	Zn	0.503531	0.259675	0.006041
	Zn226	Zn	0.755692	0.009586	0.505459
	Zn227	Zn	0.254775	0.010206	0.505550
	N228	N	0.418306	0.975316	0.685345
	N229	N	0.593738	0.044632	0.687231
	N230	N	0.591089	0.974861	0.324772
	N231	N	0.416637	0.045277	0.324344
	N232	N	0.681994	0.424869	0.970254
	N233	N	0.684508	0.597503	0.041460
	N234	N	0.325528	0.594242	0.970427
	N235	N	0.323565	0.421588	0.041485
	N236	N	0.969115	0.688487	0.419374
	N237	N	0.039309	0.690178	0.593336
	N238	N	0.969728	0.329909	0.591247
	N239	N	0.040611	0.329339	0.418273
	N240	N	0.968994	0.423336	0.683517
	N241	N	0.039525	0.595923	0.685560
	N242	N	0.968819	0.595497	0.326516
	N243	N	0.039911	0.421686	0.324687
	N244	N	0.417211	0.689152	0.971156
	N245	N	0.592009	0.691324	0.041394
	N246	N	0.590773	0.329274	0.971218
	N247	N	0.415826	0.328050	0.041410
	N248	N	0.683791	0.974068	0.419408
	N249	N	0.685585	0.044878	0.592265
	N250	N	0.324954	0.975078	0.591756
	N251	N	0.324045	0.045367	0.418113
	N252	N	0.917814	0.474243	0.185916
	N253	N	0.092268	0.544652	0.186825
	N254	N	0.091884	0.472969	0.824286
	N255	N	0.917604	0.544263	0.825451
	N256	N	0.184502	0.922965	0.469616
	N257	N	0.185118	0.096825	0.541154
	N258	N	0.825730	0.095798	0.470333
	N259	N	0.824964	0.922187	0.540005
	N260	N	0.468204	0.190779	0.917992
	N261	N	0.538254	0.189821	0.092467
	N262	N	0.468226	0.829607	0.092530
	N263	N	0.538429	0.829693	0.918569
	N264	N	0.468532	0.922111	0.186319
	N265	N	0.539038	0.096000	0.184426
	N266	N	0.469071	0.097863	0.824401
	N267	N	0.539176	0.923804	0.826460
	N268	N	0.918742	0.189378	0.470003
	N269	N	0.093396	0.191462	0.540325
	N270	N	0.092699	0.828112	0.470659
	N271	N	0.918641	0.829824	0.540669
	N272	N	0.184950	0.472684	0.918388
	N273	N	0.184144	0.545247	0.091932
	N274	N	0.824156	0.474585	0.092531
	N275	N	0.824809	0.544840	0.919523
	O276	O	1.069311	0.918305	0.009506
	H277	H	1.061803	0.921519	0.006890
	H278	H	1.074394	0.908925	0.021195
	O279	O	0.011126	-0.206337	1.148623
	H280	H	0.008221	-0.196396	1.155033
	H281	H	-0.001243	-0.208922	1.151897
	O282	O	0.546398	0.453638	0.559339
	H283	H	0.536344	0.453418	0.562523
	H284	H	0.547470	0.451323	0.575397
	O285	O	0.597896	0.439328	0.557185
	H286	H	0.589895	0.439975	0.544047
	H287	H	0.587888	0.443313	0.554773
	O288	O	1.017508	0.187046	0.925636
	H289	H	1.017843	0.191477	0.933768
	H290	H	1.019081	0.178813	0.919941
	O291	O	0.355113	0.473417	0.693430
	H292	H	0.355098	0.472912	0.675675
	H293	H	0.347869	0.495008	0.688687
	O294	O	0.300835	0.588321	-0.477231
	H295	H	0.315254	0.591850	-0.491895
	H296	H	0.294478	0.600574	-0.504038
	O297	O	0.536399	-0.515765	-0.313544
	H298	H	0.533033	-0.521962	-0.320298
	H299	H	0.535499	-0.518931	-0.312148
	O300	O	-0.211356	0.162424	0.024159
	H301	H	-0.213079	0.172635	0.009633
	H302	H	-0.208158	0.162611	-0.001273
	O303	O	0.080709	-0.039724	-0.059777
	H304	H	0.089380	-0.041213	-0.055291
	H305	H	0.086296	-0.048410	-0.073327
	O306	O	0.951015	0.101111	-0.031870
	H307	H	0.963873	0.084974	-0.033992
	H308	H	0.958806	0.101434	-0.032490
	O309	O	0.533684	0.722915	0.720018
	H310	H	0.557140	0.707966	0.709951
	H311	H	0.544313	0.751564	0.747462
	O312	O	0.043361	0.000984	0.214333
	H313	H	0.044272	0.016247	0.210647
	H314	H	0.057850	0.012566	0.218803
	O315	O	0.306046	0.332162	0.502766
	H316	H	0.312459	0.331219	0.486483
	H317	H	0.295489	0.331450	0.485847
	O318	O	0.813379	0.815960	0.195685
	H319	H	0.816157	0.830019	0.204973
	H320	H	0.812221	0.799940	0.187324
	O321	O	0.216700	0.978197	0.787093
	H322	H	0.225968	0.969441	0.792777
	H323	H	0.232931	0.977967	0.774494
	O324	O	0.826275	0.016111	1.001432
	H325	H	0.828741	0.006573	1.003763
	H326	H	0.813643	0.018121	1.024728
	O327	O	0.811836	0.174056	0.162518
	H328	H	0.813013	0.165458	0.138488
	H329	H	0.832391	0.161922	0.150580
	O330	O	0.293722	0.487293	0.334368
	H331	H	0.289877	0.494672	0.310029
	H332	H	0.302665	0.472357	0.319462
	O333	O	0.454413	0.299999	0.388237
	H334	H	0.460256	0.317138	0.391172
	H335	H	0.469065	0.288076	0.352802
	O336	O	0.339902	0.375069	0.701694
	H337	H	0.330876	0.396193	0.702777
	H338	H	0.335143	0.363597	0.681069
	O339	O	0.335008	0.683219	0.448586
	H340	H	0.339925	0.688703	0.447684
	H341	H	0.328736	0.686723	0.431583
	O342	O	0.145895	1.106142	-0.113850
	H343	H	0.149131	1.105003	-0.103884
	H344	H	0.142830	1.094819	-0.118242
	O345	O	0.766319	0.248244	0.766456
	H346	H	0.790920	0.259092	0.762777
	H347	H	0.755059	0.245059	0.748139
	O348	O	0.219845	0.909002	0.873275
	H349	H	0.245418	0.895452	0.869754
	H350	H	0.224692	0.900668	0.895253
	O351	O	0.177738	0.224490	1.015718
	H352	H	0.196681	0.234189	1.019679
	H353	H	0.170372	0.230829	1.017306
	O354	O	1.052143	0.020121	0.781130
	H355	H	1.054180	0.018997	0.764171
	H356	H	1.063277	0.001130	0.785942
	O357	O	0.450447	0.739812	0.558916
	H358	H	0.456969	0.742039	0.581762
	H359	H	0.433458	0.739143	0.549469
	O360	O	0.318736	0.502595	0.562093
	H361	H	0.325604	0.494583	0.553989
	H362	H	0.314286	0.499586	0.570731
	O363	O	0.717568	0.530841	0.424743
	H364	H	0.722106	0.534852	0.417445
	H365	H	0.725167	0.537196	0.414873
	O366	O	0.839539	0.030520	0.852133
	H367	H	0.842204	0.037569	0.851931
	H368	H	0.850203	0.033152	0.849440
	O369	O	0.135343	-0.184230	1.134209
	H370	H	0.118461	-0.180793	1.149199
	H371	H	0.119915	-0.192429	1.130820
	O372	O	0.044787	0.818183	0.792342
	H373	H	0.051888	0.786230	0.772993
	H374	H	0.086927	0.824250	0.794980
	O375	O	1.035056	-0.104939	0.137802
	H376	H	1.028851	-0.108127	0.144376
	H377	H	1.039731	-0.117352	0.136670
	O378	O	0.492109	0.291788	0.685592
	H379	H	0.470089	0.280202	0.707281
	H380	H	0.468275	0.294957	0.686071
	O381	O	0.218946	1.077541	0.179677
	H382	H	0.231810	1.079320	0.185973
	H383	H	0.231709	1.091747	0.187467
	O384	O	0.578556	0.285693	0.537012
	H385	H	0.558225	0.284783	0.548187
	H386	H	0.566951	0.290159	0.541471
	O387	O	0.031134	1.223921	1.223732
	H388	H	0.032150	1.232145	1.236305
	H389	H	0.026131	1.233609	1.221445
	O390	O	-0.186378	0.822457	0.818341
	H391	H	-0.169055	0.850693	0.828341
	H392	H	-0.174538	0.833748	0.846477
	O393	O	1.191057	0.196071	0.189281
	H394	H	1.155581	0.195586	0.191085
	H395	H	1.206415	0.189169	0.185517
	O396	O	0.692524	0.305783	0.447464
	H397	H	0.690823	0.308689	0.466083
	H398	H	0.682816	0.294394	0.455057
	O399	O	0.512570	0.306630	0.295276
	H400	H	0.513571	0.291160	0.269164
	H401	H	0.556330	0.313303	0.295786
	O402	O	0.813565	-0.191552	1.036840
	H403	H	0.805108	-0.189216	1.041110
	H404	H	0.806703	-0.192833	1.050144
	O405	O	0.680423	0.594921	0.435535
	H406	H	0.668119	0.581299	0.450982
	H407	H	0.672176	0.589260	0.449901
	O408	O	0.914948	1.203574	1.012121
	H409	H	0.904099	1.195880	0.996026
	H410	H	0.915523	1.204679	1.022941
	O411	O	0.790013	0.977345	0.226677
	H412	H	0.792459	0.956904	0.216524
	H413	H	0.767080	0.979689	0.250211
	O414	O	-0.060034	0.141974	0.152523
	H415	H	-0.053080	0.140989	0.141769
	H416	H	-0.079443	0.141560	0.145216
	O417	O	0.673843	0.443740	0.620103
	H418	H	0.667424	0.449858	0.617292
	H419	H	0.674806	0.449324	0.621760
	O420	O	0.710994	-0.281193	0.713872
	H421	H	0.735445	-0.252324	0.741866
	H422	H	0.714061	-0.305118	0.709445
	O423	O	1.040527	0.933403	-0.114619
	H424	H	1.043718	0.920483	-0.109175
	H425	H	1.042151	0.929383	-0.121156
	O426	O	0.586582	0.658507	0.308958
	H427	H	0.574186	0.659602	0.319029
	H428	H	0.607647	0.641553	0.317533
	O429	O	0.391316	0.492982	0.329017
	H430	H	0.395178	0.497270	0.328444
	H431	H	0.406936	0.504056	0.331499
	O432	O	0.884258	-0.041343	1.084340
	H433	H	0.889611	-0.032941	1.079988
	H434	H	0.897280	-0.017763	1.084605
	O435	O	0.272309	0.743357	0.741304
	H436	H	0.280332	0.739236	0.740624
	H437	H	0.303778	0.721111	0.720739
	O438	O	0.546992	0.490428	0.410807
	H439	H	0.546840	0.488900	0.415139
	H440	H	0.563216	0.489303	0.414538
	O441	O	0.634429	0.724975	0.485026
	H442	H	0.660004	0.742459	0.499369
	H443	H	0.614544	0.728192	0.516805
	O444	O	0.719547	0.547047	0.722955
	H445	H	0.721769	0.541286	0.730844
	H446	H	0.727577	0.548699	0.738037
	O447	O	0.913792	-0.104231	0.858184
	H448	H	0.916368	-0.100591	0.859082
	H449	H	0.911718	-0.109632	0.847885
	O450	O	0.624874	0.701617	-0.484432
	H451	H	0.641328	0.704760	-0.479321
	H452	H	0.626886	0.702644	-0.475309
	O453	O	0.413579	0.598164	0.666099
	H454	H	0.412263	0.583009	0.656546
	H455	H	0.431788	0.596580	0.665325
	O456	O	0.200374	0.829676	0.974660
	H457	H	0.204071	0.808771	0.979624
	H458	H	0.195812	0.825207	0.989406
	O459	O	0.316557	0.432906	0.422351
	H460	H	0.319283	0.433792	0.429676
	H461	H	0.337015	0.439765	0.417697
	O462	O	0.670215	0.341600	0.299589
	H463	H	0.691108	0.332523	0.322198
	H464	H	0.687131	0.331234	0.290929
	O465	O	0.306531	0.706852	0.360249
	H466	H	0.321872	0.715035	0.361957
	H467	H	0.315438	0.676243	0.348021
	O468	O	0.099306	0.942427	0.089402
	H469	H	0.096622	0.943913	0.074577
	H470	H	0.091761	0.938278	0.086190
	O471	O	0.488656	0.665650	0.371384
	H472	H	0.498801	0.660931	0.379659
	H473	H	0.492694	0.687854	0.356510
	O474	O	0.974738	1.220168	-0.208067
	H475	H	0.976791	1.235793	-0.238595
	H476	H	0.999165	1.206127	-0.188997
	O477	O	0.687638	0.486885	0.325262
	H478	H	0.700026	0.465834	0.316813
	H479	H	0.699704	0.460574	0.318392
