data_Molecule from HDF5

_cell_length_a		16.282191
_cell_length_b		16.315675
_cell_length_c		16.197132
_cell_angle_alpha	90.029494
_cell_angle_beta	90.181189
_cell_angle_gamma	89.942289
_symmetry_space_group_name_H-M	'P 1'
_symmetry_Int_Tables_number		1

loop_
	_symmetry_equiv_pos_as_xyz
	x,y,z

loop_
	_atom_site_label
	_atom_site_type_symbol
	_atom_site_fract_x
	_atom_site_fract_y
	_atom_site_fract_z
	H0	H	0.406520	0.826724	0.706790
	H1	H	0.600446	0.154929	0.708922
	H2	H	0.598960	0.827434	0.280330
	H3	H	0.405104	0.155846	0.280476
	H4	H	0.715267	0.392838	0.828907
	H5	H	0.715791	0.588168	0.158858
	H6	H	0.288092	0.589072	0.829170
	H7	H	0.290492	0.394006	0.159018
	H8	H	0.838806	0.706081	0.394503
	H9	H	0.166176	0.705839	0.593613
	H10	H	0.838364	0.275726	0.592426
	H11	H	0.165784	0.274370	0.394704
	H12	H	0.837420	0.395288	0.706047
	H13	H	0.166791	0.587567	0.706478
	H14	H	0.837540	0.586416	0.280984
	H15	H	0.167268	0.393736	0.280717
	H16	H	0.403964	0.704290	0.829478
	H17	H	0.602702	0.705433	0.157734
	H18	H	0.599233	0.277162	0.828959
	H19	H	0.405389	0.277173	0.158735
	H20	H	0.716924	0.827451	0.395331
	H21	H	0.717663	0.154408	0.593166
	H22	H	0.289688	0.826751	0.590371
	H23	H	0.285947	0.154161	0.394619
	H24	H	0.906814	0.326923	0.206166
	H25	H	0.100105	0.655261	0.207839
	H26	H	0.099389	0.326656	0.780102
	H27	H	0.904500	0.655175	0.778572
	H28	H	0.216111	0.891841	0.329507
	H29	H	0.216068	0.087891	0.659353
	H30	H	0.787488	0.088973	0.329072
	H31	H	0.788639	0.892449	0.658641
	H32	H	0.339180	0.205502	0.894336
	H33	H	0.666097	0.206059	0.094397
	H34	H	0.339597	0.775823	0.092490
	H35	H	0.666650	0.775108	0.894959
	H36	H	0.337947	0.894210	0.206246
	H37	H	0.667003	0.087141	0.207093
	H38	H	0.338301	0.087257	0.780793
	H39	H	0.666863	0.893765	0.781365
	H40	H	0.902270	0.205319	0.329970
	H41	H	0.101200	0.204290	0.658898
	H42	H	0.101329	0.775963	0.329511
	H43	H	0.904614	0.776764	0.658588
	H44	H	0.217286	0.327146	0.895114
	H45	H	0.218400	0.654505	0.093716
	H46	H	0.788130	0.327454	0.092430
	H47	H	0.786310	0.654478	0.894105
	H48	H	0.397142	0.107852	0.580978
	H49	H	0.604305	0.873267	0.585456
	H50	H	0.600551	0.108045	0.404118
	H51	H	0.391216	0.869239	0.398048
	H52	H	0.603986	0.406719	0.110204
	H53	H	0.594694	0.586388	0.875334
	H54	H	0.419242	0.590089	0.110452
	H55	H	0.403984	0.395177	0.874441
	H56	H	0.115526	0.576343	0.404630
	H57	H	0.885252	0.584119	0.588758
	H58	H	0.121761	0.388080	0.590687
	H59	H	0.888256	0.398966	0.404770
	H60	H	0.115659	0.395996	0.578812
	H61	H	0.885219	0.587646	0.584954
	H62	H	0.121981	0.585135	0.392975
	H63	H	0.885958	0.400744	0.395831
	H64	H	0.401038	0.587775	0.115188
	H65	H	0.597319	0.580914	0.876624
	H66	H	0.585238	0.398539	0.107402
	H67	H	0.409805	0.403075	0.878516
	H68	H	0.596033	0.109071	0.395925
	H69	H	0.592448	0.873789	0.594373
	H70	H	0.409112	0.111400	0.599722
	H71	H	0.418328	0.873649	0.385385
	H72	H	0.907678	0.607677	0.086045
	H73	H	0.100456	0.372577	0.092535
	H74	H	0.105774	0.609296	0.902278
	H75	H	0.907389	0.375226	0.898959
	H76	H	0.105651	0.902737	0.612036
	H77	H	0.089415	0.073974	0.381088
	H78	H	0.908872	0.084075	0.611534
	H79	H	0.917812	0.894475	0.378104
	H80	H	0.621931	0.097829	0.905242
	H81	H	0.388001	0.083155	0.080398
	H82	H	0.620341	0.891452	0.085060
	H83	H	0.383783	0.900304	0.891321
	H84	H	0.616829	0.901184	0.082997
	H85	H	0.386154	0.080500	0.090346
	H86	H	0.613505	0.075458	0.912787
	H87	H	0.384047	0.886588	0.901865
	H88	H	0.909525	0.082875	0.610370
	H89	H	0.088463	0.091720	0.376583
	H90	H	0.087724	0.903586	0.606946
	H91	H	0.902060	0.891134	0.373675
	H92	H	0.092905	0.608907	0.891699
	H93	H	0.089878	0.376121	0.087629
	H94	H	0.907094	0.608610	0.087836
	H95	H	0.910555	0.375720	0.899411
	H96	H	0.418526	0.102723	0.581559
	H97	H	0.591529	0.878194	0.580480
	H98	H	0.591544	0.105757	0.403644
	H99	H	0.413972	0.881514	0.414545
	H100	H	0.600145	0.386713	0.115808
	H101	H	0.591818	0.581798	0.878061
	H102	H	0.410944	0.573592	0.107411
	H103	H	0.414615	0.393530	0.877031
	H104	H	0.119098	0.591460	0.407038
	H105	H	0.887045	0.582619	0.583912
	H106	H	0.118647	0.403192	0.592826
	H107	H	0.884545	0.392018	0.399574
	H108	H	0.909220	0.607237	0.087736
	H109	H	0.099617	0.376330	0.080172
	H110	H	0.090883	0.603212	0.907491
	H111	H	0.908926	0.375256	0.901872
	H112	H	0.094711	0.887724	0.614319
	H113	H	0.104268	0.082389	0.374950
	H114	H	0.910305	0.084032	0.611667
	H115	H	0.906570	0.906725	0.378561
	H116	H	0.621466	0.078858	0.889211
	H117	H	0.383853	0.090287	0.087568
	H118	H	0.620279	0.897847	0.092570
	H119	H	0.389658	0.902035	0.907858
	C120	C	0.380995	-0.000921	0.615242
	C121	C	0.624744	0.983167	0.616012
	C122	C	0.623993	-0.000554	0.372701
	C123	C	0.379880	0.982975	0.371260
	C124	C	0.624115	0.369120	0.002179
	C125	C	0.623583	0.611407	0.985526
	C126	C	0.381542	0.611622	0.002145
	C127	C	0.381512	0.369250	0.985630
	C128	C	0.010787	0.612420	0.372469
	C129	C	0.994198	0.612737	0.615242
	C130	C	0.010336	0.368284	0.615637
	C131	C	0.994369	0.368741	0.371950
	C132	C	0.880744	0.499324	0.115231
	C133	C	0.124704	0.483308	0.115444
	C134	C	0.124260	0.498802	0.872296
	C135	C	0.880549	0.483351	0.871633
	C136	C	0.123941	0.869379	0.502198
	C137	C	0.123194	0.111480	0.486123
	C138	C	0.881107	0.111823	0.502162
	C139	C	0.880825	0.869383	0.485926
	C140	C	0.510842	0.112399	0.873001
	C141	C	0.494393	0.112505	0.115098
	C142	C	0.510948	0.868854	0.115471
	C143	C	0.494408	0.868406	0.872550
	C144	C	0.385185	0.875570	0.669353
	C145	C	0.621506	0.106051	0.671274
	C146	C	0.620128	0.876008	0.318203
	C147	C	0.383267	0.106546	0.317247
	C148	C	0.678083	0.371885	0.878016
	C149	C	0.678315	0.608764	0.109491
	C150	C	0.326067	0.609164	0.878320
	C151	C	0.327555	0.372669	0.109813
	C152	C	0.887350	0.667684	0.374224
	C153	C	0.117397	0.667904	0.613509
	C154	C	0.887065	0.314023	0.612764
	C155	C	0.117302	0.312943	0.374479
	C156	C	0.886652	0.373180	0.669384
	C157	C	0.117724	0.609032	0.669617
	C158	C	0.886778	0.608458	0.318006
	C159	C	0.118340	0.372219	0.318142
	C160	C	0.383722	0.666246	0.878357
	C161	C	0.622004	0.666859	0.109038
	C162	C	0.620587	0.314386	0.878157
	C163	C	0.384531	0.314870	0.109759
	C164	C	0.678659	0.876219	0.375257
	C165	C	0.679515	0.105874	0.613459
	C166	C	0.327044	0.875507	0.611655
	C167	C	0.324255	0.105817	0.374074
	C168	C	0.885090	0.375816	0.169140
	C169	C	0.121039	0.606563	0.170043
	C170	C	0.120657	0.375572	0.817552
	C171	C	0.883257	0.606436	0.816374
	C172	C	0.178013	0.872032	0.378202
	C173	C	0.178629	0.108925	0.610089
	C174	C	0.825555	0.109641	0.378375
	C175	C	0.826244	0.872061	0.609591
	C176	C	0.387938	0.167392	0.874484
	C177	C	0.617458	0.167668	0.113752
	C178	C	0.387989	0.814172	0.112745
	C179	C	0.617625	0.812947	0.874709
	C180	C	0.387343	0.872949	0.169262
	C181	C	0.617944	0.108526	0.169873
	C182	C	0.387420	0.108548	0.818213
	C183	C	0.617874	0.871868	0.818246
	C184	C	0.882454	0.167396	0.378825
	C185	C	0.121455	0.166670	0.609762
	C186	C	0.121132	0.814229	0.378451
	C187	C	0.884157	0.814865	0.609676
	C188	C	0.179225	0.375796	0.874582
	C189	C	0.179767	0.606017	0.113315
	C190	C	0.826025	0.376204	0.112717
	C191	C	0.824683	0.606130	0.873755
	C192	C	0.401924	0.085063	0.593761
	C193	C	0.602640	0.897215	0.593464
	C194	C	0.602224	0.085345	0.394569
	C195	C	0.401372	0.897148	0.392878
	C196	C	0.602704	0.390902	0.088598
	C197	C	0.601173	0.589399	0.898963
	C198	C	0.403873	0.590147	0.088804
	C199	C	0.402985	0.390751	0.899191
	C200	C	0.096505	0.590843	0.394793
	C201	C	0.908104	0.591207	0.592570
	C202	C	0.096494	0.389582	0.593910
	C203	C	0.908480	0.390762	0.393588
	C204	C	0.901858	0.585553	0.093737
	C205	C	0.103026	0.397302	0.093292
	C206	C	0.102772	0.584766	0.894038
	C207	C	0.902365	0.397664	0.893794
	C208	C	0.102375	0.891390	0.588794
	C209	C	0.100741	0.089244	0.399949
	C210	C	0.903240	0.090082	0.588887
	C211	C	0.902493	0.891036	0.399112
	C212	C	0.596779	0.090316	0.895674
	C213	C	0.408256	0.090929	0.092572
	C214	C	0.597013	0.890414	0.093340
	C215	C	0.408105	0.889884	0.894038
	Zn216	Zn	0.502479	-0.009241	0.744548
	Zn217	Zn	0.502547	-0.008493	0.243231
	Zn218	Zn	0.751980	0.490782	-0.006261
	Zn219	Zn	0.253149	0.490639	-0.006155
	Zn220	Zn	0.002598	0.741341	0.493738
	Zn221	Zn	0.002033	0.239812	0.493889
	Zn222	Zn	0.002617	0.491142	0.743447
	Zn223	Zn	0.002719	0.490988	0.243927
	Zn224	Zn	0.502850	0.739849	-0.005879
	Zn225	Zn	0.502699	0.241016	-0.005846
	Zn226	Zn	0.752992	-0.009051	0.493767
	Zn227	Zn	0.251605	-0.009378	0.493831
	N228	N	0.417916	0.953209	0.671630
	N229	N	0.588159	0.028571	0.672895
	N230	N	0.586551	0.953435	0.316787
	N231	N	0.417027	0.029337	0.315213
	N232	N	0.680372	0.405249	0.955988
	N233	N	0.679368	0.574955	0.031705
	N234	N	0.324710	0.575823	0.956350
	N235	N	0.325528	0.405743	0.031793
	N236	N	0.965135	0.670199	0.407539
	N237	N	0.039429	0.670397	0.580340
	N238	N	0.964983	0.310709	0.580447
	N239	N	0.039305	0.310705	0.407102
	N240	N	0.964419	0.406199	0.671096
	N241	N	0.040392	0.575430	0.670609
	N242	N	0.964458	0.574931	0.316683
	N243	N	0.041065	0.406133	0.316392
	N244	N	0.417471	0.667915	0.956338
	N245	N	0.588484	0.668439	0.030952
	N246	N	0.587729	0.312676	0.956273
	N247	N	0.417346	0.312602	0.031560
	N248	N	0.681041	0.953994	0.408379
	N249	N	0.681527	0.028378	0.580040
	N250	N	0.324454	0.953138	0.578627
	N251	N	0.322225	0.028174	0.407111
	N252	N	0.918353	0.453310	0.170744
	N253	N	0.087332	0.529285	0.171530
	N254	N	0.087435	0.453161	0.815912
	N255	N	0.917208	0.529267	0.815006
	N256	N	0.179765	0.905717	0.456107
	N257	N	0.179784	0.075089	0.532238
	N258	N	0.824374	0.076014	0.456187
	N259	N	0.824374	0.905290	0.531506
	N260	N	0.465729	0.169857	0.907895
	N261	N	0.539654	0.170077	0.080435
	N262	N	0.465944	0.811406	0.080194
	N263	N	0.539914	0.810851	0.907954
	N264	N	0.464844	0.906309	0.170985
	N265	N	0.540370	0.075195	0.170952
	N266	N	0.464960	0.075105	0.817201
	N267	N	0.540417	0.905629	0.816894
	N268	N	0.916301	0.168756	0.456850
	N269	N	0.087648	0.168238	0.531819
	N270	N	0.088182	0.812647	0.456588
	N271	N	0.917301	0.813095	0.531594
	N272	N	0.181470	0.453318	0.908040
	N273	N	0.182110	0.528262	0.080172
	N274	N	0.823502	0.453854	0.079840
	N275	N	0.822926	0.528639	0.907503
	O276	O	1.054720	0.090871	1.036731
	H277	H	1.060488	0.084268	1.044303
	H278	H	1.049814	0.102016	1.040506
	O279	O	0.034956	1.086312	0.997267
	H280	H	0.041314	1.090711	0.996476
	H281	H	0.038979	1.087396	1.007360
	O282	O	1.030658	1.089921	0.042118
	H283	H	1.021487	1.086631	0.039490
	H284	H	1.029986	1.094657	0.034188
	O285	O	0.014778	1.084807	1.002197
	H286	H	0.015006	1.087723	1.001117
	H287	H	0.017218	1.084248	0.992930
