data_Molecule from HDF5

_cell_length_a		16.249910
_cell_length_b		16.333955
_cell_length_c		16.188293
_cell_angle_alpha	89.657059
_cell_angle_beta	89.739956
_cell_angle_gamma	89.593834
_symmetry_space_group_name_H-M	'P 1'
_symmetry_Int_Tables_number		1

loop_
	_symmetry_equiv_pos_as_xyz
	x,y,z

loop_
	_atom_site_label
	_atom_site_type_symbol
	_atom_site_fract_x
	_atom_site_fract_y
	_atom_site_fract_z
	H0	H	0.403872	0.839510	0.718561
	H1	H	0.601627	0.165117	0.716939
	H2	H	0.606801	0.840152	0.284637
	H3	H	0.402751	0.164548	0.283997
	H4	H	0.718086	0.400033	0.838016
	H5	H	0.713391	0.600138	0.164438
	H6	H	0.283867	0.603790	0.837528
	H7	H	0.284764	0.402720	0.165514
	H8	H	0.840595	0.724021	0.399429
	H9	H	0.165603	0.715152	0.602355
	H10	H	0.839275	0.283982	0.605027
	H11	H	0.164189	0.286575	0.398193
	H12	H	0.836829	0.403519	0.717219
	H13	H	0.163021	0.600914	0.716737
	H14	H	0.836488	0.604824	0.287249
	H15	H	0.163480	0.403512	0.283499
	H16	H	0.396936	0.721505	0.838340
	H17	H	0.599462	0.716363	0.164464
	H18	H	0.601238	0.286131	0.837279
	H19	H	0.396223	0.283494	0.163119
	H20	H	0.722964	0.841069	0.399970
	H21	H	0.717351	0.166453	0.599927
	H22	H	0.286570	0.840269	0.605107
	H23	H	0.285470	0.164151	0.399175
	H24	H	0.899538	0.339918	0.218968
	H25	H	0.095598	0.665496	0.212513
	H26	H	0.100921	0.340424	0.784838
	H27	H	0.898101	0.665353	0.783719
	H28	H	0.219291	0.904845	0.336504
	H29	H	0.215741	0.099090	0.665588
	H30	H	0.786638	0.105925	0.336847
	H31	H	0.787293	0.903031	0.664351
	H32	H	0.336774	0.219133	0.900501
	H33	H	0.663163	0.218828	0.100664
	H34	H	0.337867	0.787888	0.104119
	H35	H	0.662844	0.782859	0.899045
	H36	H	0.338909	0.903396	0.218306
	H37	H	0.666083	0.099271	0.212103
	H38	H	0.337513	0.102070	0.785710
	H39	H	0.665989	0.903103	0.787709
	H40	H	0.901130	0.220721	0.337184
	H41	H	0.102532	0.217142	0.664689
	H42	H	0.105927	0.786842	0.336721
	H43	H	0.902977	0.787099	0.664678
	H44	H	0.217946	0.340479	0.900576
	H45	H	0.214473	0.663821	0.102129
	H46	H	0.784918	0.338853	0.102490
	H47	H	0.780843	0.664545	0.898989
	H48	H	0.411927	0.119148	0.599869
	H49	H	0.593750	0.890862	0.586516
	H50	H	0.597147	0.117012	0.413497
	H51	H	0.408563	0.883976	0.404969
	H52	H	0.589511	0.403001	0.119072
	H53	H	0.591265	0.592335	0.884530
	H54	H	0.406050	0.591202	0.117632
	H55	H	0.401999	0.414206	0.882609
	H56	H	0.115709	0.586356	0.408188
	H57	H	0.883577	0.603502	0.587298
	H58	H	0.115488	0.408066	0.586384
	H59	H	0.883567	0.412791	0.406080
	H60	H	0.114450	0.416391	0.591948
	H61	H	0.887647	0.591839	0.587825
	H62	H	0.120616	0.595769	0.397327
	H63	H	0.884307	0.406264	0.413396
	H64	H	0.409197	0.596417	0.118142
	H65	H	0.587198	0.591622	0.885645
	H66	H	0.595322	0.412272	0.118614
	H67	H	0.414123	0.416375	0.887500
	H68	H	0.599009	0.120674	0.401898
	H69	H	0.604461	0.885280	0.593647
	H70	H	0.414537	0.114015	0.586872
	H71	H	0.418661	0.887932	0.408965
	H72	H	0.896456	0.620999	0.092178
	H73	H	0.092358	0.389352	0.082024
	H74	H	0.087613	0.617534	0.906902
	H75	H	0.908183	0.388935	0.917564
	H76	H	0.102161	0.912851	0.617992
	H77	H	0.087320	0.092321	0.387591
	H78	H	0.902930	0.091943	0.619195
	H79	H	0.921115	0.915595	0.386893
	H80	H	0.616559	0.100784	0.916380
	H81	H	0.386906	0.088814	0.090735
	H82	H	0.615952	0.909024	0.086069
	H83	H	0.386374	0.913899	0.913979
	H84	H	0.619449	0.910896	0.097352
	H85	H	0.383588	0.094230	0.099191
	H86	H	0.614626	0.086763	0.909889
	H87	H	0.384545	0.913804	0.907159
	H88	H	0.916118	0.087790	0.612785
	H89	H	0.095924	0.103832	0.380808
	H90	H	0.087681	0.911746	0.614214
	H91	H	0.912195	0.905982	0.381807
	H92	H	0.091749	0.616778	0.912312
	H93	H	0.100847	0.382275	0.098143
	H94	H	0.908006	0.618734	0.100354
	H95	H	0.902626	0.384095	0.905910
	H96	H	0.401761	0.119563	0.590218
	H97	H	0.592152	0.886565	0.599485
	H98	H	0.588027	0.116647	0.405077
	H99	H	0.409907	0.887538	0.415628
	H100	H	0.585460	0.411715	0.114980
	H101	H	0.587528	0.595918	0.883942
	H102	H	0.403461	0.595743	0.119251
	H103	H	0.410716	0.404544	0.882465
	H104	H	0.118737	0.600860	0.411124
	H105	H	0.882058	0.596249	0.598703
	H106	H	0.117985	0.407537	0.595597
	H107	H	0.887287	0.415236	0.414572
	H108	H	0.907718	0.614657	0.086339
	H109	H	0.082359	0.387052	0.098289
	H110	H	0.094644	0.619918	0.906470
	H111	H	0.915611	0.388465	0.905950
	H112	H	0.095332	0.900340	0.620447
	H113	H	0.102140	0.089949	0.383347
	H114	H	0.914081	0.101551	0.618976
	H115	H	0.908289	0.918230	0.384060
	H116	H	0.620853	0.098395	0.900583
	H117	H	0.384025	0.099175	0.089822
	H118	H	0.620330	0.899776	0.092781
	H119	H	0.383538	0.908645	0.910771
	C120	C	0.380596	0.010415	0.623046
	C121	C	0.624976	0.995023	0.622593
	C122	C	0.625976	0.011249	0.377584
	C123	C	0.382078	0.993823	0.379874
	C124	C	0.620876	0.379659	0.009688
	C125	C	0.618868	0.622132	0.992617
	C126	C	0.376718	0.624906	0.010293
	C127	C	0.378718	0.381353	0.992239
	C128	C	0.010233	0.625280	0.377612
	C129	C	0.992552	0.624262	0.621404
	C130	C	0.009035	0.380539	0.622752
	C131	C	0.992458	0.381915	0.379862
	C132	C	0.875737	0.510672	0.123687
	C133	C	0.120054	0.493557	0.121702
	C134	C	0.121617	0.511233	0.879019
	C135	C	0.877771	0.494239	0.879340
	C136	C	0.125407	0.880057	0.509457
	C137	C	0.124160	0.123969	0.492384
	C138	C	0.880957	0.124653	0.508884
	C139	C	0.883509	0.882897	0.492467
	C140	C	0.509307	0.124496	0.879310
	C141	C	0.492860	0.122960	0.121792
	C142	C	0.510380	0.878970	0.123090
	C143	C	0.492584	0.881401	0.880734
	C144	C	0.382883	0.888217	0.680312
	C145	C	0.621829	0.116944	0.678676
	C146	C	0.626392	0.889009	0.322152
	C147	C	0.383209	0.115996	0.322864
	C148	C	0.678732	0.380776	0.886692
	C149	C	0.675449	0.620304	0.115630
	C150	C	0.321132	0.624071	0.886847
	C151	C	0.322718	0.382727	0.116206
	C152	C	0.888319	0.684089	0.379839
	C153	C	0.116111	0.678048	0.621383
	C154	C	0.887293	0.323166	0.623722
	C155	C	0.115401	0.325260	0.379171
	C156	C	0.886027	0.382503	0.679651
	C157	C	0.114816	0.621161	0.678620
	C158	C	0.886434	0.624863	0.323773
	C159	C	0.114978	0.383452	0.322136
	C160	C	0.377534	0.682627	0.887364
	C161	C	0.618703	0.678147	0.115660
	C162	C	0.620590	0.324144	0.886276
	C163	C	0.378021	0.323272	0.114938
	C164	C	0.684296	0.889513	0.379378
	C165	C	0.679479	0.117529	0.620425
	C166	C	0.324669	0.888606	0.623692
	C167	C	0.324809	0.115864	0.380236
	C168	C	0.879198	0.388333	0.180572
	C169	C	0.116651	0.616527	0.176019
	C170	C	0.120835	0.388910	0.823050
	C171	C	0.878083	0.616683	0.822438
	C172	C	0.181702	0.883296	0.385640
	C173	C	0.178762	0.120462	0.615997
	C174	C	0.824708	0.124897	0.385840
	C175	C	0.826054	0.883675	0.615412
	C176	C	0.386143	0.181051	0.880092
	C177	C	0.614903	0.179705	0.119989
	C178	C	0.387122	0.825177	0.123087
	C179	C	0.614745	0.822672	0.880352
	C180	C	0.387754	0.882645	0.180185
	C181	C	0.616455	0.120394	0.175659
	C182	C	0.386249	0.122606	0.823425
	C183	C	0.616392	0.882556	0.825181
	C184	C	0.881745	0.181922	0.386123
	C185	C	0.121886	0.178824	0.615722
	C186	C	0.125346	0.824795	0.385878
	C187	C	0.883583	0.825785	0.615552
	C188	C	0.179286	0.389108	0.880315
	C189	C	0.175650	0.615751	0.120727
	C190	C	0.821822	0.387888	0.122590
	C191	C	0.819689	0.616074	0.879803
	C192	C	0.402932	0.095472	0.599242
	C193	C	0.603113	0.909649	0.599985
	C194	C	0.601796	0.096236	0.400326
	C195	C	0.405727	0.908621	0.403238
	C196	C	0.596996	0.402360	0.095368
	C197	C	0.595614	0.599694	0.906859
	C198	C	0.399531	0.601328	0.096129
	C199	C	0.402164	0.404803	0.906473
	C200	C	0.095853	0.601394	0.399373
	C201	C	0.906974	0.603444	0.598106
	C202	C	0.094028	0.403960	0.598389
	C203	C	0.907129	0.404798	0.404298
	C204	C	0.897552	0.596063	0.099963
	C205	C	0.098178	0.408433	0.099291
	C206	C	0.098074	0.596115	0.901815
	C207	C	0.901793	0.409222	0.902902
	C208	C	0.102005	0.901845	0.595359
	C209	C	0.101699	0.101982	0.406234
	C210	C	0.904149	0.100697	0.594841
	C211	C	0.907094	0.906440	0.406495
	C212	C	0.595094	0.101987	0.902116
	C213	C	0.406961	0.100508	0.099701
	C214	C	0.596328	0.900270	0.099183
	C215	C	0.407123	0.905176	0.903831
	Zn216	Zn	0.501571	0.002501	0.751376
	Zn217	Zn	0.503221	0.001122	0.250218
	Zn218	Zn	0.748350	0.501598	0.000990
	Zn219	Zn	0.250018	0.502329	0.001710
	Zn220	Zn	0.003593	0.752528	0.500580
	Zn221	Zn	0.001782	0.252402	0.500735
	Zn222	Zn	-0.000277	0.503100	0.749998
	Zn223	Zn	-0.000745	0.502750	0.250359
	Zn224	Zn	0.499529	0.751694	0.001144
	Zn225	Zn	0.499625	0.252470	0.000864
	Zn226	Zn	0.753834	0.003856	0.500149
	Zn227	Zn	0.252593	0.001921	0.501336
	N228	N	0.416964	0.964992	0.680089
	N229	N	0.588478	0.039707	0.680032
	N230	N	0.590779	0.965616	0.320952
	N231	N	0.418158	0.038962	0.322493
	N232	N	0.679243	0.414365	0.964329
	N233	N	0.675793	0.586199	0.038077
	N234	N	0.320701	0.588687	0.964176
	N235	N	0.322899	0.418248	0.038804
	N236	N	0.966398	0.684714	0.412313
	N237	N	0.039155	0.680267	0.586459
	N238	N	0.964673	0.321796	0.589185
	N239	N	0.038217	0.324130	0.414274
	N240	N	0.962745	0.417480	0.679205
	N241	N	0.036973	0.588403	0.678827
	N242	N	0.963215	0.588873	0.322437
	N243	N	0.037563	0.417942	0.322585
	N244	N	0.411112	0.683497	0.965250
	N245	N	0.584238	0.679355	0.038194
	N246	N	0.585487	0.323273	0.963836
	N247	N	0.412221	0.322552	0.037220
	N248	N	0.684284	0.966609	0.413075
	N249	N	0.681472	0.040696	0.586158
	N250	N	0.323067	0.965739	0.588982
	N251	N	0.324162	0.038956	0.414986
	N252	N	0.911919	0.465995	0.181526
	N253	N	0.082549	0.539682	0.176591
	N254	N	0.085916	0.465858	0.821872
	N255	N	0.913357	0.540052	0.822016
	N256	N	0.182152	0.916356	0.463526
	N257	N	0.180276	0.087128	0.538195
	N258	N	0.824047	0.089931	0.463482
	N259	N	0.825863	0.918358	0.537827
	N260	N	0.463579	0.182488	0.913703
	N261	N	0.536913	0.181367	0.087249
	N262	N	0.464513	0.822793	0.088227
	N263	N	0.536805	0.821770	0.913995
	N264	N	0.465531	0.915236	0.180386
	N265	N	0.539515	0.085695	0.176835
	N266	N	0.463894	0.088226	0.822544
	N267	N	0.539430	0.918370	0.825040
	N268	N	0.916164	0.181589	0.463599
	N269	N	0.088919	0.181293	0.537600
	N270	N	0.091123	0.822429	0.463849
	N271	N	0.918399	0.824981	0.537856
	N272	N	0.179939	0.465879	0.914448
	N273	N	0.177914	0.538407	0.087684
	N274	N	0.819845	0.464797	0.087901
	N275	N	0.819431	0.538767	0.914384
	O276	O	0.630681	-0.515436	1.333190
	H277	H	0.631646	-0.504524	1.325700
	H278	H	0.635894	-0.521965	1.331591
	O279	O	0.556879	0.568237	0.508926
	H280	H	0.556552	0.571710	0.503413
	H281	H	0.563291	0.564158	0.504141
	O282	O	0.447195	0.343286	0.557177
	H283	H	0.442440	0.330381	0.567241
	H284	H	0.450797	0.362933	0.576395
	O285	O	0.649126	0.509854	0.560809
	H286	H	0.653565	0.506878	0.554355
	H287	H	0.643271	0.509829	0.550327
	O288	O	0.367301	0.568715	0.451510
	H289	H	0.369555	0.564019	0.449435
	H290	H	0.351045	0.576090	0.449107
	O291	O	0.040335	-0.054141	0.934681
	H292	H	0.038901	-0.056477	0.942188
	H293	H	0.045271	-0.047487	0.938469
	O294	O	0.930789	0.978003	0.050708
	H295	H	0.916575	0.975740	0.038579
	H296	H	0.929409	0.966243	0.055392
	O297	O	0.964222	1.075888	-0.023418
	H298	H	0.956588	1.068789	-0.026907
	H299	H	0.967950	1.067434	-0.023710
	O300	O	0.489831	0.471082	0.664665
	H301	H	0.493251	0.482375	0.660370
	H302	H	0.485148	0.484027	0.673014
	O303	O	0.404053	0.614052	0.362153
	H304	H	0.392215	0.620376	0.362578
	H305	H	0.393016	0.617361	0.362435
	O306	O	0.492778	0.608947	0.375897
	H307	H	0.484320	0.622216	0.359277
	H308	H	0.504813	0.593032	0.383960
	O309	O	0.602080	0.543304	0.556934
	H310	H	0.604892	0.545318	0.553163
	H311	H	0.609347	0.544347	0.557588
	O312	O	0.873342	0.959676	0.938620
	H313	H	0.865261	0.967978	0.936521
	H314	H	0.872739	0.959855	0.943709
	O315	O	0.986648	0.927963	-0.111723
	H316	H	0.996664	0.922366	-0.112731
	H317	H	0.993686	0.920592	-0.113419
	O318	O	0.433510	0.645977	0.493735
	H319	H	0.438152	0.643899	0.492848
	H320	H	0.431810	0.644625	0.484556
	O321	O	0.413657	0.454065	0.465721
	H322	H	0.415860	0.441726	0.477180
	H323	H	0.424100	0.441887	0.462156
	O324	O	0.020613	1.155339	0.998846
	H325	H	0.031784	1.151573	0.995027
	H326	H	0.015522	1.155741	0.990950
	O327	O	-0.021190	0.928966	1.019745
	H328	H	-0.024537	0.924976	1.015867
	H329	H	-0.008693	0.931724	1.024121
	O330	O	-0.061934	-0.071892	0.091569
	H331	H	-0.056808	-0.075485	0.088529
	H332	H	-0.063969	-0.060894	0.084337
	O333	O	0.443958	0.468840	0.476644
	H334	H	0.443571	0.468022	0.467105
	H335	H	0.443374	0.469209	0.474858
	O336	O	-0.054530	0.102506	-0.039836
	H337	H	-0.039695	0.093449	-0.035626
	H338	H	-0.063920	0.111459	-0.046243
	O339	O	0.048407	0.000212	0.158703
	H340	H	0.048991	-0.006530	0.156215
	H341	H	0.045929	-0.002636	0.174039
	O342	O	0.592418	0.594974	0.654122
	H343	H	0.596667	0.605938	0.668931
	H344	H	0.581315	0.606595	0.647042
	O345	O	0.124135	0.884593	1.006346
	H346	H	0.126748	0.883912	0.996692
	H347	H	0.126249	0.881945	1.024591
	O348	O	0.509568	0.441713	0.452734
	H349	H	0.520051	0.430509	0.453379
	H350	H	0.502651	0.446565	0.454408
	O351	O	0.623950	0.332965	0.374578
	H352	H	0.636323	0.324004	0.368845
	H353	H	0.626535	0.323474	0.376309
	O354	O	-0.064312	1.094362	-0.022372
	H355	H	-0.080288	1.099623	-0.025204
	H356	H	-0.053449	1.094081	-0.032650
	O357	O	0.427971	0.395048	0.632662
	H358	H	0.417587	0.398313	0.646324
	H359	H	0.435419	0.386601	0.644004
	O360	O	1.002865	0.151752	0.929543
	H361	H	1.002043	0.154029	0.917232
	H362	H	0.995267	0.142172	0.932544
	O363	O	0.403930	0.645567	0.500607
	H364	H	0.407928	0.636682	0.478322
	H365	H	0.391121	0.651627	0.512490
	O366	O	0.334330	0.371733	0.517570
	H367	H	0.345370	0.361003	0.530325
	H368	H	0.340128	0.362947	0.519891
	O369	O	0.917194	0.016252	0.041684
	H370	H	0.915064	0.022594	0.037830
	H371	H	0.906423	0.013168	0.050578
	O372	O	0.516632	0.441600	0.446090
	H373	H	0.520331	0.443447	0.441013
	H374	H	0.517106	0.447075	0.440048
	O375	O	1.086255	-0.036354	0.906197
	H376	H	1.093294	-0.041984	0.902586
	H377	H	1.090562	-0.032955	0.909838
	O378	O	-0.349842	1.502225	-0.564898
	H379	H	-0.353345	1.488780	-0.556209
	H380	H	-0.352682	1.490057	-0.559723
	O381	O	0.539744	0.515467	0.609205
	H382	H	0.531854	0.510456	0.600245
	H383	H	0.540479	0.519329	0.614582
	O384	O	1.079365	0.983634	0.001326
	H385	H	1.082363	0.982528	0.000413
	H386	H	1.073716	0.986665	0.007571
	O387	O	0.966309	-0.121996	1.043958
	H388	H	0.957786	-0.125141	1.040559
	H389	H	0.962918	-0.127032	1.055362
	O390	O	1.111454	0.997532	-0.015993
	H391	H	1.098300	1.008175	-0.015983
	H392	H	1.119115	1.002923	-0.004785
	O393	O	0.510746	0.531296	0.574811
	H394	H	0.519957	0.524798	0.581325
	H395	H	0.502835	0.536825	0.579394
