data_Molecule from HDF5

_cell_length_a		16.286640
_cell_length_b		16.191378
_cell_length_c		16.302249
_cell_angle_alpha	89.953362
_cell_angle_beta	89.869015
_cell_angle_gamma	90.196530
_symmetry_space_group_name_H-M	'P 1'
_symmetry_Int_Tables_number		1

loop_
	_symmetry_equiv_pos_as_xyz
	x,y,z

loop_
	_atom_site_label
	_atom_site_type_symbol
	_atom_site_fract_x
	_atom_site_fract_y
	_atom_site_fract_z
	H0	H	0.406303	0.842003	0.715399
	H1	H	0.604368	0.171238	0.715994
	H2	H	0.603585	0.841700	0.289403
	H3	H	0.407968	0.170942	0.288318
	H4	H	0.721250	0.408217	0.839170
	H5	H	0.722419	0.607337	0.165149
	H6	H	0.292039	0.604228	0.838210
	H7	H	0.290433	0.406371	0.166202
	H8	H	0.841668	0.719558	0.405830
	H9	H	0.169810	0.720274	0.599227
	H10	H	0.842541	0.292529	0.600854
	H11	H	0.170876	0.295389	0.405738
	H12	H	0.843074	0.407279	0.717945
	H13	H	0.170000	0.606034	0.716701
	H14	H	0.842858	0.605981	0.287601
	H15	H	0.169897	0.408491	0.288386
	H16	H	0.409329	0.719251	0.837906
	H17	H	0.604139	0.721230	0.165994
	H18	H	0.603799	0.292982	0.838603
	H19	H	0.408439	0.292305	0.166609
	H20	H	0.719651	0.841743	0.404996
	H21	H	0.719370	0.172056	0.599873
	H22	H	0.290901	0.842707	0.600737
	H23	H	0.294360	0.171637	0.405655
	H24	H	0.907070	0.341813	0.217242
	H25	H	0.104903	0.671205	0.215867
	H26	H	0.104620	0.342404	0.787931
	H27	H	0.908712	0.670589	0.788780
	H28	H	0.219669	0.909906	0.339562
	H29	H	0.221232	0.106136	0.666371
	H30	H	0.791995	0.105901	0.339121
	H31	H	0.789899	0.907521	0.666523
	H32	H	0.341980	0.218641	0.905983
	H33	H	0.669705	0.220321	0.099786
	H34	H	0.341691	0.791801	0.099978
	H35	H	0.669975	0.794180	0.904906
	H36	H	0.341908	0.906286	0.217923
	H37	H	0.669027	0.105985	0.217085
	H38	H	0.343049	0.105480	0.787602
	H39	H	0.669227	0.907045	0.786524
	H40	H	0.910036	0.220721	0.338539
	H41	H	0.103079	0.220788	0.667322
	H42	H	0.102999	0.794118	0.339192
	H43	H	0.907445	0.792384	0.667238
	H44	H	0.218009	0.341259	0.905229
	H45	H	0.220802	0.670774	0.100267
	H46	H	0.790093	0.341988	0.102571
	H47	H	0.793639	0.670889	0.904299
	H48	H	0.418542	0.125035	0.602039
	H49	H	0.597546	0.888451	0.598597
	H50	H	0.591616	0.123047	0.402051
	H51	H	0.407465	0.886093	0.404385
	H52	H	0.603123	0.414623	0.120111
	H53	H	0.601847	0.595571	0.887177
	H54	H	0.400477	0.598333	0.122251
	H55	H	0.407536	0.408230	0.883199
	H56	H	0.120600	0.595484	0.409694
	H57	H	0.887764	0.603856	0.598648
	H58	H	0.124713	0.413888	0.600595
	H59	H	0.888935	0.402793	0.415058
	H60	H	0.123673	0.410406	0.593193
	H61	H	0.890859	0.599033	0.591024
	H62	H	0.124838	0.601341	0.402578
	H63	H	0.893062	0.423113	0.415135
	H64	H	0.418501	0.587060	0.112714
	H65	H	0.596037	0.601888	0.886655
	H66	H	0.596272	0.418167	0.116644
	H67	H	0.410103	0.418436	0.887252
	H68	H	0.598269	0.120208	0.418695
	H69	H	0.595973	0.891043	0.592757
	H70	H	0.416256	0.120987	0.588749
	H71	H	0.418920	0.890101	0.407293
	H72	H	0.925263	0.617913	0.088806
	H73	H	0.089594	0.393123	0.090943
	H74	H	0.107592	0.625158	0.913096
	H75	H	0.919891	0.390719	0.908037
	H76	H	0.092164	0.918370	0.617116
	H77	H	0.110566	0.108551	0.382013
	H78	H	0.910654	0.101057	0.620110
	H79	H	0.908960	0.916020	0.386243
	H80	H	0.623125	0.102610	0.911344
	H81	H	0.393586	0.089587	0.089758
	H82	H	0.620756	0.911696	0.088497
	H83	H	0.393029	0.915428	0.919465
	H84	H	0.619808	0.922259	0.097459
	H85	H	0.385867	0.096872	0.109547
	H86	H	0.620367	0.095924	0.909838
	H87	H	0.388828	0.921195	0.899995
	H88	H	0.911603	0.098591	0.618775
	H89	H	0.103655	0.089617	0.389125
	H90	H	0.098166	0.904338	0.622418
	H91	H	0.915443	0.915982	0.388916
	H92	H	0.099071	0.626390	0.900820
	H93	H	0.107935	0.388082	0.090128
	H94	H	0.902768	0.623761	0.088524
	H95	H	0.911064	0.390223	0.916222
	H96	H	0.405670	0.126778	0.596732
	H97	H	0.602636	0.888726	0.593839
	H98	H	0.608856	0.127584	0.406290
	H99	H	0.409411	0.891015	0.416170
	H100	H	0.596308	0.410135	0.119328
	H101	H	0.604411	0.603616	0.883935
	H102	H	0.420665	0.609652	0.119353
	H103	H	0.418179	0.410109	0.886873
	H104	H	0.123053	0.605293	0.411847
	H105	H	0.889814	0.594140	0.600300
	H106	H	0.121743	0.418762	0.594826
	H107	H	0.886659	0.414235	0.398123
	H108	H	0.914785	0.627199	0.108078
	H109	H	0.098124	0.385909	0.106365
	H110	H	0.093197	0.621027	0.912984
	H111	H	0.908811	0.385963	0.905414
	H112	H	0.107318	0.917541	0.620644
	H113	H	0.090200	0.105881	0.387822
	H114	H	0.913228	0.100773	0.619190
	H115	H	0.912830	0.910359	0.385813
	H116	H	0.624604	0.100047	0.904745
	H117	H	0.387531	0.111138	0.092320
	H118	H	0.624472	0.910053	0.100685
	H119	H	0.384565	0.901778	0.905430
	C120	C	0.384425	0.015432	0.624198
	C121	C	0.627233	0.998436	0.623368
	C122	C	0.627415	0.014870	0.381009
	C123	C	0.384521	0.998151	0.381307
	C124	C	0.627167	0.385312	0.010628
	C125	C	0.628579	0.629081	0.993996
	C126	C	0.384767	0.627236	0.009855
	C127	C	0.383535	0.383941	0.994100
	C128	C	0.014356	0.628988	0.380310
	C129	C	0.997752	0.627598	0.624191
	C130	C	0.014958	0.385533	0.624445
	C131	C	0.998090	0.385498	0.381067
	C132	C	0.884876	0.514570	0.123995
	C133	C	0.127296	0.497779	0.123884
	C134	C	0.127879	0.515258	0.880812
	C135	C	0.885193	0.497426	0.881011
	C136	C	0.127654	0.885376	0.511868
	C137	C	0.128430	0.129488	0.494729
	C138	C	0.884438	0.128664	0.511110
	C139	C	0.883514	0.884769	0.494857
	C140	C	0.514599	0.127913	0.880837
	C141	C	0.497278	0.127983	0.124741
	C142	C	0.513680	0.884722	0.124404
	C143	C	0.497392	0.884888	0.880147
	C144	C	0.386308	0.891472	0.678462
	C145	C	0.624451	0.122254	0.678032
	C146	C	0.624318	0.890787	0.326743
	C147	C	0.387915	0.122053	0.326524
	C148	C	0.682685	0.387984	0.887653
	C149	C	0.684047	0.627240	0.116440
	C150	C	0.329834	0.624820	0.887122
	C151	C	0.328608	0.386531	0.117418
	C152	C	0.890936	0.682794	0.384258
	C153	C	0.121098	0.682467	0.620304
	C154	C	0.891583	0.330210	0.621678
	C155	C	0.121648	0.332099	0.384574
	C156	C	0.891751	0.387485	0.679695
	C157	C	0.120996	0.626044	0.678968
	C158	C	0.891491	0.626114	0.325628
	C159	C	0.121060	0.388361	0.326076
	C160	C	0.388374	0.681817	0.886801
	C161	C	0.625365	0.683931	0.116901
	C162	C	0.624473	0.330575	0.887414
	C163	C	0.387314	0.329945	0.117716
	C164	C	0.682110	0.890852	0.383961
	C165	C	0.681867	0.122654	0.620630
	C166	C	0.328943	0.891703	0.621187
	C167	C	0.331394	0.122428	0.384798
	C168	C	0.886509	0.390782	0.179430
	C169	C	0.124924	0.622021	0.178111
	C170	C	0.124700	0.391314	0.826059
	C171	C	0.888169	0.621641	0.826612
	C172	C	0.181709	0.889206	0.388250
	C173	C	0.182841	0.126656	0.617903
	C174	C	0.830228	0.126012	0.387643
	C175	C	0.828245	0.887274	0.618002
	C176	C	0.390998	0.182044	0.884621
	C177	C	0.620783	0.182822	0.120794
	C178	C	0.390512	0.829500	0.121160
	C179	C	0.620833	0.830998	0.883538
	C180	C	0.390761	0.885959	0.179950
	C181	C	0.620495	0.125914	0.178896
	C182	C	0.391541	0.125390	0.825902
	C183	C	0.620380	0.887074	0.824668
	C184	C	0.888660	0.183191	0.387457
	C185	C	0.124204	0.183532	0.618348
	C186	C	0.123990	0.831532	0.388203
	C187	C	0.886605	0.830081	0.618320
	C188	C	0.181133	0.390691	0.884230
	C189	C	0.182705	0.621799	0.120985
	C190	C	0.828219	0.391092	0.122654
	C191	C	0.831066	0.621736	0.883987
	C192	C	0.406966	0.101965	0.602305
	C193	C	0.605231	0.911690	0.601408
	C194	C	0.605983	0.101255	0.402629
	C195	C	0.405656	0.911364	0.403083
	C196	C	0.605012	0.407583	0.096298
	C197	C	0.607047	0.606846	0.907976
	C198	C	0.406830	0.604845	0.095950
	C199	C	0.405347	0.406020	0.908038
	C200	C	0.100719	0.607221	0.401759
	C201	C	0.911614	0.605514	0.602973
	C202	C	0.101070	0.407721	0.602632
	C203	C	0.911769	0.407135	0.402968
	C204	C	0.907502	0.600621	0.101608
	C205	C	0.105222	0.411468	0.102236
	C206	C	0.106423	0.601694	0.902666
	C207	C	0.906760	0.411245	0.903416
	C208	C	0.105806	0.906908	0.597859
	C209	C	0.107512	0.107960	0.408552
	C210	C	0.905594	0.106649	0.597108
	C211	C	0.905848	0.907298	0.409278
	C212	C	0.600573	0.106109	0.902444
	C213	C	0.411252	0.105789	0.103445
	C214	C	0.599368	0.907870	0.102171
	C215	C	0.411188	0.906359	0.901878
	Zn216	Zn	0.506030	0.006393	0.751845
	Zn217	Zn	0.505507	0.006320	0.253033
	Zn218	Zn	0.756782	0.506529	0.002362
	Zn219	Zn	0.255544	0.505851	0.002112
	Zn220	Zn	0.005816	0.756750	0.503244
	Zn221	Zn	0.006560	0.257569	0.502608
	Zn222	Zn	0.006685	0.506756	0.753218
	Zn223	Zn	0.006145	0.506401	0.252350
	Zn224	Zn	0.506165	0.756720	0.002283
	Zn225	Zn	0.505886	0.256116	0.002744
	Zn226	Zn	0.755379	0.007062	0.502374
	Zn227	Zn	0.256641	0.007037	0.503152
	N228	N	0.420192	0.969409	0.680285
	N229	N	0.591165	0.044026	0.679713
	N230	N	0.590993	0.968805	0.324683
	N231	N	0.420295	0.043657	0.324265
	N232	N	0.684522	0.421243	0.965151
	N233	N	0.686009	0.593701	0.038958
	N234	N	0.327505	0.591598	0.964879
	N235	N	0.326144	0.419229	0.039525
	N236	N	0.968530	0.684788	0.417432
	N237	N	0.043456	0.683863	0.587262
	N238	N	0.969186	0.328940	0.587936
	N239	N	0.044085	0.330420	0.418162
	N240	N	0.969325	0.421200	0.681301
	N241	N	0.043355	0.592742	0.681351
	N242	N	0.969270	0.593280	0.323149
	N243	N	0.043098	0.420857	0.323955
	N244	N	0.421782	0.683253	0.964173
	N245	N	0.591594	0.685170	0.039720
	N246	N	0.590471	0.328991	0.964797
	N247	N	0.420717	0.328190	0.040036
	N248	N	0.683971	0.968890	0.416991
	N249	N	0.683535	0.044581	0.587253
	N250	N	0.327652	0.969876	0.588211
	N251	N	0.329208	0.044431	0.417996
	N252	N	0.920818	0.468545	0.180640
	N253	N	0.091258	0.544081	0.180201
	N254	N	0.092182	0.469661	0.823965
	N255	N	0.921143	0.543622	0.824512
	N256	N	0.184126	0.921898	0.466049
	N257	N	0.185777	0.093863	0.540134
	N258	N	0.827576	0.092844	0.465413
	N259	N	0.826208	0.920617	0.540468
	N260	N	0.468422	0.183715	0.918024
	N261	N	0.543103	0.184131	0.087782
	N262	N	0.467985	0.828473	0.087472
	N263	N	0.543414	0.829584	0.917400
	N264	N	0.468379	0.919796	0.181974
	N265	N	0.542759	0.092744	0.181636
	N266	N	0.469293	0.092545	0.823394
	N267	N	0.542520	0.919693	0.822376
	N268	N	0.921530	0.185001	0.465061
	N269	N	0.091152	0.185317	0.540729
	N270	N	0.090940	0.829201	0.465977
	N271	N	0.920439	0.828473	0.540821
	N272	N	0.183149	0.468648	0.917571
	N273	N	0.184196	0.543692	0.087850
	N274	N	0.827178	0.469012	0.088940
	N275	N	0.829055	0.543590	0.917240
	O276	O	0.544927	0.532692	0.468027
	H277	H	0.544306	0.536845	0.473513
	H278	H	0.549748	0.535266	0.472017
	O279	O	-0.043753	0.003113	0.036598
	H280	H	-0.053973	0.012356	0.041935
	H281	H	-0.036617	-0.000147	0.039847
	O282	O	0.495840	0.515804	0.499634
	H283	H	0.495281	0.515496	0.501010
	H284	H	0.494798	0.518894	0.501002
	O285	O	0.515109	0.526259	0.451632
	H286	H	0.510209	0.518858	0.450032
	H287	H	0.520150	0.521068	0.442874
	O288	O	0.953255	-0.047625	0.082087
	H289	H	0.953310	-0.051654	0.088827
	H290	H	0.951902	-0.053519	0.084373
	O291	O	-0.471618	0.530420	-0.532332
	H292	H	-0.469615	0.531173	-0.538676
	H293	H	-0.474039	0.533596	-0.526146
	O294	O	0.488152	0.478381	0.444951
	H295	H	0.489463	0.482199	0.446346
	H296	H	0.492606	0.479028	0.439540
	O297	O	-0.040530	0.945294	0.053006
	H298	H	-0.043435	0.944900	0.053575
	H299	H	-0.038758	0.944764	0.040588
	O300	O	0.970448	-0.069768	1.067369
	H301	H	0.975807	-0.078693	1.068277
	H302	H	0.974968	-0.076450	1.062054
	O303	O	0.532237	0.503760	0.496041
	H304	H	0.528179	0.512458	0.495362
	H305	H	0.534742	0.508965	0.495604
	O306	O	-0.027888	0.981738	1.028891
	H307	H	-0.037703	0.986966	1.031616
	H308	H	-0.029980	0.991134	1.033366
	O309	O	0.527711	0.464441	0.470062
	H310	H	0.524612	0.463976	0.466389
	H311	H	0.526316	0.453777	0.460709
