data_Molecule from HDF5

_cell_length_a		16.127320
_cell_length_b		16.363000
_cell_length_c		16.342792
_cell_angle_alpha	89.636138
_cell_angle_beta	90.161925
_cell_angle_gamma	89.842057
_symmetry_space_group_name_H-M	'P 1'
_symmetry_Int_Tables_number		1

loop_
	_symmetry_equiv_pos_as_xyz
	x,y,z

loop_
	_atom_site_label
	_atom_site_type_symbol
	_atom_site_fract_x
	_atom_site_fract_y
	_atom_site_fract_z
	H0	H	0.400387	0.826923	0.711636
	H1	H	0.604357	0.149906	0.711196
	H2	H	0.606100	0.827531	0.274365
	H3	H	0.396749	0.148460	0.271941
	H4	H	0.719283	0.389002	0.830047
	H5	H	0.721244	0.587824	0.155185
	H6	H	0.287873	0.587114	0.829830
	H7	H	0.290101	0.387256	0.155507
	H8	H	0.841588	0.706613	0.387990
	H9	H	0.168005	0.705049	0.594088
	H10	H	0.840452	0.271502	0.597460
	H11	H	0.168156	0.272551	0.396271
	H12	H	0.840953	0.386941	0.711210
	H13	H	0.168884	0.588573	0.708612
	H14	H	0.842094	0.591366	0.274079
	H15	H	0.169250	0.388211	0.280711
	H16	H	0.399107	0.707702	0.831832
	H17	H	0.607427	0.705970	0.154349
	H18	H	0.605681	0.270248	0.831353
	H19	H	0.399056	0.267595	0.153035
	H20	H	0.721251	0.827571	0.392186
	H21	H	0.720154	0.150276	0.594045
	H22	H	0.288748	0.824960	0.590623
	H23	H	0.288842	0.152128	0.395162
	H24	H	0.902391	0.327250	0.214573
	H25	H	0.109457	0.648769	0.211544
	H26	H	0.107422	0.326770	0.776435
	H27	H	0.899981	0.648987	0.771848
	H28	H	0.216736	0.891706	0.330013
	H29	H	0.218465	0.085323	0.656652
	H30	H	0.785106	0.091168	0.330480
	H31	H	0.787268	0.887190	0.654807
	H32	H	0.339331	0.206039	0.889768
	H33	H	0.665065	0.205458	0.097437
	H34	H	0.339191	0.771065	0.093913
	H35	H	0.666191	0.769942	0.890555
	H36	H	0.337410	0.887050	0.207053
	H37	H	0.664472	0.089978	0.212111
	H38	H	0.338323	0.087861	0.777922
	H39	H	0.665396	0.884468	0.774807
	H40	H	0.900060	0.209466	0.332391
	H41	H	0.105741	0.203568	0.655825
	H42	H	0.107730	0.770770	0.331761
	H43	H	0.899872	0.767144	0.652505
	H44	H	0.217807	0.324424	0.896711
	H45	H	0.220241	0.649755	0.090649
	H46	H	0.787557	0.325100	0.095290
	H47	H	0.786490	0.649880	0.891036
	H48	H	0.409230	0.101934	0.577980
	H49	H	0.593005	0.872050	0.591640
	H50	H	0.592895	0.103069	0.402778
	H51	H	0.418200	0.876824	0.405107
	H52	H	0.601379	0.396397	0.109809
	H53	H	0.593375	0.585764	0.876719
	H54	H	0.417901	0.580337	0.107027
	H55	H	0.414293	0.395863	0.876794
	H56	H	0.121312	0.576172	0.401284
	H57	H	0.890705	0.576397	0.577653
	H58	H	0.118867	0.401798	0.584062
	H59	H	0.887643	0.402742	0.398870
	H60	H	0.124171	0.393816	0.590549
	H61	H	0.888243	0.575654	0.586838
	H62	H	0.123687	0.582362	0.400959
	H63	H	0.886057	0.393877	0.403064
	H64	H	0.410221	0.583227	0.110371
	H65	H	0.597813	0.577759	0.877971
	H66	H	0.590048	0.400080	0.104278
	H67	H	0.411366	0.393594	0.876246
	H68	H	0.589571	0.103295	0.398919
	H69	H	0.585714	0.877766	0.582200
	H70	H	0.403108	0.107722	0.590282
	H71	H	0.399703	0.870544	0.404347
	H72	H	0.920865	0.597211	0.076667
	H73	H	0.091290	0.375176	0.084354
	H74	H	0.087509	0.598726	0.907182
	H75	H	0.917929	0.373439	0.900299
	H76	H	0.093233	0.895029	0.608057
	H77	H	0.094364	0.083210	0.377948
	H78	H	0.917936	0.079947	0.606160
	H79	H	0.916825	0.893379	0.377208
	H80	H	0.617691	0.078626	0.909124
	H81	H	0.382975	0.084283	0.086746
	H82	H	0.617780	0.901154	0.083128
	H83	H	0.386248	0.891677	0.907988
	H84	H	0.620013	0.896532	0.088965
	H85	H	0.388536	0.080996	0.073966
	H86	H	0.619134	0.072749	0.898233
	H87	H	0.389084	0.904629	0.904248
	H88	H	0.909472	0.084772	0.610301
	H89	H	0.094005	0.082835	0.377620
	H90	H	0.094930	0.893496	0.609191
	H91	H	0.906189	0.898262	0.375778
	H92	H	0.106488	0.605534	0.903466
	H93	H	0.101728	0.371106	0.084793
	H94	H	0.903899	0.603871	0.080910
	H95	H	0.913817	0.374342	0.905611
	H96	H	0.417729	0.103407	0.590132
	H97	H	0.598873	0.873685	0.580079
	H98	H	0.588105	0.101332	0.403377
	H99	H	0.410478	0.869366	0.388804
	H100	H	0.592032	0.387901	0.109365
	H101	H	0.588356	0.578380	0.880465
	H102	H	0.411001	0.575398	0.107554
	H103	H	0.410910	0.397132	0.876273
	H104	H	0.119855	0.580601	0.405877
	H105	H	0.885934	0.584951	0.581961
	H106	H	0.120403	0.391096	0.580202
	H107	H	0.890384	0.401245	0.408210
	H108	H	0.917309	0.604348	0.093513
	H109	H	0.095788	0.370611	0.093814
	H110	H	0.092494	0.606148	0.888188
	H111	H	0.910919	0.372848	0.899709
	H112	H	0.095458	0.896242	0.608957
	H113	H	0.093653	0.082622	0.378198
	H114	H	0.908756	0.074956	0.608071
	H115	H	0.915692	0.904494	0.379783
	H116	H	0.621675	0.084708	0.899145
	H117	H	0.386815	0.071762	0.084911
	H118	H	0.618942	0.893536	0.081647
	H119	H	0.383210	0.895697	0.895494
	C120	C	0.380363	-0.003007	0.615103
	C121	C	0.623895	0.980693	0.615079
	C122	C	0.622130	-0.003540	0.371647
	C123	C	0.379415	0.979542	0.370215
	C124	C	0.625127	0.365157	0.001022
	C125	C	0.624897	0.610187	0.984668
	C126	C	0.381877	0.609775	0.001198
	C127	C	0.382128	0.365832	0.983933
	C128	C	0.013656	0.610307	0.371079
	C129	C	0.996359	0.608706	0.612813
	C130	C	0.012945	0.365973	0.615487
	C131	C	0.995862	0.368433	0.373765
	C132	C	0.883201	0.495623	0.115154
	C133	C	0.126759	0.479156	0.115970
	C134	C	0.126318	0.496450	0.871014
	C135	C	0.882585	0.480038	0.870533
	C136	C	0.124674	0.866788	0.501388
	C137	C	0.124447	0.110474	0.485175
	C138	C	0.880694	0.111618	0.501649
	C139	C	0.882165	0.867385	0.484007
	C140	C	0.511122	0.108787	0.872242
	C141	C	0.493548	0.109349	0.113503
	C142	C	0.510692	0.866468	0.114251
	C143	C	0.494167	0.866800	0.871923
	C144	C	0.381432	0.875008	0.671900
	C145	C	0.623918	0.101535	0.672542
	C146	C	0.624314	0.875529	0.313800
	C147	C	0.378888	0.100997	0.312318
	C148	C	0.681663	0.367910	0.878892
	C149	C	0.682818	0.608413	0.106692
	C150	C	0.325434	0.607906	0.878940
	C151	C	0.326916	0.367150	0.106438
	C152	C	0.890792	0.667871	0.369742
	C153	C	0.119309	0.666131	0.613342
	C154	C	0.889691	0.309659	0.616035
	C155	C	0.119263	0.311237	0.375684
	C156	C	0.889796	0.367355	0.672620
	C157	C	0.119704	0.607990	0.670125
	C158	C	0.891021	0.610754	0.312774
	C159	C	0.119811	0.368977	0.318455
	C160	C	0.380765	0.668014	0.879857
	C161	C	0.626284	0.667337	0.106065
	C162	C	0.625325	0.308409	0.879819
	C163	C	0.381434	0.307624	0.105267
	C164	C	0.681718	0.875545	0.372257
	C165	C	0.681277	0.101894	0.613940
	C166	C	0.325728	0.874180	0.612058
	C167	C	0.324806	0.102511	0.373454
	C168	C	0.883191	0.374768	0.174342
	C169	C	0.127764	0.600516	0.172495
	C170	C	0.126687	0.374983	0.814784
	C171	C	0.881299	0.600804	0.811362
	C172	C	0.180119	0.870305	0.378998
	C173	C	0.180947	0.106624	0.607712
	C174	C	0.823461	0.111157	0.379440
	C175	C	0.825238	0.867417	0.605809
	C176	C	0.388277	0.166735	0.871316
	C177	C	0.616152	0.166702	0.115449
	C178	C	0.387916	0.809573	0.113229
	C179	C	0.617243	0.809149	0.871770
	C180	C	0.386852	0.867659	0.169332
	C181	C	0.615984	0.108946	0.172503
	C182	C	0.387611	0.107921	0.815861
	C183	C	0.616865	0.865869	0.813880
	C184	C	0.880408	0.170139	0.380470
	C185	C	0.124642	0.165423	0.607471
	C186	C	0.125591	0.810332	0.379772
	C187	C	0.881326	0.807638	0.604706
	C188	C	0.181660	0.373814	0.874751
	C189	C	0.183032	0.601120	0.112458
	C190	C	0.826187	0.373791	0.114966
	C191	C	0.824712	0.601271	0.870787
	C192	C	0.403240	0.082213	0.592723
	C193	C	0.599594	0.896307	0.591507
	C194	C	0.597189	0.080663	0.394961
	C195	C	0.402602	0.894304	0.392762
	C196	C	0.601467	0.388125	0.085714
	C197	C	0.600395	0.587351	0.900373
	C198	C	0.405970	0.586510	0.086189
	C199	C	0.405395	0.388903	0.898612
	C200	C	0.099419	0.586484	0.395628
	C201	C	0.910633	0.585578	0.589221
	C202	C	0.098836	0.389097	0.591781
	C203	C	0.910211	0.392403	0.396671
	C204	C	0.906979	0.579879	0.090733
	C205	C	0.103118	0.394355	0.094198
	C206	C	0.102470	0.581416	0.893075
	C207	C	0.907130	0.395436	0.894925
	C208	C	0.101153	0.888421	0.586591
	C209	C	0.100714	0.089189	0.400073
	C210	C	0.904954	0.087094	0.586353
	C211	C	0.905945	0.891646	0.399506
	C212	C	0.597269	0.085387	0.895382
	C213	C	0.408099	0.085890	0.089020
	C214	C	0.596713	0.890057	0.091232
	C215	C	0.408405	0.890567	0.895507
	Zn216	Zn	0.502319	-0.012040	0.744377
	Zn217	Zn	0.501346	-0.012292	0.241316
	Zn218	Zn	0.753592	0.487928	-0.006846
	Zn219	Zn	0.254528	0.486955	-0.006995
	Zn220	Zn	0.004502	0.737979	0.491885
	Zn221	Zn	0.003582	0.239436	0.494288
	Zn222	Zn	0.004910	0.487790	0.741984
	Zn223	Zn	0.005325	0.488790	0.244795
	Zn224	Zn	0.503077	0.738853	-0.006507
	Zn225	Zn	0.502282	0.236925	-0.007497
	Zn226	Zn	0.752615	-0.010947	0.492090
	Zn227	Zn	0.251992	-0.011385	0.493180
	N228	N	0.414512	0.952423	0.674090
	N229	N	0.588807	0.025009	0.673237
	N230	N	0.588023	0.951778	0.313315
	N231	N	0.412069	0.023628	0.310120
	N232	N	0.682113	0.402109	0.955554
	N233	N	0.682571	0.573914	0.030104
	N234	N	0.326005	0.572367	0.955447
	N235	N	0.327076	0.402509	0.029824
	N236	N	0.968186	0.667742	0.405321
	N237	N	0.041593	0.666904	0.578404
	N238	N	0.967307	0.308699	0.581316
	N239	N	0.041304	0.310821	0.409182
	N240	N	0.967429	0.401720	0.672231
	N241	N	0.042226	0.573182	0.670008
	N242	N	0.968516	0.575820	0.313492
	N243	N	0.042056	0.403851	0.317103
	N244	N	0.415033	0.669194	0.956859
	N245	N	0.591363	0.668812	0.029297
	N246	N	0.591144	0.306638	0.956747
	N247	N	0.414965	0.306585	0.027942
	N248	N	0.680384	0.951664	0.407487
	N249	N	0.681458	0.025684	0.579005
	N250	N	0.325090	0.950948	0.577381
	N251	N	0.324847	0.025867	0.408503
	N252	N	0.917833	0.451518	0.174535
	N253	N	0.093298	0.523811	0.174611
	N254	N	0.093211	0.452332	0.812192
	N255	N	0.916455	0.524185	0.811289
	N256	N	0.179807	0.904532	0.455626
	N257	N	0.180809	0.073187	0.530742
	N258	N	0.823263	0.075852	0.456022
	N259	N	0.825778	0.903955	0.529764
	N260	N	0.466194	0.167356	0.905667
	N261	N	0.539144	0.166819	0.079478
	N262	N	0.466056	0.808890	0.079627
	N263	N	0.540012	0.809542	0.907100
	N264	N	0.464309	0.902486	0.169885
	N265	N	0.538611	0.073932	0.171399
	N266	N	0.465030	0.072527	0.816313
	N267	N	0.539384	0.901144	0.814070
	N268	N	0.914966	0.170510	0.457514
	N269	N	0.090165	0.167872	0.530385
	N270	N	0.091974	0.807876	0.457065
	N271	N	0.915976	0.807502	0.527939
	N272	N	0.181632	0.450456	0.908896
	N273	N	0.182768	0.524653	0.078189
	N274	N	0.826246	0.449775	0.078730
	N275	N	0.825291	0.525107	0.906814
	O276	O	0.061549	-0.128997	-0.057133
	H277	H	0.062839	-0.118891	-0.057909
	H278	H	0.060127	-0.138790	-0.063437
	O279	O	0.591239	0.657511	0.575689
	H280	H	0.590606	0.654965	0.566190
	H281	H	0.605649	0.670670	0.577042
	O282	O	0.861130	-0.074252	-0.056399
	H283	H	0.872457	-0.074843	-0.077104
	H284	H	0.855749	-0.093156	-0.045270
	O285	O	0.013314	1.051958	0.012859
	H286	H	0.001242	1.068751	0.018018
	H287	H	0.011380	1.048623	0.019259
	O288	O	0.047813	0.087684	0.931673
	H289	H	0.050571	0.074470	0.937155
	H290	H	0.046290	0.071334	0.929271
	O291	O	0.426461	0.465941	0.538837
	H292	H	0.429372	0.461055	0.552247
	H293	H	0.409515	0.459394	0.532632
	O294	O	0.930078	1.030773	0.811959
	H295	H	0.914743	1.021091	0.820972
	H296	H	0.923138	1.021668	0.798475
	O297	O	0.055262	-0.010803	-0.042633
	H298	H	0.055970	-0.020542	-0.048059
	H299	H	0.063121	0.006295	-0.035482
	O300	O	0.534950	0.378279	0.494894
	H301	H	0.543775	0.370105	0.491160
	H302	H	0.534187	0.381051	0.489893
	O303	O	0.111736	1.100270	1.057914
	H304	H	0.104585	1.100259	1.054621
	H305	H	0.107702	1.100809	1.054270
	O306	O	0.871413	0.985267	-0.062116
	H307	H	0.871654	0.976269	-0.067211
	H308	H	0.870394	1.010165	-0.064907
	O309	O	1.011381	0.014195	-0.001043
	H310	H	1.023948	0.018170	-0.003084
	H311	H	1.024893	0.006957	-0.001726
	O312	O	-0.016574	0.107288	0.954258
	H313	H	-0.011926	0.095558	0.936230
	H314	H	-0.025682	0.104074	0.949444
	O315	O	0.556706	0.462678	0.648710
	H316	H	0.551138	0.454939	0.641708
	H317	H	0.560426	0.460001	0.646584
	O318	O	0.611124	0.591073	0.571743
	H319	H	0.620086	0.603800	0.573271
	H320	H	0.614788	0.596172	0.589508
	O321	O	0.447519	0.487524	0.446035
	H322	H	0.462338	0.491165	0.442748
	H323	H	0.452979	0.490751	0.455023
	O324	O	0.410534	0.502064	0.474558
	H325	H	0.417938	0.501188	0.468388
	H326	H	0.416761	0.501841	0.475235
	O327	O	-0.023050	0.942431	0.952505
	H328	H	-0.004367	0.946115	0.947752
	H329	H	-0.027740	0.934120	0.959889
	O330	O	0.356606	0.565966	0.368016
	H331	H	0.354508	0.582038	0.383247
	H332	H	0.357032	0.566891	0.382679
	O333	O	0.076718	1.001695	1.099194
	H334	H	0.077968	1.002683	1.103690
	H335	H	0.076024	1.005515	1.092871
	O336	O	0.865813	1.103531	1.055036
	H337	H	0.879527	1.102500	1.037093
	H338	H	0.867062	1.112665	1.042479
	O339	O	0.358043	0.568759	0.565104
	H340	H	0.347588	0.565102	0.556679
	H341	H	0.353181	0.571005	0.571354
	O342	O	0.997863	-0.171570	0.085874
	H343	H	0.983933	-0.183965	0.082652
	H344	H	0.972080	-0.173469	0.091462
	O345	O	0.356001	0.356159	0.585296
	H346	H	0.356514	0.350941	0.570535
	H347	H	0.360625	0.348530	0.580900
	O348	O	1.152047	0.925018	0.998744
	H349	H	1.156545	0.934388	1.006382
	H350	H	1.165513	0.922829	0.997037
	O351	O	0.592044	1.453787	-0.371973
	H352	H	0.585580	1.442896	-0.378723
	H353	H	0.589562	1.443509	-0.367375
	O354	O	0.539466	0.440151	0.450347
	H355	H	0.539300	0.450820	0.449312
	H356	H	0.542294	0.436515	0.434361
	O357	O	0.053090	0.996711	0.835079
	H358	H	0.043001	0.984255	0.826880
	H359	H	0.060929	0.995243	0.838472
	O360	O	0.556259	0.392364	0.424667
	H361	H	0.552839	0.408037	0.427235
	H362	H	0.543178	0.401267	0.434014
	O363	O	0.610867	0.462669	0.485086
	H364	H	0.616637	0.460793	0.480458
	H365	H	0.613874	0.468798	0.498934
	O366	O	0.486820	0.344040	0.511919
	H367	H	0.499944	0.329519	0.489259
	H368	H	0.478155	0.349275	0.513840
	O369	O	0.620176	0.589138	0.511708
	H370	H	0.624728	0.592395	0.516789
	H371	H	0.604709	0.595824	0.500695
	O372	O	0.613327	0.358146	0.382823
	H373	H	0.610953	0.338946	0.384162
	H374	H	0.612393	0.366243	0.376216
	O375	O	0.683071	0.438477	0.417132
	H376	H	0.696960	0.423162	0.403425
	H377	H	0.675397	0.427328	0.413663
	O378	O	-0.001616	0.931847	1.026185
	H379	H	-0.006348	0.947397	1.039955
	H380	H	-0.010163	0.939438	1.030368
	O381	O	0.555544	0.644021	0.564338
	H382	H	0.569184	0.644433	0.568744
	H383	H	0.554939	0.642096	0.573465
	O384	O	-0.048582	1.079816	0.017436
	H385	H	-0.046538	1.086990	0.025613
	H386	H	-0.043618	1.089591	0.003192
	O387	O	1.001329	0.005530	1.119350
	H388	H	1.000240	0.012489	1.101720
	H389	H	0.998808	0.005026	1.112686
	O390	O	0.013173	0.930442	-0.015013
	H391	H	0.016608	0.931420	-0.004189
	H392	H	0.005775	0.927817	-0.009969
	O393	O	1.004132	0.895513	0.145282
	H394	H	1.006292	0.895874	0.152750
	H395	H	0.996766	0.910952	0.162927
	O396	O	0.446732	0.588218	0.385564
	H397	H	0.437149	0.586085	0.368797
	H398	H	0.456243	0.600432	0.401213
	O399	O	-0.190147	0.931879	1.014549
	H400	H	-0.204164	0.939783	1.005564
	H401	H	-0.181167	0.934886	1.026056
	O402	O	1.008761	0.879684	0.908597
	H403	H	1.007644	0.868874	0.916099
	H404	H	1.011539	0.867506	0.911061
	O405	O	0.535260	0.494956	0.332786
	H406	H	0.528487	0.495438	0.340575
	H407	H	0.526151	0.511292	0.328453
