data_Molecule from HDF5

_cell_length_a		16.272711
_cell_length_b		16.143894
_cell_length_c		16.433664
_cell_angle_alpha	89.839500
_cell_angle_beta	90.012472
_cell_angle_gamma	90.067351
_symmetry_space_group_name_H-M	'P 1'
_symmetry_Int_Tables_number		1

loop_
	_symmetry_equiv_pos_as_xyz
	x,y,z

loop_
	_atom_site_label
	_atom_site_type_symbol
	_atom_site_fract_x
	_atom_site_fract_y
	_atom_site_fract_z
	H0	H	0.397174	0.829832	0.722216
	H1	H	0.605388	0.155155	0.722416
	H2	H	0.601957	0.830427	0.284720
	H3	H	0.395259	0.154626	0.283968
	H4	H	0.715905	0.390986	0.842742
	H5	H	0.717152	0.597186	0.163553
	H6	H	0.276890	0.597179	0.844255
	H7	H	0.278028	0.388910	0.163988
	H8	H	0.833950	0.707338	0.406102
	H9	H	0.159414	0.706568	0.602865
	H10	H	0.834215	0.274475	0.603437
	H11	H	0.159907	0.277742	0.403615
	H12	H	0.834960	0.386968	0.723382
	H13	H	0.157605	0.597370	0.723173
	H14	H	0.835171	0.597279	0.286038
	H15	H	0.157230	0.389168	0.284531
	H16	H	0.396664	0.710664	0.842723
	H17	H	0.596864	0.708303	0.166240
	H18	H	0.599124	0.276609	0.841748
	H19	H	0.397201	0.275138	0.164179
	H20	H	0.712668	0.827734	0.403791
	H21	H	0.715582	0.155964	0.602304
	H22	H	0.283200	0.828898	0.604551
	H23	H	0.282469	0.155757	0.401216
	H24	H	0.893173	0.330128	0.221148
	H25	H	0.097828	0.656000	0.221171
	H26	H	0.099514	0.330186	0.786014
	H27	H	0.892659	0.655977	0.784379
	H28	H	0.215832	0.889943	0.342131
	H29	H	0.218890	0.095653	0.663482
	H30	H	0.782233	0.092449	0.341630
	H31	H	0.779583	0.887591	0.662891
	H32	H	0.334454	0.208472	0.902233
	H33	H	0.661130	0.210069	0.102170
	H34	H	0.335162	0.778025	0.104156
	H35	H	0.661200	0.778400	0.906451
	H36	H	0.338008	0.887197	0.224216
	H37	H	0.660713	0.095700	0.220709
	H38	H	0.338281	0.098529	0.781688
	H39	H	0.660500	0.890318	0.787375
	H40	H	0.899914	0.207160	0.341228
	H41	H	0.100814	0.210998	0.664427
	H42	H	0.096014	0.776453	0.341727
	H43	H	0.899798	0.777086	0.665122
	H44	H	0.212295	0.329473	0.904294
	H45	H	0.211957	0.656989	0.105068
	H46	H	0.780962	0.329071	0.103095
	H47	H	0.782729	0.657717	0.904260
	H48	H	0.416327	0.105031	0.589118
	H49	H	0.594767	0.876153	0.589321
	H50	H	0.581888	0.109822	0.403743
	H51	H	0.403047	0.874162	0.416159
	H52	H	0.583108	0.401057	0.116151
	H53	H	0.585485	0.587688	0.889516
	H54	H	0.400797	0.580871	0.119061
	H55	H	0.397803	0.396628	0.884845
	H56	H	0.109792	0.580108	0.419827
	H57	H	0.880914	0.579575	0.595814
	H58	H	0.118566	0.393556	0.606989
	H59	H	0.879139	0.400003	0.409357
	H60	H	0.108743	0.398191	0.580203
	H61	H	0.879407	0.584084	0.597960
	H62	H	0.112612	0.576146	0.405526
	H63	H	0.880447	0.398123	0.414569
	H64	H	0.408036	0.583918	0.117873
	H65	H	0.592799	0.586846	0.886839
	H66	H	0.591180	0.399221	0.118693
	H67	H	0.400646	0.412014	0.890616
	H68	H	0.587625	0.105357	0.421198
	H69	H	0.592483	0.872068	0.604367
	H70	H	0.403080	0.110002	0.589769
	H71	H	0.408509	0.873199	0.406466
	H72	H	0.908182	0.608457	0.092702
	H73	H	0.079406	0.377187	0.099240
	H74	H	0.089378	0.607157	0.921884
	H75	H	0.914692	0.380238	0.915024
	H76	H	0.084617	0.902549	0.615663
	H77	H	0.091854	0.087559	0.387645
	H78	H	0.906860	0.080108	0.617736
	H79	H	0.901540	0.901487	0.387402
	H80	H	0.611682	0.077566	0.910853
	H81	H	0.381629	0.084142	0.098401
	H82	H	0.612093	0.902752	0.089474
	H83	H	0.379467	0.895853	0.910613
	H84	H	0.614281	0.906830	0.101382
	H85	H	0.384099	0.084346	0.090715
	H86	H	0.616730	0.087086	0.905428
	H87	H	0.385360	0.906350	0.919613
	H88	H	0.907968	0.083410	0.617963
	H89	H	0.093803	0.079684	0.388989
	H90	H	0.092086	0.892789	0.620250
	H91	H	0.908446	0.902095	0.388732
	H92	H	0.092530	0.613825	0.904990
	H93	H	0.085876	0.378879	0.087782
	H94	H	0.902877	0.611018	0.094137
	H95	H	0.899179	0.376158	0.919493
	H96	H	0.411588	0.110887	0.600469
	H97	H	0.580453	0.879302	0.595932
	H98	H	0.599875	0.112469	0.409328
	H99	H	0.413125	0.878842	0.415851
	H100	H	0.589474	0.406863	0.116047
	H101	H	0.589179	0.581324	0.890894
	H102	H	0.402476	0.588222	0.119692
	H103	H	0.412765	0.400607	0.890602
	H104	H	0.116287	0.589632	0.409783
	H105	H	0.881278	0.585046	0.593261
	H106	H	0.106879	0.419563	0.599390
	H107	H	0.881551	0.403130	0.412027
	H108	H	0.907953	0.610700	0.098853
	H109	H	0.091850	0.373748	0.098063
	H110	H	0.076160	0.607279	0.909856
	H111	H	0.904561	0.373318	0.904874
	H112	H	0.097466	0.904945	0.617937
	H113	H	0.086088	0.082682	0.391324
	H114	H	0.904060	0.083129	0.618446
	H115	H	0.905383	0.895579	0.386590
	H116	H	0.613393	0.088566	0.917079
	H117	H	0.384757	0.077608	0.094832
	H118	H	0.616997	0.895033	0.097436
	H119	H	0.383163	0.909297	0.905544
	C120	C	0.378849	0.001145	0.624089
	C121	C	0.620835	0.983778	0.625690
	C122	C	0.619629	0.001063	0.381839
	C123	C	0.377815	0.983239	0.381672
	C124	C	0.618750	0.372040	0.010942
	C125	C	0.618994	0.615334	0.995471
	C126	C	0.373725	0.615709	0.012906
	C127	C	0.374447	0.371388	0.994784
	C128	C	0.005405	0.613071	0.382478
	C129	C	0.987531	0.613508	0.625565
	C130	C	0.004917	0.371142	0.625476
	C131	C	0.987519	0.370538	0.381908
	C132	C	0.875014	0.501885	0.125301
	C133	C	0.116329	0.484676	0.124952
	C134	C	0.117203	0.501933	0.882311
	C135	C	0.875807	0.484534	0.882445
	C136	C	0.120587	0.869759	0.511552
	C137	C	0.121117	0.114529	0.495187
	C138	C	0.877080	0.112321	0.511302
	C139	C	0.875795	0.869729	0.494371
	C140	C	0.506927	0.115244	0.880805
	C141	C	0.490479	0.113489	0.124128
	C142	C	0.507210	0.871276	0.125676
	C143	C	0.490005	0.872938	0.882959
	C144	C	0.377907	0.878632	0.683022
	C145	C	0.622917	0.106404	0.682846
	C146	C	0.620181	0.878509	0.324480
	C147	C	0.376928	0.105974	0.323498
	C148	C	0.676832	0.372170	0.890615
	C149	C	0.677323	0.615728	0.115965
	C150	C	0.315924	0.616412	0.892174
	C151	C	0.317026	0.370192	0.115959
	C152	C	0.882966	0.670213	0.384560
	C153	C	0.110447	0.669447	0.623733
	C154	C	0.882863	0.312734	0.624211
	C155	C	0.110570	0.314819	0.383139
	C156	C	0.883495	0.368691	0.683815
	C157	C	0.109322	0.615008	0.683607
	C158	C	0.883551	0.615131	0.325109
	C159	C	0.109082	0.370254	0.323640
	C160	C	0.375388	0.673046	0.891449
	C161	C	0.617681	0.671446	0.117030
	C162	C	0.618583	0.314907	0.890060
	C163	C	0.376248	0.313441	0.115912
	C164	C	0.674978	0.877354	0.383989
	C165	C	0.678116	0.106695	0.623269
	C166	C	0.321543	0.877943	0.624140
	C167	C	0.320583	0.106618	0.381744
	C168	C	0.874465	0.378899	0.182112
	C169	C	0.116607	0.607369	0.182048
	C170	C	0.118274	0.379171	0.824886
	C171	C	0.874750	0.607276	0.824104
	C172	C	0.177060	0.870875	0.390427
	C173	C	0.179475	0.114730	0.615697
	C174	C	0.820790	0.111901	0.389839
	C175	C	0.818798	0.869404	0.615050
	C176	C	0.384145	0.171516	0.881715
	C177	C	0.612468	0.171426	0.122488
	C178	C	0.384373	0.815181	0.124476
	C179	C	0.612353	0.815997	0.885412
	C180	C	0.385890	0.869496	0.184366
	C181	C	0.612284	0.114591	0.181555
	C182	C	0.385758	0.116584	0.821860
	C183	C	0.612003	0.871755	0.826066
	C184	C	0.879324	0.168934	0.389678
	C185	C	0.120680	0.172175	0.616147
	C186	C	0.117871	0.813789	0.390106
	C187	C	0.878604	0.814150	0.616201
	C188	C	0.174390	0.378637	0.883670
	C189	C	0.173490	0.607694	0.124140
	C190	C	0.818538	0.378571	0.123376
	C191	C	0.819675	0.608222	0.883563
	C192	C	0.403204	0.086450	0.600084
	C193	C	0.596310	0.898021	0.603259
	C194	C	0.596328	0.086926	0.404556
	C195	C	0.401328	0.897712	0.405629
	C196	C	0.594902	0.395584	0.095275
	C197	C	0.595850	0.591948	0.911022
	C198	C	0.397032	0.591532	0.096940
	C199	C	0.397070	0.395758	0.910608
	C200	C	0.090717	0.588827	0.405262
	C201	C	0.902567	0.589708	0.602541
	C202	C	0.089458	0.396357	0.602243
	C203	C	0.902530	0.393793	0.405107
	C204	C	0.899239	0.587814	0.102043
	C205	C	0.092415	0.399026	0.101688
	C206	C	0.093268	0.587111	0.905544
	C207	C	0.899365	0.398967	0.906070
	C208	C	0.097988	0.892955	0.596041
	C209	C	0.097435	0.090547	0.411381
	C210	C	0.899702	0.089102	0.596085
	C211	C	0.898580	0.892852	0.409370
	C212	C	0.592067	0.091441	0.904230
	C213	C	0.405516	0.089078	0.101219
	C214	C	0.592402	0.894746	0.102700
	C215	C	0.404739	0.896976	0.905221
	Zn216	Zn	0.498979	-0.006488	0.753369
	Zn217	Zn	0.499026	-0.007878	0.253920
	Zn218	Zn	0.747737	0.493571	0.003435
	Zn219	Zn	0.244997	0.493078	0.004527
	Zn220	Zn	-0.002604	0.740924	0.503629
	Zn221	Zn	-0.002027	0.242737	0.503601
	Zn222	Zn	-0.003931	0.493007	0.754101
	Zn223	Zn	-0.004478	0.492900	0.253952
	Zn224	Zn	0.497409	0.744123	0.004166
	Zn225	Zn	0.497353	0.242832	0.002402
	Zn226	Zn	0.747466	-0.008620	0.502818
	Zn227	Zn	0.250267	-0.007961	0.503064
	N228	N	0.413019	0.956148	0.682924
	N229	N	0.587954	0.028702	0.684570
	N230	N	0.586311	0.956409	0.323182
	N231	N	0.411767	0.028356	0.323290
	N232	N	0.677061	0.406838	0.966919
	N233	N	0.678286	0.581489	0.039412
	N234	N	0.314484	0.581806	0.968725
	N235	N	0.315779	0.405490	0.039724
	N236	N	0.959722	0.668962	0.419520
	N237	N	0.033743	0.669015	0.588541
	N238	N	0.959421	0.313994	0.588638
	N239	N	0.034205	0.315004	0.418865
	N240	N	0.960370	0.404178	0.684684
	N241	N	0.031799	0.581078	0.685045
	N242	N	0.960696	0.580384	0.323686
	N243	N	0.031498	0.404026	0.322577
	N244	N	0.410503	0.672886	0.967503
	N245	N	0.582007	0.671372	0.041143
	N246	N	0.582832	0.315093	0.965885
	N247	N	0.411210	0.314061	0.039616
	N248	N	0.674696	0.954658	0.419004
	N249	N	0.676828	0.029547	0.588547
	N250	N	0.321719	0.955198	0.588537
	N251	N	0.320800	0.029252	0.417123
	N252	N	0.908607	0.456755	0.183568
	N253	N	0.081638	0.529821	0.182608
	N254	N	0.083661	0.456902	0.823663
	N255	N	0.908645	0.529225	0.823191
	N256	N	0.178926	0.904855	0.467019
	N257	N	0.179749	0.079550	0.539673
	N258	N	0.819104	0.077555	0.466437
	N259	N	0.816812	0.902969	0.538042
	N260	N	0.460579	0.170821	0.917615
	N261	N	0.535579	0.170899	0.087608
	N262	N	0.460640	0.816272	0.088701
	N263	N	0.535447	0.816526	0.919950
	N264	N	0.463253	0.903909	0.185226
	N265	N	0.535330	0.079336	0.182753
	N266	N	0.463150	0.082654	0.820981
	N267	N	0.534881	0.906727	0.824504
	N268	N	0.913587	0.169357	0.466182
	N269	N	0.085333	0.172375	0.540210
	N270	N	0.083592	0.812909	0.466460
	N271	N	0.913460	0.814341	0.539968
	N272	N	0.174021	0.455867	0.918745
	N273	N	0.173251	0.530278	0.089254
	N274	N	0.818652	0.456346	0.089029
	N275	N	0.819988	0.530986	0.919063
	O276	O	0.080102	-0.159660	-0.140963
	H277	H	0.083260	-0.157912	-0.140135
	H278	H	0.081994	-0.149437	-0.151114
	O279	O	0.403996	0.603605	0.528622
	H280	H	0.406867	0.590353	0.509018
	H281	H	0.395542	0.611906	0.525154
	O282	O	1.163057	0.113029	0.111890
	H283	H	1.148295	0.096651	0.103197
	H284	H	1.171257	0.108245	0.111840
	O285	O	-0.016188	1.112262	0.038225
	H286	H	-0.010009	1.113454	0.038630
	H287	H	-0.014525	1.117169	0.039514
	O288	O	0.467937	0.420074	0.595980
	H289	H	0.463605	0.407403	0.592676
	H290	H	0.475215	0.428186	0.594372
	O291	O	0.472999	0.465258	0.355590
	H292	H	0.475206	0.472035	0.359303
	H293	H	0.476994	0.456759	0.366249
	O294	O	1.006896	0.979784	1.065447
	H295	H	1.021095	0.970003	1.068897
	H296	H	0.998882	0.976188	1.069435
	O297	O	0.120153	-0.106283	0.087531
	H298	H	0.111042	-0.112040	0.094448
	H299	H	0.127713	-0.121123	0.079098
	O300	O	0.419264	0.549988	0.531630
	H301	H	0.412686	0.537221	0.537559
	H302	H	0.426697	0.543097	0.517962
	O303	O	0.091747	1.078667	1.021172
	H304	H	0.100208	1.089320	1.027178
	H305	H	0.089475	1.081175	1.031163
	O306	O	1.005744	0.949824	-0.142517
	H307	H	1.013461	0.955888	-0.139105
	H308	H	1.028181	0.947271	-0.156537
	O309	O	0.895544	-0.006971	-0.001123
	H310	H	0.898200	-0.023799	0.004253
	H311	H	0.906930	-0.010736	-0.000907
	O312	O	-0.141119	0.037172	0.989262
	H313	H	-0.142555	0.021998	0.995336
	H314	H	-0.125357	0.044223	0.985469
	O315	O	0.493936	0.534751	0.404728
	H316	H	0.495909	0.542861	0.412841
	H317	H	0.504476	0.532426	0.399244
	O318	O	0.566438	0.544786	0.406329
	H319	H	0.571529	0.540950	0.406781
	H320	H	0.554926	0.549389	0.409871
	O321	O	0.550228	0.618349	0.549785
	H322	H	0.553820	0.624910	0.546827
	H323	H	0.559855	0.619559	0.561950
	O324	O	0.347020	0.513664	0.454386
	H325	H	0.348846	0.504752	0.445214
	H326	H	0.348722	0.535188	0.439809
	O327	O	0.107500	0.879160	0.962715
	H328	H	0.092377	0.875241	0.953588
	H329	H	0.108593	0.872772	0.976488
	O330	O	0.610530	0.342840	0.414364
	H331	H	0.613541	0.339892	0.415143
	H332	H	0.609367	0.336770	0.420813
	O333	O	0.040039	1.018346	0.849436
	H334	H	0.039694	1.036855	0.859349
	H335	H	0.017057	1.029330	0.853510
	O336	O	0.992381	1.158417	1.054770
	H337	H	0.994350	1.163409	1.056991
	H338	H	0.997889	1.161577	1.065805
	O339	O	0.517331	0.507854	0.508696
	H340	H	0.518336	0.504369	0.506457
	H341	H	0.511203	0.519088	0.506149
	O342	O	1.180525	-0.021979	-0.103831
	H343	H	1.194248	-0.026872	-0.093077
	H344	H	1.176518	-0.023598	-0.112829
	O345	O	0.653693	0.413494	0.426226
	H346	H	0.654919	0.401007	0.426996
	H347	H	0.649709	0.411752	0.438140
	O348	O	0.939508	1.027700	1.004104
	H349	H	0.927700	1.036175	1.002008
	H350	H	0.942723	1.025294	1.016252
	O351	O	0.643135	1.508105	-0.344187
	H352	H	0.646141	1.508473	-0.348734
	H353	H	0.642432	1.501294	-0.346177
	O354	O	0.482653	0.384598	0.422818
	H355	H	0.483008	0.373498	0.436727
	H356	H	0.486864	0.389172	0.416475
	O357	O	0.528906	0.543910	0.548663
	H358	H	0.535527	0.557636	0.550333
	H359	H	0.540113	0.538120	0.544791
	O360	O	0.019668	0.056950	-0.015230
	H361	H	0.014905	0.045068	-0.029634
	H362	H	0.015857	0.049433	-0.013145
	O363	O	0.446135	0.364267	0.673230
	H364	H	0.440303	0.357486	0.675613
	H365	H	0.427881	0.361989	0.678767
	O366	O	0.398900	0.432692	0.520804
	H367	H	0.399459	0.433946	0.521632
	H368	H	0.394116	0.433472	0.530634
	O369	O	0.541045	0.607098	0.457090
	H370	H	0.547180	0.609058	0.468714
	H371	H	0.546640	0.602807	0.458812
	O372	O	0.490648	0.651764	0.476664
	H373	H	0.500285	0.656724	0.478652
	H374	H	0.498923	0.656010	0.480221
	O375	O	0.527243	0.352581	0.423859
	H376	H	0.525687	0.360182	0.431857
	H377	H	0.533379	0.347114	0.430294
	O378	O	0.483731	0.526366	0.682878
	H379	H	0.485690	0.535590	0.692938
	H380	H	0.477384	0.512531	0.660348
	O381	O	0.359046	0.495051	0.560133
	H382	H	0.357068	0.489677	0.544769
	H383	H	0.349512	0.502721	0.561150
	O384	O	0.018058	1.092135	0.031633
	H385	H	0.039338	1.092415	0.018801
	H386	H	0.004607	1.103226	0.036124
	O387	O	1.049064	-0.075153	1.123214
	H388	H	1.054668	-0.071937	1.115524
	H389	H	1.046027	-0.077921	1.114978
	O390	O	-0.083459	0.997313	-0.061406
	H391	H	-0.078630	1.004128	-0.053584
	H392	H	-0.095794	1.000064	-0.066235
	O393	O	0.915004	0.951727	-0.015499
	H394	H	0.910289	0.964876	-0.025339
	H395	H	0.920407	0.947898	-0.006940
	O396	O	0.314029	0.355038	0.516002
	H397	H	0.307575	0.348014	0.521806
	H398	H	0.309395	0.361228	0.516963
	O399	O	-0.066534	0.956186	1.017712
	H400	H	-0.070757	0.948614	1.025680
	H401	H	-0.080545	0.946971	1.020251
	O402	O	0.942630	0.899026	1.015328
	H403	H	0.932627	0.905666	1.007653
	H404	H	0.948952	0.905826	1.017291
	O405	O	0.636434	0.502529	0.553731
	H406	H	0.633160	0.502761	0.562694
	H407	H	0.635771	0.512768	0.556990
