data_Molecule from HDF5

_cell_length_a		16.500892
_cell_length_b		16.428742
_cell_length_c		16.530359
_cell_angle_alpha	89.964632
_cell_angle_beta	90.083690
_cell_angle_gamma	89.997857
_symmetry_space_group_name_H-M	'P 1'
_symmetry_Int_Tables_number		1

loop_
	_symmetry_equiv_pos_as_xyz
	x,y,z

loop_
	_atom_site_label
	_atom_site_type_symbol
	_atom_site_fract_x
	_atom_site_fract_y
	_atom_site_fract_z
	H0	H	0.392007	0.850929	0.704740
	H1	H	0.603036	0.166600	0.707442
	H2	H	0.602958	0.852202	0.260899
	H3	H	0.392731	0.168334	0.264437
	H4	H	0.718573	0.403103	0.828041
	H5	H	0.721034	0.618681	0.140878
	H6	H	0.277108	0.611232	0.825145
	H7	H	0.271843	0.401881	0.139719
	H8	H	0.838147	0.733954	0.375741
	H9	H	0.151957	0.729885	0.588276
	H10	H	0.836614	0.287185	0.590444
	H11	H	0.152174	0.289212	0.382052
	H12	H	0.836549	0.404816	0.706070
	H13	H	0.151545	0.614308	0.706086
	H14	H	0.839245	0.619579	0.257575
	H15	H	0.151089	0.402420	0.263382
	H16	H	0.393830	0.727543	0.825853
	H17	H	0.601395	0.731563	0.143257
	H18	H	0.601944	0.288388	0.827133
	H19	H	0.388344	0.284722	0.139247
	H20	H	0.718023	0.852040	0.376233
	H21	H	0.718565	0.166091	0.591287
	H22	H	0.276586	0.850687	0.587328
	H23	H	0.277169	0.168565	0.381982
	H24	H	0.888292	0.351215	0.207329
	H25	H	0.099725	0.666470	0.205193
	H26	H	0.099250	0.350190	0.763250
	H27	H	0.889748	0.666543	0.762552
	H28	H	0.213734	0.906845	0.326470
	H29	H	0.215249	0.112808	0.643434
	H30	H	0.772565	0.116552	0.326840
	H31	H	0.774232	0.904654	0.641728
	H32	H	0.336790	0.229982	0.880307
	H33	H	0.653096	0.234450	0.091390
	H34	H	0.337196	0.791934	0.086301
	H35	H	0.653837	0.789472	0.882081
	H36	H	0.337089	0.907849	0.202241
	H37	H	0.652698	0.119789	0.209643
	H38	H	0.338028	0.114774	0.762176
	H39	H	0.653668	0.905561	0.765358
	H40	H	0.891318	0.230165	0.325681
	H41	H	0.097257	0.227539	0.643970
	H42	H	0.095864	0.791535	0.326165
	H43	H	0.892948	0.790363	0.642465
	H44	H	0.214982	0.349683	0.880235
	H45	H	0.213086	0.667825	0.086604
	H46	H	0.771864	0.351341	0.091859
	H47	H	0.775346	0.667718	0.881239
	H48	H	0.407052	0.122863	0.574667
	H49	H	0.589639	0.896365	0.568087
	H50	H	0.580145	0.121743	0.394417
	H51	H	0.408423	0.898260	0.398301
	H52	H	0.584373	0.416345	0.098194
	H53	H	0.588695	0.598341	0.872769
	H54	H	0.401613	0.600286	0.098512
	H55	H	0.408698	0.420941	0.873086
	H56	H	0.105444	0.597062	0.395087
	H57	H	0.881457	0.603114	0.570643
	H58	H	0.107844	0.419894	0.577131
	H59	H	0.881270	0.417369	0.397004
	H60	H	0.108356	0.416426	0.575179
	H61	H	0.884050	0.592795	0.570747
	H62	H	0.106614	0.598533	0.395653
	H63	H	0.883610	0.423895	0.398959
	H64	H	0.403105	0.599132	0.098117
	H65	H	0.582358	0.595603	0.875254
	H66	H	0.587846	0.429405	0.095166
	H67	H	0.403494	0.418737	0.869684
	H68	H	0.580868	0.119654	0.399584
	H69	H	0.584972	0.893757	0.580840
	H70	H	0.406221	0.122610	0.572215
	H71	H	0.398673	0.893980	0.392823
	H72	H	0.917403	0.619878	0.078398
	H73	H	0.083065	0.396729	0.068470
	H74	H	0.085945	0.621656	0.895901
	H75	H	0.897903	0.393167	0.896572
	H76	H	0.097355	0.922897	0.600282
	H77	H	0.081110	0.097743	0.373997
	H78	H	0.903298	0.099697	0.597931
	H79	H	0.911440	0.924090	0.374068
	H80	H	0.607907	0.100405	0.897858
	H81	H	0.385107	0.091110	0.079352
	H82	H	0.610616	0.921273	0.079738
	H83	H	0.382040	0.917782	0.894508
	H84	H	0.609904	0.915610	0.070736
	H85	H	0.381785	0.105184	0.073759
	H86	H	0.606726	0.095543	0.895855
	H87	H	0.382727	0.920697	0.893206
	H88	H	0.904505	0.094166	0.595113
	H89	H	0.086832	0.106971	0.369684
	H90	H	0.078527	0.927148	0.594199
	H91	H	0.905878	0.915502	0.369994
	H92	H	0.087225	0.623630	0.891608
	H93	H	0.087676	0.392837	0.075032
	H94	H	0.908980	0.616313	0.061067
	H95	H	0.911868	0.396073	0.889220
	H96	H	0.404198	0.123687	0.574128
	H97	H	0.577086	0.900312	0.571134
	H98	H	0.585134	0.122303	0.397242
	H99	H	0.409298	0.894891	0.387194
	H100	H	0.574938	0.424732	0.091967
	H101	H	0.582202	0.602153	0.872603
	H102	H	0.403634	0.600817	0.097887
	H103	H	0.403734	0.424544	0.872172
	H104	H	0.105853	0.598200	0.396344
	H105	H	0.879934	0.597904	0.579480
	H106	H	0.105560	0.419059	0.573679
	H107	H	0.880456	0.422703	0.392314
	H108	H	0.899218	0.625051	0.075336
	H109	H	0.079303	0.395684	0.076147
	H110	H	0.082516	0.622100	0.892596
	H111	H	0.909888	0.400689	0.904934
	H112	H	0.082572	0.908515	0.600464
	H113	H	0.092274	0.096954	0.371222
	H114	H	0.908981	0.098683	0.595127
	H115	H	0.900833	0.925217	0.371997
	H116	H	0.608500	0.099386	0.892448
	H117	H	0.388926	0.094534	0.064697
	H118	H	0.606795	0.925361	0.070720
	H119	H	0.381445	0.918620	0.891805
	C120	C	0.374499	0.018130	0.605623
	C121	C	0.616749	1.001036	0.605579
	C122	C	0.615953	0.017633	0.363324
	C123	C	0.374335	1.001158	0.362391
	C124	C	0.616173	0.389742	-0.007854
	C125	C	0.616969	0.631033	0.977500
	C126	C	0.372871	0.630661	-0.006927
	C127	C	0.373101	0.388009	0.975127
	C128	C	0.002757	0.631259	0.362310
	C129	C	0.986056	0.630000	0.605309
	C130	C	0.002949	0.387004	0.606845
	C131	C	0.985706	0.388571	0.364237
	C132	C	0.874284	0.517166	0.105863
	C133	C	0.115816	0.499899	0.105349
	C134	C	0.116515	0.517171	0.862074
	C135	C	0.874226	0.500780	0.864248
	C136	C	0.116560	0.888308	0.493197
	C137	C	0.117258	0.131228	0.476628
	C138	C	0.873500	0.130319	0.491909
	C139	C	0.873738	0.888688	0.475473
	C140	C	0.503789	0.131147	0.862434
	C141	C	0.488132	0.131815	0.106076
	C142	C	0.504481	0.888976	0.105273
	C143	C	0.486802	0.887509	0.862822
	C144	C	0.373495	0.898341	0.664352
	C145	C	0.620518	0.119190	0.666786
	C146	C	0.619891	0.899342	0.301712
	C147	C	0.373848	0.120749	0.304082
	C148	C	0.677878	0.386001	0.874865
	C149	C	0.678896	0.634942	0.094806
	C150	C	0.315637	0.631052	0.873156
	C151	C	0.312048	0.383852	0.092705
	C152	C	0.885193	0.693182	0.358115
	C153	C	0.104611	0.690161	0.607288
	C154	C	0.883879	0.327131	0.608885
	C155	C	0.104507	0.328682	0.362946
	C156	C	0.883895	0.385497	0.666365
	C157	C	0.104319	0.632523	0.665757
	C158	C	0.885767	0.635955	0.299400
	C159	C	0.104081	0.385189	0.304033
	C160	C	0.374230	0.688424	0.873479
	C161	C	0.619494	0.691283	0.095797
	C162	C	0.619765	0.328673	0.874201
	C163	C	0.370282	0.325995	0.092659
	C164	C	0.677299	0.899341	0.359349
	C165	C	0.678085	0.119120	0.608945
	C166	C	0.316311	0.898062	0.606031
	C167	C	0.316528	0.121072	0.362646
	C168	C	0.870298	0.398562	0.166973
	C169	C	0.117855	0.618916	0.165041
	C170	C	0.118156	0.397844	0.802813
	C171	C	0.871697	0.619673	0.803568
	C172	C	0.174516	0.887858	0.373981
	C173	C	0.175945	0.131768	0.595816
	C174	C	0.813348	0.133777	0.373522
	C175	C	0.814271	0.886508	0.594481
	C176	C	0.384581	0.190355	0.861045
	C177	C	0.605895	0.194019	0.109611
	C178	C	0.384898	0.830752	0.105759
	C179	C	0.606089	0.828767	0.862717
	C180	C	0.384901	0.888752	0.163261
	C181	C	0.605638	0.136897	0.168500
	C182	C	0.385120	0.133221	0.802247
	C183	C	0.606231	0.886606	0.804842
	C184	C	0.872141	0.190644	0.373318
	C185	C	0.117058	0.188735	0.596075
	C186	C	0.115852	0.830607	0.373779
	C187	C	0.872921	0.829466	0.594914
	C188	C	0.175467	0.397532	0.861158
	C189	C	0.174260	0.619787	0.106074
	C190	C	0.812227	0.398889	0.109696
	C191	C	0.814628	0.620129	0.862008
	C192	C	0.398893	0.101232	0.580978
	C193	C	0.590978	0.918398	0.580466
	C194	C	0.589633	0.099833	0.389563
	C195	C	0.398495	0.917230	0.386217
	C196	C	0.589886	0.415894	0.073915
	C197	C	0.591606	0.605914	0.894914
	C198	C	0.395877	0.606820	0.076400
	C199	C	0.398365	0.414014	0.893014
	C200	C	0.084610	0.605069	0.388249
	C201	C	0.903327	0.605116	0.580520
	C202	C	0.085828	0.411406	0.582265
	C203	C	0.903248	0.414107	0.389022
	C204	C	0.900979	0.599151	0.079340
	C205	C	0.090652	0.416785	0.080427
	C206	C	0.092122	0.600623	0.886362
	C207	C	0.899396	0.418161	0.889650
	C208	C	0.092993	0.912363	0.576503
	C209	C	0.093363	0.107423	0.393126
	C210	C	0.898394	0.104842	0.574554
	C211	C	0.898631	0.914241	0.393310
	C212	C	0.586205	0.105804	0.887852
	C213	C	0.406606	0.104844	0.079861
	C214	C	0.587517	0.913581	0.080861
	C215	C	0.403751	0.912062	0.886269
	Zn216	Zn	0.495754	0.009051	0.734246
	Zn217	Zn	0.496194	0.009894	0.234094
	Zn218	Zn	0.745622	0.509676	-0.015047
	Zn219	Zn	0.244027	0.509085	-0.016163
	Zn220	Zn	-0.005827	0.759819	0.484086
	Zn221	Zn	-0.005721	0.259204	0.485164
	Zn222	Zn	-0.005812	0.508886	0.735057
	Zn223	Zn	-0.005451	0.508615	0.234447
	Zn224	Zn	0.495539	0.759377	-0.014739
	Zn225	Zn	0.496035	0.259991	-0.016444
	Zn226	Zn	0.744354	0.009426	0.483580
	Zn227	Zn	0.245648	0.009804	0.484621
	N228	N	0.408824	0.973932	0.664297
	N229	N	0.582778	0.044749	0.664725
	N230	N	0.582429	0.974074	0.303959
	N231	N	0.408931	0.044994	0.303928
	N232	N	0.675909	0.423035	0.949322
	N233	N	0.677040	0.597828	0.020368
	N234	N	0.314543	0.595848	0.948537
	N235	N	0.313722	0.421564	0.018595
	N236	N	0.958876	0.690266	0.396679
	N237	N	0.030042	0.688637	0.570341
	N238	N	0.958795	0.327870	0.572825
	N239	N	0.030004	0.330689	0.399769
	N240	N	0.958962	0.421822	0.665394
	N241	N	0.029547	0.595874	0.664752
	N242	N	0.959743	0.597899	0.302086
	N243	N	0.029228	0.421720	0.304643
	N244	N	0.408600	0.688832	0.949139
	N245	N	0.581555	0.688777	0.021714
	N246	N	0.581959	0.330898	0.948111
	N247	N	0.407595	0.328504	0.018508
	N248	N	0.674597	0.973697	0.397368
	N249	N	0.675672	0.044638	0.571439
	N250	N	0.316890	0.973467	0.570058
	N251	N	0.316517	0.045450	0.398189
	N252	N	0.907852	0.473064	0.164855
	N253	N	0.082456	0.543243	0.164871
	N254	N	0.082412	0.473325	0.803232
	N255	N	0.908005	0.544484	0.804959
	N256	N	0.175378	0.922743	0.449458
	N257	N	0.176355	0.096910	0.520236
	N258	N	0.813998	0.097193	0.448359
	N259	N	0.814303	0.922264	0.519170
	N260	N	0.459539	0.189528	0.897495
	N261	N	0.531818	0.191105	0.071522
	N262	N	0.460233	0.830772	0.070482
	N263	N	0.530781	0.828961	0.897783
	N264	N	0.460397	0.924048	0.163252
	N265	N	0.531463	0.099106	0.166513
	N266	N	0.460224	0.097197	0.803120
	N267	N	0.530885	0.922215	0.804467
	N268	N	0.908625	0.188734	0.448100
	N269	N	0.081502	0.188744	0.520797
	N270	N	0.080836	0.830728	0.449086
	N271	N	0.908942	0.830631	0.520054
	N272	N	0.174566	0.472898	0.897319
	N273	N	0.173529	0.544487	0.069839
	N274	N	0.814363	0.473776	0.072512
	N275	N	0.815933	0.545295	0.898957
	O276	O	0.039230	0.078982	0.973279
	H277	H	0.039670	0.075266	0.980496
	H278	H	0.024409	0.075301	0.985502
	O279	O	0.628765	0.718017	0.690228
	H280	H	0.632168	0.729182	0.715080
	H281	H	0.630021	0.704767	0.689834
	O282	O	0.915844	1.137925	-0.006501
	H283	H	0.929898	1.142007	-0.023239
	H284	H	0.909464	1.122824	-0.020266
	O285	O	0.575994	0.341245	0.606850
	H286	H	0.569946	0.333528	0.600216
	H287	H	0.597926	0.350134	0.592382
	O288	O	-0.177071	-0.172039	0.006683
	H289	H	-0.181042	-0.159449	-0.001562
	H290	H	-0.168952	-0.191520	0.010420
	O291	O	1.558838	0.514131	0.693369
	H292	H	1.582062	0.511963	0.694274
	H293	H	1.536971	0.497101	0.693011
	O294	O	0.696410	0.310106	-0.611712
	H295	H	0.709102	0.327652	-0.637516
	H296	H	0.679573	0.296975	-0.631160
	O297	O	-0.167735	-0.080017	0.882505
	H298	H	-0.160895	-0.061669	0.881490
	H299	H	-0.164848	-0.080436	0.887971
	O300	O	0.710816	0.452885	0.268615
	H301	H	0.713774	0.478531	0.279170
	H302	H	0.730679	0.458241	0.241135
	O303	O	0.147990	-0.134866	1.174864
	H304	H	0.144348	-0.118729	1.174249
	H305	H	0.143003	-0.139547	1.158310
	O306	O	0.199840	1.211408	1.188506
	H307	H	0.220842	1.232053	1.190146
	H308	H	0.183102	1.227384	1.196170
	O309	O	0.423070	1.621601	1.443541
	H310	H	0.430201	1.612256	1.456218
	H311	H	0.417652	1.636137	1.447075
	O312	O	0.980304	0.080331	0.833152
	H313	H	0.972764	0.092984	0.827072
	H314	H	0.977325	0.069044	0.853407
	O315	O	0.197016	0.213975	1.009096
	H316	H	0.206927	0.228229	1.019845
	H317	H	0.189630	0.215065	1.009124
	O318	O	-0.582422	0.538398	0.653893
	H319	H	-0.587771	0.518092	0.660894
	H320	H	-0.583566	0.533726	0.645750
	O321	O	0.453596	0.601928	0.374793
	H322	H	0.466846	0.595884	0.361163
	H323	H	0.450351	0.618774	0.381787
	O324	O	1.265306	-0.229049	0.755236
	H325	H	1.267310	-0.198709	0.740401
	H326	H	1.286020	-0.236755	0.736337
	O327	O	1.289279	0.309938	0.526204
	H328	H	1.293563	0.310404	0.531619
	H329	H	1.277172	0.306956	0.529613
	O330	O	1.199970	-0.062178	-0.221099
	H331	H	1.203884	-0.033726	-0.202962
	H332	H	1.200473	-0.053722	-0.239250
	O333	O	0.867329	1.037050	1.020452
	H334	H	0.872205	1.038825	1.025215
	H335	H	0.869141	1.045226	1.014130
	O336	O	1.461202	0.296036	0.699837
	H337	H	1.468592	0.270683	0.717667
	H338	H	1.471543	0.295873	0.691326
	O339	O	0.466418	0.656667	0.621741
	H340	H	0.468252	0.666318	0.635976
	H341	H	0.472990	0.664550	0.617705
	O342	O	1.212361	0.791030	-0.051496
	H343	H	1.239179	0.765948	-0.067488
	H344	H	1.210134	0.793029	-0.088960
	O345	O	0.206036	0.045928	0.184266
	H346	H	0.221080	0.064935	0.186195
	H347	H	0.213401	0.068415	0.195627
	O348	O	1.273614	-0.467467	1.317609
	H349	H	1.257299	-0.472243	1.307732
	H350	H	1.267887	-0.448826	1.309264
	O351	O	1.028871	1.118870	-0.221479
	H352	H	1.024471	1.113333	-0.211388
	H353	H	1.029556	1.129302	-0.225517
	O354	O	0.342986	0.587584	0.501437
	H355	H	0.341463	0.580403	0.500163
	H356	H	0.344744	0.592877	0.485948
	O357	O	1.099343	0.891509	1.028110
	H358	H	1.116898	0.870213	1.008625
	H359	H	1.100801	0.896569	1.023357
	O360	O	0.531406	0.579791	0.422402
	H361	H	0.536357	0.582885	0.419998
	H362	H	0.539281	0.572435	0.424413
	O363	O	0.094109	0.998606	0.126788
	H364	H	0.092608	0.999814	0.129642
	H365	H	0.107624	1.020162	0.140355
	O366	O	1.041864	0.062973	1.033709
	H367	H	1.050829	0.050693	1.028342
	H368	H	1.043207	0.050903	1.042657
	O369	O	0.296307	0.342401	0.677290
	H370	H	0.291124	0.367917	0.676995
	H371	H	0.318913	0.333828	0.675344
	O372	O	0.648413	0.407372	0.650095
	H373	H	0.645582	0.409338	0.646697
	H374	H	0.647520	0.423761	0.625561
	O375	O	1.340633	0.693163	-0.372272
	H376	H	1.359539	0.673307	-0.376621
	H377	H	1.340840	0.682415	-0.390115
	O378	O	0.703296	-0.282755	-0.425898
	H379	H	0.718995	-0.260698	-0.427894
	H380	H	0.696690	-0.281576	-0.403031
	O381	O	0.817322	0.068431	-0.205160
	H382	H	0.842713	0.070653	-0.203559
	H383	H	0.798491	0.079040	-0.195064
	O384	O	-0.073051	0.070261	1.182663
	H385	H	-0.066679	0.063591	1.191633
	H386	H	-0.088603	0.053602	1.187707
	O387	O	-0.469618	0.309720	1.371897
	H388	H	-0.493615	0.310730	1.369753
	H389	H	-0.452231	0.310444	1.364684
	O390	O	-0.025315	-0.193410	1.181227
	H391	H	-0.024883	-0.199172	1.181094
	H392	H	-0.021443	-0.191343	1.181317
	O393	O	0.656405	0.587281	0.330564
	H394	H	0.656374	0.584771	0.366401
	H395	H	0.660691	0.615877	0.330046
	O396	O	0.309762	0.323086	0.298793
	H397	H	0.337825	0.344806	0.302949
	H398	H	0.319723	0.338182	0.323551
	O399	O	0.380862	0.541257	0.463053
	H400	H	0.386351	0.534407	0.467225
	H401	H	0.369166	0.542485	0.457036
	O402	O	-0.591151	0.563159	1.473755
	H403	H	-0.585792	0.570285	1.468312
	H404	H	-0.600609	0.567470	1.471130
	O405	O	-0.047081	-0.071458	-0.058248
	H406	H	-0.055014	-0.060298	-0.052018
	H407	H	-0.046134	-0.078523	-0.062120
	O408	O	0.614938	0.734055	0.353186
	H409	H	0.608562	0.743172	0.352989
	H410	H	0.612740	0.740906	0.334741
	O411	O	0.669140	0.338913	0.519577
	H412	H	0.679739	0.330956	0.514077
	H413	H	0.678754	0.328121	0.500064
	O414	O	1.030813	0.912026	0.824617
	H415	H	1.033965	0.919156	0.821374
	H416	H	1.031730	0.912663	0.826399
	O417	O	0.293714	0.711182	0.280332
	H418	H	0.272186	0.702490	0.259876
	H419	H	0.312792	0.721783	0.293405
	O420	O	0.494747	0.335454	0.269654
	H421	H	0.497731	0.319253	0.256356
	H422	H	0.489254	0.356697	0.261167
	O423	O	0.022380	0.799982	-0.091501
	H424	H	0.046211	0.799582	-0.107614
	H425	H	0.021853	0.796418	-0.087400
	O426	O	0.506769	1.508156	1.471254
	H427	H	0.507272	1.514205	1.475473
	H428	H	0.507872	1.510817	1.468671
	O429	O	0.016221	-0.796690	0.889750
	H430	H	0.023155	-0.800537	0.884995
	H431	H	0.027928	-0.808064	0.875380
	O432	O	0.638069	0.567920	0.459148
	H433	H	0.655830	0.576328	0.469562
	H434	H	0.631739	0.565474	0.464230
	O435	O	-0.112973	-0.189400	-0.162663
	H436	H	-0.111658	-0.185737	-0.150273
	H437	H	-0.088002	-0.179367	-0.159902
	O438	O	0.870854	0.184924	-0.059197
	H439	H	0.865548	0.200177	-0.058704
	H440	H	0.879525	0.193188	-0.064441
	O441	O	0.465383	0.721933	0.270998
	H442	H	0.473583	0.729284	0.274796
	H443	H	0.451421	0.736458	0.261086
	O444	O	-0.193317	0.875946	1.171465
	H445	H	-0.200412	0.887106	1.144870
	H446	H	-0.156952	0.874366	1.179362
	O447	O	0.808748	1.040704	1.183445
	H448	H	0.811537	1.024784	1.168911
	H449	H	0.798015	1.035375	1.187487
	O450	O	0.419209	0.466495	0.299553
	H451	H	0.413275	0.493496	0.285434
	H452	H	0.434601	0.474130	0.302272
	O453	O	0.853384	1.205334	-0.198821
	H454	H	0.877532	1.212422	-0.211472
	H455	H	0.851169	1.212976	-0.214479
	O456	O	0.706790	0.489465	0.587450
	H457	H	0.706701	0.496050	0.577363
	H458	H	0.715153	0.494274	0.581497
	O459	O	0.344273	0.444067	0.583572
	H460	H	0.347255	0.450044	0.591478
	H461	H	0.338787	0.449822	0.561873
	O462	O	0.030964	1.217433	1.190633
	H463	H	0.027722	1.220308	1.191040
	H464	H	0.032134	1.214527	1.200194
	O465	O	1.025400	0.037803	-0.126861
	H466	H	1.005251	0.041996	-0.124266
	H467	H	1.037686	0.065128	-0.113535
