data_Molecule from HDF5

_cell_length_a		16.437653
_cell_length_b		16.515226
_cell_length_c		16.485704
_cell_angle_alpha	90.016869
_cell_angle_beta	90.222735
_cell_angle_gamma	89.990001
_symmetry_space_group_name_H-M	'P 1'
_symmetry_Int_Tables_number		1

loop_
	_symmetry_equiv_pos_as_xyz
	x,y,z

loop_
	_atom_site_label
	_atom_site_type_symbol
	_atom_site_fract_x
	_atom_site_fract_y
	_atom_site_fract_z
	H0	H	0.394962	0.845030	0.706465
	H1	H	0.607995	0.158598	0.705475
	H2	H	0.607276	0.844161	0.262573
	H3	H	0.390053	0.156348	0.257403
	H4	H	0.724086	0.395878	0.829304
	H5	H	0.725374	0.609068	0.142709
	H6	H	0.281037	0.604410	0.827916
	H7	H	0.280050	0.394707	0.144014
	H8	H	0.845845	0.725602	0.377319
	H9	H	0.159958	0.720835	0.590143
	H10	H	0.844836	0.279845	0.588749
	H11	H	0.159227	0.278464	0.377573
	H12	H	0.844265	0.395528	0.705423
	H13	H	0.159445	0.604874	0.706153
	H14	H	0.846759	0.611274	0.259950
	H15	H	0.160253	0.394826	0.262691
	H16	H	0.393957	0.723702	0.829017
	H17	H	0.610263	0.725826	0.141750
	H18	H	0.608642	0.278190	0.830333
	H19	H	0.395459	0.277298	0.143333
	H20	H	0.726527	0.845675	0.376910
	H21	H	0.722563	0.158851	0.588420
	H22	H	0.281761	0.843962	0.586545
	H23	H	0.277727	0.158498	0.375716
	H24	H	0.894297	0.346113	0.209852
	H25	H	0.112154	0.657270	0.210018
	H26	H	0.105321	0.344491	0.764052
	H27	H	0.894869	0.660784	0.763521
	H28	H	0.223551	0.893685	0.327205
	H29	H	0.222562	0.104515	0.640920
	H30	H	0.775467	0.110290	0.328487
	H31	H	0.779901	0.895332	0.642653
	H32	H	0.345828	0.223005	0.879662
	H33	H	0.661101	0.221912	0.093121
	H34	H	0.345306	0.776869	0.091231
	H35	H	0.660018	0.779347	0.880562
	H36	H	0.345404	0.891486	0.208633
	H37	H	0.658813	0.108077	0.210984
	H38	H	0.345847	0.105949	0.763419
	H39	H	0.661670	0.896283	0.766117
	H40	H	0.889226	0.228987	0.329011
	H41	H	0.108698	0.224114	0.639979
	H42	H	0.109088	0.775969	0.329845
	H43	H	0.895176	0.779283	0.643314
	H44	H	0.222852	0.343703	0.879828
	H45	H	0.225567	0.658303	0.091045
	H46	H	0.780299	0.344904	0.090975
	H47	H	0.778844	0.659536	0.879191
	H48	H	0.413069	0.115816	0.576451
	H49	H	0.591592	0.887940	0.573776
	H50	H	0.586407	0.110929	0.397857
	H51	H	0.411464	0.889647	0.395959
	H52	H	0.591645	0.416137	0.097851
	H53	H	0.588523	0.589858	0.874134
	H54	H	0.423902	0.592948	0.095901
	H55	H	0.410348	0.411065	0.872686
	H56	H	0.112184	0.582553	0.400266
	H57	H	0.887581	0.595693	0.570846
	H58	H	0.115486	0.414071	0.574721
	H59	H	0.892014	0.415133	0.401128
	H60	H	0.116399	0.412803	0.575388
	H61	H	0.888725	0.586547	0.574224
	H62	H	0.117180	0.591093	0.393922
	H63	H	0.890892	0.419329	0.396152
	H64	H	0.408999	0.593978	0.102102
	H65	H	0.589905	0.589398	0.873208
	H66	H	0.588132	0.411295	0.098373
	H67	H	0.414252	0.412787	0.875168
	H68	H	0.586236	0.110498	0.400138
	H69	H	0.593942	0.886473	0.576918
	H70	H	0.416349	0.113114	0.572946
	H71	H	0.414326	0.889578	0.395422
	H72	H	0.922331	0.611905	0.075542
	H73	H	0.090174	0.390051	0.072377
	H74	H	0.097388	0.616249	0.897593
	H75	H	0.913627	0.390011	0.892243
	H76	H	0.094195	0.913496	0.598263
	H77	H	0.093027	0.088374	0.370076
	H78	H	0.914319	0.088851	0.595170
	H79	H	0.913692	0.912643	0.373525
	H80	H	0.618172	0.090044	0.892263
	H81	H	0.388123	0.090850	0.074720
	H82	H	0.611497	0.916210	0.066766
	H83	H	0.391445	0.911368	0.901322
	H84	H	0.612656	0.919467	0.076461
	H85	H	0.391975	0.090544	0.066932
	H86	H	0.616667	0.093819	0.899623
	H87	H	0.390049	0.917296	0.891830
	H88	H	0.917197	0.090619	0.595073
	H89	H	0.085944	0.088542	0.373045
	H90	H	0.090609	0.913762	0.596657
	H91	H	0.915108	0.915862	0.374625
	H92	H	0.089544	0.615272	0.890521
	H93	H	0.092184	0.388967	0.075383
	H94	H	0.914811	0.610987	0.065609
	H95	H	0.915937	0.391570	0.897374
	H96	H	0.411794	0.114291	0.571548
	H97	H	0.590417	0.887854	0.577414
	H98	H	0.587795	0.111928	0.399859
	H99	H	0.413070	0.890711	0.397850
	H100	H	0.593890	0.411728	0.100820
	H101	H	0.589429	0.588351	0.874750
	H102	H	0.414347	0.580251	0.096071
	H103	H	0.414181	0.408503	0.873059
	H104	H	0.113601	0.593353	0.404727
	H105	H	0.884522	0.593080	0.580157
	H106	H	0.114660	0.412395	0.574052
	H107	H	0.889970	0.412583	0.396181
	H108	H	0.910539	0.616236	0.076176
	H109	H	0.088537	0.390074	0.075398
	H110	H	0.088132	0.612721	0.900897
	H111	H	0.910283	0.389731	0.896734
	H112	H	0.092278	0.910208	0.597780
	H113	H	0.088446	0.094835	0.369407
	H114	H	0.914404	0.091863	0.596050
	H115	H	0.917101	0.912613	0.374116
	H116	H	0.614504	0.085396	0.898729
	H117	H	0.392306	0.083314	0.071973
	H118	H	0.615838	0.909999	0.073805
	H119	H	0.386117	0.907081	0.892007
	C120	C	0.381475	0.010286	0.605089
	C121	C	0.624123	0.991902	0.607146
	C122	C	0.621365	0.008619	0.365097
	C123	C	0.378776	0.992806	0.361813
	C124	C	0.624035	0.380303	-0.004815
	C125	C	0.623329	0.623155	0.977354
	C126	C	0.381853	0.621768	-0.005877
	C127	C	0.380296	0.378411	0.977681
	C128	C	0.011040	0.623292	0.364655
	C129	C	0.991988	0.623221	0.607263
	C130	C	0.010882	0.380659	0.606053
	C131	C	0.994414	0.381371	0.363872
	C132	C	0.881863	0.510025	0.106257
	C133	C	0.124176	0.492992	0.107468
	C134	C	0.123019	0.510317	0.864335
	C135	C	0.879732	0.494126	0.863002
	C136	C	0.124009	0.879557	0.493667
	C137	C	0.122739	0.123170	0.474468
	C138	C	0.880565	0.123873	0.492332
	C139	C	0.881240	0.880152	0.477224
	C140	C	0.512033	0.122611	0.864129
	C141	C	0.494078	0.121978	0.106515
	C142	C	0.509795	0.880501	0.105937
	C143	C	0.493472	0.879285	0.863225
	C144	C	0.377991	0.892023	0.665583
	C145	C	0.625919	0.110950	0.665914
	C146	C	0.625173	0.891309	0.302916
	C147	C	0.373605	0.109685	0.298781
	C148	C	0.684143	0.377579	0.876742
	C149	C	0.684995	0.626600	0.095363
	C150	C	0.320684	0.623532	0.875576
	C151	C	0.319974	0.376149	0.096251
	C152	C	0.893048	0.685282	0.359571
	C153	C	0.112168	0.681528	0.608864
	C154	C	0.892177	0.320161	0.607457
	C155	C	0.112415	0.319299	0.360111
	C156	C	0.891768	0.377999	0.665349
	C157	C	0.111902	0.624061	0.666516
	C158	C	0.893604	0.628095	0.301202
	C159	C	0.112890	0.377442	0.303065
	C160	C	0.377181	0.682712	0.876058
	C161	C	0.627702	0.684885	0.095007
	C162	C	0.626790	0.319054	0.877202
	C163	C	0.377431	0.317655	0.096216
	C164	C	0.684341	0.891869	0.360004
	C165	C	0.683253	0.111230	0.607736
	C166	C	0.321498	0.891427	0.605949
	C167	C	0.317065	0.110656	0.357482
	C168	C	0.877254	0.392749	0.168522
	C169	C	0.128537	0.610718	0.168588
	C170	C	0.124219	0.391504	0.804210
	C171	C	0.876803	0.612856	0.803221
	C172	C	0.183570	0.875955	0.375066
	C173	C	0.183041	0.124287	0.593597
	C174	C	0.816915	0.127759	0.375232
	C175	C	0.819624	0.876977	0.595317
	C176	C	0.393137	0.182658	0.861467
	C177	C	0.613139	0.182519	0.111106
	C178	C	0.392205	0.817882	0.109310
	C179	C	0.612559	0.819009	0.861638
	C180	C	0.392135	0.875319	0.167384
	C181	C	0.612042	0.125828	0.169776
	C182	C	0.392960	0.124554	0.803705
	C183	C	0.613196	0.877263	0.804631
	C184	C	0.873720	0.186928	0.375507
	C185	C	0.126545	0.183496	0.593021
	C186	C	0.126631	0.817259	0.376257
	C187	C	0.877593	0.819412	0.595832
	C188	C	0.182883	0.391413	0.861736
	C189	C	0.185401	0.611028	0.109794
	C190	C	0.820418	0.392263	0.109356
	C191	C	0.818808	0.612292	0.860773
	C192	C	0.406538	0.092955	0.580627
	C193	C	0.599392	0.909059	0.582828
	C194	C	0.594378	0.089988	0.391896
	C195	C	0.405483	0.911324	0.388697
	C196	C	0.598540	0.405665	0.077523
	C197	C	0.596862	0.596684	0.895297
	C198	C	0.408292	0.596285	0.076324
	C199	C	0.405612	0.403531	0.895234
	C200	C	0.092877	0.596699	0.391908
	C201	C	0.908698	0.598883	0.582275
	C202	C	0.093779	0.405728	0.581799
	C203	C	0.912415	0.407916	0.390134
	C204	C	0.908433	0.591876	0.080148
	C205	C	0.098005	0.411059	0.081831
	C206	C	0.098643	0.593069	0.889093
	C207	C	0.905799	0.411963	0.888090
	C208	C	0.099428	0.905322	0.576043
	C209	C	0.096636	0.097939	0.392157
	C210	C	0.907571	0.097783	0.574073
	C211	C	0.907689	0.906093	0.395367
	C212	C	0.594719	0.097194	0.889489
	C213	C	0.412177	0.095724	0.079064
	C214	C	0.591872	0.907421	0.079880
	C215	C	0.410918	0.904528	0.887851
	Zn216	Zn	0.502940	0.000655	0.735456
	Zn217	Zn	0.500984	0.001201	0.235124
	Zn218	Zn	0.752275	0.502393	-0.014461
	Zn219	Zn	0.252568	0.500736	-0.014034
	Zn220	Zn	0.001938	0.751482	0.486219
	Zn221	Zn	0.002053	0.252364	0.483725
	Zn222	Zn	0.001171	0.502368	0.734936
	Zn223	Zn	0.002896	0.502116	0.235978
	Zn224	Zn	0.502184	0.751480	-0.014858
	Zn225	Zn	0.503290	0.250798	-0.013370
	Zn226	Zn	0.752447	0.001355	0.485170
	Zn227	Zn	0.251589	0.001873	0.483687
	N228	N	0.414617	0.966824	0.665263
	N229	N	0.590247	0.035775	0.665891
	N230	N	0.586484	0.965008	0.306235
	N231	N	0.411020	0.035458	0.301281
	N232	N	0.682481	0.414938	0.951129
	N233	N	0.682341	0.588830	0.021103
	N234	N	0.323836	0.586010	0.949946
	N235	N	0.321702	0.413109	0.021640
	N236	N	0.967098	0.682482	0.398290
	N237	N	0.036445	0.681433	0.573064
	N238	N	0.967369	0.321510	0.571502
	N239	N	0.037681	0.321601	0.397088
	N240	N	0.966699	0.414686	0.664831
	N241	N	0.036266	0.588751	0.665657
	N242	N	0.967969	0.590277	0.304443
	N243	N	0.038510	0.415279	0.305286
	N244	N	0.414556	0.681721	0.950782
	N245	N	0.589885	0.682466	0.020627
	N246	N	0.590103	0.320752	0.951799
	N247	N	0.414237	0.318754	0.021453
	N248	N	0.682037	0.965713	0.398005
	N249	N	0.682583	0.036046	0.572002
	N250	N	0.323436	0.966067	0.569019
	N251	N	0.319985	0.036910	0.396038
	N252	N	0.914586	0.467074	0.166809
	N253	N	0.091267	0.536290	0.167403
	N254	N	0.087641	0.466379	0.805589
	N255	N	0.913827	0.538089	0.804155
	N256	N	0.181705	0.914470	0.448791
	N257	N	0.181082	0.087868	0.518764
	N258	N	0.821367	0.088820	0.448817
	N259	N	0.821831	0.914127	0.520667
	N260	N	0.468373	0.181874	0.897992
	N261	N	0.538707	0.180322	0.072836
	N262	N	0.466456	0.821241	0.071654
	N263	N	0.537010	0.819773	0.897019
	N264	N	0.466326	0.913591	0.165266
	N265	N	0.536900	0.089032	0.167326
	N266	N	0.467988	0.088094	0.805174
	N267	N	0.538057	0.913784	0.805052
	N268	N	0.912681	0.184586	0.449273
	N269	N	0.089845	0.182904	0.518137
	N270	N	0.090068	0.819593	0.451014
	N271	N	0.915025	0.821071	0.521360
	N272	N	0.182286	0.466104	0.898407
	N273	N	0.183085	0.536578	0.072760
	N274	N	0.823144	0.466357	0.071469
	N275	N	0.820139	0.537370	0.896884
	O276	O	0.568954	0.519843	0.459639
	H277	H	0.566276	0.537056	0.449153
	H278	H	0.563316	0.511307	0.472326
	O279	O	0.293817	0.574812	0.506848
	H280	H	0.293709	0.563235	0.523787
	H281	H	0.303804	0.567326	0.503483
	O282	O	1.173392	1.174839	-0.209810
	H283	H	1.159991	1.153761	-0.201005
	H284	H	1.154931	1.161955	-0.196591
	O285	O	0.786076	0.032641	0.762847
	H286	H	0.779019	0.035180	0.775775
	H287	H	0.760759	0.048434	0.743040
	O288	O	-0.193700	0.201735	-0.216794
	H289	H	-0.209427	0.191027	-0.206644
	H290	H	-0.219539	0.224707	-0.212931
	O291	O	1.058219	0.857716	-0.034377
	H292	H	1.051441	0.866430	-0.046149
	H293	H	1.040305	0.869178	-0.020688
	O294	O	0.532476	0.481075	-0.410483
	H295	H	0.541039	0.470435	-0.434152
	H296	H	0.517057	0.484602	-0.405541
	O297	O	0.475731	0.287364	0.704761
	H298	H	0.466274	0.261339	0.718981
	H299	H	0.431741	0.284772	0.707263
	O300	O	0.504220	0.510417	0.375924
	H301	H	0.492306	0.510151	0.365966
	H302	H	0.504646	0.514984	0.384005
	O303	O	0.216002	0.217366	1.005246
	H304	H	0.217161	0.235941	0.997767
	H305	H	0.225131	0.223269	1.031681
	O306	O	-0.209011	0.979568	1.193577
	H307	H	-0.203345	0.956222	1.190110
	H308	H	-0.219996	0.974334	1.215447
	O309	O	1.210858	0.972881	0.779332
	H310	H	1.211865	0.987334	0.790151
	H311	H	1.213251	0.979170	0.775760
	O312	O	0.711573	0.543804	0.680120
	H313	H	0.741504	0.544283	0.718300
	H314	H	0.680527	0.538301	0.683943
	O315	O	0.027194	0.215911	1.201714
	H316	H	0.014265	0.208458	1.189367
	H317	H	0.036208	0.243276	1.227476
	O318	O	-0.324637	0.339188	0.655248
	H319	H	-0.346448	0.358015	0.654122
	H320	H	-0.335193	0.350577	0.633412
	O321	O	0.289781	0.298718	0.519138
	H322	H	0.289896	0.283296	0.501062
	H323	H	0.284834	0.289841	0.497808
	O324	O	0.945676	-0.049068	0.974257
	H325	H	0.933071	-0.042522	0.974644
	H326	H	0.950295	-0.047016	0.972597
	O327	O	1.532931	0.720547	0.704244
	H328	H	1.534649	0.745317	0.734676
	H329	H	1.560499	0.714285	0.696389
	O330	O	1.221815	0.067167	-0.072976
	H331	H	1.228379	0.090334	-0.058934
	H332	H	1.208025	0.052824	-0.054845
	O333	O	1.222672	0.943112	1.049222
	H334	H	1.217741	0.931584	1.044484
	H335	H	1.217198	0.944676	1.044785
	O336	O	1.206521	-0.207042	0.963073
	H337	H	1.208860	-0.223731	0.967230
	H338	H	1.212073	-0.199469	0.937287
	O339	O	0.365603	0.692770	0.514747
	H340	H	0.355772	0.699439	0.530838
	H341	H	0.370731	0.687956	0.536943
	O342	O	0.533776	0.350755	0.511769
	H343	H	0.521652	0.360689	0.525707
	H344	H	0.549266	0.358217	0.513788
	O345	O	0.034079	0.077623	-0.209239
	H346	H	0.022696	0.091716	-0.207833
	H347	H	0.016373	0.066722	-0.214624
	O348	O	0.879421	-0.064631	0.831571
	H349	H	0.879069	-0.086578	0.841299
	H350	H	0.863797	-0.056057	0.838721
	O351	O	0.972920	1.217411	0.008841
	H352	H	0.984269	1.207635	-0.011452
	H353	H	0.969744	1.207529	0.001176
	O354	O	0.677232	0.411997	0.556081
	H355	H	0.684162	0.413854	0.567088
	H356	H	0.679299	0.422618	0.561202
	O357	O	0.793395	1.213841	0.953316
	H358	H	0.784602	1.233796	0.958494
	H359	H	0.801510	1.209092	0.970924
	O360	O	-0.044716	0.044562	0.212792
	H361	H	-0.051951	0.054723	0.220223
	H362	H	-0.035184	0.045008	0.212355
	O363	O	-0.014324	1.214583	0.016848
	H364	H	0.013414	1.221276	0.006046
	H365	H	-0.006154	1.213380	0.007091
	O366	O	1.034191	-0.219117	0.767199
	H367	H	1.050443	-0.205048	0.762763
	H368	H	1.030216	-0.246500	0.739011
	O369	O	0.422513	0.355846	0.423208
	H370	H	0.424815	0.358528	0.427772
	H371	H	0.441904	0.354260	0.424136
	O372	O	0.316747	0.697514	0.311515
	H373	H	0.296609	0.677195	0.296718
	H374	H	0.312314	0.705931	0.362208
	O375	O	1.201813	0.803586	-0.208625
	H376	H	1.210441	0.835867	-0.204787
	H377	H	1.190690	0.796698	-0.222558
	O378	O	0.645614	0.301114	0.432181
	H379	H	0.649230	0.318073	0.430842
	H380	H	0.656840	0.302381	0.425940
	O381	O	0.945026	-0.116032	-0.027231
	H382	H	0.937703	-0.104643	-0.038180
	H383	H	0.958031	-0.109733	-0.028542
	O384	O	-0.012598	-0.209503	1.193732
	H385	H	-0.016942	-0.225056	1.198536
	H386	H	-0.003059	-0.204810	1.197873
	O387	O	-0.484875	0.638183	1.527741
	H388	H	-0.482894	0.660750	1.534327
	H389	H	-0.505529	0.636222	1.532093
	O390	O	0.183762	0.184459	1.165364
	H391	H	0.151905	0.189778	1.166869
	H392	H	0.189056	0.150927	1.160638
	O393	O	0.868120	0.794723	-0.052402
	H394	H	0.868950	0.778597	-0.052115
	H395	H	0.874670	0.807050	-0.032367
	O396	O	0.495185	0.694006	0.274374
	H397	H	0.478346	0.715175	0.251333
	H398	H	0.460136	0.684579	0.282812
	O399	O	0.684275	0.581419	0.411975
	H400	H	0.680795	0.583417	0.404173
	H401	H	0.684099	0.582331	0.403708
	O402	O	-0.394200	0.383298	1.332784
	H403	H	-0.419864	0.383351	1.337011
	H404	H	-0.387357	0.393543	1.351555
	O405	O	0.084201	-0.075256	0.178823
	H406	H	0.094587	-0.067596	0.171969
	H407	H	0.069390	-0.071622	0.171702
	O408	O	0.605126	0.588210	0.307812
	H409	H	0.595953	0.577534	0.309458
	H410	H	0.597175	0.585975	0.316545
	O411	O	0.555686	0.454633	0.709715
	H412	H	0.535143	0.432070	0.718169
	H413	H	0.541173	0.472896	0.699406
	O414	O	0.425926	0.527808	0.466372
	H415	H	0.421473	0.523903	0.470046
	H416	H	0.437509	0.531975	0.455531
	O417	O	0.431089	0.552609	0.382715
	H418	H	0.439926	0.540835	0.386841
	H419	H	0.435783	0.563956	0.377692
	O420	O	0.523751	0.279640	0.272591
	H421	H	0.524243	0.284204	0.289052
	H422	H	0.528351	0.253591	0.245357
	O423	O	-0.184184	0.815552	0.171779
	H424	H	-0.168875	0.815169	0.152200
	H425	H	-0.181792	0.799885	0.186054
	O426	O	0.290913	1.549130	1.270731
	H427	H	0.276329	1.559060	1.246754
	H428	H	0.288058	1.538677	1.274677
	O429	O	-0.130437	-1.184582	0.981362
	H430	H	-0.128720	-1.177884	0.954362
	H431	H	-0.144870	-1.190795	0.968993
	O432	O	0.709663	0.698227	0.506527
	H433	H	0.719106	0.717197	0.503354
	H434	H	0.697710	0.696040	0.478837
	O435	O	-0.213033	0.062658	0.033979
	H436	H	-0.211733	0.067548	0.042191
	H437	H	-0.209366	0.058987	0.039607
	O438	O	1.214965	0.024305	0.198235
	H439	H	1.206590	0.010940	0.180410
	H440	H	1.247868	0.024757	0.223119
	O441	O	0.351405	0.676094	0.624132
	H442	H	0.363373	0.674489	0.620212
	H443	H	0.356554	0.652650	0.620573
	O444	O	-0.003423	1.019642	0.949666
	H445	H	-0.014610	1.016166	0.943677
	H446	H	-0.000375	1.005298	0.951007
	O447	O	1.023666	0.980221	1.056837
	H448	H	1.022127	0.979066	1.068394
	H449	H	1.022191	0.964315	1.049816
	O450	O	0.717733	0.474054	0.276140
	H451	H	0.733379	0.482232	0.266525
	H452	H	0.711368	0.465273	0.265787
	O453	O	0.401937	0.399249	0.348786
	H454	H	0.410318	0.406690	0.360934
	H455	H	0.400280	0.408407	0.358202
	O456	O	0.297792	0.488004	0.674539
	H457	H	0.285566	0.465032	0.674230
	H458	H	0.302357	0.477452	0.680208
	O459	O	0.684914	0.679720	0.665738
	H460	H	0.688284	0.688835	0.626578
	H461	H	0.687700	0.649145	0.668111
	O462	O	0.305560	1.304414	1.687423
	H463	H	0.294538	1.301216	1.640146
	H464	H	0.274942	1.286137	1.712063
	O465	O	0.975176	0.216370	-0.228112
	H466	H	0.961086	0.243658	-0.258883
	H467	H	0.933733	0.203347	-0.219638
