data_Molecule from HDF5

_cell_length_a		16.491540
_cell_length_b		16.272705
_cell_length_c		16.158768
_cell_angle_alpha	90.214896
_cell_angle_beta	89.821362
_cell_angle_gamma	89.964133
_symmetry_space_group_name_H-M	'P 1'
_symmetry_Int_Tables_number		1

loop_
	_symmetry_equiv_pos_as_xyz
	x,y,z

loop_
	_atom_site_label
	_atom_site_type_symbol
	_atom_site_fract_x
	_atom_site_fract_y
	_atom_site_fract_z
	H0	H	0.393961	0.824902	0.714737
	H1	H	0.590747	0.152008	0.718965
	H2	H	0.595213	0.827300	0.283586
	H3	H	0.393044	0.152909	0.287670
	H4	H	0.713269	0.385767	0.840385
	H5	H	0.711892	0.595195	0.165790
	H6	H	0.275898	0.592118	0.841362
	H7	H	0.275472	0.384577	0.164923
	H8	H	0.834992	0.711104	0.399561
	H9	H	0.153199	0.710176	0.608429
	H10	H	0.833796	0.269970	0.610464
	H11	H	0.153441	0.270182	0.401738
	H12	H	0.833280	0.391543	0.721464
	H13	H	0.155675	0.591097	0.720309
	H14	H	0.834035	0.593821	0.285132
	H15	H	0.154336	0.387141	0.284528
	H16	H	0.396571	0.700880	0.838161
	H17	H	0.594889	0.708303	0.164766
	H18	H	0.594373	0.272825	0.838016
	H19	H	0.393204	0.272469	0.165363
	H20	H	0.716667	0.830580	0.393535
	H21	H	0.712027	0.149995	0.609033
	H22	H	0.273260	0.827972	0.606125
	H23	H	0.272687	0.150582	0.399058
	H24	H	0.894051	0.326815	0.220230
	H25	H	0.092654	0.653223	0.219857
	H26	H	0.093285	0.326632	0.786402
	H27	H	0.896671	0.653812	0.789705
	H28	H	0.212724	0.882017	0.342054
	H29	H	0.210784	0.093034	0.665736
	H30	H	0.771554	0.098630	0.342834
	H31	H	0.770877	0.885000	0.663958
	H32	H	0.333559	0.210041	0.897133
	H33	H	0.651546	0.210189	0.106373
	H34	H	0.333081	0.771360	0.102554
	H35	H	0.652339	0.768010	0.895391
	H36	H	0.333141	0.885315	0.221111
	H37	H	0.651711	0.094431	0.222949
	H38	H	0.330934	0.086791	0.787861
	H39	H	0.652419	0.886012	0.782773
	H40	H	0.890311	0.209071	0.342124
	H41	H	0.093074	0.205594	0.667619
	H42	H	0.093596	0.772653	0.341068
	H43	H	0.891491	0.775297	0.667796
	H44	H	0.214125	0.328218	0.897542
	H45	H	0.214217	0.650335	0.109901
	H46	H	0.773014	0.329369	0.110093
	H47	H	0.773858	0.650652	0.898314
	H48	H	0.390380	0.107930	0.594230
	H49	H	0.591251	0.870355	0.593664
	H50	H	0.573835	0.099080	0.419766
	H51	H	0.400935	0.872589	0.407214
	H52	H	0.587117	0.398061	0.119468
	H53	H	0.589171	0.570709	0.888278
	H54	H	0.404508	0.583648	0.120146
	H55	H	0.396169	0.396203	0.882993
	H56	H	0.105518	0.575998	0.414444
	H57	H	0.879851	0.580998	0.598108
	H58	H	0.111529	0.389264	0.599429
	H59	H	0.878469	0.395014	0.412572
	H60	H	0.105623	0.395663	0.585730
	H61	H	0.878988	0.584939	0.596768
	H62	H	0.109337	0.582233	0.410502
	H63	H	0.882234	0.399969	0.416815
	H64	H	0.398815	0.578080	0.120193
	H65	H	0.579273	0.577714	0.889214
	H66	H	0.584365	0.404172	0.117715
	H67	H	0.402997	0.408172	0.889174
	H68	H	0.592421	0.105505	0.419935
	H69	H	0.575500	0.874790	0.594510
	H70	H	0.403631	0.106112	0.602501
	H71	H	0.407494	0.877127	0.415543
	H72	H	0.906468	0.603506	0.090956
	H73	H	0.089677	0.374209	0.090978
	H74	H	0.088354	0.604359	0.917819
	H75	H	0.904158	0.374231	0.910901
	H76	H	0.087541	0.905439	0.620577
	H77	H	0.080502	0.083374	0.387100
	H78	H	0.901610	0.079388	0.620102
	H79	H	0.906387	0.902042	0.389465
	H80	H	0.605935	0.076478	0.908300
	H81	H	0.382532	0.079431	0.083723
	H82	H	0.606481	0.896138	0.088192
	H83	H	0.378120	0.894767	0.909943
	H84	H	0.605443	0.901945	0.091013
	H85	H	0.379264	0.073410	0.098686
	H86	H	0.607656	0.082681	0.908591
	H87	H	0.378144	0.895080	0.909340
	H88	H	0.901435	0.078478	0.618839
	H89	H	0.088917	0.077966	0.385755
	H90	H	0.078747	0.901513	0.617624
	H91	H	0.904709	0.898815	0.387412
	H92	H	0.088814	0.606184	0.911860
	H93	H	0.085850	0.373437	0.096199
	H94	H	0.897623	0.605006	0.091366
	H95	H	0.906483	0.376851	0.916057
	H96	H	0.403076	0.101231	0.587312
	H97	H	0.584362	0.877317	0.580250
	H98	H	0.581133	0.107563	0.403667
	H99	H	0.396518	0.874737	0.417456
	H100	H	0.580736	0.397832	0.117890
	H101	H	0.589498	0.583111	0.884417
	H102	H	0.406153	0.576675	0.117533
	H103	H	0.410481	0.394824	0.886887
	H104	H	0.105864	0.583244	0.418425
	H105	H	0.880819	0.581725	0.593799
	H106	H	0.106976	0.404653	0.599136
	H107	H	0.879772	0.401576	0.409971
	H108	H	0.902750	0.607057	0.098566
	H109	H	0.082982	0.375875	0.090566
	H110	H	0.083696	0.604072	0.914207
	H111	H	0.900655	0.374611	0.915575
	H112	H	0.085867	0.895031	0.622416
	H113	H	0.081038	0.073895	0.390456
	H114	H	0.902720	0.078622	0.619040
	H115	H	0.901846	0.902243	0.388207
	H116	H	0.604801	0.079517	0.914390
	H117	H	0.376725	0.088074	0.094924
	H118	H	0.607993	0.897295	0.094211
	H119	H	0.377592	0.894172	0.909510
	C120	C	0.369752	-0.002334	0.624030
	C121	C	0.613671	0.980809	0.622618
	C122	C	0.614951	-0.001740	0.380716
	C123	C	0.371037	0.981587	0.381931
	C124	C	0.615037	0.368542	0.010871
	C125	C	0.615981	0.610241	0.994074
	C126	C	0.373393	0.609611	0.011628
	C127	C	0.372710	0.368554	0.993747
	C128	C	0.001745	0.611655	0.383178
	C129	C	0.986069	0.612821	0.626405
	C130	C	0.001892	0.367895	0.625841
	C131	C	0.985568	0.367536	0.381907
	C132	C	0.872048	0.498165	0.125065
	C133	C	0.116173	0.481344	0.125060
	C134	C	0.116594	0.497765	0.882399
	C135	C	0.873711	0.482058	0.883182
	C136	C	0.114571	0.868513	0.512763
	C137	C	0.113526	0.109928	0.495368
	C138	C	0.871263	0.111190	0.512484
	C139	C	0.872369	0.869612	0.495438
	C140	C	0.500704	0.110070	0.880154
	C141	C	0.484467	0.111822	0.123890
	C142	C	0.501145	0.867593	0.122788
	C143	C	0.483690	0.864730	0.878480
	C144	C	0.372762	0.874414	0.678531
	C145	C	0.611493	0.102908	0.680802
	C146	C	0.614923	0.876419	0.322023
	C147	C	0.372317	0.103587	0.324997
	C148	C	0.673666	0.367212	0.888555
	C149	C	0.672936	0.612787	0.116673
	C150	C	0.315509	0.610075	0.889482
	C151	C	0.314897	0.366793	0.116383
	C152	C	0.882319	0.671062	0.381618
	C153	C	0.105849	0.670635	0.626789
	C154	C	0.881621	0.310063	0.628030
	C155	C	0.105636	0.309154	0.381881
	C156	C	0.881183	0.370454	0.683336
	C157	C	0.107027	0.611331	0.682677
	C158	C	0.881968	0.612786	0.324159
	C159	C	0.106256	0.367458	0.323792
	C160	C	0.375537	0.664397	0.887743
	C161	C	0.615070	0.669598	0.116098
	C162	C	0.614723	0.310951	0.887692
	C163	C	0.373291	0.310938	0.116507
	C164	C	0.675889	0.878299	0.376338
	C165	C	0.672044	0.102028	0.626076
	C166	C	0.312645	0.875975	0.624160
	C167	C	0.312395	0.102539	0.380552
	C168	C	0.873445	0.376080	0.182457
	C169	C	0.113943	0.603742	0.182347
	C170	C	0.114573	0.375685	0.824260
	C171	C	0.875366	0.604691	0.826844
	C172	C	0.172853	0.865711	0.390567
	C173	C	0.171453	0.111357	0.617363
	C174	C	0.811896	0.115233	0.390830
	C175	C	0.811779	0.867477	0.616321
	C176	C	0.380898	0.169028	0.879348
	C177	C	0.603844	0.171125	0.125590
	C178	C	0.381041	0.809749	0.122613
	C179	C	0.604449	0.807511	0.877309
	C180	C	0.381053	0.866862	0.181297
	C181	C	0.603877	0.113149	0.183401
	C182	C	0.379354	0.107997	0.824698
	C183	C	0.604424	0.865973	0.820647
	C184	C	0.870837	0.170231	0.390712
	C185	C	0.112782	0.167328	0.618266
	C186	C	0.113888	0.810770	0.389966
	C187	C	0.871909	0.812861	0.618126
	C188	C	0.174338	0.376310	0.880040
	C189	C	0.174626	0.602252	0.127580
	C190	C	0.813155	0.377174	0.127508
	C191	C	0.814441	0.602846	0.881244
	C192	C	0.392602	0.082966	0.601208
	C193	C	0.590568	0.896148	0.596799
	C194	C	0.589884	0.082194	0.406889
	C195	C	0.394904	0.896860	0.406321
	C196	C	0.591044	0.392843	0.096114
	C197	C	0.592791	0.584786	0.909158
	C198	C	0.396462	0.586356	0.097063
	C199	C	0.396502	0.392839	0.908400
	C200	C	0.085173	0.587489	0.407533
	C201	C	0.901881	0.589558	0.602920
	C202	C	0.086226	0.390116	0.601884
	C203	C	0.902158	0.391682	0.406070
	C204	C	0.895539	0.583031	0.100670
	C205	C	0.092907	0.396382	0.099882
	C206	C	0.093668	0.582751	0.907488
	C207	C	0.897076	0.397187	0.907136
	C208	C	0.090898	0.893352	0.598111
	C209	C	0.090160	0.085470	0.409974
	C210	C	0.894843	0.085830	0.597166
	C211	C	0.897111	0.894176	0.410379
	C212	C	0.584376	0.086475	0.903753
	C213	C	0.401160	0.087362	0.099424
	C214	C	0.584781	0.891740	0.098479
	C215	C	0.399922	0.887725	0.902521
	Zn216	Zn	0.491598	-0.011821	0.751297
	Zn217	Zn	0.492337	-0.010555	0.252899
	Zn218	Zn	0.744091	0.489205	0.003581
	Zn219	Zn	0.245114	0.489015	0.003696
	Zn220	Zn	-0.006176	0.741546	0.504377
	Zn221	Zn	-0.007468	0.238307	0.504459
	Zn222	Zn	-0.005368	0.490699	0.754217
	Zn223	Zn	-0.006345	0.490155	0.252736
	Zn224	Zn	0.493998	0.737538	0.001490
	Zn225	Zn	0.492868	0.240524	0.001642
	Zn226	Zn	0.743602	-0.009618	0.502466
	Zn227	Zn	0.241778	-0.010482	0.503360
	N228	N	0.407460	0.951173	0.678818
	N229	N	0.576109	0.026368	0.678954
	N230	N	0.577941	0.951998	0.324535
	N231	N	0.407820	0.027135	0.325636
	N232	N	0.674320	0.401870	0.966327
	N233	N	0.673564	0.576563	0.039705
	N234	N	0.314146	0.576605	0.967463
	N235	N	0.314283	0.401801	0.038970
	N236	N	0.957800	0.670330	0.417689
	N237	N	0.029520	0.671889	0.592717
	N238	N	0.957618	0.308432	0.592839
	N239	N	0.029657	0.308940	0.417151
	N240	N	0.957097	0.405436	0.682207
	N241	N	0.031323	0.576045	0.682398
	N242	N	0.957191	0.576292	0.325150
	N243	N	0.030636	0.402939	0.323578
	N244	N	0.410956	0.664089	0.964577
	N245	N	0.580658	0.668438	0.038762
	N246	N	0.579067	0.311540	0.964666
	N247	N	0.408409	0.311957	0.039247
	N248	N	0.676413	0.955278	0.411930
	N249	N	0.673571	0.024945	0.590728
	N250	N	0.310759	0.953775	0.590994
	N251	N	0.311302	0.025521	0.415090
	N252	N	0.909107	0.452552	0.181246
	N253	N	0.078278	0.527326	0.180918
	N254	N	0.079268	0.452261	0.825642
	N255	N	0.911555	0.528586	0.827900
	N256	N	0.173334	0.900958	0.468027
	N257	N	0.171992	0.076454	0.539816
	N258	N	0.811954	0.079005	0.467496
	N259	N	0.811887	0.902025	0.538758
	N260	N	0.457350	0.170484	0.913221
	N261	N	0.528606	0.170254	0.089405
	N262	N	0.456871	0.809873	0.087026
	N263	N	0.528629	0.806607	0.912526
	N264	N	0.456864	0.902008	0.181677
	N265	N	0.528631	0.076714	0.182384
	N266	N	0.454697	0.071848	0.825233
	N267	N	0.528316	0.900842	0.820981
	N268	N	0.907101	0.167857	0.467140
	N269	N	0.077387	0.166460	0.541348
	N270	N	0.078378	0.812406	0.467045
	N271	N	0.908671	0.813889	0.541678
	N272	N	0.175794	0.453428	0.915211
	N273	N	0.176103	0.524993	0.092763
	N274	N	0.812104	0.454100	0.092852
	N275	N	0.813347	0.525520	0.915540
	O276	O	0.667680	0.468906	0.465924
	H277	H	0.688537	0.471139	0.464378
	H278	H	0.662618	0.475425	0.484887
	O279	O	0.378171	0.519457	0.536488
	H280	H	0.362928	0.519559	0.530664
	H281	H	0.385540	0.523609	0.520909
	O282	O	1.003102	-0.077092	0.813315
	H283	H	1.003017	-0.079498	0.818228
	H284	H	0.996321	-0.073762	0.804265
	O285	O	1.132746	0.939467	1.012318
	H286	H	1.141404	0.955256	0.997120
	H287	H	1.129950	0.930872	1.010627
	O288	O	1.165219	0.885465	0.935727
	H289	H	1.159605	0.885870	0.941321
	H290	H	1.159455	0.891342	0.933358
	O291	O	-0.194508	0.868041	0.101832
	H292	H	-0.187069	0.884179	0.108570
	H293	H	-0.172818	0.864216	0.087691
	O294	O	0.564388	0.376468	0.433936
	H295	H	0.564943	0.368205	0.429739
	H296	H	0.566278	0.392501	0.436821
	O297	O	0.392418	0.484390	0.428792
	H298	H	0.390955	0.492327	0.416722
	H299	H	0.393723	0.490413	0.421948
	O300	O	0.497974	0.425450	0.654193
	H301	H	0.483852	0.427720	0.641448
	H302	H	0.513334	0.429634	0.649964
	O303	O	0.495502	0.363939	0.351425
	H304	H	0.487208	0.363559	0.341376
	H305	H	0.505911	0.374095	0.347155
	O306	O	0.675936	0.632766	0.546763
	H307	H	0.683402	0.655795	0.560009
	H308	H	0.666497	0.627489	0.544000
	O309	O	0.493448	0.508638	0.493515
	H310	H	0.490517	0.510767	0.500278
	H311	H	0.485665	0.515535	0.504958
	O312	O	-0.018933	0.021342	0.061353
	H313	H	-0.019364	0.013245	0.067244
	H314	H	-0.012289	0.042228	0.067400
	O315	O	0.781729	1.160000	-0.022690
	H316	H	0.781036	1.149572	-0.027345
	H317	H	0.768443	1.169932	-0.031176
	O318	O	0.002278	1.136150	1.172211
	H319	H	-0.018011	1.140763	1.193603
	H320	H	-0.016379	1.140911	1.147055
	O321	O	1.007099	-0.147904	1.084369
	H322	H	1.015349	-0.146394	1.068281
	H323	H	1.025233	-0.151306	1.086126
	O324	O	0.562319	0.357289	-0.488052
	H325	H	0.547952	0.356592	-0.487159
	H326	H	0.568767	0.354280	-0.494230
	O327	O	0.370913	0.494085	0.500833
	H328	H	0.359475	0.503058	0.511235
	H329	H	0.356603	0.495760	0.480399
	O330	O	-0.098678	-0.015750	1.131857
	H331	H	-0.106217	-0.028335	1.142128
	H332	H	-0.083540	-0.005043	1.141467
	O333	O	-0.137720	-0.045349	1.031170
	H334	H	-0.134692	-0.036682	1.034187
	H335	H	-0.148464	-0.060864	1.025719
	O336	O	0.501183	0.540642	0.448605
	H337	H	0.515081	0.542547	0.467208
	H338	H	0.509265	0.555431	0.447276
	O339	O	0.829209	0.062418	-0.132959
	H340	H	0.824232	0.085854	-0.135946
	H341	H	0.827569	0.048271	-0.112894
	O342	O	0.023904	0.137305	0.074773
	H343	H	0.027429	0.138062	0.067373
	H344	H	0.019157	0.148293	0.071093
	O345	O	0.973667	0.049325	1.184899
	H346	H	0.956539	0.042954	1.188828
	H347	H	0.971972	0.035960	1.191105
	O348	O	1.072988	1.066078	0.028843
	H349	H	1.082904	1.054397	0.028503
	H350	H	1.072890	1.076526	0.023521
	O351	O	0.539150	0.550782	0.524574
	H352	H	0.528074	0.555439	0.511380
	H353	H	0.535874	0.538760	0.532809
	O354	O	1.061675	0.083388	1.037691
	H355	H	1.075065	0.103306	1.040526
	H356	H	1.067188	0.088948	1.043480
	O357	O	0.404304	0.450962	0.406924
	H358	H	0.410778	0.460653	0.413125
	H359	H	0.413638	0.450448	0.401196
	O360	O	0.511840	0.519460	0.551833
	H361	H	0.519622	0.528940	0.558584
	H362	H	0.517975	0.517872	0.559749
	O363	O	-0.091227	0.832817	0.963566
	H364	H	-0.105120	0.827370	0.959322
	H365	H	-0.101711	0.852154	0.977254
	O366	O	0.431761	0.442560	0.628950
	H367	H	0.445416	0.432085	0.611691
	H368	H	0.415804	0.428212	0.646670
	O369	O	-0.086319	0.894475	0.021340
	H370	H	-0.088694	0.910815	-0.002550
	H371	H	-0.083769	0.873995	0.019241
	O372	O	0.084939	1.170775	0.147731
	H373	H	0.075445	1.179169	0.143283
	H374	H	0.055587	1.171097	0.153399
	O375	O	0.362924	0.527868	0.540007
	H376	H	0.356121	0.521728	0.550188
	H377	H	0.356345	0.521821	0.529470
	O378	O	0.386220	0.433629	0.555443
	H379	H	0.385057	0.424403	0.563478
	H380	H	0.388707	0.436298	0.554905
	O381	O	1.017248	0.012520	-0.077353
	H382	H	1.012048	0.001426	-0.085056
	H383	H	1.019345	-0.001805	-0.073555
	O384	O	0.917060	1.046088	-0.110407
	H385	H	0.908584	1.043090	-0.118493
	H386	H	0.923320	1.034286	-0.104624
	O387	O	-0.061118	-0.057565	-0.164470
	H388	H	-0.049148	-0.055473	-0.163650
	H389	H	-0.078177	-0.046303	-0.162386
	O390	O	0.084873	0.906638	-0.008112
	H391	H	0.096789	0.913669	-0.012187
	H392	H	0.078441	0.915068	-0.009957
	O393	O	1.039598	0.915470	0.925746
	H394	H	1.025417	0.911828	0.954667
	H395	H	1.036719	0.899678	0.922518
	O396	O	0.521507	0.538664	0.325651
	H397	H	0.541949	0.542462	0.320350
	H398	H	0.529439	0.536891	0.323711
	O399	O	0.115994	0.958807	0.929366
	H400	H	0.131488	0.949704	0.935400
	H401	H	0.117710	0.957157	0.925716
	O402	O	0.613867	0.465104	0.460290
	H403	H	0.605019	0.468970	0.459665
	H404	H	0.619875	0.450921	0.449215
	O405	O	1.390307	1.549957	0.507944
	H406	H	1.368654	1.552285	0.511292
	H407	H	1.390234	1.545002	0.495938
	O408	O	1.035321	1.017955	0.041075
	H409	H	1.061111	1.030881	0.055750
	H410	H	1.030868	1.041388	0.048327
	O411	O	0.497424	-0.340968	0.496084
	H412	H	0.482661	-0.342202	0.507160
	H413	H	0.512961	-0.347014	0.513372
	O414	O	0.603779	0.400830	0.503781
	H415	H	0.604267	0.406291	0.503994
	H416	H	0.593035	0.411287	0.486561
	O417	O	0.644629	0.596858	0.610774
	H418	H	0.652190	0.586492	0.625195
	H419	H	0.657827	0.593666	0.603558
