data_Molecule from HDF5

_cell_length_a		16.485351
_cell_length_b		16.552588
_cell_length_c		16.582768
_cell_angle_alpha	89.935562
_cell_angle_beta	90.047672
_cell_angle_gamma	90.070528
_symmetry_space_group_name_H-M	'P 1'
_symmetry_Int_Tables_number		1

loop_
	_symmetry_equiv_pos_as_xyz
	x,y,z

loop_
	_atom_site_label
	_atom_site_type_symbol
	_atom_site_fract_x
	_atom_site_fract_y
	_atom_site_fract_z
	H0	H	0.391885	0.854249	0.713782
	H1	H	0.603369	0.167250	0.713679
	H2	H	0.602088	0.854830	0.269468
	H3	H	0.389542	0.166652	0.268964
	H4	H	0.718176	0.405561	0.835400
	H5	H	0.717796	0.614616	0.147793
	H6	H	0.277372	0.612870	0.834421
	H7	H	0.274514	0.405589	0.148764
	H8	H	0.839725	0.729055	0.388205
	H9	H	0.153793	0.731147	0.596983
	H10	H	0.839083	0.289770	0.594078
	H11	H	0.154327	0.287973	0.384688
	H12	H	0.838505	0.406059	0.710285
	H13	H	0.154091	0.612856	0.712026
	H14	H	0.841347	0.615580	0.269322
	H15	H	0.153993	0.403794	0.268614
	H16	H	0.392462	0.731400	0.835171
	H17	H	0.600746	0.731219	0.148407
	H18	H	0.601720	0.288349	0.835705
	H19	H	0.391202	0.289662	0.149027
	H20	H	0.718176	0.854517	0.387274
	H21	H	0.718321	0.167046	0.596216
	H22	H	0.275908	0.853144	0.595828
	H23	H	0.273928	0.165952	0.385039
	H24	H	0.888017	0.355434	0.217251
	H25	H	0.102914	0.668404	0.212409
	H26	H	0.101365	0.353280	0.769746
	H27	H	0.892453	0.667199	0.771456
	H28	H	0.220462	0.901776	0.334593
	H29	H	0.218097	0.112875	0.646687
	H30	H	0.776906	0.113592	0.334008
	H31	H	0.776793	0.907714	0.648472
	H32	H	0.337626	0.229244	0.888815
	H33	H	0.653914	0.229987	0.094915
	H34	H	0.338452	0.788296	0.097726
	H35	H	0.653591	0.789501	0.886763
	H36	H	0.339479	0.902772	0.214491
	H37	H	0.654425	0.112883	0.210658
	H38	H	0.338172	0.115189	0.770898
	H39	H	0.653889	0.906629	0.771281
	H40	H	0.891972	0.231488	0.334920
	H41	H	0.103144	0.230631	0.647082
	H42	H	0.103579	0.786218	0.334893
	H43	H	0.890647	0.788464	0.647825
	H44	H	0.216680	0.352714	0.887625
	H45	H	0.216468	0.669566	0.093257
	H46	H	0.772285	0.355023	0.099902
	H47	H	0.778016	0.668407	0.889273
	H48	H	0.410293	0.122679	0.583779
	H49	H	0.583009	0.898986	0.583366
	H50	H	0.585855	0.123199	0.402209
	H51	H	0.408250	0.897389	0.399720
	H52	H	0.583243	0.422293	0.101771
	H53	H	0.589811	0.597114	0.879105
	H54	H	0.407071	0.599955	0.104320
	H55	H	0.405415	0.423380	0.880981
	H56	H	0.112337	0.602806	0.400956
	H57	H	0.883763	0.597314	0.583018
	H58	H	0.108827	0.419647	0.577010
	H59	H	0.886080	0.417698	0.409045
	H60	H	0.109310	0.425283	0.584148
	H61	H	0.882469	0.601218	0.582111
	H62	H	0.108143	0.599122	0.409621
	H63	H	0.887897	0.428764	0.403475
	H64	H	0.407588	0.599588	0.104169
	H65	H	0.581510	0.599449	0.881511
	H66	H	0.584227	0.419359	0.103839
	H67	H	0.410499	0.418903	0.880738
	H68	H	0.586825	0.123738	0.401151
	H69	H	0.584642	0.899920	0.579231
	H70	H	0.410432	0.120506	0.577384
	H71	H	0.412951	0.899979	0.403505
	H72	H	0.905166	0.625053	0.086148
	H73	H	0.083544	0.398806	0.084212
	H74	H	0.083761	0.619654	0.906360
	H75	H	0.914571	0.400199	0.903265
	H76	H	0.084590	0.919934	0.601740
	H77	H	0.087270	0.093721	0.379946
	H78	H	0.912929	0.102846	0.603434
	H79	H	0.906229	0.914079	0.376540
	H80	H	0.610007	0.104986	0.904562
	H81	H	0.382798	0.095768	0.085288
	H82	H	0.608734	0.920362	0.079234
	H83	H	0.384780	0.920425	0.906841
	H84	H	0.607037	0.923683	0.080695
	H85	H	0.381574	0.104329	0.080909
	H86	H	0.606808	0.096022	0.905330
	H87	H	0.385746	0.926614	0.903455
	H88	H	0.902944	0.102681	0.605202
	H89	H	0.078871	0.101901	0.379472
	H90	H	0.086829	0.919778	0.602316
	H91	H	0.903116	0.923375	0.379191
	H92	H	0.092931	0.624436	0.900872
	H93	H	0.081957	0.401343	0.078185
	H94	H	0.917843	0.619521	0.081127
	H95	H	0.902299	0.398149	0.907885
	H96	H	0.404159	0.123208	0.580039
	H97	H	0.587327	0.897162	0.582500
	H98	H	0.585340	0.122326	0.400383
	H99	H	0.406988	0.898302	0.405600
	H100	H	0.586106	0.422204	0.103686
	H101	H	0.586911	0.605545	0.877175
	H102	H	0.407711	0.600552	0.104390
	H103	H	0.404533	0.417151	0.877937
	H104	H	0.109700	0.592750	0.401128
	H105	H	0.883850	0.598731	0.579039
	H106	H	0.111996	0.416564	0.584753
	H107	H	0.882535	0.419606	0.397287
	H108	H	0.906108	0.619456	0.072585
	H109	H	0.088385	0.398826	0.079290
	H110	H	0.082620	0.623544	0.895385
	H111	H	0.905203	0.395432	0.895294
	H112	H	0.085623	0.921558	0.601873
	H113	H	0.089604	0.103762	0.375221
	H114	H	0.907000	0.094344	0.601937
	H115	H	0.912237	0.921296	0.381625
	H116	H	0.609635	0.099400	0.896998
	H117	H	0.385914	0.097381	0.076434
	H118	H	0.608470	0.920899	0.082632
	H119	H	0.382093	0.921204	0.899944
	C120	C	0.375711	0.018731	0.612374
	C121	C	0.617574	1.002446	0.613435
	C122	C	0.618012	0.019320	0.369898
	C123	C	0.375611	1.001736	0.369932
	C124	C	0.617853	0.388700	0.000300
	C125	C	0.617982	0.632304	0.982966
	C126	C	0.375708	0.631329	0.000371
	C127	C	0.374238	0.388443	0.983331
	C128	C	0.006133	0.630602	0.371253
	C129	C	0.987681	0.631168	0.613259
	C130	C	0.005483	0.388581	0.612940
	C131	C	0.988996	0.389008	0.369844
	C132	C	0.875754	0.518730	0.113468
	C133	C	0.117482	0.503355	0.112495
	C134	C	0.118134	0.518836	0.869339
	C135	C	0.875786	0.501821	0.870887
	C136	C	0.118878	0.887160	0.499137
	C137	C	0.118007	0.131120	0.481787
	C138	C	0.876069	0.131351	0.499845
	C139	C	0.875335	0.888746	0.483011
	C140	C	0.504709	0.132134	0.870391
	C141	C	0.487828	0.130945	0.112569
	C142	C	0.504276	0.888730	0.113139
	C143	C	0.488415	0.890669	0.871362
	C144	C	0.373300	0.900936	0.673116
	C145	C	0.621059	0.120081	0.673480
	C146	C	0.620484	0.901469	0.309966
	C147	C	0.372051	0.119546	0.309313
	C148	C	0.678604	0.386506	0.882797
	C149	C	0.677620	0.633520	0.100947
	C150	C	0.316722	0.632261	0.881617
	C151	C	0.314527	0.386932	0.101642
	C152	C	0.887131	0.689529	0.369373
	C153	C	0.106377	0.690741	0.615079
	C154	C	0.886394	0.329522	0.613183
	C155	C	0.106963	0.328203	0.366949
	C156	C	0.886044	0.387171	0.671012
	C157	C	0.106698	0.632304	0.672414
	C158	C	0.887861	0.633372	0.310360
	C159	C	0.106847	0.385765	0.308983
	C160	C	0.373748	0.691111	0.882180
	C161	C	0.619484	0.691306	0.101195
	C162	C	0.620635	0.328417	0.882681
	C163	C	0.372454	0.329116	0.101778
	C164	C	0.678094	0.901437	0.368327
	C165	C	0.678146	0.120145	0.614894
	C166	C	0.315772	0.900449	0.614582
	C167	C	0.314288	0.119169	0.367010
	C168	C	0.871068	0.401789	0.175629
	C169	C	0.120614	0.621451	0.172508
	C170	C	0.119934	0.400342	0.809932
	C171	C	0.874204	0.620301	0.811646
	C172	C	0.179963	0.884010	0.381761
	C173	C	0.177962	0.131905	0.599881
	C174	C	0.816500	0.132655	0.381420
	C175	C	0.816277	0.888080	0.601275
	C176	C	0.385301	0.190290	0.869591
	C177	C	0.606828	0.189918	0.113412
	C178	C	0.386165	0.827935	0.116039
	C179	C	0.606397	0.829914	0.868676
	C180	C	0.386510	0.885307	0.174108
	C181	C	0.607054	0.131983	0.171130
	C182	C	0.385693	0.133557	0.811001
	C183	C	0.606623	0.887917	0.811075
	C184	C	0.874037	0.191030	0.381653
	C185	C	0.120806	0.190337	0.600105
	C186	C	0.121807	0.826216	0.381887
	C187	C	0.873106	0.829138	0.600938
	C188	C	0.177348	0.400141	0.868408
	C189	C	0.177348	0.621742	0.113446
	C190	C	0.813411	0.401748	0.117425
	C191	C	0.817116	0.620709	0.870142
	C192	C	0.400866	0.100799	0.587330
	C193	C	0.592050	0.920124	0.588524
	C194	C	0.593125	0.101688	0.394245
	C195	C	0.401824	0.919834	0.395633
	C196	C	0.591893	0.414001	0.081927
	C197	C	0.593238	0.607858	0.900576
	C198	C	0.400377	0.606814	0.082905
	C199	C	0.399538	0.412812	0.901201
	C200	C	0.088557	0.605447	0.396631
	C201	C	0.904994	0.606164	0.588682
	C202	C	0.088488	0.413249	0.588795
	C203	C	0.906965	0.414679	0.395792
	C204	C	0.902215	0.600180	0.087307
	C205	C	0.091971	0.421014	0.087671
	C206	C	0.093410	0.601095	0.893753
	C207	C	0.900414	0.419345	0.895281
	C208	C	0.093063	0.912957	0.580698
	C209	C	0.092563	0.106669	0.399645
	C210	C	0.900695	0.106983	0.582189
	C211	C	0.899977	0.912906	0.400608
	C212	C	0.587396	0.107268	0.895183
	C213	C	0.404995	0.106195	0.087897
	C214	C	0.586638	0.914370	0.087904
	C215	C	0.405768	0.915837	0.896205
	Zn216	Zn	0.496505	0.010930	0.742085
	Zn217	Zn	0.496137	0.010616	0.241397
	Zn218	Zn	0.746793	0.510250	-0.008432
	Zn219	Zn	0.246427	0.510321	-0.008289
	Zn220	Zn	-0.003442	0.759460	0.491428
	Zn221	Zn	-0.002865	0.260332	0.491195
	Zn222	Zn	-0.004546	0.509507	0.741411
	Zn223	Zn	-0.002599	0.510748	0.242181
	Zn224	Zn	0.495876	0.761040	-0.008231
	Zn225	Zn	0.496079	0.260101	-0.007812
	Zn226	Zn	0.746518	0.010743	0.491801
	Zn227	Zn	0.246580	0.009397	0.490255
	N228	N	0.409579	0.975585	0.672116
	N229	N	0.584030	0.045838	0.672505
	N230	N	0.584091	0.975886	0.310667
	N231	N	0.409426	0.045397	0.311064
	N232	N	0.676952	0.423273	0.956974
	N233	N	0.677099	0.597782	0.026317
	N234	N	0.317821	0.595832	0.956089
	N235	N	0.315460	0.422928	0.027119
	N236	N	0.961643	0.688127	0.406305
	N237	N	0.031245	0.690318	0.579155
	N238	N	0.961774	0.330097	0.578046
	N239	N	0.032583	0.329963	0.404190
	N240	N	0.961348	0.422869	0.671306
	N241	N	0.031781	0.596093	0.671351
	N242	N	0.962942	0.597578	0.311408
	N243	N	0.032578	0.422950	0.310801
	N244	N	0.409424	0.690705	0.957102
	N245	N	0.583332	0.690956	0.026539
	N246	N	0.583679	0.329594	0.956799
	N247	N	0.408818	0.329635	0.027145
	N248	N	0.676505	0.975679	0.404994
	N249	N	0.676401	0.045765	0.578306
	N250	N	0.317113	0.974574	0.577382
	N251	N	0.316357	0.044877	0.404048
	N252	N	0.909175	0.475482	0.173228
	N253	N	0.084375	0.546643	0.172003
	N254	N	0.084191	0.475208	0.810133
	N255	N	0.910057	0.545356	0.812057
	N256	N	0.178339	0.921004	0.455794
	N257	N	0.176542	0.096082	0.525203
	N258	N	0.817574	0.096350	0.455873
	N259	N	0.817235	0.924133	0.526807
	N260	N	0.460278	0.189707	0.905824
	N261	N	0.531690	0.189353	0.077716
	N262	N	0.460583	0.829964	0.078938
	N263	N	0.531958	0.831463	0.905596
	N264	N	0.461094	0.922501	0.172544
	N265	N	0.531922	0.096330	0.170855
	N266	N	0.461099	0.098382	0.811161
	N267	N	0.532138	0.925097	0.812834
	N268	N	0.910391	0.190381	0.456179
	N269	N	0.084390	0.190300	0.525534
	N270	N	0.084620	0.827795	0.455961
	N271	N	0.909020	0.829127	0.526255
	N272	N	0.176627	0.474750	0.904585
	N273	N	0.175683	0.547289	0.076976
	N274	N	0.816056	0.475507	0.079363
	N275	N	0.817858	0.546028	0.906229
	O276	O	1.212403	1.230133	0.019053
	H277	H	1.227929	1.253936	0.023040
	H278	H	1.216782	1.223225	0.036450
	O279	O	0.088885	-0.031342	1.195800
	H280	H	0.093047	-0.044371	1.186019
	H281	H	0.081905	-0.046486	1.198838
	O282	O	0.413111	0.361369	0.611341
	H283	H	0.405088	0.365734	0.617778
	H284	H	0.396675	0.355387	0.613031
	O285	O	0.623043	0.489536	0.568380
	H286	H	0.625734	0.491210	0.586442
	H287	H	0.613709	0.483958	0.582569
	O288	O	0.989998	-0.013218	1.155565
	H289	H	0.987958	-0.020332	1.153373
	H290	H	0.992370	-0.022909	1.151704
	O291	O	0.538925	0.645306	0.457427
	H292	H	0.553108	0.646256	0.477554
	H293	H	0.528008	0.638714	0.451246
	O294	O	0.207807	0.968946	-0.998224
	H295	H	0.209993	0.965163	-0.987470
	H296	H	0.208643	0.987783	-1.017876
	O297	O	0.279218	-0.689362	-0.483243
	H298	H	0.268368	-0.685545	-0.500418
	H299	H	0.278654	-0.699449	-0.495681
	O300	O	-0.206234	0.030803	-0.215182
	H301	H	-0.219518	0.018088	-0.210243
	H302	H	-0.201606	0.030439	-0.214910
	O303	O	0.099931	0.060643	0.164905
	H304	H	0.114558	0.053115	0.172691
	H305	H	0.075120	0.046398	0.162388
	O306	O	1.546194	-0.377495	0.361582
	H307	H	1.536634	-0.385990	0.371675
	H308	H	1.547591	-0.383219	0.376979
	O309	O	0.700075	0.541386	0.692590
	H310	H	0.698043	0.548020	0.701910
	H311	H	0.709563	0.550428	0.706870
	O312	O	0.206400	-0.198054	-0.217508
	H313	H	0.208672	-0.209810	-0.190213
	H314	H	0.231712	-0.219509	-0.236161
	O315	O	0.715303	0.282192	0.762208
	H316	H	0.727841	0.261118	0.769280
	H317	H	0.738274	0.271177	0.762042
	O318	O	0.292833	0.715321	0.464787
	H319	H	0.292336	0.696468	0.489790
	H320	H	0.270751	0.734258	0.465333
	O321	O	0.053969	0.873750	1.062911
	H322	H	0.057143	0.885210	1.050231
	H323	H	0.063752	0.853421	1.053445
	O324	O	0.809908	0.220791	0.974352
	H325	H	0.806932	0.227877	0.973771
	H326	H	0.801027	0.226666	0.979756
	O327	O	1.397870	-0.389640	0.357317
	H328	H	1.396845	-0.374047	0.332598
	H329	H	1.408015	-0.415921	0.352082
	O330	O	0.440269	0.359544	0.484513
	H331	H	0.428605	0.369829	0.485634
	H332	H	0.435739	0.351951	0.488955
	O333	O	0.439610	0.736939	0.541391
	H334	H	0.426648	0.736342	0.537647
	H335	H	0.451243	0.735054	0.533079
	O336	O	0.882167	0.068655	0.773091
	H337	H	0.877167	0.036105	0.762138
	H338	H	0.880619	0.076584	0.791753
	O339	O	0.695531	0.713438	0.609454
	H340	H	0.711749	0.740503	0.621728
	H341	H	0.681900	0.705154	0.628417
	O342	O	-0.215526	0.979972	0.196935
	H343	H	-0.211549	0.988675	0.201392
	H344	H	-0.229884	0.983138	0.203343
	O345	O	0.522542	0.712250	0.694489
	H346	H	0.512554	0.705982	0.677720
	H347	H	0.515684	0.698393	0.713244
	O348	O	-0.207324	0.908160	0.870003
	H349	H	-0.193702	0.891085	0.891011
	H350	H	-0.202005	0.920157	0.880399
	O351	O	0.022458	0.078333	0.844751
	H352	H	0.018439	0.068343	0.843754
	H353	H	0.045821	0.070991	0.841385
	O354	O	1.575611	-0.634358	1.606266
	H355	H	1.579664	-0.639967	1.614509
	H356	H	1.576652	-0.638493	1.603115
	O357	O	0.706377	0.504396	0.327340
	H358	H	0.709462	0.478224	0.337086
	H359	H	0.718773	0.498742	0.334302
	O360	O	0.525012	0.493116	0.710506
	H361	H	0.529667	0.485426	0.712297
	H362	H	0.517088	0.462752	0.715700
	O363	O	0.516699	0.639647	0.272464
	H364	H	0.530515	0.639458	0.280789
	H365	H	0.524662	0.638021	0.269667
	O366	O	1.141668	0.180774	0.824983
	H367	H	1.143414	0.181072	0.844901
	H368	H	1.127852	0.158906	0.829587
	O369	O	0.043610	-0.133388	1.120126
	H370	H	0.019910	-0.134708	1.123423
	H371	H	0.035219	-0.137866	1.114400
	O372	O	0.643429	1.638493	0.441784
	H373	H	0.643212	1.640723	0.454757
	H374	H	0.652639	1.636401	0.455390
	O375	O	0.894814	0.076169	0.029115
	H376	H	0.894347	0.062024	0.032185
	H377	H	0.907806	0.075382	0.010466
	O378	O	0.830351	0.767409	0.810061
	H379	H	0.839275	0.789541	0.823691
	H380	H	0.819797	0.761141	0.801823
	O381	O	0.019876	0.806104	0.023991
	H382	H	0.020000	0.808747	0.019279
	H383	H	0.009684	0.797588	0.021962
	O384	O	0.277274	0.570925	0.550535
	H385	H	0.274914	0.554463	0.559138
	H386	H	0.278770	0.551609	0.545297
	O387	O	-0.035887	1.059342	0.983826
	H388	H	-0.032446	1.049510	0.986242
	H389	H	-0.033058	1.060389	0.964159
	O390	O	0.209438	0.989303	0.794300
	H391	H	0.230722	0.981423	0.775825
	H392	H	0.206210	0.959835	0.801773
	O393	O	0.877913	0.074306	0.104824
	H394	H	0.887676	0.087271	0.102993
	H395	H	0.881716	0.060767	0.096650
	O396	O	1.188533	0.183590	0.188183
	H397	H	1.182800	0.157047	0.186714
	H398	H	1.181906	0.169331	0.175583
	O399	O	0.298473	0.311405	0.693479
	H400	H	0.314218	0.301150	0.665541
	H401	H	0.275953	0.288469	0.696633
	O402	O	1.040831	0.181742	0.971559
	H403	H	1.019665	0.179597	0.974228
	H404	H	1.055944	0.189043	0.990618
	O405	O	0.358276	0.422980	0.351214
	H406	H	0.361791	0.430255	0.334052
	H407	H	0.366036	0.430596	0.342663
	O408	O	1.174198	0.822153	0.940806
	H409	H	1.164226	0.844156	0.940417
	H410	H	1.190343	0.801482	0.948824
	O411	O	1.365227	1.378072	0.327476
	H412	H	1.348197	1.386025	0.317331
	H413	H	1.378421	1.382226	0.338078
	O414	O	-0.146969	-0.202389	0.202099
	H415	H	-0.147017	-0.178922	0.213362
	H416	H	-0.157890	-0.220744	0.214167
	O417	O	-0.080783	-0.071287	0.827027
	H418	H	-0.078520	-0.063059	0.839901
	H419	H	-0.064045	-0.063747	0.836601
	O420	O	1.106172	0.025052	0.979726
	H421	H	1.095429	0.028005	0.961758
	H422	H	1.100237	0.024069	0.978831
	O423	O	1.024401	1.222639	0.203058
	H424	H	1.022090	1.232865	0.219310
	H425	H	1.035939	1.211810	0.211422
	O426	O	0.644722	0.360767	0.329559
	H427	H	0.644643	0.361845	0.342770
	H428	H	0.642039	0.355545	0.317890
	O429	O	0.721941	0.742784	0.264373
	H430	H	0.696950	0.722859	0.291878
	H431	H	0.733908	0.726518	0.278353
	O432	O	1.293904	-0.273761	1.270099
	H433	H	1.330456	-0.264378	1.266488
	H434	H	1.296208	-0.268639	1.303516
	O435	O	-0.223505	0.791506	1.029300
	H436	H	-0.254268	0.760755	1.038327
	H437	H	-0.216934	0.791774	1.072510
	O438	O	0.311668	0.692036	0.677698
	H439	H	0.337137	0.679165	0.659231
	H440	H	0.320681	0.664962	0.662729
	O441	O	0.275766	0.536346	0.271150
	H442	H	0.285765	0.567149	0.270414
	H443	H	0.258306	0.542630	0.242557
	O444	O	0.499164	0.320532	0.391468
	H445	H	0.501603	0.330613	0.391135
	H446	H	0.505484	0.316068	0.394821
	O447	O	0.506345	0.441950	0.265370
	H448	H	0.500588	0.436433	0.273725
	H449	H	0.508638	0.431825	0.254683
	O450	O	0.277330	0.483062	-0.287380
	H451	H	0.246776	0.475901	-0.258805
	H452	H	0.283108	0.440430	-0.292966
	O453	O	0.029022	0.794791	0.768671
	H454	H	0.034419	0.765162	0.739514
	H455	H	0.057790	0.804288	0.775826
	O456	O	-0.088705	1.232037	1.081613
	H457	H	-0.084467	1.233690	1.096973
	H458	H	-0.102688	1.232379	1.083969
	O459	O	0.686193	0.584250	0.555273
	H460	H	0.692224	0.576350	0.572136
	H461	H	0.703159	0.586406	0.552215
	O462	O	0.655341	0.371195	0.295569
	H463	H	0.663412	0.364402	0.289390
	H464	H	0.645031	0.362836	0.296750
	O465	O	0.517299	0.518259	0.625584
	H466	H	0.512124	0.502784	0.621520
	H467	H	0.504698	0.514010	0.630601
	O468	O	-0.206129	0.993684	-0.003184
	H469	H	-0.203994	0.984169	0.007041
	H470	H	-0.216262	0.982046	0.010937
	O471	O	0.488439	0.291266	0.580129
	H472	H	0.491525	0.286816	0.573889
	H473	H	0.499515	0.286130	0.590881
	O474	O	0.967241	1.230141	-0.224318
	H475	H	0.964699	1.251447	-0.246886
	H476	H	0.973851	1.228827	-0.217830
	O477	O	0.706158	0.306218	0.471738
	H478	H	0.717629	0.300907	0.462916
	H479	H	0.696611	0.305608	0.457639
