data_Molecule from HDF5

_cell_length_a		16.292839
_cell_length_b		16.318466
_cell_length_c		16.070266
_cell_angle_alpha	89.773655
_cell_angle_beta	90.528911
_cell_angle_gamma	89.775416
_symmetry_space_group_name_H-M	'P 1'
_symmetry_Int_Tables_number		1

loop_
	_symmetry_equiv_pos_as_xyz
	x,y,z

loop_
	_atom_site_label
	_atom_site_type_symbol
	_atom_site_fract_x
	_atom_site_fract_y
	_atom_site_fract_z
	H0	H	0.400298	0.838305	0.712244
	H1	H	0.594270	0.165945	0.709841
	H2	H	0.593303	0.837864	0.285818
	H3	H	0.396657	0.164936	0.282589
	H4	H	0.709721	0.406132	0.830527
	H5	H	0.713355	0.600655	0.162443
	H6	H	0.281228	0.604403	0.832941
	H7	H	0.288117	0.404512	0.162597
	H8	H	0.834036	0.718695	0.393185
	H9	H	0.159875	0.718284	0.600454
	H10	H	0.833587	0.286300	0.596378
	H11	H	0.159348	0.283314	0.398610
	H12	H	0.833373	0.405278	0.709360
	H13	H	0.162108	0.596474	0.711336
	H14	H	0.833705	0.598392	0.281272
	H15	H	0.162283	0.404349	0.287954
	H16	H	0.396780	0.718216	0.831773
	H17	H	0.597942	0.715769	0.162268
	H18	H	0.597341	0.288224	0.831682
	H19	H	0.400591	0.288605	0.161656
	H20	H	0.713163	0.839382	0.398653
	H21	H	0.715175	0.162874	0.600807
	H22	H	0.281339	0.838568	0.598059
	H23	H	0.277580	0.163019	0.393194
	H24	H	0.903984	0.337130	0.207513
	H25	H	0.095404	0.665493	0.211958
	H26	H	0.094099	0.337362	0.787713
	H27	H	0.898686	0.665076	0.780488
	H28	H	0.209118	0.902296	0.331112
	H29	H	0.213713	0.100466	0.660972
	H30	H	0.781388	0.099311	0.333346
	H31	H	0.786431	0.901648	0.663114
	H32	H	0.334874	0.220858	0.894636
	H33	H	0.660643	0.217749	0.100518
	H34	H	0.334753	0.785147	0.097954
	H35	H	0.660186	0.786483	0.897889
	H36	H	0.331735	0.905905	0.208919
	H37	H	0.660223	0.098543	0.214078
	H38	H	0.333976	0.102468	0.780739
	H39	H	0.662488	0.907091	0.788173
	H40	H	0.895470	0.214402	0.332248
	H41	H	0.096706	0.213058	0.662686
	H42	H	0.094324	0.787391	0.331444
	H43	H	0.899272	0.785815	0.662044
	H44	H	0.215312	0.340487	0.898563
	H45	H	0.214676	0.665139	0.099368
	H46	H	0.783126	0.340008	0.097466
	H47	H	0.781224	0.665061	0.894139
	H48	H	0.406714	0.113750	0.577400
	H49	H	0.590096	0.884682	0.596333
	H50	H	0.587177	0.113261	0.419686
	H51	H	0.407871	0.887267	0.406905
	H52	H	0.585874	0.421174	0.109146
	H53	H	0.590646	0.597986	0.877363
	H54	H	0.400497	0.590444	0.116650
	H55	H	0.398464	0.422330	0.879313
	H56	H	0.111384	0.594695	0.414137
	H57	H	0.883538	0.600065	0.577598
	H58	H	0.115851	0.396079	0.588460
	H59	H	0.878230	0.406202	0.399030
	H60	H	0.110329	0.411027	0.584238
	H61	H	0.884456	0.584481	0.586944
	H62	H	0.113041	0.588360	0.402337
	H63	H	0.879833	0.404097	0.404903
	H64	H	0.414712	0.591140	0.111542
	H65	H	0.589354	0.594662	0.879135
	H66	H	0.585196	0.398880	0.116180
	H67	H	0.418318	0.414435	0.882635
	H68	H	0.601147	0.122445	0.402973
	H69	H	0.591096	0.887038	0.588276
	H70	H	0.392768	0.121230	0.588944
	H71	H	0.396906	0.884236	0.408400
	H72	H	0.907321	0.618761	0.088725
	H73	H	0.101611	0.384155	0.090213
	H74	H	0.098731	0.620534	0.907680
	H75	H	0.912214	0.388119	0.905511
	H76	H	0.089069	0.910138	0.614177
	H77	H	0.081408	0.089694	0.381086
	H78	H	0.907048	0.094010	0.616330
	H79	H	0.900423	0.918880	0.380956
	H80	H	0.616584	0.103077	0.906708
	H81	H	0.381801	0.091774	0.090628
	H82	H	0.612345	0.918046	0.097445
	H83	H	0.383996	0.914420	0.911947
	H84	H	0.617236	0.899767	0.096215
	H85	H	0.378500	0.102919	0.092112
	H86	H	0.611756	0.093722	0.910650
	H87	H	0.379922	0.915332	0.896946
	H88	H	0.905555	0.096105	0.617324
	H89	H	0.085453	0.100159	0.377242
	H90	H	0.089388	0.907855	0.614648
	H91	H	0.912504	0.906599	0.380710
	H92	H	0.086755	0.620771	0.896597
	H93	H	0.092983	0.384658	0.096975
	H94	H	0.903182	0.618461	0.086397
	H95	H	0.896849	0.386011	0.912282
	H96	H	0.409886	0.117487	0.595622
	H97	H	0.597441	0.882836	0.593092
	H98	H	0.579089	0.117896	0.397271
	H99	H	0.401210	0.882168	0.398074
	H100	H	0.604606	0.410536	0.118231
	H101	H	0.587027	0.598329	0.878707
	H102	H	0.407716	0.603816	0.117821
	H103	H	0.402147	0.401905	0.874135
	H104	H	0.116664	0.600861	0.403466
	H105	H	0.877101	0.599077	0.595671
	H106	H	0.116060	0.408639	0.600449
	H107	H	0.881303	0.410420	0.402905
	H108	H	0.903187	0.620154	0.090942
	H109	H	0.091699	0.387276	0.087293
	H110	H	0.084188	0.615400	0.911527
	H111	H	0.899805	0.381695	0.895366
	H112	H	0.091213	0.909784	0.614585
	H113	H	0.092006	0.091507	0.377693
	H114	H	0.904018	0.093982	0.617438
	H115	H	0.895738	0.902703	0.374891
	H116	H	0.614859	0.094658	0.900065
	H117	H	0.381772	0.098949	0.080793
	H118	H	0.610338	0.909227	0.080774
	H119	H	0.378856	0.902281	0.905103
	C120	C	0.375078	0.009872	0.617897
	C121	C	0.620473	0.992843	0.620681
	C122	C	0.617887	0.010131	0.377492
	C123	C	0.372801	0.992463	0.374193
	C124	C	0.620027	0.381560	0.005265
	C125	C	0.619000	0.624629	0.987864
	C126	C	0.376781	0.624798	0.006360
	C127	C	0.377912	0.383110	0.987841
	C128	C	0.005636	0.623318	0.375884
	C129	C	0.989162	0.622941	0.617980
	C130	C	0.005820	0.378091	0.619212
	C131	C	0.988281	0.378797	0.375317
	C132	C	0.877007	0.510745	0.117711
	C133	C	0.122726	0.493453	0.120689
	C134	C	0.119077	0.511027	0.876725
	C135	C	0.875040	0.493149	0.874346
	C136	C	0.118201	0.880212	0.505237
	C137	C	0.116884	0.121960	0.487873
	C138	C	0.875391	0.122716	0.507388
	C139	C	0.875410	0.880028	0.488368
	C140	C	0.506581	0.126106	0.874800
	C141	C	0.488456	0.125536	0.119105
	C142	C	0.505307	0.880131	0.119869
	C143	C	0.489098	0.881993	0.876725
	C144	C	0.378941	0.887141	0.674166
	C145	C	0.616324	0.116285	0.674240
	C146	C	0.614432	0.887093	0.323038
	C147	C	0.375481	0.115756	0.319315
	C148	C	0.673517	0.384793	0.880462
	C149	C	0.675632	0.621494	0.112654
	C150	C	0.319543	0.624211	0.881988
	C151	C	0.324766	0.385037	0.112964
	C152	C	0.882749	0.679724	0.375072
	C153	C	0.111746	0.678929	0.618533
	C154	C	0.882288	0.324288	0.616238
	C155	C	0.111122	0.322677	0.378812
	C156	C	0.882351	0.383172	0.672680
	C157	C	0.112688	0.618674	0.674109
	C158	C	0.882791	0.620323	0.318871
	C159	C	0.112562	0.382806	0.323823
	C160	C	0.376994	0.680696	0.881467
	C161	C	0.618127	0.678786	0.112698
	C162	C	0.617825	0.325924	0.881102
	C163	C	0.380717	0.327103	0.112576
	C164	C	0.673977	0.887760	0.379126
	C165	C	0.676450	0.114715	0.619638
	C166	C	0.319645	0.887349	0.617339
	C167	C	0.316152	0.114667	0.374232
	C168	C	0.882005	0.386867	0.171624
	C169	C	0.117417	0.616555	0.175081
	C170	C	0.116098	0.387183	0.823326
	C171	C	0.877658	0.616141	0.818200
	C172	C	0.172030	0.882298	0.380690
	C173	C	0.174692	0.120411	0.612021
	C174	C	0.819059	0.120250	0.382701
	C175	C	0.822633	0.881828	0.613233
	C176	C	0.383707	0.182465	0.874663
	C177	C	0.611707	0.179562	0.119255
	C178	C	0.383030	0.823914	0.117975
	C179	C	0.611841	0.825816	0.878895
	C180	C	0.381610	0.884209	0.173032
	C181	C	0.611449	0.120432	0.175895
	C182	C	0.383238	0.123383	0.818406
	C183	C	0.612949	0.885525	0.823951
	C184	C	0.875540	0.177473	0.382210
	C185	C	0.116642	0.176589	0.612772
	C186	C	0.115243	0.824822	0.380867
	C187	C	0.878842	0.824243	0.612880
	C188	C	0.176046	0.388661	0.878732
	C189	C	0.176688	0.616430	0.118940
	C190	C	0.822022	0.388157	0.116728
	C191	C	0.819412	0.616220	0.874872
	C192	C	0.396762	0.095440	0.594233
	C193	C	0.599204	0.906931	0.598950
	C194	C	0.595486	0.095728	0.399901
	C195	C	0.395453	0.906669	0.397714
	C196	C	0.598304	0.403723	0.092113
	C197	C	0.595749	0.603197	0.900782
	C198	C	0.400497	0.601811	0.092811
	C199	C	0.399734	0.406049	0.901295
	C200	C	0.091516	0.601311	0.399814
	C201	C	0.903850	0.601173	0.593848
	C202	C	0.091837	0.399030	0.597560
	C203	C	0.902092	0.400547	0.396094
	C204	C	0.898232	0.596852	0.095240
	C205	C	0.101732	0.407564	0.098095
	C206	C	0.096613	0.596791	0.898700
	C207	C	0.896597	0.407322	0.897624
	C208	C	0.096330	0.902789	0.592084
	C209	C	0.093241	0.100120	0.401233
	C210	C	0.898762	0.100905	0.594588
	C211	C	0.896491	0.902678	0.401296
	C212	C	0.592277	0.103783	0.898766
	C213	C	0.402878	0.104260	0.094902
	C214	C	0.591126	0.902391	0.098034
	C215	C	0.403089	0.904010	0.898376
	Zn216	Zn	0.497971	0.002218	0.747697
	Zn217	Zn	0.495674	0.002384	0.247929
	Zn218	Zn	0.747250	0.502804	-0.003353
	Zn219	Zn	0.249620	0.503499	-0.002593
	Zn220	Zn	-0.002917	0.752877	0.496955
	Zn221	Zn	-0.004026	0.249652	0.497084
	Zn222	Zn	-0.002664	0.500929	0.746953
	Zn223	Zn	-0.001796	0.501311	0.246724
	Zn224	Zn	0.497027	0.752319	-0.002750
	Zn225	Zn	0.497863	0.254750	-0.003257
	Zn226	Zn	0.748247	0.001162	0.498405
	Zn227	Zn	0.245564	0.001416	0.495962
	N228	N	0.412729	0.964348	0.674564
	N229	N	0.582197	0.039512	0.675093
	N230	N	0.580065	0.964349	0.321723
	N231	N	0.410108	0.038859	0.319200
	N232	N	0.675065	0.418393	0.958837
	N233	N	0.676499	0.588607	0.033888
	N234	N	0.319061	0.590284	0.960398
	N235	N	0.323102	0.419317	0.034618
	N236	N	0.960471	0.681900	0.409693
	N237	N	0.034153	0.681526	0.584116
	N238	N	0.960098	0.320806	0.583863
	N239	N	0.032829	0.320079	0.410112
	N240	N	0.959858	0.415966	0.674502
	N241	N	0.035624	0.584530	0.673827
	N242	N	0.959932	0.585592	0.319590
	N243	N	0.035249	0.417069	0.321493
	N244	N	0.411945	0.681103	0.959793
	N245	N	0.583777	0.680872	0.034188
	N246	N	0.585220	0.323842	0.959726
	N247	N	0.413392	0.326024	0.033937
	N248	N	0.676047	0.965157	0.412307
	N249	N	0.679154	0.036982	0.586969
	N250	N	0.317230	0.964772	0.583103
	N251	N	0.314583	0.036833	0.407697
	N252	N	0.915524	0.464272	0.172263
	N253	N	0.084808	0.538973	0.176306
	N254	N	0.081463	0.464181	0.821754
	N255	N	0.911729	0.538849	0.818005
	N256	N	0.174172	0.915840	0.459243
	N257	N	0.175036	0.087132	0.533557
	N258	N	0.818653	0.087017	0.461464
	N259	N	0.820685	0.916074	0.534833
	N260	N	0.461265	0.184177	0.909199
	N261	N	0.534073	0.182998	0.084661
	N262	N	0.460954	0.821283	0.085826
	N263	N	0.533880	0.823657	0.910989
	N264	N	0.458760	0.918330	0.174467
	N265	N	0.533892	0.087737	0.176110
	N266	N	0.460722	0.089216	0.818145
	N267	N	0.535654	0.919738	0.822329
	N268	N	0.909866	0.178991	0.460708
	N269	N	0.081349	0.177698	0.534698
	N270	N	0.082322	0.823519	0.459303
	N271	N	0.911025	0.823120	0.534154
	N272	N	0.177996	0.466619	0.911297
	N273	N	0.180212	0.538778	0.086007
	N274	N	0.818786	0.465996	0.083879
	N275	N	0.817425	0.538629	0.909003
	O276	O	0.021572	0.017757	0.042802
	H277	H	0.019694	0.024794	0.034198
	H278	H	0.024019	0.021978	0.045900
	O279	O	0.512724	0.428368	0.351805
	H280	H	0.512778	0.426908	0.349771
	H281	H	0.513967	0.439005	0.361297
	O282	O	0.444716	0.439750	0.440468
	H283	H	0.441983	0.445542	0.436332
	H284	H	0.444181	0.440568	0.443111
	O285	O	0.072010	0.993737	1.004209
	H286	H	0.069961	0.991225	1.012771
	H287	H	0.069508	0.991397	1.003894
	O288	O	0.478881	0.461948	0.583564
	H289	H	0.480433	0.458103	0.582228
	H290	H	0.471262	0.453212	0.589942
	O291	O	0.957170	0.956828	0.975369
	H292	H	0.961871	0.968876	0.985395
	H293	H	0.953140	0.956528	0.963820
	O294	O	0.889486	0.992299	0.988989
	H295	H	0.885245	1.004896	0.983401
	H296	H	0.892184	0.988441	0.983149
	O297	O	0.951261	-0.069738	1.041355
	H298	H	0.950986	-0.074436	1.043199
	H299	H	0.954851	-0.068553	1.050583
	O300	O	0.598076	0.457196	0.410544
	H301	H	0.602003	0.456719	0.410310
	H302	H	0.591119	0.447667	0.406155
	O303	O	1.026127	0.072239	0.049155
	H304	H	1.021779	0.070786	0.046388
	H305	H	1.020381	0.072086	0.043135
	O306	O	-0.012669	1.008465	0.961936
	H307	H	-0.012873	0.996643	0.966840
	H308	H	-0.021528	1.004628	0.962044
	O309	O	0.602695	0.559203	0.538537
	H310	H	0.604216	0.567399	0.539654
	H311	H	0.605571	0.557439	0.527111
	O312	O	0.995335	0.038999	0.955666
	H313	H	0.994501	0.042413	0.961541
	H314	H	0.989317	0.044306	0.946614
	O315	O	0.474038	0.475752	0.545578
	H316	H	0.479978	0.477348	0.554309
	H317	H	0.471859	0.476005	0.533727
	O318	O	0.390717	0.526426	0.497227
	H319	H	0.391256	0.522344	0.487218
	H320	H	0.392690	0.530455	0.488392
	O321	O	1.067536	0.985773	0.969764
	H322	H	1.072295	0.997651	0.977825
	H323	H	1.062565	0.979325	0.967353
	O324	O	0.493578	0.528198	0.521831
	H325	H	0.494318	0.522472	0.524197
	H326	H	0.489269	0.530117	0.515441
	O327	O	0.429784	0.542256	0.379569
	H328	H	0.426064	0.549461	0.377811
	H329	H	0.421508	0.541548	0.381567
	O330	O	1.045445	-0.021044	1.101895
	H331	H	1.043412	-0.025983	1.100427
	H332	H	1.046110	-0.024927	1.099806
	O333	O	1.049424	0.986336	-0.086520
	H334	H	1.048394	0.980492	-0.081724
	H335	H	1.056135	0.985087	-0.091132
	O336	O	0.472355	0.527005	0.517035
	H337	H	0.481058	0.539191	0.517368
	H338	H	0.462661	0.533724	0.509381
	O339	O	0.515251	0.504080	0.486950
	H340	H	0.515283	0.503784	0.484091
	H341	H	0.519380	0.498630	0.490863
	O342	O	-0.036896	0.952251	-0.031255
	H343	H	-0.031913	0.955675	-0.037800
	H344	H	-0.025377	0.947396	-0.031807
	O345	O	0.062521	0.032334	-0.004745
	H346	H	0.066175	0.033019	-0.003847
	H347	H	0.064692	0.033006	-0.000594
	O348	O	0.450506	0.543370	0.499453
	H349	H	0.453822	0.550415	0.490148
	H350	H	0.442502	0.528835	0.512413
	O351	O	0.524514	0.554080	0.499837
	H352	H	0.522153	0.556016	0.488751
	H353	H	0.521120	0.553301	0.500779
	O354	O	0.485069	0.583119	0.497618
	H355	H	0.480665	0.586458	0.506936
	H356	H	0.500670	0.591075	0.495140
	O357	O	0.547164	0.484598	0.465236
	H358	H	0.559904	0.482423	0.471244
	H359	H	0.550677	0.481621	0.459704
	O360	O	0.017441	-0.008961	0.064190
	H361	H	0.021909	-0.005738	0.065740
	H362	H	0.013197	-0.005696	0.054285
	O363	O	0.470739	0.492280	0.575955
	H364	H	0.468951	0.492689	0.582412
	H365	H	0.472983	0.484394	0.587331
	O366	O	-0.035238	0.026508	0.998154
	H367	H	-0.039784	0.029653	1.005568
	H368	H	-0.037951	0.031296	1.002261
	O369	O	0.407594	0.443433	0.446428
	H370	H	0.406695	0.446743	0.450487
	H371	H	0.399475	0.448031	0.450891
