data_Molecule from HDF5

_cell_length_a		16.158074
_cell_length_b		16.338198
_cell_length_c		16.309110
_cell_angle_alpha	89.617294
_cell_angle_beta	89.801847
_cell_angle_gamma	90.002066
_symmetry_space_group_name_H-M	'P 1'
_symmetry_Int_Tables_number		1

loop_
	_symmetry_equiv_pos_as_xyz
	x,y,z

loop_
	_atom_site_label
	_atom_site_type_symbol
	_atom_site_fract_x
	_atom_site_fract_y
	_atom_site_fract_z
	H0	H	0.402115	0.843762	0.715956
	H1	H	0.600779	0.170050	0.712904
	H2	H	0.602399	0.844093	0.283374
	H3	H	0.402963	0.170014	0.283652
	H4	H	0.713714	0.412355	0.835223
	H5	H	0.713956	0.602553	0.163220
	H6	H	0.289693	0.604115	0.833958
	H7	H	0.287450	0.409818	0.162827
	H8	H	0.837086	0.722464	0.400203
	H9	H	0.167459	0.718921	0.595758
	H10	H	0.837323	0.290692	0.599522
	H11	H	0.166500	0.294147	0.400241
	H12	H	0.837247	0.406978	0.714125
	H13	H	0.167040	0.602896	0.709889
	H14	H	0.835387	0.604162	0.286442
	H15	H	0.166113	0.410114	0.285435
	H16	H	0.402271	0.724400	0.836235
	H17	H	0.599794	0.720454	0.162749
	H18	H	0.600916	0.292878	0.836328
	H19	H	0.400724	0.290907	0.162475
	H20	H	0.716659	0.843333	0.403153
	H21	H	0.714296	0.171160	0.594501
	H22	H	0.288065	0.843357	0.597389
	H23	H	0.289767	0.171249	0.402850
	H24	H	0.900745	0.343670	0.216059
	H25	H	0.099678	0.669917	0.211963
	H26	H	0.101134	0.343116	0.784443
	H27	H	0.901682	0.669097	0.781247
	H28	H	0.215614	0.912631	0.334739
	H29	H	0.214181	0.101998	0.664051
	H30	H	0.788814	0.105268	0.336114
	H31	H	0.789055	0.908965	0.663976
	H32	H	0.336026	0.220438	0.901515
	H33	H	0.665574	0.219609	0.096172
	H34	H	0.336205	0.791849	0.101006
	H35	H	0.666745	0.795017	0.902148
	H36	H	0.336412	0.908751	0.215087
	H37	H	0.665994	0.103564	0.210379
	H38	H	0.336087	0.104314	0.786300
	H39	H	0.667155	0.912039	0.788048
	H40	H	0.903456	0.222331	0.336420
	H41	H	0.101707	0.222363	0.661976
	H42	H	0.102401	0.793573	0.335582
	H43	H	0.901735	0.788921	0.662033
	H44	H	0.215867	0.343018	0.902013
	H45	H	0.213655	0.670646	0.093372
	H46	H	0.787889	0.342599	0.096636
	H47	H	0.788687	0.670380	0.901075
	H48	H	0.411409	0.124088	0.599634
	H49	H	0.595163	0.887126	0.605310
	H50	H	0.591252	0.123385	0.398326
	H51	H	0.409941	0.889838	0.402413
	H52	H	0.593562	0.414448	0.115288
	H53	H	0.594075	0.604485	0.881778
	H54	H	0.409012	0.613706	0.118357
	H55	H	0.403396	0.414105	0.881240
	H56	H	0.119010	0.596926	0.400545
	H57	H	0.880558	0.604121	0.599664
	H58	H	0.117616	0.408989	0.580885
	H59	H	0.881397	0.403092	0.409891
	H60	H	0.116440	0.424198	0.592365
	H61	H	0.885667	0.604590	0.580864
	H62	H	0.120834	0.604992	0.402534
	H63	H	0.887165	0.420446	0.414431
	H64	H	0.394748	0.592608	0.117314
	H65	H	0.597182	0.601504	0.882206
	H66	H	0.592187	0.408296	0.116082
	H67	H	0.412707	0.418747	0.884831
	H68	H	0.593794	0.120959	0.408897
	H69	H	0.585468	0.894503	0.589833
	H70	H	0.413688	0.120492	0.588023
	H71	H	0.412863	0.893155	0.409184
	H72	H	0.906045	0.622540	0.089082
	H73	H	0.092648	0.388748	0.099658
	H74	H	0.089640	0.622917	0.896691
	H75	H	0.902750	0.388901	0.906648
	H76	H	0.102117	0.912119	0.617760
	H77	H	0.100139	0.102315	0.381456
	H78	H	0.906403	0.102952	0.618213
	H79	H	0.914574	0.918181	0.386118
	H80	H	0.619137	0.098577	0.904040
	H81	H	0.381954	0.096279	0.099098
	H82	H	0.617911	0.925933	0.101946
	H83	H	0.383609	0.917074	0.905357
	H84	H	0.624120	0.898902	0.096046
	H85	H	0.380922	0.107354	0.092081
	H86	H	0.619553	0.102544	0.903583
	H87	H	0.382949	0.911412	0.907097
	H88	H	0.906941	0.095884	0.616080
	H89	H	0.094275	0.098524	0.384715
	H90	H	0.091485	0.916349	0.614432
	H91	H	0.911625	0.909015	0.382410
	H92	H	0.092709	0.620138	0.910172
	H93	H	0.090155	0.392483	0.089713
	H94	H	0.906722	0.623723	0.095503
	H95	H	0.910632	0.389727	0.900061
	H96	H	0.402040	0.124846	0.591324
	H97	H	0.604925	0.889595	0.588402
	H98	H	0.601603	0.125216	0.402775
	H99	H	0.405215	0.890414	0.409108
	H100	H	0.598085	0.410304	0.117945
	H101	H	0.592807	0.600888	0.883753
	H102	H	0.420009	0.591896	0.109318
	H103	H	0.412755	0.408006	0.882083
	H104	H	0.117864	0.599760	0.408293
	H105	H	0.887262	0.588141	0.590853
	H106	H	0.122700	0.407368	0.599776
	H107	H	0.881662	0.416908	0.397288
	H108	H	0.912023	0.621942	0.091826
	H109	H	0.100349	0.389735	0.091987
	H110	H	0.102757	0.625625	0.901399
	H111	H	0.911979	0.392250	0.909702
	H112	H	0.092834	0.904801	0.616633
	H113	H	0.093277	0.105570	0.382824
	H114	H	0.912946	0.100181	0.614562
	H115	H	0.905080	0.916649	0.382616
	H116	H	0.618610	0.101559	0.907334
	H117	H	0.385133	0.096448	0.086445
	H118	H	0.612591	0.915683	0.076439
	H119	H	0.385248	0.915376	0.911044
	C120	C	0.380320	0.015172	0.621591
	C121	C	0.623301	0.998768	0.621379
	C122	C	0.624268	0.015278	0.376315
	C123	C	0.380655	0.998875	0.378128
	C124	C	0.623149	0.384340	0.008029
	C125	C	0.622837	0.628917	0.990956
	C126	C	0.379377	0.628670	0.007152
	C127	C	0.380029	0.385203	0.990760
	C128	C	0.009922	0.628935	0.376187
	C129	C	0.993797	0.627283	0.618781
	C130	C	0.009980	0.384989	0.620127
	C131	C	0.992647	0.385868	0.378442
	C132	C	0.879444	0.514888	0.120823
	C133	C	0.122369	0.498215	0.120518
	C134	C	0.123546	0.514720	0.875853
	C135	C	0.879811	0.498243	0.876604
	C136	C	0.124100	0.884711	0.507558
	C137	C	0.123856	0.129149	0.491199
	C138	C	0.880507	0.128497	0.508084
	C139	C	0.881132	0.885190	0.491490
	C140	C	0.509764	0.128998	0.877287
	C141	C	0.492130	0.127396	0.119604
	C142	C	0.509450	0.884971	0.121362
	C143	C	0.492870	0.886376	0.879063
	C144	C	0.382051	0.892624	0.677944
	C145	C	0.620877	0.121587	0.675014
	C146	C	0.622032	0.892404	0.322026
	C147	C	0.382500	0.121512	0.321982
	C148	C	0.676850	0.390020	0.884237
	C149	C	0.676889	0.624164	0.114324
	C150	C	0.326082	0.625779	0.883396
	C151	C	0.324759	0.388393	0.113946
	C152	C	0.885912	0.684157	0.379484
	C153	C	0.118027	0.681336	0.615958
	C154	C	0.886315	0.329296	0.618980
	C155	C	0.117099	0.331510	0.379908
	C156	C	0.886254	0.386866	0.676044
	C157	C	0.117716	0.624098	0.673276
	C158	C	0.885041	0.625483	0.323073
	C159	C	0.116938	0.389484	0.323108
	C160	C	0.381850	0.685428	0.884460
	C161	C	0.620207	0.682654	0.114028
	C162	C	0.620835	0.330692	0.884955
	C163	C	0.381159	0.329584	0.113868
	C164	C	0.678819	0.892094	0.381417
	C165	C	0.677251	0.122128	0.616063
	C166	C	0.325829	0.892086	0.618559
	C167	C	0.326517	0.122124	0.381348
	C168	C	0.881180	0.392151	0.177097
	C169	C	0.119896	0.621355	0.174191
	C170	C	0.121231	0.391935	0.822027
	C171	C	0.882012	0.620932	0.820514
	C172	C	0.178611	0.890436	0.383978
	C173	C	0.177415	0.124040	0.614811
	C174	C	0.826180	0.126236	0.384963
	C175	C	0.826107	0.887641	0.614728
	C176	C	0.385476	0.183245	0.880624
	C177	C	0.616336	0.181840	0.116349
	C178	C	0.385390	0.830068	0.120084
	C179	C	0.617248	0.832183	0.881467
	C180	C	0.385529	0.887711	0.177069
	C181	C	0.616650	0.124277	0.173156
	C182	C	0.385358	0.125613	0.823437
	C183	C	0.617552	0.890144	0.824548
	C184	C	0.883093	0.184256	0.385180
	C185	C	0.121019	0.183294	0.614089
	C186	C	0.122148	0.831471	0.384277
	C187	C	0.882270	0.828138	0.613787
	C188	C	0.178014	0.391736	0.880680
	C189	C	0.176559	0.621809	0.115327
	C190	C	0.825181	0.391403	0.117891
	C191	C	0.825731	0.621438	0.879867
	C192	C	0.402513	0.101071	0.599326
	C193	C	0.601615	0.912681	0.600660
	C194	C	0.601888	0.101064	0.397062
	C195	C	0.402833	0.913173	0.400360
	C196	C	0.601183	0.405032	0.094193
	C197	C	0.601179	0.608317	0.904936
	C198	C	0.401421	0.605926	0.092907
	C199	C	0.402864	0.407242	0.904982
	C200	C	0.096667	0.607158	0.397436
	C201	C	0.906804	0.605540	0.596825
	C202	C	0.096681	0.406972	0.597518
	C203	C	0.905856	0.407192	0.400618
	C204	C	0.901533	0.600305	0.098544
	C205	C	0.100768	0.412613	0.099932
	C206	C	0.101461	0.600614	0.896621
	C207	C	0.901908	0.412539	0.898967
	C208	C	0.101866	0.904907	0.593981
	C209	C	0.102327	0.108267	0.405069
	C210	C	0.902351	0.106189	0.594027
	C211	C	0.903707	0.907906	0.405816
	C212	C	0.596623	0.107368	0.898601
	C213	C	0.405080	0.106103	0.098868
	C214	C	0.595915	0.906913	0.098387
	C215	C	0.406203	0.908237	0.901229
	Zn216	Zn	0.501813	0.007194	0.750450
	Zn217	Zn	0.501073	0.007039	0.248289
	Zn218	Zn	0.751285	0.506864	-0.000681
	Zn219	Zn	0.251145	0.506834	-0.001578
	Zn220	Zn	0.002664	0.755713	0.498571
	Zn221	Zn	0.001790	0.257432	0.499491
	Zn222	Zn	0.001810	0.506170	0.747262
	Zn223	Zn	0.001034	0.506527	0.249628
	Zn224	Zn	0.500964	0.757482	-0.000261
	Zn225	Zn	0.501130	0.256024	-0.000527
	Zn226	Zn	0.752294	0.007314	0.499927
	Zn227	Zn	0.251906	0.006800	0.499424
	N228	N	0.415250	0.970256	0.679807
	N229	N	0.588047	0.043992	0.678309
	N230	N	0.589205	0.970069	0.318502
	N231	N	0.415756	0.044187	0.320251
	N232	N	0.678480	0.422684	0.961743
	N233	N	0.678758	0.591498	0.036803
	N234	N	0.324348	0.591198	0.960582
	N235	N	0.324012	0.422239	0.036507
	N236	N	0.964437	0.686264	0.411804
	N237	N	0.039795	0.683365	0.583016
	N238	N	0.964446	0.327904	0.585123
	N239	N	0.038866	0.329404	0.413831
	N240	N	0.964093	0.420685	0.676637
	N241	N	0.039344	0.591049	0.674944
	N242	N	0.963303	0.592040	0.320825
	N243	N	0.038574	0.422475	0.322059
	N244	N	0.414349	0.687110	0.962319
	N245	N	0.587430	0.685807	0.036362
	N246	N	0.588217	0.327170	0.962915
	N247	N	0.414657	0.327184	0.036117
	N248	N	0.680465	0.969461	0.414250
	N249	N	0.678819	0.044662	0.583384
	N250	N	0.324637	0.969227	0.584354
	N251	N	0.325128	0.044827	0.415378
	N252	N	0.914349	0.469708	0.178901
	N253	N	0.086909	0.543827	0.177545
	N254	N	0.087911	0.469515	0.819095
	N255	N	0.914870	0.543288	0.818216
	N256	N	0.179855	0.922742	0.461694
	N257	N	0.179334	0.091281	0.537315
	N258	N	0.824897	0.091939	0.462110
	N259	N	0.825306	0.922388	0.537685
	N260	N	0.463771	0.185545	0.913377
	N261	N	0.538102	0.183809	0.083701
	N262	N	0.463530	0.828297	0.086222
	N263	N	0.538741	0.829610	0.914518
	N264	N	0.463620	0.921285	0.177962
	N265	N	0.538432	0.090970	0.175132
	N266	N	0.463722	0.092816	0.821204
	N267	N	0.539375	0.923274	0.823149
	N268	N	0.916238	0.185715	0.462856
	N269	N	0.088579	0.186580	0.536310
	N270	N	0.089383	0.827627	0.462212
	N271	N	0.915954	0.826556	0.536237
	N272	N	0.179690	0.469083	0.913137
	N273	N	0.178274	0.544354	0.082614
	N274	N	0.823736	0.468610	0.083676
	N275	N	0.824006	0.544202	0.913943
	O276	O	-0.086308	-0.086060	1.077905
	H277	H	-0.089439	-0.081598	1.071211
	H278	H	-0.095007	-0.099861	1.082065
	O279	O	0.425566	0.506441	0.531832
	H280	H	0.435529	0.505636	0.539531
	H281	H	0.426822	0.504814	0.527391
	O282	O	0.401642	0.537234	0.541424
	H283	H	0.395970	0.535168	0.537553
	H284	H	0.401112	0.527069	0.540361
	O285	O	0.450727	0.532761	0.539383
	H286	H	0.448728	0.535278	0.541652
	H287	H	0.448256	0.547369	0.542260
	O288	O	0.937496	-0.091822	0.071660
	H289	H	0.934512	-0.096397	0.073748
	H290	H	0.937395	-0.084603	0.076959
	O291	O	-0.073236	0.895637	1.058835
	H292	H	-0.072342	0.893364	1.057449
	H293	H	-0.072790	0.893835	1.064513
	O294	O	0.429364	0.561389	0.553235
	H295	H	0.428867	0.567131	0.552594
	H296	H	0.414722	0.556935	0.558168
	O297	O	0.935698	-0.076660	0.057138
	H298	H	0.944904	-0.084881	0.057124
	H299	H	0.930939	-0.073045	0.059684
