data_Molecule from HDF5

_cell_length_a		16.250547
_cell_length_b		16.428536
_cell_length_c		16.150064
_cell_angle_alpha	90.180035
_cell_angle_beta	89.959613
_cell_angle_gamma	89.728661
_symmetry_space_group_name_H-M	'P 1'
_symmetry_Int_Tables_number		1

loop_
	_symmetry_equiv_pos_as_xyz
	x,y,z

loop_
	_atom_site_label
	_atom_site_type_symbol
	_atom_site_fract_x
	_atom_site_fract_y
	_atom_site_fract_z
	H0	H	0.402874	0.828285	0.715988
	H1	H	0.600491	0.152357	0.719995
	H2	H	0.601715	0.829314	0.286090
	H3	H	0.400609	0.152821	0.286185
	H4	H	0.716956	0.390803	0.839497
	H5	H	0.711304	0.588952	0.167824
	H6	H	0.283671	0.592365	0.839480
	H7	H	0.287337	0.393589	0.167561
	H8	H	0.838728	0.713944	0.398717
	H9	H	0.162545	0.711848	0.606193
	H10	H	0.838076	0.276495	0.604412
	H11	H	0.161984	0.274330	0.398014
	H12	H	0.835739	0.398225	0.715126
	H13	H	0.163677	0.592959	0.719689
	H14	H	0.836014	0.594033	0.287741
	H15	H	0.163572	0.394894	0.287846
	H16	H	0.399277	0.706890	0.838227
	H17	H	0.602529	0.708889	0.164583
	H18	H	0.603671	0.273269	0.838326
	H19	H	0.397853	0.273193	0.164485
	H20	H	0.721009	0.831231	0.400343
	H21	H	0.716155	0.153974	0.603246
	H22	H	0.282983	0.830612	0.603034
	H23	H	0.283147	0.152220	0.398692
	H24	H	0.900601	0.330505	0.219229
	H25	H	0.096194	0.655252	0.218345
	H26	H	0.101293	0.331284	0.785378
	H27	H	0.899337	0.655195	0.788025
	H28	H	0.215802	0.891139	0.337150
	H29	H	0.216553	0.091383	0.665658
	H30	H	0.785469	0.094419	0.338049
	H31	H	0.788507	0.896744	0.666631
	H32	H	0.339457	0.210406	0.896687
	H33	H	0.662744	0.208121	0.103095
	H34	H	0.338602	0.774790	0.103659
	H35	H	0.662546	0.771115	0.897402
	H36	H	0.337292	0.893094	0.217003
	H37	H	0.664580	0.088060	0.215496
	H38	H	0.336411	0.088397	0.787972
	H39	H	0.664797	0.891055	0.786705
	H40	H	0.899829	0.209122	0.338715
	H41	H	0.102467	0.209588	0.665501
	H42	H	0.103399	0.773152	0.339583
	H43	H	0.898515	0.778357	0.665789
	H44	H	0.218644	0.331157	0.901503
	H45	H	0.218338	0.653156	0.107260
	H46	H	0.783041	0.331009	0.104985
	H47	H	0.779894	0.652933	0.901917
	H48	H	0.413358	0.103156	0.591092
	H49	H	0.592609	0.877397	0.593617
	H50	H	0.588682	0.106271	0.406193
	H51	H	0.412986	0.878168	0.411199
	H52	H	0.594971	0.396024	0.121262
	H53	H	0.585688	0.587546	0.885232
	H54	H	0.408186	0.582062	0.118652
	H55	H	0.414213	0.397900	0.886165
	H56	H	0.117927	0.590348	0.410218
	H57	H	0.881816	0.585529	0.604757
	H58	H	0.116789	0.398579	0.591575
	H59	H	0.885168	0.408215	0.408923
	H60	H	0.115636	0.403007	0.593448
	H61	H	0.882440	0.597120	0.591486
	H62	H	0.111832	0.582980	0.421849
	H63	H	0.880400	0.393866	0.408402
	H64	H	0.413480	0.585182	0.118910
	H65	H	0.598296	0.582521	0.882913
	H66	H	0.590232	0.402811	0.117962
	H67	H	0.406109	0.397732	0.883586
	H68	H	0.592390	0.105209	0.414436
	H69	H	0.596737	0.877417	0.589359
	H70	H	0.404858	0.105816	0.590857
	H71	H	0.404060	0.875513	0.412327
	H72	H	0.903634	0.607977	0.096455
	H73	H	0.087076	0.377354	0.100992
	H74	H	0.096681	0.611608	0.903397
	H75	H	0.912582	0.378905	0.910214
	H76	H	0.089091	0.906641	0.615828
	H77	H	0.093366	0.081804	0.385533
	H78	H	0.914896	0.089042	0.617795
	H79	H	0.911165	0.900555	0.385180
	H80	H	0.616151	0.082125	0.914382
	H81	H	0.385391	0.080736	0.092695
	H82	H	0.611625	0.908342	0.087706
	H83	H	0.382855	0.885932	0.916943
	H84	H	0.621314	0.897758	0.102927
	H85	H	0.383663	0.085305	0.094677
	H86	H	0.616626	0.080385	0.909227
	H87	H	0.390372	0.909360	0.916675
	H88	H	0.904910	0.089493	0.621907
	H89	H	0.088765	0.085994	0.385203
	H90	H	0.089191	0.896709	0.619366
	H91	H	0.911543	0.902893	0.385783
	H92	H	0.080091	0.602963	0.913877
	H93	H	0.093200	0.380618	0.086548
	H94	H	0.907982	0.606212	0.096448
	H95	H	0.908736	0.379586	0.913723
	H96	H	0.409427	0.106490	0.598134
	H97	H	0.598456	0.875025	0.594764
	H98	H	0.597323	0.108248	0.407012
	H99	H	0.408389	0.873791	0.404247
	H100	H	0.586199	0.395584	0.118536
	H101	H	0.588800	0.573653	0.888586
	H102	H	0.408557	0.587653	0.120888
	H103	H	0.409479	0.404809	0.886703
	H104	H	0.113659	0.576427	0.408197
	H105	H	0.887417	0.581515	0.588682
	H106	H	0.117924	0.399316	0.596280
	H107	H	0.885898	0.399636	0.421326
	H108	H	0.905812	0.606233	0.092238
	H109	H	0.102592	0.374932	0.098752
	H110	H	0.099111	0.606015	0.923784
	H111	H	0.907554	0.377699	0.909394
	H112	H	0.097962	0.902656	0.619816
	H113	H	0.094192	0.087284	0.383327
	H114	H	0.908224	0.080247	0.617712
	H115	H	0.912647	0.901494	0.385222
	H116	H	0.617388	0.085561	0.910513
	H117	H	0.384915	0.085483	0.089240
	H118	H	0.617633	0.889156	0.084397
	H119	H	0.380735	0.898607	0.895658
	C120	C	0.379351	-0.001137	0.623111
	C121	C	0.624085	0.983354	0.623268
	C122	C	0.623838	0.000094	0.379085
	C123	C	0.378991	0.982521	0.379469
	C124	C	0.621762	0.368625	0.011162
	C125	C	0.620587	0.611568	0.993688
	C126	C	0.379225	0.614008	0.011221
	C127	C	0.380121	0.370891	0.993825
	C128	C	0.007623	0.614156	0.382411
	C129	C	0.991763	0.616496	0.625043
	C130	C	0.009101	0.371795	0.623523
	C131	C	0.991043	0.370994	0.381313
	C132	C	0.877067	0.500387	0.125284
	C133	C	0.122363	0.484509	0.125428
	C134	C	0.122637	0.500864	0.881699
	C135	C	0.878195	0.484810	0.881711
	C136	C	0.122420	0.870789	0.510416
	C137	C	0.122342	0.113992	0.493145
	C138	C	0.879611	0.114863	0.510634
	C139	C	0.881150	0.872800	0.493658
	C140	C	0.509418	0.112119	0.880310
	C141	C	0.492220	0.112962	0.122578
	C142	C	0.509481	0.869509	0.122200
	C143	C	0.492275	0.868264	0.879911
	C144	C	0.381815	0.877061	0.678426
	C145	C	0.621448	0.104238	0.681409
	C146	C	0.622557	0.878262	0.323350
	C147	C	0.380128	0.104038	0.323277
	C148	C	0.679275	0.370133	0.888210
	C149	C	0.674603	0.609438	0.118208
	C150	C	0.322451	0.611965	0.888135
	C151	C	0.324715	0.372808	0.117991
	C152	C	0.886405	0.673367	0.381261
	C153	C	0.114418	0.672725	0.625216
	C154	C	0.886480	0.315641	0.623501
	C155	C	0.113563	0.313776	0.379791
	C156	C	0.885368	0.376034	0.678596
	C157	C	0.114803	0.613884	0.681702
	C158	C	0.884963	0.613774	0.325742
	C159	C	0.114233	0.373631	0.325088
	C160	C	0.379691	0.669199	0.887765
	C161	C	0.620846	0.669339	0.116416
	C162	C	0.622570	0.312146	0.887565
	C163	C	0.379459	0.312806	0.116215
	C164	C	0.681724	0.879170	0.380279
	C165	C	0.678861	0.105114	0.622916
	C166	C	0.322211	0.878241	0.622293
	C167	C	0.321606	0.103723	0.379684
	C168	C	0.879671	0.379102	0.181682
	C169	C	0.118170	0.606459	0.180935
	C170	C	0.121588	0.379642	0.824054
	C171	C	0.879100	0.606302	0.825811
	C172	C	0.177974	0.871475	0.386502
	C173	C	0.178391	0.111804	0.616699
	C174	C	0.823305	0.113753	0.387204
	C175	C	0.825385	0.875797	0.617273
	C176	C	0.387337	0.170140	0.878960
	C177	C	0.614352	0.169525	0.122618
	C178	C	0.387136	0.813320	0.122704
	C179	C	0.614551	0.810630	0.879086
	C180	C	0.386422	0.872144	0.178972
	C181	C	0.615250	0.109852	0.178363
	C182	C	0.385958	0.109515	0.824824
	C183	C	0.615355	0.870153	0.823854
	C184	C	0.880409	0.170875	0.387456
	C185	C	0.121896	0.170686	0.616450
	C186	C	0.122396	0.812690	0.387990
	C187	C	0.880252	0.816771	0.616753
	C188	C	0.179925	0.379476	0.881870
	C189	C	0.179043	0.605426	0.125732
	C190	C	0.821332	0.379104	0.124679
	C191	C	0.819514	0.605190	0.882503
	C192	C	0.402455	0.083446	0.600110
	C193	C	0.602104	0.898549	0.599516
	C194	C	0.599997	0.084494	0.402420
	C195	C	0.401717	0.897720	0.402493
	C196	C	0.597564	0.391320	0.096877
	C197	C	0.597847	0.588091	0.907805
	C198	C	0.403100	0.591681	0.097436
	C199	C	0.403206	0.393591	0.907828
	C200	C	0.092655	0.590336	0.406316
	C201	C	0.906222	0.594490	0.601741
	C202	C	0.094595	0.393782	0.600482
	C203	C	0.906071	0.393648	0.405695
	C204	C	0.899303	0.584799	0.101983
	C205	C	0.100654	0.399597	0.102072
	C206	C	0.098876	0.585095	0.906407
	C207	C	0.902471	0.400500	0.904683
	C208	C	0.099034	0.894945	0.596129
	C209	C	0.099019	0.091664	0.407176
	C210	C	0.902637	0.092856	0.596687
	C211	C	0.904928	0.895065	0.407548
	C212	C	0.594612	0.089429	0.904332
	C213	C	0.406749	0.090513	0.099128
	C214	C	0.594650	0.891907	0.098536
	C215	C	0.406870	0.891221	0.903082
	Zn216	Zn	0.501001	-0.009558	0.752118
	Zn217	Zn	0.500465	-0.008770	0.250799
	Zn218	Zn	0.747834	0.491366	0.003442
	Zn219	Zn	0.252262	0.492505	0.003695
	Zn220	Zn	0.000345	0.744142	0.503067
	Zn221	Zn	0.000435	0.242812	0.502211
	Zn222	Zn	0.000441	0.493657	0.752076
	Zn223	Zn	-0.001035	0.492830	0.253724
	Zn224	Zn	0.501115	0.740405	0.001283
	Zn225	Zn	0.499949	0.241703	0.001105
	Zn226	Zn	0.753204	-0.006861	0.501345
	Zn227	Zn	0.250194	-0.008530	0.501003
	N228	N	0.416539	0.953153	0.679212
	N229	N	0.587976	0.027544	0.681859
	N230	N	0.587111	0.954371	0.322481
	N231	N	0.415085	0.027788	0.323101
	N232	N	0.678730	0.404627	0.965958
	N233	N	0.674662	0.574126	0.040926
	N234	N	0.321953	0.578494	0.966112
	N235	N	0.324830	0.408139	0.040867
	N236	N	0.963731	0.673789	0.415709
	N237	N	0.036966	0.674415	0.590801
	N238	N	0.964370	0.312927	0.590065
	N239	N	0.036100	0.311934	0.414100
	N240	N	0.962526	0.410333	0.678785
	N241	N	0.037779	0.579710	0.681715
	N242	N	0.961309	0.577457	0.326500
	N243	N	0.037195	0.408490	0.325731
	N244	N	0.414138	0.670547	0.965496
	N245	N	0.588200	0.670750	0.037957
	N246	N	0.587788	0.310843	0.965056
	N247	N	0.413070	0.311585	0.037956
	N248	N	0.682706	0.956088	0.414027
	N249	N	0.680680	0.028862	0.587777
	N250	N	0.320695	0.955095	0.588508
	N251	N	0.320790	0.027124	0.414101
	N252	N	0.913649	0.455410	0.182165
	N253	N	0.083816	0.530182	0.180845
	N254	N	0.086870	0.456109	0.823696
	N255	N	0.914875	0.530449	0.825218
	N256	N	0.177901	0.907263	0.463663
	N257	N	0.178909	0.077436	0.539038
	N258	N	0.822629	0.079720	0.464874
	N259	N	0.825588	0.909934	0.539426
	N260	N	0.465039	0.172197	0.912518
	N261	N	0.536799	0.171478	0.088653
	N262	N	0.464559	0.811558	0.088086
	N263	N	0.536967	0.809177	0.912851
	N264	N	0.463429	0.906422	0.178805
	N265	N	0.538230	0.075464	0.178507
	N266	N	0.463022	0.074338	0.825175
	N267	N	0.538497	0.905429	0.824078
	N268	N	0.914650	0.171821	0.465221
	N269	N	0.087868	0.172260	0.538556
	N270	N	0.088729	0.812232	0.466018
	N271	N	0.914215	0.814914	0.538824
	N272	N	0.180714	0.455974	0.916870
	N273	N	0.181718	0.528398	0.091972
	N274	N	0.819342	0.455647	0.090390
	N275	N	0.818842	0.528464	0.916656
	O276	O	-0.110620	-0.045402	0.132320
	H277	H	-0.114420	-0.032866	0.159016
	H278	H	-0.114851	-0.064575	0.132742
	O279	O	0.493680	0.427147	0.522467
	H280	H	0.498764	0.432363	0.540504
	H281	H	0.484094	0.420951	0.526194
	O282	O	1.028453	0.061134	0.047029
	H283	H	1.036425	0.068085	0.031098
	H284	H	1.024731	0.059898	0.052189
	O285	O	0.014295	1.040570	0.046501
	H286	H	0.006217	1.043735	0.045771
	H287	H	0.009600	1.042343	0.034692
	O288	O	0.508689	0.405403	0.428320
	H289	H	0.519215	0.425837	0.420923
	H290	H	0.521502	0.409240	0.440116
	O291	O	0.429859	0.504363	0.596945
	H292	H	0.422448	0.511805	0.584352
	H293	H	0.426535	0.503432	0.601484
	O294	O	1.137649	0.940323	0.920924
	H295	H	1.149747	0.943624	0.915822
	H296	H	1.134924	0.946757	0.908827
	O297	O	-0.068830	0.098225	-0.148441
	H298	H	-0.069162	0.087094	-0.139656
	H299	H	-0.074664	0.104540	-0.155804
	O300	O	0.468407	0.601787	0.505104
	H301	H	0.472704	0.592535	0.506436
	H302	H	0.471771	0.593790	0.507380
	O303	O	0.122578	1.171320	1.132709
	H304	H	0.115474	1.180195	1.128978
	H305	H	0.116812	1.182532	1.127491
	O306	O	1.075160	0.912407	-0.043144
	H307	H	1.073790	0.920348	-0.036915
	H308	H	1.080246	0.919754	-0.035583
	O309	O	0.981279	-0.089164	0.040809
	H310	H	0.979304	-0.092328	0.049983
	H311	H	0.970947	-0.095391	0.042487
	O312	O	-0.017547	-0.038234	1.076783
	H313	H	-0.007548	-0.031976	1.073240
	H314	H	-0.029818	-0.030399	1.075069
	O315	O	0.613547	0.575754	0.521928
	H316	H	0.618872	0.580057	0.510516
	H317	H	0.605597	0.576404	0.539158
	O318	O	0.309982	0.348170	0.511843
	H319	H	0.310529	0.353666	0.512161
	H320	H	0.291832	0.330623	0.515225
	O321	O	0.632251	0.428108	0.465978
	H322	H	0.618330	0.424994	0.482180
	H323	H	0.642499	0.422872	0.477085
	O324	O	0.368630	0.569971	0.515412
	H325	H	0.361322	0.583332	0.504956
	H326	H	0.371208	0.553741	0.508735
	O327	O	-0.080441	0.953374	1.163613
	H328	H	-0.073094	0.954454	1.161306
	H329	H	-0.078235	0.968273	1.165709
	O330	O	0.609804	0.400545	0.494071
	H331	H	0.597191	0.413042	0.506379
	H332	H	0.612501	0.399011	0.499270
	O333	O	-0.068376	1.025002	0.866854
	H334	H	-0.069572	1.013747	0.864220
	H335	H	-0.068834	1.019631	0.866453
	O336	O	0.892806	0.997092	1.062814
	H337	H	0.898128	0.989656	1.079510
	H338	H	0.882334	1.013541	1.056016
	O339	O	0.586250	0.583602	0.641523
	H340	H	0.567517	0.575415	0.638209
	H341	H	0.582171	0.585108	0.629992
	O342	O	0.966966	-0.097532	0.005586
	H343	H	0.972417	-0.097077	0.002018
	H344	H	0.960893	-0.108369	0.018686
	O345	O	0.534526	0.571333	0.466520
	H346	H	0.538643	0.560446	0.462979
	H347	H	0.545800	0.569845	0.464491
	O348	O	1.059093	1.029717	1.082852
	H349	H	1.059093	1.032213	1.088974
	H350	H	1.058337	1.035403	1.081382
	O351	O	0.534336	1.435394	-0.525134
	H352	H	0.531552	1.419785	-0.531374
	H353	H	0.553090	1.456551	-0.520303
	O354	O	0.545995	0.339237	0.612073
	H355	H	0.536707	0.341562	0.608788
	H356	H	0.551002	0.353707	0.615938
	O357	O	0.441425	0.617394	0.514528
	H358	H	0.440889	0.612553	0.504931
	H359	H	0.425903	0.613087	0.516505
	O360	O	0.166221	0.080329	-0.020550
	H361	H	0.159486	0.085219	-0.011942
	H362	H	0.159256	0.078684	-0.024094
	O363	O	0.434532	0.656167	0.438231
	H364	H	0.425947	0.661057	0.437105
	H365	H	0.425873	0.672079	0.431327
	O366	O	0.448517	0.523174	0.482810
	H367	H	0.427021	0.517613	0.472821
	H368	H	0.445066	0.527106	0.489194
	O369	O	0.576215	0.489195	0.577531
	H370	H	0.575947	0.490647	0.576162
	H371	H	0.573240	0.502605	0.579630
	O372	O	0.338427	0.527466	0.553551
	H373	H	0.335716	0.516348	0.553360
	H374	H	0.315592	0.539047	0.540210
	O375	O	0.469453	0.387610	0.402003
	H376	H	0.469027	0.375565	0.408611
	H377	H	0.473258	0.391914	0.390202
	O378	O	0.451473	0.658130	0.549119
	H379	H	0.454227	0.665362	0.545751
	H380	H	0.453935	0.656185	0.542258
	O381	O	0.570303	0.372187	0.345052
	H382	H	0.572475	0.369505	0.362073
	H383	H	0.576895	0.365895	0.340983
	O384	O	-0.100612	1.012510	-0.058197
	H385	H	-0.095175	1.006111	-0.053631
	H386	H	-0.104017	1.005751	-0.050209
	O387	O	0.927647	-0.008221	0.948873
	H388	H	0.932094	-0.021138	0.954255
	H389	H	0.930009	-0.017466	0.950794
	O390	O	-0.130625	1.021671	-0.108866
	H391	H	-0.144467	1.024228	-0.110319
	H392	H	-0.136443	1.014138	-0.104337
	O393	O	0.968524	1.000704	-0.057256
	H394	H	0.964331	1.003343	-0.064767
	H395	H	0.962896	1.010482	-0.059679
	O396	O	0.384218	0.349814	0.667130
	H397	H	0.380503	0.345819	0.672246
	H398	H	0.392681	0.362112	0.662993
	O399	O	0.079702	0.853099	0.986199
	H400	H	0.092046	0.834565	0.975177
	H401	H	0.105303	0.863224	0.985987
	O402	O	1.038855	1.095542	1.007545
	H403	H	1.034377	1.094864	1.000250
	H404	H	1.024876	1.098870	0.998198
	O405	O	0.534595	0.476835	0.386598
	H406	H	0.532538	0.472915	0.391517
	H407	H	0.544938	0.466521	0.382011
