data_Molecule from HDF5

_cell_length_a		16.452149
_cell_length_b		16.219857
_cell_length_c		16.396574
_cell_angle_alpha	90.384158
_cell_angle_beta	90.018331
_cell_angle_gamma	89.980858
_symmetry_space_group_name_H-M	'P 1'
_symmetry_Int_Tables_number		1

loop_
	_symmetry_equiv_pos_as_xyz
	x,y,z

loop_
	_atom_site_label
	_atom_site_type_symbol
	_atom_site_fract_x
	_atom_site_fract_y
	_atom_site_fract_z
	H0	H	0.398440	0.835785	0.715040
	H1	H	0.607190	0.158404	0.720415
	H2	H	0.605355	0.837520	0.278997
	H3	H	0.401333	0.161264	0.281705
	H4	H	0.722664	0.389131	0.836743
	H5	H	0.721634	0.601042	0.155691
	H6	H	0.276247	0.605621	0.838728
	H7	H	0.279241	0.391586	0.154624
	H8	H	0.842029	0.714970	0.396994
	H9	H	0.161461	0.719240	0.602272
	H10	H	0.841897	0.281657	0.595318
	H11	H	0.161258	0.277253	0.390319
	H12	H	0.843544	0.393039	0.714392
	H13	H	0.159690	0.607401	0.721996
	H14	H	0.842682	0.600725	0.277284
	H15	H	0.159909	0.390610	0.273092
	H16	H	0.394857	0.718823	0.837036
	H17	H	0.601199	0.712966	0.157978
	H18	H	0.602565	0.277025	0.836067
	H19	H	0.402250	0.284248	0.159287
	H20	H	0.718861	0.836711	0.397488
	H21	H	0.720244	0.160477	0.603056
	H22	H	0.282649	0.837174	0.601382
	H23	H	0.281988	0.158398	0.392299
	H24	H	0.899268	0.335428	0.211842
	H25	H	0.106988	0.657041	0.217666
	H26	H	0.105141	0.335026	0.775706
	H27	H	0.899163	0.659182	0.778796
	H28	H	0.223997	0.891290	0.337956
	H29	H	0.225341	0.105998	0.656299
	H30	H	0.781156	0.102113	0.339266
	H31	H	0.783049	0.895244	0.658314
	H32	H	0.341649	0.216031	0.895733
	H33	H	0.661765	0.215424	0.098965
	H34	H	0.342398	0.779086	0.100830
	H35	H	0.661541	0.777129	0.894243
	H36	H	0.343816	0.894265	0.218670
	H37	H	0.661832	0.102649	0.216648
	H38	H	0.344212	0.102820	0.775921
	H39	H	0.660528	0.891035	0.777155
	H40	H	0.902153	0.212143	0.334677
	H41	H	0.104701	0.218819	0.656992
	H42	H	0.104135	0.779074	0.336898
	H43	H	0.899436	0.778991	0.657692
	H44	H	0.222414	0.335364	0.888749
	H45	H	0.222402	0.656995	0.102695
	H46	H	0.786363	0.334455	0.095210
	H47	H	0.781564	0.657038	0.891482
	H48	H	0.416511	0.110548	0.582168
	H49	H	0.595160	0.883697	0.584957
	H50	H	0.595599	0.117445	0.404572
	H51	H	0.415138	0.885332	0.412332
	H52	H	0.594094	0.410637	0.109834
	H53	H	0.597243	0.590856	0.878775
	H54	H	0.400756	0.579410	0.110787
	H55	H	0.409557	0.403837	0.880987
	H56	H	0.118490	0.593918	0.406797
	H57	H	0.893319	0.577322	0.585730
	H58	H	0.118102	0.406923	0.589096
	H59	H	0.892872	0.417614	0.409346
	H60	H	0.114981	0.408250	0.581249
	H61	H	0.884987	0.590130	0.595814
	H62	H	0.112764	0.582848	0.411387
	H63	H	0.883908	0.406778	0.390109
	H64	H	0.421482	0.581229	0.103261
	H65	H	0.595221	0.578730	0.883301
	H66	H	0.593865	0.404783	0.111644
	H67	H	0.410093	0.411528	0.883507
	H68	H	0.590557	0.114122	0.407814
	H69	H	0.595132	0.881342	0.588362
	H70	H	0.410817	0.113407	0.586881
	H71	H	0.409335	0.881499	0.406632
	H72	H	0.910106	0.614702	0.091396
	H73	H	0.089292	0.383036	0.081587
	H74	H	0.092480	0.612041	0.908371
	H75	H	0.915716	0.381527	0.902924
	H76	H	0.092285	0.916676	0.608984
	H77	H	0.091466	0.076907	0.388503
	H78	H	0.904374	0.087382	0.613452
	H79	H	0.914019	0.910626	0.385505
	H80	H	0.616048	0.084841	0.903178
	H81	H	0.386398	0.089680	0.090792
	H82	H	0.614298	0.909695	0.087539
	H83	H	0.383981	0.901727	0.900403
	H84	H	0.616943	0.906950	0.091503
	H85	H	0.387985	0.089379	0.091626
	H86	H	0.615566	0.090686	0.911223
	H87	H	0.391137	0.905862	0.915956
	H88	H	0.917778	0.084472	0.608556
	H89	H	0.086999	0.093928	0.382593
	H90	H	0.088294	0.907621	0.610742
	H91	H	0.911566	0.902815	0.382536
	H92	H	0.086402	0.609763	0.907099
	H93	H	0.092648	0.381862	0.082878
	H94	H	0.917101	0.610895	0.085514
	H95	H	0.911669	0.382094	0.907724
	H96	H	0.418595	0.112228	0.590464
	H97	H	0.591569	0.883388	0.587315
	H98	H	0.596387	0.115379	0.410720
	H99	H	0.417716	0.883452	0.402962
	H100	H	0.598916	0.408068	0.112395
	H101	H	0.585441	0.587789	0.883286
	H102	H	0.411572	0.599001	0.113755
	H103	H	0.416864	0.407437	0.883926
	H104	H	0.116532	0.583447	0.399256
	H105	H	0.890319	0.594002	0.578708
	H106	H	0.114948	0.414524	0.586575
	H107	H	0.885458	0.394930	0.410693
	H108	H	0.908256	0.613470	0.082365
	H109	H	0.089823	0.382076	0.085671
	H110	H	0.089370	0.608858	0.912929
	H111	H	0.910048	0.379741	0.901552
	H112	H	0.098025	0.909206	0.612640
	H113	H	0.104030	0.087313	0.378987
	H114	H	0.914395	0.097675	0.614073
	H115	H	0.905905	0.909142	0.383186
	H116	H	0.612162	0.081310	0.912640
	H117	H	0.386829	0.089006	0.091358
	H118	H	0.616210	0.905094	0.086226
	H119	H	0.390178	0.917659	0.903413
	C120	C	0.382686	0.005918	0.618095
	C121	C	0.624515	0.989474	0.619940
	C122	C	0.624537	0.008081	0.376882
	C123	C	0.382673	0.990034	0.376506
	C124	C	0.625169	0.374646	0.005331
	C125	C	0.623070	0.617629	0.987597
	C126	C	0.378824	0.619269	0.004532
	C127	C	0.380831	0.376739	0.988592
	C128	C	0.010540	0.618397	0.375256
	C129	C	0.994284	0.620260	0.619283
	C130	C	0.010743	0.377702	0.615982
	C131	C	0.993145	0.374828	0.372386
	C132	C	0.881409	0.505520	0.116119
	C133	C	0.122957	0.488012	0.116576
	C134	C	0.122433	0.504512	0.875417
	C135	C	0.880749	0.487874	0.873655
	C136	C	0.124181	0.877940	0.505501
	C137	C	0.125638	0.120121	0.488440
	C138	C	0.881582	0.119568	0.505844
	C139	C	0.880311	0.876475	0.489756
	C140	C	0.509897	0.118002	0.877261
	C141	C	0.493034	0.120322	0.120373
	C142	C	0.510630	0.876420	0.119375
	C143	C	0.493286	0.875525	0.875342
	C144	C	0.380114	0.884737	0.676465
	C145	C	0.625646	0.110464	0.680223
	C146	C	0.624256	0.885998	0.318484
	C147	C	0.381651	0.111886	0.319017
	C148	C	0.683059	0.371616	0.884748
	C149	C	0.682067	0.619746	0.107815
	C150	C	0.317336	0.622697	0.885791
	C151	C	0.320290	0.374504	0.107738
	C152	C	0.890138	0.676430	0.376221
	C153	C	0.113938	0.679804	0.620723
	C154	C	0.890242	0.319882	0.615240
	C155	C	0.113194	0.316266	0.371690
	C156	C	0.891067	0.375395	0.674687
	C157	C	0.112812	0.624088	0.680347
	C158	C	0.890371	0.619563	0.317002
	C159	C	0.112644	0.373070	0.313438
	C160	C	0.376671	0.679140	0.884958
	C161	C	0.621948	0.675353	0.109056
	C162	C	0.623163	0.315759	0.884542
	C163	C	0.381267	0.320607	0.109919
	C164	C	0.680886	0.885707	0.377210
	C165	C	0.682009	0.111437	0.621793
	C166	C	0.322276	0.885252	0.619711
	C167	C	0.322385	0.110619	0.374403
	C168	C	0.880830	0.383811	0.173123
	C169	C	0.125539	0.608647	0.177807
	C170	C	0.124315	0.383572	0.814755
	C171	C	0.879861	0.610070	0.816636
	C172	C	0.183522	0.874266	0.385574
	C173	C	0.185050	0.123912	0.608532
	C174	C	0.821590	0.120507	0.386381
	C175	C	0.822515	0.876078	0.610417
	C176	C	0.389912	0.177188	0.876323
	C177	C	0.613924	0.176927	0.118676
	C178	C	0.390611	0.818117	0.119780
	C179	C	0.613590	0.816372	0.874957
	C180	C	0.391239	0.875201	0.178743
	C181	C	0.613645	0.120981	0.177663
	C182	C	0.391082	0.121016	0.816477
	C183	C	0.613170	0.873097	0.816849
	C184	C	0.882156	0.174914	0.383889
	C185	C	0.125412	0.180461	0.608716
	C186	C	0.123962	0.818268	0.385050
	C187	C	0.880498	0.818400	0.610194
	C188	C	0.182330	0.383696	0.871502
	C189	C	0.182955	0.608656	0.120334
	C190	C	0.824536	0.383303	0.114925
	C191	C	0.821463	0.609192	0.872917
	C192	C	0.408055	0.090122	0.593567
	C193	C	0.600551	0.904557	0.594470
	C194	C	0.601005	0.093416	0.400758
	C195	C	0.407070	0.905423	0.400580
	C196	C	0.602262	0.400211	0.089362
	C197	C	0.599495	0.592971	0.903656
	C198	C	0.403997	0.594005	0.087748
	C199	C	0.405062	0.400745	0.904634
	C200	C	0.094149	0.593970	0.398900
	C201	C	0.911236	0.594665	0.594096
	C202	C	0.094361	0.402568	0.592425
	C203	C	0.909161	0.399396	0.396496
	C204	C	0.904937	0.590741	0.092884
	C205	C	0.097898	0.403976	0.090689
	C206	C	0.096819	0.588337	0.901830
	C207	C	0.905395	0.403137	0.897037
	C208	C	0.099932	0.903769	0.588978
	C209	C	0.101449	0.093700	0.405138
	C210	C	0.905400	0.096691	0.590068
	C211	C	0.903797	0.900502	0.405755
	C212	C	0.592967	0.092737	0.901836
	C213	C	0.408854	0.096467	0.097678
	C214	C	0.594181	0.900417	0.095252
	C215	C	0.410193	0.901029	0.899603
	Zn216	Zn	0.502703	-0.002680	0.746907
	Zn217	Zn	0.502597	-0.000954	0.248601
	Zn218	Zn	0.753603	0.496802	-0.004659
	Zn219	Zn	0.251070	0.496294	-0.004376
	Zn220	Zn	0.002688	0.748474	0.497959
	Zn221	Zn	0.002272	0.248062	0.495775
	Zn222	Zn	0.002458	0.497677	0.746639
	Zn223	Zn	0.001293	0.496535	0.244744
	Zn224	Zn	0.501575	0.747321	-0.003646
	Zn225	Zn	0.501233	0.247940	-0.001671
	Zn226	Zn	0.752245	-0.001081	0.499068
	Zn227	Zn	0.254353	-0.002108	0.497521
	N228	N	0.417041	0.960768	0.675598
	N229	N	0.590751	0.033452	0.679135
	N230	N	0.590169	0.963281	0.318047
	N231	N	0.418309	0.035759	0.320140
	N232	N	0.684316	0.407828	0.960781
	N233	N	0.683034	0.584522	0.031315
	N234	N	0.318414	0.586240	0.961295
	N235	N	0.319899	0.408344	0.031087
	N236	N	0.965849	0.676101	0.411433
	N237	N	0.039107	0.677373	0.583461
	N238	N	0.965740	0.321241	0.579436
	N239	N	0.037755	0.317309	0.407640
	N240	N	0.967019	0.410877	0.675402
	N241	N	0.037481	0.587594	0.679364
	N242	N	0.966417	0.584307	0.315961
	N243	N	0.036731	0.408514	0.313550
	N244	N	0.414146	0.677137	0.959871
	N245	N	0.586107	0.674258	0.033344
	N246	N	0.588128	0.317438	0.960614
	N247	N	0.418408	0.321961	0.034790
	N248	N	0.681211	0.962665	0.412740
	N249	N	0.681456	0.035198	0.585084
	N250	N	0.323905	0.961675	0.584013
	N251	N	0.322659	0.033720	0.409359
	N252	N	0.915533	0.460956	0.173802
	N253	N	0.088990	0.532593	0.175814
	N254	N	0.087761	0.459866	0.817021
	N255	N	0.916015	0.533758	0.817145
	N256	N	0.183733	0.910636	0.461491
	N257	N	0.185632	0.087433	0.532624
	N258	N	0.821181	0.086642	0.463078
	N259	N	0.822348	0.911469	0.534462
	N260	N	0.464737	0.175259	0.913489
	N261	N	0.537964	0.176819	0.083984
	N262	N	0.466054	0.818502	0.083594
	N263	N	0.538022	0.817593	0.910447
	N264	N	0.466875	0.910774	0.178662
	N265	N	0.537456	0.086446	0.178919
	N266	N	0.466582	0.084873	0.817088
	N267	N	0.537413	0.909036	0.816630
	N268	N	0.919020	0.174235	0.459121
	N269	N	0.089376	0.178330	0.533050
	N270	N	0.087797	0.820284	0.460541
	N271	N	0.915896	0.818836	0.534262
	N272	N	0.181370	0.459950	0.908404
	N273	N	0.181382	0.532559	0.082913
	N274	N	0.824661	0.460183	0.080330
	N275	N	0.821419	0.532072	0.907372
	O276	O	0.665321	0.487864	0.382382
	H277	H	0.659784	0.478680	0.373999
	H278	H	0.669199	0.474752	0.378346
	O279	O	0.344289	0.338220	0.668951
	H280	H	0.354650	0.376713	0.666443
	H281	H	0.360303	0.327813	0.659173
	O282	O	0.298102	0.537540	0.423786
	H283	H	0.288424	0.561553	0.435408
	H284	H	0.310348	0.530944	0.406452
	O285	O	1.038184	-0.203485	0.042419
	H286	H	1.043743	-0.188323	0.029307
	H287	H	1.024706	-0.210011	0.065768
	O288	O	-0.330973	0.325959	0.377425
	H289	H	-0.336837	0.328121	0.390856
	H290	H	-0.340218	0.319257	0.364888
	O291	O	0.531305	0.370298	0.515665
	H292	H	0.527692	0.363183	0.512192
	H293	H	0.510553	0.371034	0.523895
	O294	O	0.635946	0.403693	0.544664
	H295	H	0.623157	0.402005	0.525986
	H296	H	0.642980	0.419637	0.548416
	O297	O	0.923872	1.165077	1.033414
	H298	H	0.921032	1.174207	1.032617
	H299	H	0.917645	1.152720	1.029641
	O300	O	-0.190771	-0.023722	0.202343
	H301	H	-0.191962	0.000678	0.207214
	H302	H	-0.201800	-0.007639	0.195555
	O303	O	0.459376	0.433849	0.297152
	H304	H	0.458220	0.435254	0.280599
	H305	H	0.449478	0.431862	0.305679
	O306	O	0.868720	-0.000603	-0.106692
	H307	H	0.866105	0.002146	-0.098242
	H308	H	0.860247	-0.004472	-0.098054
	O309	O	0.526943	0.402118	0.445801
	H310	H	0.523463	0.404647	0.452137
	H311	H	0.514609	0.413252	0.453370
	O312	O	1.116282	0.997888	0.196940
	H313	H	1.106642	1.000948	0.203966
	H314	H	1.103264	0.977251	0.198617
	O315	O	0.291669	0.286697	0.530820
	H316	H	0.276892	0.283533	0.530063
	H317	H	0.286690	0.275602	0.557311
	O318	O	0.433983	0.630214	0.510985
	H319	H	0.423614	0.651144	0.516553
	H320	H	0.436568	0.631973	0.501117
	O321	O	1.449186	-0.459040	1.543191
	H322	H	1.434828	-0.455645	1.544079
	H323	H	1.446133	-0.441549	1.540054
	O324	O	-0.186721	-0.193850	1.189550
	H325	H	-0.195791	-0.143040	1.199198
	H326	H	-0.181343	-0.207138	1.196126
	O327	O	0.660899	0.472460	0.650199
	H328	H	0.661801	0.466968	0.654981
	H329	H	0.667945	0.471338	0.652941
	O330	O	0.334754	0.488678	0.702504
	H331	H	0.343038	0.481690	0.697776
	H332	H	0.322909	0.493618	0.717668
	O333	O	0.977920	0.789166	1.205120
	H334	H	0.978687	0.765994	1.219845
	H335	H	0.960059	0.793162	1.204382
	O336	O	0.465134	0.605850	0.347734
	H337	H	0.462605	0.589359	0.339916
	H338	H	0.472196	0.608735	0.344373
	O339	O	0.874289	-0.127688	1.042008
	H340	H	0.859019	-0.136241	1.041716
	H341	H	0.894250	-0.127054	1.060640
	O342	O	0.143794	0.891287	0.945922
	H343	H	0.141249	0.887583	0.957147
	H344	H	0.123807	0.891920	0.940040
	O345	O	-0.056048	1.112611	0.875834
	H346	H	-0.057755	1.104292	0.861166
	H347	H	-0.077870	1.118812	0.870660
	O348	O	0.537855	0.676005	0.341847
	H349	H	0.538254	0.671495	0.351453
	H350	H	0.537624	0.672901	0.336514
	O351	O	-0.041413	0.108294	-0.159663
	H352	H	-0.038868	0.100243	-0.158999
	H353	H	-0.044141	0.090523	-0.166104
	O354	O	1.145473	0.872653	-0.193023
	H355	H	1.160494	0.882404	-0.202022
	H356	H	1.152101	0.853044	-0.187870
	O357	O	-0.022480	1.028196	0.001429
	H358	H	-0.005764	1.035622	0.010401
	H359	H	-0.017379	1.030535	0.005328
	O360	O	0.672715	0.612337	0.668668
	H361	H	0.681725	0.582378	0.663356
	H362	H	0.685547	0.631472	0.640621
	O363	O	0.646744	0.666621	0.435770
	H364	H	0.639074	0.665726	0.425485
	H365	H	0.637198	0.662492	0.440563
	O366	O	0.341987	0.515024	0.468895
	H367	H	0.329521	0.517537	0.465799
	H368	H	0.340363	0.518419	0.489459
	O369	O	0.531448	0.494892	0.512179
	H370	H	0.520404	0.489967	0.513797
	H371	H	0.538083	0.498343	0.509909
	O372	O	-0.003221	1.136595	0.131812
	H373	H	-0.013993	1.137196	0.131819
	H374	H	0.021472	1.139055	0.134882
	O375	O	0.521097	0.415676	0.385547
	H376	H	0.518556	0.410860	0.391234
	H377	H	0.508505	0.411266	0.391658
	O378	O	0.545578	0.568666	0.568913
	H379	H	0.537907	0.576596	0.566900
	H380	H	0.554820	0.561853	0.569833
	O381	O	0.423123	0.371358	0.517082
	H382	H	0.410494	0.372884	0.523177
	H383	H	0.418428	0.360914	0.529392
	O384	O	-0.168410	1.030337	1.004928
	H385	H	-0.166460	1.035551	0.994848
	H386	H	-0.160958	1.020927	1.009775
	O387	O	0.824789	1.134804	-0.115385
	H388	H	0.823349	1.131078	-0.120805
	H389	H	0.844061	1.129635	-0.125982
	O390	O	0.613847	0.654194	0.486750
	H391	H	0.621156	0.662154	0.487780
	H392	H	0.599979	0.651825	0.481977
	O393	O	0.791939	-0.114776	0.947001
	H394	H	0.793712	-0.116798	0.984895
	H395	H	0.767075	-0.128739	0.952151
	O396	O	0.070098	0.807266	0.860823
	H397	H	0.069434	0.785649	0.848393
	H398	H	0.075645	0.811936	0.873000
	O399	O	0.454456	0.497592	0.662107
	H400	H	0.441970	0.490209	0.658767
	H401	H	0.483703	0.514414	0.670814
	O402	O	1.088991	0.140033	1.031235
	H403	H	1.082689	0.127863	1.012139
	H404	H	1.092174	0.137515	1.030016
	O405	O	0.153896	-0.099774	0.104900
	H406	H	0.147995	-0.103260	0.098361
	H407	H	0.155345	-0.086188	0.109226
	O408	O	1.141707	1.183129	1.128760
	H409	H	1.158798	1.201588	1.114414
	H410	H	1.141855	1.169791	1.128590
	O411	O	0.942615	0.951876	-0.150903
	H412	H	0.929164	0.953411	-0.163379
	H413	H	0.934484	0.934683	-0.143330
	O414	O	0.202071	-0.086651	1.081220
	H415	H	0.200849	-0.091924	1.073757
	H416	H	0.195528	-0.068537	1.099373
	O417	O	0.551685	0.695917	0.688003
	H418	H	0.566903	0.706529	0.695429
	H419	H	0.568985	0.706982	0.695432
	O420	O	0.061975	1.111133	0.144288
	H421	H	0.064168	1.111583	0.157448
	H422	H	0.085853	1.102338	0.132769
	O423	O	1.147315	0.108213	-0.094462
	H424	H	1.129948	0.110636	-0.108109
	H425	H	1.149771	0.114412	-0.090248
	O426	O	0.205009	-0.028555	0.865003
	H427	H	0.219617	-0.027203	0.843157
	H428	H	0.204205	-0.018867	0.873244
	O429	O	0.361779	0.569904	0.329908
	H430	H	0.371019	0.575507	0.333134
	H431	H	0.357151	0.546066	0.322413
