data_Molecule from HDF5

_cell_length_a		16.226820
_cell_length_b		16.265531
_cell_length_c		16.295874
_cell_angle_alpha	90.147013
_cell_angle_beta	90.349065
_cell_angle_gamma	90.145765
_symmetry_space_group_name_H-M	'P 1'
_symmetry_Int_Tables_number		1

loop_
	_symmetry_equiv_pos_as_xyz
	x,y,z

loop_
	_atom_site_label
	_atom_site_type_symbol
	_atom_site_fract_x
	_atom_site_fract_y
	_atom_site_fract_z
	H0	H	0.407067	0.839742	0.714142
	H1	H	0.609235	0.165775	0.719011
	H2	H	0.602966	0.839122	0.286883
	H3	H	0.405654	0.166224	0.285481
	H4	H	0.718384	0.405499	0.838222
	H5	H	0.721555	0.603557	0.165129
	H6	H	0.291080	0.600195	0.838318
	H7	H	0.293245	0.405336	0.165922
	H8	H	0.841348	0.716089	0.402399
	H9	H	0.169683	0.718341	0.602111
	H10	H	0.841605	0.289572	0.598249
	H11	H	0.170149	0.289223	0.404305
	H12	H	0.841288	0.403616	0.714389
	H13	H	0.169535	0.602346	0.717272
	H14	H	0.841546	0.600463	0.286778
	H15	H	0.170763	0.405771	0.288883
	H16	H	0.405479	0.717657	0.838217
	H17	H	0.605820	0.718726	0.165068
	H18	H	0.604136	0.288633	0.838380
	H19	H	0.407499	0.287516	0.164836
	H20	H	0.718488	0.838502	0.404228
	H21	H	0.721252	0.167366	0.600219
	H22	H	0.292310	0.839274	0.597508
	H23	H	0.291043	0.167181	0.401517
	H24	H	0.907581	0.339632	0.214725
	H25	H	0.106153	0.666914	0.217765
	H26	H	0.103451	0.339411	0.786910
	H27	H	0.906379	0.667310	0.786668
	H28	H	0.218800	0.904238	0.337388
	H29	H	0.222090	0.101568	0.664728
	H30	H	0.791856	0.099916	0.338266
	H31	H	0.792958	0.904870	0.665559
	H32	H	0.341406	0.217962	0.900033
	H33	H	0.669744	0.217379	0.100494
	H34	H	0.341526	0.789309	0.098080
	H35	H	0.669217	0.787996	0.903447
	H36	H	0.341330	0.904112	0.213471
	H37	H	0.668765	0.103931	0.217673
	H38	H	0.342365	0.102642	0.784131
	H39	H	0.669862	0.903327	0.787792
	H40	H	0.905910	0.217376	0.338511
	H41	H	0.107474	0.218871	0.664427
	H42	H	0.102773	0.787410	0.338371
	H43	H	0.908279	0.788401	0.665357
	H44	H	0.219022	0.338891	0.904332
	H45	H	0.219839	0.668030	0.099779
	H46	H	0.791553	0.339754	0.099599
	H47	H	0.790566	0.667471	0.903066
	H48	H	0.410721	0.121147	0.591297
	H49	H	0.611029	0.884970	0.588473
	H50	H	0.597170	0.118216	0.410634
	H51	H	0.412839	0.886544	0.407043
	H52	H	0.603340	0.398024	0.123178
	H53	H	0.594584	0.604060	0.884063
	H54	H	0.421389	0.606431	0.119222
	H55	H	0.414751	0.409034	0.886248
	H56	H	0.126663	0.597133	0.399105
	H57	H	0.891074	0.590053	0.588912
	H58	H	0.121911	0.416009	0.597338
	H59	H	0.890629	0.409866	0.412657
	H60	H	0.124459	0.407680	0.598234
	H61	H	0.886498	0.593286	0.602221
	H62	H	0.123171	0.605370	0.417177
	H63	H	0.889411	0.414525	0.403715
	H64	H	0.401149	0.599436	0.122834
	H65	H	0.604983	0.592660	0.884467
	H66	H	0.608579	0.420605	0.118736
	H67	H	0.409641	0.407060	0.884468
	H68	H	0.601927	0.120661	0.409381
	H69	H	0.598776	0.883011	0.607471
	H70	H	0.417039	0.119879	0.597403
	H71	H	0.410750	0.886327	0.407278
	H72	H	0.912771	0.623072	0.104307
	H73	H	0.103512	0.387249	0.088335
	H74	H	0.091208	0.618430	0.905119
	H75	H	0.914803	0.388311	0.909607
	H76	H	0.113943	0.919002	0.619505
	H77	H	0.095557	0.091896	0.386378
	H78	H	0.910780	0.090015	0.617275
	H79	H	0.915103	0.911670	0.387475
	H80	H	0.622076	0.095505	0.910020
	H81	H	0.387969	0.089404	0.101448
	H82	H	0.618944	0.916714	0.087928
	H83	H	0.387022	0.906895	0.903651
	H84	H	0.624898	0.914667	0.104108
	H85	H	0.385107	0.105291	0.093164
	H86	H	0.622219	0.096146	0.910169
	H87	H	0.389732	0.909109	0.910851
	H88	H	0.922177	0.097479	0.616512
	H89	H	0.095052	0.101797	0.384331
	H90	H	0.086297	0.918208	0.611188
	H91	H	0.912949	0.902839	0.383148
	H92	H	0.099363	0.617264	0.916788
	H93	H	0.103804	0.383020	0.101720
	H94	H	0.923227	0.615816	0.090848
	H95	H	0.908840	0.386851	0.909473
	H96	H	0.419100	0.117382	0.589537
	H97	H	0.588188	0.891815	0.588284
	H98	H	0.598134	0.120722	0.405692
	H99	H	0.411137	0.885591	0.405033
	H100	H	0.586768	0.413152	0.114190
	H101	H	0.590735	0.589627	0.889470
	H102	H	0.417470	0.585724	0.114386
	H103	H	0.410443	0.412717	0.885645
	H104	H	0.117968	0.585024	0.413942
	H105	H	0.886443	0.603466	0.592028
	H106	H	0.121963	0.410562	0.590722
	H107	H	0.886472	0.404883	0.404525
	H108	H	0.905820	0.621452	0.087935
	H109	H	0.092240	0.388908	0.096080
	H110	H	0.104634	0.623338	0.904204
	H111	H	0.912805	0.386767	0.904024
	H112	H	0.098605	0.895367	0.622063
	H113	H	0.103622	0.096196	0.383842
	H114	H	0.910901	0.102696	0.621216
	H115	H	0.905923	0.910757	0.384127
	H116	H	0.621487	0.095835	0.910549
	H117	H	0.392622	0.091451	0.083799
	H118	H	0.625304	0.901331	0.093296
	H119	H	0.389340	0.914221	0.904984
	C120	C	0.385781	0.011456	0.621303
	C121	C	0.628726	0.994827	0.623650
	C122	C	0.627164	0.011264	0.380156
	C123	C	0.383117	0.994572	0.378441
	C124	C	0.627091	0.382026	0.010272
	C125	C	0.627112	0.625085	0.993664
	C126	C	0.384485	0.624912	0.010383
	C127	C	0.383895	0.380998	0.993444
	C128	C	0.014271	0.623900	0.380772
	C129	C	0.996773	0.624574	0.623228
	C130	C	0.014102	0.382234	0.623293
	C131	C	0.997561	0.381288	0.379354
	C132	C	0.884850	0.511936	0.122343
	C133	C	0.128211	0.495102	0.123954
	C134	C	0.126995	0.511505	0.880281
	C135	C	0.883186	0.495165	0.878991
	C136	C	0.127027	0.881820	0.509542
	C137	C	0.127758	0.125223	0.492999
	C138	C	0.884782	0.124861	0.510381
	C139	C	0.883616	0.880716	0.493173
	C140	C	0.513920	0.124864	0.879900
	C141	C	0.496949	0.124856	0.122379
	C142	C	0.514225	0.882048	0.122406
	C143	C	0.497129	0.881366	0.879088
	C144	C	0.386988	0.888732	0.676636
	C145	C	0.628323	0.117250	0.680357
	C146	C	0.623727	0.888163	0.324673
	C147	C	0.385353	0.117440	0.323284
	C148	C	0.681165	0.384526	0.887066
	C149	C	0.683317	0.623311	0.116362
	C150	C	0.328922	0.621406	0.887038
	C151	C	0.330664	0.384553	0.116925
	C152	C	0.890235	0.678179	0.382643
	C153	C	0.120489	0.680523	0.622140
	C154	C	0.890684	0.326963	0.619452
	C155	C	0.121265	0.327237	0.383490
	C156	C	0.890606	0.384099	0.677034
	C157	C	0.120524	0.622850	0.679178
	C158	C	0.890362	0.620722	0.325144
	C159	C	0.121207	0.384202	0.325461
	C160	C	0.385793	0.679691	0.887176
	C161	C	0.626162	0.681120	0.116195
	C162	C	0.624090	0.326788	0.887220
	C163	C	0.387308	0.325940	0.116462
	C164	C	0.681114	0.887622	0.382896
	C165	C	0.684088	0.117976	0.621125
	C166	C	0.329812	0.888335	0.618552
	C167	C	0.328182	0.117902	0.380875
	C168	C	0.887093	0.388620	0.177120
	C169	C	0.126169	0.618276	0.179263
	C170	C	0.124073	0.388084	0.825158
	C171	C	0.885691	0.618540	0.824124
	C172	C	0.180942	0.884088	0.386130
	C173	C	0.184402	0.122944	0.615806
	C174	C	0.829205	0.121148	0.387310
	C175	C	0.830211	0.884081	0.616659
	C176	C	0.390508	0.180114	0.880469
	C177	C	0.620392	0.180084	0.121086
	C178	C	0.390546	0.826921	0.118825
	C179	C	0.620628	0.826205	0.882816
	C180	C	0.390694	0.883657	0.176526
	C181	C	0.619760	0.123732	0.179445
	C182	C	0.390898	0.122962	0.822696
	C183	C	0.620937	0.883800	0.825399
	C184	C	0.885813	0.179505	0.387330
	C185	C	0.127278	0.181082	0.615698
	C186	C	0.123757	0.825858	0.386835
	C187	C	0.887234	0.826166	0.616581
	C188	C	0.181068	0.387835	0.883748
	C189	C	0.182667	0.618790	0.120803
	C190	C	0.829875	0.388486	0.119425
	C191	C	0.828303	0.618580	0.882251
	C192	C	0.408862	0.097224	0.599294
	C193	C	0.606053	0.908831	0.601324
	C194	C	0.605610	0.097577	0.402230
	C195	C	0.404960	0.908382	0.400135
	C196	C	0.605932	0.404057	0.096325
	C197	C	0.603732	0.602180	0.908031
	C198	C	0.406847	0.603579	0.096382
	C199	C	0.405262	0.403096	0.907607
	C200	C	0.100248	0.602318	0.403348
	C201	C	0.910454	0.602136	0.600846
	C202	C	0.100586	0.404833	0.601831
	C203	C	0.910991	0.403235	0.400594
	C204	C	0.907299	0.597959	0.100719
	C205	C	0.106233	0.408864	0.101983
	C206	C	0.104985	0.597589	0.902304
	C207	C	0.905515	0.409466	0.901097
	C208	C	0.105879	0.904415	0.595307
	C209	C	0.104811	0.103223	0.407090
	C210	C	0.907872	0.102941	0.596253
	C211	C	0.904957	0.902116	0.407153
	C212	C	0.599669	0.102553	0.903445
	C213	C	0.410762	0.102049	0.099381
	C214	C	0.600690	0.904261	0.101235
	C215	C	0.411082	0.903588	0.900238
	Zn216	Zn	0.506425	0.003857	0.751197
	Zn217	Zn	0.505092	0.003298	0.250782
	Zn218	Zn	0.755322	0.503437	0.001824
	Zn219	Zn	0.255794	0.503550	0.002402
	Zn220	Zn	0.005291	0.752523	0.502031
	Zn221	Zn	0.005638	0.253928	0.501605
	Zn222	Zn	0.005243	0.503359	0.751268
	Zn223	Zn	0.006042	0.503397	0.251654
	Zn224	Zn	0.505756	0.753724	0.001587
	Zn225	Zn	0.505838	0.253121	0.001690
	Zn226	Zn	0.756302	0.002698	0.501811
	Zn227	Zn	0.255888	0.003610	0.500573
	N228	N	0.421288	0.966222	0.678225
	N229	N	0.594390	0.039628	0.681893
	N230	N	0.590783	0.966104	0.322966
	N231	N	0.418607	0.039875	0.321510
	N232	N	0.683134	0.418140	0.964516
	N233	N	0.683948	0.589257	0.038988
	N234	N	0.328075	0.588069	0.964599
	N235	N	0.328387	0.418107	0.039442
	N236	N	0.968078	0.680473	0.416565
	N237	N	0.042597	0.681676	0.588108
	N238	N	0.968604	0.325809	0.586756
	N239	N	0.043291	0.325193	0.416180
	N240	N	0.968546	0.417527	0.679509
	N241	N	0.042689	0.588975	0.680122
	N242	N	0.968291	0.587832	0.323854
	N243	N	0.043249	0.417209	0.323026
	N244	N	0.419666	0.681947	0.964733
	N245	N	0.591505	0.681972	0.038999
	N246	N	0.591025	0.325284	0.964890
	N247	N	0.419658	0.323824	0.038734
	N248	N	0.683323	0.965315	0.416572
	N249	N	0.684576	0.040630	0.586903
	N250	N	0.329015	0.965655	0.584752
	N251	N	0.326758	0.040438	0.414723
	N252	N	0.920830	0.466250	0.178869
	N253	N	0.093100	0.540369	0.181348
	N254	N	0.091249	0.465967	0.822838
	N255	N	0.919248	0.541067	0.822190
	N256	N	0.183037	0.918099	0.463535
	N257	N	0.184636	0.088843	0.538640
	N258	N	0.828369	0.088047	0.464930
	N259	N	0.827767	0.917108	0.538996
	N260	N	0.467969	0.181440	0.915174
	N261	N	0.542903	0.180822	0.086411
	N262	N	0.468558	0.825827	0.085997
	N263	N	0.542781	0.824426	0.915544
	N264	N	0.468475	0.917412	0.178799
	N265	N	0.541830	0.089970	0.180424
	N266	N	0.468538	0.089071	0.822381
	N267	N	0.543206	0.917462	0.823047
	N268	N	0.919743	0.182004	0.464819
	N269	N	0.092807	0.182721	0.538136
	N270	N	0.090943	0.824318	0.464448
	N271	N	0.919846	0.823954	0.538790
	N272	N	0.182985	0.465627	0.917321
	N273	N	0.183934	0.541192	0.087114
	N274	N	0.828297	0.466154	0.086116
	N275	N	0.826423	0.540760	0.915527
	O276	O	0.488876	0.459685	0.546420
	H277	H	0.493246	0.449490	0.542064
	H278	H	0.487597	0.465272	0.543180
	O279	O	0.013805	0.089408	-0.010062
	H280	H	0.007688	0.095756	-0.004759
	H281	H	0.007439	0.083586	-0.010175
	O282	O	0.499176	0.523149	0.598111
	H283	H	0.499679	0.527963	0.606107
	H284	H	0.493341	0.526501	0.602427
	O285	O	0.553408	0.511076	0.528461
	H286	H	0.544527	0.514384	0.527149
	H287	H	0.552702	0.509453	0.533383
	O288	O	1.019108	0.029680	-0.029384
	H289	H	1.024614	0.028697	-0.024856
	H290	H	1.020684	0.033551	-0.041062
	O291	O	-0.466939	0.517294	-0.460805
	H292	H	-0.455146	0.524096	-0.447554
	H293	H	-0.465769	0.529093	-0.459340
	O294	O	0.462221	0.519773	0.541603
	H295	H	0.467935	0.521085	0.542867
	H296	H	0.462438	0.517719	0.535463
	O297	O	0.025398	1.094103	-0.025324
	H298	H	0.023621	1.103958	-0.014883
	H299	H	0.029422	1.098019	-0.033923
	O300	O	0.960814	0.036091	0.979272
	H301	H	0.963595	0.045668	0.980990
	H302	H	0.964394	0.034540	0.980958
	O303	O	0.453410	0.507978	0.542546
	H304	H	0.453114	0.500515	0.543093
	H305	H	0.453420	0.508123	0.533863
	O306	O	-0.031877	1.065007	0.944372
	H307	H	-0.031008	1.057729	0.939314
	H308	H	-0.040518	1.065685	0.951878
	O309	O	0.509603	0.524096	0.578946
	H310	H	0.499482	0.527476	0.579197
	H311	H	0.509123	0.517203	0.591525
