data_Molecule from HDF5

_cell_length_a		16.274558
_cell_length_b		16.307408
_cell_length_c		16.267061
_cell_angle_alpha	89.960899
_cell_angle_beta	90.015448
_cell_angle_gamma	90.048342
_symmetry_space_group_name_H-M	'P 1'
_symmetry_Int_Tables_number		1

loop_
	_symmetry_equiv_pos_as_xyz
	x,y,z

loop_
	_atom_site_label
	_atom_site_type_symbol
	_atom_site_fract_x
	_atom_site_fract_y
	_atom_site_fract_z
	H0	H	0.402280	0.836786	0.714597
	H1	H	0.598448	0.164245	0.713442
	H2	H	0.598379	0.836578	0.285202
	H3	H	0.403612	0.164177	0.286247
	H4	H	0.713143	0.402688	0.836956
	H5	H	0.713797	0.599048	0.164677
	H6	H	0.285122	0.598884	0.835994
	H7	H	0.287289	0.403829	0.164103
	H8	H	0.836121	0.714100	0.401608
	H9	H	0.163949	0.713083	0.598473
	H10	H	0.836346	0.283898	0.598131
	H11	H	0.164118	0.286645	0.402572
	H12	H	0.835708	0.402047	0.713172
	H13	H	0.163444	0.596671	0.713810
	H14	H	0.835880	0.596589	0.287170
	H15	H	0.163757	0.402700	0.285884
	H16	H	0.403078	0.713374	0.835187
	H17	H	0.598255	0.715454	0.163757
	H18	H	0.597904	0.286307	0.836550
	H19	H	0.399788	0.284509	0.162699
	H20	H	0.714162	0.836127	0.402232
	H21	H	0.715964	0.163424	0.597821
	H22	H	0.286715	0.836570	0.597703
	H23	H	0.286440	0.163772	0.402420
	H24	H	0.902486	0.335792	0.213536
	H25	H	0.097252	0.663517	0.214359
	H26	H	0.096523	0.335754	0.787209
	H27	H	0.901803	0.663923	0.786190
	H28	H	0.212944	0.903097	0.335462
	H29	H	0.213945	0.096859	0.664198
	H30	H	0.787361	0.096320	0.335444
	H31	H	0.786716	0.901920	0.664451
	H32	H	0.335652	0.213831	0.901927
	H33	H	0.663000	0.215817	0.098480
	H34	H	0.336136	0.786172	0.097753
	H35	H	0.663842	0.786190	0.901437
	H36	H	0.336530	0.902487	0.213034
	H37	H	0.664002	0.097992	0.212923
	H38	H	0.335812	0.097710	0.785842
	H39	H	0.663828	0.902285	0.785755
	H40	H	0.902087	0.213875	0.336242
	H41	H	0.098241	0.213344	0.664409
	H42	H	0.097644	0.786293	0.336231
	H43	H	0.900977	0.784198	0.663341
	H44	H	0.214572	0.336279	0.901895
	H45	H	0.214740	0.663714	0.098213
	H46	H	0.784819	0.336967	0.099011
	H47	H	0.785131	0.664020	0.902209
	H48	H	0.411196	0.116471	0.596936
	H49	H	0.597520	0.883487	0.590591
	H50	H	0.585667	0.111729	0.413842
	H51	H	0.403435	0.879137	0.393748
	H52	H	0.604026	0.401786	0.121985
	H53	H	0.597540	0.595746	0.881599
	H54	H	0.399059	0.589583	0.117822
	H55	H	0.405368	0.401703	0.880815
	H56	H	0.115765	0.588724	0.405557
	H57	H	0.881487	0.592335	0.597724
	H58	H	0.118750	0.401559	0.596239
	H59	H	0.881250	0.405807	0.399179
	H60	H	0.115661	0.405448	0.589464
	H61	H	0.882055	0.597892	0.590161
	H62	H	0.118515	0.596057	0.404532
	H63	H	0.882464	0.398435	0.411843
	H64	H	0.414087	0.588596	0.112404
	H65	H	0.593245	0.589732	0.884277
	H66	H	0.591839	0.420598	0.113258
	H67	H	0.402973	0.411571	0.883214
	H68	H	0.606088	0.118732	0.409855
	H69	H	0.595322	0.882119	0.598800
	H70	H	0.407134	0.115216	0.586877
	H71	H	0.419602	0.887881	0.408621
	H72	H	0.908524	0.616522	0.095482
	H73	H	0.100694	0.381550	0.092722
	H74	H	0.084281	0.612536	0.911901
	H75	H	0.906733	0.386185	0.913985
	H76	H	0.094305	0.904258	0.618157
	H77	H	0.090289	0.097988	0.382949
	H78	H	0.910899	0.087342	0.614249
	H79	H	0.908918	0.910997	0.385491
	H80	H	0.616883	0.096353	0.908054
	H81	H	0.383921	0.093767	0.089476
	H82	H	0.615808	0.914868	0.098327
	H83	H	0.383045	0.907900	0.904950
	H84	H	0.620574	0.898947	0.097657
	H85	H	0.383754	0.089750	0.094142
	H86	H	0.615195	0.091933	0.908031
	H87	H	0.383014	0.905606	0.906918
	H88	H	0.910306	0.098957	0.617543
	H89	H	0.099081	0.094230	0.381640
	H90	H	0.094707	0.907081	0.616600
	H91	H	0.910613	0.900771	0.382262
	H92	H	0.102300	0.616996	0.912243
	H93	H	0.089619	0.382964	0.100063
	H94	H	0.906194	0.615962	0.091566
	H95	H	0.898465	0.381181	0.904730
	H96	H	0.401404	0.119413	0.595548
	H97	H	0.589286	0.885275	0.593118
	H98	H	0.590647	0.119144	0.394720
	H99	H	0.397785	0.883169	0.416859
	H100	H	0.580721	0.399001	0.116153
	H101	H	0.589922	0.596600	0.883429
	H102	H	0.408504	0.602479	0.118523
	H103	H	0.412588	0.408078	0.884840
	H104	H	0.115529	0.594082	0.410814
	H105	H	0.885176	0.588708	0.589836
	H106	H	0.116534	0.409507	0.597174
	H107	H	0.886108	0.412520	0.411208
	H108	H	0.904361	0.617834	0.095127
	H109	H	0.090009	0.386267	0.087033
	H110	H	0.092959	0.619180	0.896492
	H111	H	0.911225	0.383548	0.901670
	H112	H	0.092129	0.905699	0.617012
	H113	H	0.091966	0.089095	0.385321
	H114	H	0.900482	0.091944	0.618567
	H115	H	0.901203	0.904721	0.381227
	H116	H	0.616712	0.093979	0.904198
	H117	H	0.381543	0.095850	0.095388
	H118	H	0.614099	0.906901	0.083953
	H119	H	0.384042	0.907937	0.908422
	C120	C	0.378886	0.008535	0.621368
	C121	C	0.621992	0.992080	0.621663
	C122	C	0.622264	0.008333	0.377895
	C123	C	0.378601	0.991929	0.378393
	C124	C	0.620634	0.378777	0.009063
	C125	C	0.621604	0.622073	0.992049
	C126	C	0.378871	0.621890	0.007892
	C127	C	0.378326	0.378769	0.990985
	C128	C	0.008364	0.621288	0.378360
	C129	C	0.991551	0.621206	0.621353
	C130	C	0.008195	0.377468	0.621948
	C131	C	0.991399	0.377930	0.378652
	C132	C	0.878123	0.508562	0.121961
	C133	C	0.121808	0.491742	0.121762
	C134	C	0.121441	0.507935	0.878677
	C135	C	0.877443	0.491935	0.878415
	C136	C	0.121908	0.878068	0.508678
	C137	C	0.121899	0.121476	0.491876
	C138	C	0.878794	0.121040	0.508357
	C139	C	0.878898	0.877763	0.491808
	C140	C	0.507835	0.122237	0.878331
	C141	C	0.491479	0.121989	0.121418
	C142	C	0.508654	0.878531	0.121380
	C143	C	0.491723	0.878956	0.878398
	C144	C	0.381801	0.885529	0.676559
	C145	C	0.619013	0.115510	0.675754
	C146	C	0.618769	0.885208	0.323204
	C147	C	0.382126	0.115159	0.323928
	C148	C	0.675262	0.382060	0.885623
	C149	C	0.676281	0.619453	0.115530
	C150	C	0.323782	0.619035	0.884596
	C151	C	0.323621	0.381878	0.114806
	C152	C	0.885265	0.676392	0.380922
	C153	C	0.115051	0.675274	0.618471
	C154	C	0.885042	0.322508	0.618683
	C155	C	0.115333	0.324147	0.381625
	C156	C	0.884549	0.380957	0.675803
	C157	C	0.114728	0.617796	0.676150
	C158	C	0.884638	0.617704	0.324380
	C159	C	0.114903	0.381464	0.323654
	C160	C	0.382043	0.676182	0.884155
	C161	C	0.619074	0.677349	0.114968
	C162	C	0.618092	0.324182	0.885499
	C163	C	0.380031	0.323198	0.114362
	C164	C	0.676314	0.885008	0.381097
	C165	C	0.676880	0.115209	0.617986
	C166	C	0.324295	0.885383	0.618498
	C167	C	0.324161	0.115192	0.381640
	C168	C	0.881241	0.384856	0.176460
	C169	C	0.118400	0.614990	0.176316
	C170	C	0.117896	0.384639	0.824498
	C171	C	0.880685	0.615117	0.823710
	C172	C	0.175905	0.881759	0.384893
	C173	C	0.176401	0.117967	0.615295
	C174	C	0.824648	0.117745	0.384704
	C175	C	0.824475	0.881118	0.615433
	C176	C	0.384752	0.176679	0.880935
	C177	C	0.614495	0.177328	0.118738
	C178	C	0.385159	0.824051	0.118274
	C179	C	0.615108	0.824299	0.881028
	C180	C	0.385297	0.881561	0.175833
	C181	C	0.614847	0.119392	0.175968
	C182	C	0.384765	0.118743	0.823535
	C183	C	0.615156	0.881937	0.823625
	C184	C	0.881489	0.176115	0.384926
	C185	C	0.118879	0.175653	0.615435
	C186	C	0.118768	0.823696	0.385089
	C187	C	0.881439	0.822907	0.615195
	C188	C	0.175985	0.384792	0.881843
	C189	C	0.176667	0.614806	0.118794
	C190	C	0.823040	0.385349	0.119275
	C191	C	0.823131	0.615174	0.881745
	C192	C	0.400367	0.094896	0.599622
	C193	C	0.600495	0.906055	0.600352
	C194	C	0.600613	0.094175	0.399736
	C195	C	0.400328	0.905681	0.400016
	C196	C	0.598848	0.400508	0.095109
	C197	C	0.599956	0.600404	0.905539
	C198	C	0.400764	0.599979	0.093820
	C199	C	0.400335	0.400585	0.905233
	C200	C	0.094310	0.599477	0.400405
	C201	C	0.905163	0.599454	0.599169
	C202	C	0.094634	0.399173	0.600695
	C203	C	0.905596	0.399299	0.400745
	C204	C	0.899950	0.594463	0.100412
	C205	C	0.099884	0.405698	0.099812
	C206	C	0.099506	0.594076	0.900358
	C207	C	0.899118	0.405932	0.900454
	C208	C	0.100079	0.899258	0.594800
	C209	C	0.100181	0.100146	0.405628
	C210	C	0.900577	0.099191	0.594584
	C211	C	0.900540	0.899067	0.405400
	C212	C	0.594059	0.100469	0.900348
	C213	C	0.405149	0.099719	0.099375
	C214	C	0.594712	0.900397	0.099591
	C215	C	0.405670	0.900653	0.900408
	Zn216	Zn	0.500245	0.000214	0.750053
	Zn217	Zn	0.500083	0.000129	0.249482
	Zn218	Zn	0.749341	0.500414	0.000861
	Zn219	Zn	0.250268	0.500136	-0.000471
	Zn220	Zn	0.000207	0.749596	0.500088
	Zn221	Zn	0.000344	0.249209	0.499946
	Zn222	Zn	-0.000641	0.499856	0.749893
	Zn223	Zn	-0.000375	0.499634	0.250320
	Zn224	Zn	0.500189	0.750440	-0.000605
	Zn225	Zn	0.499483	0.250581	0.000002
	Zn226	Zn	0.750625	-0.000599	0.500063
	Zn227	Zn	0.249909	-0.000087	0.499778
	N228	N	0.414818	0.963288	0.678568
	N229	N	0.585536	0.037947	0.678051
	N230	N	0.586001	0.962963	0.321085
	N231	N	0.415252	0.037465	0.321907
	N232	N	0.676844	0.415513	0.963270
	N233	N	0.677774	0.585702	0.037943
	N234	N	0.321697	0.586016	0.962516
	N235	N	0.322624	0.415997	0.037427
	N236	N	0.963044	0.678436	0.414154
	N237	N	0.037316	0.677432	0.585081
	N238	N	0.962862	0.320488	0.585860
	N239	N	0.037669	0.321669	0.415033
	N240	N	0.962202	0.414470	0.677858
	N241	N	0.036900	0.584837	0.677753
	N242	N	0.962136	0.584232	0.322782
	N243	N	0.037038	0.414438	0.321875
	N244	N	0.415414	0.678152	0.961900
	N245	N	0.585846	0.679045	0.037211
	N246	N	0.584928	0.321924	0.963219
	N247	N	0.413358	0.321295	0.036609
	N248	N	0.678524	0.962485	0.414538
	N249	N	0.678873	0.037482	0.585126
	N250	N	0.322671	0.962722	0.584697
	N251	N	0.321920	0.037456	0.414498
	N252	N	0.914894	0.462243	0.178122
	N253	N	0.084855	0.537389	0.178134
	N254	N	0.084560	0.462235	0.822481
	N255	N	0.913883	0.537573	0.821801
	N256	N	0.177738	0.915018	0.462554
	N257	N	0.178273	0.084963	0.537507
	N258	N	0.823048	0.084159	0.462389
	N259	N	0.822656	0.914241	0.537713
	N260	N	0.462463	0.178824	0.914332
	N261	N	0.536700	0.178965	0.085608
	N262	N	0.462993	0.821848	0.085257
	N263	N	0.537509	0.822384	0.914298
	N264	N	0.462903	0.914945	0.177571
	N265	N	0.537343	0.085482	0.177518
	N266	N	0.462302	0.085511	0.822076
	N267	N	0.537459	0.915417	0.822126
	N268	N	0.914323	0.178369	0.462852
	N269	N	0.085766	0.177912	0.537610
	N270	N	0.085820	0.821113	0.463185
	N271	N	0.914632	0.820779	0.537355
	N272	N	0.178281	0.462525	0.914589
	N273	N	0.178720	0.537220	0.085633
	N274	N	0.820936	0.463040	0.086330
	N275	N	0.820948	0.537432	0.914887
