data_Molecule from HDF5

_cell_length_a		16.254867
_cell_length_b		16.079033
_cell_length_c		16.485661
_cell_angle_alpha	89.705669
_cell_angle_beta	90.180599
_cell_angle_gamma	90.237699
_symmetry_space_group_name_H-M	'P 1'
_symmetry_Int_Tables_number		1

loop_
	_symmetry_equiv_pos_as_xyz
	x,y,z

loop_
	_atom_site_label
	_atom_site_type_symbol
	_atom_site_fract_x
	_atom_site_fract_y
	_atom_site_fract_z
	H0	H	0.389619	0.833007	0.717726
	H1	H	0.601712	0.157227	0.717777
	H2	H	0.598527	0.831978	0.283990
	H3	H	0.393377	0.159103	0.279482
	H4	H	0.716599	0.391482	0.840409
	H5	H	0.716808	0.597366	0.160284
	H6	H	0.276625	0.597303	0.840017
	H7	H	0.278346	0.389926	0.160887
	H8	H	0.831081	0.708995	0.402278
	H9	H	0.158449	0.712649	0.599606
	H10	H	0.834063	0.278556	0.600980
	H11	H	0.160399	0.284499	0.404685
	H12	H	0.836164	0.388215	0.721455
	H13	H	0.156534	0.603236	0.721841
	H14	H	0.835542	0.603204	0.278352
	H15	H	0.157797	0.393716	0.283868
	H16	H	0.396335	0.711905	0.839474
	H17	H	0.597823	0.711195	0.162013
	H18	H	0.594956	0.279693	0.838069
	H19	H	0.397989	0.276306	0.161637
	H20	H	0.709673	0.831920	0.400408
	H21	H	0.712276	0.159135	0.600051
	H22	H	0.280946	0.831481	0.597896
	H23	H	0.282952	0.161420	0.398948
	H24	H	0.894223	0.332359	0.219116
	H25	H	0.099106	0.659881	0.215332
	H26	H	0.101256	0.333738	0.783115
	H27	H	0.890435	0.656989	0.779841
	H28	H	0.213772	0.894585	0.340561
	H29	H	0.218762	0.101010	0.659253
	H30	H	0.774835	0.101744	0.340149
	H31	H	0.773844	0.889716	0.659149
	H32	H	0.332769	0.209287	0.900402
	H33	H	0.660362	0.208472	0.096861
	H34	H	0.333661	0.778997	0.097591
	H35	H	0.660802	0.782551	0.904000
	H36	H	0.335863	0.888649	0.218769
	H37	H	0.657165	0.100727	0.219113
	H38	H	0.334468	0.098384	0.781069
	H39	H	0.656157	0.888198	0.778397
	H40	H	0.896961	0.214791	0.339758
	H41	H	0.097928	0.212277	0.662390
	H42	H	0.092979	0.781908	0.338804
	H43	H	0.893277	0.777090	0.660529
	H44	H	0.207672	0.329777	0.903363
	H45	H	0.212205	0.659358	0.098347
	H46	H	0.782846	0.329926	0.100440
	H47	H	0.781535	0.658952	0.899595
	H48	H	0.406683	0.113346	0.590259
	H49	H	0.578139	0.880006	0.591867
	H50	H	0.577586	0.111883	0.403999
	H51	H	0.408002	0.879171	0.406318
	H52	H	0.586890	0.412953	0.110312
	H53	H	0.588163	0.591244	0.885671
	H54	H	0.402282	0.581690	0.114767
	H55	H	0.406246	0.411606	0.888967
	H56	H	0.110763	0.582516	0.406516
	H57	H	0.883229	0.577340	0.588888
	H58	H	0.112685	0.402239	0.592100
	H59	H	0.884510	0.415411	0.410862
	H60	H	0.111222	0.411079	0.593116
	H61	H	0.878119	0.583818	0.600646
	H62	H	0.114111	0.592051	0.402886
	H63	H	0.876987	0.405870	0.400834
	H64	H	0.407976	0.584279	0.113223
	H65	H	0.593849	0.585325	0.885166
	H66	H	0.581949	0.393834	0.113894
	H67	H	0.406101	0.394411	0.884437
	H68	H	0.585592	0.111652	0.415227
	H69	H	0.584608	0.879555	0.585557
	H70	H	0.409124	0.112856	0.591501
	H71	H	0.403291	0.879804	0.412206
	H72	H	0.899577	0.613577	0.089976
	H73	H	0.087660	0.378414	0.090933
	H74	H	0.086903	0.612699	0.909843
	H75	H	0.906791	0.376931	0.908233
	H76	H	0.089415	0.903957	0.615094
	H77	H	0.088040	0.084598	0.388426
	H78	H	0.905191	0.086005	0.613602
	H79	H	0.901984	0.899679	0.383838
	H80	H	0.615664	0.084579	0.894938
	H81	H	0.377894	0.083153	0.098959
	H82	H	0.614448	0.902827	0.097857
	H83	H	0.376576	0.897903	0.902150
	H84	H	0.613004	0.903091	0.089792
	H85	H	0.379913	0.089095	0.085559
	H86	H	0.613441	0.095577	0.913329
	H87	H	0.381418	0.902555	0.914828
	H88	H	0.902585	0.085784	0.613913
	H89	H	0.083786	0.094258	0.385958
	H90	H	0.089473	0.907809	0.614271
	H91	H	0.896931	0.908570	0.385355
	H92	H	0.084416	0.611455	0.910149
	H93	H	0.089694	0.375175	0.099313
	H94	H	0.910526	0.614409	0.098116
	H95	H	0.910245	0.378928	0.910824
	H96	H	0.408530	0.112818	0.588790
	H97	H	0.586713	0.875695	0.593913
	H98	H	0.590575	0.115931	0.403572
	H99	H	0.399865	0.876868	0.405381
	H100	H	0.600430	0.400023	0.118534
	H101	H	0.585755	0.584081	0.888448
	H102	H	0.403624	0.587868	0.115249
	H103	H	0.391222	0.403784	0.884202
	H104	H	0.111890	0.591185	0.413407
	H105	H	0.879275	0.591536	0.588634
	H106	H	0.114360	0.406984	0.600152
	H107	H	0.880258	0.400223	0.414593
	H108	H	0.911894	0.609886	0.085122
	H109	H	0.081061	0.378309	0.097131
	H110	H	0.085461	0.612163	0.911624
	H111	H	0.906039	0.378725	0.912866
	H112	H	0.085794	0.905880	0.613526
	H113	H	0.093984	0.092432	0.383565
	H114	H	0.904216	0.084046	0.612849
	H115	H	0.906213	0.908148	0.388390
	H116	H	0.606655	0.074309	0.911945
	H117	H	0.384018	0.075356	0.088004
	H118	H	0.611804	0.910101	0.093881
	H119	H	0.381588	0.912167	0.903367
	C120	C	0.375532	0.004742	0.620131
	C121	C	0.615494	0.986451	0.620776
	C122	C	0.615215	0.004467	0.378734
	C123	C	0.374274	0.987223	0.377416
	C124	C	0.619266	0.372439	0.008160
	C125	C	0.619650	0.617045	0.992262
	C126	C	0.374250	0.615694	0.008554
	C127	C	0.372918	0.371916	0.992046
	C128	C	0.004714	0.618767	0.377628
	C129	C	0.987045	0.616951	0.622787
	C130	C	0.005550	0.374611	0.624187
	C131	C	0.987844	0.376747	0.380378
	C132	C	0.876481	0.504202	0.121418
	C133	C	0.117737	0.486144	0.123741
	C134	C	0.116293	0.503953	0.880752
	C135	C	0.876004	0.485993	0.879446
	C136	C	0.117357	0.875355	0.508384
	C137	C	0.119751	0.120515	0.491906
	C138	C	0.873608	0.117482	0.508086
	C139	C	0.871555	0.873492	0.491656
	C140	C	0.504824	0.116134	0.876850
	C141	C	0.488028	0.114728	0.120759
	C142	C	0.505570	0.873816	0.122432
	C143	C	0.487421	0.873694	0.877686
	C144	C	0.372781	0.881796	0.677998
	C145	C	0.618670	0.108805	0.678569
	C146	C	0.616646	0.881120	0.322330
	C147	C	0.374183	0.110277	0.319003
	C148	C	0.676752	0.372985	0.887909
	C149	C	0.677317	0.616211	0.112700
	C150	C	0.315790	0.616708	0.888193
	C151	C	0.317046	0.370945	0.112975
	C152	C	0.881006	0.673351	0.380477
	C153	C	0.109484	0.675018	0.620764
	C154	C	0.883187	0.316693	0.621963
	C155	C	0.110941	0.321183	0.383655
	C156	C	0.884208	0.371166	0.682060
	C157	C	0.108554	0.620290	0.681509
	C158	C	0.883232	0.620329	0.318943
	C159	C	0.109763	0.375822	0.323503
	C160	C	0.375405	0.673788	0.887719
	C161	C	0.618333	0.673340	0.113364
	C162	C	0.616386	0.317148	0.886815
	C163	C	0.376844	0.314416	0.113213
	C164	C	0.672049	0.880980	0.380357
	C165	C	0.673717	0.109764	0.619878
	C166	C	0.318132	0.881178	0.618755
	C167	C	0.319299	0.111407	0.378361
	C168	C	0.875555	0.380972	0.179652
	C169	C	0.118328	0.610221	0.178048
	C170	C	0.118393	0.381805	0.822771
	C171	C	0.873535	0.608640	0.820268
	C172	C	0.173966	0.876005	0.387937
	C173	C	0.178564	0.120005	0.611857
	C174	C	0.815175	0.119627	0.387828
	C175	C	0.813620	0.871815	0.611681
	C176	C	0.382032	0.172440	0.879037
	C177	C	0.610946	0.171447	0.118092
	C178	C	0.382910	0.816399	0.119426
	C179	C	0.611014	0.818678	0.881614
	C180	C	0.383887	0.871230	0.179461
	C181	C	0.609362	0.117635	0.178887
	C182	C	0.382898	0.117155	0.819584
	C183	C	0.608680	0.871388	0.819407
	C184	C	0.875583	0.176296	0.387678
	C185	C	0.118286	0.175331	0.613545
	C186	C	0.113976	0.819669	0.387311
	C187	C	0.873081	0.815443	0.612266
	C188	C	0.171393	0.379840	0.882764
	C189	C	0.174511	0.610064	0.119900
	C190	C	0.819965	0.379898	0.120853
	C191	C	0.818905	0.609664	0.879498
	C192	C	0.400708	0.090783	0.596847
	C193	C	0.590396	0.900746	0.597189
	C194	C	0.591497	0.090693	0.401046
	C195	C	0.397167	0.901183	0.401021
	C196	C	0.596426	0.395607	0.092533
	C197	C	0.595962	0.593762	0.908202
	C198	C	0.397917	0.591639	0.092457
	C199	C	0.394796	0.396237	0.907622
	C200	C	0.089984	0.595333	0.400801
	C201	C	0.902265	0.591617	0.599610
	C202	C	0.090684	0.399576	0.601717
	C203	C	0.902673	0.400350	0.402457
	C204	C	0.900251	0.590230	0.097807
	C205	C	0.093264	0.399706	0.102005
	C206	C	0.092577	0.589756	0.903859
	C207	C	0.900453	0.400580	0.903586
	C208	C	0.094968	0.898896	0.592372
	C209	C	0.095583	0.097147	0.407960
	C210	C	0.897189	0.092447	0.591693
	C211	C	0.894882	0.898182	0.407665
	C212	C	0.589918	0.091799	0.899964
	C213	C	0.402782	0.089920	0.097444
	C214	C	0.590979	0.898295	0.100377
	C215	C	0.402170	0.897323	0.900176
	Zn216	Zn	0.495797	-0.004842	0.748591
	Zn217	Zn	0.496337	-0.004674	0.250886
	Zn218	Zn	0.748790	0.494732	0.000206
	Zn219	Zn	0.243466	0.493891	0.001009
	Zn220	Zn	-0.005131	0.745181	0.500180
	Zn221	Zn	-0.003134	0.247876	0.501597
	Zn222	Zn	-0.003235	0.495537	0.752390
	Zn223	Zn	-0.003777	0.496908	0.250300
	Zn224	Zn	0.497064	0.745824	0.000250
	Zn225	Zn	0.496406	0.242913	-0.000684
	Zn226	Zn	0.742243	-0.004583	0.499452
	Zn227	Zn	0.247525	-0.002739	0.499593
	N228	N	0.407883	0.959761	0.678885
	N229	N	0.583242	0.030959	0.679212
	N230	N	0.582068	0.959029	0.321278
	N231	N	0.407548	0.031969	0.318114
	N232	N	0.678658	0.406485	0.964492
	N233	N	0.678431	0.582257	0.036343
	N234	N	0.314891	0.581376	0.964330
	N235	N	0.314515	0.406051	0.036690
	N236	N	0.957527	0.672310	0.416307
	N237	N	0.032885	0.673395	0.585177
	N238	N	0.959714	0.318531	0.586930
	N239	N	0.034217	0.321715	0.418407
	N240	N	0.961410	0.406744	0.683323
	N241	N	0.031562	0.584688	0.682667
	N242	N	0.961195	0.587133	0.316992
	N243	N	0.032349	0.409943	0.321331
	N244	N	0.411175	0.673327	0.963486
	N245	N	0.583055	0.673990	0.037522
	N246	N	0.581335	0.316707	0.962517
	N247	N	0.410738	0.314825	0.037032
	N248	N	0.671278	0.958599	0.414750
	N249	N	0.672004	0.032581	0.584668
	N250	N	0.319824	0.958758	0.583460
	N251	N	0.319174	0.033913	0.414044
	N252	N	0.909866	0.459260	0.180277
	N253	N	0.084101	0.531839	0.180686
	N254	N	0.084636	0.460105	0.821409
	N255	N	0.908350	0.530805	0.819925
	N256	N	0.176074	0.910018	0.464259
	N257	N	0.179753	0.086808	0.535135
	N258	N	0.813663	0.083859	0.463765
	N259	N	0.812710	0.907350	0.535628
	N260	N	0.458755	0.171959	0.913989
	N261	N	0.534307	0.169803	0.082635
	N262	N	0.459580	0.817773	0.084751
	N263	N	0.534470	0.819721	0.917048
	N264	N	0.461213	0.906258	0.181350
	N265	N	0.531815	0.083027	0.180532
	N266	N	0.460310	0.082957	0.818121
	N267	N	0.530859	0.904644	0.816703
	N268	N	0.911334	0.174966	0.463284
	N269	N	0.082274	0.175473	0.537975
	N270	N	0.079240	0.819330	0.463190
	N271	N	0.908496	0.816577	0.536689
	N272	N	0.170384	0.456913	0.918061
	N273	N	0.174180	0.531823	0.086875
	N274	N	0.820544	0.457401	0.085171
	N275	N	0.820344	0.532517	0.915680
	O276	O	0.066371	-0.083506	-0.060589
	H277	H	0.073149	-0.082628	-0.070299
	H278	H	0.054506	-0.068902	-0.059735
	O279	O	0.418333	0.437081	0.577751
	H280	H	0.425805	0.444481	0.573676
	H281	H	0.422065	0.450999	0.583613
	O282	O	0.998166	0.052302	-0.054740
	H283	H	1.005659	0.060975	-0.041276
	H284	H	0.995689	0.047098	-0.046870
	O285	O	0.113274	1.070719	-0.113951
	H286	H	0.107294	1.067763	-0.105477
	H287	H	0.095536	1.068844	-0.114562
	O288	O	0.501602	0.456103	0.403963
	H289	H	0.496374	0.458784	0.411931
	H290	H	0.505766	0.455441	0.407591
	O291	O	0.576381	0.454435	0.563642
	H292	H	0.575275	0.462582	0.571839
	H293	H	0.578399	0.450578	0.551638
	O294	O	1.030032	0.866889	0.946736
	H295	H	1.040865	0.857505	0.949762
	H296	H	1.027428	0.883788	0.930660
	O297	O	-0.007484	-0.022178	-0.111957
	H298	H	-0.008516	-0.006126	-0.115668
	H299	H	-0.011466	-0.010535	-0.111259
	O300	O	0.413702	0.550248	0.423414
	H301	H	0.393969	0.557625	0.410748
	H302	H	0.413487	0.525656	0.405102
	O303	O	-0.149207	0.957942	0.810020
	H304	H	-0.146379	0.973460	0.816289
	H305	H	-0.161739	0.973756	0.796120
	O306	O	1.045786	0.945192	0.136298
	H307	H	1.038065	0.949123	0.133011
	H308	H	1.048679	0.953580	0.125955
	O309	O	1.043138	-0.044161	-0.019208
	H310	H	1.035586	-0.066688	-0.042095
	H311	H	1.045967	-0.035462	0.001074
	O312	O	0.174767	0.016596	1.008925
	H313	H	0.160928	0.019014	1.013635
	H314	H	0.174133	0.018140	0.998703
	O315	O	0.681110	0.497678	0.577216
	H316	H	0.686363	0.492854	0.576460
	H317	H	0.677016	0.491368	0.576752
	O318	O	0.414940	0.459610	0.375496
	H319	H	0.403609	0.465794	0.386609
	H320	H	0.422894	0.460070	0.382391
	O321	O	0.357505	0.610872	0.611053
	H322	H	0.349498	0.626761	0.601564
	H323	H	0.364350	0.615088	0.602701
	O324	O	0.461071	0.434582	0.504680
	H325	H	0.469006	0.436632	0.511557
	H326	H	0.446026	0.427681	0.503362
	O327	O	0.020837	1.029263	1.123223
	H328	H	0.014066	1.023552	1.123094
	H329	H	0.022325	1.020143	1.112195
	O330	O	0.537661	0.530870	0.389751
	H331	H	0.536413	0.530492	0.382703
	H332	H	0.545278	0.537841	0.398845
	O333	O	-0.057732	0.929986	1.099864
	H334	H	-0.064945	0.909875	1.094308
	H335	H	-0.038492	0.927568	1.097199
	O336	O	0.965614	0.950176	1.111773
	H337	H	0.963995	0.944586	1.109177
	H338	H	0.979562	0.946635	1.108049
	O339	O	0.574540	0.417010	0.534016
	H340	H	0.558003	0.416959	0.532841
	H341	H	0.572340	0.419333	0.527632
	O342	O	0.892605	0.072842	0.093698
	H343	H	0.892414	0.071468	0.085019
	H344	H	0.891056	0.066032	0.095618
	O345	O	0.588225	0.526459	0.623727
	H346	H	0.596263	0.518786	0.632428
	H347	H	0.590752	0.501116	0.611864
	O348	O	1.095351	1.056259	1.044160
	H349	H	1.095323	1.072345	1.050725
	H350	H	1.096610	1.042978	1.039628
	O351	O	0.956275	1.118202	-0.046267
	H352	H	0.956529	1.119293	-0.025990
	H353	H	0.956885	1.125621	-0.033757
	O354	O	0.580844	0.647023	0.443355
	H355	H	0.591654	0.649737	0.436109
	H356	H	0.579001	0.649197	0.455760
	O357	O	0.408438	0.434323	0.611387
	H358	H	0.418065	0.455451	0.618359
	H359	H	0.404301	0.443101	0.611400
	O360	O	0.013628	-0.100378	0.040754
	H361	H	0.018785	-0.103433	0.026237
	H362	H	0.026699	-0.100913	0.052461
	O363	O	0.566056	0.519148	0.435507
	H364	H	0.571901	0.520965	0.433814
	H365	H	0.560143	0.521614	0.439141
	O366	O	0.493475	0.557923	0.402351
	H367	H	0.491202	0.564119	0.402861
	H368	H	0.470621	0.548549	0.402755
	O369	O	0.509756	0.683045	0.636698
	H370	H	0.507637	0.687251	0.627908
	H371	H	0.513741	0.688536	0.632631
	O372	O	0.484638	0.357118	0.592600
	H373	H	0.481461	0.347893	0.614033
	H374	H	0.495750	0.366915	0.580193
	O375	O	0.439201	0.489332	0.298949
	H376	H	0.444706	0.479444	0.299168
	H377	H	0.428497	0.478225	0.281929
	O378	O	0.397794	0.482358	0.344657
	H379	H	0.386956	0.492884	0.350027
	H380	H	0.395584	0.493395	0.348706
	O381	O	0.419847	0.391640	0.520807
	H382	H	0.430108	0.388914	0.527465
	H383	H	0.411947	0.393418	0.513556
	O384	O	0.024916	0.895543	0.046657
	H385	H	0.018686	0.894587	0.054948
	H386	H	0.028435	0.901757	0.041761
	O387	O	0.909585	-0.144046	0.961865
	H388	H	0.907657	-0.133575	0.950050
	H389	H	0.899390	-0.143663	0.956571
	O390	O	-0.054404	1.060926	0.058894
	H391	H	-0.061683	1.051146	0.058078
	H392	H	-0.055240	1.069314	0.067100
	O393	O	1.082308	1.091090	0.099424
	H394	H	1.070984	1.086230	0.106113
	H395	H	1.087721	1.094998	0.107889
	O396	O	0.502974	0.474990	0.570482
	H397	H	0.509995	0.468241	0.579984
	H398	H	0.503979	0.485694	0.566738
	O399	O	-0.172819	0.918879	0.997860
	H400	H	-0.172338	0.911250	0.984732
	H401	H	-0.160621	0.906643	0.991890
	O402	O	0.965718	1.094095	0.844605
	H403	H	0.960154	1.100175	0.831866
	H404	H	0.965669	1.084054	0.848009
	O405	O	0.567062	0.597736	0.601476
	H406	H	0.559835	0.597159	0.583288
	H407	H	0.551830	0.592556	0.606529
