data_Molecule from HDF5

_cell_length_a		16.206848
_cell_length_b		16.127051
_cell_length_c		16.408464
_cell_angle_alpha	90.227967
_cell_angle_beta	89.892994
_cell_angle_gamma	90.024755
_symmetry_space_group_name_H-M	'P 1'
_symmetry_Int_Tables_number		1

loop_
	_symmetry_equiv_pos_as_xyz
	x,y,z

loop_
	_atom_site_label
	_atom_site_type_symbol
	_atom_site_fract_x
	_atom_site_fract_y
	_atom_site_fract_z
	H0	H	0.393559	0.837463	0.712599
	H1	H	0.595104	0.166093	0.713509
	H2	H	0.594965	0.838052	0.282367
	H3	H	0.394594	0.166679	0.284143
	H4	H	0.711309	0.402789	0.835371
	H5	H	0.710989	0.602806	0.160769
	H6	H	0.279842	0.601391	0.836548
	H7	H	0.279906	0.404208	0.161254
	H8	H	0.831075	0.714146	0.403096
	H9	H	0.160878	0.714574	0.595871
	H10	H	0.829685	0.291126	0.594814
	H11	H	0.160177	0.288412	0.401259
	H12	H	0.832616	0.401051	0.715437
	H13	H	0.159504	0.602428	0.714302
	H14	H	0.832598	0.604290	0.282484
	H15	H	0.158700	0.398564	0.280997
	H16	H	0.398582	0.715245	0.835020
	H17	H	0.593224	0.718232	0.161411
	H18	H	0.594839	0.286714	0.835263
	H19	H	0.397088	0.287377	0.161159
	H20	H	0.707909	0.836117	0.399337
	H21	H	0.706722	0.167312	0.595548
	H22	H	0.282245	0.837061	0.593681
	H23	H	0.282912	0.168090	0.402524
	H24	H	0.894404	0.337491	0.213283
	H25	H	0.096913	0.666108	0.215359
	H26	H	0.097786	0.337588	0.781922
	H27	H	0.894521	0.665300	0.783373
	H28	H	0.211305	0.901417	0.336409
	H29	H	0.209533	0.101636	0.661586
	H30	H	0.779588	0.100223	0.335808
	H31	H	0.778217	0.902902	0.661033
	H32	H	0.330715	0.213696	0.903128
	H33	H	0.660744	0.214897	0.094428
	H34	H	0.330859	0.792048	0.093170
	H35	H	0.661082	0.791348	0.901179
	H36	H	0.332449	0.900751	0.213405
	H37	H	0.658686	0.104342	0.215143
	H38	H	0.331973	0.103295	0.783591
	H39	H	0.658084	0.899173	0.779757
	H40	H	0.897753	0.215942	0.335536
	H41	H	0.091752	0.216732	0.661838
	H42	H	0.093556	0.787139	0.336065
	H43	H	0.896650	0.787587	0.662106
	H44	H	0.209318	0.336733	0.901004
	H45	H	0.207103	0.668541	0.096429
	H46	H	0.782756	0.336478	0.094817
	H47	H	0.784794	0.667803	0.903122
	H48	H	0.405419	0.120961	0.596989
	H49	H	0.583462	0.887288	0.580180
	H50	H	0.576383	0.116294	0.406143
	H51	H	0.398284	0.881447	0.398788
	H52	H	0.591161	0.405995	0.114981
	H53	H	0.581779	0.607879	0.881889
	H54	H	0.400130	0.596796	0.114365
	H55	H	0.399836	0.405867	0.880944
	H56	H	0.114282	0.597854	0.404020
	H57	H	0.878118	0.596738	0.592121
	H58	H	0.111608	0.413503	0.592164
	H59	H	0.876851	0.412417	0.397336
	H60	H	0.115203	0.407875	0.595210
	H61	H	0.878778	0.592289	0.591422
	H62	H	0.110997	0.591552	0.412162
	H63	H	0.876733	0.402924	0.406948
	H64	H	0.403054	0.596370	0.113395
	H65	H	0.604187	0.596766	0.878303
	H66	H	0.590531	0.414540	0.112740
	H67	H	0.401231	0.411927	0.883976
	H68	H	0.592911	0.119124	0.414431
	H69	H	0.595700	0.880579	0.591922
	H70	H	0.405957	0.117777	0.588007
	H71	H	0.409532	0.886425	0.402709
	H72	H	0.904977	0.619407	0.093486
	H73	H	0.086292	0.382896	0.096827
	H74	H	0.093167	0.621396	0.906325
	H75	H	0.911247	0.384971	0.902944
	H76	H	0.087558	0.905978	0.615693
	H77	H	0.085876	0.092482	0.385180
	H78	H	0.898552	0.089032	0.612576
	H79	H	0.908377	0.904758	0.384638
	H80	H	0.613313	0.093406	0.903846
	H81	H	0.378872	0.099337	0.084499
	H82	H	0.616185	0.904716	0.093862
	H83	H	0.374462	0.903918	0.898557
	H84	H	0.610609	0.912429	0.085014
	H85	H	0.381452	0.085126	0.093518
	H86	H	0.613117	0.092651	0.904503
	H87	H	0.379396	0.907712	0.911069
	H88	H	0.906583	0.099785	0.613019
	H89	H	0.088539	0.098055	0.381582
	H90	H	0.092232	0.909623	0.615486
	H91	H	0.895784	0.904692	0.381341
	H92	H	0.084028	0.619867	0.899734
	H93	H	0.081666	0.387683	0.087555
	H94	H	0.903946	0.619840	0.091727
	H95	H	0.902187	0.384935	0.912651
	H96	H	0.398115	0.120833	0.591405
	H97	H	0.578142	0.884151	0.597529
	H98	H	0.590692	0.123591	0.396629
	H99	H	0.399752	0.885405	0.410422
	H100	H	0.583462	0.409819	0.112001
	H101	H	0.585206	0.583388	0.887411
	H102	H	0.402366	0.599526	0.115271
	H103	H	0.405515	0.407559	0.884315
	H104	H	0.112130	0.587464	0.402351
	H105	H	0.878102	0.593509	0.595801
	H106	H	0.112117	0.407607	0.588790
	H107	H	0.881326	0.415330	0.409824
	H108	H	0.903063	0.620261	0.093437
	H109	H	0.092873	0.384688	0.087599
	H110	H	0.083643	0.616644	0.910806
	H111	H	0.899091	0.381363	0.900732
	H112	H	0.087434	0.911808	0.613167
	H113	H	0.092086	0.093355	0.383003
	H114	H	0.894043	0.100366	0.617519
	H115	H	0.901355	0.915526	0.385066
	H116	H	0.612763	0.092854	0.903800
	H117	H	0.374877	0.098658	0.100555
	H118	H	0.612814	0.916834	0.096142
	H119	H	0.379120	0.916754	0.901239
	C120	C	0.374020	0.011024	0.619744
	C121	C	0.615179	0.992849	0.619133
	C122	C	0.615857	0.010730	0.376831
	C123	C	0.373709	0.993481	0.376471
	C124	C	0.617769	0.380403	0.006093
	C125	C	0.618083	0.624983	0.990143
	C126	C	0.373554	0.625221	0.006810
	C127	C	0.373334	0.380120	0.990513
	C128	C	0.004198	0.622285	0.377947
	C129	C	0.987258	0.623074	0.620942
	C130	C	0.004261	0.380951	0.620157
	C131	C	0.986651	0.380544	0.376135
	C132	C	0.874479	0.510485	0.121046
	C133	C	0.116350	0.493892	0.120019
	C134	C	0.116921	0.510469	0.876880
	C135	C	0.875090	0.493051	0.877468
	C136	C	0.117971	0.879801	0.507380
	C137	C	0.116656	0.123889	0.490878
	C138	C	0.872162	0.124457	0.506736
	C139	C	0.873060	0.879884	0.490765
	C140	C	0.504524	0.122652	0.876448
	C141	C	0.486814	0.123684	0.120621
	C142	C	0.504619	0.882068	0.119174
	C143	C	0.486740	0.880422	0.875438
	C144	C	0.374641	0.886790	0.674543
	C145	C	0.613981	0.117079	0.674840
	C146	C	0.614250	0.886672	0.321043
	C147	C	0.374965	0.117570	0.321943
	C148	C	0.672729	0.383013	0.883846
	C149	C	0.672721	0.622921	0.112504
	C150	C	0.318278	0.621705	0.884634
	C151	C	0.317863	0.383273	0.112645
	C152	C	0.880492	0.677575	0.381341
	C153	C	0.111342	0.677629	0.617171
	C154	C	0.879596	0.327068	0.616607
	C155	C	0.110689	0.325359	0.379699
	C156	C	0.880815	0.381933	0.676193
	C157	C	0.110642	0.621840	0.675990
	C158	C	0.881404	0.622820	0.321459
	C159	C	0.109908	0.380382	0.319981
	C160	C	0.377341	0.678338	0.883845
	C161	C	0.614162	0.680428	0.112653
	C162	C	0.614954	0.325151	0.883808
	C163	C	0.376303	0.325421	0.112722
	C164	C	0.670734	0.886025	0.378848
	C165	C	0.669671	0.117696	0.616396
	C166	C	0.319476	0.886232	0.615264
	C167	C	0.319588	0.118498	0.380834
	C168	C	0.875310	0.386778	0.175165
	C169	C	0.115901	0.617348	0.176627
	C170	C	0.116604	0.386536	0.820796
	C171	C	0.875926	0.616635	0.822060
	C172	C	0.172980	0.881727	0.384919
	C173	C	0.171698	0.121860	0.612939
	C174	C	0.817475	0.121002	0.384498
	C175	C	0.816702	0.882143	0.612812
	C176	C	0.380179	0.177148	0.881178
	C177	C	0.611048	0.178596	0.116739
	C178	C	0.380304	0.828335	0.114764
	C179	C	0.610982	0.826827	0.879428
	C180	C	0.381326	0.882168	0.174898
	C181	C	0.610039	0.123385	0.176373
	C182	C	0.380827	0.122055	0.821863
	C183	C	0.609677	0.881204	0.819357
	C184	C	0.875902	0.178836	0.384334
	C185	C	0.113186	0.179002	0.613202
	C186	C	0.114617	0.824665	0.384806
	C187	C	0.876050	0.825517	0.613490
	C188	C	0.172307	0.386246	0.879781
	C189	C	0.170850	0.618596	0.117508
	C190	C	0.819493	0.386225	0.116662
	C191	C	0.820899	0.617710	0.881118
	C192	C	0.396523	0.097411	0.598486
	C193	C	0.592431	0.906378	0.596542
	C194	C	0.593381	0.097157	0.399288
	C195	C	0.395861	0.906946	0.397576
	C196	C	0.595070	0.403315	0.091193
	C197	C	0.596695	0.602568	0.904513
	C198	C	0.395395	0.603831	0.092289
	C199	C	0.395545	0.401944	0.905130
	C200	C	0.090197	0.599112	0.399924
	C201	C	0.900647	0.600593	0.599452
	C202	C	0.090479	0.403081	0.598517
	C203	C	0.900654	0.403391	0.398266
	C204	C	0.897235	0.597488	0.099233
	C205	C	0.093534	0.407410	0.097310
	C206	C	0.093703	0.596899	0.899121
	C207	C	0.897446	0.406236	0.899138
	C208	C	0.095711	0.902518	0.592691
	C209	C	0.095019	0.101278	0.405190
	C210	C	0.893512	0.102835	0.592331
	C211	C	0.895265	0.901716	0.405650
	C212	C	0.590727	0.099880	0.897797
	C213	C	0.400732	0.101109	0.099214
	C214	C	0.591027	0.904705	0.097914
	C215	C	0.399928	0.902899	0.897238
	Zn216	Zn	0.494741	0.001870	0.747635
	Zn217	Zn	0.495526	0.002204	0.248527
	Zn218	Zn	0.747600	0.502216	-0.001550
	Zn219	Zn	0.244357	0.503118	-0.001164
	Zn220	Zn	-0.004356	0.750802	0.499205
	Zn221	Zn	-0.004745	0.253426	0.498857
	Zn222	Zn	-0.004166	0.501597	0.749249
	Zn223	Zn	-0.004196	0.502005	0.248358
	Zn224	Zn	0.495587	0.754078	-0.002550
	Zn225	Zn	0.495753	0.250870	-0.002090
	Zn226	Zn	0.742922	0.001449	0.498319
	Zn227	Zn	0.246072	0.002508	0.498132
	N228	N	0.407855	0.965248	0.677461
	N229	N	0.580997	0.038384	0.676770
	N230	N	0.581024	0.965219	0.319501
	N231	N	0.407847	0.039016	0.318947
	N232	N	0.674864	0.416596	0.960987
	N233	N	0.675416	0.589230	0.035317
	N234	N	0.315859	0.589441	0.962089
	N235	N	0.316200	0.416629	0.035631
	N236	N	0.957740	0.677345	0.415852
	N237	N	0.033454	0.678623	0.583761
	N238	N	0.957218	0.326421	0.582388
	N239	N	0.033163	0.325288	0.413963
	N240	N	0.959101	0.414820	0.678541
	N241	N	0.032355	0.588797	0.678593
	N242	N	0.959363	0.589037	0.319185
	N243	N	0.031820	0.413739	0.317556
	N244	N	0.410748	0.680696	0.960784
	N245	N	0.580781	0.681626	0.035527
	N246	N	0.581580	0.323242	0.960897
	N247	N	0.410090	0.323369	0.035726
	N248	N	0.671646	0.964071	0.412995
	N249	N	0.670377	0.039609	0.582284
	N250	N	0.318869	0.964225	0.581759
	N251	N	0.318632	0.040428	0.414166
	N252	N	0.908542	0.465273	0.178088
	N253	N	0.082743	0.538816	0.178141
	N254	N	0.082527	0.464588	0.819245
	N255	N	0.909033	0.538010	0.819784
	N256	N	0.175349	0.915175	0.462160
	N257	N	0.173838	0.088150	0.535641
	N258	N	0.814928	0.088143	0.461695
	N259	N	0.814713	0.915184	0.535766
	N260	N	0.457995	0.177503	0.914769
	N261	N	0.533584	0.178920	0.082636
	N262	N	0.457892	0.827932	0.080803
	N263	N	0.533361	0.826496	0.913630
	N264	N	0.459588	0.915249	0.177611
	N265	N	0.531905	0.090127	0.178960
	N266	N	0.459034	0.089056	0.818741
	N267	N	0.531251	0.913895	0.816833
	N268	N	0.909254	0.181023	0.461401
	N269	N	0.079890	0.180290	0.536252
	N270	N	0.080965	0.823291	0.461819
	N271	N	0.910148	0.823677	0.536611
	N272	N	0.172701	0.464346	0.913894
	N273	N	0.171129	0.540873	0.082649
	N274	N	0.818845	0.464513	0.083515
	N275	N	0.820468	0.539891	0.915164
	O276	O	0.522471	0.497825	0.498271
	H277	H	0.526077	0.495259	0.491093
	H278	H	0.527434	0.492274	0.498544
	O279	O	0.505961	0.475277	0.504879
	H280	H	0.507652	0.475210	0.503790
	H281	H	0.510785	0.462264	0.503480
	O282	O	0.476604	0.510916	0.453714
	H283	H	0.475464	0.509846	0.455596
	H284	H	0.472387	0.511244	0.456202
	O285	O	0.024564	0.979058	1.039967
	H286	H	0.024795	0.980922	1.044288
	H287	H	0.027904	0.980086	1.040602
	O288	O	0.545041	0.518645	0.531256
	H289	H	0.536469	0.523334	0.531344
	H290	H	0.541118	0.511599	0.529327
	O291	O	0.054029	0.035777	1.040256
	H292	H	0.047418	0.028743	1.039111
	H293	H	0.047214	0.034081	1.046059
	O294	O	0.472962	0.473621	0.491522
	H295	H	0.479920	0.475450	0.497892
	H296	H	0.482144	0.469583	0.486914
	O297	O	0.464549	0.430288	0.572255
	H298	H	0.462162	0.430734	0.574305
	H299	H	0.467194	0.429676	0.566017
	O300	O	0.408620	0.553158	0.493517
	H301	H	0.397139	0.557746	0.495314
	H302	H	0.400156	0.552118	0.487667
	O303	O	0.536551	0.524680	0.431365
	H304	H	0.528012	0.532045	0.427285
	H305	H	0.536778	0.520905	0.432416
	O306	O	1.038529	0.029231	1.003959
	H307	H	1.042235	0.021114	1.003666
	H308	H	1.045737	0.033725	1.003422
	O309	O	0.499817	0.555653	0.496488
	H310	H	0.503264	0.551030	0.491724
	H311	H	0.495299	0.557520	0.505189
	O312	O	0.575395	0.511991	0.525758
	H313	H	0.574457	0.521809	0.525684
	H314	H	0.572047	0.513748	0.524740
	O315	O	1.011767	0.047709	1.041903
	H316	H	1.018537	0.043824	1.044063
	H317	H	1.014392	0.052072	1.031747
	O318	O	0.027900	-0.012575	-0.002117
	H319	H	0.033803	-0.011093	-0.000693
	H320	H	0.036497	-0.016691	-0.007073
	O321	O	0.551796	0.505158	0.409189
	H322	H	0.552610	0.508407	0.416625
	H323	H	0.549181	0.506863	0.404524
	O324	O	1.036646	-0.025622	0.035163
	H325	H	1.032427	-0.026639	0.034905
	H326	H	1.039030	-0.017774	0.035134
	O327	O	1.004996	1.058510	0.056272
	H328	H	0.999516	1.061330	0.057916
	H329	H	1.004934	1.054112	0.057432
	O330	O	0.489332	0.406513	0.441109
	H331	H	0.489630	0.395320	0.436080
	H332	H	0.500797	0.407658	0.443814
	O333	O	0.514723	0.475464	0.425177
	H334	H	0.524223	0.477371	0.425832
	H335	H	0.519466	0.474370	0.425533
