data_Molecule from HDF5

_cell_length_a		16.225038
_cell_length_b		16.284727
_cell_length_c		16.329226
_cell_angle_alpha	89.962883
_cell_angle_beta	89.937888
_cell_angle_gamma	90.059614
_symmetry_space_group_name_H-M	'P 1'
_symmetry_Int_Tables_number		1

loop_
	_symmetry_equiv_pos_as_xyz
	x,y,z

loop_
	_atom_site_label
	_atom_site_type_symbol
	_atom_site_fract_x
	_atom_site_fract_y
	_atom_site_fract_z
	H0	H	0.395747	0.836331	0.716542
	H1	H	0.595102	0.162074	0.716352
	H2	H	0.594480	0.835796	0.286395
	H3	H	0.397281	0.163564	0.287057
	H4	H	0.709865	0.401453	0.837568
	H5	H	0.708882	0.596186	0.164442
	H6	H	0.283199	0.596189	0.836149
	H7	H	0.280900	0.402476	0.164284
	H8	H	0.831008	0.714634	0.401573
	H9	H	0.159751	0.713082	0.597184
	H10	H	0.831278	0.286244	0.598442
	H11	H	0.160036	0.287054	0.403191
	H12	H	0.831732	0.400413	0.714885
	H13	H	0.159356	0.599111	0.714761
	H14	H	0.831523	0.599098	0.286579
	H15	H	0.159065	0.401658	0.286068
	H16	H	0.398739	0.713849	0.837262
	H17	H	0.594041	0.713513	0.164355
	H18	H	0.594541	0.284401	0.838109
	H19	H	0.396528	0.285181	0.164068
	H20	H	0.709613	0.835182	0.403611
	H21	H	0.708372	0.163871	0.597458
	H22	H	0.281717	0.835116	0.598538
	H23	H	0.282936	0.163724	0.404105
	H24	H	0.896146	0.336371	0.215576
	H25	H	0.096136	0.662771	0.216071
	H26	H	0.094299	0.336277	0.785932
	H27	H	0.896899	0.663024	0.786158
	H28	H	0.210238	0.902185	0.336586
	H29	H	0.209099	0.096859	0.664739
	H30	H	0.781227	0.097524	0.336963
	H31	H	0.781775	0.902714	0.664837
	H32	H	0.331352	0.212429	0.903235
	H33	H	0.659802	0.213288	0.099186
	H34	H	0.330961	0.786470	0.098773
	H35	H	0.659732	0.785035	0.902186
	H36	H	0.331689	0.900708	0.215299
	H37	H	0.659766	0.097023	0.214347
	H38	H	0.332539	0.098489	0.786594
	H39	H	0.659733	0.900780	0.786154
	H40	H	0.898209	0.214135	0.337028
	H41	H	0.092844	0.213993	0.664515
	H42	H	0.094071	0.786135	0.336866
	H43	H	0.895919	0.784375	0.664411
	H44	H	0.208826	0.336340	0.902824
	H45	H	0.208800	0.663828	0.096242
	H46	H	0.782201	0.335494	0.097577
	H47	H	0.781960	0.663726	0.903617
	H48	H	0.407499	0.113955	0.592917
	H49	H	0.588027	0.879989	0.603045
	H50	H	0.590256	0.117235	0.403338
	H51	H	0.389895	0.882491	0.417851
	H52	H	0.582534	0.400568	0.117328
	H53	H	0.593970	0.590192	0.883580
	H54	H	0.401718	0.593325	0.116523
	H55	H	0.402695	0.403614	0.884302
	H56	H	0.114771	0.591253	0.396992
	H57	H	0.877565	0.600274	0.588510
	H58	H	0.112106	0.405394	0.590453
	H59	H	0.876029	0.407101	0.401713
	H60	H	0.112131	0.409846	0.594347
	H61	H	0.881925	0.583542	0.590126
	H62	H	0.114097	0.602987	0.411494
	H63	H	0.877523	0.401105	0.410865
	H64	H	0.400746	0.594232	0.117015
	H65	H	0.583606	0.591118	0.887288
	H66	H	0.595274	0.404496	0.120411
	H67	H	0.400917	0.404495	0.884050
	H68	H	0.584933	0.114855	0.406809
	H69	H	0.580886	0.886170	0.589740
	H70	H	0.398647	0.116300	0.591725
	H71	H	0.400596	0.877892	0.391495
	H72	H	0.898617	0.617652	0.095010
	H73	H	0.086934	0.380791	0.100683
	H74	H	0.086501	0.615465	0.906787
	H75	H	0.900072	0.382514	0.908324
	H76	H	0.082909	0.901127	0.616527
	H77	H	0.081529	0.094822	0.386388
	H78	H	0.899507	0.088540	0.616166
	H79	H	0.905379	0.905062	0.385260
	H80	H	0.611290	0.087363	0.907814
	H81	H	0.374549	0.099208	0.100769
	H82	H	0.612074	0.903500	0.089400
	H83	H	0.378891	0.905433	0.908672
	H84	H	0.611029	0.911151	0.094907
	H85	H	0.380658	0.094728	0.084445
	H86	H	0.615067	0.094870	0.904223
	H87	H	0.379392	0.907554	0.908433
	H88	H	0.907818	0.095366	0.616291
	H89	H	0.094194	0.100462	0.381435
	H90	H	0.096012	0.903935	0.619722
	H91	H	0.899323	0.905761	0.383274
	H92	H	0.090406	0.616941	0.907327
	H93	H	0.082236	0.385773	0.091149
	H94	H	0.904864	0.616014	0.097360
	H95	H	0.901236	0.381805	0.904393
	H96	H	0.402526	0.117777	0.599924
	H97	H	0.596191	0.882399	0.589930
	H98	H	0.590607	0.115565	0.409914
	H99	H	0.417414	0.888639	0.412459
	H100	H	0.587114	0.413017	0.113991
	H101	H	0.588881	0.599463	0.882944
	H102	H	0.400801	0.593135	0.117599
	H103	H	0.402442	0.405713	0.885353
	H104	H	0.108186	0.585806	0.413643
	H105	H	0.875350	0.592477	0.603487
	H106	H	0.114208	0.405246	0.595959
	H107	H	0.880978	0.412709	0.410601
	H108	H	0.903473	0.615413	0.091325
	H109	H	0.094130	0.382810	0.091271
	H110	H	0.088953	0.618122	0.904350
	H111	H	0.903714	0.383831	0.906905
	H112	H	0.087438	0.913341	0.614051
	H113	H	0.092885	0.086607	0.385634
	H114	H	0.898196	0.098772	0.619341
	H115	H	0.902512	0.910330	0.385869
	H116	H	0.612703	0.094680	0.913421
	H117	H	0.380246	0.082401	0.097119
	H118	H	0.614934	0.903271	0.099120
	H119	H	0.377919	0.906847	0.906306
	C120	C	0.373879	0.007815	0.623096
	C121	C	0.617153	0.991030	0.622573
	C122	C	0.617388	0.007667	0.378713
	C123	C	0.374663	0.991482	0.379413
	C124	C	0.616898	0.377655	0.009387
	C125	C	0.616949	0.621373	0.992394
	C126	C	0.373578	0.621440	0.008974
	C127	C	0.373329	0.377160	0.992486
	C128	C	0.003621	0.621608	0.379049
	C129	C	0.986655	0.621167	0.622224
	C130	C	0.003952	0.378479	0.621598
	C131	C	0.986908	0.378729	0.379263
	C132	C	0.873523	0.508055	0.122684
	C133	C	0.116529	0.491367	0.122229
	C134	C	0.116824	0.508454	0.878525
	C135	C	0.873593	0.491206	0.878980
	C136	C	0.117232	0.878310	0.508431
	C137	C	0.117624	0.122207	0.492594
	C138	C	0.873864	0.121690	0.509063
	C139	C	0.874150	0.878497	0.492948
	C140	C	0.504414	0.120751	0.879765
	C141	C	0.487139	0.120602	0.122474
	C142	C	0.504042	0.877864	0.122882
	C143	C	0.487267	0.878238	0.879485
	C144	C	0.375823	0.884829	0.678405
	C145	C	0.615469	0.113725	0.678128
	C146	C	0.615076	0.884557	0.324179
	C147	C	0.376749	0.114599	0.324337
	C148	C	0.671969	0.380775	0.886392
	C149	C	0.671601	0.617770	0.115818
	C150	C	0.319804	0.618039	0.885390
	C151	C	0.318232	0.380904	0.115298
	C152	C	0.880124	0.676600	0.381646
	C153	C	0.110601	0.675576	0.618214
	C154	C	0.880156	0.324148	0.618606
	C155	C	0.110631	0.324190	0.381958
	C156	C	0.880542	0.380788	0.676575
	C157	C	0.110378	0.619075	0.676614
	C158	C	0.880354	0.619255	0.324324
	C159	C	0.110243	0.381316	0.324148
	C160	C	0.377191	0.676445	0.886078
	C161	C	0.614355	0.675645	0.115819
	C162	C	0.614800	0.322546	0.886657
	C163	C	0.375870	0.322884	0.115471
	C164	C	0.672219	0.884233	0.382372
	C165	C	0.671160	0.114625	0.618608
	C166	C	0.319105	0.884306	0.619672
	C167	C	0.320202	0.114863	0.382847
	C168	C	0.875814	0.385065	0.177626
	C169	C	0.115565	0.614292	0.177296
	C170	C	0.113948	0.385001	0.824112
	C171	C	0.876083	0.614183	0.824015
	C172	C	0.172423	0.881482	0.385559
	C173	C	0.171706	0.118311	0.615680
	C174	C	0.819089	0.118450	0.385794
	C175	C	0.819301	0.881350	0.616052
	C176	C	0.380704	0.175053	0.882453
	C177	C	0.610631	0.175666	0.120031
	C178	C	0.380175	0.823603	0.119867
	C179	C	0.610918	0.823350	0.882173
	C180	C	0.380395	0.880437	0.177689
	C181	C	0.610504	0.118178	0.177390
	C182	C	0.381189	0.118266	0.824626
	C183	C	0.610965	0.880471	0.824318
	C184	C	0.876849	0.176397	0.385863
	C185	C	0.114235	0.176527	0.615593
	C186	C	0.114617	0.823733	0.385644
	C187	C	0.876132	0.822695	0.615726
	C188	C	0.170773	0.384896	0.882209
	C189	C	0.171335	0.614780	0.117759
	C190	C	0.819129	0.384748	0.118917
	C191	C	0.819344	0.614552	0.882572
	C192	C	0.396422	0.093843	0.601402
	C193	C	0.594923	0.905026	0.600763
	C194	C	0.595199	0.093675	0.400310
	C195	C	0.396467	0.905225	0.400823
	C196	C	0.594775	0.399400	0.095028
	C197	C	0.595081	0.600060	0.906899
	C198	C	0.394712	0.599821	0.094908
	C199	C	0.395577	0.398404	0.906662
	C200	C	0.090122	0.599680	0.400883
	C201	C	0.900552	0.598852	0.600439
	C202	C	0.090553	0.400483	0.600065
	C203	C	0.900410	0.400608	0.401252
	C204	C	0.895920	0.594230	0.101003
	C205	C	0.094239	0.405336	0.100873
	C206	C	0.095150	0.594515	0.899941
	C207	C	0.895341	0.404960	0.900106
	C208	C	0.095148	0.899836	0.594570
	C209	C	0.095963	0.100462	0.406683
	C210	C	0.895388	0.100434	0.594967
	C211	C	0.896101	0.900433	0.407151
	C212	C	0.590674	0.098784	0.901904
	C213	C	0.400770	0.098553	0.100513
	C214	C	0.590431	0.899547	0.100970
	C215	C	0.401168	0.900188	0.901396
	Zn216	Zn	0.495952	-0.000583	0.751515
	Zn217	Zn	0.495746	-0.000631	0.250435
	Zn218	Zn	0.745322	0.499793	0.000776
	Zn219	Zn	0.244780	0.499485	0.000204
	Zn220	Zn	-0.004788	0.749472	0.500519
	Zn221	Zn	-0.004383	0.250693	0.500498
	Zn222	Zn	-0.004435	0.499650	0.750130
	Zn223	Zn	-0.004870	0.500180	0.250935
	Zn224	Zn	0.495645	0.750243	0.001135
	Zn225	Zn	0.495601	0.248728	0.000875
	Zn226	Zn	0.745134	-0.000295	0.500882
	Zn227	Zn	0.246246	-0.000311	0.500916
	N228	N	0.409467	0.962577	0.680462
	N229	N	0.582460	0.035969	0.680516
	N230	N	0.581797	0.962076	0.321889
	N231	N	0.410136	0.036888	0.322380
	N232	N	0.673398	0.414290	0.963701
	N233	N	0.673682	0.584871	0.038195
	N234	N	0.317806	0.584272	0.962716
	N235	N	0.316555	0.413909	0.037864
	N236	N	0.957960	0.678216	0.414852
	N237	N	0.032730	0.676994	0.585115
	N238	N	0.958044	0.322622	0.585307
	N239	N	0.032782	0.322430	0.415568
	N240	N	0.958529	0.413926	0.678522
	N241	N	0.032399	0.585832	0.679160
	N242	N	0.958285	0.585808	0.322480
	N243	N	0.032427	0.414676	0.322764
	N244	N	0.409787	0.678784	0.963882
	N245	N	0.581064	0.678145	0.038415
	N246	N	0.581179	0.320498	0.964016
	N247	N	0.409504	0.320461	0.038145
	N248	N	0.673679	0.961845	0.415757
	N249	N	0.672283	0.037323	0.584871
	N250	N	0.317769	0.961720	0.586210
	N251	N	0.318671	0.037394	0.416327
	N252	N	0.908839	0.462911	0.179963
	N253	N	0.082019	0.536687	0.179990
	N254	N	0.080935	0.462890	0.821722
	N255	N	0.909184	0.536484	0.821677
	N256	N	0.174129	0.914727	0.463138
	N257	N	0.173947	0.085125	0.538242
	N258	N	0.817081	0.085189	0.463342
	N259	N	0.817936	0.915321	0.538987
	N260	N	0.458250	0.176541	0.916176
	N261	N	0.532806	0.177330	0.086523
	N262	N	0.457953	0.822051	0.086206
	N263	N	0.533144	0.821967	0.915842
	N264	N	0.458264	0.913745	0.179285
	N265	N	0.532865	0.084315	0.178501
	N266	N	0.459154	0.085290	0.822671
	N267	N	0.533090	0.913797	0.822461
	N268	N	0.910018	0.178645	0.463332
	N269	N	0.081221	0.178827	0.538072
	N270	N	0.080969	0.821708	0.463055
	N271	N	0.909305	0.820579	0.538041
	N272	N	0.172919	0.462591	0.914968
	N273	N	0.172066	0.537284	0.084257
	N274	N	0.817866	0.462251	0.085395
	N275	N	0.817468	0.536907	0.915812
	O276	O	1.076341	-0.003190	0.998704
	H277	H	1.074686	-0.005310	0.997101
	H278	H	1.081518	-0.008556	0.995655
	O279	O	0.528976	0.499494	0.518467
	H280	H	0.528030	0.495414	0.519331
	H281	H	0.532248	0.497258	0.518726
	O282	O	1.083447	1.000045	-0.025537
	H283	H	1.083325	0.996629	-0.026886
	H284	H	1.088378	1.001097	-0.027122
	O285	O	0.505017	0.502714	0.539151
	H286	H	0.508359	0.504098	0.539293
	H287	H	0.503098	0.501009	0.538222
