data_Molecule from HDF5

_cell_length_a		16.251312
_cell_length_b		16.273492
_cell_length_c		16.301560
_cell_angle_alpha	89.989086
_cell_angle_beta	89.993705
_cell_angle_gamma	90.017065
_symmetry_space_group_name_H-M	'P 1'
_symmetry_Int_Tables_number		1

loop_
	_symmetry_equiv_pos_as_xyz
	x,y,z

loop_
	_atom_site_label
	_atom_site_type_symbol
	_atom_site_fract_x
	_atom_site_fract_y
	_atom_site_fract_z
	H0	H	0.402189	0.836360	0.713681
	H1	H	0.597765	0.164084	0.712990
	H2	H	0.599670	0.836683	0.284674
	H3	H	0.402110	0.164054	0.287046
	H4	H	0.713860	0.402960	0.836249
	H5	H	0.713534	0.597873	0.163884
	H6	H	0.285853	0.597212	0.836524
	H7	H	0.287149	0.402945	0.164055
	H8	H	0.835902	0.713886	0.402967
	H9	H	0.165102	0.713484	0.596503
	H10	H	0.836279	0.285534	0.598481
	H11	H	0.164126	0.287184	0.402544
	H12	H	0.836095	0.401514	0.714109
	H13	H	0.164499	0.599152	0.714747
	H14	H	0.835566	0.598389	0.286418
	H15	H	0.163855	0.401445	0.285078
	H16	H	0.400613	0.715521	0.836744
	H17	H	0.596880	0.713961	0.163712
	H18	H	0.597018	0.286921	0.835478
	H19	H	0.402944	0.285725	0.163841
	H20	H	0.714305	0.835838	0.402452
	H21	H	0.714732	0.163777	0.598252
	H22	H	0.286110	0.835663	0.597437
	H23	H	0.286687	0.164034	0.403926
	H24	H	0.901305	0.336043	0.215000
	H25	H	0.097421	0.664107	0.213875
	H26	H	0.098460	0.335988	0.785673
	H27	H	0.901708	0.663451	0.785822
	H28	H	0.213456	0.903511	0.336263
	H29	H	0.213126	0.096647	0.664669
	H30	H	0.785795	0.098621	0.336580
	H31	H	0.786762	0.902589	0.663490
	H32	H	0.335046	0.212808	0.902388
	H33	H	0.664266	0.213926	0.096731
	H34	H	0.336001	0.786281	0.097449
	H35	H	0.664143	0.785947	0.901855
	H36	H	0.335922	0.901194	0.214085
	H37	H	0.664386	0.098347	0.214008
	H38	H	0.335552	0.097012	0.786049
	H39	H	0.664083	0.901484	0.785051
	H40	H	0.902000	0.214378	0.336605
	H41	H	0.099164	0.214583	0.663838
	H42	H	0.099182	0.785551	0.336338
	H43	H	0.901756	0.785825	0.663634
	H44	H	0.213643	0.335718	0.903241
	H45	H	0.214469	0.663952	0.098165
	H46	H	0.785292	0.336213	0.098655
	H47	H	0.787025	0.664328	0.902857
	H48	H	0.410071	0.115213	0.592209
	H49	H	0.596994	0.882021	0.591824
	H50	H	0.594062	0.117838	0.403864
	H51	H	0.412339	0.886521	0.413569
	H52	H	0.595852	0.403251	0.118506
	H53	H	0.595720	0.594766	0.882863
	H54	H	0.409085	0.589584	0.114578
	H55	H	0.408682	0.409784	0.884301
	H56	H	0.113951	0.587609	0.410265
	H57	H	0.884296	0.592601	0.591069
	H58	H	0.117323	0.408474	0.598306
	H59	H	0.881829	0.403905	0.405797
	H60	H	0.118197	0.401565	0.592279
	H61	H	0.883801	0.590817	0.595312
	H62	H	0.119066	0.592515	0.398766
	H63	H	0.883779	0.407017	0.408836
	H64	H	0.409378	0.598480	0.117451
	H65	H	0.592651	0.591602	0.884370
	H66	H	0.594596	0.410609	0.115990
	H67	H	0.407729	0.401381	0.883381
	H68	H	0.589794	0.115208	0.406778
	H69	H	0.590859	0.882731	0.597257
	H70	H	0.401622	0.117323	0.590538
	H71	H	0.397162	0.880344	0.407338
	H72	H	0.903767	0.619216	0.098900
	H73	H	0.094829	0.380610	0.101566
	H74	H	0.087241	0.613675	0.909240
	H75	H	0.898380	0.381758	0.910385
	H76	H	0.091947	0.910299	0.615469
	H77	H	0.098736	0.090024	0.382723
	H78	H	0.907974	0.092061	0.616044
	H79	H	0.910882	0.907447	0.385013
	H80	H	0.616161	0.098021	0.913690
	H81	H	0.385420	0.088371	0.088685
	H82	H	0.610711	0.917569	0.083581
	H83	H	0.382794	0.911005	0.901921
	H84	H	0.620378	0.909993	0.108341
	H85	H	0.382321	0.090947	0.100823
	H86	H	0.614660	0.086059	0.904905
	H87	H	0.381799	0.902322	0.905698
	H88	H	0.908187	0.095298	0.617359
	H89	H	0.087349	0.091798	0.386342
	H90	H	0.090187	0.902889	0.616573
	H91	H	0.906793	0.902642	0.381609
	H92	H	0.097886	0.617008	0.910541
	H93	H	0.084325	0.386931	0.091709
	H94	H	0.912935	0.615077	0.093945
	H95	H	0.908041	0.380612	0.897837
	H96	H	0.404977	0.118123	0.598793
	H97	H	0.590104	0.885387	0.589474
	H98	H	0.594948	0.116290	0.409206
	H99	H	0.411511	0.881611	0.396980
	H100	H	0.588951	0.405223	0.115306
	H101	H	0.591683	0.595836	0.883336
	H102	H	0.401271	0.593690	0.117506
	H103	H	0.401751	0.406519	0.882306
	H104	H	0.118019	0.600366	0.409435
	H105	H	0.883088	0.595401	0.594297
	H106	H	0.115448	0.409889	0.589307
	H107	H	0.883279	0.408434	0.404357
	H108	H	0.904206	0.615630	0.088395
	H109	H	0.099002	0.383382	0.087062
	H110	H	0.092368	0.617876	0.900778
	H111	H	0.913219	0.386884	0.911634
	H112	H	0.097576	0.905085	0.617945
	H113	H	0.094052	0.101253	0.382177
	H114	H	0.905109	0.093667	0.617142
	H115	H	0.903883	0.908851	0.383168
	H116	H	0.619720	0.098503	0.899118
	H117	H	0.381815	0.100777	0.091684
	H118	H	0.619029	0.891630	0.087510
	H119	H	0.385213	0.909380	0.911247
	C120	C	0.377701	0.008356	0.621913
	C121	C	0.621333	0.991671	0.620767
	C122	C	0.621660	0.008369	0.378239
	C123	C	0.378758	0.991488	0.378567
	C124	C	0.621376	0.378427	0.007957
	C125	C	0.621104	0.621778	0.991843
	C126	C	0.378029	0.621837	0.008527
	C127	C	0.378481	0.378276	0.991883
	C128	C	0.008445	0.621523	0.378332
	C129	C	0.992299	0.621160	0.621697
	C130	C	0.008507	0.378423	0.621491
	C131	C	0.991598	0.378571	0.378426
	C132	C	0.878408	0.508108	0.121952
	C133	C	0.121454	0.491604	0.121934
	C134	C	0.121512	0.507950	0.878369
	C135	C	0.878380	0.491755	0.878539
	C136	C	0.121562	0.878248	0.508321
	C137	C	0.121661	0.121781	0.491934
	C138	C	0.878920	0.121733	0.508505
	C139	C	0.878591	0.878339	0.491434
	C140	C	0.508152	0.121830	0.878097
	C141	C	0.491640	0.121970	0.121833
	C142	C	0.508320	0.878358	0.121321
	C143	C	0.491741	0.878922	0.878597
	C144	C	0.381120	0.884945	0.676212
	C145	C	0.618764	0.115109	0.675595
	C146	C	0.619610	0.885007	0.323110
	C147	C	0.381786	0.115149	0.324631
	C148	C	0.675818	0.381989	0.884731
	C149	C	0.675613	0.618425	0.115181
	C150	C	0.323652	0.618436	0.885114
	C151	C	0.324602	0.381769	0.115325
	C152	C	0.884831	0.676317	0.381449
	C153	C	0.115972	0.676246	0.618405
	C154	C	0.885156	0.323666	0.618628
	C155	C	0.115178	0.324576	0.381616
	C156	C	0.884904	0.381428	0.675928
	C157	C	0.115669	0.619323	0.676752
	C158	C	0.884777	0.618821	0.323757
	C159	C	0.115063	0.381699	0.323576
	C160	C	0.380283	0.677263	0.885439
	C161	C	0.618069	0.676288	0.114995
	C162	C	0.617936	0.324412	0.884491
	C163	C	0.381487	0.323285	0.115123
	C164	C	0.676588	0.884893	0.381577
	C165	C	0.676803	0.114924	0.618461
	C166	C	0.323496	0.884861	0.618612
	C167	C	0.324140	0.115053	0.382358
	C168	C	0.880879	0.384941	0.176931
	C169	C	0.118591	0.615106	0.176548
	C170	C	0.118847	0.384741	0.823631
	C171	C	0.880951	0.614654	0.823357
	C172	C	0.176297	0.881700	0.385023
	C173	C	0.175925	0.117882	0.615450
	C174	C	0.823919	0.119012	0.385233
	C175	C	0.824191	0.881623	0.614766
	C176	C	0.384160	0.175486	0.881650
	C177	C	0.615221	0.176571	0.118191
	C178	C	0.384827	0.823906	0.118411
	C179	C	0.615035	0.823424	0.881004
	C180	C	0.384922	0.881142	0.176253
	C181	C	0.615254	0.119063	0.176208
	C182	C	0.384299	0.117978	0.823952
	C183	C	0.615231	0.881206	0.823328
	C184	C	0.881782	0.176455	0.385371
	C185	C	0.119318	0.176616	0.615070
	C186	C	0.119335	0.823436	0.385292
	C187	C	0.881249	0.823457	0.614714
	C188	C	0.176229	0.384789	0.881750
	C189	C	0.176527	0.615131	0.119101
	C190	C	0.823683	0.384818	0.118993
	C191	C	0.824396	0.615121	0.882011
	C192	C	0.399163	0.094694	0.600265
	C193	C	0.599113	0.905724	0.599197
	C194	C	0.599479	0.094273	0.400144
	C195	C	0.400472	0.905029	0.399775
	C196	C	0.599663	0.399979	0.094157
	C197	C	0.599837	0.600330	0.905709
	C198	C	0.399986	0.600303	0.094394
	C199	C	0.399722	0.399598	0.905646
	C200	C	0.094763	0.600016	0.399852
	C201	C	0.906077	0.599397	0.599903
	C202	C	0.094855	0.400275	0.599729
	C203	C	0.905115	0.400070	0.400022
	C204	C	0.900335	0.594382	0.100149
	C205	C	0.099474	0.405821	0.100012
	C206	C	0.099097	0.593989	0.900381
	C207	C	0.900137	0.405233	0.900281
	C208	C	0.099750	0.899738	0.594424
	C209	C	0.099894	0.100418	0.405872
	C210	C	0.900610	0.099908	0.594464
	C211	C	0.900545	0.900050	0.405630
	C212	C	0.594632	0.100425	0.899488
	C213	C	0.405412	0.099782	0.100138
	C214	C	0.594574	0.900002	0.099391
	C215	C	0.405527	0.901075	0.900080
	Zn216	Zn	0.500268	-0.000120	0.749431
	Zn217	Zn	0.500075	-0.000341	0.249799
	Zn218	Zn	0.749977	0.500118	-0.000061
	Zn219	Zn	0.249948	0.500056	-0.000018
	Zn220	Zn	0.000092	0.749736	0.500119
	Zn221	Zn	0.000453	0.250125	0.500174
	Zn222	Zn	-0.000097	0.499683	0.749872
	Zn223	Zn	-0.000452	0.499880	0.250191
	Zn224	Zn	0.499957	0.750049	-0.000163
	Zn225	Zn	0.499524	0.249965	-0.000307
	Zn226	Zn	0.750285	0.000147	0.499773
	Zn227	Zn	0.250012	-0.000279	0.500219
	N228	N	0.414148	0.962734	0.678240
	N229	N	0.584726	0.037604	0.677059
	N230	N	0.585952	0.962548	0.321165
	N231	N	0.415025	0.037391	0.322166
	N232	N	0.677878	0.414822	0.962430
	N233	N	0.677684	0.585279	0.037564
	N234	N	0.322029	0.585029	0.962448
	N235	N	0.322529	0.415110	0.037747
	N236	N	0.962568	0.677992	0.414914
	N237	N	0.038365	0.677437	0.584793
	N238	N	0.963045	0.321764	0.585423
	N239	N	0.037444	0.322485	0.414918
	N240	N	0.962710	0.414708	0.677830
	N241	N	0.037903	0.585879	0.678875
	N242	N	0.962614	0.585544	0.321801
	N243	N	0.037194	0.414637	0.321647
	N244	N	0.413547	0.679399	0.963095
	N245	N	0.584884	0.678291	0.037421
	N246	N	0.584793	0.322056	0.962144
	N247	N	0.414289	0.321043	0.037388
	N248	N	0.677900	0.962458	0.415249
	N249	N	0.678544	0.037207	0.585160
	N250	N	0.321313	0.962626	0.585620
	N251	N	0.322183	0.037136	0.415226
	N252	N	0.914206	0.462570	0.178793
	N253	N	0.085154	0.537508	0.178362
	N254	N	0.085452	0.462377	0.821628
	N255	N	0.913796	0.536757	0.821198
	N256	N	0.177631	0.915138	0.462561
	N257	N	0.177870	0.084736	0.537795
	N258	N	0.822074	0.085541	0.462810
	N259	N	0.822429	0.915088	0.537241
	N260	N	0.462172	0.178075	0.914502
	N261	N	0.537389	0.178388	0.084980
	N262	N	0.462405	0.822209	0.084911
	N263	N	0.537353	0.822032	0.914632
	N264	N	0.462702	0.914478	0.177967
	N265	N	0.537447	0.085858	0.178609
	N266	N	0.462293	0.085146	0.821682
	N267	N	0.537578	0.914898	0.821630
	N268	N	0.915050	0.178065	0.462966
	N269	N	0.086187	0.178952	0.537421
	N270	N	0.085924	0.821250	0.462806
	N271	N	0.914454	0.821296	0.537195
	N272	N	0.177844	0.462342	0.915190
	N273	N	0.178380	0.537497	0.085580
	N274	N	0.821898	0.462509	0.085580
	N275	N	0.822921	0.537602	0.915649
