data_Molecule from HDF5

_cell_length_a		16.228692
_cell_length_b		16.202394
_cell_length_c		16.244202
_cell_angle_alpha	90.421717
_cell_angle_beta	90.282449
_cell_angle_gamma	89.960130
_symmetry_space_group_name_H-M	'P 1'
_symmetry_Int_Tables_number		1

loop_
	_symmetry_equiv_pos_as_xyz
	x,y,z

loop_
	_atom_site_label
	_atom_site_type_symbol
	_atom_site_fract_x
	_atom_site_fract_y
	_atom_site_fract_z
	H0	H	0.401563	0.832575	0.703635
	H1	H	0.600162	0.160605	0.708450
	H2	H	0.600108	0.833056	0.274564
	H3	H	0.402530	0.161657	0.277754
	H4	H	0.712346	0.395355	0.826064
	H5	H	0.717586	0.596687	0.153537
	H6	H	0.284574	0.593565	0.826865
	H7	H	0.284613	0.396807	0.153600
	H8	H	0.837105	0.709896	0.390737
	H9	H	0.166142	0.710557	0.589882
	H10	H	0.837181	0.283256	0.585249
	H11	H	0.165662	0.281102	0.390155
	H12	H	0.837116	0.397244	0.700787
	H13	H	0.165019	0.597048	0.707621
	H14	H	0.836581	0.593639	0.275693
	H15	H	0.164991	0.396399	0.275025
	H16	H	0.399892	0.709443	0.826744
	H17	H	0.598861	0.710250	0.155017
	H18	H	0.599199	0.278875	0.828457
	H19	H	0.404367	0.285019	0.156119
	H20	H	0.715445	0.832458	0.390503
	H21	H	0.715490	0.161081	0.591897
	H22	H	0.287708	0.832086	0.587676
	H23	H	0.286797	0.161481	0.392674
	H24	H	0.902585	0.331479	0.201674
	H25	H	0.100840	0.659938	0.205769
	H26	H	0.098958	0.332494	0.773510
	H27	H	0.900253	0.659753	0.774811
	H28	H	0.215797	0.896208	0.326777
	H29	H	0.216167	0.096729	0.653949
	H30	H	0.783750	0.094479	0.326709
	H31	H	0.787452	0.898003	0.653773
	H32	H	0.336182	0.208356	0.895190
	H33	H	0.665085	0.211163	0.091848
	H34	H	0.335842	0.784131	0.087114
	H35	H	0.664255	0.780874	0.892479
	H36	H	0.336203	0.899030	0.202982
	H37	H	0.665143	0.096663	0.207056
	H38	H	0.336690	0.094621	0.777009
	H39	H	0.664918	0.896222	0.777685
	H40	H	0.902667	0.207614	0.324217
	H41	H	0.101595	0.213273	0.653176
	H42	H	0.099696	0.780689	0.326168
	H43	H	0.904235	0.783856	0.654358
	H44	H	0.214281	0.331470	0.889406
	H45	H	0.214686	0.660476	0.089528
	H46	H	0.787747	0.331574	0.085736
	H47	H	0.785260	0.659763	0.890995
	H48	H	0.404217	0.115784	0.585589
	H49	H	0.586834	0.882108	0.584707
	H50	H	0.590379	0.114382	0.396847
	H51	H	0.411383	0.879460	0.391264
	H52	H	0.593444	0.400020	0.109053
	H53	H	0.598698	0.583318	0.872753
	H54	H	0.406506	0.587812	0.107413
	H55	H	0.407937	0.405053	0.874951
	H56	H	0.121118	0.592105	0.391267
	H57	H	0.883497	0.589311	0.586037
	H58	H	0.116476	0.410565	0.580103
	H59	H	0.879803	0.403481	0.381523
	H60	H	0.120819	0.403384	0.589433
	H61	H	0.884045	0.593376	0.580198
	H62	H	0.117745	0.591786	0.404599
	H63	H	0.882718	0.390646	0.400094
	H64	H	0.409443	0.590765	0.107042
	H65	H	0.585777	0.585475	0.875958
	H66	H	0.601175	0.406487	0.109071
	H67	H	0.409568	0.399055	0.873074
	H68	H	0.591816	0.112590	0.403854
	H69	H	0.598677	0.879958	0.576213
	H70	H	0.411257	0.114720	0.589153
	H71	H	0.410002	0.881843	0.400531
	H72	H	0.912465	0.614446	0.090693
	H73	H	0.103014	0.376896	0.078884
	H74	H	0.087587	0.612367	0.895738
	H75	H	0.914147	0.379691	0.892418
	H76	H	0.099997	0.912508	0.606034
	H77	H	0.089405	0.089480	0.374010
	H78	H	0.913372	0.090231	0.605458
	H79	H	0.911919	0.903542	0.374967
	H80	H	0.614558	0.076182	0.899624
	H81	H	0.384510	0.084107	0.090324
	H82	H	0.617297	0.905477	0.086146
	H83	H	0.382655	0.899730	0.899506
	H84	H	0.618210	0.900259	0.083077
	H85	H	0.380032	0.098926	0.088057
	H86	H	0.623000	0.093319	0.890521
	H87	H	0.384855	0.906266	0.898017
	H88	H	0.908017	0.094822	0.608082
	H89	H	0.097463	0.092021	0.370418
	H90	H	0.085992	0.903165	0.604847
	H91	H	0.906153	0.899398	0.371696
	H92	H	0.093042	0.611596	0.904264
	H93	H	0.091882	0.376356	0.091911
	H94	H	0.912767	0.609692	0.076303
	H95	H	0.903875	0.379407	0.900192
	H96	H	0.410722	0.112852	0.580960
	H97	H	0.598735	0.876130	0.590633
	H98	H	0.597052	0.115329	0.399278
	H99	H	0.403579	0.877528	0.394969
	H100	H	0.591943	0.410032	0.105962
	H101	H	0.593082	0.595783	0.871067
	H102	H	0.405493	0.591738	0.108507
	H103	H	0.403039	0.400747	0.872636
	H104	H	0.116534	0.580806	0.396539
	H105	H	0.886965	0.586280	0.579936
	H106	H	0.119916	0.398365	0.577418
	H107	H	0.888546	0.412305	0.400864
	H108	H	0.899015	0.615938	0.082271
	H109	H	0.086510	0.381675	0.075822
	H110	H	0.097478	0.615404	0.895914
	H111	H	0.902303	0.375510	0.888781
	H112	H	0.100786	0.896157	0.611469
	H113	H	0.096617	0.083493	0.373734
	H114	H	0.906407	0.087793	0.606527
	H115	H	0.905347	0.907276	0.373293
	H116	H	0.616153	0.093851	0.910230
	H117	H	0.386264	0.091265	0.076680
	H118	H	0.616832	0.905706	0.080828
	H119	H	0.382122	0.902109	0.892297
	C120	C	0.379933	0.005595	0.612670
	C121	C	0.623200	0.988158	0.613640
	C122	C	0.622028	0.005499	0.369805
	C123	C	0.379345	0.988317	0.368246
	C124	C	0.623032	0.374959	-0.000439
	C125	C	0.622180	0.617882	0.981618
	C126	C	0.378040	0.617887	-0.000596
	C127	C	0.378746	0.374183	0.982283
	C128	C	0.009677	0.616935	0.368645
	C129	C	0.993284	0.618839	0.612130
	C130	C	0.010227	0.375521	0.609813
	C131	C	0.992427	0.373429	0.366224
	C132	C	0.879905	0.504627	0.110373
	C133	C	0.122609	0.487060	0.111342
	C134	C	0.121516	0.504664	0.868522
	C135	C	0.878089	0.486697	0.866220
	C136	C	0.123437	0.874807	0.499027
	C137	C	0.123014	0.118102	0.481247
	C138	C	0.879537	0.118720	0.498186
	C139	C	0.880081	0.875322	0.481582
	C140	C	0.509313	0.116673	0.871174
	C141	C	0.492487	0.119305	0.113686
	C142	C	0.509049	0.875538	0.111617
	C143	C	0.491537	0.873644	0.868414
	C144	C	0.382027	0.881533	0.666032
	C145	C	0.620714	0.111643	0.669984
	C146	C	0.620345	0.881964	0.312868
	C147	C	0.381827	0.112437	0.314595
	C148	C	0.676180	0.375513	0.875788
	C149	C	0.678932	0.616658	0.104817
	C150	C	0.322384	0.614549	0.875726
	C151	C	0.323728	0.377344	0.105309
	C152	C	0.886056	0.672107	0.370655
	C153	C	0.116814	0.673484	0.610418
	C154	C	0.886427	0.320650	0.605864
	C155	C	0.116284	0.318658	0.369509
	C156	C	0.886386	0.377379	0.663612
	C157	C	0.116222	0.616851	0.668795
	C158	C	0.885966	0.614413	0.313288
	C159	C	0.116007	0.375808	0.312227
	C160	C	0.379789	0.672066	0.875922
	C161	C	0.619880	0.672907	0.105605
	C162	C	0.619607	0.317727	0.876890
	C163	C	0.382831	0.321394	0.106494
	C164	C	0.677572	0.881509	0.370666
	C165	C	0.677784	0.112008	0.611903
	C166	C	0.325209	0.881528	0.608408
	C167	C	0.324415	0.112418	0.371878
	C168	C	0.882451	0.380613	0.164271
	C169	C	0.120811	0.610865	0.167681
	C170	C	0.119418	0.381200	0.812027
	C171	C	0.880170	0.610772	0.812508
	C172	C	0.177773	0.876334	0.375406
	C173	C	0.178289	0.116799	0.604877
	C174	C	0.822588	0.115133	0.375204
	C175	C	0.825349	0.877747	0.604983
	C176	C	0.385515	0.171357	0.873906
	C177	C	0.616108	0.173780	0.112321
	C178	C	0.385171	0.821504	0.108032
	C179	C	0.615179	0.818257	0.871617
	C180	C	0.385295	0.878648	0.165678
	C181	C	0.616063	0.116625	0.169384
	C182	C	0.385612	0.114592	0.815357
	C183	C	0.615468	0.875380	0.814186
	C184	C	0.881545	0.171624	0.374112
	C185	C	0.121301	0.174624	0.604325
	C186	C	0.120437	0.818635	0.375343
	C187	C	0.883358	0.820815	0.605045
	C188	C	0.176550	0.380912	0.869754
	C189	C	0.177318	0.611141	0.110002
	C190	C	0.825036	0.380655	0.106984
	C191	C	0.822985	0.610637	0.870171
	C192	C	0.402160	0.092031	0.591575
	C193	C	0.601213	0.901715	0.590724
	C194	C	0.599679	0.091695	0.393129
	C195	C	0.401600	0.901975	0.389394
	C196	C	0.601741	0.398445	0.085959
	C197	C	0.599296	0.594932	0.895526
	C198	C	0.400468	0.596339	0.085448
	C199	C	0.400345	0.395214	0.895894
	C200	C	0.096192	0.594658	0.391126
	C201	C	0.907066	0.596294	0.589101
	C202	C	0.096689	0.397673	0.588741
	C203	C	0.906057	0.395707	0.387746
	C204	C	0.901578	0.590856	0.089296
	C205	C	0.100335	0.400734	0.088798
	C206	C	0.099076	0.590980	0.891684
	C207	C	0.900337	0.400446	0.887281
	C208	C	0.102083	0.897291	0.585159
	C209	C	0.100771	0.094941	0.394929
	C210	C	0.902445	0.097207	0.584349
	C211	C	0.901453	0.896995	0.395554
	C212	C	0.595619	0.094407	0.893626
	C213	C	0.405959	0.097833	0.091469
	C214	C	0.595229	0.897397	0.089861
	C215	C	0.405454	0.896275	0.889989
	Zn216	Zn	0.500950	-0.004167	0.741142
	Zn217	Zn	0.500813	-0.002881	0.240418
	Zn218	Zn	0.750928	0.496050	-0.010681
	Zn219	Zn	0.249773	0.496002	-0.009757
	Zn220	Zn	0.001718	0.746258	0.489920
	Zn221	Zn	0.001747	0.246860	0.488523
	Zn222	Zn	0.000816	0.496294	0.739295
	Zn223	Zn	0.001117	0.496123	0.239061
	Zn224	Zn	0.500015	0.746166	-0.009258
	Zn225	Zn	0.501416	0.246645	-0.007704
	Zn226	Zn	0.750774	-0.003551	0.491008
	Zn227	Zn	0.251890	-0.003301	0.490174
	N228	N	0.415256	0.959592	0.668808
	N229	N	0.587367	0.033624	0.670884
	N230	N	0.586501	0.959914	0.312205
	N231	N	0.415453	0.034354	0.312405
	N232	N	0.678187	0.410643	0.953064
	N233	N	0.680316	0.582917	0.026921
	N234	N	0.321126	0.581460	0.953449
	N235	N	0.321129	0.409583	0.027149
	N236	N	0.964051	0.673722	0.404421
	N237	N	0.039296	0.674752	0.575882
	N238	N	0.964375	0.319448	0.573141
	N239	N	0.038406	0.317152	0.402504
	N240	N	0.964319	0.410965	0.666232
	N241	N	0.038131	0.583591	0.669882
	N242	N	0.963872	0.580811	0.312027
	N243	N	0.038131	0.409210	0.309909
	N244	N	0.413698	0.674289	0.953695
	N245	N	0.585394	0.673873	0.027987
	N246	N	0.587186	0.317466	0.954950
	N247	N	0.416420	0.319390	0.028943
	N248	N	0.678538	0.959200	0.405392
	N249	N	0.679559	0.034071	0.577565
	N250	N	0.323669	0.959714	0.575755
	N251	N	0.322810	0.034324	0.404444
	N252	N	0.915843	0.458606	0.166579
	N253	N	0.087273	0.532858	0.168553
	N254	N	0.085812	0.459178	0.811202
	N255	N	0.913622	0.532705	0.809816
	N256	N	0.179856	0.910389	0.453285
	N257	N	0.179471	0.082213	0.527330
	N258	N	0.821258	0.083011	0.453536
	N259	N	0.823259	0.911191	0.527449
	N260	N	0.463218	0.172636	0.908048
	N261	N	0.538357	0.175520	0.078429
	N262	N	0.463035	0.819368	0.075341
	N263	N	0.537228	0.817008	0.904704
	N264	N	0.463308	0.911616	0.168104
	N265	N	0.537985	0.083490	0.170476
	N266	N	0.463725	0.081307	0.813470
	N267	N	0.537685	0.909181	0.812053
	N268	N	0.916322	0.173796	0.451463
	N269	N	0.087726	0.175510	0.526262
	N270	N	0.087277	0.817713	0.453081
	N271	N	0.916549	0.818985	0.527257
	N272	N	0.177786	0.458736	0.904171
	N273	N	0.178636	0.533288	0.075705
	N274	N	0.823407	0.458566	0.073956
	N275	N	0.821599	0.532530	0.902856
	O276	O	0.989620	0.974174	-0.014661
	H277	H	1.003394	0.971264	-0.012317
	H278	H	0.992706	0.982045	-0.016447
	O279	O	0.502611	-0.491882	1.489168
	H280	H	0.509086	-0.481881	1.489923
	H281	H	0.508210	-0.502418	1.494460
	O282	O	-0.034896	-0.033793	-0.073654
	H283	H	-0.030739	-0.037757	-0.074534
	H284	H	-0.032626	-0.037832	-0.070768
	O285	O	0.523056	0.542490	0.444315
	H286	H	0.516769	0.551709	0.443651
	H287	H	0.515268	0.545886	0.442070
	O288	O	0.042617	-0.052103	0.077951
	H289	H	0.043094	-0.048008	0.077848
	H290	H	0.044538	-0.054742	0.080327
	O291	O	0.008790	1.015934	0.051642
	H292	H	0.012570	1.031858	0.058645
	H293	H	0.012003	1.017067	0.055480
	O294	O	0.001549	1.041306	-0.080803
	H295	H	0.006584	1.042519	-0.093363
	H296	H	-0.006460	1.042236	-0.079339
	O297	O	0.500000	0.511946	0.504000
	H298	H	0.504162	0.500502	0.506508
	H299	H	0.505756	0.516173	0.504123
	O300	O	0.500414	0.484554	0.505110
	H301	H	0.491861	0.502113	0.509878
	H302	H	0.509127	0.482490	0.519411
	O303	O	0.987220	-0.040178	0.884068
	H304	H	0.985620	-0.048001	0.885131
	H305	H	0.972458	-0.042682	0.880492
	O306	O	0.062591	0.956875	0.974504
	H307	H	0.063866	0.952984	0.981119
	H308	H	0.067452	0.955570	0.972379
	O309	O	0.004460	0.918067	0.902536
	H310	H	-0.001541	0.914884	0.897829
	H311	H	-0.001480	0.921337	0.907153
	O312	O	0.021341	0.075941	1.049399
	H313	H	0.026186	0.075144	1.045010
	H314	H	0.027966	0.078346	1.047808
	O315	O	0.537713	0.496748	0.464232
	H316	H	0.522696	0.506265	0.457177
	H317	H	0.544982	0.487821	0.465721
	O318	O	-0.072588	0.011777	1.078564
	H319	H	-0.069527	0.010824	1.077072
	H320	H	-0.068498	0.014398	1.086945
	O321	O	-0.014012	1.041090	0.969984
	H322	H	-0.019878	1.039296	0.971329
	H323	H	-0.007242	1.046662	0.961903
	O324	O	1.021200	0.071709	0.997358
	H325	H	1.016427	0.066884	0.994345
	H326	H	1.021945	0.068585	0.993180
	O327	O	1.065860	1.021291	0.940792
	H328	H	1.076417	1.015692	0.937471
	H329	H	1.058494	1.028129	0.939577
	O330	O	0.553688	0.510899	0.459000
	H331	H	0.555147	0.512311	0.449080
	H332	H	0.560825	0.502247	0.453173
	O333	O	0.513909	0.505836	0.506848
	H334	H	0.515404	0.511174	0.509163
	H335	H	0.530103	0.510371	0.508176
	O336	O	0.555098	0.510419	0.473380
	H337	H	0.558333	0.509779	0.479723
	H338	H	0.543010	0.511388	0.471091
	O339	O	0.585552	0.531093	0.527940
	H340	H	0.594601	0.533581	0.528510
	H341	H	0.588651	0.524809	0.518862
	O342	O	0.512912	0.537770	0.463482
	H343	H	0.512180	0.530712	0.461159
	H344	H	0.515358	0.533373	0.464277
	O345	O	0.511574	0.576721	0.484258
	H346	H	0.510117	0.568774	0.477064
	H347	H	0.506276	0.585696	0.484293
