data_Molecule from HDF5

_cell_length_a		15.973074
_cell_length_b		16.466676
_cell_length_c		16.238819
_cell_angle_alpha	89.952961
_cell_angle_beta	90.366715
_cell_angle_gamma	89.941947
_symmetry_space_group_name_H-M	'P 1'
_symmetry_Int_Tables_number		1

loop_
	_symmetry_equiv_pos_as_xyz
	x,y,z

loop_
	_atom_site_label
	_atom_site_type_symbol
	_atom_site_fract_x
	_atom_site_fract_y
	_atom_site_fract_z
	H0	H	0.401907	0.834949	0.704923
	H1	H	0.604536	0.158742	0.705479
	H2	H	0.605711	0.836309	0.269710
	H3	H	0.402527	0.158126	0.269649
	H4	H	0.713098	0.400352	0.822495
	H5	H	0.715368	0.591819	0.153201
	H6	H	0.289773	0.589921	0.823626
	H7	H	0.295027	0.402243	0.154481
	H8	H	0.839282	0.712310	0.386190
	H9	H	0.168439	0.710954	0.594038
	H10	H	0.837909	0.279778	0.589884
	H11	H	0.168667	0.281281	0.389937
	H12	H	0.836078	0.397992	0.699395
	H13	H	0.169756	0.591915	0.702156
	H14	H	0.837584	0.594172	0.276071
	H15	H	0.170794	0.400267	0.280216
	H16	H	0.395869	0.712641	0.826142
	H17	H	0.608414	0.715282	0.148941
	H18	H	0.602159	0.279393	0.824739
	H19	H	0.398911	0.277703	0.150438
	H20	H	0.716791	0.833769	0.391608
	H21	H	0.717323	0.160235	0.583796
	H22	H	0.293572	0.832040	0.581337
	H23	H	0.288978	0.159174	0.389589
	H24	H	0.901117	0.334600	0.206867
	H25	H	0.104673	0.657505	0.207720
	H26	H	0.103629	0.333921	0.772400
	H27	H	0.899343	0.656640	0.768855
	H28	H	0.212673	0.902245	0.322302
	H29	H	0.216745	0.090126	0.653498
	H30	H	0.792807	0.090800	0.322672
	H31	H	0.792494	0.901049	0.653699
	H32	H	0.336164	0.210738	0.885728
	H33	H	0.666670	0.212367	0.090434
	H34	H	0.337034	0.781730	0.087213
	H35	H	0.667267	0.778285	0.885016
	H36	H	0.336679	0.897951	0.199905
	H37	H	0.669233	0.094075	0.199296
	H38	H	0.335300	0.092066	0.775290
	H39	H	0.669649	0.899435	0.777507
	H40	H	0.898124	0.215106	0.326979
	H41	H	0.106986	0.211767	0.651916
	H42	H	0.108585	0.776058	0.327444
	H43	H	0.901950	0.778809	0.651691
	H44	H	0.214087	0.332063	0.895169
	H45	H	0.217779	0.658828	0.086671
	H46	H	0.789882	0.333214	0.084144
	H47	H	0.787326	0.658657	0.889511
	H48	H	0.406060	0.110500	0.573857
	H49	H	0.597888	0.882974	0.576854
	H50	H	0.605703	0.115712	0.391003
	H51	H	0.413443	0.884470	0.402244
	H52	H	0.594446	0.402928	0.104491
	H53	H	0.595950	0.582342	0.871849
	H54	H	0.410539	0.595709	0.108291
	H55	H	0.401377	0.401542	0.868278
	H56	H	0.121655	0.586036	0.402049
	H57	H	0.887557	0.583804	0.572912
	H58	H	0.124536	0.400570	0.586170
	H59	H	0.885377	0.404388	0.403543
	H60	H	0.121592	0.398887	0.577924
	H61	H	0.882780	0.586208	0.586115
	H62	H	0.122933	0.587020	0.397560
	H63	H	0.884226	0.408477	0.394435
	H64	H	0.409072	0.586471	0.105333
	H65	H	0.584899	0.588630	0.873688
	H66	H	0.592342	0.400276	0.104487
	H67	H	0.413385	0.406885	0.873994
	H68	H	0.591529	0.113937	0.385130
	H69	H	0.601208	0.880467	0.585569
	H70	H	0.407213	0.115441	0.589395
	H71	H	0.400455	0.877001	0.389469
	H72	H	0.909011	0.613314	0.088718
	H73	H	0.094748	0.381198	0.085606
	H74	H	0.094791	0.609046	0.902330
	H75	H	0.914891	0.376788	0.875282
	H76	H	0.091255	0.897820	0.605335
	H77	H	0.099124	0.092709	0.369021
	H78	H	0.907829	0.078986	0.604450
	H79	H	0.918240	0.904409	0.374883
	H80	H	0.621127	0.091842	0.899727
	H81	H	0.385033	0.090706	0.069869
	H82	H	0.621605	0.902995	0.078933
	H83	H	0.385558	0.910440	0.893372
	H84	H	0.620720	0.902316	0.076430
	H85	H	0.384450	0.080391	0.079788
	H86	H	0.620155	0.086061	0.896861
	H87	H	0.380435	0.898348	0.889453
	H88	H	0.924857	0.091472	0.602852
	H89	H	0.092099	0.085151	0.373549
	H90	H	0.101916	0.898379	0.608622
	H91	H	0.913573	0.894460	0.369557
	H92	H	0.100810	0.612785	0.891297
	H93	H	0.098852	0.380353	0.084015
	H94	H	0.917640	0.608996	0.083101
	H95	H	0.923050	0.388280	0.905795
	H96	H	0.420458	0.109329	0.581493
	H97	H	0.591889	0.883221	0.584797
	H98	H	0.593529	0.109693	0.399031
	H99	H	0.419179	0.881464	0.383903
	H100	H	0.595734	0.400041	0.105567
	H101	H	0.594358	0.594330	0.868395
	H102	H	0.418357	0.590029	0.104037
	H103	H	0.412995	0.393209	0.869429
	H104	H	0.123553	0.589860	0.400244
	H105	H	0.882703	0.596079	0.576369
	H106	H	0.121008	0.406957	0.580345
	H107	H	0.882405	0.399100	0.396055
	H108	H	0.908407	0.610323	0.078110
	H109	H	0.098582	0.379238	0.088511
	H110	H	0.087662	0.609427	0.890822
	H111	H	0.892122	0.377097	0.899034
	H112	H	0.097224	0.907145	0.604162
	H113	H	0.088890	0.095767	0.371788
	H114	H	0.906893	0.099313	0.610311
	H115	H	0.905915	0.904674	0.371316
	H116	H	0.623106	0.090856	0.893241
	H117	H	0.379757	0.093476	0.082860
	H118	H	0.620775	0.904651	0.077321
	H119	H	0.384093	0.899534	0.903131
	C120	C	0.382296	0.004310	0.609292
	C121	C	0.626041	0.988973	0.610849
	C122	C	0.626245	0.006051	0.364146
	C123	C	0.380910	0.988011	0.363452
	C124	C	0.623457	0.373251	-0.003559
	C125	C	0.623190	0.617370	0.979092
	C126	C	0.381470	0.618062	-0.002635
	C127	C	0.381218	0.373495	0.979507
	C128	C	0.013083	0.616810	0.369284
	C129	C	0.994299	0.616614	0.609177
	C130	C	0.012365	0.373998	0.609940
	C131	C	0.993920	0.375051	0.369230
	C132	C	0.881970	0.504032	0.111540
	C133	C	0.126318	0.487559	0.113461
	C134	C	0.123699	0.503485	0.867111
	C135	C	0.879638	0.487585	0.864447
	C136	C	0.125512	0.873423	0.497581
	C137	C	0.124396	0.118226	0.479881
	C138	C	0.882607	0.118143	0.497603
	C139	C	0.882784	0.873583	0.480177
	C140	C	0.511034	0.117072	0.867242
	C141	C	0.492976	0.116862	0.107601
	C142	C	0.511561	0.874805	0.107375
	C143	C	0.493517	0.874140	0.866528
	C144	C	0.383489	0.882654	0.665199
	C145	C	0.624173	0.110629	0.666640
	C146	C	0.625008	0.884159	0.308724
	C147	C	0.382406	0.109713	0.307865
	C148	C	0.677069	0.378232	0.872365
	C149	C	0.678837	0.613688	0.103191
	C150	C	0.325733	0.612760	0.873530
	C151	C	0.329487	0.379355	0.104365
	C152	C	0.888373	0.673391	0.368176
	C153	C	0.119153	0.672289	0.611348
	C154	C	0.887337	0.318220	0.608801
	C155	C	0.119069	0.319368	0.370354
	C156	C	0.886386	0.376936	0.663361
	C157	C	0.119767	0.613222	0.665422
	C158	C	0.887614	0.614734	0.313245
	C159	C	0.120240	0.378517	0.315895
	C160	C	0.378790	0.673688	0.874657
	C161	C	0.625479	0.675016	0.101170
	C162	C	0.621770	0.318077	0.873235
	C163	C	0.381402	0.317460	0.102286
	C164	C	0.680241	0.883132	0.369408
	C165	C	0.680243	0.111454	0.606099
	C166	C	0.329387	0.881250	0.603983
	C167	C	0.325884	0.110222	0.367672
	C168	C	0.882546	0.382670	0.167433
	C169	C	0.124606	0.609351	0.169049
	C170	C	0.122119	0.381720	0.811942
	C171	C	0.880105	0.608681	0.808014
	C172	C	0.177550	0.879096	0.372549
	C173	C	0.180422	0.112975	0.603763
	C174	C	0.828483	0.113372	0.372756
	C175	C	0.828540	0.878469	0.604073
	C176	C	0.385733	0.172039	0.867387
	C177	C	0.617842	0.173205	0.108111
	C178	C	0.386889	0.819476	0.106629
	C179	C	0.617998	0.817401	0.866876
	C180	C	0.386655	0.877519	0.162749
	C181	C	0.619064	0.114434	0.162244
	C182	C	0.385236	0.113171	0.812638
	C183	C	0.619166	0.877655	0.813076
	C184	C	0.880558	0.175332	0.374949
	C185	C	0.125848	0.173492	0.603011
	C186	C	0.125708	0.816505	0.375334
	C187	C	0.883177	0.817857	0.603167
	C188	C	0.177791	0.380844	0.872394
	C189	C	0.180672	0.610050	0.108866
	C190	C	0.827207	0.381813	0.106274
	C191	C	0.824594	0.609888	0.868343
	C192	C	0.404634	0.089748	0.587974
	C193	C	0.603724	0.904067	0.589033
	C194	C	0.603700	0.091089	0.385243
	C195	C	0.404222	0.903057	0.385360
	C196	C	0.600849	0.394636	0.082532
	C197	C	0.598959	0.594972	0.893479
	C198	C	0.405616	0.596944	0.083600
	C199	C	0.402833	0.394400	0.892975
	C200	C	0.100111	0.594331	0.393046
	C201	C	0.906974	0.595128	0.585345
	C202	C	0.099827	0.395768	0.588052
	C203	C	0.906639	0.397443	0.391306
	C204	C	0.904915	0.589153	0.089842
	C205	C	0.104087	0.402298	0.092299
	C206	C	0.101083	0.588380	0.888488
	C207	C	0.903174	0.402546	0.886767
	C208	C	0.103545	0.894891	0.583711
	C209	C	0.100521	0.097235	0.393724
	C210	C	0.906090	0.096320	0.583572
	C211	C	0.905829	0.894939	0.394084
	C212	C	0.598919	0.095760	0.889978
	C213	C	0.405703	0.094753	0.084356
	C214	C	0.598712	0.896883	0.084334
	C215	C	0.405919	0.896162	0.888875
	Zn216	Zn	0.502546	-0.003800	0.740031
	Zn217	Zn	0.503655	-0.003237	0.234204
	Zn218	Zn	0.752085	0.496071	-0.011603
	Zn219	Zn	0.254374	0.495802	-0.010279
	Zn220	Zn	0.004122	0.744073	0.489481
	Zn221	Zn	0.002803	0.247074	0.489352
	Zn222	Zn	0.002481	0.495641	0.735694
	Zn223	Zn	0.003651	0.495839	0.242347
	Zn224	Zn	0.502131	0.746172	-0.012703
	Zn225	Zn	0.501419	0.244337	-0.011798
	Zn226	Zn	0.755012	-0.003067	0.487920
	Zn227	Zn	0.252703	-0.004021	0.487485
	N228	N	0.415743	0.960030	0.668413
	N229	N	0.591035	0.033446	0.669724
	N230	N	0.592035	0.961398	0.305424
	N231	N	0.415736	0.032551	0.305075
	N232	N	0.678278	0.411953	0.949958
	N233	N	0.677518	0.578594	0.026253
	N234	N	0.327300	0.578724	0.950914
	N235	N	0.329245	0.413700	0.027035
	N236	N	0.967353	0.674712	0.402222
	N237	N	0.040106	0.674258	0.576983
	N238	N	0.966711	0.316230	0.576424
	N239	N	0.039742	0.317270	0.402831
	N240	N	0.964954	0.411181	0.664070
	N241	N	0.041150	0.579396	0.664353
	N242	N	0.966030	0.580176	0.313693
	N243	N	0.041355	0.412232	0.314752
	N244	N	0.412664	0.677115	0.952878
	N245	N	0.591553	0.677486	0.022989
	N246	N	0.589340	0.314752	0.951573
	N247	N	0.412748	0.313581	0.023642
	N248	N	0.681359	0.959707	0.403166
	N249	N	0.681532	0.034931	0.572282
	N250	N	0.328656	0.957860	0.569650
	N251	N	0.324708	0.033537	0.401378
	N252	N	0.915954	0.459772	0.170714
	N253	N	0.091462	0.532321	0.171771
	N254	N	0.089340	0.458984	0.808430
	N255	N	0.913686	0.531650	0.805588
	N256	N	0.177516	0.913884	0.449497
	N257	N	0.179511	0.079246	0.526280
	N258	N	0.829600	0.078488	0.449889
	N259	N	0.828206	0.912630	0.526630
	N260	N	0.465145	0.174463	0.900835
	N261	N	0.538588	0.174668	0.074688
	N262	N	0.465536	0.817879	0.072728
	N263	N	0.538543	0.815158	0.899300
	N264	N	0.465501	0.911124	0.163575
	N265	N	0.540520	0.080107	0.162103
	N266	N	0.464222	0.079743	0.812355
	N267	N	0.540857	0.912331	0.812792
	N268	N	0.913575	0.178245	0.453384
	N269	N	0.091614	0.176998	0.525012
	N270	N	0.093755	0.812884	0.454000
	N271	N	0.916174	0.814706	0.525132
	N272	N	0.179020	0.457365	0.906234
	N273	N	0.181800	0.533413	0.075062
	N274	N	0.826733	0.458321	0.072346
	N275	N	0.823912	0.533439	0.902448
	O276	O	1.011171	0.982232	0.007093
	H277	H	1.012832	0.991482	0.001545
	H278	H	1.010069	0.981557	0.012603
	O279	O	0.559988	-0.452890	1.486591
	H280	H	0.557899	-0.449559	1.492112
	H281	H	0.554670	-0.456731	1.481416
	O282	O	-0.017875	-0.018139	-0.036500
	H283	H	-0.023744	-0.016125	-0.048871
	H284	H	-0.006074	-0.020883	-0.031010
	O285	O	0.488569	0.578553	0.481454
	H286	H	0.485251	0.579335	0.482831
	H287	H	0.484779	0.581869	0.496586
	O288	O	-0.076734	0.035589	0.039086
	H289	H	-0.072310	0.037250	0.039320
	H290	H	-0.072615	0.033336	0.032926
	O291	O	-0.075936	1.025883	-0.054000
	H292	H	-0.092961	1.025536	-0.040835
	H293	H	-0.078020	1.025976	-0.057082
	O294	O	-0.029367	1.053730	-0.043701
	H295	H	-0.017632	1.051057	-0.049581
	H296	H	-0.025896	1.054090	-0.037075
	O297	O	0.526868	0.543105	0.480419
	H298	H	0.532393	0.544867	0.480495
	H299	H	0.513069	0.550940	0.473268
	O300	O	0.471572	0.553013	0.443377
	H301	H	0.469474	0.558098	0.439508
	H302	H	0.470272	0.553161	0.441068
	O303	O	1.021423	-0.019288	0.953979
	H304	H	1.017695	-0.020461	0.949611
	H305	H	1.011970	-0.013588	0.947295
	O306	O	0.077951	0.989771	0.986234
	H307	H	0.080500	0.979965	0.974994
	H308	H	0.071375	0.987095	0.986984
	O309	O	-0.063390	1.014358	1.030706
	H310	H	-0.060860	1.019055	1.032116
	H311	H	-0.065273	1.017722	1.026968
	O312	O	0.007661	-0.001223	1.010632
	H313	H	0.007690	0.001093	1.021297
	H314	H	0.010355	-0.002559	1.005834
	O315	O	0.530657	0.486320	0.527738
	H316	H	0.536224	0.482221	0.528015
	H317	H	0.536081	0.477982	0.537776
	O318	O	0.046923	-0.026476	1.008217
	H319	H	0.043473	-0.025430	1.011470
	H320	H	0.041591	-0.030174	1.011099
	O321	O	-0.078188	0.956164	0.976096
	H322	H	-0.077964	0.963884	0.982278
	H323	H	-0.077062	0.959023	0.982677
	O324	O	1.028248	-0.046343	0.967117
	H325	H	1.037186	-0.038565	0.975779
	H326	H	1.029006	-0.044664	0.967429
	O327	O	1.004607	0.965850	1.025138
	H328	H	1.011193	0.955633	1.020925
	H329	H	1.007774	0.962236	1.034222
	O330	O	0.496575	0.549028	0.553780
	H331	H	0.496600	0.552913	0.561415
	H332	H	0.496175	0.545186	0.555882
	O333	O	0.520395	0.470035	0.457655
	H334	H	0.524116	0.471662	0.452950
	H335	H	0.520383	0.473587	0.454916
	O336	O	0.543488	0.558628	0.532648
	H337	H	0.546306	0.557339	0.541767
	H338	H	0.539945	0.565948	0.530623
	O339	O	0.507655	0.544594	0.518369
	H340	H	0.511152	0.537750	0.509864
	H341	H	0.519589	0.548894	0.530311
	O342	O	0.539429	0.515134	0.490615
	H343	H	0.545676	0.518265	0.488752
	H344	H	0.534103	0.506839	0.487121
	O345	O	0.514605	0.524829	0.525829
	H346	H	0.518435	0.530156	0.520828
	H347	H	0.526479	0.531105	0.516902
