data_Molecule from HDF5

_cell_length_a		16.471732
_cell_length_b		16.582013
_cell_length_c		16.409010
_cell_angle_alpha	90.166812
_cell_angle_beta	89.960531
_cell_angle_gamma	90.217341
_symmetry_space_group_name_H-M	'P 1'
_symmetry_Int_Tables_number		1

loop_
	_symmetry_equiv_pos_as_xyz
	x,y,z

loop_
	_atom_site_label
	_atom_site_type_symbol
	_atom_site_fract_x
	_atom_site_fract_y
	_atom_site_fract_z
	H0	H	0.388016	0.842864	0.706117
	H1	H	0.598620	0.157417	0.705929
	H2	H	0.598049	0.843040	0.263105
	H3	H	0.384668	0.155467	0.258886
	H4	H	0.713526	0.396697	0.825770
	H5	H	0.717029	0.605638	0.142396
	H6	H	0.272082	0.607304	0.827346
	H7	H	0.268515	0.390234	0.140011
	H8	H	0.837778	0.720664	0.377280
	H9	H	0.150881	0.725781	0.592948
	H10	H	0.838620	0.278427	0.589552
	H11	H	0.149849	0.273818	0.372724
	H12	H	0.838015	0.395340	0.705321
	H13	H	0.153095	0.607755	0.706648
	H14	H	0.837377	0.601844	0.263650
	H15	H	0.151086	0.391499	0.259097
	H16	H	0.388551	0.722942	0.827732
	H17	H	0.603057	0.723722	0.142444
	H18	H	0.600836	0.277023	0.827287
	H19	H	0.382659	0.274071	0.140156
	H20	H	0.715227	0.843796	0.378279
	H21	H	0.716258	0.157377	0.590492
	H22	H	0.268160	0.845469	0.594358
	H23	H	0.269431	0.155040	0.376928
	H24	H	0.886538	0.343480	0.207431
	H25	H	0.103057	0.655876	0.209449
	H26	H	0.103050	0.345749	0.759139
	H27	H	0.891348	0.657654	0.764357
	H28	H	0.218181	0.892894	0.327860
	H29	H	0.216461	0.107904	0.642287
	H30	H	0.772008	0.105703	0.327335
	H31	H	0.774055	0.896560	0.642884
	H32	H	0.338576	0.224411	0.874457
	H33	H	0.650145	0.224456	0.091892
	H34	H	0.339747	0.772934	0.097212
	H35	H	0.652872	0.781927	0.882289
	H36	H	0.336802	0.894375	0.207399
	H37	H	0.652976	0.105576	0.204717
	H38	H	0.337309	0.105698	0.761488
	H39	H	0.653083	0.899464	0.766375
	H40	H	0.884994	0.223543	0.328159
	H41	H	0.103427	0.225878	0.640416
	H42	H	0.103335	0.775715	0.327227
	H43	H	0.886945	0.778018	0.641789
	H44	H	0.219315	0.345943	0.875115
	H45	H	0.222767	0.653665	0.096312
	H46	H	0.768667	0.344421	0.092491
	H47	H	0.774183	0.656999	0.880559
	H48	H	0.407932	0.113201	0.578636
	H49	H	0.585832	0.886612	0.578778
	H50	H	0.582473	0.111721	0.396020
	H51	H	0.406373	0.889683	0.397546
	H52	H	0.584346	0.411586	0.098667
	H53	H	0.580181	0.593715	0.871956
	H54	H	0.407480	0.590101	0.097276
	H55	H	0.413914	0.412013	0.875194
	H56	H	0.107477	0.587828	0.396482
	H57	H	0.882669	0.586058	0.576784
	H58	H	0.110194	0.409886	0.573069
	H59	H	0.883768	0.414504	0.396072
	H60	H	0.105721	0.412393	0.566325
	H61	H	0.880645	0.592332	0.574716
	H62	H	0.107296	0.590024	0.397365
	H63	H	0.881219	0.408290	0.394605
	H64	H	0.407098	0.582474	0.095427
	H65	H	0.588034	0.591975	0.870042
	H66	H	0.580975	0.413907	0.096954
	H67	H	0.406676	0.407588	0.870464
	H68	H	0.586068	0.112871	0.396806
	H69	H	0.582502	0.888495	0.574519
	H70	H	0.411843	0.108416	0.569713
	H71	H	0.408480	0.890849	0.397019
	H72	H	0.906489	0.611470	0.073062
	H73	H	0.082397	0.390998	0.066622
	H74	H	0.084308	0.610199	0.901899
	H75	H	0.905867	0.388208	0.896205
	H76	H	0.084724	0.913913	0.597704
	H77	H	0.089204	0.082427	0.371095
	H78	H	0.907143	0.093885	0.598641
	H79	H	0.911400	0.910348	0.372451
	H80	H	0.609703	0.091563	0.890580
	H81	H	0.381999	0.090765	0.069755
	H82	H	0.603960	0.917980	0.072188
	H83	H	0.383082	0.911342	0.900419
	H84	H	0.609185	0.910558	0.078620
	H85	H	0.383694	0.084728	0.069085
	H86	H	0.606183	0.093283	0.902811
	H87	H	0.381057	0.912775	0.893682
	H88	H	0.903495	0.086425	0.597474
	H89	H	0.074166	0.082468	0.376552
	H90	H	0.078218	0.915518	0.594311
	H91	H	0.903744	0.905171	0.368803
	H92	H	0.087708	0.613831	0.895200
	H93	H	0.082227	0.387952	0.071744
	H94	H	0.906606	0.610616	0.073505
	H95	H	0.902754	0.387438	0.894599
	H96	H	0.401528	0.111621	0.570043
	H97	H	0.587917	0.887073	0.573689
	H98	H	0.584770	0.113701	0.393797
	H99	H	0.407960	0.891287	0.399040
	H100	H	0.580119	0.409569	0.097895
	H101	H	0.582515	0.586541	0.873221
	H102	H	0.413733	0.586534	0.094510
	H103	H	0.405577	0.417305	0.873178
	H104	H	0.107439	0.588127	0.398569
	H105	H	0.884022	0.588706	0.570272
	H106	H	0.106943	0.418028	0.573074
	H107	H	0.883897	0.409508	0.400698
	H108	H	0.906634	0.610621	0.073374
	H109	H	0.078446	0.391719	0.070210
	H110	H	0.079454	0.612024	0.895458
	H111	H	0.905648	0.387824	0.892783
	H112	H	0.078941	0.908579	0.597499
	H113	H	0.080126	0.095276	0.369319
	H114	H	0.911380	0.087287	0.595657
	H115	H	0.902264	0.914365	0.371677
	H116	H	0.604372	0.082443	0.897422
	H117	H	0.381528	0.086411	0.074838
	H118	H	0.606488	0.907998	0.067882
	H119	H	0.380295	0.906179	0.896515
	C120	C	0.372827	0.008313	0.606617
	C121	C	0.616742	0.991706	0.607263
	C122	C	0.616153	0.009108	0.363020
	C123	C	0.373114	0.992298	0.363605
	C124	C	0.614580	0.379365	-0.006848
	C125	C	0.616393	0.622407	0.976201
	C126	C	0.374977	0.620461	-0.007422
	C127	C	0.373155	0.378109	0.975886
	C128	C	0.003287	0.620037	0.364308
	C129	C	0.986222	0.622664	0.606897
	C130	C	0.004196	0.379911	0.604890
	C131	C	0.985888	0.376953	0.361885
	C132	C	0.872346	0.508160	0.106414
	C133	C	0.116441	0.491743	0.105747
	C134	C	0.116849	0.509410	0.863413
	C135	C	0.872916	0.491507	0.862733
	C136	C	0.114951	0.878921	0.492971
	C137	C	0.115147	0.121285	0.476013
	C138	C	0.873877	0.121152	0.492950
	C139	C	0.873281	0.878394	0.475645
	C140	C	0.502777	0.121330	0.863869
	C141	C	0.485712	0.121482	0.105358
	C142	C	0.503068	0.878710	0.106633
	C143	C	0.486034	0.878798	0.864486
	C144	C	0.369444	0.890536	0.667080
	C145	C	0.617598	0.110227	0.666192
	C146	C	0.617310	0.890797	0.302584
	C147	C	0.367849	0.108745	0.300546
	C148	C	0.673985	0.377745	0.873492
	C149	C	0.676857	0.624239	0.095164
	C150	C	0.312882	0.624640	0.874692
	C151	C	0.309596	0.373403	0.093113
	C152	C	0.884918	0.680392	0.360109
	C153	C	0.104128	0.684601	0.610368
	C154	C	0.885972	0.318888	0.608155
	C155	C	0.103007	0.314785	0.356062
	C156	C	0.885575	0.377052	0.665680
	C157	C	0.105247	0.625976	0.667144
	C158	C	0.884406	0.621243	0.303769
	C159	C	0.103604	0.373483	0.299427
	C160	C	0.370751	0.682371	0.874996
	C161	C	0.620562	0.683095	0.094985
	C162	C	0.617978	0.318252	0.874464
	C163	C	0.366457	0.315237	0.093139
	C164	C	0.675546	0.891029	0.360177
	C165	C	0.676238	0.109994	0.608705
	C166	C	0.309898	0.891701	0.610898
	C167	C	0.310461	0.108808	0.359331
	C168	C	0.868545	0.390432	0.167089
	C169	C	0.121059	0.608395	0.169187
	C170	C	0.120264	0.392481	0.800524
	C171	C	0.872182	0.610318	0.803916
	C172	C	0.177619	0.875120	0.374797
	C173	C	0.176299	0.125590	0.594769
	C174	C	0.812351	0.123849	0.374760
	C175	C	0.813263	0.877195	0.594965
	C176	C	0.384936	0.183054	0.858426
	C177	C	0.603555	0.183439	0.109294
	C178	C	0.385975	0.815371	0.112735
	C179	C	0.605345	0.820914	0.863027
	C180	C	0.384664	0.875354	0.168203
	C181	C	0.604489	0.124607	0.165994
	C182	C	0.384490	0.123752	0.802282
	C183	C	0.605441	0.879231	0.805509
	C184	C	0.868825	0.182593	0.375087
	C185	C	0.120117	0.184468	0.593604
	C186	C	0.120105	0.816983	0.374645
	C187	C	0.870009	0.818571	0.594679
	C188	C	0.178623	0.392666	0.858018
	C189	C	0.180610	0.607662	0.112434
	C190	C	0.809645	0.391191	0.109942
	C191	C	0.813839	0.609857	0.861632
	C192	C	0.399465	0.089766	0.580389
	C193	C	0.592368	0.908835	0.582731
	C194	C	0.591644	0.091383	0.388471
	C195	C	0.399777	0.911538	0.390240
	C196	C	0.589097	0.404448	0.076140
	C197	C	0.590844	0.597741	0.893266
	C198	C	0.401786	0.593970	0.074504
	C199	C	0.400855	0.404653	0.894182
	C200	C	0.085705	0.595615	0.390059
	C201	C	0.903885	0.596592	0.581187
	C202	C	0.086226	0.405815	0.578561
	C203	C	0.904331	0.403260	0.389266
	C204	C	0.898963	0.589602	0.080778
	C205	C	0.088875	0.411089	0.077629
	C206	C	0.091335	0.590889	0.890119
	C207	C	0.897564	0.409270	0.887391
	C208	C	0.088174	0.905156	0.575014
	C209	C	0.088773	0.094280	0.394075
	C210	C	0.899848	0.096095	0.575691
	C211	C	0.898522	0.902855	0.392644
	C212	C	0.585132	0.096440	0.889779
	C213	C	0.403751	0.095047	0.078779
	C214	C	0.585116	0.904793	0.080363
	C215	C	0.403219	0.903007	0.889608
	Zn216	Zn	0.494137	-0.000084	0.735691
	Zn217	Zn	0.494391	0.000763	0.234324
	Zn218	Zn	0.743583	0.500043	-0.015367
	Zn219	Zn	0.245846	0.499955	-0.015672
	Zn220	Zn	-0.005641	0.749710	0.484558
	Zn221	Zn	-0.005105	0.249707	0.483782
	Zn222	Zn	-0.004375	0.501359	0.734504
	Zn223	Zn	-0.005276	0.499174	0.234901
	Zn224	Zn	0.494940	0.750153	-0.014152
	Zn225	Zn	0.493831	0.250088	-0.015805
	Zn226	Zn	0.745413	0.000280	0.484735
	Zn227	Zn	0.243791	0.000531	0.485353
	N228	N	0.407923	0.964122	0.664702
	N229	N	0.581689	0.035600	0.665605
	N230	N	0.581173	0.965307	0.304151
	N231	N	0.406251	0.035398	0.303149
	N232	N	0.672015	0.414903	0.948395
	N233	N	0.674364	0.587056	0.020339
	N234	N	0.315373	0.586812	0.949140
	N235	N	0.313660	0.411851	0.019152
	N236	N	0.959901	0.679981	0.396900
	N237	N	0.029030	0.682745	0.573815
	N238	N	0.960780	0.320271	0.571234
	N239	N	0.028753	0.316694	0.394160
	N240	N	0.960399	0.413919	0.664168
	N241	N	0.030972	0.587974	0.664885
	N242	N	0.958991	0.584603	0.306144
	N243	N	0.029759	0.411474	0.303074
	N244	N	0.408528	0.679761	0.949372
	N245	N	0.583478	0.682040	0.019980
	N246	N	0.581627	0.319200	0.949977
	N247	N	0.405265	0.317973	0.019162
	N248	N	0.675279	0.965675	0.396816
	N249	N	0.675949	0.035032	0.572806
	N250	N	0.311662	0.966118	0.574358
	N251	N	0.313538	0.035494	0.397921
	N252	N	0.907047	0.464034	0.165005
	N253	N	0.081872	0.535209	0.165184
	N254	N	0.082601	0.466134	0.803588
	N255	N	0.907942	0.535641	0.804075
	N256	N	0.174634	0.913112	0.449362
	N257	N	0.173504	0.086969	0.520571
	N258	N	0.815447	0.086219	0.449122
	N259	N	0.814985	0.913820	0.520106
	N260	N	0.459445	0.181557	0.896020
	N261	N	0.528476	0.182063	0.072965
	N262	N	0.460688	0.817180	0.075413
	N263	N	0.530086	0.820610	0.898780
	N264	N	0.458395	0.914159	0.164529
	N265	N	0.530073	0.086784	0.163728
	N266	N	0.458515	0.085977	0.805515
	N267	N	0.529953	0.914229	0.805886
	N268	N	0.906419	0.180986	0.449786
	N269	N	0.083096	0.182144	0.518664
	N270	N	0.081899	0.819201	0.449058
	N271	N	0.906388	0.818967	0.519306
	N272	N	0.176577	0.466315	0.896369
	N273	N	0.178118	0.534053	0.074040
	N274	N	0.812119	0.465317	0.072802
	N275	N	0.814031	0.535001	0.897223
	O276	O	0.303564	0.300932	0.685852
	H277	H	0.307350	0.323028	0.684638
	H278	H	0.306173	0.295638	0.645436
	O279	O	0.482434	0.311734	0.698068
	H280	H	0.464550	0.326063	0.694953
	H281	H	0.480280	0.290805	0.704887
	O282	O	1.173495	1.002217	0.020290
	H283	H	1.179593	1.014482	0.016155
	H284	H	1.176565	1.005288	0.001804
	O285	O	0.747625	0.254170	0.750861
	H286	H	0.748863	0.259438	0.789731
	H287	H	0.782245	0.248650	0.745405
	O288	O	-0.215566	0.217533	-0.039604
	H289	H	-0.228472	0.229295	-0.025484
	H290	H	-0.225831	0.200491	-0.016219
	O291	O	1.312239	0.680802	0.305940
	H292	H	1.309041	0.659534	0.313114
	H293	H	1.350339	0.677924	0.304234
	O294	O	0.698467	0.296045	-0.533807
	H295	H	0.712946	0.275703	-0.519319
	H296	H	0.696567	0.317770	-0.508630
	O297	O	-0.034267	0.217640	0.767351
	H298	H	-0.003137	0.222206	0.805627
	H299	H	-0.027178	0.253810	0.737453
	O300	O	0.587647	0.705359	0.390723
	H301	H	0.599119	0.704503	0.382338
	H302	H	0.601393	0.713132	0.406559
	O303	O	0.177639	0.182404	1.158854
	H304	H	0.165205	0.168846	1.175471
	H305	H	0.165174	0.163534	1.175676
	O306	O	0.210454	0.974079	0.771410
	H307	H	0.199928	0.969802	0.775833
	H308	H	0.235774	0.957814	0.740242
	O309	O	0.701034	1.545898	1.351515
	H310	H	0.706450	1.566231	1.334853
	H311	H	0.702266	1.561304	1.356839
	O312	O	0.710818	0.524352	0.692564
	H313	H	0.712480	0.501693	0.700594
	H314	H	0.721351	0.535114	0.702928
	O315	O	0.017625	0.213929	1.196100
	H316	H	0.006388	0.216371	1.203806
	H317	H	0.017570	0.214029	1.217411
	O318	O	-0.585361	0.680486	0.554896
	H319	H	-0.588225	0.672062	0.558985
	H320	H	-0.592375	0.681396	0.558912
	O321	O	0.586316	0.368514	0.542483
	H322	H	0.572972	0.361198	0.527330
	H323	H	0.605685	0.371246	0.537611
	O324	O	1.182657	-0.185444	0.803335
	H325	H	1.147800	-0.202552	0.788282
	H326	H	1.188680	-0.171106	0.823487
	O327	O	1.290073	0.477592	0.690799
	H328	H	1.282298	0.479271	0.697185
	H329	H	1.280513	0.486383	0.678251
	O330	O	0.962646	0.025868	0.109044
	H331	H	0.968156	0.008178	0.105761
	H332	H	0.954295	0.019339	0.107589
	O333	O	0.978312	0.854203	1.029044
	H334	H	0.973200	0.863061	1.010243
	H335	H	0.980000	0.851397	1.047913
	O336	O	0.860813	-0.043110	0.856733
	H337	H	0.850402	-0.020891	0.863640
	H338	H	0.865533	-0.015224	0.836486
	O339	O	0.419350	0.368063	0.332553
	H340	H	0.420420	0.369464	0.331868
	H341	H	0.412159	0.363085	0.320690
	O342	O	1.031187	0.883094	0.101082
	H343	H	1.039847	0.894164	0.080609
	H344	H	1.050337	0.899699	0.098690
	O345	O	0.092615	0.206599	-0.128087
	H346	H	0.075576	0.208763	-0.085050
	H347	H	0.133805	0.217560	-0.121687
	O348	O	1.202037	-0.049552	1.122845
	H349	H	1.209719	-0.074172	1.101555
	H350	H	1.205273	-0.044856	1.115040
	O351	O	0.906691	1.105399	0.024322
	H352	H	0.914295	1.092597	0.030764
	H353	H	0.902915	1.102703	0.030270
	O354	O	0.529108	0.504713	0.457449
	H355	H	0.539034	0.508693	0.460623
	H356	H	0.515170	0.486655	0.456013
	O357	O	1.007142	0.965636	1.102449
	H358	H	1.020069	0.965975	1.091172
	H359	H	1.020720	0.949375	1.103094
	O360	O	0.623213	0.420950	0.331861
	H361	H	0.636548	0.425894	0.338964
	H362	H	0.606751	0.433590	0.320699
	O363	O	-0.220947	0.973224	0.203008
	H364	H	-0.237411	0.951319	0.217359
	H365	H	-0.221018	0.955551	0.211154
	O366	O	1.045075	-0.017903	0.817801
	H367	H	1.048998	0.003078	0.822387
	H368	H	1.043292	0.004422	0.803499
	O369	O	0.519914	0.499552	0.507129
	H370	H	0.530018	0.501853	0.520945
	H371	H	0.532232	0.491865	0.507879
	O372	O	0.551571	0.448589	0.645406
	H373	H	0.547759	0.442541	0.660000
	H374	H	0.553141	0.449276	0.622171
	O375	O	1.328633	0.599982	-0.452182
	H376	H	1.356273	0.599058	-0.465272
	H377	H	1.326785	0.621481	-0.473646
	O378	O	0.836516	0.145337	0.018869
	H379	H	0.852795	0.154015	0.025655
	H380	H	0.844460	0.150240	0.041710
	O381	O	0.826967	-0.115581	-0.140079
	H382	H	0.852029	-0.095553	-0.129269
	H383	H	0.831593	-0.109899	-0.136137
	O384	O	-0.051638	0.208891	1.037588
	H385	H	-0.071182	0.202466	1.038955
	H386	H	-0.042987	0.210849	1.059527
	O387	O	-0.326062	0.346084	1.333254
	H388	H	-0.317598	0.376580	1.326506
	H389	H	-0.325855	0.343977	1.368072
	O390	O	0.048879	-0.144303	0.939231
	H391	H	0.064857	-0.131173	0.926553
	H392	H	0.028304	-0.150070	0.944247
	O393	O	0.807320	0.800501	0.069544
	H394	H	0.829391	0.799997	0.052156
	H395	H	0.810009	0.822418	0.068255
	O396	O	0.439334	0.545688	0.266121
	H397	H	0.468821	0.536341	0.271944
	H398	H	0.457509	0.536085	0.250504
	O399	O	0.434041	0.289073	0.431915
	H400	H	0.420009	0.291948	0.438870
	H401	H	0.429993	0.282905	0.424609
	O402	O	-0.560563	0.589929	1.663314
	H403	H	-0.563941	0.581922	1.672392
	H404	H	-0.544247	0.586854	1.657772
	O405	O	-0.119563	0.057155	0.005346
	H406	H	-0.118262	0.059282	0.020313
	H407	H	-0.106797	0.053126	0.000513
	O408	O	0.275036	0.434361	0.420354
	H409	H	0.270954	0.459762	0.398342
	H410	H	0.282961	0.458524	0.428689
	O411	O	0.630791	0.407097	0.644388
	H412	H	0.638028	0.403790	0.668205
	H413	H	0.617408	0.403680	0.639177
	O414	O	0.737535	0.744948	0.820278
	H415	H	0.742719	0.763880	0.831554
	H416	H	0.714095	0.750352	0.830829
	O417	O	0.281019	0.711097	0.462694
	H418	H	0.280850	0.718480	0.444650
	H419	H	0.279326	0.727171	0.458079
	O420	O	0.518262	0.281265	0.260302
	H421	H	0.558499	0.280122	0.260747
	H422	H	0.530902	0.257519	0.237328
	O423	O	0.067989	0.999229	0.156517
	H424	H	0.080533	0.998250	0.160717
	H425	H	0.067851	0.988768	0.146402
	O426	O	0.278605	1.520045	1.270305
	H427	H	0.294012	1.522643	1.264752
	H428	H	0.262984	1.524102	1.238767
	O429	O	-0.079628	-1.079568	1.069601
	H430	H	-0.059948	-1.088162	1.068579
	H431	H	-0.068503	-1.084227	1.072211
	O432	O	0.707726	0.716161	0.502554
	H433	H	0.704109	0.722857	0.529445
	H434	H	0.724508	0.731602	0.531079
	O435	O	0.015941	-0.212750	-0.207651
	H436	H	-0.007333	-0.188179	-0.212051
	H437	H	0.014344	-0.227034	-0.240424
	O438	O	1.208630	0.216696	-0.000897
	H439	H	1.198554	0.208835	0.041562
	H440	H	1.239042	0.243127	0.014435
	O441	O	0.479605	0.660094	0.383517
	H442	H	0.487265	0.658719	0.372857
	H443	H	0.480429	0.665624	0.415457
	O444	O	0.122646	1.038531	0.861410
	H445	H	0.129455	1.050201	0.869254
	H446	H	0.125022	1.047916	0.846598
	O447	O	0.870017	0.800391	1.179810
	H448	H	0.896196	0.790880	1.192793
	H449	H	0.872763	0.800508	1.152228
	O450	O	0.550430	0.556620	0.268441
	H451	H	0.549782	0.560086	0.287707
	H452	H	0.547993	0.563896	0.272691
	O453	O	0.778160	1.026511	-0.234064
	H454	H	0.776691	1.061709	-0.236706
	H455	H	0.762392	1.045541	-0.255647
	O456	O	0.567634	0.610123	0.605955
	H457	H	0.571487	0.597936	0.625049
	H458	H	0.563572	0.599981	0.616641
	O459	O	0.522049	0.709032	0.686629
	H460	H	0.522713	0.719229	0.684389
	H461	H	0.505847	0.696794	0.707656
	O462	O	0.281846	1.288981	1.511908
	H463	H	0.265547	1.284811	1.498265
	H464	H	0.263028	1.302721	1.494521
	O465	O	1.183213	-0.223925	-0.016732
	H466	H	1.164908	-0.223825	-0.029475
	H467	H	1.204853	-0.253433	-0.026823
