data_Molecule from HDF5

_cell_length_a		16.247166
_cell_length_b		16.226360
_cell_length_c		16.264579
_cell_angle_alpha	89.858491
_cell_angle_beta	89.933806
_cell_angle_gamma	90.233946
_symmetry_space_group_name_H-M	'P 1'
_symmetry_Int_Tables_number		1

loop_
	_symmetry_equiv_pos_as_xyz
	x,y,z

loop_
	_atom_site_label
	_atom_site_type_symbol
	_atom_site_fract_x
	_atom_site_fract_y
	_atom_site_fract_z
	H0	H	0.401159	0.837764	0.714162
	H1	H	0.600281	0.165933	0.710182
	H2	H	0.599456	0.837465	0.283683
	H3	H	0.402662	0.165504	0.283496
	H4	H	0.715255	0.405053	0.835290
	H5	H	0.717295	0.602511	0.161947
	H6	H	0.286872	0.602180	0.835157
	H7	H	0.286336	0.402702	0.162431
	H8	H	0.836467	0.713874	0.401349
	H9	H	0.165004	0.715873	0.594837
	H10	H	0.837174	0.286466	0.597137
	H11	H	0.164732	0.287586	0.399835
	H12	H	0.837511	0.400762	0.714149
	H13	H	0.165695	0.600445	0.712056
	H14	H	0.837124	0.600654	0.283662
	H15	H	0.164343	0.402969	0.283261
	H16	H	0.404128	0.715977	0.834841
	H17	H	0.600698	0.716602	0.162094
	H18	H	0.599686	0.290288	0.834210
	H19	H	0.401541	0.286567	0.161796
	H20	H	0.714393	0.836752	0.400286
	H21	H	0.715176	0.165682	0.594932
	H22	H	0.286190	0.836855	0.597888
	H23	H	0.287960	0.165374	0.399843
	H24	H	0.901529	0.338060	0.213959
	H25	H	0.101034	0.665187	0.213351
	H26	H	0.099627	0.336403	0.784917
	H27	H	0.903175	0.665027	0.783378
	H28	H	0.214743	0.903515	0.334551
	H29	H	0.216737	0.100531	0.661693
	H30	H	0.786967	0.100926	0.335186
	H31	H	0.786897	0.902015	0.662201
	H32	H	0.337551	0.215630	0.900217
	H33	H	0.665310	0.215657	0.094586
	H34	H	0.338274	0.785799	0.097890
	H35	H	0.666107	0.789195	0.899934
	H36	H	0.337690	0.902186	0.212763
	H37	H	0.665035	0.100974	0.211923
	H38	H	0.337700	0.100319	0.783840
	H39	H	0.665988	0.904341	0.783580
	H40	H	0.902309	0.216448	0.335236
	H41	H	0.099384	0.214954	0.662920
	H42	H	0.099379	0.788166	0.334545
	H43	H	0.900865	0.785451	0.661567
	H44	H	0.215545	0.337287	0.900018
	H45	H	0.215931	0.665527	0.097510
	H46	H	0.786177	0.337958	0.098484
	H47	H	0.789464	0.665962	0.900810
	H48	H	0.406904	0.120652	0.597553
	H49	H	0.590706	0.883727	0.596480
	H50	H	0.588941	0.116746	0.405371
	H51	H	0.406090	0.883446	0.406280
	H52	H	0.603032	0.412494	0.118027
	H53	H	0.597250	0.598301	0.880848
	H54	H	0.415374	0.601615	0.115939
	H55	H	0.407307	0.406639	0.881000
	H56	H	0.116911	0.589497	0.403789
	H57	H	0.884278	0.592100	0.593666
	H58	H	0.116181	0.410629	0.587766
	H59	H	0.885959	0.414026	0.407880
	H60	H	0.118285	0.411338	0.596387
	H61	H	0.883306	0.596283	0.593302
	H62	H	0.120611	0.597679	0.400893
	H63	H	0.881818	0.408035	0.399903
	H64	H	0.399418	0.596084	0.118835
	H65	H	0.598189	0.594638	0.881573
	H66	H	0.587554	0.414539	0.112011
	H67	H	0.405775	0.410532	0.882407
	H68	H	0.598765	0.118492	0.409213
	H69	H	0.592000	0.885405	0.587419
	H70	H	0.415959	0.114807	0.589142
	H71	H	0.407598	0.883606	0.402804
	H72	H	0.911825	0.617997	0.089250
	H73	H	0.086226	0.386870	0.090164
	H74	H	0.096930	0.617231	0.909645
	H75	H	0.910383	0.386545	0.913399
	H76	H	0.091903	0.916766	0.612493
	H77	H	0.102303	0.096136	0.379095
	H78	H	0.913078	0.081897	0.610293
	H79	H	0.909841	0.902766	0.380085
	H80	H	0.619337	0.098303	0.905306
	H81	H	0.384100	0.092959	0.089313
	H82	H	0.619805	0.899738	0.085015
	H83	H	0.386951	0.911873	0.907847
	H84	H	0.613375	0.920423	0.085640
	H85	H	0.384749	0.091611	0.092118
	H86	H	0.618050	0.095450	0.903700
	H87	H	0.383204	0.908723	0.901486
	H88	H	0.915721	0.105161	0.616815
	H89	H	0.092143	0.088094	0.384465
	H90	H	0.086556	0.902742	0.614482
	H91	H	0.901435	0.908049	0.379468
	H92	H	0.098544	0.620655	0.900413
	H93	H	0.098320	0.384538	0.085778
	H94	H	0.907278	0.619389	0.089870
	H95	H	0.899831	0.381631	0.906180
	H96	H	0.404110	0.118338	0.584526
	H97	H	0.598905	0.882252	0.592831
	H98	H	0.597200	0.120797	0.399291
	H99	H	0.409557	0.884420	0.405604
	H100	H	0.592635	0.399478	0.118220
	H101	H	0.594423	0.595156	0.882097
	H102	H	0.410688	0.584636	0.112726
	H103	H	0.410153	0.409422	0.882050
	H104	H	0.116389	0.597049	0.409537
	H105	H	0.885033	0.593113	0.589591
	H106	H	0.120012	0.403830	0.592194
	H107	H	0.883923	0.402532	0.410368
	H108	H	0.910209	0.618745	0.093569
	H109	H	0.095337	0.382128	0.098283
	H110	H	0.089364	0.617228	0.903012
	H111	H	0.912573	0.384004	0.899749
	H112	H	0.101035	0.905597	0.618769
	H113	H	0.090231	0.101521	0.381149
	H114	H	0.894271	0.093516	0.620037
	H115	H	0.909798	0.912297	0.383085
	H116	H	0.619875	0.098008	0.901768
	H117	H	0.383371	0.095182	0.091726
	H118	H	0.621721	0.910517	0.103037
	H119	H	0.384966	0.904347	0.908263
	C120	C	0.379451	0.009720	0.619908
	C121	C	0.622739	0.992629	0.619551
	C122	C	0.623022	0.009936	0.376208
	C123	C	0.379590	0.992706	0.376517
	C124	C	0.622676	0.381040	0.007409
	C125	C	0.624580	0.624319	0.989745
	C126	C	0.380320	0.622934	0.007330
	C127	C	0.379185	0.380106	0.990188
	C128	C	0.009463	0.623124	0.376740
	C129	C	0.992563	0.622808	0.620300
	C130	C	0.009760	0.379654	0.620522
	C131	C	0.992290	0.379861	0.377094
	C132	C	0.879915	0.510371	0.120320
	C133	C	0.122452	0.492986	0.119961
	C134	C	0.123097	0.509729	0.876546
	C135	C	0.880106	0.492730	0.877206
	C136	C	0.122022	0.880068	0.506963
	C137	C	0.123373	0.123745	0.489787
	C138	C	0.879645	0.122622	0.507417
	C139	C	0.878763	0.879122	0.489462
	C140	C	0.510494	0.124732	0.875581
	C141	C	0.492523	0.122730	0.119399
	C142	C	0.510257	0.880529	0.119919
	C143	C	0.493668	0.880741	0.877402
	C144	C	0.381157	0.886589	0.675743
	C145	C	0.620436	0.116746	0.673157
	C146	C	0.620108	0.886414	0.321460
	C147	C	0.382466	0.116308	0.321413
	C148	C	0.677291	0.384574	0.883997
	C149	C	0.679375	0.622085	0.113140
	C150	C	0.325117	0.621647	0.884011
	C151	C	0.323966	0.382207	0.113410
	C152	C	0.885710	0.676896	0.380211
	C153	C	0.116301	0.677979	0.616163
	C154	C	0.886155	0.324220	0.617761
	C155	C	0.115925	0.325470	0.379629
	C156	C	0.886320	0.381189	0.675834
	C157	C	0.116697	0.620679	0.674169
	C158	C	0.886001	0.620687	0.321707
	C159	C	0.115662	0.382410	0.321534
	C160	C	0.383394	0.678462	0.883937
	C161	C	0.621404	0.678765	0.113283
	C162	C	0.619785	0.327199	0.883679
	C163	C	0.381266	0.324583	0.113162
	C164	C	0.677208	0.886080	0.379618
	C165	C	0.677439	0.116607	0.615792
	C166	C	0.323996	0.886241	0.617758
	C167	C	0.325605	0.116350	0.379437
	C168	C	0.881256	0.387032	0.175923
	C169	C	0.120929	0.616360	0.175474
	C170	C	0.120278	0.385857	0.822214
	C171	C	0.883576	0.616130	0.821842
	C172	C	0.177144	0.882975	0.383531
	C173	C	0.178587	0.120961	0.613103
	C174	C	0.825071	0.120930	0.383950
	C175	C	0.824507	0.881882	0.613153
	C176	C	0.386623	0.178280	0.879043
	C177	C	0.616337	0.177817	0.115737
	C178	C	0.386900	0.824331	0.117943
	C179	C	0.617150	0.826373	0.879216
	C180	C	0.386710	0.882005	0.175092
	C181	C	0.615996	0.121043	0.174123
	C182	C	0.386695	0.120945	0.821371
	C183	C	0.617040	0.883904	0.821682
	C184	C	0.882438	0.178141	0.384020
	C185	C	0.120393	0.177955	0.613575
	C186	C	0.119590	0.825606	0.383488
	C187	C	0.881190	0.823819	0.612751
	C188	C	0.177593	0.386063	0.879728
	C189	C	0.178400	0.616386	0.118026
	C190	C	0.823960	0.387134	0.118489
	C191	C	0.826610	0.616679	0.880002
	C192	C	0.402249	0.095799	0.597310
	C193	C	0.600455	0.906144	0.598322
	C194	C	0.601356	0.096365	0.398079
	C195	C	0.401364	0.906235	0.398702
	C196	C	0.600777	0.402368	0.093782
	C197	C	0.603002	0.602407	0.903731
	C198	C	0.402139	0.600651	0.093422
	C199	C	0.401114	0.402329	0.903995
	C200	C	0.095692	0.601206	0.398406
	C201	C	0.906522	0.600397	0.598788
	C202	C	0.095976	0.401947	0.598675
	C203	C	0.906189	0.401732	0.399425
	C204	C	0.902923	0.596611	0.097683
	C205	C	0.099840	0.406844	0.097873
	C206	C	0.101445	0.595996	0.897970
	C207	C	0.901296	0.406215	0.899654
	C208	C	0.099729	0.901961	0.593023
	C209	C	0.101285	0.101967	0.403878
	C210	C	0.901322	0.100134	0.593347
	C211	C	0.900429	0.901199	0.403074
	C212	C	0.596779	0.103543	0.897144
	C213	C	0.406396	0.099998	0.097419
	C214	C	0.595933	0.903310	0.097620
	C215	C	0.407365	0.902263	0.899282
	Zn216	Zn	0.501787	0.002109	0.748179
	Zn217	Zn	0.501050	0.001804	0.248427
	Zn218	Zn	0.751997	0.501991	-0.001130
	Zn219	Zn	0.251006	0.501901	-0.001396
	Zn220	Zn	0.000727	0.751570	0.498056
	Zn221	Zn	0.000906	0.251297	0.499075
	Zn222	Zn	0.001405	0.501077	0.748634
	Zn223	Zn	0.000824	0.501780	0.248327
	Zn224	Zn	0.502025	0.751506	-0.001379
	Zn225	Zn	0.501545	0.252033	-0.001452
	Zn226	Zn	0.750982	0.001086	0.498439
	Zn227	Zn	0.250831	0.001009	0.498019
	N228	N	0.414927	0.964425	0.677354
	N229	N	0.586900	0.038709	0.675532
	N230	N	0.587458	0.964538	0.319085
	N231	N	0.415266	0.038238	0.319630
	N232	N	0.679033	0.417397	0.961825
	N233	N	0.681490	0.588882	0.035332
	N234	N	0.323079	0.587837	0.961647
	N235	N	0.322641	0.416195	0.035833
	N236	N	0.963473	0.678675	0.413540
	N237	N	0.038405	0.679356	0.583198
	N238	N	0.963952	0.323108	0.584130
	N239	N	0.038289	0.323762	0.413481
	N240	N	0.964022	0.415071	0.677457
	N241	N	0.038839	0.587204	0.676919
	N242	N	0.964011	0.587878	0.319413
	N243	N	0.037842	0.415575	0.319900
	N244	N	0.416992	0.679377	0.961531
	N245	N	0.587985	0.680332	0.035745
	N246	N	0.586455	0.324935	0.961590
	N247	N	0.415106	0.323362	0.035651
	N248	N	0.679092	0.963932	0.413068
	N249	N	0.679054	0.038366	0.583267
	N250	N	0.323011	0.963916	0.583592
	N251	N	0.323725	0.038430	0.413010
	N252	N	0.915541	0.464624	0.176801
	N253	N	0.086597	0.538742	0.176710
	N254	N	0.086888	0.463628	0.820316
	N255	N	0.915882	0.537877	0.820224
	N256	N	0.178684	0.916126	0.461299
	N257	N	0.180539	0.087899	0.535316
	N258	N	0.822994	0.086917	0.461480
	N259	N	0.822740	0.915300	0.535410
	N260	N	0.464468	0.180980	0.911996
	N261	N	0.538466	0.179063	0.082584
	N262	N	0.464692	0.823187	0.084255
	N263	N	0.539552	0.824210	0.913130
	N264	N	0.464191	0.916296	0.176394
	N265	N	0.538061	0.087573	0.176416
	N266	N	0.464837	0.088336	0.819112
	N267	N	0.539275	0.917270	0.820597
	N268	N	0.915637	0.179312	0.461764
	N269	N	0.086665	0.179629	0.536031
	N270	N	0.085951	0.824007	0.461188
	N271	N	0.914219	0.822067	0.534848
	N272	N	0.179794	0.464190	0.912598
	N273	N	0.179313	0.538737	0.084196
	N274	N	0.823236	0.465008	0.084459
	N275	N	0.824420	0.538905	0.913880
	O276	O	1.072160	1.002756	0.028290
	H277	H	1.073710	1.000593	0.035007
	H278	H	1.076436	1.004908	0.032656
	O279	O	0.034308	-0.061490	-0.011802
	H280	H	0.035011	-0.059187	-0.008640
	H281	H	0.034815	-0.069874	-0.007944
	O282	O	0.003909	-0.018429	0.960084
	H283	H	0.001007	-0.018812	0.963040
	H284	H	0.002064	-0.014276	0.959160
	O285	O	0.497631	0.451931	0.530048
	H286	H	0.494659	0.447416	0.529887
	H287	H	0.497362	0.449008	0.531801
	O288	O	0.513633	0.485512	0.558824
	H289	H	0.512052	0.478913	0.567865
	H290	H	0.515265	0.493141	0.565971
	O291	O	0.470553	0.470220	0.536323
	H292	H	0.465473	0.472312	0.538765
	H293	H	0.468514	0.464412	0.539818
	O294	O	-0.044088	-0.063185	0.029793
	H295	H	-0.044154	-0.056358	0.029429
	H296	H	-0.052525	-0.063410	0.025138
	O297	O	0.447879	0.471273	0.524776
	H298	H	0.443338	0.472690	0.515851
	H299	H	0.453010	0.469752	0.513202
	O300	O	-0.019375	0.954652	1.008129
	H301	H	-0.021768	0.933365	1.006647
	H302	H	-0.016828	0.953859	1.009457
	O303	O	0.457866	0.458527	0.541686
	H304	H	0.461631	0.453891	0.545853
	H305	H	0.461400	0.463936	0.543026
	O306	O	0.024781	-0.047728	0.976099
	H307	H	0.025790	-0.040864	0.970920
	H308	H	0.032014	-0.050180	0.971109
	O309	O	0.990017	0.956692	0.975917
	H310	H	0.995930	0.963326	0.968607
	H311	H	0.992369	0.956796	0.977017
	O312	O	0.460389	0.440262	0.504397
	H313	H	0.458621	0.434574	0.508798
	H314	H	0.462399	0.442669	0.506399
	O315	O	0.502692	0.491057	0.488636
	H316	H	0.499212	0.486083	0.488419
	H317	H	0.504194	0.494609	0.481083
	O318	O	0.056071	0.978814	0.008008
	H319	H	0.054449	0.984108	0.013524
	H320	H	0.054076	0.976476	0.008328
	O321	O	0.995023	0.929255	0.030803
	H322	H	0.990956	0.927617	0.032150
	H323	H	1.003518	0.926833	0.025544
