data_Molecule from HDF5

_cell_length_a		16.444444
_cell_length_b		16.556721
_cell_length_c		16.606279
_cell_angle_alpha	90.049539
_cell_angle_beta	89.880100
_cell_angle_gamma	90.021986
_symmetry_space_group_name_H-M	'P 1'
_symmetry_Int_Tables_number		1

loop_
	_symmetry_equiv_pos_as_xyz
	x,y,z

loop_
	_atom_site_label
	_atom_site_type_symbol
	_atom_site_fract_x
	_atom_site_fract_y
	_atom_site_fract_z
	H0	H	0.382551	0.858914	0.715481
	H1	H	0.598880	0.171353	0.711995
	H2	H	0.599239	0.859177	0.266631
	H3	H	0.388476	0.172108	0.271105
	H4	H	0.715642	0.408263	0.831263
	H5	H	0.715514	0.620000	0.143570
	H6	H	0.270180	0.622185	0.831506
	H7	H	0.271600	0.412180	0.144889
	H8	H	0.834728	0.733764	0.386899
	H9	H	0.149561	0.739876	0.598507
	H10	H	0.836345	0.292366	0.596985
	H11	H	0.149592	0.293120	0.383881
	H12	H	0.836574	0.407882	0.713267
	H13	H	0.149909	0.624425	0.713523
	H14	H	0.835498	0.619570	0.268218
	H15	H	0.149936	0.409693	0.268448
	H16	H	0.385673	0.739630	0.832359
	H17	H	0.601303	0.738931	0.142738
	H18	H	0.598053	0.292388	0.831874
	H19	H	0.387559	0.295037	0.144649
	H20	H	0.713801	0.857642	0.385027
	H21	H	0.715593	0.171187	0.595381
	H22	H	0.269825	0.857295	0.596308
	H23	H	0.273125	0.171530	0.388142
	H24	H	0.885726	0.360132	0.211873
	H25	H	0.100599	0.671005	0.212783
	H26	H	0.100904	0.361426	0.765730
	H27	H	0.885744	0.671683	0.765791
	H28	H	0.213864	0.909881	0.333293
	H29	H	0.213276	0.119060	0.646470
	H30	H	0.773158	0.118889	0.334122
	H31	H	0.769265	0.908355	0.646661
	H32	H	0.333546	0.233077	0.887733
	H33	H	0.651296	0.234182	0.091867
	H34	H	0.336264	0.792156	0.094576
	H35	H	0.650051	0.792374	0.881011
	H36	H	0.334741	0.909964	0.209771
	H37	H	0.651259	0.117380	0.207231
	H38	H	0.335055	0.119750	0.768781
	H39	H	0.648756	0.906404	0.764517
	H40	H	0.887973	0.236623	0.335638
	H41	H	0.100915	0.238685	0.644673
	H42	H	0.099891	0.791305	0.334713
	H43	H	0.884568	0.790816	0.646802
	H44	H	0.211750	0.358741	0.886478
	H45	H	0.214921	0.672786	0.094893
	H46	H	0.771326	0.358241	0.093617
	H47	H	0.770907	0.671925	0.883286
	H48	H	0.406257	0.121462	0.570506
	H49	H	0.586144	0.900996	0.579090
	H50	H	0.578540	0.126178	0.397548
	H51	H	0.411407	0.903961	0.400383
	H52	H	0.586362	0.422729	0.101968
	H53	H	0.578184	0.604195	0.876769
	H54	H	0.403670	0.604843	0.099342
	H55	H	0.400847	0.426301	0.875131
	H56	H	0.106987	0.599044	0.392246
	H57	H	0.880563	0.607373	0.576422
	H58	H	0.104606	0.428839	0.575190
	H59	H	0.876128	0.422121	0.394988
	H60	H	0.104376	0.429191	0.578109
	H61	H	0.884344	0.598829	0.573588
	H62	H	0.108421	0.611974	0.400164
	H63	H	0.880552	0.423011	0.407914
	H64	H	0.405123	0.602400	0.098479
	H65	H	0.582574	0.603700	0.876228
	H66	H	0.582252	0.430253	0.097762
	H67	H	0.404567	0.423876	0.876375
	H68	H	0.585118	0.126321	0.402903
	H69	H	0.572371	0.904119	0.581991
	H70	H	0.392628	0.130671	0.581144
	H71	H	0.399674	0.902077	0.405032
	H72	H	0.905312	0.629016	0.083662
	H73	H	0.079162	0.403101	0.081408
	H74	H	0.083049	0.630428	0.897350
	H75	H	0.906878	0.403290	0.896671
	H76	H	0.070598	0.926985	0.597096
	H77	H	0.086225	0.104630	0.376634
	H78	H	0.902548	0.101135	0.603033
	H79	H	0.902398	0.923040	0.378561
	H80	H	0.605313	0.108633	0.905458
	H81	H	0.381238	0.100592	0.077340
	H82	H	0.605093	0.926382	0.074896
	H83	H	0.381609	0.925480	0.905999
	H84	H	0.604498	0.930245	0.076582
	H85	H	0.376102	0.105435	0.088852
	H86	H	0.602870	0.095842	0.902751
	H87	H	0.382802	0.930805	0.904053
	H88	H	0.907387	0.101592	0.600602
	H89	H	0.080832	0.100508	0.379983
	H90	H	0.083260	0.917096	0.605582
	H91	H	0.905102	0.927004	0.380781
	H92	H	0.076094	0.627621	0.899355
	H93	H	0.081618	0.405055	0.075119
	H94	H	0.910397	0.623508	0.075746
	H95	H	0.908425	0.405394	0.901221
	H96	H	0.410404	0.126775	0.588711
	H97	H	0.578011	0.907444	0.569218
	H98	H	0.586448	0.130157	0.394819
	H99	H	0.401869	0.899208	0.392920
	H100	H	0.577563	0.422257	0.099101
	H101	H	0.580197	0.600358	0.877960
	H102	H	0.406210	0.604937	0.097443
	H103	H	0.401127	0.421989	0.873636
	H104	H	0.102950	0.599491	0.407381
	H105	H	0.880659	0.600008	0.582377
	H106	H	0.105441	0.426671	0.576568
	H107	H	0.881754	0.433558	0.399184
	H108	H	0.900309	0.627414	0.074193
	H109	H	0.085677	0.401841	0.080284
	H110	H	0.082086	0.628289	0.904398
	H111	H	0.903453	0.403350	0.901165
	H112	H	0.086461	0.933897	0.600691
	H113	H	0.079173	0.107504	0.377709
	H114	H	0.905600	0.105861	0.602941
	H115	H	0.907359	0.922557	0.379751
	H116	H	0.607864	0.103521	0.893415
	H117	H	0.376736	0.113009	0.078306
	H118	H	0.605884	0.926702	0.079119
	H119	H	0.380241	0.927174	0.900015
	C120	C	0.370449	0.022441	0.612482
	C121	C	0.612907	1.007176	0.610142
	C122	C	0.615181	0.023563	0.367136
	C123	C	0.372249	1.005666	0.368714
	C124	C	0.614893	0.392500	-0.003757
	C125	C	0.614021	0.635996	0.979523
	C126	C	0.371656	0.637485	-0.004182
	C127	C	0.370593	0.393793	0.979114
	C128	C	0.001494	0.635564	0.368374
	C129	C	0.985391	0.635848	0.610634
	C130	C	0.001200	0.394802	0.610592
	C131	C	0.983655	0.393813	0.368577
	C132	C	0.871915	0.523371	0.109805
	C133	C	0.114991	0.506819	0.111029
	C134	C	0.113660	0.525360	0.867895
	C135	C	0.872314	0.507151	0.866760
	C136	C	0.113927	0.892913	0.498511
	C137	C	0.114377	0.136233	0.481459
	C138	C	0.872485	0.135568	0.499126
	C139	C	0.871045	0.891836	0.482562
	C140	C	0.500634	0.134765	0.869183
	C141	C	0.483426	0.137385	0.111311
	C142	C	0.501536	0.894114	0.109943
	C143	C	0.484676	0.894097	0.868390
	C144	C	0.365886	0.905656	0.674420
	C145	C	0.616715	0.124564	0.671322
	C146	C	0.617155	0.905696	0.307502
	C147	C	0.370394	0.124633	0.310634
	C148	C	0.674947	0.390383	0.878421
	C149	C	0.675321	0.638694	0.096667
	C150	C	0.310825	0.640147	0.878461
	C151	C	0.311359	0.393200	0.097671
	C152	C	0.882341	0.694601	0.367419
	C153	C	0.103040	0.698235	0.614758
	C154	C	0.883478	0.333060	0.614707
	C155	C	0.102162	0.333375	0.365672
	C156	C	0.883834	0.390681	0.672640
	C157	C	0.102899	0.640929	0.672437
	C158	C	0.882877	0.638020	0.308442
	C159	C	0.102517	0.391501	0.308425
	C160	C	0.367865	0.698923	0.878814
	C161	C	0.618533	0.697837	0.096199
	C162	C	0.616775	0.332389	0.878752
	C163	C	0.369140	0.334905	0.097479
	C164	C	0.674213	0.905173	0.366411
	C165	C	0.674617	0.124528	0.613291
	C166	C	0.309716	0.904757	0.614864
	C167	C	0.313027	0.124427	0.368885
	C168	C	0.868407	0.406253	0.170731
	C169	C	0.118157	0.624445	0.171758
	C170	C	0.118031	0.407882	0.806765
	C171	C	0.868689	0.624912	0.806511
	C172	C	0.174162	0.891037	0.380538
	C173	C	0.174134	0.137937	0.599227
	C174	C	0.812846	0.137467	0.381403
	C175	C	0.809766	0.889789	0.599690
	C176	C	0.381337	0.193891	0.868277
	C177	C	0.603332	0.195472	0.111260
	C178	C	0.383238	0.832849	0.112779
	C179	C	0.602720	0.832842	0.863690
	C180	C	0.382533	0.891394	0.170024
	C181	C	0.603546	0.137385	0.168453
	C182	C	0.381897	0.137448	0.809297
	C183	C	0.601923	0.889377	0.805443
	C184	C	0.869847	0.196058	0.381823
	C185	C	0.118134	0.197471	0.598390
	C186	C	0.117440	0.832139	0.381238
	C187	C	0.867134	0.831240	0.599914
	C188	C	0.173323	0.406698	0.866457
	C189	C	0.175003	0.625230	0.112883
	C190	C	0.811629	0.405585	0.111764
	C191	C	0.811289	0.624824	0.864729
	C192	C	0.395985	0.104823	0.587424
	C193	C	0.586439	0.925461	0.584344
	C194	C	0.590489	0.106117	0.391501
	C195	C	0.397092	0.923253	0.392767
	C196	C	0.589416	0.417952	0.078352
	C197	C	0.587713	0.610071	0.898121
	C198	C	0.397778	0.611680	0.077146
	C199	C	0.395046	0.417352	0.896648
	C200	C	0.084575	0.610675	0.392976
	C201	C	0.903206	0.609554	0.584833
	C202	C	0.083401	0.420777	0.584193
	C203	C	0.901126	0.418965	0.393537
	C204	C	0.897943	0.605293	0.084754
	C205	C	0.089569	0.424795	0.086090
	C206	C	0.087803	0.607380	0.893293
	C207	C	0.898574	0.425210	0.892342
	C208	C	0.087658	0.918703	0.580021
	C209	C	0.089262	0.111319	0.399367
	C210	C	0.897893	0.110265	0.580833
	C211	C	0.897443	0.916975	0.400976
	C212	C	0.583730	0.109740	0.893498
	C213	C	0.399808	0.113524	0.088150
	C214	C	0.583768	0.920135	0.084207
	C215	C	0.402784	0.920345	0.895477
	Zn216	Zn	0.492980	0.014447	0.740119
	Zn217	Zn	0.492897	0.015115	0.238795
	Zn218	Zn	0.743334	0.514634	-0.012328
	Zn219	Zn	0.242505	0.516501	-0.012090
	Zn220	Zn	-0.007101	0.763863	0.489960
	Zn221	Zn	-0.006862	0.265221	0.490545
	Zn222	Zn	-0.006383	0.515901	0.738928
	Zn223	Zn	-0.007268	0.515119	0.239473
	Zn224	Zn	0.493392	0.765885	-0.012096
	Zn225	Zn	0.492540	0.264327	-0.011458
	Zn226	Zn	0.743294	0.014517	0.490328
	Zn227	Zn	0.242654	0.014092	0.489802
	N228	N	0.402875	0.980098	0.673059
	N229	N	0.578973	0.050481	0.669331
	N230	N	0.581324	0.980506	0.307856
	N231	N	0.406244	0.049764	0.310017
	N232	N	0.673883	0.427100	0.952665
	N233	N	0.672815	0.601088	0.023051
	N234	N	0.312810	0.602890	0.952269
	N235	N	0.312169	0.429193	0.023153
	N236	N	0.957316	0.693421	0.403711
	N237	N	0.028885	0.695165	0.576847
	N238	N	0.957666	0.335613	0.576665
	N239	N	0.027119	0.334339	0.402115
	N240	N	0.958101	0.428563	0.669852
	N241	N	0.028828	0.602820	0.669838
	N242	N	0.958143	0.602122	0.308949
	N243	N	0.027631	0.428149	0.309582
	N244	N	0.405129	0.697286	0.952835
	N245	N	0.581069	0.696213	0.022346
	N246	N	0.580249	0.333678	0.953145
	N247	N	0.405256	0.335029	0.022848
	N248	N	0.673361	0.979773	0.402727
	N249	N	0.672242	0.050540	0.576045
	N250	N	0.312131	0.978570	0.577314
	N251	N	0.314019	0.049569	0.404577
	N252	N	0.905267	0.480532	0.169588
	N253	N	0.081498	0.549928	0.170835
	N254	N	0.082149	0.482774	0.807279
	N255	N	0.905564	0.550442	0.807590
	N256	N	0.172335	0.927828	0.454627
	N257	N	0.171988	0.100455	0.525470
	N258	N	0.814217	0.100534	0.455430
	N259	N	0.811773	0.926333	0.525582
	N260	N	0.456319	0.192215	0.904739
	N261	N	0.527316	0.196164	0.077086
	N262	N	0.458135	0.834325	0.076171
	N263	N	0.528851	0.835837	0.902346
	N264	N	0.457270	0.928560	0.168568
	N265	N	0.527764	0.102332	0.169009
	N266	N	0.457158	0.101548	0.809591
	N267	N	0.527465	0.926912	0.808408
	N268	N	0.906024	0.195062	0.456147
	N269	N	0.081559	0.196423	0.524176
	N270	N	0.081047	0.832820	0.455769
	N271	N	0.904709	0.832360	0.525936
	N272	N	0.170979	0.480858	0.903557
	N273	N	0.173349	0.550916	0.075928
	N274	N	0.813573	0.479437	0.074600
	N275	N	0.813328	0.550515	0.901372
	O276	O	1.200900	1.225659	0.020437
	H277	H	1.212195	1.244050	0.027255
	H278	H	1.192373	1.230286	0.028530
	O279	O	0.184327	0.049952	1.193857
	H280	H	0.186861	0.039874	1.182696
	H281	H	0.194262	0.057341	1.205271
	O282	O	0.457433	0.305949	0.692015
	H283	H	0.452153	0.309257	0.702158
	H284	H	0.433813	0.297270	0.699864
	O285	O	0.514861	0.652704	0.432972
	H286	H	0.485315	0.647936	0.441018
	H287	H	0.505965	0.665270	0.422797
	O288	O	1.299794	-0.290963	1.296970
	H289	H	1.292253	-0.311136	1.321952
	H290	H	1.306950	-0.307288	1.283928
	O291	O	0.664958	0.597415	0.466318
	H292	H	0.662414	0.581063	0.459177
	H293	H	0.667954	0.612582	0.479997
	O294	O	0.022660	0.813164	-1.183731
	H295	H	0.026713	0.802136	-1.182515
	H296	H	0.039931	0.812513	-1.190888
	O297	O	0.291987	-0.674593	-0.372097
	H298	H	0.285929	-0.648860	-0.359658
	H299	H	0.278560	-0.691194	-0.351642
	O300	O	-0.220506	0.039318	-0.222347
	H301	H	-0.214158	0.024922	-0.227670
	H302	H	-0.227048	0.024653	-0.237328
	O303	O	0.064797	-0.137506	0.074850
	H304	H	0.061664	-0.131022	0.085851
	H305	H	0.053494	-0.129238	0.082724
	O306	O	1.676157	-0.307691	0.300867
	H307	H	1.665565	-0.315997	0.311177
	H308	H	1.671376	-0.328200	0.323859
	O309	O	0.553440	0.460190	0.709614
	H310	H	0.556902	0.473445	0.713325
	H311	H	0.564989	0.441744	0.716427
	O312	O	0.177160	-0.172409	-0.198246
	H313	H	0.173255	-0.135717	-0.208192
	H314	H	0.185266	-0.185136	-0.177522
	O315	O	0.807335	0.202977	0.797291
	H316	H	0.803433	0.196874	0.826594
	H317	H	0.817062	0.168764	0.796632
	O318	O	0.275059	0.734390	0.463001
	H319	H	0.243455	0.755514	0.456784
	H320	H	0.268009	0.714452	0.460385
	O321	O	-0.206001	0.802120	1.019523
	H322	H	-0.214758	0.798525	1.008096
	H323	H	-0.203557	0.787395	1.009474
	O324	O	0.921628	0.116953	0.961845
	H325	H	0.916870	0.110350	0.948868
	H326	H	0.908578	0.125028	0.952659
	O327	O	1.275146	-0.485727	0.358359
	H328	H	1.271488	-0.501219	0.347700
	H329	H	1.275378	-0.506679	0.350906
	O330	O	0.318361	0.329168	0.493789
	H331	H	0.330550	0.315828	0.500893
	H332	H	0.312782	0.320140	0.513507
	O333	O	0.338069	0.644823	0.552365
	H334	H	0.331670	0.642964	0.555436
	H335	H	0.339733	0.631035	0.536238
	O336	O	0.989968	0.015437	0.866752
	H337	H	1.000069	0.025889	0.869737
	H338	H	0.982429	0.006237	0.863878
	O339	O	0.711718	0.545916	0.709272
	H340	H	0.712027	0.561142	0.710974
	H341	H	0.735903	0.537422	0.722703
	O342	O	-0.218302	0.983893	0.207039
	H343	H	-0.242664	0.976118	0.225422
	H344	H	-0.217918	0.964981	0.192533
	O345	O	0.513155	0.724946	0.694508
	H346	H	0.504790	0.725988	0.687989
	H347	H	0.500266	0.740406	0.689768
	O348	O	-0.193662	1.035835	0.984402
	H349	H	-0.190977	1.034772	1.000254
	H350	H	-0.195218	1.044384	0.974106
	O351	O	-0.081650	-0.051209	0.921230
	H352	H	-0.072656	-0.034898	0.934033
	H353	H	-0.090492	-0.049586	0.903157
	O354	O	1.556967	-0.697986	1.532233
	H355	H	1.550407	-0.700246	1.539274
	H356	H	1.554127	-0.698792	1.543825
	O357	O	0.630865	0.518785	0.261469
	H358	H	0.641461	0.503508	0.261779
	H359	H	0.642027	0.531069	0.252418
	O360	O	0.704711	0.443728	0.569195
	H361	H	0.709248	0.447799	0.566713
	H362	H	0.701417	0.456145	0.568918
	O363	O	0.465938	0.732783	0.269907
	H364	H	0.452119	0.748965	0.264574
	H365	H	0.457723	0.731777	0.255678
	O366	O	1.106735	0.204290	0.897910
	H367	H	1.101416	0.196895	0.912899
	H368	H	1.078868	0.197687	0.884223
	O369	O	0.202890	-0.003777	1.016281
	H370	H	0.195604	-0.004724	1.021737
	H371	H	0.193630	-0.014846	1.024643
	O372	O	0.689290	1.505445	0.374258
	H373	H	0.699775	1.500315	0.354005
	H374	H	0.676148	1.492787	0.372223
	O375	O	0.795017	0.218812	0.079758
	H376	H	0.817821	0.221837	0.086954
	H377	H	0.787986	0.225434	0.074864
	O378	O	0.924749	1.047306	1.053704
	H379	H	0.930447	1.052940	1.047380
	H380	H	0.927136	1.054932	1.056915
	O381	O	-0.055308	1.061722	0.168020
	H382	H	-0.056450	1.070714	0.168695
	H383	H	-0.059797	1.068851	0.184923
	O384	O	0.385501	0.556988	0.558005
	H385	H	0.390805	0.558560	0.552782
	H386	H	0.386894	0.537987	0.544251
	O387	O	0.009159	1.097460	1.074466
	H388	H	0.010048	1.092426	1.082101
	H389	H	0.005073	1.093164	1.083437
	O390	O	0.203064	0.988677	0.775672
	H391	H	0.218254	1.002919	0.791812
	H392	H	0.225720	0.989159	0.766441
	O393	O	0.940424	0.127864	0.131210
	H394	H	0.946966	0.139476	0.148399
	H395	H	0.932048	0.108067	0.131840
	O396	O	1.196442	0.221546	0.191883
	H397	H	1.212691	0.246494	0.218922
	H398	H	1.198678	0.197198	0.179920
	O399	O	0.223497	0.233392	0.778099
	H400	H	0.217882	0.218245	0.792111
	H401	H	0.200705	0.221656	0.795373
	O402	O	1.129789	0.073412	0.919128
	H403	H	1.127886	0.088554	0.921625
	H404	H	1.119217	0.071529	0.931191
	O405	O	0.502367	0.472482	0.444937
	H406	H	0.499494	0.468419	0.456440
	H407	H	0.500123	0.469661	0.455567
	O408	O	1.118419	0.844951	1.052444
	H409	H	1.107929	0.847142	1.059681
	H410	H	1.130553	0.836874	1.053575
	O411	O	1.466260	1.724244	0.503556
	H412	H	1.475627	1.708709	0.503159
	H413	H	1.449313	1.729476	0.477465
	O414	O	-0.028825	-0.203488	0.209091
	H415	H	-0.032132	-0.221929	0.230301
	H416	H	-0.047509	-0.196372	0.205056
	O417	O	-0.325386	-0.294559	0.680511
	H418	H	-0.345384	-0.315620	0.691533
	H419	H	-0.342935	-0.287910	0.658634
	O420	O	1.202720	-0.196051	0.965497
	H421	H	1.189749	-0.179305	0.969896
	H422	H	1.230446	-0.222456	0.959578
	O423	O	1.017550	1.229937	0.202538
	H424	H	1.031540	1.239798	0.220750
	H425	H	1.029731	1.222495	0.209667
	O426	O	0.697144	0.310119	0.285323
	H427	H	0.702417	0.305718	0.337529
	H428	H	0.682701	0.295301	0.271313
	O429	O	0.792991	0.812624	0.192598
	H430	H	0.783346	0.789685	0.216967
	H431	H	0.789108	0.819070	0.158347
	O432	O	1.281109	-0.490124	1.358013
	H433	H	1.279879	-0.507863	1.359065
	H434	H	1.291445	-0.502053	1.344235
	O435	O	-0.083522	0.962173	0.805507
	H436	H	-0.076902	0.939371	0.808463
	H437	H	-0.054164	0.967557	0.810321
	O438	O	0.547995	0.499716	0.616829
	H439	H	0.545134	0.504836	0.610291
	H440	H	0.561161	0.497398	0.618687
	O441	O	0.301435	0.326428	0.297108
	H442	H	0.315902	0.336275	0.312934
	H443	H	0.317664	0.341628	0.311957
	O444	O	0.439183	0.441300	0.268590
	H445	H	0.465545	0.463679	0.256853
	H446	H	0.448288	0.443436	0.298914
	O447	O	0.505963	0.529341	0.366282
	H448	H	0.524984	0.530143	0.376333
	H449	H	0.509511	0.527543	0.368960
	O450	O	0.275652	0.486172	-0.297375
	H451	H	0.291477	0.510593	-0.303807
	H452	H	0.246425	0.479230	-0.275194
	O453	O	-0.094079	0.834830	0.845324
	H454	H	-0.085812	0.829699	0.841865
	H455	H	-0.069168	0.826465	0.852317
	O456	O	-0.022982	1.025606	1.067334
	H457	H	-0.038440	1.026684	1.073554
	H458	H	-0.031088	1.015971	1.071153
	O459	O	0.703804	0.733201	0.520023
	H460	H	0.688812	0.728226	0.528069
	H461	H	0.725892	0.761200	0.522238
	O462	O	0.527921	0.292842	0.265843
	H463	H	0.542828	0.286577	0.254745
	H464	H	0.516816	0.294531	0.240116
	O465	O	0.439753	0.553989	0.709463
	H466	H	0.444685	0.556067	0.717494
	H467	H	0.452043	0.549195	0.704250
	O468	O	-0.111936	1.044483	0.024524
	H469	H	-0.124912	1.043929	0.020881
	H470	H	-0.110509	1.026701	0.023929
	O471	O	0.458026	0.297532	0.427463
	H472	H	0.459501	0.295714	0.416511
	H473	H	0.477029	0.289508	0.424512
	O474	O	0.977474	1.226211	-0.222385
	H475	H	0.965205	1.242602	-0.230772
	H476	H	0.956150	1.211257	-0.223503
	O477	O	0.705665	0.305204	0.453058
	H478	H	0.704739	0.295121	0.469527
	H479	H	0.713795	0.312431	0.474875
