data_Molecule from HDF5

_cell_length_a		16.299388
_cell_length_b		16.247008
_cell_length_c		16.256027
_cell_angle_alpha	90.220739
_cell_angle_beta	89.885013
_cell_angle_gamma	89.746188
_symmetry_space_group_name_H-M	'P 1'
_symmetry_Int_Tables_number		1

loop_
	_symmetry_equiv_pos_as_xyz
	x,y,z

loop_
	_atom_site_label
	_atom_site_type_symbol
	_atom_site_fract_x
	_atom_site_fract_y
	_atom_site_fract_z
	H0	H	0.405312	0.841045	0.716948
	H1	H	0.600259	0.169511	0.718705
	H2	H	0.601994	0.842012	0.288853
	H3	H	0.405786	0.170093	0.291563
	H4	H	0.717055	0.404706	0.839948
	H5	H	0.717060	0.605903	0.166438
	H6	H	0.286460	0.603685	0.839968
	H7	H	0.287447	0.408426	0.167409
	H8	H	0.840118	0.720400	0.405136
	H9	H	0.167260	0.719946	0.601950
	H10	H	0.838444	0.292834	0.600189
	H11	H	0.165890	0.290577	0.403864
	H12	H	0.838771	0.407673	0.716615
	H13	H	0.166380	0.604406	0.718537
	H14	H	0.838891	0.603683	0.290786
	H15	H	0.165547	0.406581	0.288246
	H16	H	0.402123	0.720410	0.839354
	H17	H	0.598069	0.718173	0.167886
	H18	H	0.601561	0.289270	0.840233
	H19	H	0.404461	0.292859	0.168209
	H20	H	0.717787	0.841640	0.402804
	H21	H	0.715625	0.170174	0.602065
	H22	H	0.287962	0.841660	0.602121
	H23	H	0.288106	0.169006	0.405506
	H24	H	0.903774	0.341716	0.216951
	H25	H	0.098645	0.668761	0.217538
	H26	H	0.100913	0.340867	0.788741
	H27	H	0.903206	0.669331	0.788786
	H28	H	0.219216	0.904831	0.339827
	H29	H	0.215593	0.104464	0.666858
	H30	H	0.787825	0.103494	0.338884
	H31	H	0.788892	0.908130	0.666778
	H32	H	0.339050	0.221632	0.906123
	H33	H	0.665778	0.219660	0.101394
	H34	H	0.338982	0.792524	0.102034
	H35	H	0.666089	0.789009	0.904208
	H36	H	0.339355	0.907960	0.218748
	H37	H	0.666302	0.103446	0.217571
	H38	H	0.339272	0.106744	0.788370
	H39	H	0.666299	0.905518	0.788323
	H40	H	0.905046	0.218442	0.338136
	H41	H	0.099284	0.219706	0.666880
	H42	H	0.103787	0.789158	0.338953
	H43	H	0.904549	0.791585	0.666229
	H44	H	0.217341	0.341651	0.903109
	H45	H	0.213819	0.669973	0.102394
	H46	H	0.788172	0.341260	0.100779
	H47	H	0.786864	0.669354	0.904665
	H48	H	0.411061	0.122076	0.599637
	H49	H	0.591376	0.890610	0.593470
	H50	H	0.598756	0.125220	0.405852
	H51	H	0.408939	0.886547	0.406065
	H52	H	0.597245	0.416551	0.120514
	H53	H	0.594418	0.591233	0.887629
	H54	H	0.403742	0.603457	0.122657
	H55	H	0.403410	0.418230	0.886799
	H56	H	0.115709	0.590161	0.416185
	H57	H	0.887157	0.602714	0.591553
	H58	H	0.118228	0.417433	0.598747
	H59	H	0.883588	0.411665	0.403221
	H60	H	0.121707	0.406418	0.599727
	H61	H	0.888960	0.593879	0.594951
	H62	H	0.121803	0.593594	0.399150
	H63	H	0.883976	0.406458	0.412212
	H64	H	0.405437	0.595426	0.119559
	H65	H	0.589960	0.600745	0.887014
	H66	H	0.591969	0.412962	0.119190
	H67	H	0.416055	0.415694	0.890169
	H68	H	0.590202	0.121078	0.410726
	H69	H	0.601519	0.888577	0.591549
	H70	H	0.409624	0.120511	0.592844
	H71	H	0.415941	0.890147	0.410942
	H72	H	0.899924	0.624611	0.096583
	H73	H	0.096706	0.385849	0.102111
	H74	H	0.089153	0.623686	0.901201
	H75	H	0.901691	0.389556	0.919295
	H76	H	0.095743	0.918208	0.617342
	H77	H	0.092727	0.097578	0.386563
	H78	H	0.899568	0.099551	0.622578
	H79	H	0.913357	0.909711	0.386305
	H80	H	0.617794	0.094035	0.908592
	H81	H	0.385197	0.101139	0.096325
	H82	H	0.621849	0.906306	0.100156
	H83	H	0.385473	0.913433	0.907582
	H84	H	0.617909	0.910933	0.089749
	H85	H	0.386667	0.098282	0.097828
	H86	H	0.619847	0.099975	0.910311
	H87	H	0.386501	0.910850	0.911345
	H88	H	0.912438	0.091525	0.615728
	H89	H	0.096911	0.101380	0.384422
	H90	H	0.090465	0.912935	0.617730
	H91	H	0.907017	0.911830	0.384474
	H92	H	0.087082	0.617299	0.918784
	H93	H	0.088016	0.391319	0.092986
	H94	H	0.913149	0.622645	0.103889
	H95	H	0.904210	0.383848	0.898554
	H96	H	0.405150	0.123178	0.596957
	H97	H	0.597517	0.887115	0.601359
	H98	H	0.599268	0.122294	0.415948
	H99	H	0.408564	0.889532	0.414956
	H100	H	0.596979	0.410633	0.121817
	H101	H	0.599984	0.599529	0.884642
	H102	H	0.411683	0.602063	0.119693
	H103	H	0.408088	0.406259	0.885072
	H104	H	0.121728	0.606899	0.412259
	H105	H	0.885576	0.600748	0.600360
	H106	H	0.117301	0.410303	0.589404
	H107	H	0.887286	0.416094	0.411766
	H108	H	0.911146	0.619188	0.088495
	H109	H	0.100817	0.387549	0.089525
	H110	H	0.102905	0.623850	0.912505
	H111	H	0.920668	0.391807	0.909631
	H112	H	0.096905	0.911168	0.620339
	H113	H	0.097949	0.095103	0.385571
	H114	H	0.914209	0.107704	0.620442
	H115	H	0.910566	0.916338	0.387494
	H116	H	0.616338	0.095574	0.914337
	H117	H	0.385417	0.100804	0.099918
	H118	H	0.618283	0.917799	0.099977
	H119	H	0.387440	0.915425	0.911887
	C120	C	0.380543	0.013821	0.625122
	C121	C	0.624494	0.997295	0.624332
	C122	C	0.624587	0.014099	0.381805
	C123	C	0.382255	0.997185	0.382243
	C124	C	0.623971	0.383796	0.012111
	C125	C	0.623121	0.626287	0.994893
	C126	C	0.378744	0.628280	0.012239
	C127	C	0.381040	0.385110	0.995598
	C128	C	0.011417	0.626263	0.381278
	C129	C	0.995258	0.627282	0.624510
	C130	C	0.010932	0.383522	0.624111
	C131	C	0.993505	0.383007	0.380512
	C132	C	0.879990	0.514004	0.124433
	C133	C	0.123032	0.496640	0.124108
	C134	C	0.122900	0.513395	0.881660
	C135	C	0.880018	0.496795	0.880870
	C136	C	0.124134	0.884140	0.510694
	C137	C	0.123733	0.126662	0.494282
	C138	C	0.880580	0.127588	0.511265
	C139	C	0.881239	0.884072	0.494126
	C140	C	0.510454	0.126768	0.882320
	C141	C	0.494270	0.127697	0.125817
	C142	C	0.511061	0.884046	0.125221
	C143	C	0.494327	0.883389	0.881371
	C144	C	0.384042	0.890157	0.679781
	C145	C	0.620883	0.120724	0.680033
	C146	C	0.622126	0.890761	0.326745
	C147	C	0.384782	0.120898	0.328349
	C148	C	0.679233	0.384885	0.888782
	C149	C	0.678347	0.625106	0.118005
	C150	C	0.323925	0.625109	0.888892
	C151	C	0.325223	0.387545	0.118601
	C152	C	0.888768	0.682307	0.384663
	C153	C	0.118217	0.682330	0.622314
	C154	C	0.887385	0.329604	0.621413
	C155	C	0.116858	0.328222	0.383172
	C156	C	0.887556	0.386949	0.679028
	C157	C	0.117896	0.624378	0.680114
	C158	C	0.888200	0.624507	0.327590
	C159	C	0.116673	0.385780	0.325545
	C160	C	0.381578	0.682735	0.888563
	C161	C	0.619685	0.681356	0.118415
	C162	C	0.621853	0.327622	0.889008
	C163	C	0.383854	0.330733	0.119230
	C164	C	0.679896	0.890766	0.383481
	C165	C	0.678540	0.120970	0.622574
	C166	C	0.326010	0.890354	0.622379
	C167	C	0.326284	0.120300	0.384946
	C168	C	0.883420	0.390477	0.178841
	C169	C	0.119425	0.620171	0.179252
	C170	C	0.120872	0.389907	0.826385
	C171	C	0.882929	0.620543	0.826615
	C172	C	0.180578	0.885053	0.388152
	C173	C	0.178244	0.124566	0.617686
	C174	C	0.825879	0.124241	0.387598
	C175	C	0.826421	0.887148	0.617786
	C176	C	0.387773	0.183275	0.885097
	C177	C	0.617213	0.181863	0.122223
	C178	C	0.387696	0.830567	0.122217
	C179	C	0.617228	0.827058	0.883676
	C180	C	0.388112	0.887470	0.180538
	C181	C	0.617445	0.124301	0.179865
	C182	C	0.387918	0.125998	0.826804
	C183	C	0.617455	0.884968	0.826014
	C184	C	0.883970	0.181423	0.387338
	C185	C	0.120422	0.181809	0.617748
	C186	C	0.123165	0.827716	0.387747
	C187	C	0.884063	0.829581	0.617507
	C188	C	0.179012	0.390411	0.883091
	C189	C	0.176697	0.620582	0.122092
	C190	C	0.826022	0.390194	0.121117
	C191	C	0.824711	0.620358	0.883669
	C192	C	0.402274	0.099602	0.603041
	C193	C	0.603130	0.911266	0.602030
	C194	C	0.602443	0.100662	0.404272
	C195	C	0.404717	0.910935	0.404106
	C196	C	0.601786	0.406618	0.098222
	C197	C	0.601140	0.603835	0.908822
	C198	C	0.400548	0.606835	0.098404
	C199	C	0.402929	0.406943	0.909570
	C200	C	0.097576	0.603543	0.402799
	C201	C	0.909424	0.605500	0.602195
	C202	C	0.096663	0.404895	0.602364
	C203	C	0.907335	0.405129	0.402540
	C204	C	0.901680	0.599893	0.102764
	C205	C	0.101498	0.410541	0.101644
	C206	C	0.099970	0.599408	0.904165
	C207	C	0.902415	0.410848	0.902572
	C208	C	0.101020	0.907184	0.596360
	C209	C	0.102223	0.104577	0.407792
	C210	C	0.902429	0.106055	0.597277
	C211	C	0.903663	0.906024	0.408161
	C212	C	0.595923	0.103341	0.904647
	C213	C	0.407976	0.106227	0.104497
	C214	C	0.597100	0.905337	0.103048
	C215	C	0.408765	0.906459	0.903768
	Zn216	Zn	0.502590	0.005761	0.752940
	Zn217	Zn	0.503130	0.005703	0.253760
	Zn218	Zn	0.751541	0.505296	0.002875
	Zn219	Zn	0.251093	0.505460	0.003436
	Zn220	Zn	0.003788	0.755617	0.502511
	Zn221	Zn	0.002506	0.255619	0.502478
	Zn222	Zn	0.002123	0.505113	0.752829
	Zn223	Zn	0.002135	0.505292	0.252502
	Zn224	Zn	0.501964	0.754951	0.003309
	Zn225	Zn	0.502466	0.256043	0.003992
	Zn226	Zn	0.752623	0.005568	0.502886
	Zn227	Zn	0.252371	0.005093	0.502814
	N228	N	0.417172	0.967866	0.681642
	N229	N	0.588018	0.042852	0.681411
	N230	N	0.588476	0.968515	0.325686
	N231	N	0.418590	0.043247	0.326564
	N232	N	0.680436	0.419205	0.966256
	N233	N	0.680388	0.591456	0.040239
	N234	N	0.321978	0.592138	0.966711
	N235	N	0.323437	0.420581	0.040832
	N236	N	0.966479	0.683330	0.417566
	N237	N	0.040726	0.684532	0.588782
	N238	N	0.964882	0.327455	0.587902
	N239	N	0.039266	0.326504	0.416663
	N240	N	0.965191	0.419779	0.680991
	N241	N	0.040421	0.591073	0.681727
	N242	N	0.965521	0.590341	0.325494
	N243	N	0.038909	0.419100	0.323798
	N244	N	0.415009	0.684894	0.966282
	N245	N	0.585873	0.681990	0.040934
	N246	N	0.588476	0.326533	0.966776
	N247	N	0.417926	0.328973	0.041824
	N248	N	0.681395	0.968706	0.417033
	N249	N	0.680607	0.043430	0.588458
	N250	N	0.323623	0.968104	0.589252
	N251	N	0.324558	0.042294	0.417679
	N252	N	0.916161	0.468292	0.181263
	N253	N	0.086637	0.542409	0.180593
	N254	N	0.086579	0.467366	0.825458
	N255	N	0.916353	0.542720	0.824507
	N256	N	0.181291	0.919464	0.465579
	N257	N	0.180150	0.090723	0.539896
	N258	N	0.823742	0.091468	0.465444
	N259	N	0.824591	0.920122	0.539895
	N260	N	0.465005	0.183916	0.918822
	N261	N	0.539616	0.184023	0.089327
	N262	N	0.465194	0.828131	0.088566
	N263	N	0.539750	0.825938	0.917312
	N264	N	0.465810	0.920079	0.182390
	N265	N	0.539950	0.091368	0.182110
	N266	N	0.465230	0.091547	0.825169
	N267	N	0.540094	0.919206	0.824379
	N268	N	0.917348	0.183557	0.465114
	N269	N	0.087327	0.183019	0.540076
	N270	N	0.088579	0.827379	0.465091
	N271	N	0.917494	0.827562	0.539954
	N272	N	0.180186	0.468199	0.916927
	N273	N	0.178773	0.542788	0.088266
	N274	N	0.823869	0.467915	0.087823
	N275	N	0.822989	0.542658	0.916922
	O276	O	0.501888	0.479900	0.573759
	H277	H	0.497054	0.483740	0.568714
	H278	H	0.498175	0.483018	0.572629
	O279	O	0.074175	-0.053082	-0.096892
	H280	H	0.072073	-0.055292	-0.106790
	H281	H	0.082823	-0.057289	-0.103554
	O282	O	0.531219	0.555711	0.507458
	H283	H	0.542231	0.549527	0.508596
	H284	H	0.539186	0.558018	0.509445
	O285	O	0.540083	0.521861	0.603136
	H286	H	0.545392	0.519164	0.594064
	H287	H	0.534217	0.511801	0.610159
	O288	O	1.082850	-0.030328	-0.066200
	H289	H	1.086275	-0.036736	-0.065954
	H290	H	1.079910	-0.042827	-0.063232
	O291	O	-0.471677	0.529711	-0.477010
	H292	H	-0.468628	0.534950	-0.475243
	H293	H	-0.474482	0.525628	-0.477328
	O294	O	0.538430	0.491802	0.580429
	H295	H	0.542970	0.486850	0.586294
	H296	H	0.528842	0.494030	0.580040
	O297	O	0.051317	0.980776	-0.057373
	H298	H	0.050118	0.981075	-0.066228
	H299	H	0.054644	0.968792	-0.056968
	O300	O	1.064436	-0.021950	0.884621
	H301	H	1.066892	-0.011488	0.889129
	H302	H	1.065996	-0.025454	0.878154
	O303	O	0.561405	0.537814	0.540644
	H304	H	0.567549	0.543167	0.545931
	H305	H	0.551765	0.531612	0.549581
	O306	O	0.063395	1.006756	0.923189
	H307	H	0.062191	1.005876	0.924903
	H308	H	0.066114	1.014400	0.927687
	O309	O	0.468639	0.545294	0.569215
	H310	H	0.471539	0.548306	0.570667
	H311	H	0.470109	0.546698	0.565067
