data_Molecule from HDF5

_cell_length_a		16.245763
_cell_length_b		16.286637
_cell_length_c		16.264400
_cell_angle_alpha	90.070903
_cell_angle_beta	90.062569
_cell_angle_gamma	90.217876
_symmetry_space_group_name_H-M	'P 1'
_symmetry_Int_Tables_number		1

loop_
	_symmetry_equiv_pos_as_xyz
	x,y,z

loop_
	_atom_site_label
	_atom_site_type_symbol
	_atom_site_fract_x
	_atom_site_fract_y
	_atom_site_fract_z
	H0	H	0.404789	0.841898	0.715623
	H1	H	0.604447	0.169143	0.717814
	H2	H	0.603019	0.842250	0.286847
	H3	H	0.406830	0.169967	0.287566
	H4	H	0.717186	0.408657	0.837982
	H5	H	0.718706	0.604255	0.167128
	H6	H	0.291071	0.603978	0.839235
	H7	H	0.290433	0.406882	0.166064
	H8	H	0.840862	0.720915	0.401908
	H9	H	0.169197	0.721277	0.599393
	H10	H	0.841425	0.291108	0.601309
	H11	H	0.169294	0.292124	0.403471
	H12	H	0.841050	0.407455	0.716290
	H13	H	0.169621	0.605854	0.716605
	H14	H	0.841390	0.603580	0.287295
	H15	H	0.169959	0.408544	0.287359
	H16	H	0.405826	0.720060	0.838903
	H17	H	0.604826	0.721989	0.165711
	H18	H	0.603862	0.291656	0.838784
	H19	H	0.406646	0.291124	0.166161
	H20	H	0.719331	0.842744	0.402440
	H21	H	0.718848	0.170424	0.600304
	H22	H	0.289645	0.842318	0.599170
	H23	H	0.290823	0.170373	0.404649
	H24	H	0.907070	0.342780	0.216876
	H25	H	0.104426	0.670708	0.215652
	H26	H	0.104278	0.343306	0.786274
	H27	H	0.907998	0.669794	0.789410
	H28	H	0.217976	0.908950	0.338128
	H29	H	0.218842	0.104913	0.666332
	H30	H	0.789736	0.105403	0.338105
	H31	H	0.789647	0.907670	0.666192
	H32	H	0.340834	0.219718	0.903110
	H33	H	0.668492	0.221005	0.100640
	H34	H	0.341230	0.789997	0.100901
	H35	H	0.669189	0.792488	0.904244
	H36	H	0.340490	0.905795	0.216490
	H37	H	0.669102	0.104684	0.215784
	H38	H	0.339732	0.102185	0.788314
	H39	H	0.668362	0.907154	0.787095
	H40	H	0.906351	0.221318	0.338588
	H41	H	0.104389	0.222573	0.666122
	H42	H	0.103335	0.791741	0.338495
	H43	H	0.904670	0.791143	0.665467
	H44	H	0.219417	0.342851	0.903549
	H45	H	0.221122	0.669447	0.101985
	H46	H	0.790566	0.341972	0.101005
	H47	H	0.791282	0.669085	0.904823
	H48	H	0.416854	0.119113	0.591417
	H49	H	0.594563	0.892939	0.588065
	H50	H	0.596565	0.122488	0.406064
	H51	H	0.408365	0.890145	0.410722
	H52	H	0.592847	0.403595	0.121195
	H53	H	0.596278	0.598878	0.886530
	H54	H	0.404386	0.599661	0.122567
	H55	H	0.411659	0.398110	0.881484
	H56	H	0.122808	0.605043	0.410915
	H57	H	0.888429	0.596788	0.597591
	H58	H	0.120027	0.414406	0.587329
	H59	H	0.885246	0.408563	0.400541
	H60	H	0.120990	0.421122	0.598623
	H61	H	0.887442	0.601634	0.597411
	H62	H	0.119877	0.597378	0.412079
	H63	H	0.890478	0.408561	0.418368
	H64	H	0.416963	0.589942	0.115135
	H65	H	0.599193	0.601828	0.885221
	H66	H	0.607485	0.413523	0.121441
	H67	H	0.399824	0.420238	0.884803
	H68	H	0.595163	0.120922	0.410450
	H69	H	0.604436	0.887253	0.594362
	H70	H	0.405412	0.124421	0.594766
	H71	H	0.411129	0.889025	0.405783
	H72	H	0.903553	0.623390	0.089310
	H73	H	0.098594	0.388896	0.098588
	H74	H	0.096836	0.621407	0.912835
	H75	H	0.919220	0.391937	0.911787
	H76	H	0.089957	0.910862	0.617766
	H77	H	0.095581	0.093711	0.387707
	H78	H	0.905497	0.097210	0.619656
	H79	H	0.911735	0.916418	0.386602
	H80	H	0.623881	0.103575	0.902745
	H81	H	0.391258	0.085445	0.097825
	H82	H	0.621377	0.913675	0.094518
	H83	H	0.384873	0.906194	0.902670
	H84	H	0.621034	0.914490	0.095088
	H85	H	0.383014	0.106422	0.104075
	H86	H	0.620275	0.102676	0.916438
	H87	H	0.389495	0.909293	0.916655
	H88	H	0.916467	0.095043	0.615688
	H89	H	0.093396	0.105077	0.385133
	H90	H	0.103090	0.907654	0.622418
	H91	H	0.913305	0.910786	0.385945
	H92	H	0.102608	0.623557	0.910295
	H93	H	0.094747	0.391181	0.094707
	H94	H	0.911563	0.625346	0.105331
	H95	H	0.904094	0.388907	0.913830
	H96	H	0.414954	0.123242	0.602795
	H97	H	0.592930	0.889066	0.600540
	H98	H	0.599402	0.123213	0.410387
	H99	H	0.413775	0.891427	0.410012
	H100	H	0.592801	0.420004	0.115683
	H101	H	0.600634	0.597607	0.885610
	H102	H	0.419865	0.606661	0.119446
	H103	H	0.424842	0.418030	0.890733
	H104	H	0.122802	0.599586	0.404381
	H105	H	0.889272	0.598697	0.592767
	H106	H	0.124436	0.408550	0.597871
	H107	H	0.892036	0.424012	0.408645
	H108	H	0.920660	0.619125	0.091021
	H109	H	0.100200	0.389520	0.093378
	H110	H	0.097342	0.623743	0.905995
	H111	H	0.910554	0.385868	0.900255
	H112	H	0.099748	0.921149	0.617773
	H113	H	0.103589	0.100507	0.383527
	H114	H	0.913622	0.105387	0.619759
	H115	H	0.907982	0.912341	0.384381
	H116	H	0.619322	0.091848	0.908068
	H117	H	0.389584	0.102482	0.082005
	H118	H	0.621264	0.913770	0.095827
	H119	H	0.389337	0.919291	0.906472
	C120	C	0.382906	0.014208	0.624249
	C121	C	0.626152	0.997980	0.623317
	C122	C	0.626143	0.014150	0.380115
	C123	C	0.382849	0.998318	0.380404
	C124	C	0.626330	0.384255	0.010899
	C125	C	0.627388	0.627944	0.994018
	C126	C	0.384149	0.627116	0.011346
	C127	C	0.383104	0.383630	0.993935
	C128	C	0.013497	0.628797	0.380240
	C129	C	0.996804	0.628035	0.624036
	C130	C	0.013496	0.385426	0.623593
	C131	C	0.997515	0.385373	0.380643
	C132	C	0.883262	0.514389	0.124074
	C133	C	0.126896	0.497980	0.124105
	C134	C	0.127024	0.515002	0.880797
	C135	C	0.883342	0.497296	0.880611
	C136	C	0.125500	0.885347	0.510567
	C137	C	0.126545	0.128657	0.493793
	C138	C	0.883145	0.128246	0.510268
	C139	C	0.882409	0.884654	0.493970
	C140	C	0.512973	0.127385	0.880161
	C141	C	0.496416	0.127070	0.123367
	C142	C	0.512940	0.884720	0.123263
	C143	C	0.496357	0.883781	0.880347
	C144	C	0.384859	0.890584	0.677955
	C145	C	0.624428	0.120683	0.679445
	C146	C	0.623734	0.891258	0.324663
	C147	C	0.385755	0.121208	0.325325
	C148	C	0.679994	0.387942	0.887175
	C149	C	0.681884	0.625099	0.117610
	C150	C	0.328924	0.624539	0.887925
	C151	C	0.328406	0.386531	0.117186
	C152	C	0.889839	0.682981	0.382184
	C153	C	0.120168	0.683753	0.620901
	C154	C	0.890143	0.329855	0.621071
	C155	C	0.120554	0.330113	0.382709
	C156	C	0.890089	0.387271	0.678565
	C157	C	0.120384	0.626492	0.679015
	C158	C	0.890222	0.625221	0.324921
	C159	C	0.120949	0.388224	0.325449
	C160	C	0.386250	0.681955	0.887803
	C161	C	0.625201	0.683677	0.117043
	C162	C	0.623917	0.329491	0.887676
	C163	C	0.385638	0.328484	0.116970
	C164	C	0.681638	0.891603	0.382019
	C165	C	0.681112	0.121307	0.621025
	C166	C	0.327323	0.891081	0.620395
	C167	C	0.328477	0.121580	0.383649
	C168	C	0.886367	0.391451	0.178929
	C169	C	0.125272	0.621369	0.178821
	C170	C	0.124516	0.391837	0.825018
	C171	C	0.886851	0.620650	0.826390
	C172	C	0.180492	0.888158	0.387095
	C173	C	0.181221	0.125832	0.617542
	C174	C	0.827775	0.125689	0.386940
	C175	C	0.827776	0.887559	0.617241
	C176	C	0.389627	0.182098	0.882656
	C177	C	0.619827	0.182472	0.120605
	C178	C	0.389830	0.828721	0.121008
	C179	C	0.620023	0.829737	0.883271
	C180	C	0.389492	0.886124	0.178674
	C181	C	0.620139	0.124953	0.178047
	C182	C	0.389067	0.123517	0.825777
	C183	C	0.619763	0.886945	0.825457
	C184	C	0.885661	0.183470	0.387118
	C185	C	0.124421	0.184218	0.617467
	C186	C	0.123280	0.830214	0.387222
	C187	C	0.884759	0.829679	0.617000
	C188	C	0.181701	0.391623	0.883306
	C189	C	0.183068	0.620939	0.121965
	C190	C	0.828234	0.391204	0.121772
	C191	C	0.828704	0.620327	0.883749
	C192	C	0.405627	0.100031	0.602776
	C193	C	0.603813	0.912052	0.600943
	C194	C	0.603671	0.100027	0.402526
	C195	C	0.404560	0.912454	0.402368
	C196	C	0.604430	0.406135	0.097317
	C197	C	0.605173	0.606025	0.908006
	C198	C	0.406866	0.605122	0.097035
	C199	C	0.405402	0.405666	0.907921
	C200	C	0.099413	0.607184	0.402641
	C201	C	0.910772	0.605586	0.602443
	C202	C	0.099555	0.408077	0.601260
	C203	C	0.911535	0.407263	0.402799
	C204	C	0.905411	0.600580	0.101644
	C205	C	0.104399	0.412127	0.102154
	C206	C	0.105275	0.600705	0.903102
	C207	C	0.904936	0.411043	0.902279
	C208	C	0.103819	0.906882	0.596932
	C209	C	0.104042	0.106540	0.407901
	C210	C	0.905425	0.105918	0.596015
	C211	C	0.904658	0.906676	0.407812
	C212	C	0.599159	0.105636	0.902478
	C213	C	0.410213	0.104638	0.101298
	C214	C	0.598876	0.907368	0.101551
	C215	C	0.410014	0.905215	0.902100
	Zn216	Zn	0.504418	0.005189	0.752110
	Zn217	Zn	0.504509	0.005889	0.251543
	Zn218	Zn	0.754831	0.505206	0.002508
	Zn219	Zn	0.255511	0.506184	0.002826
	Zn220	Zn	0.003937	0.756775	0.502217
	Zn221	Zn	0.005300	0.256729	0.502447
	Zn222	Zn	0.005356	0.505974	0.752226
	Zn223	Zn	0.005862	0.506921	0.252007
	Zn224	Zn	0.505089	0.755948	0.001987
	Zn225	Zn	0.505069	0.255674	0.002060
	Zn226	Zn	0.754449	0.006212	0.501929
	Zn227	Zn	0.254033	0.006810	0.502496
	N228	N	0.418487	0.968120	0.680607
	N229	N	0.590875	0.042961	0.681118
	N230	N	0.589677	0.968580	0.323456
	N231	N	0.418832	0.043600	0.323169
	N232	N	0.681676	0.421210	0.964893
	N233	N	0.683308	0.591050	0.040087
	N234	N	0.327772	0.590897	0.965439
	N235	N	0.326654	0.419953	0.039576
	N236	N	0.967514	0.685386	0.415946
	N237	N	0.042270	0.685044	0.587421
	N238	N	0.967834	0.328610	0.587572
	N239	N	0.042955	0.328265	0.416431
	N240	N	0.967779	0.421263	0.680023
	N241	N	0.042990	0.592229	0.680754
	N242	N	0.967953	0.592136	0.323770
	N243	N	0.043231	0.421763	0.323946
	N244	N	0.419993	0.683642	0.965438
	N245	N	0.592156	0.685639	0.039235
	N246	N	0.591117	0.327087	0.965740
	N247	N	0.418930	0.326557	0.039186
	N248	N	0.682871	0.968995	0.415920
	N249	N	0.682209	0.044006	0.586840
	N250	N	0.326145	0.968888	0.587538
	N251	N	0.326626	0.044093	0.417183
	N252	N	0.919740	0.469334	0.180509
	N253	N	0.090962	0.544160	0.180115
	N254	N	0.091205	0.469285	0.823356
	N255	N	0.919927	0.542962	0.824257
	N256	N	0.181937	0.921768	0.464806
	N257	N	0.182499	0.092038	0.539950
	N258	N	0.826200	0.092063	0.464418
	N259	N	0.825928	0.920784	0.539487
	N260	N	0.467690	0.184426	0.915839
	N261	N	0.542022	0.183840	0.087403
	N262	N	0.467455	0.827630	0.087404
	N263	N	0.542234	0.827656	0.916652
	N264	N	0.466908	0.920539	0.179872
	N265	N	0.542410	0.091050	0.179753
	N266	N	0.466756	0.090354	0.824180
	N267	N	0.541956	0.919938	0.823704
	N268	N	0.919388	0.185096	0.464690
	N269	N	0.091274	0.186211	0.539610
	N270	N	0.089846	0.828416	0.464932
	N271	N	0.918196	0.827955	0.539242
	N272	N	0.183289	0.469093	0.917258
	N273	N	0.184309	0.543229	0.088568
	N274	N	0.826510	0.468583	0.088219
	N275	N	0.826609	0.542613	0.916757
	O276	O	0.548185	0.485696	0.483047
	H277	H	0.549869	0.479729	0.482643
	H278	H	0.559823	0.493363	0.492233
	O279	O	-0.014612	0.007354	0.041405
	H280	H	-0.017529	0.009349	0.034001
	H281	H	-0.014727	0.016823	0.045608
	O282	O	0.529623	0.525443	0.506813
	H283	H	0.529660	0.520617	0.509350
	H284	H	0.528192	0.531342	0.515093
	O285	O	0.533181	0.500102	0.519258
	H286	H	0.536864	0.490706	0.518454
	H287	H	0.536434	0.501653	0.518976
	O288	O	1.000289	-0.027943	0.008044
	H289	H	0.995496	-0.027231	0.008072
	H290	H	0.996381	-0.033125	0.006171
	O291	O	-0.493650	0.499997	-0.471585
	H292	H	-0.495838	0.489464	-0.473063
	H293	H	-0.495823	0.508910	-0.467084
	O294	O	0.490697	0.488599	0.491599
	H295	H	0.493260	0.486459	0.480695
	H296	H	0.495143	0.484093	0.490086
	O297	O	0.021170	1.041503	0.019425
	H298	H	0.022357	1.030786	0.022803
	H299	H	0.021480	1.042174	0.020461
	O300	O	0.990570	-0.033075	1.029652
	H301	H	0.998064	-0.033063	1.031793
	H302	H	0.997366	-0.030943	1.034085
	O303	O	0.496983	0.463674	0.476851
	H304	H	0.501545	0.470610	0.469597
	H305	H	0.490143	0.464882	0.476405
	O306	O	-0.000459	0.990678	0.998702
	H307	H	0.001239	0.992120	1.003976
	H308	H	-0.000554	0.993273	1.002791
	O309	O	0.515789	0.490681	0.524057
	H310	H	0.516609	0.493283	0.519581
	H311	H	0.507997	0.493989	0.529703
