data_Molecule from HDF5

_cell_length_a		16.278996
_cell_length_b		16.263469
_cell_length_c		16.202767
_cell_angle_alpha	90.023369
_cell_angle_beta	89.942724
_cell_angle_gamma	89.869430
_symmetry_space_group_name_H-M	'P 1'
_symmetry_Int_Tables_number		1

loop_
	_symmetry_equiv_pos_as_xyz
	x,y,z

loop_
	_atom_site_label
	_atom_site_type_symbol
	_atom_site_fract_x
	_atom_site_fract_y
	_atom_site_fract_z
	H0	H	0.400867	0.831028	0.713915
	H1	H	0.596387	0.159308	0.713270
	H2	H	0.597794	0.830826	0.286938
	H3	H	0.402186	0.159073	0.285873
	H4	H	0.716394	0.394844	0.836025
	H5	H	0.713847	0.593805	0.164133
	H6	H	0.286840	0.593101	0.835181
	H7	H	0.285403	0.395879	0.164192
	H8	H	0.836882	0.710014	0.400478
	H9	H	0.163835	0.708791	0.599777
	H10	H	0.836565	0.280766	0.598616
	H11	H	0.164110	0.277602	0.399684
	H12	H	0.836343	0.395950	0.715056
	H13	H	0.163968	0.591126	0.713441
	H14	H	0.836985	0.593162	0.286580
	H15	H	0.164608	0.395349	0.284349
	H16	H	0.402564	0.708113	0.835771
	H17	H	0.598229	0.708671	0.163971
	H18	H	0.599290	0.280919	0.835166
	H19	H	0.400845	0.280175	0.164307
	H20	H	0.713884	0.830825	0.400391
	H21	H	0.714844	0.158456	0.599541
	H22	H	0.286423	0.831041	0.598651
	H23	H	0.283040	0.158047	0.399669
	H24	H	0.901587	0.330949	0.215572
	H25	H	0.097265	0.659815	0.213421
	H26	H	0.098582	0.331045	0.786250
	H27	H	0.901897	0.659223	0.786171
	H28	H	0.215128	0.894975	0.335888
	H29	H	0.213871	0.093067	0.664854
	H30	H	0.785711	0.092917	0.335013
	H31	H	0.784981	0.896038	0.663701
	H32	H	0.336546	0.210840	0.901101
	H33	H	0.663785	0.210673	0.100010
	H34	H	0.336408	0.780781	0.098583
	H35	H	0.664264	0.780306	0.901230
	H36	H	0.336306	0.898412	0.213386
	H37	H	0.664664	0.092700	0.214286
	H38	H	0.334961	0.092283	0.787733
	H39	H	0.662728	0.895729	0.784106
	H40	H	0.899741	0.209802	0.335856
	H41	H	0.097962	0.207778	0.664806
	H42	H	0.097736	0.780461	0.335504
	H43	H	0.902528	0.782279	0.665173
	H44	H	0.215498	0.331452	0.901264
	H45	H	0.215076	0.658785	0.099870
	H46	H	0.785122	0.330949	0.099530
	H47	H	0.785574	0.658802	0.900955
	H48	H	0.410303	0.111781	0.597045
	H49	H	0.599042	0.877180	0.588464
	H50	H	0.590007	0.108492	0.416043
	H51	H	0.407075	0.878494	0.407918
	H52	H	0.593163	0.407812	0.115373
	H53	H	0.599683	0.595267	0.878749
	H54	H	0.408015	0.591181	0.118188
	H55	H	0.408679	0.401430	0.882338
	H56	H	0.113953	0.580706	0.411202
	H57	H	0.884287	0.584691	0.595133
	H58	H	0.114940	0.401576	0.586496
	H59	H	0.885520	0.401653	0.410678
	H60	H	0.117050	0.405388	0.598018
	H61	H	0.881660	0.591548	0.595694
	H62	H	0.119069	0.587535	0.399263
	H63	H	0.885854	0.405022	0.409406
	H64	H	0.403684	0.587080	0.118439
	H65	H	0.597595	0.577588	0.883464
	H66	H	0.588199	0.399741	0.115929
	H67	H	0.405643	0.401912	0.882412
	H68	H	0.603178	0.115323	0.407306
	H69	H	0.592325	0.876815	0.598394
	H70	H	0.407837	0.109774	0.587574
	H71	H	0.405972	0.878007	0.406899
	H72	H	0.905571	0.611009	0.090242
	H73	H	0.103249	0.375256	0.094927
	H74	H	0.096895	0.612856	0.907003
	H75	H	0.914338	0.383569	0.916242
	H76	H	0.101868	0.901971	0.619694
	H77	H	0.094689	0.091149	0.380894
	H78	H	0.908208	0.087974	0.616882
	H79	H	0.911243	0.895422	0.381493
	H80	H	0.615506	0.083784	0.905351
	H81	H	0.384462	0.093034	0.087986
	H82	H	0.616079	0.908572	0.095713
	H83	H	0.381151	0.898139	0.903248
	H84	H	0.620718	0.894952	0.098408
	H85	H	0.385424	0.082589	0.091946
	H86	H	0.617297	0.090625	0.904733
	H87	H	0.382690	0.898254	0.911049
	H88	H	0.904973	0.087501	0.617770
	H89	H	0.095956	0.079584	0.384722
	H90	H	0.089959	0.906529	0.614993
	H91	H	0.900688	0.901281	0.380430
	H92	H	0.092502	0.612627	0.903008
	H93	H	0.085834	0.378065	0.099008
	H94	H	0.903645	0.612854	0.095721
	H95	H	0.896554	0.375973	0.909938
	H96	H	0.401041	0.114303	0.593884
	H97	H	0.587166	0.881523	0.588647
	H98	H	0.587750	0.112533	0.398589
	H99	H	0.408362	0.878769	0.406456
	H100	H	0.597055	0.399664	0.119541
	H101	H	0.583135	0.589493	0.884646
	H102	H	0.409256	0.585988	0.116365
	H103	H	0.407656	0.404106	0.883676
	H104	H	0.118096	0.594813	0.411526
	H105	H	0.883646	0.588701	0.589036
	H106	H	0.119678	0.393693	0.595293
	H107	H	0.884899	0.402661	0.406577
	H108	H	0.909987	0.611255	0.094440
	H109	H	0.092389	0.382271	0.082697
	H110	H	0.092036	0.611438	0.908462
	H111	H	0.912372	0.376801	0.897144
	H112	H	0.090569	0.892472	0.618632
	H113	H	0.085144	0.085074	0.385801
	H114	H	0.907210	0.085276	0.616033
	H115	H	0.909835	0.907010	0.385515
	H116	H	0.615552	0.088552	0.910906
	H117	H	0.382476	0.090044	0.098739
	H118	H	0.615246	0.897727	0.084962
	H119	H	0.383790	0.904409	0.906818
	C120	C	0.378093	0.003476	0.621413
	C121	C	0.621417	0.986573	0.621260
	C122	C	0.621626	0.003507	0.378664
	C123	C	0.377797	0.986651	0.377970
	C124	C	0.622125	0.373501	0.008130
	C125	C	0.621527	0.615955	0.991145
	C126	C	0.378785	0.616305	0.008732
	C127	C	0.378883	0.373801	0.991569
	C128	C	0.009026	0.616477	0.378455
	C129	C	0.991573	0.616017	0.621612
	C130	C	0.008772	0.372260	0.622300
	C131	C	0.992896	0.373225	0.378697
	C132	C	0.878280	0.503395	0.122085
	C133	C	0.121858	0.486851	0.121298
	C134	C	0.122262	0.503642	0.878148
	C135	C	0.878849	0.486844	0.878702
	C136	C	0.122111	0.872146	0.508828
	C137	C	0.121031	0.114713	0.492105
	C138	C	0.877936	0.116167	0.508269
	C139	C	0.878634	0.872807	0.491436
	C140	C	0.507925	0.116124	0.878681
	C141	C	0.492160	0.117180	0.122154
	C142	C	0.508995	0.872525	0.121682
	C143	C	0.491160	0.872410	0.878346
	C144	C	0.380885	0.880034	0.676092
	C145	C	0.618046	0.110059	0.676325
	C146	C	0.618656	0.879937	0.323920
	C147	C	0.380894	0.109749	0.323101
	C148	C	0.677653	0.375301	0.884756
	C149	C	0.675960	0.613641	0.115076
	C150	C	0.323832	0.613951	0.884762
	C151	C	0.323531	0.375748	0.115265
	C152	C	0.885806	0.671649	0.380635
	C153	C	0.115017	0.670604	0.619165
	C154	C	0.885285	0.318180	0.619430
	C155	C	0.115435	0.316165	0.379712
	C156	C	0.885181	0.375579	0.677252
	C157	C	0.115254	0.612213	0.675703
	C158	C	0.885899	0.614090	0.323686
	C159	C	0.115897	0.374899	0.322852
	C160	C	0.381596	0.670839	0.884935
	C161	C	0.618609	0.670835	0.115056
	C162	C	0.619563	0.318477	0.884311
	C163	C	0.381374	0.318895	0.115483
	C164	C	0.676833	0.880144	0.380136
	C165	C	0.676712	0.109691	0.619589
	C166	C	0.323919	0.879931	0.618611
	C167	C	0.322142	0.109471	0.380051
	C168	C	0.881043	0.379794	0.177394
	C169	C	0.118135	0.610634	0.175889
	C170	C	0.119250	0.380118	0.823849
	C171	C	0.881491	0.610188	0.823787
	C172	C	0.177110	0.874622	0.385088
	C173	C	0.175980	0.112897	0.615955
	C174	C	0.823257	0.113514	0.384275
	C175	C	0.822741	0.875394	0.614895
	C176	C	0.384957	0.172290	0.880798
	C177	C	0.615144	0.172699	0.120130
	C178	C	0.385307	0.818608	0.119080
	C179	C	0.614833	0.817607	0.880444
	C180	C	0.385225	0.876830	0.176205
	C181	C	0.615632	0.113960	0.176888
	C182	C	0.384220	0.113394	0.824564
	C183	C	0.614229	0.875467	0.822792
	C184	C	0.879659	0.172117	0.384825
	C185	C	0.118262	0.169769	0.615862
	C186	C	0.119073	0.817708	0.384764
	C187	C	0.881015	0.818752	0.615396
	C188	C	0.177324	0.380294	0.881016
	C189	C	0.176385	0.610329	0.119295
	C190	C	0.823127	0.379948	0.119912
	C191	C	0.823475	0.609972	0.880679
	C192	C	0.399853	0.089789	0.599267
	C193	C	0.599316	0.900608	0.598656
	C194	C	0.599831	0.089911	0.400888
	C195	C	0.400539	0.900674	0.400441
	C196	C	0.599489	0.395796	0.094656
	C197	C	0.599910	0.593855	0.904698
	C198	C	0.400459	0.594472	0.095135
	C199	C	0.400842	0.395867	0.905299
	C200	C	0.094874	0.594135	0.400625
	C201	C	0.905392	0.594607	0.599670
	C202	C	0.094960	0.393723	0.600068
	C203	C	0.907522	0.396252	0.401932
	C204	C	0.899933	0.589346	0.100113
	C205	C	0.100217	0.400793	0.098954
	C206	C	0.100337	0.590113	0.899890
	C207	C	0.901162	0.400919	0.901059
	C208	C	0.100484	0.893917	0.595438
	C209	C	0.098506	0.091885	0.406150
	C210	C	0.900335	0.093722	0.594522
	C211	C	0.900760	0.894615	0.404883
	C212	C	0.593888	0.094225	0.900810
	C213	C	0.406463	0.095027	0.099622
	C214	C	0.595043	0.894035	0.099703
	C215	C	0.404957	0.893966	0.900423
	Zn216	Zn	0.499032	-0.005256	0.749803
	Zn217	Zn	0.500859	-0.005384	0.250106
	Zn218	Zn	0.750093	0.495074	0.000112
	Zn219	Zn	0.250544	0.495485	0.000310
	Zn220	Zn	0.000118	0.744383	0.500270
	Zn221	Zn	0.000454	0.243704	0.500404
	Zn222	Zn	0.000223	0.494650	0.749791
	Zn223	Zn	0.000773	0.495137	0.249946
	Zn224	Zn	0.500424	0.743880	0.000227
	Zn225	Zn	0.500718	0.245388	-0.000331
	Zn226	Zn	0.750005	-0.005605	0.499316
	Zn227	Zn	0.249691	-0.005497	0.500664
	N228	N	0.414185	0.957869	0.677750
	N229	N	0.584444	0.032410	0.677553
	N230	N	0.585095	0.957553	0.322911
	N231	N	0.414836	0.032148	0.321843
	N232	N	0.679307	0.408659	0.962694
	N233	N	0.677854	0.580225	0.037085
	N234	N	0.322046	0.580627	0.962907
	N235	N	0.321931	0.409396	0.037345
	N236	N	0.963317	0.673256	0.414175
	N237	N	0.037040	0.673244	0.586392
	N238	N	0.962845	0.316098	0.585940
	N239	N	0.038012	0.315294	0.413943
	N240	N	0.963045	0.408570	0.678996
	N241	N	0.037600	0.579089	0.677321
	N242	N	0.963393	0.580362	0.322270
	N243	N	0.038719	0.409481	0.321908
	N244	N	0.414752	0.672599	0.962887
	N245	N	0.585237	0.672159	0.037124
	N246	N	0.585981	0.317132	0.962358
	N247	N	0.414903	0.317318	0.037564
	N248	N	0.678679	0.958007	0.413515
	N249	N	0.678777	0.031997	0.585942
	N250	N	0.322184	0.957677	0.585449
	N251	N	0.319997	0.031696	0.413250
	N252	N	0.914379	0.457422	0.178993
	N253	N	0.084917	0.532903	0.177201
	N254	N	0.085630	0.457890	0.822227
	N255	N	0.915443	0.532631	0.822541
	N256	N	0.179245	0.907668	0.463336
	N257	N	0.177816	0.079409	0.537949
	N258	N	0.821858	0.079609	0.462043
	N259	N	0.821188	0.908428	0.536600
	N260	N	0.462927	0.174277	0.913713
	N261	N	0.537441	0.174673	0.086768
	N262	N	0.463166	0.815713	0.086093
	N263	N	0.537358	0.815758	0.914434
	N264	N	0.463048	0.909659	0.177988
	N265	N	0.538184	0.080222	0.178340
	N266	N	0.461496	0.079114	0.823424
	N267	N	0.536433	0.908530	0.821264
	N268	N	0.913294	0.173541	0.462825
	N269	N	0.084868	0.171072	0.537878
	N270	N	0.085319	0.816322	0.462502
	N271	N	0.914982	0.817156	0.537723
	N272	N	0.179299	0.458175	0.914118
	N273	N	0.178903	0.532501	0.086182
	N274	N	0.821203	0.457671	0.086318
	N275	N	0.821772	0.532263	0.914201
	O276	O	1.002446	1.080993	0.036441
	H277	H	1.005276	1.101087	0.034903
	H278	H	1.009654	1.071981	0.035894
	O279	O	-0.044482	0.033081	0.040065
	H280	H	-0.048407	0.037177	0.035236
	H281	H	-0.053591	0.034789	0.044266
	O282	O	0.056668	0.055743	1.047562
	H283	H	0.049809	0.071683	1.042300
	H284	H	0.060437	0.048638	1.058774
	O285	O	0.513687	0.509993	0.466134
	H286	H	0.516171	0.512016	0.454989
	H287	H	0.512368	0.507377	0.464144
	O288	O	0.575440	0.469471	0.462755
	H289	H	0.567288	0.469634	0.456193
	H290	H	0.577623	0.474254	0.461613
	O291	O	0.527157	0.509801	0.486408
	H292	H	0.525543	0.503358	0.491783
	H293	H	0.544688	0.508199	0.477998
	O294	O	-0.069983	0.019070	-0.025531
	H295	H	-0.082179	0.024439	-0.021713
	H296	H	-0.064626	0.006366	-0.030273
	O297	O	0.514780	0.535826	0.466528
	H298	H	0.512316	0.537790	0.462250
	H299	H	0.509113	0.535476	0.468332
	O300	O	-0.047294	1.018717	1.011182
	H301	H	-0.052460	1.014995	1.008331
	H302	H	-0.046012	1.016525	1.011285
	O303	O	0.487010	0.511247	0.474110
	H304	H	0.480501	0.504811	0.470774
	H305	H	0.487682	0.509865	0.478554
	O306	O	0.051538	0.014771	0.993778
	H307	H	0.047741	0.014170	0.990602
	H308	H	0.047705	0.017492	0.993203
	O309	O	1.004316	1.050495	0.984411
	H310	H	1.009421	1.048058	0.989561
	H311	H	1.010311	1.051350	0.986898
	O312	O	0.499170	0.508078	0.481096
	H313	H	0.503732	0.512734	0.482889
	H314	H	0.502580	0.503198	0.489509
	O315	O	0.525700	0.477622	0.459809
	H316	H	0.524239	0.473046	0.457925
	H317	H	0.523423	0.486180	0.459715
	O318	O	0.073950	1.077321	0.045555
	H319	H	0.079068	1.076539	0.043328
	H320	H	0.070524	1.079651	0.051654
	O321	O	0.970510	1.076661	0.012842
	H322	H	0.972351	1.075123	0.013696
	H323	H	0.974239	1.077108	0.003568
