data_Molecule from HDF5

_cell_length_a		16.526912
_cell_length_b		16.402500
_cell_length_c		16.357325
_cell_angle_alpha	90.214674
_cell_angle_beta	89.996301
_cell_angle_gamma	89.983363
_symmetry_space_group_name_H-M	'P 1'
_symmetry_Int_Tables_number		1

loop_
	_symmetry_equiv_pos_as_xyz
	x,y,z

loop_
	_atom_site_label
	_atom_site_type_symbol
	_atom_site_fract_x
	_atom_site_fract_y
	_atom_site_fract_z
	H0	H	0.397320	0.847324	0.721415
	H1	H	0.605793	0.164617	0.721804
	H2	H	0.603749	0.847430	0.278504
	H3	H	0.400026	0.166985	0.286295
	H4	H	0.721017	0.401836	0.840917
	H5	H	0.723924	0.615967	0.158334
	H6	H	0.277283	0.614719	0.841958
	H7	H	0.280119	0.404091	0.158371
	H8	H	0.843675	0.727033	0.395967
	H9	H	0.158411	0.729533	0.606639
	H10	H	0.842898	0.284927	0.605909
	H11	H	0.159801	0.287350	0.397864
	H12	H	0.843072	0.401915	0.721585
	H13	H	0.159145	0.612646	0.722967
	H14	H	0.843441	0.611074	0.280795
	H15	H	0.160165	0.405464	0.281835
	H16	H	0.393630	0.730209	0.842148
	H17	H	0.604623	0.728845	0.160044
	H18	H	0.602955	0.287447	0.839855
	H19	H	0.397351	0.289872	0.158971
	H20	H	0.721260	0.846090	0.392858
	H21	H	0.722699	0.163535	0.607285
	H22	H	0.278295	0.847699	0.607933
	H23	H	0.278745	0.162593	0.395229
	H24	H	0.902587	0.347227	0.215360
	H25	H	0.107797	0.667001	0.222785
	H26	H	0.105840	0.347736	0.778625
	H27	H	0.897050	0.666826	0.780631
	H28	H	0.224301	0.896786	0.341593
	H29	H	0.223044	0.111170	0.659672
	H30	H	0.783964	0.105979	0.340811
	H31	H	0.777822	0.898478	0.658360
	H32	H	0.341021	0.227622	0.894980
	H33	H	0.658809	0.224664	0.100050
	H34	H	0.342630	0.783909	0.108395
	H35	H	0.656137	0.782007	0.893201
	H36	H	0.341043	0.904206	0.220852
	H37	H	0.658273	0.108824	0.217797
	H38	H	0.341743	0.110797	0.778234
	H39	H	0.657691	0.900409	0.778806
	H40	H	0.903650	0.220925	0.340534
	H41	H	0.106593	0.227378	0.660610
	H42	H	0.105736	0.784777	0.340186
	H43	H	0.896880	0.786073	0.660473
	H44	H	0.222782	0.348555	0.892859
	H45	H	0.224710	0.665027	0.108468
	H46	H	0.783163	0.348464	0.101539
	H47	H	0.776739	0.664617	0.892675
	H48	H	0.408553	0.118367	0.584453
	H49	H	0.586420	0.894330	0.588241
	H50	H	0.593849	0.118862	0.414293
	H51	H	0.420041	0.894789	0.413189
	H52	H	0.594547	0.419904	0.115203
	H53	H	0.589726	0.591995	0.887884
	H54	H	0.408777	0.598917	0.116053
	H55	H	0.410582	0.412675	0.883189
	H56	H	0.115215	0.598636	0.410765
	H57	H	0.890918	0.595911	0.583729
	H58	H	0.112146	0.419300	0.587485
	H59	H	0.887366	0.416915	0.405620
	H60	H	0.113897	0.418193	0.591643
	H61	H	0.890041	0.589946	0.593165
	H62	H	0.113569	0.594344	0.414854
	H63	H	0.884892	0.409075	0.407056
	H64	H	0.409856	0.588253	0.111538
	H65	H	0.586108	0.592957	0.889429
	H66	H	0.588679	0.417789	0.113349
	H67	H	0.404922	0.421137	0.884083
	H68	H	0.596552	0.121208	0.408834
	H69	H	0.590907	0.893678	0.584647
	H70	H	0.411126	0.119446	0.591257
	H71	H	0.405029	0.891568	0.417682
	H72	H	0.912304	0.622469	0.089861
	H73	H	0.087418	0.395802	0.090618
	H74	H	0.085800	0.619104	0.910665
	H75	H	0.910992	0.391666	0.903825
	H76	H	0.094198	0.913885	0.615852
	H77	H	0.090786	0.106043	0.383556
	H78	H	0.910556	0.095683	0.616140
	H79	H	0.918401	0.917955	0.390101
	H80	H	0.613520	0.099585	0.910059
	H81	H	0.383528	0.101921	0.093588
	H82	H	0.612506	0.918767	0.093203
	H83	H	0.387466	0.919460	0.909597
	H84	H	0.612837	0.913785	0.087305
	H85	H	0.386461	0.100508	0.089070
	H86	H	0.612109	0.097364	0.912339
	H87	H	0.387810	0.917451	0.914234
	H88	H	0.909893	0.094408	0.616122
	H89	H	0.100537	0.088156	0.386764
	H90	H	0.092116	0.926930	0.610826
	H91	H	0.909879	0.907888	0.383232
	H92	H	0.090672	0.618265	0.917474
	H93	H	0.091180	0.395150	0.085416
	H94	H	0.910697	0.622113	0.088707
	H95	H	0.918000	0.397763	0.913995
	H96	H	0.415629	0.116760	0.585863
	H97	H	0.591126	0.891444	0.589705
	H98	H	0.589928	0.120196	0.409167
	H99	H	0.409940	0.887869	0.402565
	H100	H	0.592945	0.413494	0.115925
	H101	H	0.588149	0.595645	0.887681
	H102	H	0.418070	0.595809	0.110947
	H103	H	0.414994	0.421228	0.887275
	H104	H	0.113983	0.592959	0.409344
	H105	H	0.886755	0.600496	0.592057
	H106	H	0.113759	0.414581	0.588603
	H107	H	0.888590	0.413989	0.413333
	H108	H	0.910444	0.623207	0.090005
	H109	H	0.093028	0.393269	0.091094
	H110	H	0.093737	0.621688	0.910584
	H111	H	0.905465	0.393070	0.915964
	H112	H	0.081592	0.917198	0.610567
	H113	H	0.081608	0.090285	0.392960
	H114	H	0.911128	0.094182	0.616391
	H115	H	0.904524	0.921028	0.386256
	H116	H	0.612702	0.096075	0.908657
	H117	H	0.385987	0.097217	0.093436
	H118	H	0.608961	0.921446	0.086020
	H119	H	0.389738	0.921896	0.913503
	C120	C	0.379718	0.013956	0.620752
	C121	C	0.622221	0.997303	0.621153
	C122	C	0.623552	0.014678	0.377893
	C123	C	0.380197	0.996525	0.379877
	C124	C	0.622248	0.385805	0.008721
	C125	C	0.621174	0.627712	0.992573
	C126	C	0.378979	0.628361	0.008441
	C127	C	0.378699	0.386707	0.990265
	C128	C	0.009899	0.627589	0.379744
	C129	C	0.992986	0.628591	0.622726
	C130	C	0.009237	0.385177	0.621914
	C131	C	0.992313	0.384266	0.378284
	C132	C	0.880340	0.516789	0.120885
	C133	C	0.122766	0.499625	0.121613
	C134	C	0.122542	0.515135	0.879388
	C135	C	0.879052	0.498777	0.878612
	C136	C	0.121879	0.885244	0.507610
	C137	C	0.123323	0.127402	0.492464
	C138	C	0.880466	0.125723	0.509982
	C139	C	0.879035	0.883636	0.491767
	C140	C	0.508087	0.128957	0.878167
	C141	C	0.490585	0.129850	0.122227
	C142	C	0.507496	0.886093	0.121833
	C143	C	0.491795	0.885586	0.879128
	C144	C	0.378220	0.894826	0.681383
	C145	C	0.624128	0.116735	0.681765
	C146	C	0.622984	0.894761	0.318285
	C147	C	0.379845	0.118023	0.323431
	C148	C	0.681262	0.383696	0.888626
	C149	C	0.683106	0.632871	0.110991
	C150	C	0.317866	0.632173	0.889535
	C151	C	0.319794	0.385356	0.110669
	C152	C	0.890938	0.686971	0.377575
	C153	C	0.111287	0.689220	0.625343
	C154	C	0.890568	0.324702	0.624528
	C155	C	0.112112	0.326499	0.378378
	C156	C	0.890506	0.383257	0.681865
	C157	C	0.111742	0.630993	0.683243
	C158	C	0.890694	0.629338	0.320167
	C159	C	0.112174	0.385279	0.320679
	C160	C	0.375656	0.689910	0.889584
	C161	C	0.623259	0.688593	0.112021
	C162	C	0.622390	0.326873	0.888025
	C163	C	0.377922	0.328315	0.110877
	C164	C	0.681632	0.894420	0.375299
	C165	C	0.682474	0.116130	0.624788
	C166	C	0.319127	0.894960	0.624951
	C167	C	0.319830	0.115926	0.378038
	C168	C	0.881841	0.395681	0.177529
	C169	C	0.125483	0.619011	0.182421
	C170	C	0.124426	0.395748	0.818477
	C171	C	0.877821	0.618564	0.819430
	C172	C	0.182997	0.880527	0.388729
	C173	C	0.183140	0.129531	0.612153
	C174	C	0.823495	0.125586	0.388717
	C175	C	0.818555	0.881159	0.611201
	C176	C	0.388663	0.187981	0.876366
	C177	C	0.610791	0.186418	0.120900
	C178	C	0.389365	0.825102	0.125241
	C179	C	0.609496	0.823339	0.875674
	C180	C	0.388582	0.884915	0.181446
	C181	C	0.610340	0.128877	0.179524
	C182	C	0.389242	0.129903	0.818200
	C183	C	0.610332	0.881971	0.818610
	C184	C	0.882389	0.182735	0.388652
	C185	C	0.124953	0.187193	0.612632
	C186	C	0.123853	0.824504	0.388098
	C187	C	0.877761	0.825097	0.612139
	C188	C	0.182539	0.395862	0.875585
	C189	C	0.183863	0.618168	0.125377
	C190	C	0.822412	0.396426	0.121194
	C191	C	0.817893	0.617595	0.875203
	C192	C	0.404606	0.096615	0.594704
	C193	C	0.596660	0.914471	0.595071
	C194	C	0.600031	0.098444	0.403306
	C195	C	0.404593	0.913324	0.404058
	C196	C	0.598752	0.410114	0.092838
	C197	C	0.595553	0.601115	0.909752
	C198	C	0.405002	0.601983	0.091166
	C199	C	0.403137	0.411345	0.906810
	C200	C	0.092661	0.602673	0.404649
	C201	C	0.910846	0.602841	0.597031
	C202	C	0.091633	0.410153	0.596564
	C203	C	0.908720	0.406854	0.401875
	C204	C	0.904160	0.600674	0.096638
	C205	C	0.097648	0.416286	0.096162
	C206	C	0.097380	0.598196	0.905495
	C207	C	0.904246	0.415821	0.904152
	C208	C	0.096431	0.911738	0.590811
	C209	C	0.098229	0.101968	0.409121
	C210	C	0.903701	0.101804	0.594157
	C211	C	0.903810	0.908420	0.408166
	C212	C	0.590997	0.104787	0.903087
	C213	C	0.406887	0.106709	0.098672
	C214	C	0.590044	0.911003	0.096253
	C215	C	0.409791	0.911939	0.904865
	Zn216	Zn	0.501061	0.006217	0.749519
	Zn217	Zn	0.499750	0.006885	0.251176
	Zn218	Zn	0.750862	0.507454	0.000117
	Zn219	Zn	0.250418	0.507218	-0.000084
	Zn220	Zn	0.001054	0.756578	0.500043
	Zn221	Zn	0.001347	0.255344	0.501543
	Zn222	Zn	0.001219	0.506729	0.750930
	Zn223	Zn	0.001721	0.508055	0.249982
	Zn224	Zn	0.499831	0.756870	0.000932
	Zn225	Zn	0.499730	0.258609	-0.000691
	Zn226	Zn	0.750851	0.004999	0.500599
	Zn227	Zn	0.250967	0.004674	0.500076
	N228	N	0.415067	0.969744	0.678887
	N229	N	0.587229	0.041759	0.679550
	N230	N	0.587799	0.970639	0.319619
	N231	N	0.416679	0.043001	0.324364
	N232	N	0.681142	0.419719	0.964584
	N233	N	0.681800	0.595581	0.035689
	N234	N	0.319642	0.594903	0.964549
	N235	N	0.319728	0.420448	0.034555
	N236	N	0.965820	0.685930	0.413841
	N237	N	0.036502	0.688032	0.588832
	N238	N	0.965512	0.325726	0.588105
	N239	N	0.036508	0.325487	0.413554
	N240	N	0.965181	0.420081	0.680391
	N241	N	0.037039	0.594040	0.681826
	N242	N	0.965641	0.593120	0.321295
	N243	N	0.036704	0.420126	0.320229
	N244	N	0.412813	0.687702	0.964709
	N245	N	0.585288	0.685478	0.037357
	N246	N	0.586400	0.327942	0.963780
	N247	N	0.413691	0.328928	0.035179
	N248	N	0.682290	0.970161	0.411620
	N249	N	0.681503	0.040730	0.588011
	N250	N	0.319921	0.970076	0.587986
	N251	N	0.319761	0.039567	0.412374
	N252	N	0.916837	0.471728	0.177713
	N253	N	0.088083	0.544236	0.180107
	N254	N	0.087670	0.470887	0.820844
	N255	N	0.915242	0.543767	0.821442
	N256	N	0.181847	0.917576	0.464132
	N257	N	0.182142	0.092934	0.536398
	N258	N	0.822005	0.091144	0.465225
	N259	N	0.819153	0.916691	0.535139
	N260	N	0.463598	0.187609	0.912633
	N261	N	0.534981	0.187702	0.086464
	N262	N	0.464386	0.825720	0.088993
	N263	N	0.534770	0.825332	0.912391
	N264	N	0.463099	0.921775	0.179595
	N265	N	0.534489	0.094736	0.180607
	N266	N	0.464507	0.094015	0.819102
	N267	N	0.536266	0.919898	0.820533
	N268	N	0.916793	0.182937	0.465136
	N269	N	0.088508	0.186024	0.537180
	N270	N	0.086560	0.827382	0.463187
	N271	N	0.914652	0.826719	0.536961
	N272	N	0.181422	0.471110	0.912567
	N273	N	0.182178	0.542972	0.088138
	N274	N	0.821178	0.472808	0.087099
	N275	N	0.818473	0.541976	0.911078
	O276	O	0.428179	0.461504	0.291709
	H277	H	0.442166	0.434782	0.275634
	H278	H	0.463652	0.480068	0.290103
	O279	O	0.829784	0.200506	0.952984
	H280	H	0.833280	0.199456	0.954822
	H281	H	0.829701	0.199246	0.969640
	O282	O	0.475849	0.297618	0.712200
	H283	H	0.475529	0.269252	0.731035
	H284	H	0.435051	0.301260	0.703616
	O285	O	0.353681	0.607530	0.310125
	H286	H	0.355161	0.593244	0.311563
	H287	H	0.369065	0.608868	0.311254
	O288	O	0.984009	0.841087	0.203323
	H289	H	0.992883	0.834902	0.222046
	H290	H	1.012319	0.841182	0.180529
	O291	O	0.476053	0.414656	0.444643
	H292	H	0.488274	0.405955	0.437083
	H293	H	0.482488	0.440746	0.437089
	O294	O	-0.000683	0.137574	1.031348
	H295	H	0.009211	0.146393	1.049356
	H296	H	0.008493	0.115821	1.033578
	O297	O	0.604937	0.603183	0.352030
	H298	H	0.619021	0.608085	0.356209
	H299	H	0.618075	0.627561	0.351821
	O300	O	0.691029	0.543167	0.516487
	H301	H	0.690667	0.549577	0.510485
	H302	H	0.694059	0.540918	0.510371
	O303	O	0.708011	0.298081	0.466381
	H304	H	0.714255	0.293199	0.479076
	H305	H	0.719726	0.308332	0.485177
	O306	O	0.390398	0.653504	0.657184
	H307	H	0.409457	0.641047	0.644092
	H308	H	0.394149	0.635609	0.661034
	O309	O	0.718029	0.476161	0.284575
	H310	H	0.719619	0.457743	0.286686
	H311	H	0.738619	0.461576	0.263889
	O312	O	-0.016062	0.902905	1.086527
	H313	H	-0.004725	0.906160	1.093804
	H314	H	0.000537	0.908138	1.075122
	O315	O	0.669367	0.644634	0.504102
	H316	H	0.691788	0.648067	0.510820
	H317	H	0.646031	0.640630	0.526562
	O318	O	0.809452	0.198852	0.189788
	H319	H	0.826866	0.181998	0.168643
	H320	H	0.828719	0.177491	0.174435
	O321	O	0.049819	0.045786	-0.178137
	H322	H	0.051653	0.043531	-0.168296
	H323	H	0.047192	0.065439	-0.181267
	O324	O	0.537364	0.291437	0.283859
	H325	H	0.587767	0.295922	0.287659
	H326	H	0.537979	0.259905	0.251322
	O327	O	0.621003	0.383811	0.655994
	H328	H	0.605206	0.385315	0.657707
	H329	H	0.606168	0.392013	0.645514
	O330	O	0.168354	0.900414	0.065602
	H331	H	0.164901	0.912542	0.040177
	H332	H	0.181898	0.902208	0.070986
	O333	O	0.545385	0.441970	0.618083
	H334	H	0.546443	0.424331	0.620760
	H335	H	0.572721	0.435892	0.614097
	O336	O	0.211700	0.199221	0.055728
	H337	H	0.217705	0.221537	0.056560
	H338	H	0.209786	0.203848	0.048270
	O339	O	0.192339	0.815522	0.812486
	H340	H	0.196467	0.865827	0.803410
	H341	H	0.190192	0.798734	0.809787
	O342	O	0.214458	0.795468	0.978661
	H343	H	0.235976	0.787264	0.959562
	H344	H	0.223275	0.797169	0.968131
	O345	O	0.793426	0.801397	0.019756
	H346	H	0.813067	0.785780	0.009737
	H347	H	0.788534	0.798594	0.021702
	O348	O	0.437022	0.692561	0.306014
	H349	H	0.415585	0.677519	0.314998
	H350	H	0.429718	0.709036	0.282479
	O351	O	0.028732	0.793393	0.786157
	H352	H	0.041655	0.780693	0.770736
	H353	H	0.037309	0.780354	0.785139
	O354	O	0.187367	1.018322	0.208930
	H355	H	0.202483	1.023858	0.233196
	H356	H	0.191938	1.041036	0.198586
	O357	O	0.084614	0.161728	0.912837
	H358	H	0.061968	0.168891	0.917650
	H359	H	0.073707	0.160345	0.919240
	O360	O	0.530753	0.617286	0.538446
	H361	H	0.524923	0.611758	0.522527
	H362	H	0.532282	0.634688	0.534521
	O363	O	0.207898	-0.018910	0.795105
	H364	H	0.219354	-0.012374	0.769629
	H365	H	0.205935	0.006858	0.822953
	O366	O	0.331235	0.341768	0.310977
	H367	H	0.359478	0.347964	0.324473
	H368	H	0.342562	0.356775	0.331935
	O369	O	0.464573	0.659280	0.584312
	H370	H	0.484942	0.651920	0.584948
	H371	H	0.470399	0.651774	0.594774
	O372	O	0.829869	-0.049243	0.901281
	H373	H	0.844763	-0.082436	0.905341
	H374	H	0.835835	-0.036078	0.873064
	O375	O	0.519025	0.294759	0.509949
	H376	H	0.518523	0.298373	0.488740
	H377	H	0.526391	0.285382	0.518697
	O378	O	0.584464	0.712219	0.707165
	H379	H	0.589028	0.717406	0.729836
	H380	H	0.569876	0.716312	0.716894
	O381	O	0.894646	-0.048823	0.858827
	H382	H	0.900978	-0.043413	0.858344
	H383	H	0.896265	-0.037864	0.861876
	O384	O	0.703801	0.305180	0.296498
	H385	H	0.716640	0.303836	0.330404
	H386	H	0.734563	0.277129	0.277435
	O387	O	0.212279	0.050215	0.965327
	H388	H	0.215051	0.055077	0.982440
	H389	H	0.199273	0.051223	0.965677
	O390	O	0.011108	0.218706	-0.162118
	H391	H	-0.019108	0.217622	-0.161142
	H392	H	0.014796	0.238413	-0.174341
	O393	O	0.799073	1.026572	0.794384
	H394	H	0.822808	1.032540	0.786375
	H395	H	0.784069	1.029316	0.773373
	O396	O	1.001038	-0.021709	0.108369
	H397	H	0.999649	-0.036385	0.115862
	H398	H	0.989059	-0.023296	0.108827
	O399	O	0.823443	0.198814	0.819000
	H400	H	0.814457	0.200862	0.857240
	H401	H	0.811221	0.193385	0.804573
	O402	O	0.938292	0.806806	0.968697
	H403	H	0.949372	0.829691	0.968830
	H404	H	0.958270	0.805080	0.976831
	O405	O	0.809075	0.817262	0.189858
	H406	H	0.813378	0.815603	0.160974
	H407	H	0.839788	0.802651	0.202251
	O408	O	0.907623	0.034295	0.092615
	H409	H	0.900055	0.014716	0.094518
	H410	H	0.906707	0.020911	0.099861
	O411	O	0.793104	0.975051	0.203042
	H412	H	0.770490	0.962696	0.215041
	H413	H	0.794631	0.940559	0.203470
	O414	O	0.296356	0.660813	0.485779
	H415	H	0.316801	0.668552	0.498704
	H416	H	0.281287	0.677068	0.479710
	O417	O	0.364232	0.692426	0.420336
	H418	H	0.359975	0.704181	0.453865
	H419	H	0.350935	0.671320	0.420019
	O420	O	0.187955	0.202028	0.199997
	H421	H	0.186617	0.204303	0.173651
	H422	H	0.206321	0.224662	0.221015
	O423	O	0.618710	0.523097	0.706232
	H424	H	0.631552	0.515015	0.708894
	H425	H	0.616741	0.540378	0.704599
	O426	O	0.698749	0.521858	0.469691
	H427	H	0.707180	0.520737	0.467922
	H428	H	0.687260	0.537128	0.476714
	O429	O	0.317200	0.503125	0.443183
	H430	H	0.326521	0.510293	0.424808
	H431	H	0.327472	0.481922	0.442803
	O432	O	0.415284	0.535611	0.523199
	H433	H	0.421916	0.527912	0.506549
	H434	H	0.429455	0.554874	0.515633
	O435	O	0.298806	0.339935	0.498403
	H436	H	0.291554	0.340534	0.490465
	H437	H	0.319903	0.344602	0.503434
	O438	O	0.016664	0.201749	0.190786
	H439	H	0.021092	0.202616	0.192723
	H440	H	0.042040	0.193321	0.201154
	O441	O	0.810660	0.032521	0.011392
	H442	H	0.805913	0.009866	0.010468
	H443	H	0.809035	0.026234	0.009711
	O444	O	-0.011709	1.016135	0.942894
	H445	H	-0.005254	1.014825	0.933122
	H446	H	-0.031413	1.013205	0.949215
	O447	O	0.293877	0.482302	0.706028
	H448	H	0.286038	0.482244	0.704762
	H449	H	0.278732	0.492983	0.705040
	O450	O	0.695539	0.697747	0.624250
	H451	H	0.695892	0.692210	0.624362
	H452	H	0.684693	0.693792	0.627998
	O453	O	0.316978	0.323630	0.666618
	H454	H	0.312794	0.316574	0.634167
	H455	H	0.308620	0.364142	0.665008
