data_Molecule from HDF5

_cell_length_a		16.511183
_cell_length_b		16.314990
_cell_length_c		16.357059
_cell_angle_alpha	90.157601
_cell_angle_beta	89.910417
_cell_angle_gamma	90.205354
_symmetry_space_group_name_H-M	'P 1'
_symmetry_Int_Tables_number		1

loop_
	_symmetry_equiv_pos_as_xyz
	x,y,z

loop_
	_atom_site_label
	_atom_site_type_symbol
	_atom_site_fract_x
	_atom_site_fract_y
	_atom_site_fract_z
	H0	H	0.390197	0.836982	0.720987
	H1	H	0.603131	0.154919	0.721704
	H2	H	0.604843	0.837064	0.276023
	H3	H	0.395009	0.154703	0.280364
	H4	H	0.721584	0.389319	0.840000
	H5	H	0.720210	0.603014	0.157687
	H6	H	0.275100	0.603638	0.841890
	H7	H	0.274194	0.386230	0.155739
	H8	H	0.838686	0.716249	0.397016
	H9	H	0.154121	0.723105	0.608480
	H10	H	0.839513	0.275775	0.605653
	H11	H	0.152924	0.272656	0.391253
	H12	H	0.840687	0.390258	0.722131
	H13	H	0.155884	0.603260	0.721543
	H14	H	0.839616	0.602364	0.279414
	H15	H	0.154499	0.390283	0.276788
	H16	H	0.396144	0.713561	0.838968
	H17	H	0.604955	0.718595	0.158206
	H18	H	0.605530	0.273742	0.839620
	H19	H	0.395547	0.277260	0.157798
	H20	H	0.720637	0.837989	0.391217
	H21	H	0.720398	0.154818	0.607933
	H22	H	0.270978	0.839323	0.610792
	H23	H	0.277697	0.154560	0.393855
	H24	H	0.894260	0.335887	0.219199
	H25	H	0.105148	0.655988	0.222125
	H26	H	0.107352	0.337805	0.774904
	H27	H	0.896891	0.655322	0.780760
	H28	H	0.220515	0.888336	0.341192
	H29	H	0.223519	0.107589	0.656845
	H30	H	0.774430	0.104360	0.342546
	H31	H	0.773185	0.888056	0.656216
	H32	H	0.339681	0.218196	0.892812
	H33	H	0.655589	0.217076	0.103907
	H34	H	0.339763	0.773514	0.104099
	H35	H	0.656884	0.775933	0.894828
	H36	H	0.340645	0.887464	0.222410
	H37	H	0.654250	0.103242	0.222053
	H38	H	0.339121	0.101176	0.777961
	H39	H	0.654473	0.889873	0.775712
	H40	H	0.894542	0.214486	0.340568
	H41	H	0.103821	0.219629	0.658954
	H42	H	0.101454	0.775980	0.340338
	H43	H	0.893089	0.777953	0.659489
	H44	H	0.220414	0.337252	0.891862
	H45	H	0.222684	0.654569	0.108143
	H46	H	0.776631	0.337047	0.105147
	H47	H	0.778314	0.654671	0.894014
	H48	H	0.405978	0.109059	0.582120
	H49	H	0.585944	0.884546	0.578595
	H50	H	0.588465	0.110980	0.410430
	H51	H	0.414034	0.883652	0.414680
	H52	H	0.586784	0.408077	0.112095
	H53	H	0.589040	0.586834	0.885648
	H54	H	0.414514	0.580742	0.110456
	H55	H	0.405413	0.408647	0.883535
	H56	H	0.109943	0.584632	0.409879
	H57	H	0.887378	0.584398	0.586601
	H58	H	0.112086	0.402825	0.586317
	H59	H	0.882993	0.406025	0.408638
	H60	H	0.106967	0.412005	0.581359
	H61	H	0.885017	0.582785	0.595264
	H62	H	0.110439	0.587178	0.411314
	H63	H	0.885380	0.406044	0.411298
	H64	H	0.410124	0.589125	0.114616
	H65	H	0.592008	0.583253	0.884241
	H66	H	0.587767	0.407750	0.112502
	H67	H	0.409966	0.411941	0.886811
	H68	H	0.586064	0.109945	0.409337
	H69	H	0.591247	0.880246	0.588925
	H70	H	0.407835	0.112014	0.592902
	H71	H	0.403800	0.880537	0.415441
	H72	H	0.905466	0.609282	0.082182
	H73	H	0.087927	0.382141	0.089133
	H74	H	0.087189	0.609026	0.912637
	H75	H	0.910946	0.381507	0.908136
	H76	H	0.083147	0.906273	0.614070
	H77	H	0.083285	0.086473	0.386966
	H78	H	0.909256	0.085528	0.613633
	H79	H	0.907822	0.908586	0.385360
	H80	H	0.608740	0.077288	0.907013
	H81	H	0.384509	0.085351	0.088496
	H82	H	0.611164	0.908325	0.091084
	H83	H	0.386516	0.911893	0.907982
	H84	H	0.610528	0.904570	0.084418
	H85	H	0.384451	0.084882	0.091022
	H86	H	0.613119	0.089565	0.905155
	H87	H	0.382024	0.901198	0.906194
	H88	H	0.906417	0.085751	0.615058
	H89	H	0.091531	0.084233	0.385614
	H90	H	0.091208	0.911992	0.614071
	H91	H	0.908626	0.907920	0.385056
	H92	H	0.086887	0.609155	0.912162
	H93	H	0.084212	0.383993	0.087287
	H94	H	0.905925	0.613506	0.094842
	H95	H	0.909937	0.382341	0.914746
	H96	H	0.415922	0.107854	0.586533
	H97	H	0.579182	0.883154	0.589269
	H98	H	0.586988	0.109684	0.412522
	H99	H	0.408878	0.879597	0.406340
	H100	H	0.587928	0.408663	0.112065
	H101	H	0.587391	0.582727	0.885982
	H102	H	0.404503	0.580643	0.113936
	H103	H	0.411103	0.405690	0.884610
	H104	H	0.109388	0.585035	0.412909
	H105	H	0.883127	0.590844	0.590923
	H106	H	0.110794	0.412494	0.591993
	H107	H	0.884449	0.409572	0.409727
	H108	H	0.916829	0.608296	0.089239
	H109	H	0.086930	0.383979	0.085207
	H110	H	0.086865	0.608678	0.912575
	H111	H	0.905053	0.379879	0.911055
	H112	H	0.082640	0.914705	0.609970
	H113	H	0.085625	0.078585	0.388911
	H114	H	0.907316	0.082476	0.613537
	H115	H	0.907441	0.907909	0.384981
	H116	H	0.607926	0.085958	0.917209
	H117	H	0.383831	0.087338	0.089872
	H118	H	0.607973	0.911400	0.085174
	H119	H	0.386589	0.903603	0.916447
	C120	C	0.375773	0.005028	0.621202
	C121	C	0.618459	0.987729	0.619646
	C122	C	0.620063	0.005216	0.377210
	C123	C	0.377434	0.986694	0.379670
	C124	C	0.620264	0.374624	0.007068
	C125	C	0.621154	0.617659	0.990397
	C126	C	0.377480	0.616173	0.008162
	C127	C	0.376741	0.375331	0.989697
	C128	C	0.005841	0.618173	0.379144
	C129	C	0.989187	0.619340	0.622822
	C130	C	0.006364	0.375466	0.620604
	C131	C	0.988223	0.374367	0.377353
	C132	C	0.877110	0.504738	0.120719
	C133	C	0.119801	0.488195	0.120890
	C134	C	0.119767	0.504255	0.878667
	C135	C	0.877608	0.486652	0.879166
	C136	C	0.118911	0.876284	0.508224
	C137	C	0.119747	0.117916	0.491645
	C138	C	0.875970	0.117186	0.508945
	C139	C	0.875768	0.875591	0.490438
	C140	C	0.505781	0.117330	0.877285
	C141	C	0.488797	0.118025	0.121054
	C142	C	0.506292	0.873953	0.120727
	C143	C	0.489251	0.873614	0.877341
	C144	C	0.372201	0.885243	0.681650
	C145	C	0.620970	0.107382	0.681055
	C146	C	0.622721	0.885317	0.316262
	C147	C	0.376080	0.106736	0.319598
	C148	C	0.681120	0.371405	0.887790
	C149	C	0.680750	0.621264	0.110230
	C150	C	0.316022	0.620532	0.889117
	C151	C	0.315394	0.370148	0.108517
	C152	C	0.886692	0.677348	0.377818
	C153	C	0.107208	0.681588	0.625865
	C154	C	0.887373	0.315126	0.623985
	C155	C	0.106173	0.313416	0.374016
	C156	C	0.888016	0.371932	0.682271
	C157	C	0.108067	0.622192	0.682523
	C158	C	0.887142	0.620644	0.319074
	C159	C	0.107002	0.372088	0.317010
	C160	C	0.376502	0.675133	0.887539
	C161	C	0.623177	0.678719	0.110131
	C162	C	0.623091	0.313912	0.887408
	C163	C	0.375768	0.315611	0.109443
	C164	C	0.680692	0.885667	0.373615
	C165	C	0.679511	0.107132	0.624357
	C166	C	0.312657	0.886359	0.626697
	C167	C	0.317865	0.106866	0.376253
	C168	C	0.875525	0.384149	0.179669
	C169	C	0.123034	0.607763	0.182147
	C170	C	0.123791	0.385085	0.816369
	C171	C	0.877253	0.607215	0.819985
	C172	C	0.180409	0.871015	0.389068
	C173	C	0.181939	0.123741	0.610013
	C174	C	0.815058	0.121270	0.390076
	C175	C	0.814246	0.871469	0.609505
	C176	C	0.387178	0.178242	0.874564
	C177	C	0.607839	0.177629	0.122270
	C178	C	0.387488	0.813047	0.123273
	C179	C	0.608718	0.814941	0.875569
	C180	C	0.387838	0.870166	0.181999
	C181	C	0.607336	0.120669	0.181146
	C182	C	0.386647	0.119788	0.817405
	C183	C	0.607742	0.871633	0.816375
	C184	C	0.874885	0.176323	0.389003
	C185	C	0.122344	0.179797	0.610544
	C186	C	0.120795	0.815316	0.388596
	C187	C	0.874030	0.816537	0.610929
	C188	C	0.180438	0.384861	0.874517
	C189	C	0.181793	0.607124	0.125484
	C190	C	0.816839	0.384759	0.123055
	C191	C	0.818176	0.606892	0.876280
	C192	C	0.402189	0.087991	0.594757
	C193	C	0.592781	0.904364	0.593197
	C194	C	0.594641	0.088443	0.403429
	C195	C	0.401812	0.903283	0.405054
	C196	C	0.594658	0.400504	0.090445
	C197	C	0.596595	0.591745	0.906960
	C198	C	0.402469	0.590787	0.091386
	C199	C	0.401752	0.401542	0.906433
	C200	C	0.088378	0.592924	0.404050
	C201	C	0.906714	0.593466	0.598013
	C202	C	0.088409	0.401580	0.594278
	C203	C	0.905809	0.399952	0.402786
	C204	C	0.902241	0.588590	0.095848
	C205	C	0.093694	0.404996	0.094524
	C206	C	0.094194	0.587166	0.905002
	C207	C	0.901737	0.403016	0.904036
	C208	C	0.093371	0.903273	0.591142
	C209	C	0.094239	0.090851	0.408815
	C210	C	0.900537	0.091895	0.592472
	C211	C	0.900662	0.900739	0.407077
	C212	C	0.588054	0.091747	0.902403
	C213	C	0.405886	0.092883	0.096707
	C214	C	0.588392	0.900384	0.094601
	C215	C	0.406766	0.898420	0.902628
	Zn216	Zn	0.497221	-0.004325	0.748284
	Zn217	Zn	0.497586	-0.004626	0.249773
	Zn218	Zn	0.748542	0.496168	-0.000414
	Zn219	Zn	0.248238	0.496141	-0.000631
	Zn220	Zn	-0.003008	0.747695	0.500073
	Zn221	Zn	-0.003093	0.246292	0.500069
	Zn222	Zn	-0.001091	0.495414	0.750182
	Zn223	Zn	-0.002496	0.497133	0.249448
	Zn224	Zn	0.498316	0.744506	-0.000631
	Zn225	Zn	0.497877	0.246785	-0.001825
	Zn226	Zn	0.747397	-0.003655	0.499721
	Zn227	Zn	0.248516	-0.003521	0.499799
	N228	N	0.410635	0.960027	0.678435
	N229	N	0.583653	0.032018	0.678189
	N230	N	0.585798	0.960706	0.318328
	N231	N	0.412240	0.031008	0.321358
	N232	N	0.679432	0.408482	0.963286
	N233	N	0.679728	0.584229	0.034766
	N234	N	0.316375	0.584769	0.965266
	N235	N	0.315808	0.406520	0.032805
	N236	N	0.961552	0.676126	0.414215
	N237	N	0.032268	0.679971	0.589500
	N238	N	0.961836	0.317058	0.586405
	N239	N	0.031198	0.314496	0.410693
	N240	N	0.963160	0.408591	0.680523
	N241	N	0.033802	0.584055	0.680846
	N242	N	0.962234	0.584417	0.319696
	N243	N	0.032599	0.409099	0.318813
	N244	N	0.413971	0.672549	0.962464
	N245	N	0.586684	0.676681	0.034618
	N246	N	0.586148	0.315568	0.962875
	N247	N	0.413075	0.318554	0.034522
	N248	N	0.679359	0.961397	0.410594
	N249	N	0.677938	0.031578	0.587007
	N250	N	0.314906	0.961924	0.589554
	N251	N	0.318513	0.031192	0.412841
	N252	N	0.912429	0.459703	0.178241
	N253	N	0.085358	0.532518	0.179713
	N254	N	0.086510	0.460281	0.818846
	N255	N	0.913388	0.531542	0.821380
	N256	N	0.179681	0.907920	0.464847
	N257	N	0.180383	0.085955	0.534891
	N258	N	0.815573	0.085123	0.465957
	N259	N	0.814983	0.907331	0.533535
	N260	N	0.462166	0.176911	0.910954
	N261	N	0.533034	0.176132	0.085640
	N262	N	0.462092	0.815189	0.086068
	N263	N	0.534088	0.815745	0.912529
	N264	N	0.462957	0.906929	0.180860
	N265	N	0.532228	0.084140	0.180612
	N266	N	0.461271	0.082612	0.818826
	N267	N	0.532475	0.907346	0.817249
	N268	N	0.912014	0.173886	0.463932
	N269	N	0.084347	0.176217	0.535882
	N270	N	0.083407	0.818401	0.463565
	N271	N	0.911500	0.818892	0.535944
	N272	N	0.178067	0.459938	0.912677
	N273	N	0.179960	0.531604	0.088260
	N274	N	0.817723	0.460867	0.087161
	N275	N	0.818289	0.530933	0.912385
	O276	O	0.428791	0.442498	0.491950
	H277	H	0.451749	0.451142	0.475417
	H278	H	0.433584	0.456584	0.483813
	O279	O	0.695832	0.308644	0.378622
	H280	H	0.696073	0.334510	0.375366
	H281	H	0.709707	0.293227	0.380715
	O282	O	0.295960	0.518531	0.512023
	H283	H	0.292967	0.515147	0.513302
	H284	H	0.311264	0.518729	0.521021
	O285	O	0.793065	1.015740	0.139691
	H286	H	0.815405	0.984481	0.126945
	H287	H	0.774023	1.005518	0.170648
	O288	O	0.436666	0.533633	0.681529
	H289	H	0.445617	0.541272	0.672428
	H290	H	0.427606	0.545037	0.686122
	O291	O	0.451776	0.352231	0.408685
	H292	H	0.456043	0.347319	0.402655
	H293	H	0.474105	0.356835	0.400645
	O294	O	0.832189	0.843478	0.945824
	H295	H	0.847598	0.844211	0.933186
	H296	H	0.842706	0.858587	0.944869
	O297	O	0.330490	0.332704	0.346551
	H298	H	0.348999	0.356884	0.363203
	H299	H	0.323865	0.332085	0.363772
	O300	O	0.473078	0.331497	0.659248
	H301	H	0.458484	0.314913	0.662435
	H302	H	0.470268	0.336778	0.657727
	O303	O	0.324580	0.670219	0.325626
	H304	H	0.326341	0.682040	0.361632
	H305	H	0.315957	0.618761	0.319383
	O306	O	0.099376	0.038445	0.790024
	H307	H	0.117836	0.039412	0.790959
	H308	H	0.101750	0.053234	0.801015
	O309	O	1.113919	-0.046712	0.119687
	H310	H	1.132592	-0.033310	0.108097
	H311	H	1.126149	-0.033629	0.117514
	O312	O	0.372395	0.480729	0.447750
	H313	H	0.348822	0.486895	0.443648
	H314	H	0.371246	0.462609	0.453167
	O315	O	0.595373	0.618294	0.502199
	H316	H	0.586286	0.614429	0.485006
	H317	H	0.609991	0.649656	0.518880
	O318	O	0.026407	0.066970	-0.084723
	H319	H	0.015105	0.062595	-0.076814
	H320	H	0.040517	0.067041	-0.096673
	O321	O	0.638108	0.624369	0.416807
	H322	H	0.639091	0.650539	0.412572
	H323	H	0.636649	0.594484	0.414725
	O324	O	0.999687	-0.081883	0.908691
	H325	H	1.017763	-0.064799	0.908424
	H326	H	0.977405	-0.076264	0.897825
	O327	O	0.631152	0.483802	0.621726
	H328	H	0.612651	0.477467	0.609247
	H329	H	0.630206	0.478925	0.630713
	O330	O	0.123141	1.004818	0.862382
	H331	H	0.120469	1.007767	0.868663
	H332	H	0.140083	1.000282	0.849823
	O333	O	-0.051158	1.058945	0.066632
	H334	H	-0.054322	1.041042	0.064643
	H335	H	-0.063361	1.048242	0.076910
	O336	O	1.124784	0.875889	0.004290
	H337	H	1.112843	0.871928	-0.010718
	H338	H	1.132015	0.855689	0.013194
	O339	O	0.056659	0.799589	0.956683
	H340	H	0.040698	0.794430	0.946982
	H341	H	0.061860	0.805953	0.957094
	O342	O	0.477233	0.710429	0.284414
	H343	H	0.474473	0.731917	0.274246
	H344	H	0.443722	0.718399	0.279945
	O345	O	-0.191381	0.069381	1.135209
	H346	H	-0.186269	0.048944	1.135321
	H347	H	-0.193203	0.053231	1.145911
	O348	O	0.288487	0.299157	0.545972
	H349	H	0.297550	0.284563	0.563114
	H350	H	0.292693	0.303045	0.555871
	O351	O	0.807137	0.963045	0.035282
	H352	H	0.791642	0.961020	0.037576
	H353	H	0.807570	0.964279	0.028368
	O354	O	0.813474	1.100059	0.841880
	H355	H	0.848963	1.121919	0.843638
	H356	H	0.801700	1.114452	0.860840
	O357	O	0.101525	0.064630	0.015207
	H358	H	0.082962	0.081841	0.007463
	H359	H	0.098672	0.040850	0.005192
	O360	O	0.372332	0.318920	0.664059
	H361	H	0.364920	0.355464	0.668791
	H362	H	0.400073	0.314784	0.657810
	O363	O	0.967215	0.077736	0.005672
	H364	H	0.971541	0.087760	0.021280
	H365	H	0.966587	0.058026	0.019376
	O366	O	0.041124	0.168565	0.834786
	H367	H	0.048943	0.202762	0.841235
	H368	H	0.053381	0.161343	0.849465
	O369	O	0.862053	0.017865	0.801821
	H370	H	0.855599	0.026002	0.783802
	H371	H	0.869700	0.047936	0.810053
	O372	O	0.500606	0.689830	0.663495
	H373	H	0.521206	0.690906	0.686809
	H374	H	0.514080	0.694968	0.664109
	O375	O	-0.168506	-0.215695	1.120205
	H376	H	-0.170004	-0.201612	1.100656
	H377	H	-0.180384	-0.237523	1.108606
	O378	O	0.549801	0.449501	0.340844
	H379	H	0.540863	0.435480	0.331978
	H380	H	0.539671	0.433295	0.347159
	O381	O	0.204891	1.033938	0.202921
	H382	H	0.225862	1.053021	0.217295
	H383	H	0.212684	1.044353	0.198953
	O384	O	0.689661	0.650772	0.695043
	H385	H	0.696703	0.660113	0.691603
	H386	H	0.701761	0.618005	0.694175
	O387	O	0.282397	0.709483	0.481636
	H388	H	0.258846	0.740368	0.486210
	H389	H	0.300629	0.709047	0.484809
	O390	O	0.969573	0.800283	0.189893
	H391	H	0.976180	0.819865	0.188459
	H392	H	0.977146	0.784827	0.205396
	O393	O	1.084826	0.201941	1.008713
	H394	H	1.085529	0.202204	1.020877
	H395	H	1.081454	0.202569	1.035725
	O396	O	0.661694	0.697054	0.519610
	H397	H	0.655054	0.690390	0.522399
	H398	H	0.658435	0.695451	0.514190
	O399	O	0.689779	0.421120	0.309526
	H400	H	0.681719	0.434083	0.297098
	H401	H	0.690459	0.432891	0.333075
	O402	O	0.856665	0.878641	0.165483
	H403	H	0.868339	0.872350	0.156423
	H404	H	0.863155	0.864041	0.145854
	O405	O	0.385390	0.505079	0.290282
	H406	H	0.388452	0.503314	0.283453
	H407	H	0.377964	0.511706	0.286092
	O408	O	0.326629	0.490591	0.697060
	H409	H	0.308370	0.484837	0.708124
	H410	H	0.330494	0.517727	0.683361
	O411	O	0.881135	1.132086	0.937078
	H412	H	0.880067	1.143266	0.942216
	H413	H	0.882041	1.139736	0.950176
	O414	O	0.633257	0.282834	0.513470
	H415	H	0.635577	0.260061	0.525137
	H416	H	0.619579	0.288734	0.503445
	O417	O	0.178930	0.856330	0.894306
	H418	H	0.147154	0.847564	0.890400
	H419	H	0.191249	0.853385	0.904040
	O420	O	0.008150	0.792661	0.817250
	H421	H	0.001485	0.803926	0.807674
	H422	H	0.002029	0.790790	0.799843
	O423	O	0.200687	1.187840	0.164109
	H424	H	0.205732	1.210574	0.181462
	H425	H	0.192038	1.182946	0.148576
	O426	O	0.492180	0.664954	0.505086
	H427	H	0.496624	0.659191	0.519054
	H428	H	0.516902	0.666341	0.501768
	O429	O	0.588755	0.534963	0.707500
	H430	H	0.592608	0.535606	0.700596
	H431	H	0.604247	0.539228	0.718492
	O432	O	0.686686	0.453210	0.525149
	H433	H	0.688400	0.421808	0.524904
	H434	H	0.681981	0.453436	0.514437
	O435	O	0.048340	0.201648	0.205681
	H436	H	0.033213	0.207814	0.222529
	H437	H	0.051848	0.197017	0.210668
	O438	O	0.066798	0.993542	1.021664
	H439	H	0.075859	0.988066	1.025584
	H440	H	0.062327	0.997958	1.018169
	O441	O	0.525412	0.354689	0.304882
	H442	H	0.522584	0.354789	0.299532
	H443	H	0.549809	0.355251	0.294774
