data_Molecule from HDF5

_cell_length_a		16.507604
_cell_length_b		16.556193
_cell_length_c		16.251795
_cell_angle_alpha	90.002736
_cell_angle_beta	90.175888
_cell_angle_gamma	89.959103
_symmetry_space_group_name_H-M	'P 1'
_symmetry_Int_Tables_number		1

loop_
	_symmetry_equiv_pos_as_xyz
	x,y,z

loop_
	_atom_site_label
	_atom_site_type_symbol
	_atom_site_fract_x
	_atom_site_fract_y
	_atom_site_fract_z
	H0	H	0.397412	0.834227	0.736279
	H1	H	0.605904	0.151099	0.733211
	H2	H	0.605732	0.834314	0.292015
	H3	H	0.397813	0.149115	0.294457
	H4	H	0.723318	0.386020	0.854305
	H5	H	0.724264	0.599238	0.172721
	H6	H	0.279835	0.596676	0.854499
	H7	H	0.282852	0.386507	0.172918
	H8	H	0.844449	0.714536	0.405408
	H9	H	0.157361	0.716986	0.624959
	H10	H	0.845175	0.267489	0.622071
	H11	H	0.157678	0.267711	0.406078
	H12	H	0.843655	0.386488	0.735906
	H13	H	0.160131	0.595489	0.735693
	H14	H	0.842810	0.593938	0.293736
	H15	H	0.160320	0.390006	0.296428
	H16	H	0.393074	0.714023	0.854158
	H17	H	0.609358	0.714398	0.172549
	H18	H	0.612470	0.267046	0.855780
	H19	H	0.395049	0.268618	0.171019
	H20	H	0.725709	0.835466	0.404080
	H21	H	0.725906	0.148124	0.621182
	H22	H	0.273127	0.838448	0.628994
	H23	H	0.279845	0.149176	0.409131
	H24	H	0.897743	0.334684	0.235625
	H25	H	0.107395	0.649106	0.236473
	H26	H	0.110405	0.335357	0.790632
	H27	H	0.897778	0.649567	0.793446
	H28	H	0.224391	0.884381	0.357683
	H29	H	0.225316	0.101254	0.673097
	H30	H	0.779788	0.098358	0.355400
	H31	H	0.777274	0.882085	0.671459
	H32	H	0.347086	0.218428	0.900446
	H33	H	0.655374	0.219056	0.127189
	H34	H	0.345342	0.767427	0.121452
	H35	H	0.656742	0.764660	0.902863
	H36	H	0.342882	0.886808	0.234557
	H37	H	0.656611	0.100513	0.240964
	H38	H	0.344425	0.095212	0.791084
	H39	H	0.660072	0.886373	0.792290
	H40	H	0.894922	0.213671	0.356143
	H41	H	0.111424	0.216548	0.673053
	H42	H	0.108686	0.769594	0.356090
	H43	H	0.890967	0.765357	0.670622
	H44	H	0.229402	0.337346	0.903853
	H45	H	0.227748	0.647190	0.124543
	H46	H	0.776117	0.337190	0.124142
	H47	H	0.775472	0.646788	0.903181
	H48	H	0.420862	0.098620	0.595677
	H49	H	0.589373	0.881023	0.600090
	H50	H	0.593530	0.102206	0.433420
	H51	H	0.410908	0.878560	0.424539
	H52	H	0.592214	0.405182	0.128326
	H53	H	0.585848	0.576273	0.901532
	H54	H	0.417951	0.578350	0.126363
	H55	H	0.417398	0.404589	0.899657
	H56	H	0.114835	0.578868	0.422206
	H57	H	0.891576	0.577989	0.597271
	H58	H	0.113542	0.401123	0.598630
	H59	H	0.888438	0.398438	0.427704
	H60	H	0.112640	0.405546	0.602739
	H61	H	0.889531	0.577798	0.605481
	H62	H	0.116000	0.587914	0.428535
	H63	H	0.889580	0.404807	0.428303
	H64	H	0.415983	0.585203	0.128998
	H65	H	0.587084	0.582580	0.899702
	H66	H	0.586537	0.408626	0.124567
	H67	H	0.414045	0.404661	0.898736
	H68	H	0.593411	0.106308	0.423088
	H69	H	0.591467	0.880636	0.600200
	H70	H	0.404297	0.104523	0.596439
	H71	H	0.413109	0.880099	0.427464
	H72	H	0.910688	0.603764	0.100101
	H73	H	0.087003	0.381008	0.106215
	H74	H	0.089722	0.602337	0.928570
	H75	H	0.914222	0.381728	0.929583
	H76	H	0.078358	0.899938	0.627113
	H77	H	0.091684	0.078416	0.400864
	H78	H	0.914754	0.077238	0.628112
	H79	H	0.911293	0.905330	0.400001
	H80	H	0.616017	0.082712	0.921513
	H81	H	0.390216	0.078870	0.101123
	H82	H	0.610489	0.901293	0.091797
	H83	H	0.388983	0.900620	0.924818
	H84	H	0.611631	0.912096	0.104768
	H85	H	0.387849	0.083336	0.102104
	H86	H	0.613331	0.085124	0.932013
	H87	H	0.390667	0.903044	0.927965
	H88	H	0.916027	0.078507	0.628210
	H89	H	0.086191	0.077848	0.402906
	H90	H	0.094667	0.899995	0.632595
	H91	H	0.917447	0.904784	0.401605
	H92	H	0.091549	0.602358	0.929120
	H93	H	0.094010	0.380969	0.096489
	H94	H	0.911864	0.604953	0.103495
	H95	H	0.907829	0.378209	0.928478
	H96	H	0.414491	0.106188	0.610455
	H97	H	0.590552	0.880757	0.602090
	H98	H	0.584197	0.101676	0.427370
	H99	H	0.409726	0.879209	0.428591
	H100	H	0.586017	0.401507	0.127431
	H101	H	0.591969	0.577623	0.899478
	H102	H	0.410822	0.579974	0.128783
	H103	H	0.415758	0.407889	0.900420
	H104	H	0.111731	0.578503	0.432749
	H105	H	0.888498	0.584767	0.600828
	H106	H	0.115688	0.400482	0.604434
	H107	H	0.887361	0.402294	0.422712
	H108	H	0.914034	0.602818	0.101634
	H109	H	0.098293	0.376752	0.107175
	H110	H	0.090686	0.603527	0.926952
	H111	H	0.912959	0.379423	0.922859
	H112	H	0.087827	0.913783	0.625296
	H113	H	0.087788	0.083000	0.400277
	H114	H	0.914344	0.079456	0.628438
	H115	H	0.914623	0.900562	0.399251
	H116	H	0.611824	0.075227	0.928437
	H117	H	0.389939	0.082462	0.097342
	H118	H	0.617427	0.896549	0.105921
	H119	H	0.389824	0.904585	0.924135
	C120	C	0.379455	0.000392	0.636291
	C121	C	0.623874	0.983935	0.635177
	C122	C	0.623518	0.000225	0.392508
	C123	C	0.378916	0.983160	0.393644
	C124	C	0.622610	0.371071	0.022310
	C125	C	0.622275	0.612871	1.005001
	C126	C	0.381271	0.613137	0.022469
	C127	C	0.382242	0.372056	1.004416
	C128	C	0.009996	0.613572	0.393533
	C129	C	0.993180	0.613853	0.635518
	C130	C	0.010218	0.369748	0.635746
	C131	C	0.992614	0.369993	0.393299
	C132	C	0.879911	0.500338	0.135161
	C133	C	0.125368	0.483074	0.136783
	C134	C	0.124032	0.499912	0.893675
	C135	C	0.878955	0.482990	0.892434
	C136	C	0.121730	0.871092	0.523965
	C137	C	0.122148	0.113220	0.506440
	C138	C	0.881638	0.111682	0.523101
	C139	C	0.880200	0.869831	0.504977
	C140	C	0.510466	0.113958	0.892103
	C141	C	0.492581	0.114469	0.135265
	C142	C	0.509504	0.870603	0.134476
	C143	C	0.493227	0.869466	0.891671
	C144	C	0.377601	0.882374	0.697576
	C145	C	0.625334	0.102681	0.695015
	C146	C	0.625019	0.881877	0.331566
	C147	C	0.378042	0.101785	0.333578
	C148	C	0.684298	0.367565	0.902713
	C149	C	0.684002	0.616721	0.124819
	C150	C	0.320295	0.615103	0.902105
	C151	C	0.322410	0.368344	0.124765
	C152	C	0.891575	0.673938	0.388881
	C153	C	0.110698	0.675768	0.641177
	C154	C	0.892142	0.308298	0.639879
	C155	C	0.110845	0.309032	0.389469
	C156	C	0.891483	0.367668	0.696358
	C157	C	0.112145	0.615390	0.696516
	C158	C	0.890687	0.613880	0.333101
	C159	C	0.112078	0.369769	0.334487
	C160	C	0.376672	0.673588	0.902241
	C161	C	0.626723	0.674258	0.124556
	C162	C	0.628646	0.308423	0.903304
	C163	C	0.378123	0.309803	0.123764
	C164	C	0.684884	0.882559	0.387644
	C165	C	0.684989	0.101539	0.638776
	C166	C	0.315576	0.884389	0.643736
	C167	C	0.319270	0.101556	0.390606
	C168	C	0.878460	0.382296	0.195926
	C169	C	0.126601	0.601406	0.197104
	C170	C	0.127740	0.382498	0.831283
	C171	C	0.877761	0.601536	0.831836
	C172	C	0.184058	0.866643	0.405197
	C173	C	0.184379	0.117837	0.625647
	C174	C	0.820307	0.115590	0.403276
	C175	C	0.817890	0.865054	0.623815
	C176	C	0.393327	0.176083	0.885551
	C177	C	0.609045	0.177319	0.142410
	C178	C	0.391864	0.809029	0.138551
	C179	C	0.610330	0.806559	0.886428
	C180	C	0.390644	0.868483	0.195014
	C181	C	0.609294	0.118357	0.199586
	C182	C	0.391902	0.115036	0.830752
	C183	C	0.612032	0.867244	0.831354
	C184	C	0.877539	0.173128	0.403595
	C185	C	0.127837	0.175816	0.625197
	C186	C	0.126283	0.809586	0.404482
	C187	C	0.874516	0.806808	0.623316
	C188	C	0.187345	0.383430	0.887605
	C189	C	0.186774	0.600206	0.141263
	C190	C	0.817903	0.383467	0.140392
	C191	C	0.817057	0.600376	0.886872
	C192	C	0.405729	0.081808	0.608633
	C193	C	0.598014	0.902134	0.608554
	C194	C	0.597796	0.081878	0.419942
	C195	C	0.403990	0.900871	0.419544
	C196	C	0.595778	0.397467	0.105138
	C197	C	0.596012	0.586522	0.921826
	C198	C	0.407224	0.588291	0.106166
	C199	C	0.408121	0.398211	0.921377
	C200	C	0.092577	0.588894	0.420131
	C201	C	0.911400	0.587810	0.608841
	C202	C	0.092310	0.395001	0.609492
	C203	C	0.910096	0.394729	0.418830
	C204	C	0.905002	0.582447	0.109112
	C205	C	0.100348	0.400954	0.110738
	C206	C	0.097973	0.581405	0.920564
	C207	C	0.904301	0.401137	0.919186
	C208	C	0.094887	0.897205	0.606766
	C209	C	0.095979	0.087165	0.423089
	C210	C	0.907556	0.085609	0.606619
	C211	C	0.906873	0.896195	0.421958
	C212	C	0.592386	0.088473	0.919561
	C213	C	0.410546	0.088767	0.107778
	C214	C	0.591560	0.896192	0.108268
	C215	C	0.411244	0.895502	0.918133
	Zn216	Zn	0.502387	-0.008004	0.763983
	Zn217	Zn	0.500713	-0.008345	0.264482
	Zn218	Zn	0.750035	0.492259	0.014079
	Zn219	Zn	0.253930	0.491862	0.014409
	Zn220	Zn	0.001521	0.742588	0.514369
	Zn221	Zn	0.001555	0.240782	0.514953
	Zn222	Zn	0.002129	0.491909	0.764472
	Zn223	Zn	0.001676	0.492163	0.264529
	Zn224	Zn	0.501587	0.741052	0.013378
	Zn225	Zn	0.501822	0.243980	0.012738
	Zn226	Zn	0.753165	-0.008284	0.513505
	Zn227	Zn	0.249916	-0.007858	0.515325
	N228	N	0.416827	0.955332	0.692741
	N229	N	0.588196	0.028290	0.692986
	N230	N	0.587652	0.956011	0.334516
	N231	N	0.414344	0.027111	0.335191
	N232	N	0.680447	0.405958	0.977737
	N233	N	0.681442	0.579384	0.049307
	N234	N	0.322721	0.578524	0.978031
	N235	N	0.324833	0.406407	0.049618
	N236	N	0.966719	0.673569	0.425885
	N237	N	0.035618	0.675126	0.604310
	N238	N	0.966960	0.309310	0.603210
	N239	N	0.035475	0.308917	0.425297
	N240	N	0.965930	0.404787	0.694318
	N241	N	0.038241	0.577396	0.693006
	N242	N	0.965442	0.577425	0.335601
	N243	N	0.037609	0.406835	0.336556
	N244	N	0.413747	0.672480	0.978109
	N245	N	0.589204	0.672062	0.049002
	N246	N	0.591326	0.310210	0.978789
	N247	N	0.414284	0.311738	0.047824
	N248	N	0.684220	0.957424	0.424467
	N249	N	0.684301	0.026580	0.602497
	N250	N	0.316577	0.958968	0.606424
	N251	N	0.319431	0.026531	0.426801
	N252	N	0.916343	0.455969	0.192725
	N253	N	0.089067	0.527463	0.194546
	N254	N	0.088785	0.455882	0.835053
	N255	N	0.915404	0.527523	0.834861
	N256	N	0.181412	0.904030	0.480612
	N257	N	0.180918	0.079356	0.550717
	N258	N	0.823117	0.077743	0.478428
	N259	N	0.821320	0.903689	0.549034
	N260	N	0.468179	0.175472	0.923005
	N261	N	0.535358	0.174932	0.102893
	N262	N	0.466771	0.809856	0.102078
	N263	N	0.535380	0.807779	0.922911
	N264	N	0.464994	0.906061	0.192750
	N265	N	0.535793	0.079742	0.195167
	N266	N	0.465640	0.077023	0.835010
	N267	N	0.538079	0.905391	0.834162
	N268	N	0.915055	0.170858	0.479175
	N269	N	0.089773	0.172993	0.550010
	N270	N	0.088240	0.812058	0.479525
	N271	N	0.912468	0.809639	0.548322
	N272	N	0.185003	0.457309	0.925924
	N273	N	0.185979	0.525547	0.104320
	N274	N	0.818788	0.457925	0.103257
	N275	N	0.817645	0.525760	0.923814
	O276	O	-0.217911	0.207398	-0.005781
	H277	H	-0.241513	0.212291	-0.012085
	H278	H	-0.241105	0.195395	0.006100
	O279	O	0.978667	0.207300	0.796182
	H280	H	0.992037	0.235869	0.804415
	H281	H	0.994448	0.232894	0.799968
	O282	O	0.350743	0.501416	0.453947
	H283	H	0.363150	0.515053	0.454972
	H284	H	0.367499	0.499693	0.449915
	O285	O	0.664267	0.430680	0.315628
	H286	H	0.659582	0.438477	0.314890
	H287	H	0.662436	0.422192	0.327452
	O288	O	1.191422	0.846564	0.016134
	H289	H	1.173758	0.844153	-0.001703
	H290	H	1.197217	0.828042	-0.008606
	O291	O	0.058020	0.218163	-0.056385
	H292	H	0.062414	0.213755	-0.028528
	H293	H	0.076340	0.223459	-0.030733
	O294	O	-0.219080	-0.029525	1.230138
	H295	H	-0.222016	-0.053805	1.224057
	H296	H	-0.238032	-0.040889	1.256071
	O297	O	0.590262	1.444231	-0.295140
	H298	H	0.576660	1.410666	-0.282483
	H299	H	0.578944	1.451328	-0.295467
	O300	O	0.589259	0.439537	0.499436
	H301	H	0.580342	0.430197	0.497091
	H302	H	0.582300	0.435354	0.516735
	O303	O	0.523683	0.576153	0.508193
	H304	H	0.530223	0.570909	0.522254
	H305	H	0.522811	0.572281	0.493438
	O306	O	0.494250	0.471193	0.309011
	H307	H	0.484688	0.475355	0.312486
	H308	H	0.504622	0.472293	0.316616
	O309	O	0.306574	0.350694	0.473955
	H310	H	0.300481	0.361089	0.460643
	H311	H	0.298134	0.375266	0.464178
	O312	O	-0.216456	1.012075	0.794588
	H313	H	-0.251490	1.013828	0.767772
	H314	H	-0.209237	1.056783	0.803987
	O315	O	0.212302	1.042663	0.883971
	H316	H	0.214106	1.037946	0.867512
	H317	H	0.211179	1.032900	0.882763
	O318	O	0.850982	0.819918	0.879167
	H319	H	0.845413	0.807934	0.871575
	H320	H	0.862700	0.823288	0.870971
	O321	O	-0.178259	0.166755	-0.165472
	H322	H	-0.140433	0.172349	-0.170734
	H323	H	-0.176396	0.185482	-0.138894
	O324	O	0.692981	0.365412	0.413453
	H325	H	0.684450	0.381606	0.419780
	H326	H	0.705655	0.368356	0.403948
	O327	O	0.330920	0.393030	0.346969
	H328	H	0.335493	0.384798	0.329621
	H329	H	0.325666	0.393546	0.345382
	O330	O	0.130043	1.204578	0.219726
	H331	H	0.124060	1.199658	0.221510
	H332	H	0.131177	1.211163	0.212352
	O333	O	1.016046	-0.162406	1.006003
	H334	H	1.005845	-0.153952	1.006948
	H335	H	1.010955	-0.161096	1.004182
	O336	O	-0.049234	0.024151	0.121796
	H337	H	-0.064733	0.038404	0.126139
	H338	H	-0.060748	0.006390	0.114338
	O339	O	0.498300	1.690711	0.698641
	H340	H	0.526083	1.700236	0.700318
	H341	H	0.528378	1.702514	0.717039
	O342	O	0.636324	0.482995	1.663854
	H343	H	0.632093	0.485959	1.671147
	H344	H	0.635259	0.472014	1.655526
	O345	O	0.976146	0.938506	-0.199336
	H346	H	0.949600	0.958504	-0.194130
	H347	H	0.980732	0.966213	-0.195402
	O348	O	0.616148	0.697092	0.535497
	H349	H	0.633546	0.693502	0.528808
	H350	H	0.613193	0.683358	0.514940
	O351	O	0.104237	0.823957	1.162866
	H352	H	0.114200	0.806726	1.138308
	H353	H	0.098393	0.850194	1.166980
	O354	O	-0.519898	0.426456	0.322455
	H355	H	-0.499989	0.415513	0.312616
	H356	H	-0.503955	0.405798	0.314176
	O357	O	0.202630	-0.204453	0.900522
	H358	H	0.187724	-0.227270	0.889620
	H359	H	0.201937	-0.166334	0.872386
	O360	O	0.517894	0.682801	0.536155
	H361	H	0.537870	0.678945	0.518025
	H362	H	0.530572	0.687264	0.561688
	O363	O	0.195135	0.194434	1.095711
	H364	H	0.202989	0.162479	1.103187
	H365	H	0.220191	0.207442	1.070813
	O366	O	0.783674	0.776211	0.029857
	H367	H	0.768878	0.745428	0.029568
	H368	H	0.804698	0.767632	0.023450
	O369	O	0.535492	0.351156	0.525009
	H370	H	0.538474	0.345305	0.519343
	H371	H	0.513547	0.353363	0.538496
	O372	O	0.593277	0.650847	0.650312
	H373	H	0.595279	0.628876	0.661150
	H374	H	0.604123	0.665635	0.622562
	O375	O	0.700313	0.611505	0.439143
	H376	H	0.690302	0.591771	0.425123
	H377	H	0.723564	0.609493	0.429321
	O378	O	0.605597	0.309126	0.531781
	H379	H	0.595215	0.310875	0.525604
	H380	H	0.609951	0.310990	0.532189
	O381	O	1.771345	0.055053	0.077136
	H382	H	1.768832	0.040579	0.094757
	H383	H	1.770191	0.019958	0.055152
	O384	O	0.489930	0.700597	0.321791
	H385	H	0.459910	0.693023	0.328261
	H386	H	0.477280	0.722042	0.290140
	O387	O	-0.211707	-0.057276	0.957380
	H388	H	-0.221992	-0.084180	0.946948
	H389	H	-0.204731	-0.066818	0.935383
	O390	O	-0.505780	-0.458938	-0.344570
	H391	H	-0.506493	-0.457692	-0.347645
	H392	H	-0.491778	-0.426858	-0.354253
	O393	O	1.057293	1.049350	0.806177
	H394	H	1.037889	1.078500	0.793956
	H395	H	1.048142	1.061736	0.846087
	O396	O	1.013564	0.111419	0.103861
	H397	H	1.005109	0.116221	0.116511
	H398	H	0.995225	0.111971	0.090023
	O399	O	0.926314	-0.222397	0.941556
	H400	H	0.946434	-0.220080	0.923584
	H401	H	0.948139	-0.205662	0.952496
	O402	O	1.009510	0.998077	1.194495
	H403	H	1.028002	1.012944	1.193674
	H404	H	0.982968	1.009689	1.195993
	O405	O	1.026064	0.781568	-0.196514
	H406	H	1.014888	0.780310	-0.227593
	H407	H	1.010068	0.796868	-0.211500
	O408	O	0.955774	0.101364	0.180956
	H409	H	0.940624	0.113285	0.187202
	H410	H	0.945728	0.099248	0.163793
	O411	O	0.325331	1.675963	0.326531
	H412	H	0.312295	1.662272	0.348970
	H413	H	0.308977	1.666830	0.323495
	O414	O	0.482539	0.282647	0.724766
	H415	H	0.448119	0.277486	0.715746
	H416	H	0.464574	0.265794	0.744334
	O417	O	0.303056	0.471346	0.701208
	H418	H	0.311574	0.496210	0.698354
	H419	H	0.294184	0.487601	0.698635
	O420	O	-0.180064	-0.183802	0.189215
	H421	H	-0.173700	-0.195050	0.152926
	H422	H	-0.147525	-0.181483	0.199183
	O423	O	0.207382	1.031835	0.046214
	H424	H	0.230498	1.021952	0.043066
	H425	H	0.208330	1.009875	0.048265
	O426	O	1.096943	0.029420	-0.030348
	H427	H	1.109367	0.026959	-0.017093
	H428	H	1.090435	0.016710	-0.035801
	O429	O	1.202410	0.911412	-0.156412
	H430	H	1.193694	0.946340	-0.160224
	H431	H	1.187512	0.911051	-0.176524
	O432	O	0.685603	0.420615	0.576515
	H433	H	0.682677	0.405667	0.574841
	H434	H	0.665710	0.417912	0.579854
	O435	O	0.291211	0.704233	0.492618
	H436	H	0.282982	0.733180	0.494492
	H437	H	0.313856	0.721146	0.499208
	O438	O	0.497279	0.282572	-0.550617
	H439	H	0.494358	0.274748	-0.542876
	H440	H	0.497778	0.286519	-0.551120
	O441	O	0.986928	-0.188324	0.189972
	H442	H	1.005136	-0.191209	0.198192
	H443	H	1.000453	-0.190433	0.190342
	O444	O	0.216985	1.022637	1.228379
	H445	H	0.223894	1.014529	1.223408
	H446	H	0.238422	1.032590	1.242965
	O447	O	0.308245	0.517852	0.485278
	H448	H	0.317470	0.527212	0.483819
	H449	H	0.310604	0.542844	0.469663
	O450	O	-0.050038	1.187877	1.205717
	H451	H	-0.058726	1.181601	1.199308
	H452	H	-0.051572	1.177470	1.201891
	O453	O	0.321070	0.305826	0.694586
	H454	H	0.313193	0.335063	0.683051
	H455	H	0.312707	0.319460	0.662126
