data_Molecule from HDF5

_cell_length_a		16.323375
_cell_length_b		16.203361
_cell_length_c		16.200702
_cell_angle_alpha	89.853701
_cell_angle_beta	89.739223
_cell_angle_gamma	89.746781
_symmetry_space_group_name_H-M	'P 1'
_symmetry_Int_Tables_number		1

loop_
	_symmetry_equiv_pos_as_xyz
	x,y,z

loop_
	_atom_site_label
	_atom_site_type_symbol
	_atom_site_fract_x
	_atom_site_fract_y
	_atom_site_fract_z
	H0	H	0.406470	0.834661	0.718044
	H1	H	0.600737	0.164721	0.715208
	H2	H	0.604241	0.834644	0.291199
	H3	H	0.407169	0.163004	0.288276
	H4	H	0.723131	0.399191	0.840069
	H5	H	0.721059	0.598516	0.167116
	H6	H	0.291447	0.599923	0.839638
	H7	H	0.290638	0.398812	0.167981
	H8	H	0.841743	0.714078	0.406446
	H9	H	0.169060	0.714555	0.602764
	H10	H	0.842089	0.285034	0.603591
	H11	H	0.168771	0.285076	0.404979
	H12	H	0.842222	0.401100	0.719933
	H13	H	0.169849	0.597090	0.717222
	H14	H	0.842713	0.600245	0.287991
	H15	H	0.168670	0.400289	0.288969
	H16	H	0.407648	0.714402	0.838744
	H17	H	0.603224	0.711323	0.168081
	H18	H	0.604208	0.286787	0.838327
	H19	H	0.408495	0.285296	0.168128
	H20	H	0.721786	0.836491	0.402320
	H21	H	0.718339	0.164665	0.601745
	H22	H	0.288929	0.835667	0.604415
	H23	H	0.290479	0.163883	0.402464
	H24	H	0.909071	0.334480	0.216944
	H25	H	0.101354	0.664334	0.214518
	H26	H	0.104229	0.334509	0.790454
	H27	H	0.909615	0.664145	0.793126
	H28	H	0.221651	0.900296	0.339131
	H29	H	0.220006	0.100672	0.666107
	H30	H	0.791445	0.100308	0.338047
	H31	H	0.789169	0.900986	0.666992
	H32	H	0.342901	0.216035	0.905214
	H33	H	0.669682	0.212452	0.101079
	H34	H	0.342623	0.784779	0.102262
	H35	H	0.670569	0.784534	0.904129
	H36	H	0.343214	0.899681	0.220496
	H37	H	0.669256	0.095892	0.217700
	H38	H	0.341749	0.097671	0.790722
	H39	H	0.669683	0.900561	0.786585
	H40	H	0.908049	0.215138	0.339190
	H41	H	0.100810	0.210329	0.667984
	H42	H	0.104974	0.785091	0.338338
	H43	H	0.907272	0.787253	0.668219
	H44	H	0.222329	0.334875	0.904168
	H45	H	0.220414	0.663269	0.102832
	H46	H	0.791287	0.335542	0.104153
	H47	H	0.790469	0.661889	0.903266
	H48	H	0.412252	0.117873	0.601060
	H49	H	0.602607	0.879933	0.599857
	H50	H	0.599560	0.118380	0.405953
	H51	H	0.411714	0.880273	0.405243
	H52	H	0.591976	0.404994	0.118919
	H53	H	0.591525	0.594684	0.887162
	H54	H	0.417175	0.597714	0.121208
	H55	H	0.413748	0.393259	0.882757
	H56	H	0.120195	0.591618	0.414345
	H57	H	0.889072	0.599672	0.595156
	H58	H	0.120066	0.405830	0.593894
	H59	H	0.892107	0.414963	0.412740
	H60	H	0.121969	0.407052	0.598777
	H61	H	0.892083	0.588872	0.594785
	H62	H	0.121995	0.588497	0.406581
	H63	H	0.885440	0.405071	0.402430
	H64	H	0.405182	0.591622	0.123155
	H65	H	0.606239	0.594298	0.882947
	H66	H	0.602609	0.400450	0.123633
	H67	H	0.401283	0.415238	0.884045
	H68	H	0.595127	0.115807	0.409870
	H69	H	0.591365	0.884284	0.595481
	H70	H	0.415664	0.113850	0.592162
	H71	H	0.420025	0.885137	0.414862
	H72	H	0.913281	0.617314	0.100525
	H73	H	0.096956	0.383103	0.095215
	H74	H	0.090617	0.614784	0.908726
	H75	H	0.913898	0.382827	0.918044
	H76	H	0.101658	0.912910	0.619425
	H77	H	0.104744	0.085745	0.385470
	H78	H	0.904059	0.081240	0.618790
	H79	H	0.911833	0.912430	0.387324
	H80	H	0.622695	0.090772	0.906756
	H81	H	0.390752	0.086503	0.099928
	H82	H	0.626766	0.896216	0.103176
	H83	H	0.391274	0.907163	0.912246
	H84	H	0.620654	0.902633	0.087491
	H85	H	0.387250	0.097577	0.099608
	H86	H	0.622731	0.095037	0.907270
	H87	H	0.390764	0.907137	0.908714
	H88	H	0.921542	0.093308	0.616610
	H89	H	0.090678	0.092090	0.388349
	H90	H	0.090235	0.908140	0.618057
	H91	H	0.917274	0.905106	0.386400
	H92	H	0.102817	0.614895	0.919253
	H93	H	0.102764	0.381425	0.093912
	H94	H	0.915987	0.614930	0.092917
	H95	H	0.908303	0.379038	0.908346
	H96	H	0.406128	0.117326	0.593110
	H97	H	0.601756	0.884441	0.587590
	H98	H	0.601219	0.118451	0.412244
	H99	H	0.406558	0.882380	0.417623
	H100	H	0.601899	0.411627	0.120274
	H101	H	0.599621	0.581933	0.889386
	H102	H	0.415898	0.585127	0.117691
	H103	H	0.425542	0.413289	0.891887
	H104	H	0.123263	0.596508	0.408406
	H105	H	0.887904	0.592904	0.604771
	H106	H	0.123008	0.401870	0.597253
	H107	H	0.888404	0.400772	0.416672
	H108	H	0.907868	0.617715	0.093614
	H109	H	0.100830	0.380662	0.099668
	H110	H	0.105528	0.620239	0.903669
	H111	H	0.919323	0.381227	0.908066
	H112	H	0.100068	0.901044	0.622050
	H113	H	0.101709	0.100837	0.380911
	H114	H	0.903536	0.101895	0.625484
	H115	H	0.907466	0.904758	0.383475
	H116	H	0.621467	0.091946	0.911014
	H117	H	0.391857	0.092434	0.089675
	H118	H	0.621808	0.913342	0.101998
	H119	H	0.389509	0.903758	0.910517
	C120	C	0.382413	0.007854	0.625221
	C121	C	0.626162	0.991406	0.623147
	C122	C	0.627227	0.008591	0.381541
	C123	C	0.383998	0.991067	0.382625
	C124	C	0.628231	0.376786	0.012391
	C125	C	0.627562	0.619651	0.994933
	C126	C	0.384269	0.620758	0.011924
	C127	C	0.384846	0.378088	0.995003
	C128	C	0.013835	0.621273	0.381709
	C129	C	0.997668	0.621787	0.626130
	C130	C	0.013876	0.376912	0.625871
	C131	C	0.996609	0.378096	0.381909
	C132	C	0.884338	0.507962	0.124861
	C133	C	0.128017	0.490527	0.124868
	C134	C	0.128467	0.507640	0.881742
	C135	C	0.884970	0.489807	0.882690
	C136	C	0.126567	0.878235	0.511185
	C137	C	0.126269	0.120696	0.493933
	C138	C	0.882607	0.121385	0.511425
	C139	C	0.883272	0.878529	0.494478
	C140	C	0.514048	0.121668	0.880835
	C141	C	0.497768	0.120001	0.124678
	C142	C	0.514832	0.876157	0.126258
	C143	C	0.498590	0.877350	0.881318
	C144	C	0.385533	0.884058	0.680696
	C145	C	0.622269	0.115377	0.678053
	C146	C	0.624563	0.884103	0.327887
	C147	C	0.386655	0.114277	0.326513
	C148	C	0.684345	0.378970	0.888754
	C149	C	0.682508	0.617747	0.118351
	C150	C	0.329452	0.619546	0.888475
	C151	C	0.329099	0.379253	0.118861
	C152	C	0.890592	0.676317	0.385779
	C153	C	0.120368	0.676587	0.623003
	C154	C	0.890888	0.322675	0.623889
	C155	C	0.119723	0.322443	0.384066
	C156	C	0.891045	0.380426	0.681627
	C157	C	0.120872	0.618136	0.680136
	C158	C	0.891006	0.619503	0.326802
	C159	C	0.119743	0.380212	0.326791
	C160	C	0.387421	0.676268	0.888059
	C161	C	0.624067	0.673939	0.118939
	C162	C	0.625236	0.323293	0.887826
	C163	C	0.387730	0.323192	0.119168
	C164	C	0.683611	0.885299	0.382591
	C165	C	0.680808	0.115280	0.621671
	C166	C	0.327283	0.884307	0.623828
	C167	C	0.328913	0.114686	0.383455
	C168	C	0.887932	0.383929	0.179951
	C169	C	0.123297	0.614959	0.178167
	C170	C	0.125313	0.383651	0.827764
	C171	C	0.887824	0.614309	0.828643
	C172	C	0.182880	0.880256	0.387820
	C173	C	0.181019	0.118982	0.617733
	C174	C	0.828780	0.120224	0.387497
	C175	C	0.827421	0.880815	0.618059
	C176	C	0.391364	0.177525	0.884471
	C177	C	0.620791	0.174652	0.121808
	C178	C	0.391560	0.822335	0.123161
	C179	C	0.621369	0.821849	0.883177
	C180	C	0.392087	0.878752	0.182156
	C181	C	0.620704	0.116429	0.179228
	C182	C	0.390697	0.118717	0.827554
	C183	C	0.621114	0.879753	0.825199
	C184	C	0.886480	0.177388	0.388075
	C185	C	0.122064	0.174057	0.618463
	C186	C	0.124895	0.823240	0.387385
	C187	C	0.886434	0.824554	0.618832
	C188	C	0.184196	0.384094	0.883912
	C189	C	0.182412	0.614432	0.122623
	C190	C	0.829375	0.384370	0.123916
	C191	C	0.829170	0.613383	0.884079
	C192	C	0.404744	0.093957	0.602184
	C193	C	0.604751	0.905248	0.600848
	C194	C	0.605144	0.095103	0.403037
	C195	C	0.406182	0.904843	0.405822
	C196	C	0.605594	0.399089	0.098718
	C197	C	0.605545	0.597096	0.908687
	C198	C	0.406121	0.598133	0.098286
	C199	C	0.407050	0.400507	0.908555
	C200	C	0.099701	0.598807	0.403398
	C201	C	0.911810	0.600100	0.604767
	C202	C	0.099429	0.398490	0.603284
	C203	C	0.910961	0.400248	0.404179
	C204	C	0.905742	0.594360	0.102190
	C205	C	0.106640	0.404092	0.102848
	C206	C	0.106083	0.594209	0.903873
	C207	C	0.907462	0.403347	0.904871
	C208	C	0.103916	0.900634	0.597425
	C209	C	0.105364	0.099131	0.407401
	C210	C	0.903594	0.098783	0.597998
	C211	C	0.905765	0.900814	0.407993
	C212	C	0.600068	0.099189	0.902065
	C213	C	0.412010	0.098557	0.102866
	C214	C	0.600727	0.897573	0.103963
	C215	C	0.412641	0.899591	0.903826
	Zn216	Zn	0.505587	-0.000374	0.752253
	Zn217	Zn	0.505942	-0.001249	0.254655
	Zn218	Zn	0.756371	0.498664	0.003427
	Zn219	Zn	0.256335	0.499276	0.003620
	Zn220	Zn	0.005467	0.750204	0.503480
	Zn221	Zn	0.005281	0.248849	0.503285
	Zn222	Zn	0.005787	0.499174	0.754531
	Zn223	Zn	0.005704	0.499535	0.252651
	Zn224	Zn	0.506701	0.748141	0.003369
	Zn225	Zn	0.506245	0.249942	0.003571
	Zn226	Zn	0.754527	0.000290	0.502151
	Zn227	Zn	0.254467	0.000172	0.503220
	N228	N	0.419098	0.961830	0.681672
	N229	N	0.588917	0.037440	0.679064
	N230	N	0.590295	0.961956	0.326830
	N231	N	0.420501	0.036380	0.326188
	N232	N	0.686078	0.411725	0.967036
	N233	N	0.684847	0.584715	0.040177
	N234	N	0.327447	0.585772	0.966457
	N235	N	0.327416	0.412828	0.040681
	N236	N	0.967964	0.677395	0.419217
	N237	N	0.042848	0.678937	0.590124
	N238	N	0.968165	0.320718	0.589593
	N239	N	0.042287	0.320965	0.417802
	N240	N	0.968502	0.413503	0.682941
	N241	N	0.043538	0.584717	0.682132
	N242	N	0.968661	0.586197	0.324061
	N243	N	0.042280	0.413966	0.325093
	N244	N	0.420668	0.677313	0.965991
	N245	N	0.590487	0.675033	0.041105
	N246	N	0.591046	0.321903	0.965680
	N247	N	0.421654	0.322350	0.041131
	N248	N	0.685201	0.963416	0.415324
	N249	N	0.683331	0.037267	0.588379
	N250	N	0.325142	0.962389	0.590070
	N251	N	0.327181	0.037048	0.417848
	N252	N	0.921280	0.461772	0.180631
	N253	N	0.090302	0.536844	0.179852
	N254	N	0.091531	0.461548	0.826278
	N255	N	0.921794	0.536398	0.827521
	N256	N	0.184086	0.913800	0.465801
	N257	N	0.183794	0.086772	0.539381
	N258	N	0.826495	0.086035	0.465295
	N259	N	0.825381	0.913676	0.539614
	N260	N	0.469053	0.179232	0.916858
	N261	N	0.543395	0.176926	0.088442
	N262	N	0.468906	0.820439	0.089140
	N263	N	0.544106	0.820330	0.917283
	N264	N	0.469639	0.911635	0.184162
	N265	N	0.543370	0.083281	0.181194
	N266	N	0.468100	0.084762	0.825290
	N267	N	0.543591	0.913397	0.823812
	N268	N	0.919204	0.178272	0.466126
	N269	N	0.088493	0.175131	0.540675
	N270	N	0.090613	0.822020	0.465135
	N271	N	0.920523	0.823074	0.541065
	N272	N	0.186249	0.462308	0.916737
	N273	N	0.185476	0.536137	0.090298
	N274	N	0.827126	0.462392	0.090268
	N275	N	0.827169	0.535023	0.916830
	O276	O	0.584914	0.409160	0.497398
	H277	H	0.583212	0.410993	0.489005
	H278	H	0.584648	0.390125	0.497590
	O279	O	0.485709	0.447287	0.503648
	H280	H	0.494970	0.448076	0.497113
	H281	H	0.476169	0.431585	0.505508
	O282	O	0.454529	0.475286	0.522470
	H283	H	0.461710	0.479412	0.534287
	H284	H	0.446885	0.470740	0.521769
	O285	O	0.073477	0.952208	0.921423
	H286	H	0.072939	0.961461	0.907558
	H287	H	0.069373	0.943750	0.918369
	O288	O	0.582348	0.582233	0.548330
	H289	H	0.584089	0.579999	0.557852
	H290	H	0.587594	0.589688	0.539881
	O291	O	-0.489598	0.533855	0.518568
	H292	H	-0.496169	0.544138	0.524724
	H293	H	-0.492523	0.532610	0.516660
	O294	O	0.523574	0.560961	0.536864
	H295	H	0.514092	0.554493	0.537919
	H296	H	0.529658	0.553995	0.536850
	O297	O	0.482160	0.565496	0.465066
	H298	H	0.488312	0.562722	0.473231
	H299	H	0.474719	0.584290	0.470741
	O300	O	0.557342	0.528587	0.440152
	H301	H	0.552550	0.532678	0.443651
	H302	H	0.558956	0.518612	0.433978
	O303	O	0.427174	0.559176	0.530476
	H304	H	0.430229	0.555617	0.517586
	H305	H	0.433842	0.556095	0.527744
	O306	O	0.515341	0.540591	1.499604
	H307	H	0.516229	0.540911	1.500016
	H308	H	0.518189	0.551286	1.500183
	O309	O	0.454140	0.495190	0.432770
	H310	H	0.455957	0.493014	0.442436
	H311	H	0.463779	0.491015	0.427471
	O312	O	0.460967	0.474029	0.582507
	H313	H	0.458884	0.463763	0.583773
	H314	H	0.474457	0.484391	0.583353
	O315	O	1.077987	-0.052105	0.945152
	H316	H	1.069988	-0.059115	0.939923
	H317	H	1.085134	-0.058420	0.951022
	O318	O	-0.572333	-0.495194	-0.512281
	H319	H	-0.579797	-0.498952	-0.518807
	H320	H	-0.570978	-0.494405	-0.517236
	O321	O	0.469652	0.542234	0.455086
	H322	H	0.454939	0.551964	0.464273
	H323	H	0.473540	0.549862	0.455334
	O324	O	1.081339	-0.003795	-0.089815
	H325	H	1.084485	-0.001858	-0.089616
	H326	H	1.088365	-0.014674	-0.085304
	O327	O	1.062067	0.969704	-0.103906
	H328	H	1.062557	0.975610	-0.106598
	H329	H	1.068536	0.978276	-0.102871
	O330	O	0.545023	0.453401	0.564669
	H331	H	0.545290	0.442716	0.566677
	H332	H	0.539553	0.463878	0.552452
	O333	O	0.421285	0.436772	0.485026
	H334	H	0.418343	0.448625	0.487566
	H335	H	0.417958	0.442484	0.488479
