data_Molecule from HDF5

_cell_length_a		16.405719
_cell_length_b		16.270409
_cell_length_c		16.142802
_cell_angle_alpha	89.559076
_cell_angle_beta	89.618453
_cell_angle_gamma	90.145509
_symmetry_space_group_name_H-M	'P 1'
_symmetry_Int_Tables_number		1

loop_
	_symmetry_equiv_pos_as_xyz
	x,y,z

loop_
	_atom_site_label
	_atom_site_type_symbol
	_atom_site_fract_x
	_atom_site_fract_y
	_atom_site_fract_z
	H0	H	0.399739	0.830274	0.721394
	H1	H	0.597286	0.157210	0.713968
	H2	H	0.596941	0.829049	0.287775
	H3	H	0.404102	0.157250	0.289685
	H4	H	0.716272	0.391911	0.839728
	H5	H	0.713299	0.596888	0.165109
	H6	H	0.283062	0.597094	0.838305
	H7	H	0.279322	0.392199	0.165322
	H8	H	0.838645	0.710988	0.400636
	H9	H	0.161578	0.707383	0.602126
	H10	H	0.837905	0.271725	0.606761
	H11	H	0.160667	0.277874	0.401048
	H12	H	0.836985	0.390225	0.720925
	H13	H	0.161997	0.589839	0.715549
	H14	H	0.835750	0.590941	0.288663
	H15	H	0.159279	0.393434	0.283137
	H16	H	0.397483	0.711832	0.839074
	H17	H	0.593014	0.705974	0.167092
	H18	H	0.595849	0.282137	0.837309
	H19	H	0.396446	0.277889	0.166369
	H20	H	0.717967	0.830298	0.397779
	H21	H	0.720888	0.153154	0.605364
	H22	H	0.281697	0.829831	0.607786
	H23	H	0.283315	0.155575	0.401150
	H24	H	0.897874	0.329260	0.217646
	H25	H	0.092655	0.657918	0.212777
	H26	H	0.095083	0.328242	0.791184
	H27	H	0.901223	0.656007	0.784669
	H28	H	0.217377	0.891812	0.338730
	H29	H	0.212999	0.090036	0.667051
	H30	H	0.783566	0.094816	0.338916
	H31	H	0.780197	0.885264	0.664803
	H32	H	0.335729	0.208434	0.903227
	H33	H	0.658812	0.212933	0.103511
	H34	H	0.336162	0.775640	0.107216
	H35	H	0.658614	0.776391	0.900980
	H36	H	0.336208	0.894020	0.220358
	H37	H	0.661633	0.092215	0.215514
	H38	H	0.337518	0.094786	0.785775
	H39	H	0.661057	0.895777	0.788053
	H40	H	0.900275	0.208520	0.338867
	H41	H	0.097682	0.205163	0.666933
	H42	H	0.099813	0.779405	0.336854
	H43	H	0.901528	0.775360	0.666620
	H44	H	0.216949	0.332261	0.898703
	H45	H	0.213268	0.655730	0.101603
	H46	H	0.776820	0.331907	0.107412
	H47	H	0.781385	0.656446	0.897983
	H48	H	0.399374	0.107651	0.583541
	H49	H	0.595724	0.876367	0.590782
	H50	H	0.594828	0.109608	0.407891
	H51	H	0.401459	0.874822	0.409604
	H52	H	0.585932	0.406880	0.116894
	H53	H	0.581539	0.577435	0.890571
	H54	H	0.402187	0.583061	0.120191
	H55	H	0.404872	0.403224	0.884581
	H56	H	0.117707	0.590446	0.400289
	H57	H	0.883586	0.583882	0.596160
	H58	H	0.109645	0.415108	0.596920
	H59	H	0.883325	0.398614	0.412665
	H60	H	0.120762	0.388526	0.607846
	H61	H	0.885335	0.585325	0.589949
	H62	H	0.114034	0.588672	0.413959
	H63	H	0.883098	0.399424	0.410745
	H64	H	0.403687	0.583547	0.119380
	H65	H	0.585776	0.596823	0.882787
	H66	H	0.584275	0.400430	0.118805
	H67	H	0.405874	0.401970	0.884991
	H68	H	0.589189	0.106613	0.410179
	H69	H	0.590004	0.875089	0.600248
	H70	H	0.399974	0.113619	0.602449
	H71	H	0.412437	0.876581	0.408936
	H72	H	0.907777	0.608946	0.094430
	H73	H	0.088830	0.376389	0.095512
	H74	H	0.083000	0.604264	0.918319
	H75	H	0.909539	0.381465	0.920318
	H76	H	0.107982	0.901497	0.622869
	H77	H	0.088222	0.089014	0.385407
	H78	H	0.907591	0.075460	0.618080
	H79	H	0.907001	0.903730	0.385867
	H80	H	0.617280	0.098614	0.908868
	H81	H	0.384870	0.082834	0.092011
	H82	H	0.615665	0.897354	0.100013
	H83	H	0.382821	0.902175	0.911837
	H84	H	0.613031	0.895139	0.088760
	H85	H	0.382838	0.083906	0.100368
	H86	H	0.611024	0.084971	0.916799
	H87	H	0.384007	0.902142	0.915677
	H88	H	0.911715	0.081012	0.618040
	H89	H	0.099840	0.086379	0.382480
	H90	H	0.081155	0.911241	0.612569
	H91	H	0.911858	0.902290	0.386681
	H92	H	0.104129	0.612786	0.911157
	H93	H	0.086793	0.377721	0.090925
	H94	H	0.901633	0.608312	0.089564
	H95	H	0.895691	0.375934	0.916582
	H96	H	0.415851	0.106133	0.593011
	H97	H	0.584556	0.880051	0.591132
	H98	H	0.595309	0.107304	0.414207
	H99	H	0.406632	0.878343	0.418781
	H100	H	0.591053	0.401759	0.120489
	H101	H	0.600192	0.582423	0.882002
	H102	H	0.402723	0.584787	0.120168
	H103	H	0.404150	0.402061	0.884439
	H104	H	0.112883	0.578039	0.404989
	H105	H	0.885762	0.579644	0.591961
	H106	H	0.110660	0.390225	0.578937
	H107	H	0.882321	0.397741	0.411271
	H108	H	0.901284	0.612005	0.097141
	H109	H	0.091563	0.377227	0.091802
	H110	H	0.086482	0.611991	0.896035
	H111	H	0.907799	0.376527	0.905900
	H112	H	0.084932	0.883453	0.622088
	H113	H	0.092894	0.077810	0.386368
	H114	H	0.905026	0.081515	0.619538
	H115	H	0.907931	0.899523	0.384044
	H116	H	0.614542	0.084131	0.900829
	H117	H	0.381891	0.090846	0.094957
	H118	H	0.611210	0.905193	0.092812
	H119	H	0.384924	0.905835	0.914060
	C120	C	0.376384	0.001349	0.624697
	C121	C	0.620662	0.984419	0.623254
	C122	C	0.621899	0.000674	0.380571
	C123	C	0.378161	0.984512	0.382236
	C124	C	0.617687	0.373734	0.010802
	C125	C	0.617825	0.614828	0.993628
	C126	C	0.374896	0.614846	0.011378
	C127	C	0.374951	0.372214	0.993146
	C128	C	0.007839	0.614906	0.378601
	C129	C	0.991603	0.612278	0.622286
	C130	C	0.007169	0.367753	0.625593
	C131	C	0.989979	0.370084	0.380732
	C132	C	0.874026	0.502081	0.124465
	C133	C	0.117995	0.484833	0.122132
	C134	C	0.120142	0.501900	0.879606
	C135	C	0.875796	0.485023	0.881421
	C136	C	0.121513	0.870036	0.510810
	C137	C	0.121063	0.112680	0.493723
	C138	C	0.878774	0.111302	0.510529
	C139	C	0.878571	0.869923	0.493399
	C140	C	0.507074	0.117115	0.880155
	C141	C	0.490119	0.115674	0.124212
	C142	C	0.506384	0.870420	0.124875
	C143	C	0.489902	0.872659	0.882329
	C144	C	0.378694	0.879138	0.683216
	C145	C	0.618805	0.107748	0.677626
	C146	C	0.618408	0.877972	0.324939
	C147	C	0.381645	0.107691	0.326237
	C148	C	0.676255	0.373684	0.888117
	C149	C	0.674297	0.615184	0.116430
	C150	C	0.320657	0.615399	0.887500
	C151	C	0.317641	0.372425	0.116302
	C152	C	0.886517	0.671808	0.380920
	C153	C	0.113277	0.668749	0.621322
	C154	C	0.886123	0.310470	0.626027
	C155	C	0.111974	0.315460	0.381235
	C156	C	0.885614	0.369438	0.682921
	C157	C	0.113478	0.610039	0.677823
	C158	C	0.885014	0.612257	0.324778
	C159	C	0.111235	0.373179	0.322806
	C160	C	0.377369	0.673008	0.888098
	C161	C	0.614550	0.669580	0.117373
	C162	C	0.616924	0.318403	0.887098
	C163	C	0.375961	0.315730	0.116920
	C164	C	0.678505	0.878660	0.379848
	C165	C	0.680085	0.105719	0.623346
	C166	C	0.319915	0.878977	0.626696
	C167	C	0.321827	0.106892	0.382016
	C168	C	0.876264	0.378862	0.180864
	C169	C	0.114348	0.608354	0.176441
	C170	C	0.116637	0.378002	0.826829
	C171	C	0.879853	0.607424	0.823348
	C172	C	0.178854	0.871899	0.387458
	C173	C	0.175443	0.110486	0.617760
	C174	C	0.822495	0.112784	0.387650
	C175	C	0.820164	0.867638	0.616129
	C176	C	0.384667	0.171832	0.882373
	C177	C	0.610970	0.173470	0.122721
	C178	C	0.384512	0.814372	0.125925
	C179	C	0.610906	0.815347	0.882100
	C180	C	0.384745	0.873032	0.182479
	C181	C	0.612664	0.113090	0.178312
	C182	C	0.385505	0.114773	0.824408
	C183	C	0.612246	0.875070	0.826149
	C184	C	0.880460	0.169620	0.387745
	C185	C	0.117814	0.167343	0.617809
	C186	C	0.120064	0.816175	0.386549
	C187	C	0.880133	0.812567	0.616970
	C188	C	0.177078	0.379945	0.880440
	C189	C	0.174251	0.607525	0.121155
	C190	C	0.816295	0.380110	0.125898
	C191	C	0.820175	0.607572	0.879629
	C192	C	0.398718	0.086918	0.600143
	C193	C	0.597016	0.899218	0.600595
	C194	C	0.599736	0.085904	0.403929
	C195	C	0.400256	0.898805	0.405817
	C196	C	0.594154	0.396594	0.096459
	C197	C	0.595629	0.592152	0.907438
	C198	C	0.396487	0.590635	0.097575
	C199	C	0.398069	0.395638	0.906956
	C200	C	0.092723	0.592361	0.399954
	C201	C	0.906947	0.589554	0.599366
	C202	C	0.091840	0.391221	0.601535
	C203	C	0.905106	0.392108	0.404685
	C204	C	0.896926	0.587519	0.100725
	C205	C	0.095593	0.399390	0.099427
	C206	C	0.097863	0.587307	0.901897
	C207	C	0.897906	0.400060	0.906755
	C208	C	0.098260	0.892138	0.596727
	C209	C	0.099964	0.090756	0.407201
	C210	C	0.901508	0.086606	0.596549
	C211	C	0.901897	0.894724	0.407746
	C212	C	0.592148	0.095613	0.902339
	C213	C	0.405245	0.092460	0.102158
	C214	C	0.591303	0.892763	0.100774
	C215	C	0.405737	0.896347	0.906738
	Zn216	Zn	0.499207	-0.006012	0.752529
	Zn217	Zn	0.499505	-0.007126	0.252751
	Zn218	Zn	0.746011	0.494450	0.002953
	Zn219	Zn	0.247088	0.493753	0.001144
	Zn220	Zn	0.000505	0.742544	0.501558
	Zn221	Zn	-0.000844	0.240232	0.502673
	Zn222	Zn	-0.001112	0.491958	0.752512
	Zn223	Zn	-0.002830	0.492739	0.250928
	Zn224	Zn	0.496348	0.742123	0.002868
	Zn225	Zn	0.497014	0.245291	0.001927
	Zn226	Zn	0.750095	-0.008897	0.501929
	Zn227	Zn	0.248823	-0.008236	0.502831
	N228	N	0.412950	0.956484	0.682296
	N229	N	0.582577	0.031435	0.677654
	N230	N	0.584013	0.955028	0.325039
	N231	N	0.416128	0.030753	0.326426
	N232	N	0.677048	0.407152	0.966188
	N233	N	0.676489	0.581934	0.038455
	N234	N	0.318874	0.579857	0.965119
	N235	N	0.316826	0.406818	0.038154
	N236	N	0.963892	0.673789	0.413354
	N237	N	0.036448	0.670382	0.587529
	N238	N	0.962853	0.309152	0.591408
	N239	N	0.035353	0.313421	0.416400
	N240	N	0.962022	0.404147	0.682942
	N241	N	0.036875	0.575665	0.678688
	N242	N	0.961236	0.577498	0.323400
	N243	N	0.034213	0.406295	0.322183
	N244	N	0.410334	0.672797	0.966107
	N245	N	0.579855	0.669340	0.040042
	N246	N	0.581088	0.318434	0.964211
	N247	N	0.410502	0.315461	0.039235
	N248	N	0.680602	0.955824	0.413875
	N249	N	0.681364	0.027968	0.590504
	N250	N	0.318422	0.955959	0.591077
	N251	N	0.319695	0.029095	0.415953
	N252	N	0.911276	0.455760	0.180266
	N253	N	0.080011	0.531101	0.177017
	N254	N	0.081910	0.454807	0.826092
	N255	N	0.913619	0.530145	0.824217
	N256	N	0.180005	0.904585	0.465853
	N257	N	0.177630	0.077175	0.539637
	N258	N	0.821357	0.077298	0.465224
	N259	N	0.819066	0.902508	0.538191
	N260	N	0.461359	0.173605	0.916206
	N261	N	0.533738	0.175202	0.089932
	N262	N	0.461087	0.812730	0.090709
	N263	N	0.533943	0.813841	0.916347
	N264	N	0.461400	0.907376	0.181926
	N265	N	0.536476	0.077849	0.179395
	N266	N	0.462610	0.081806	0.822466
	N267	N	0.535985	0.910047	0.826132
	N268	N	0.914798	0.168571	0.465259
	N269	N	0.084968	0.169139	0.539633
	N270	N	0.085270	0.814885	0.464144
	N271	N	0.915602	0.813773	0.539707
	N272	N	0.179416	0.457960	0.912537
	N273	N	0.176705	0.529795	0.088172
	N274	N	0.814445	0.457958	0.091878
	N275	N	0.817525	0.530414	0.914929
	O276	O	-0.011923	0.004673	-0.035847
	H277	H	-0.003189	0.008485	-0.045925
	H278	H	-0.016473	0.007814	-0.026516
	O279	O	0.408439	0.674570	0.453922
	H280	H	0.392243	0.691683	0.437349
	H281	H	0.411973	0.666721	0.432806
	O282	O	0.858448	-0.080833	0.027633
	H283	H	0.861595	-0.082935	0.026122
	H284	H	0.867577	-0.082566	0.015754
	O285	O	-0.039270	1.042676	-0.146616
	H286	H	-0.040983	1.047674	-0.150479
	H287	H	-0.046844	1.048882	-0.152420
	O288	O	0.552443	0.408071	0.551828
	H289	H	0.552029	0.417023	0.564459
	H290	H	0.556446	0.415901	0.550057
	O291	O	0.496051	0.547721	0.345889
	H292	H	0.497802	0.542086	0.355477
	H293	H	0.506661	0.538630	0.339253
	O294	O	0.874455	1.038769	1.004378
	H295	H	0.867467	1.045783	1.008004
	H296	H	0.868308	1.043714	0.990904
	O297	O	0.090760	-0.096077	-0.021581
	H298	H	0.085927	-0.103632	-0.012670
	H299	H	0.104080	-0.104824	-0.026947
	O300	O	0.466351	0.538232	0.497734
	H301	H	0.460055	0.549614	0.498630
	H302	H	0.465689	0.540029	0.504902
	O303	O	-0.053797	0.923284	1.058432
	H304	H	-0.061320	0.915685	1.052069
	H305	H	-0.058290	0.922936	1.075001
	O306	O	0.950753	1.053210	-0.077864
	H307	H	0.962002	1.049423	-0.067471
	H308	H	0.957110	1.058829	-0.083596
	O309	O	1.029750	0.165433	0.033609
	H310	H	1.030575	0.174113	0.039227
	H311	H	1.014251	0.165073	0.034377
	O312	O	-0.116437	-0.068469	1.057702
	H313	H	-0.114258	-0.079654	1.071983
	H314	H	-0.119453	-0.059861	1.068778
	O315	O	0.548442	0.499505	0.665796
	H316	H	0.550506	0.491591	0.676817
	H317	H	0.558971	0.500246	0.649640
	O318	O	0.434675	0.426648	0.598756
	H319	H	0.437607	0.442041	0.594318
	H320	H	0.439863	0.431327	0.605612
	O321	O	0.617944	0.657877	0.533709
	H322	H	0.615787	0.664990	0.531041
	H323	H	0.617337	0.663240	0.541555
	O324	O	0.684648	0.567821	0.536225
	H325	H	0.667899	0.568593	0.551877
	H326	H	0.692935	0.583618	0.548383
	O327	O	0.123012	1.013864	1.072058
	H328	H	0.123935	1.030773	1.062679
	H329	H	0.128781	1.021495	1.076932
	O330	O	0.616659	0.527923	0.549789
	H331	H	0.628012	0.522159	0.546558
	H332	H	0.616295	0.551034	0.552811
	O333	O	-0.004023	1.069189	1.026309
	H334	H	-0.005741	1.070333	1.039147
	H335	H	-0.011004	1.070135	1.036328
	O336	O	1.072872	1.003708	0.983469
	H337	H	1.079248	1.010007	0.995303
	H338	H	1.073595	1.015323	0.990506
	O339	O	0.482078	0.594930	0.569706
	H340	H	0.478322	0.573913	0.578340
	H341	H	0.466575	0.597603	0.559591
	O342	O	1.021734	-0.036383	0.007848
	H343	H	1.026629	-0.027207	0.005630
	H344	H	1.036755	-0.039203	0.011792
	O345	O	0.557503	0.511820	0.481328
	H346	H	0.564194	0.504639	0.467939
	H347	H	0.576542	0.503982	0.486019
	O348	O	0.977366	0.980425	1.102762
	H349	H	0.965652	0.968510	1.115586
	H350	H	0.992998	0.963686	1.092193
	O351	O	0.585887	1.359514	-0.583201
	H352	H	0.579625	1.354047	-0.577951
	H353	H	0.574226	1.358279	-0.565456
	O354	O	0.463938	0.568793	0.323132
	H355	H	0.475359	0.565673	0.316601
	H356	H	0.478860	0.569580	0.319486
	O357	O	0.334644	0.471109	0.449997
	H358	H	0.332835	0.468901	0.462204
	H359	H	0.329337	0.463560	0.441406
	O360	O	0.090733	0.012141	-0.005144
	H361	H	0.090199	-0.005062	-0.008022
	H362	H	0.092078	-0.004558	-0.002142
	O363	O	0.346544	0.377817	0.565097
	H364	H	0.340403	0.386807	0.565866
	H365	H	0.338634	0.366978	0.559665
	O366	O	0.583205	0.334633	0.495756
	H367	H	0.582042	0.342204	0.504508
	H368	H	0.574525	0.317322	0.506481
	O369	O	0.413131	0.518728	0.552977
	H370	H	0.427648	0.521602	0.555578
	H371	H	0.414195	0.521869	0.541606
	O372	O	0.579192	0.616429	0.611466
	H373	H	0.567094	0.613659	0.610892
	H374	H	0.581381	0.614650	0.617667
	O375	O	0.507981	0.480986	0.479221
	H376	H	0.523036	0.494819	0.471092
	H377	H	0.515583	0.475540	0.486679
	O378	O	0.394804	0.481790	0.533869
	H379	H	0.388899	0.490823	0.542424
	H380	H	0.400005	0.482571	0.529339
	O381	O	0.601926	0.439378	0.382966
	H382	H	0.614840	0.432648	0.378025
	H383	H	0.598355	0.422125	0.382437
	O384	O	0.007275	1.147874	0.016034
	H385	H	0.007888	1.149392	0.024082
	H386	H	0.014401	1.154851	0.018343
	O387	O	0.895967	-0.120361	1.046064
	H388	H	0.889038	-0.102963	1.037093
	H389	H	0.892026	-0.125888	1.059631
	O390	O	0.019465	0.874334	-0.123055
	H391	H	0.018435	0.872943	-0.128683
	H392	H	0.005999	0.872362	-0.116281
	O393	O	0.940540	0.954054	0.128289
	H394	H	0.945877	0.958155	0.116697
	H395	H	0.944270	0.951092	0.135910
	O396	O	0.431814	0.326651	0.608858
	H397	H	0.428814	0.330726	0.619182
	H398	H	0.412507	0.315411	0.623650
	O399	O	0.149773	0.976281	1.014317
	H400	H	0.149911	0.975232	1.024086
	H401	H	0.149553	0.981696	1.018594
	O402	O	1.020464	0.985212	0.929115
	H403	H	1.035482	0.976811	0.912151
	H404	H	1.007236	1.002830	0.922452
	O405	O	0.497301	0.387441	0.437290
	H406	H	0.493979	0.396403	0.443270
	H407	H	0.497426	0.380138	0.439540
