data_Molecule from HDF5

_cell_length_a		16.378033
_cell_length_b		16.490930
_cell_length_c		16.171368
_cell_angle_alpha	89.976478
_cell_angle_beta	90.334414
_cell_angle_gamma	90.091692
_symmetry_space_group_name_H-M	'P 1'
_symmetry_Int_Tables_number		1

loop_
	_symmetry_equiv_pos_as_xyz
	x,y,z

loop_
	_atom_site_label
	_atom_site_type_symbol
	_atom_site_fract_x
	_atom_site_fract_y
	_atom_site_fract_z
	H0	H	0.402161	0.834788	0.714425
	H1	H	0.602530	0.155694	0.714470
	H2	H	0.604705	0.837120	0.275964
	H3	H	0.398170	0.155174	0.277894
	H4	H	0.717709	0.394645	0.836595
	H5	H	0.722616	0.603803	0.159111
	H6	H	0.280390	0.598131	0.836351
	H7	H	0.285783	0.392510	0.160418
	H8	H	0.844490	0.719058	0.389987
	H9	H	0.160983	0.717499	0.608851
	H10	H	0.842609	0.273122	0.605042
	H11	H	0.160516	0.273436	0.393515
	H12	H	0.840032	0.393648	0.716534
	H13	H	0.162841	0.596311	0.718478
	H14	H	0.840755	0.597317	0.280639
	H15	H	0.161938	0.393427	0.281737
	H16	H	0.393384	0.715065	0.835667
	H17	H	0.607120	0.719577	0.158083
	H18	H	0.605254	0.278071	0.836659
	H19	H	0.395900	0.274043	0.157410
	H20	H	0.723165	0.837056	0.390770
	H21	H	0.723933	0.153354	0.604097
	H22	H	0.281318	0.836299	0.603022
	H23	H	0.279151	0.153379	0.390476
	H24	H	0.895982	0.337170	0.219211
	H25	H	0.102858	0.656083	0.217824
	H26	H	0.102683	0.336613	0.781566
	H27	H	0.898537	0.655549	0.778437
	H28	H	0.220120	0.890263	0.336241
	H29	H	0.221459	0.096300	0.660017
	H30	H	0.782228	0.098264	0.337439
	H31	H	0.783962	0.890965	0.660250
	H32	H	0.342014	0.217221	0.888555
	H33	H	0.659710	0.219485	0.105087
	H34	H	0.340566	0.775266	0.101285
	H35	H	0.657618	0.771679	0.887739
	H36	H	0.340315	0.893798	0.215666
	H37	H	0.660924	0.101267	0.219212
	H38	H	0.339903	0.094894	0.780177
	H39	H	0.662917	0.897840	0.785230
	H40	H	0.893492	0.216295	0.338461
	H41	H	0.108767	0.214739	0.659621
	H42	H	0.108115	0.773088	0.338495
	H43	H	0.899670	0.775564	0.660589
	H44	H	0.221297	0.337538	0.893932
	H45	H	0.222474	0.654993	0.105051
	H46	H	0.776672	0.339190	0.106136
	H47	H	0.777591	0.653835	0.890549
	H48	H	0.412447	0.108518	0.588228
	H49	H	0.589281	0.883526	0.586101
	H50	H	0.591641	0.106278	0.415470
	H51	H	0.413231	0.880485	0.400958
	H52	H	0.586219	0.408424	0.113301
	H53	H	0.590708	0.587147	0.882356
	H54	H	0.409707	0.596591	0.118465
	H55	H	0.416199	0.410710	0.885111
	H56	H	0.116925	0.591287	0.415222
	H57	H	0.889432	0.586506	0.581977
	H58	H	0.117509	0.399541	0.592258
	H59	H	0.886897	0.403617	0.410199
	H60	H	0.113801	0.403177	0.584617
	H61	H	0.888754	0.582551	0.588599
	H62	H	0.112809	0.579823	0.413971
	H63	H	0.887878	0.404288	0.412503
	H64	H	0.406111	0.577594	0.112129
	H65	H	0.589208	0.580624	0.884170
	H66	H	0.588507	0.406132	0.113436
	H67	H	0.411385	0.400201	0.879321
	H68	H	0.595043	0.109465	0.407778
	H69	H	0.600521	0.880188	0.586798
	H70	H	0.410199	0.108469	0.585407
	H71	H	0.415256	0.884711	0.412402
	H72	H	0.912299	0.607833	0.082885
	H73	H	0.085230	0.387173	0.082189
	H74	H	0.092129	0.608645	0.912397
	H75	H	0.908153	0.382961	0.912479
	H76	H	0.088323	0.898068	0.615411
	H77	H	0.092784	0.086870	0.381332
	H78	H	0.909554	0.082228	0.615123
	H79	H	0.917548	0.902353	0.383454
	H80	H	0.616914	0.089542	0.905618
	H81	H	0.388467	0.082630	0.085838
	H82	H	0.613428	0.900902	0.078982
	H83	H	0.387353	0.911978	0.905901
	H84	H	0.610505	0.913993	0.081983
	H85	H	0.386224	0.089519	0.086074
	H86	H	0.617102	0.091260	0.908000
	H87	H	0.382931	0.901381	0.901410
	H88	H	0.917821	0.080791	0.611874
	H89	H	0.089194	0.081776	0.384289
	H90	H	0.100461	0.908372	0.615505
	H91	H	0.908549	0.905096	0.381888
	H92	H	0.092750	0.610179	0.909616
	H93	H	0.104687	0.379906	0.086214
	H94	H	0.907182	0.610974	0.088609
	H95	H	0.908251	0.382866	0.908456
	H96	H	0.408662	0.109587	0.588243
	H97	H	0.593413	0.878911	0.596682
	H98	H	0.586872	0.106796	0.407981
	H99	H	0.404272	0.880727	0.408955
	H100	H	0.588655	0.409104	0.112912
	H101	H	0.584700	0.586144	0.884450
	H102	H	0.423422	0.585362	0.109739
	H103	H	0.404268	0.410267	0.880636
	H104	H	0.117673	0.585218	0.404600
	H105	H	0.886449	0.589357	0.588937
	H106	H	0.115509	0.408742	0.592173
	H107	H	0.888102	0.406541	0.410495
	H108	H	0.914963	0.608833	0.090856
	H109	H	0.090191	0.379554	0.101318
	H110	H	0.090062	0.609307	0.910387
	H111	H	0.911778	0.383905	0.910405
	H112	H	0.086140	0.912539	0.609349
	H113	H	0.086288	0.087770	0.382589
	H114	H	0.915178	0.088830	0.615895
	H115	H	0.915036	0.911150	0.386190
	H116	H	0.615457	0.088630	0.907923
	H117	H	0.389213	0.086889	0.080111
	H118	H	0.616198	0.905769	0.091999
	H119	H	0.387332	0.902049	0.912799
	C120	C	0.380299	0.003382	0.618808
	C121	C	0.624924	0.986590	0.620631
	C122	C	0.623339	0.003446	0.376670
	C123	C	0.379064	0.987053	0.375494
	C124	C	0.620506	0.376253	0.006746
	C125	C	0.621364	0.618268	0.989445
	C126	C	0.379981	0.617201	0.006568
	C127	C	0.380060	0.374897	0.988468
	C128	C	0.010754	0.617209	0.378067
	C129	C	0.993634	0.617129	0.620253
	C130	C	0.009842	0.372810	0.621198
	C131	C	0.992764	0.373472	0.378392
	C132	C	0.878470	0.504638	0.120670
	C133	C	0.123902	0.487550	0.121448
	C134	C	0.122612	0.504387	0.878557
	C135	C	0.878117	0.487998	0.876815
	C136	C	0.123227	0.873908	0.507224
	C137	C	0.122537	0.116648	0.489591
	C138	C	0.881094	0.115832	0.507748
	C139	C	0.881537	0.873706	0.490083
	C140	C	0.510214	0.119095	0.875194
	C141	C	0.492996	0.117982	0.117570
	C142	C	0.508501	0.874914	0.117148
	C143	C	0.491495	0.873954	0.875624
	C144	C	0.381579	0.882994	0.676436
	C145	C	0.623227	0.107301	0.676904
	C146	C	0.623965	0.884475	0.315883
	C147	C	0.378433	0.107041	0.316594
	C148	C	0.679277	0.375576	0.885356
	C149	C	0.682355	0.621518	0.110643
	C150	C	0.319411	0.617614	0.884990
	C151	C	0.323669	0.373646	0.111242
	C152	C	0.891253	0.677534	0.373811
	C153	C	0.113185	0.677344	0.625384
	C154	C	0.890129	0.313046	0.623276
	C155	C	0.112720	0.313801	0.375842
	C156	C	0.888691	0.373384	0.678520
	C157	C	0.114309	0.616748	0.679884
	C158	C	0.889475	0.617274	0.319050
	C159	C	0.113628	0.373504	0.320066
	C160	C	0.376218	0.675433	0.884342
	C161	C	0.624989	0.679326	0.110117
	C162	C	0.622816	0.317706	0.885206
	C163	C	0.378387	0.314447	0.109598
	C164	C	0.682852	0.884572	0.373347
	C165	C	0.683678	0.106111	0.621955
	C166	C	0.321523	0.883758	0.620724
	C167	C	0.319552	0.106187	0.373134
	C168	C	0.876911	0.385156	0.179927
	C169	C	0.123263	0.607813	0.179679
	C170	C	0.122263	0.384602	0.820080
	C171	C	0.878182	0.607447	0.817250
	C172	C	0.181465	0.871664	0.385172
	C173	C	0.182268	0.116285	0.611221
	C174	C	0.821273	0.117099	0.385913
	C175	C	0.823017	0.872337	0.611969
	C176	C	0.389650	0.177114	0.871909
	C177	C	0.612465	0.178658	0.122113
	C178	C	0.388471	0.815161	0.119516
	C179	C	0.610686	0.813241	0.871935
	C180	C	0.388162	0.874344	0.176320
	C181	C	0.613068	0.119585	0.178623
	C182	C	0.388671	0.116035	0.817792
	C183	C	0.613642	0.876210	0.820934
	C184	C	0.876941	0.175936	0.386614
	C185	C	0.126042	0.175217	0.611224
	C186	C	0.125591	0.813454	0.386312
	C187	C	0.880250	0.814688	0.611703
	C188	C	0.181334	0.385135	0.876342
	C189	C	0.182887	0.607082	0.123375
	C190	C	0.817299	0.386226	0.123585
	C191	C	0.818040	0.606613	0.873053
	C192	C	0.403610	0.086982	0.594258
	C193	C	0.601493	0.902689	0.596694
	C194	C	0.598463	0.085865	0.402815
	C195	C	0.403567	0.903796	0.400216
	C196	C	0.595172	0.400847	0.091380
	C197	C	0.595658	0.592327	0.905467
	C198	C	0.405753	0.593457	0.091204
	C199	C	0.403820	0.399862	0.903732
	C200	C	0.094102	0.592587	0.403839
	C201	C	0.909991	0.593094	0.594055
	C202	C	0.093925	0.396990	0.596841
	C203	C	0.909397	0.397770	0.403656
	C204	C	0.904075	0.587660	0.094859
	C205	C	0.100219	0.403905	0.097108
	C206	C	0.098516	0.587686	0.903504
	C207	C	0.902505	0.404886	0.902897
	C208	C	0.098774	0.899152	0.591372
	C209	C	0.096879	0.092555	0.404722
	C210	C	0.906732	0.091103	0.592318
	C211	C	0.906416	0.898817	0.405808
	C212	C	0.594572	0.096554	0.900146
	C213	C	0.409665	0.093353	0.091582
	C214	C	0.591745	0.899852	0.091715
	C215	C	0.407779	0.897990	0.899619
	Zn216	Zn	0.502100	-0.004379	0.748392
	Zn217	Zn	0.500982	-0.003447	0.246552
	Zn218	Zn	0.748955	0.496742	-0.001153
	Zn219	Zn	0.252935	0.495591	-0.000509
	Zn220	Zn	0.002812	0.745804	0.498816
	Zn221	Zn	0.001073	0.244260	0.499521
	Zn222	Zn	0.001168	0.495921	0.748893
	Zn223	Zn	0.001039	0.495799	0.249798
	Zn224	Zn	0.500038	0.745965	-0.003764
	Zn225	Zn	0.500528	0.247702	-0.003124
	Zn226	Zn	0.753380	-0.005155	0.499001
	Zn227	Zn	0.250599	-0.005264	0.497172
	N228	N	0.417374	0.958321	0.675385
	N229	N	0.587404	0.031985	0.676361
	N230	N	0.587507	0.959479	0.317667
	N231	N	0.414792	0.032007	0.317931
	N232	N	0.677923	0.411419	0.962060
	N233	N	0.680179	0.584317	0.034645
	N234	N	0.321781	0.581972	0.961960
	N235	N	0.324346	0.410261	0.034920
	N236	N	0.967496	0.677652	0.409843
	N237	N	0.037039	0.677651	0.589014
	N238	N	0.966475	0.312528	0.588739
	N239	N	0.036608	0.313471	0.411077
	N240	N	0.964468	0.409837	0.677528
	N241	N	0.039022	0.579937	0.676897
	N242	N	0.964649	0.580435	0.321603
	N243	N	0.038053	0.409860	0.321350
	N244	N	0.412946	0.675431	0.960833
	N245	N	0.587947	0.677667	0.033643
	N246	N	0.587202	0.317856	0.961955
	N247	N	0.412694	0.314909	0.032214
	N248	N	0.682681	0.959463	0.410369
	N249	N	0.684808	0.029808	0.587815
	N250	N	0.320558	0.959652	0.585606
	N251	N	0.319746	0.030423	0.408819
	N252	N	0.914130	0.459935	0.178402
	N253	N	0.087213	0.532437	0.178592
	N254	N	0.086585	0.459964	0.821120
	N255	N	0.914587	0.532467	0.819350
	N256	N	0.180167	0.908687	0.461255
	N257	N	0.180176	0.080592	0.534400
	N258	N	0.823693	0.080547	0.462316
	N259	N	0.823328	0.908030	0.535076
	N260	N	0.466310	0.179263	0.906778
	N261	N	0.537021	0.177719	0.084568
	N262	N	0.464510	0.815241	0.083736
	N263	N	0.533682	0.811641	0.905186
	N264	N	0.463773	0.910666	0.175137
	N265	N	0.538014	0.082404	0.175719
	N266	N	0.464748	0.080960	0.819352
	N267	N	0.538561	0.913309	0.822753
	N268	N	0.913419	0.175320	0.463418
	N269	N	0.089729	0.175561	0.534353
	N270	N	0.090214	0.814425	0.463179
	N271	N	0.915691	0.815368	0.535008
	N272	N	0.181766	0.460633	0.912022
	N273	N	0.183560	0.531149	0.088167
	N274	N	0.818379	0.461750	0.087464
	N275	N	0.817757	0.531052	0.909179
	O276	O	0.584814	0.517815	0.434155
	H277	H	0.594127	0.521016	0.444470
	H278	H	0.596276	0.514435	0.437648
	O279	O	0.630719	0.674832	0.645147
	H280	H	0.633754	0.649406	0.637105
	H281	H	0.605126	0.684245	0.658904
	O282	O	0.552247	0.342185	0.434073
	H283	H	0.548745	0.346024	0.419714
	H284	H	0.551000	0.352217	0.432125
	O285	O	1.147558	0.180846	-0.067703
	H286	H	1.145606	0.201389	-0.082646
	H287	H	1.136743	0.185548	-0.061790
	O288	O	-0.295742	0.675405	0.496462
	H289	H	-0.304204	0.661210	0.514472
	H290	H	-0.276776	0.699375	0.503277
	O291	O	0.434852	0.502450	0.583525
	H292	H	0.450471	0.494653	0.585079
	H293	H	0.428751	0.509203	0.573108
	O294	O	0.564442	0.316225	0.459810
	H295	H	0.556657	0.322230	0.452984
	H296	H	0.566968	0.308662	0.462806
	O297	O	1.095503	0.894310	0.934834
	H298	H	1.092925	0.887751	0.918296
	H299	H	1.094963	0.904044	0.925357
	O300	O	-0.117957	-0.018455	-0.122195
	H301	H	-0.115118	-0.013839	-0.132207
	H302	H	-0.131293	-0.010599	-0.108184
	O303	O	0.550229	0.641537	0.317497
	H304	H	0.539632	0.664784	0.300516
	H305	H	0.553943	0.633565	0.332438
	O306	O	1.093837	-0.040368	0.090343
	H307	H	1.088999	-0.028550	0.096963
	H308	H	1.087323	-0.044964	0.081476
	O309	O	0.357131	0.325734	0.550842
	H310	H	0.353174	0.350390	0.548637
	H311	H	0.337959	0.322293	0.535184
	O312	O	0.868001	0.843521	0.147114
	H313	H	0.876447	0.848401	0.141841
	H314	H	0.866597	0.843106	0.128567
	O315	O	0.704030	0.551710	0.698010
	H316	H	0.699972	0.562407	0.706774
	H317	H	0.710743	0.542642	0.697676
	O318	O	0.362612	0.361604	0.569957
	H319	H	0.348422	0.349187	0.570575
	H320	H	0.364131	0.373046	0.553010
	O321	O	1.130390	0.054644	0.918462
	H322	H	1.124934	0.066212	0.930234
	H323	H	1.115626	0.056071	0.913834
	O324	O	0.105135	-0.172092	1.025048
	H325	H	0.103500	-0.160993	0.999033
	H326	H	0.086636	-0.181227	1.019311
	O327	O	0.336328	0.630375	0.318778
	H328	H	0.350656	0.629998	0.324749
	H329	H	0.330160	0.616688	0.319990
	O330	O	0.526906	0.456325	0.437591
	H331	H	0.525641	0.433352	0.432577
	H332	H	0.533019	0.462677	0.422929
	O333	O	0.987364	0.887613	1.095868
	H334	H	0.985987	0.893456	1.099873
	H335	H	0.999907	0.883434	1.090095
	O336	O	0.362514	0.337131	0.555017
	H337	H	0.347985	0.341489	0.547131
	H338	H	0.361345	0.349511	0.563594
	O339	O	0.948288	0.089460	1.014274
	H340	H	0.932222	0.094758	1.012314
	H341	H	0.935348	0.087365	1.022470
	O342	O	0.184542	1.179829	1.174661
	H343	H	0.195287	1.190608	1.127827
	H344	H	0.193527	1.129287	1.184693
	O345	O	0.051696	0.878981	0.852900
	H346	H	0.055757	0.880439	0.840141
	H347	H	0.052974	0.882661	0.847505
	O348	O	0.396760	0.556297	0.584043
	H349	H	0.403832	0.575760	0.591298
	H350	H	0.385157	0.549574	0.573476
	O351	O	0.090109	-0.090551	0.151312
	H352	H	0.076948	-0.098633	0.133146
	H353	H	0.100707	-0.101546	0.163225
	O354	O	0.806776	1.198452	-0.014736
	H355	H	0.801989	1.215125	-0.007371
	H356	H	0.798817	1.177803	-0.013562
	O357	O	0.026533	0.932916	0.056360
	H358	H	0.034393	0.937264	0.056898
	H359	H	0.003407	0.948498	0.051618
	O360	O	0.633812	0.396108	0.549504
	H361	H	0.619683	0.382719	0.536033
	H362	H	0.630047	0.395865	0.544288
	O363	O	0.441565	0.588616	0.581644
	H364	H	0.439440	0.595196	0.574534
	H365	H	0.446032	0.579526	0.597306
	O366	O	0.304971	0.478539	0.371793
	H367	H	0.295788	0.468127	0.358265
	H368	H	0.317875	0.484999	0.389376
	O369	O	0.461402	0.618571	0.705343
	H370	H	0.454006	0.606061	0.699716
	H371	H	0.454229	0.621974	0.730337
	O372	O	0.549007	0.468134	0.454311
	H373	H	0.560972	0.464824	0.475148
	H374	H	0.554338	0.468134	0.445835
	O375	O	0.528819	0.300059	0.637495
	H376	H	0.520432	0.288751	0.639510
	H377	H	0.505487	0.290415	0.635289
	O378	O	0.653473	0.432546	0.484596
	H379	H	0.647192	0.439269	0.487016
	H380	H	0.645291	0.441264	0.468360
	O381	O	0.659527	0.305254	0.365054
	H382	H	0.646099	0.304773	0.371154
	H383	H	0.658123	0.311435	0.366642
	O384	O	-0.130834	1.187233	0.826646
	H385	H	-0.149270	1.182941	0.818064
	H386	H	-0.139607	1.198038	0.851642
	O387	O	1.006291	0.897484	0.078685
	H388	H	1.014962	0.889811	0.072799
	H389	H	0.991422	0.892686	0.082482
	O390	O	0.464071	0.472830	0.546441
	H391	H	0.478271	0.479967	0.540466
	H392	H	0.463677	0.462542	0.556326
	O393	O	0.996036	0.179869	0.860887
	H394	H	0.965424	0.177283	0.883016
	H395	H	0.975471	0.196050	0.830313
	O396	O	-0.190360	0.802670	1.023792
	H397	H	-0.178360	0.796546	1.016531
	H398	H	-0.199779	0.790795	1.021255
	O399	O	0.600102	0.682675	0.458421
	H400	H	0.609548	0.685930	0.449979
	H401	H	0.599555	0.688061	0.457850
	O402	O	0.870063	0.079100	0.999456
	H403	H	0.849814	0.076043	1.000901
	H404	H	0.880502	0.067525	1.011038
	O405	O	0.051689	-0.095480	-0.169112
	H406	H	0.054781	-0.085339	-0.177097
	H407	H	0.043799	-0.071525	-0.173329
	O408	O	0.963946	1.144044	1.092531
	H409	H	0.974979	1.158314	1.118806
	H410	H	0.963256	1.126102	1.102244
	O411	O	1.179165	1.071537	0.037709
	H412	H	1.176110	1.061033	0.046758
	H413	H	1.173349	1.059845	0.039006
	O414	O	0.027794	-0.095420	0.926663
	H415	H	0.022752	-0.094150	0.927448
	H416	H	0.028889	-0.098909	0.921872
	O417	O	0.419609	0.591367	0.323657
	H418	H	0.437930	0.608339	0.332998
	H419	H	0.393765	0.581082	0.308558
	O420	O	0.005519	0.912460	-0.175192
	H421	H	0.001500	0.916199	-0.193998
	H422	H	0.012542	0.931492	-0.163782
	O423	O	1.016086	0.209164	0.216132
	H424	H	1.049258	0.215940	0.225603
	H425	H	1.037244	0.224855	0.234201
	O426	O	-0.159281	0.000457	0.976364
	H427	H	-0.171925	-0.016141	0.994975
	H428	H	-0.147847	-0.015269	0.984904
	O429	O	0.341063	0.696005	0.503573
	H430	H	0.361119	0.697149	0.490178
	H431	H	0.327654	0.712937	0.498907
