data_Molecule from HDF5

_cell_length_a		16.250704
_cell_length_b		16.247012
_cell_length_c		16.276660
_cell_angle_alpha	89.830880
_cell_angle_beta	89.906800
_cell_angle_gamma	90.110340
_symmetry_space_group_name_H-M	'P 1'
_symmetry_Int_Tables_number		1

loop_
	_symmetry_equiv_pos_as_xyz
	x,y,z

loop_
	_atom_site_label
	_atom_site_type_symbol
	_atom_site_fract_x
	_atom_site_fract_y
	_atom_site_fract_z
	H0	H	0.407893	0.840241	0.717909
	H1	H	0.605931	0.167909	0.716418
	H2	H	0.605350	0.840554	0.289426
	H3	H	0.409510	0.168131	0.288671
	H4	H	0.721514	0.407510	0.839328
	H5	H	0.720821	0.602081	0.167545
	H6	H	0.293867	0.602225	0.838984
	H7	H	0.292654	0.404855	0.167439
	H8	H	0.843496	0.718538	0.404748
	H9	H	0.170353	0.719141	0.601684
	H10	H	0.843075	0.289159	0.601759
	H11	H	0.171322	0.291204	0.405791
	H12	H	0.843199	0.405141	0.717118
	H13	H	0.171170	0.603355	0.717237
	H14	H	0.842983	0.602163	0.289356
	H15	H	0.170460	0.404321	0.287983
	H16	H	0.409587	0.718814	0.838539
	H17	H	0.605122	0.718485	0.166823
	H18	H	0.604841	0.291656	0.838988
	H19	H	0.409543	0.289348	0.167159
	H20	H	0.719568	0.839238	0.406442
	H21	H	0.721845	0.168138	0.600033
	H22	H	0.292195	0.840679	0.602609
	H23	H	0.293991	0.168649	0.404813
	H24	H	0.907406	0.341017	0.218369
	H25	H	0.105638	0.668088	0.217081
	H26	H	0.106301	0.340528	0.788608
	H27	H	0.909604	0.667879	0.788475
	H28	H	0.220874	0.906459	0.339057
	H29	H	0.221853	0.101587	0.666870
	H30	H	0.794664	0.101791	0.338985
	H31	H	0.793348	0.904921	0.667588
	H32	H	0.342820	0.218019	0.905297
	H33	H	0.671762	0.217658	0.099520
	H34	H	0.343604	0.789911	0.101629
	H35	H	0.671570	0.791445	0.903860
	H36	H	0.343527	0.905447	0.218210
	H37	H	0.671357	0.103488	0.216883
	H38	H	0.342992	0.103532	0.788094
	H39	H	0.670364	0.905995	0.787759
	H40	H	0.909021	0.218908	0.339263
	H41	H	0.106182	0.217563	0.666989
	H42	H	0.105559	0.790535	0.339675
	H43	H	0.909457	0.789310	0.666879
	H44	H	0.221199	0.339709	0.905485
	H45	H	0.221667	0.668194	0.101347
	H46	H	0.792973	0.340459	0.101692
	H47	H	0.794815	0.668058	0.904821
	H48	H	0.424674	0.120088	0.602291
	H49	H	0.606071	0.882605	0.605216
	H50	H	0.611370	0.125761	0.404110
	H51	H	0.409716	0.884494	0.405379
	H52	H	0.600375	0.407274	0.120996
	H53	H	0.605185	0.591408	0.886971
	H54	H	0.414207	0.595380	0.118929
	H55	H	0.400480	0.412877	0.883109
	H56	H	0.119894	0.593809	0.418750
	H57	H	0.892172	0.595084	0.591809
	H58	H	0.127171	0.405063	0.602531
	H59	H	0.890734	0.410892	0.412297
	H60	H	0.123140	0.407262	0.588748
	H61	H	0.890222	0.592669	0.599754
	H62	H	0.124200	0.590254	0.402397
	H63	H	0.889939	0.412202	0.408496
	H64	H	0.416248	0.598933	0.118961
	H65	H	0.593936	0.597215	0.889035
	H66	H	0.603294	0.413018	0.119961
	H67	H	0.421907	0.421915	0.892164
	H68	H	0.591548	0.119958	0.403194
	H69	H	0.590011	0.889448	0.597969
	H70	H	0.414016	0.118033	0.584482
	H71	H	0.420830	0.888338	0.409542
	H72	H	0.915670	0.618856	0.086909
	H73	H	0.105039	0.386686	0.094436
	H74	H	0.099794	0.618638	0.917600
	H75	H	0.912300	0.384783	0.907518
	H76	H	0.094895	0.910935	0.618237
	H77	H	0.093775	0.100356	0.387618
	H78	H	0.922894	0.107419	0.620650
	H79	H	0.918391	0.908860	0.387457
	H80	H	0.627173	0.101095	0.903128
	H81	H	0.390733	0.099245	0.093913
	H82	H	0.628379	0.891154	0.089524
	H83	H	0.393875	0.915567	0.917304
	H84	H	0.616482	0.926657	0.083965
	H85	H	0.391221	0.093187	0.096602
	H86	H	0.623733	0.101721	0.914564
	H87	H	0.389142	0.915715	0.903604
	H88	H	0.899935	0.097724	0.624171
	H89	H	0.106512	0.101930	0.383373
	H90	H	0.101877	0.906876	0.621440
	H91	H	0.910474	0.907963	0.385269
	H92	H	0.108619	0.624495	0.907357
	H93	H	0.098761	0.385690	0.101113
	H94	H	0.904398	0.625693	0.099062
	H95	H	0.917280	0.387864	0.909124
	H96	H	0.404976	0.125483	0.600861
	H97	H	0.605625	0.888214	0.587127
	H98	H	0.602155	0.118196	0.421219
	H99	H	0.410913	0.888191	0.417176
	H100	H	0.597305	0.412315	0.118402
	H101	H	0.603579	0.604385	0.884337
	H102	H	0.412141	0.598077	0.120489
	H103	H	0.419896	0.398213	0.884847
	H104	H	0.126958	0.606176	0.408267
	H105	H	0.888778	0.600832	0.596693
	H106	H	0.121923	0.418301	0.598438
	H107	H	0.889170	0.409166	0.409191
	H108	H	0.922115	0.621385	0.103950
	H109	H	0.096213	0.389731	0.093886
	H110	H	0.094477	0.620350	0.904400
	H111	H	0.912747	0.387455	0.913137
	H112	H	0.102279	0.915691	0.619024
	H113	H	0.102515	0.090336	0.388690
	H114	H	0.918443	0.083345	0.614714
	H115	H	0.912879	0.915637	0.386665
	H116	H	0.621569	0.091410	0.908430
	H117	H	0.388577	0.097871	0.100537
	H118	H	0.629350	0.915901	0.117391
	H119	H	0.387893	0.903364	0.911661
	C120	C	0.385531	0.012927	0.624723
	C121	C	0.629146	0.995378	0.624951
	C122	C	0.629373	0.012872	0.381701
	C123	C	0.386011	0.995682	0.382251
	C124	C	0.628974	0.382996	0.011545
	C125	C	0.629358	0.626019	0.994764
	C126	C	0.386025	0.626112	0.011054
	C127	C	0.385714	0.382274	0.995145
	C128	C	0.015361	0.625647	0.381250
	C129	C	0.998535	0.625191	0.624404
	C130	C	0.015854	0.381699	0.625173
	C131	C	0.998416	0.382555	0.381724
	C132	C	0.885520	0.513249	0.125067
	C133	C	0.128672	0.495540	0.124761
	C134	C	0.129226	0.512604	0.881362
	C135	C	0.886253	0.495447	0.881685
	C136	C	0.128587	0.882696	0.511607
	C137	C	0.129312	0.125718	0.494925
	C138	C	0.886035	0.124803	0.511393
	C139	C	0.885425	0.881883	0.494873
	C140	C	0.515454	0.126426	0.880789
	C141	C	0.499112	0.125205	0.124295
	C142	C	0.516229	0.882613	0.125390
	C143	C	0.498836	0.883403	0.881903
	C144	C	0.387676	0.889378	0.680056
	C145	C	0.626438	0.119137	0.678806
	C146	C	0.625618	0.889067	0.327448
	C147	C	0.389177	0.119382	0.327026
	C148	C	0.683413	0.386652	0.888106
	C149	C	0.683641	0.622851	0.118256
	C150	C	0.331260	0.623462	0.887904
	C151	C	0.330677	0.384477	0.118351
	C152	C	0.892367	0.680527	0.384217
	C153	C	0.121963	0.680707	0.621981
	C154	C	0.891984	0.327258	0.621999
	C155	C	0.122181	0.328329	0.384759
	C156	C	0.892085	0.384608	0.679532
	C157	C	0.122085	0.623472	0.679560
	C158	C	0.892181	0.623157	0.326488
	C159	C	0.121815	0.384956	0.326497
	C160	C	0.388874	0.681484	0.887675
	C161	C	0.626008	0.680443	0.118137
	C162	C	0.625634	0.329167	0.888052
	C163	C	0.389001	0.327305	0.118370
	C164	C	0.682894	0.888638	0.385182
	C165	C	0.684485	0.118913	0.621593
	C166	C	0.330049	0.889564	0.622958
	C167	C	0.331473	0.119550	0.384371
	C168	C	0.887461	0.389626	0.180125
	C169	C	0.126294	0.619309	0.179431
	C170	C	0.126799	0.389361	0.826389
	C171	C	0.889141	0.618970	0.826397
	C172	C	0.183763	0.885529	0.388282
	C173	C	0.184571	0.122736	0.617894
	C174	C	0.831945	0.122476	0.388023
	C175	C	0.830733	0.884411	0.618371
	C176	C	0.391998	0.181029	0.883946
	C177	C	0.622742	0.180209	0.120834
	C178	C	0.392619	0.827471	0.122617
	C179	C	0.622344	0.829060	0.883993
	C180	C	0.392606	0.884865	0.180584
	C181	C	0.622592	0.123396	0.178914
	C182	C	0.391946	0.123931	0.825951
	C183	C	0.621803	0.886088	0.826443
	C184	C	0.888998	0.180487	0.388059
	C185	C	0.126720	0.180175	0.618024
	C186	C	0.126156	0.828109	0.388421
	C187	C	0.888163	0.826555	0.617968
	C188	C	0.183653	0.388835	0.884709
	C189	C	0.184024	0.619256	0.121941
	C190	C	0.830436	0.389563	0.122455
	C191	C	0.832263	0.619059	0.884367
	C192	C	0.408006	0.098923	0.602454
	C193	C	0.606977	0.909109	0.603352
	C194	C	0.608063	0.098996	0.403158
	C195	C	0.407477	0.909393	0.404227
	C196	C	0.606803	0.404566	0.097569
	C197	C	0.607497	0.604144	0.908772
	C198	C	0.407809	0.603985	0.097155
	C199	C	0.407490	0.404492	0.908860
	C200	C	0.101515	0.603417	0.403326
	C201	C	0.912600	0.602852	0.602544
	C202	C	0.101867	0.403668	0.603054
	C203	C	0.912210	0.404146	0.403556
	C204	C	0.907557	0.599517	0.103079
	C205	C	0.106536	0.409779	0.102912
	C206	C	0.107439	0.598765	0.903406
	C207	C	0.907788	0.408963	0.903544
	C208	C	0.106225	0.904504	0.597488
	C209	C	0.107353	0.103929	0.408721
	C210	C	0.907491	0.102675	0.597658
	C211	C	0.907450	0.904306	0.408557
	C212	C	0.601901	0.104465	0.902248
	C213	C	0.412621	0.103395	0.103312
	C214	C	0.602378	0.904809	0.103478
	C215	C	0.412547	0.905110	0.904328
	Zn216	Zn	0.506733	0.004481	0.753093
	Zn217	Zn	0.507842	0.004755	0.253699
	Zn218	Zn	0.758083	0.504338	0.003411
	Zn219	Zn	0.257160	0.504194	0.003463
	Zn220	Zn	0.007468	0.753655	0.503235
	Zn221	Zn	0.007172	0.253761	0.503375
	Zn222	Zn	0.007151	0.504001	0.752862
	Zn223	Zn	0.007142	0.503868	0.252894
	Zn224	Zn	0.507772	0.754873	0.002833
	Zn225	Zn	0.507136	0.253827	0.003008
	Zn226	Zn	0.757617	0.003584	0.502956
	Zn227	Zn	0.257547	0.003946	0.502942
	N228	N	0.421682	0.967013	0.681249
	N229	N	0.592755	0.041350	0.681000
	N230	N	0.593187	0.967195	0.325054
	N231	N	0.422149	0.041297	0.325404
	N232	N	0.685729	0.419287	0.965949
	N233	N	0.685703	0.589815	0.040541
	N234	N	0.329550	0.589649	0.965428
	N235	N	0.328670	0.418056	0.040736
	N236	N	0.970043	0.682190	0.417472
	N237	N	0.044430	0.681930	0.588420
	N238	N	0.969817	0.325381	0.588826
	N239	N	0.044533	0.326749	0.418464
	N240	N	0.970001	0.417997	0.681434
	N241	N	0.044424	0.589349	0.680999
	N242	N	0.969749	0.589558	0.324823
	N243	N	0.043875	0.417934	0.324506
	N244	N	0.422295	0.682994	0.965323
	N245	N	0.592818	0.682586	0.040373
	N246	N	0.592388	0.326688	0.965938
	N247	N	0.422648	0.326167	0.040816
	N248	N	0.684920	0.966332	0.418501
	N249	N	0.686168	0.041068	0.588691
	N250	N	0.328755	0.967185	0.589073
	N251	N	0.329511	0.041712	0.417867
	N252	N	0.921057	0.467415	0.181893
	N253	N	0.092793	0.541448	0.181447
	N254	N	0.093498	0.467105	0.824444
	N255	N	0.922283	0.541099	0.824902
	N256	N	0.185213	0.919021	0.465822
	N257	N	0.186028	0.089595	0.540144
	N258	N	0.830277	0.088543	0.465574
	N259	N	0.828892	0.917961	0.540720
	N260	N	0.469687	0.182440	0.917405
	N261	N	0.545010	0.181150	0.087462
	N262	N	0.470269	0.826010	0.089043
	N263	N	0.544734	0.827329	0.917840
	N264	N	0.470573	0.918404	0.182433
	N265	N	0.544753	0.089833	0.181140
	N266	N	0.469867	0.090879	0.823733
	N267	N	0.543970	0.919177	0.825034
	N268	N	0.921953	0.182090	0.466081
	N269	N	0.093296	0.182107	0.540471
	N270	N	0.092687	0.826236	0.466009
	N271	N	0.921309	0.824897	0.540130
	N272	N	0.185472	0.466606	0.918181
	N273	N	0.185556	0.541494	0.088648
	N274	N	0.829260	0.467361	0.088906
	N275	N	0.830392	0.541268	0.918008
	O276	O	0.477080	0.501412	0.521627
	H277	H	0.479429	0.502401	0.516552
	H278	H	0.480500	0.490251	0.530971
	O279	O	0.060020	0.027354	0.062463
	H280	H	0.053714	0.037791	0.062626
	H281	H	0.062316	0.027595	0.059555
	O282	O	0.432046	0.514052	0.469055
	H283	H	0.428708	0.512015	0.473994
	H284	H	0.422410	0.519476	0.464951
	O285	O	0.472988	0.536373	0.461117
	H286	H	0.462922	0.541303	0.459473
	H287	H	0.471693	0.529575	0.461707
	O288	O	1.022029	0.031360	-0.003367
	H289	H	1.020096	0.028944	-0.004251
	H290	H	1.030447	0.028931	-0.001523
	O291	O	-0.598059	0.545356	-0.545192
	H292	H	-0.592741	0.555965	-0.548254
	H293	H	-0.603580	0.549751	-0.548005
	O294	O	0.463979	0.478008	0.547263
	H295	H	0.469774	0.477314	0.549285
	H296	H	0.468558	0.476069	0.538965
	O297	O	0.023856	1.044084	-0.001723
	H298	H	0.023950	1.045482	0.000387
	H299	H	0.023508	1.043019	-0.011712
	O300	O	1.022822	0.021185	1.006490
	H301	H	1.025470	0.021320	1.011751
	H302	H	1.020990	0.016540	1.011858
	O303	O	0.389311	0.503341	0.455038
	H304	H	0.398358	0.494809	0.460012
	H305	H	0.382284	0.503427	0.467560
	O306	O	0.015052	1.018140	1.015627
	H307	H	0.018368	1.023888	1.013634
	H308	H	0.014292	1.013691	1.011564
	O309	O	0.462913	0.523850	0.488173
	H310	H	0.461537	0.526366	0.477266
	H311	H	0.460820	0.526985	0.483521
