data_Molecule from HDF5

_cell_length_a		16.355062
_cell_length_b		15.960714
_cell_length_c		16.333806
_cell_angle_alpha	90.022892
_cell_angle_beta	90.319029
_cell_angle_gamma	90.188350
_symmetry_space_group_name_H-M	'P 1'
_symmetry_Int_Tables_number		1

loop_
	_symmetry_equiv_pos_as_xyz
	x,y,z

loop_
	_atom_site_label
	_atom_site_type_symbol
	_atom_site_fract_x
	_atom_site_fract_y
	_atom_site_fract_z
	H0	H	0.408039	0.837188	0.716828
	H1	H	0.606588	0.170414	0.717487
	H2	H	0.606826	0.838689	0.290266
	H3	H	0.408125	0.170047	0.290141
	H4	H	0.723361	0.401147	0.841990
	H5	H	0.726520	0.606411	0.166650
	H6	H	0.289089	0.607593	0.842892
	H7	H	0.290815	0.401309	0.166388
	H8	H	0.843506	0.714656	0.406692
	H9	H	0.171411	0.718009	0.601177
	H10	H	0.843775	0.290538	0.598370
	H11	H	0.171571	0.291956	0.408617
	H12	H	0.845667	0.401299	0.719672
	H13	H	0.169521	0.606837	0.722816
	H14	H	0.846818	0.605831	0.284241
	H15	H	0.169505	0.401118	0.287592
	H16	H	0.411809	0.715910	0.840336
	H17	H	0.605316	0.717519	0.168561
	H18	H	0.601010	0.291832	0.839604
	H19	H	0.412409	0.291678	0.168635
	H20	H	0.718002	0.836896	0.406553
	H21	H	0.724014	0.169296	0.606660
	H22	H	0.292341	0.838153	0.604238
	H23	H	0.294034	0.169509	0.403085
	H24	H	0.909377	0.336434	0.216437
	H25	H	0.107931	0.669095	0.218191
	H26	H	0.105326	0.337048	0.791452
	H27	H	0.908545	0.669359	0.790103
	H28	H	0.224302	0.901048	0.341583
	H29	H	0.226643	0.107055	0.665084
	H30	H	0.788661	0.105547	0.342334
	H31	H	0.791009	0.900121	0.666163
	H32	H	0.342629	0.214873	0.908091
	H33	H	0.671434	0.217001	0.100118
	H34	H	0.343642	0.790556	0.099754
	H35	H	0.672117	0.793509	0.910770
	H36	H	0.345452	0.901073	0.221247
	H37	H	0.668852	0.108167	0.223302
	H38	H	0.345093	0.105064	0.785578
	H39	H	0.668988	0.901251	0.787856
	H40	H	0.912651	0.213858	0.338823
	H41	H	0.104542	0.215657	0.667824
	H42	H	0.100415	0.791910	0.339167
	H43	H	0.911810	0.790033	0.667845
	H44	H	0.220667	0.337847	0.904651
	H45	H	0.221176	0.669456	0.103970
	H46	H	0.793799	0.337132	0.103058
	H47	H	0.795371	0.669934	0.904820
	H48	H	0.411848	0.126967	0.601290
	H49	H	0.598233	0.885266	0.596963
	H50	H	0.592841	0.122194	0.411215
	H51	H	0.417801	0.886420	0.416429
	H52	H	0.605729	0.415054	0.120221
	H53	H	0.601930	0.597021	0.887541
	H54	H	0.416475	0.598485	0.121302
	H55	H	0.418498	0.407126	0.888221
	H56	H	0.123648	0.602302	0.419153
	H57	H	0.896251	0.584958	0.591883
	H58	H	0.123859	0.412471	0.600830
	H59	H	0.891464	0.411122	0.407702
	H60	H	0.125141	0.409770	0.599493
	H61	H	0.889009	0.593488	0.609569
	H62	H	0.120872	0.585427	0.411564
	H63	H	0.891320	0.409993	0.408428
	H64	H	0.410271	0.595889	0.121882
	H65	H	0.602340	0.597629	0.887843
	H66	H	0.599903	0.413467	0.118756
	H67	H	0.404618	0.408642	0.885109
	H68	H	0.600628	0.121595	0.421152
	H69	H	0.601259	0.884653	0.595948
	H70	H	0.424995	0.120907	0.596875
	H71	H	0.411557	0.883330	0.413483
	H72	H	0.915073	0.620397	0.088975
	H73	H	0.101331	0.382505	0.096963
	H74	H	0.091723	0.622267	0.908534
	H75	H	0.909805	0.385024	0.917991
	H76	H	0.099822	0.903867	0.622588
	H77	H	0.097382	0.092164	0.388947
	H78	H	0.913853	0.085874	0.617491
	H79	H	0.910363	0.918900	0.389799
	H80	H	0.621266	0.093526	0.912606
	H81	H	0.387276	0.099629	0.105882
	H82	H	0.626433	0.911029	0.103872
	H83	H	0.389091	0.903679	0.910733
	H84	H	0.622165	0.911259	0.095202
	H85	H	0.391393	0.100848	0.092671
	H86	H	0.624205	0.094485	0.904890
	H87	H	0.393915	0.915983	0.914377
	H88	H	0.921771	0.101295	0.619491
	H89	H	0.101587	0.103083	0.385156
	H90	H	0.111904	0.917708	0.621520
	H91	H	0.916751	0.906303	0.387476
	H92	H	0.098122	0.619301	0.922675
	H93	H	0.098112	0.383481	0.097178
	H94	H	0.912517	0.624598	0.099020
	H95	H	0.910761	0.381326	0.904743
	H96	H	0.413945	0.120855	0.587777
	H97	H	0.599722	0.883993	0.598401
	H98	H	0.604763	0.126271	0.410000
	H99	H	0.418402	0.884820	0.409670
	H100	H	0.603350	0.409255	0.122092
	H101	H	0.602879	0.597059	0.887831
	H102	H	0.415067	0.591969	0.119995
	H103	H	0.412514	0.420130	0.890735
	H104	H	0.127535	0.599666	0.402073
	H105	H	0.890488	0.605603	0.592042
	H106	H	0.123916	0.412353	0.598170
	H107	H	0.891493	0.411478	0.409686
	H108	H	0.923030	0.620845	0.097193
	H109	H	0.098977	0.384771	0.094856
	H110	H	0.105858	0.625998	0.909909
	H111	H	0.921768	0.386223	0.911861
	H112	H	0.094502	0.919214	0.615189
	H113	H	0.109467	0.093417	0.385101
	H114	H	0.905588	0.099646	0.623814
	H115	H	0.903445	0.907174	0.383307
	H116	H	0.624583	0.101510	0.910827
	H117	H	0.392953	0.088590	0.098785
	H118	H	0.621822	0.918842	0.100642
	H119	H	0.389687	0.914361	0.901939
	C120	C	0.387311	0.012706	0.624245
	C121	C	0.629430	0.994598	0.626250
	C122	C	0.627661	0.013064	0.384932
	C123	C	0.387071	0.994881	0.383543
	C124	C	0.629892	0.382806	0.012365
	C125	C	0.630823	0.626232	0.995795
	C126	C	0.385562	0.625389	0.013274
	C127	C	0.384712	0.382439	0.995893
	C128	C	0.016282	0.625405	0.381550
	C129	C	0.999080	0.625352	0.626780
	C130	C	0.016672	0.381573	0.626295
	C131	C	0.999042	0.381922	0.381283
	C132	C	0.887496	0.511930	0.124308
	C133	C	0.129201	0.493727	0.125653
	C134	C	0.127588	0.512537	0.884187
	C135	C	0.886254	0.494509	0.882921
	C136	C	0.129246	0.883149	0.512047
	C137	C	0.130998	0.125887	0.494587
	C138	C	0.885323	0.124826	0.512509
	C139	C	0.883763	0.881177	0.495120
	C140	C	0.515573	0.125278	0.881447
	C141	C	0.498481	0.125805	0.127245
	C142	C	0.515883	0.883028	0.127356
	C143	C	0.498674	0.881999	0.881952
	C144	C	0.388140	0.887270	0.679491
	C145	C	0.627481	0.120248	0.680886
	C146	C	0.625813	0.888034	0.328962
	C147	C	0.388548	0.120148	0.327926
	C148	C	0.684743	0.382746	0.890136
	C149	C	0.687199	0.625325	0.118231
	C150	C	0.328483	0.625611	0.891193
	C151	C	0.329458	0.382429	0.118117
	C152	C	0.893142	0.678857	0.385101
	C153	C	0.122232	0.681099	0.623181
	C154	C	0.893161	0.327264	0.620614
	C155	C	0.122332	0.328124	0.386587
	C156	C	0.894171	0.382163	0.680925
	C157	C	0.121284	0.625837	0.683542
	C158	C	0.894771	0.624621	0.324151
	C159	C	0.121092	0.382155	0.326149
	C160	C	0.389391	0.679958	0.889805
	C161	C	0.626788	0.680459	0.119369
	C162	C	0.624263	0.327914	0.889034
	C163	C	0.389947	0.327783	0.119145
	C164	C	0.681166	0.887077	0.386819
	C165	C	0.685718	0.119623	0.625556
	C166	C	0.330742	0.887707	0.623309
	C167	C	0.331851	0.119936	0.384295
	C168	C	0.889327	0.386368	0.179277
	C169	C	0.127754	0.619214	0.181014
	C170	C	0.125435	0.387050	0.828970
	C171	C	0.888581	0.619701	0.827683
	C172	C	0.185170	0.882443	0.389830
	C173	C	0.187591	0.125692	0.616837
	C174	C	0.828555	0.124295	0.390190
	C175	C	0.829383	0.881567	0.617769
	C176	C	0.392107	0.178937	0.885725
	C177	C	0.622071	0.180684	0.122882
	C178	C	0.392706	0.827455	0.122381
	C179	C	0.622526	0.829108	0.888324
	C180	C	0.393624	0.882774	0.182498
	C181	C	0.620633	0.126541	0.184216
	C182	C	0.393343	0.124476	0.824853
	C183	C	0.620991	0.882860	0.827146
	C184	C	0.889754	0.178545	0.388630
	C185	C	0.126593	0.179521	0.618259
	C186	C	0.123701	0.828154	0.388576
	C187	C	0.889355	0.826448	0.618448
	C188	C	0.182544	0.387250	0.885545
	C189	C	0.184019	0.619485	0.123878
	C190	C	0.831755	0.386723	0.122856
	C191	C	0.831860	0.619777	0.884493
	C192	C	0.410072	0.100243	0.601966
	C193	C	0.606473	0.907338	0.603842
	C194	C	0.605956	0.100534	0.407433
	C195	C	0.409330	0.907455	0.406316
	C196	C	0.609184	0.405860	0.098047
	C197	C	0.608749	0.603911	0.909831
	C198	C	0.407435	0.602210	0.098849
	C199	C	0.405733	0.405171	0.910140
	C200	C	0.102055	0.602431	0.404373
	C201	C	0.914104	0.601467	0.604517
	C202	C	0.102045	0.404762	0.605592
	C203	C	0.913456	0.404454	0.402438
	C204	C	0.910333	0.599335	0.101759
	C205	C	0.106263	0.406210	0.102971
	C206	C	0.105357	0.599997	0.906990
	C207	C	0.908090	0.406973	0.904964
	C208	C	0.108217	0.906596	0.597521
	C209	C	0.109356	0.103017	0.408698
	C210	C	0.907398	0.102369	0.598217
	C211	C	0.904125	0.904012	0.409287
	C212	C	0.601269	0.103137	0.903059
	C213	C	0.412841	0.103099	0.105481
	C214	C	0.601265	0.906627	0.106073
	C215	C	0.413011	0.904486	0.902851
	Zn216	Zn	0.507218	0.003458	0.752049
	Zn217	Zn	0.506941	0.004118	0.257046
	Zn218	Zn	0.759558	0.503823	0.003824
	Zn219	Zn	0.255601	0.503858	0.004616
	Zn220	Zn	0.007416	0.754061	0.503598
	Zn221	Zn	0.008213	0.253363	0.503056
	Zn222	Zn	0.007582	0.503274	0.756230
	Zn223	Zn	0.008420	0.503093	0.252047
	Zn224	Zn	0.507615	0.754182	0.004796
	Zn225	Zn	0.507274	0.253986	0.004323
	Zn226	Zn	0.755875	0.003366	0.504595
	Zn227	Zn	0.260049	0.003975	0.503312
	N228	N	0.422772	0.965886	0.679967
	N229	N	0.593290	0.041426	0.681717
	N230	N	0.593224	0.967264	0.327546
	N231	N	0.422174	0.041389	0.327425
	N232	N	0.688270	0.415935	0.967836
	N233	N	0.689706	0.592332	0.040383
	N234	N	0.325913	0.592437	0.969075
	N235	N	0.326208	0.415740	0.040551
	N236	N	0.969916	0.679334	0.420084
	N237	N	0.045202	0.681325	0.588653
	N238	N	0.970265	0.326379	0.587695
	N239	N	0.045360	0.327848	0.420261
	N240	N	0.972040	0.415213	0.684906
	N241	N	0.044013	0.591901	0.685825
	N242	N	0.972555	0.591980	0.321953
	N243	N	0.043436	0.415095	0.322867
	N244	N	0.424470	0.679791	0.966567
	N245	N	0.592593	0.681299	0.042118
	N246	N	0.590682	0.327811	0.966110
	N247	N	0.423753	0.327756	0.042174
	N248	N	0.682459	0.966003	0.420942
	N249	N	0.687057	0.040444	0.592267
	N250	N	0.330054	0.966807	0.589720
	N251	N	0.330908	0.040975	0.418400
	N252	N	0.923144	0.465367	0.180399
	N253	N	0.094527	0.539954	0.182263
	N254	N	0.092074	0.466033	0.828246
	N255	N	0.921763	0.540620	0.826619
	N256	N	0.188857	0.915771	0.467467
	N257	N	0.190636	0.093042	0.538873
	N258	N	0.825586	0.091772	0.468256
	N259	N	0.825502	0.914540	0.540026
	N260	N	0.469011	0.179662	0.920330
	N261	N	0.545282	0.180522	0.088195
	N262	N	0.469641	0.827313	0.088882
	N263	N	0.545415	0.828600	0.921695
	N264	N	0.471226	0.916540	0.185713
	N265	N	0.542973	0.093113	0.186838
	N266	N	0.471088	0.091880	0.822060
	N267	N	0.543180	0.915141	0.823006
	N268	N	0.924612	0.178780	0.465436
	N269	N	0.092385	0.179992	0.541178
	N270	N	0.089596	0.828615	0.465470
	N271	N	0.922427	0.826072	0.541275
	N272	N	0.183946	0.466324	0.919253
	N273	N	0.185120	0.540396	0.090328
	N274	N	0.830475	0.465861	0.089454
	N275	N	0.830299	0.540866	0.918071
	O276	O	-0.065200	-0.003959	-0.019761
	H277	H	-0.065370	-0.001900	-0.023458
	H278	H	-0.066057	-0.008771	-0.024483
	O279	O	0.432768	0.586742	0.491002
	H280	H	0.432256	0.577235	0.503614
	H281	H	0.436582	0.583857	0.485945
	O282	O	0.368449	0.424390	0.520268
	H283	H	0.365545	0.427643	0.528209
	H284	H	0.368731	0.420603	0.526277
	O285	O	0.997224	0.023973	0.968970
	H286	H	1.002902	0.032043	0.962403
	H287	H	0.993821	0.027134	0.970936
	O288	O	0.918406	-0.050906	-0.040336
	H289	H	0.912796	-0.051016	-0.043329
	H290	H	0.918977	-0.051395	-0.047552
	O291	O	0.486043	0.441482	0.421398
	H292	H	0.480627	0.440871	0.414816
	H293	H	0.490532	0.439331	0.416098
	O294	O	1.556174	0.519597	0.533094
	H295	H	1.568786	0.520539	0.536386
	H296	H	1.552102	0.526157	0.533855
	O297	O	-0.485674	-0.488925	-0.471139
	H298	H	-0.472681	-0.490782	-0.475816
	H299	H	-0.484844	-0.500517	-0.464408
	O300	O	0.580470	0.532341	0.547575
	H301	H	0.567755	0.535397	0.543244
	H302	H	0.590594	0.539004	0.547717
	O303	O	0.569269	0.457239	0.552488
	H304	H	0.572905	0.460797	0.546448
	H305	H	0.570970	0.473449	0.564703
	O306	O	0.958788	-0.018971	-0.045414
	H307	H	0.955789	-0.016386	-0.045124
	H308	H	0.965004	-0.018350	-0.049861
	O309	O	-0.071479	-0.046199	0.951653
	H310	H	-0.067584	-0.044178	0.950346
	H311	H	-0.074027	-0.044533	0.948009
	O312	O	0.990857	1.068557	0.960984
	H313	H	0.988006	1.072081	0.963546
	H314	H	0.994578	1.070763	0.960078
	O315	O	0.480897	0.513305	0.646931
	H316	H	0.491467	0.511123	0.636471
	H317	H	0.481527	0.506434	0.646773
	O318	O	0.489927	0.507844	0.409354
	H319	H	0.480538	0.505675	0.401585
	H320	H	0.494588	0.507106	0.402474
	O321	O	-0.044641	1.085451	0.956807
	H322	H	-0.044622	1.084098	0.957970
	H323	H	-0.047260	1.082667	0.954866
	O324	O	0.390899	0.491173	0.493831
	H325	H	0.389531	0.494896	0.503699
	H326	H	0.387494	0.493166	0.499905
	O327	O	0.528996	0.468574	0.459804
	H328	H	0.526912	0.464013	0.455527
	H329	H	0.529284	0.470860	0.456324
	O330	O	0.579193	0.615425	0.528807
	H331	H	0.574602	0.621523	0.520555
	H332	H	0.569787	0.617378	0.534835
	O333	O	0.595943	0.556753	0.481136
	H334	H	0.603931	0.551115	0.469106
	H335	H	0.597107	0.549451	0.480514
	O336	O	0.520517	0.469926	0.553621
	H337	H	0.520168	0.467824	0.551869
	H338	H	0.516922	0.476155	0.543960
	O339	O	0.981668	1.003677	0.033823
	H340	H	0.973383	0.995543	0.040360
	H341	H	0.987202	1.001091	0.044634
	O342	O	0.565604	0.547667	0.598769
	H343	H	0.562513	0.551788	0.591467
	H344	H	0.567728	0.558074	0.607874
	O345	O	0.478245	0.550926	0.422164
	H346	H	0.479124	0.548006	0.424164
	H347	H	0.483704	0.544467	0.426557
	O348	O	-0.046314	-0.005884	-0.005410
	H349	H	-0.046406	-0.004012	0.001774
	H350	H	-0.048928	-0.002061	-0.008254
	O351	O	-0.034273	1.003423	0.973875
	H352	H	-0.030614	0.998380	0.976048
	H353	H	-0.042395	0.993487	0.978747
	O354	O	0.486135	0.506984	0.401546
	H355	H	0.488406	0.512824	0.411816
	H356	H	0.476952	0.501917	0.408529
	O357	O	-0.003593	0.994152	0.991387
	H358	H	0.000362	0.990404	0.992150
	H359	H	-0.011699	0.990805	0.985671
