data_Molecule from HDF5

_cell_length_a		16.479804
_cell_length_b		16.427498
_cell_length_c		16.553166
_cell_angle_alpha	89.998374
_cell_angle_beta	90.060473
_cell_angle_gamma	89.971112
_symmetry_space_group_name_H-M	'P 1'
_symmetry_Int_Tables_number		1

loop_
	_symmetry_equiv_pos_as_xyz
	x,y,z

loop_
	_atom_site_label
	_atom_site_type_symbol
	_atom_site_fract_x
	_atom_site_fract_y
	_atom_site_fract_z
	H0	H	0.395339	0.845118	0.708024
	H1	H	0.605272	0.161324	0.705103
	H2	H	0.605896	0.844473	0.266828
	H3	H	0.395901	0.160390	0.262644
	H4	H	0.722523	0.399023	0.825819
	H5	H	0.726329	0.607785	0.140246
	H6	H	0.279274	0.610562	0.827490
	H7	H	0.280966	0.396786	0.141447
	H8	H	0.843761	0.718145	0.385807
	H9	H	0.161735	0.723842	0.589824
	H10	H	0.846044	0.283059	0.586838
	H11	H	0.160806	0.278327	0.377146
	H12	H	0.848001	0.396792	0.705839
	H13	H	0.161148	0.610164	0.708138
	H14	H	0.845391	0.603863	0.265606
	H15	H	0.160194	0.393359	0.260009
	H16	H	0.396017	0.726150	0.827674
	H17	H	0.607000	0.722408	0.141804
	H18	H	0.606712	0.281213	0.827463
	H19	H	0.398782	0.280973	0.141894
	H20	H	0.719931	0.842902	0.385424
	H21	H	0.720076	0.162343	0.586784
	H22	H	0.282222	0.844450	0.590070
	H23	H	0.279916	0.159433	0.378145
	H24	H	0.896316	0.344130	0.206546
	H25	H	0.106562	0.659794	0.204308
	H26	H	0.111060	0.343569	0.762722
	H27	H	0.902578	0.660456	0.764273
	H28	H	0.226963	0.895673	0.329959
	H29	H	0.226308	0.109174	0.642134
	H30	H	0.784723	0.104150	0.326192
	H31	H	0.786856	0.901598	0.645145
	H32	H	0.344345	0.223525	0.881744
	H33	H	0.662813	0.221348	0.087513
	H34	H	0.345186	0.781788	0.090226
	H35	H	0.661179	0.783177	0.882226
	H36	H	0.346352	0.897566	0.207749
	H37	H	0.661553	0.107543	0.206204
	H38	H	0.345137	0.110052	0.762856
	H39	H	0.660578	0.898425	0.765124
	H40	H	0.901130	0.220584	0.326406
	H41	H	0.109178	0.225024	0.641788
	H42	H	0.107720	0.781531	0.327767
	H43	H	0.902099	0.783276	0.644361
	H44	H	0.226463	0.343685	0.878338
	H45	H	0.222525	0.660025	0.088004
	H46	H	0.783239	0.343295	0.087241
	H47	H	0.784496	0.660557	0.879029
	H48	H	0.418269	0.113993	0.572806
	H49	H	0.592346	0.888816	0.579151
	H50	H	0.595519	0.118974	0.392986
	H51	H	0.419257	0.891044	0.394968
	H52	H	0.602123	0.412661	0.099729
	H53	H	0.587711	0.590403	0.873463
	H54	H	0.411324	0.589031	0.096052
	H55	H	0.413593	0.413965	0.873131
	H56	H	0.119123	0.594499	0.390926
	H57	H	0.891511	0.590792	0.576270
	H58	H	0.117346	0.410332	0.569464
	H59	H	0.891029	0.410542	0.397025
	H60	H	0.115347	0.418866	0.572069
	H61	H	0.891780	0.591352	0.573775
	H62	H	0.116007	0.592889	0.396839
	H63	H	0.892946	0.416014	0.396343
	H64	H	0.417971	0.589498	0.093598
	H65	H	0.593388	0.596902	0.870214
	H66	H	0.592009	0.420107	0.094045
	H67	H	0.415503	0.415534	0.873473
	H68	H	0.591489	0.117172	0.394189
	H69	H	0.594295	0.889026	0.575159
	H70	H	0.414013	0.115632	0.572228
	H71	H	0.415922	0.891801	0.400610
	H72	H	0.921048	0.613184	0.075661
	H73	H	0.090656	0.388680	0.071301
	H74	H	0.090408	0.615250	0.892560
	H75	H	0.914168	0.387152	0.892101
	H76	H	0.094580	0.917162	0.595978
	H77	H	0.094216	0.090487	0.372413
	H78	H	0.918155	0.093253	0.596311
	H79	H	0.911294	0.907007	0.371232
	H80	H	0.617213	0.091495	0.890057
	H81	H	0.390662	0.088406	0.078214
	H82	H	0.617602	0.911617	0.078636
	H83	H	0.388388	0.915389	0.892174
	H84	H	0.616323	0.911497	0.073030
	H85	H	0.388724	0.095536	0.075711
	H86	H	0.615585	0.095692	0.899089
	H87	H	0.388885	0.909730	0.897289
	H88	H	0.909924	0.099211	0.601458
	H89	H	0.091915	0.085152	0.375616
	H90	H	0.087247	0.914448	0.595874
	H91	H	0.907681	0.910596	0.371631
	H92	H	0.090055	0.612473	0.898304
	H93	H	0.094284	0.387501	0.072818
	H94	H	0.912901	0.614080	0.067794
	H95	H	0.914836	0.388928	0.895472
	H96	H	0.415827	0.115659	0.576355
	H97	H	0.596367	0.887200	0.578060
	H98	H	0.594735	0.116944	0.397324
	H99	H	0.413407	0.889248	0.395221
	H100	H	0.590041	0.407221	0.097085
	H101	H	0.597212	0.588409	0.871382
	H102	H	0.414394	0.595486	0.096632
	H103	H	0.415992	0.413046	0.873127
	H104	H	0.117200	0.587939	0.391985
	H105	H	0.891805	0.589082	0.574239
	H106	H	0.119171	0.413154	0.577938
	H107	H	0.890711	0.412867	0.391664
	H108	H	0.911032	0.617583	0.078551
	H109	H	0.090393	0.387748	0.075101
	H110	H	0.095337	0.615554	0.896192
	H111	H	0.911557	0.387352	0.894656
	H112	H	0.092573	0.910419	0.599256
	H113	H	0.088038	0.090496	0.375090
	H114	H	0.907234	0.088668	0.598160
	H115	H	0.912402	0.911646	0.372928
	H116	H	0.613150	0.086491	0.897401
	H117	H	0.392581	0.090893	0.071007
	H118	H	0.615403	0.916152	0.076067
	H119	H	0.391364	0.916933	0.898768
	C120	C	0.382829	0.010606	0.606077
	C121	C	0.624577	0.993711	0.607775
	C122	C	0.624048	0.011876	0.364931
	C123	C	0.382380	0.994442	0.363976
	C124	C	0.625473	0.381300	-0.007245
	C125	C	0.625145	0.624237	0.975433
	C126	C	0.380968	0.624411	-0.007619
	C127	C	0.382417	0.381409	0.976558
	C128	C	0.012253	0.622879	0.363069
	C129	C	0.995944	0.623054	0.606272
	C130	C	0.013167	0.381540	0.605009
	C131	C	0.995499	0.380258	0.362756
	C132	C	0.882696	0.510138	0.105071
	C133	C	0.123941	0.492777	0.105112
	C134	C	0.125342	0.510208	0.862839
	C135	C	0.882648	0.492967	0.862344
	C136	C	0.124092	0.881326	0.493657
	C137	C	0.124884	0.122921	0.477354
	C138	C	0.881522	0.124186	0.493561
	C139	C	0.881043	0.879754	0.477251
	C140	C	0.510857	0.123664	0.863992
	C141	C	0.495148	0.123821	0.106860
	C142	C	0.511887	0.881230	0.107147
	C143	C	0.493916	0.881554	0.863974
	C144	C	0.378463	0.892282	0.667262
	C145	C	0.624403	0.113745	0.665637
	C146	C	0.624818	0.891860	0.306394
	C147	C	0.378227	0.112792	0.302775
	C148	C	0.683194	0.380325	0.873459
	C149	C	0.685657	0.626239	0.093510
	C150	C	0.319718	0.627946	0.874865
	C151	C	0.321693	0.378735	0.094604
	C152	C	0.891952	0.679906	0.364859
	C153	C	0.114636	0.683761	0.608367
	C154	C	0.894015	0.322121	0.606267
	C155	C	0.113679	0.318962	0.359496
	C156	C	0.894865	0.378677	0.665404
	C157	C	0.114178	0.627100	0.667172
	C158	C	0.892577	0.623309	0.305304
	C159	C	0.113413	0.376337	0.301152
	C160	C	0.377982	0.685772	0.874690
	C161	C	0.626220	0.683002	0.094388
	C162	C	0.625655	0.321781	0.874196
	C163	C	0.380275	0.321262	0.094981
	C164	C	0.681316	0.891074	0.365492
	C165	C	0.681397	0.114243	0.606861
	C166	C	0.322052	0.891992	0.608550
	C167	C	0.320388	0.112480	0.360221
	C168	C	0.879459	0.391320	0.165606
	C169	C	0.125332	0.612148	0.164425
	C170	C	0.128889	0.391144	0.802596
	C171	C	0.882865	0.613016	0.803788
	C172	C	0.185679	0.878110	0.376316
	C173	C	0.185886	0.126838	0.595019
	C174	C	0.823356	0.123978	0.374223
	C175	C	0.824944	0.881208	0.597162
	C176	C	0.391915	0.183976	0.862477
	C177	C	0.614756	0.182543	0.107240
	C178	C	0.392722	0.821541	0.108813
	C179	C	0.613586	0.822517	0.863120
	C180	C	0.393263	0.879077	0.167264
	C181	C	0.614225	0.125994	0.166408
	C182	C	0.392301	0.127345	0.803489
	C183	C	0.613051	0.879730	0.804789
	C184	C	0.881584	0.181553	0.374029
	C185	C	0.127631	0.184617	0.594795
	C186	C	0.126272	0.821476	0.375296
	C187	C	0.882283	0.822231	0.596701
	C188	C	0.186540	0.391316	0.860108
	C189	C	0.182671	0.612456	0.106272
	C190	C	0.823102	0.390850	0.106386
	C191	C	0.824140	0.613048	0.860541
	C192	C	0.408665	0.093401	0.580989
	C193	C	0.600937	0.909842	0.584216
	C194	C	0.600749	0.095638	0.388070
	C195	C	0.408725	0.912191	0.389655
	C196	C	0.601558	0.406230	0.075404
	C197	C	0.600011	0.599157	0.893028
	C198	C	0.407016	0.598595	0.074147
	C199	C	0.407787	0.406895	0.894588
	C200	C	0.095799	0.598681	0.386584
	C201	C	0.913240	0.597659	0.581709
	C202	C	0.095943	0.407000	0.580146
	C203	C	0.913017	0.405869	0.387871
	C204	C	0.907697	0.593250	0.080931
	C205	C	0.099094	0.409626	0.080151
	C206	C	0.099429	0.592842	0.888251
	C207	C	0.906611	0.409572	0.886891
	C208	C	0.098678	0.906601	0.575726
	C209	C	0.098801	0.096328	0.395591
	C210	C	0.905132	0.100808	0.576960
	C211	C	0.903903	0.902854	0.393545
	C212	C	0.593734	0.098456	0.888487
	C213	C	0.412236	0.098739	0.082218
	C214	C	0.594788	0.905911	0.082773
	C215	C	0.411176	0.906718	0.888914
	Zn216	Zn	0.502098	0.002675	0.735584
	Zn217	Zn	0.503655	0.003311	0.235488
	Zn218	Zn	0.754831	0.502518	-0.016509
	Zn219	Zn	0.252691	0.501641	-0.015741
	Zn220	Zn	0.003592	0.751421	0.485604
	Zn221	Zn	0.003898	0.251887	0.484036
	Zn222	Zn	0.004942	0.501644	0.734863
	Zn223	Zn	0.003192	0.501042	0.234344
	Zn224	Zn	0.502761	0.752962	-0.014960
	Zn225	Zn	0.503181	0.252439	-0.014513
	Zn226	Zn	0.752821	0.002857	0.485666
	Zn227	Zn	0.254375	0.002294	0.485566
	N228	N	0.415593	0.967190	0.665852
	N229	N	0.590063	0.037539	0.666493
	N230	N	0.590187	0.967883	0.305625
	N231	N	0.416206	0.038406	0.304896
	N232	N	0.683289	0.416626	0.948349
	N233	N	0.685382	0.590735	0.018373
	N234	N	0.321451	0.590457	0.949063
	N235	N	0.323025	0.415505	0.020128
	N236	N	0.967736	0.680305	0.399406
	N237	N	0.040122	0.681269	0.571213
	N238	N	0.968677	0.323670	0.569372
	N239	N	0.039559	0.321452	0.397292
	N240	N	0.970002	0.414625	0.664833
	N241	N	0.039497	0.589909	0.665915
	N242	N	0.968685	0.588902	0.303811
	N243	N	0.038928	0.413701	0.302994
	N244	N	0.415552	0.683602	0.948766
	N245	N	0.589415	0.681923	0.019917
	N246	N	0.590759	0.321930	0.949492
	N247	N	0.417352	0.322921	0.020769
	N248	N	0.681239	0.966690	0.400804
	N249	N	0.681875	0.038514	0.571855
	N250	N	0.324766	0.966610	0.571330
	N251	N	0.322961	0.037971	0.397716
	N252	N	0.915764	0.466557	0.165033
	N253	N	0.089711	0.536565	0.164155
	N254	N	0.091828	0.466071	0.804215
	N255	N	0.918372	0.537295	0.804551
	N256	N	0.184383	0.914779	0.450836
	N257	N	0.184295	0.089328	0.520904
	N258	N	0.823079	0.089105	0.449722
	N259	N	0.823952	0.916331	0.521712
	N260	N	0.466617	0.181903	0.899500
	N261	N	0.539629	0.181362	0.071054
	N262	N	0.467549	0.822630	0.072227
	N263	N	0.538368	0.823382	0.899003
	N264	N	0.468111	0.915486	0.166297
	N265	N	0.538661	0.090603	0.166478
	N266	N	0.467298	0.090719	0.804304
	N267	N	0.537616	0.915316	0.805000
	N268	N	0.916737	0.182089	0.449406
	N269	N	0.090498	0.182308	0.520636
	N270	N	0.088631	0.823471	0.449108
	N271	N	0.916118	0.821262	0.521006
	N272	N	0.184656	0.466420	0.896768
	N273	N	0.182119	0.537008	0.070483
	N274	N	0.825115	0.465685	0.069323
	N275	N	0.823970	0.537447	0.896019
	O276	O	0.713619	0.298781	0.448021
	H277	H	0.719030	0.276087	0.452905
	H278	H	0.717651	0.306680	0.448772
	O279	O	0.299009	0.705336	0.517735
	H280	H	0.294940	0.696839	0.476944
	H281	H	0.276405	0.726237	0.522589
	O282	O	1.006909	1.201801	-0.226725
	H283	H	0.975711	1.193514	-0.226342
	H284	H	1.002933	1.215290	-0.235285
	O285	O	0.788712	0.039285	0.768946
	H286	H	0.767990	0.045291	0.759362
	H287	H	0.775186	0.034347	0.776932
	O288	O	-0.204709	0.210729	-0.079029
	H289	H	-0.224960	0.224527	-0.078302
	H290	H	-0.198330	0.206873	-0.094106
	O291	O	0.974340	1.007268	-0.053907
	H292	H	0.962230	1.009566	-0.059289
	H293	H	0.974842	1.009594	-0.059978
	O294	O	0.534588	0.719245	-0.291336
	H295	H	0.543600	0.716275	-0.311635
	H296	H	0.532246	0.756253	-0.259556
	O297	O	0.403239	0.312663	0.672784
	H298	H	0.406851	0.313593	0.659575
	H299	H	0.386957	0.325951	0.693507
	O300	O	0.520938	0.600276	0.483761
	H301	H	0.537782	0.600625	0.495296
	H302	H	0.513990	0.603486	0.501469
	O303	O	0.208659	0.172845	1.027796
	H304	H	0.210483	0.179586	1.026061
	H305	H	0.194876	0.180815	1.026161
	O306	O	-0.212455	0.969470	1.195966
	H307	H	-0.218576	0.945176	1.202403
	H308	H	-0.227018	0.948790	1.209285
	O309	O	1.211359	0.973951	0.782113
	H310	H	1.207761	0.988354	0.784933
	H311	H	1.221661	0.992116	0.770269
	O312	O	0.519633	0.715457	0.495953
	H313	H	0.492359	0.713915	0.496979
	H314	H	0.517740	0.724461	0.499412
	O315	O	-0.086555	0.063725	0.935199
	H316	H	-0.093740	0.063273	0.946100
	H317	H	-0.093687	0.073033	0.951731
	O318	O	-0.471526	0.512976	0.381014
	H319	H	-0.481490	0.504674	0.369922
	H320	H	-0.479267	0.506254	0.388655
	O321	O	0.317634	0.405391	0.421520
	H322	H	0.310687	0.410051	0.419134
	H323	H	0.308673	0.398874	0.433332
	O324	O	0.995696	0.105807	0.991096
	H325	H	0.996135	0.107749	0.991891
	H326	H	0.989800	0.111473	0.987347
	O327	O	1.700566	0.698518	0.681706
	H328	H	1.688091	0.719086	0.702000
	H329	H	1.706885	0.670189	0.660895
	O330	O	1.175636	0.112382	-0.101083
	H331	H	1.189524	0.108242	-0.093434
	H332	H	1.164289	0.135982	-0.093466
	O333	O	1.167369	0.980717	1.106137
	H334	H	1.170243	0.985928	1.096753
	H335	H	1.155379	0.984644	1.104162
	O336	O	1.218291	-0.209483	0.963616
	H337	H	1.222852	-0.230409	0.947548
	H338	H	1.222298	-0.212820	0.931157
	O339	O	0.303156	0.702791	0.281090
	H340	H	0.328114	0.687154	0.275573
	H341	H	0.278674	0.726153	0.267624
	O342	O	0.709344	0.491458	0.448291
	H343	H	0.711543	0.506373	0.440187
	H344	H	0.697376	0.490744	0.443778
	O345	O	0.005161	0.023937	-0.185636
	H346	H	-0.010993	0.024190	-0.176885
	H347	H	0.006608	0.031681	-0.185678
	O348	O	0.918372	-0.005799	0.848422
	H349	H	0.909540	-0.021170	0.858297
	H350	H	0.919215	0.009739	0.848365
	O351	O	1.040271	1.037477	0.186864
	H352	H	1.032808	1.043347	0.186285
	H353	H	1.054673	1.048082	0.182137
	O354	O	0.669289	0.312205	0.647879
	H355	H	0.652407	0.332742	0.634525
	H356	H	0.653536	0.324090	0.636753
	O357	O	0.792057	1.079447	1.025795
	H358	H	0.785204	1.073123	1.036281
	H359	H	0.793125	1.083627	1.023885
	O360	O	0.089851	0.194110	0.201574
	H361	H	0.103339	0.209468	0.215114
	H362	H	0.094888	0.183861	0.201567
	O363	O	0.085084	1.115369	-0.018503
	H364	H	0.089013	1.117909	0.000408
	H365	H	0.068706	1.101066	-0.024697
	O366	O	1.019228	-0.199028	0.785296
	H367	H	1.013751	-0.187928	0.778476
	H368	H	1.003411	-0.200845	0.797511
	O369	O	0.483041	0.521637	0.702407
	H370	H	0.493854	0.535377	0.695148
	H371	H	0.483754	0.535426	0.712033
	O372	O	0.288207	0.535983	0.269380
	H373	H	0.273955	0.532298	0.260901
	H374	H	0.287017	0.551255	0.266220
	O375	O	1.187323	0.809967	-0.207309
	H376	H	1.190331	0.852748	-0.215788
	H377	H	1.150554	0.808576	-0.213932
	O378	O	0.378444	0.490335	0.490518
	H379	H	0.374945	0.485991	0.476139
	H380	H	0.361700	0.484893	0.475929
	O381	O	1.008099	-0.193001	-0.033347
	H382	H	1.004675	-0.181161	-0.030643
	H383	H	0.983486	-0.193371	-0.039870
	O384	O	-0.033803	-0.212084	1.197059
	H385	H	-0.019286	-0.232702	1.206559
	H386	H	-0.005743	-0.194652	1.197589
	O387	O	-0.318345	0.675587	1.294190
	H388	H	-0.331308	0.658662	1.312454
	H389	H	-0.330479	0.655666	1.310764
	O390	O	0.166730	0.154909	1.178431
	H391	H	0.153556	0.151448	1.171184
	H392	H	0.165793	0.162956	1.178261
	O393	O	0.787808	0.788199	0.009287
	H394	H	0.763792	0.768618	0.026170
	H395	H	0.792550	0.787413	0.045033
	O396	O	0.694900	0.493168	0.519541
	H397	H	0.689673	0.507310	0.527561
	H398	H	0.695725	0.489761	0.507951
	O399	O	0.404150	0.360959	0.447569
	H400	H	0.403184	0.374028	0.479659
	H401	H	0.383966	0.337467	0.442443
	O402	O	-0.298986	0.315941	1.289069
	H403	H	-0.302590	0.306228	1.294663
	H404	H	-0.311902	0.317910	1.299009
	O405	O	0.150425	-0.163809	0.171696
	H406	H	0.146321	-0.151788	0.151497
	H407	H	0.130217	-0.134497	0.161822
	O408	O	0.584922	0.493697	0.275023
	H409	H	0.586782	0.498668	0.278601
	H410	H	0.584795	0.481764	0.262251
	O411	O	0.525283	0.364953	0.687162
	H412	H	0.516660	0.354051	0.686861
	H413	H	0.510744	0.376419	0.686542
	O414	O	0.479925	0.702062	0.274508
	H415	H	0.483610	0.707435	0.260749
	H416	H	0.473303	0.703195	0.277060
	O417	O	0.292697	0.540161	0.538247
	H418	H	0.285520	0.546530	0.520196
	H419	H	0.285668	0.534237	0.568570
	O420	O	0.528613	0.334431	0.289035
	H421	H	0.521291	0.335351	0.296462
	H422	H	0.534674	0.304987	0.263881
	O423	O	-0.204661	0.796775	0.191081
	H424	H	-0.152380	0.788166	0.197249
	H425	H	-0.230496	0.763044	0.223131
	O426	O	0.485960	1.320887	1.469695
	H427	H	0.476606	1.332043	1.481279
	H428	H	0.472746	1.321485	1.465190
	O429	O	-0.085085	-0.995405	1.139944
	H430	H	-0.087980	-0.994365	1.143911
	H431	H	-0.086887	-0.996033	1.151546
	O432	O	0.716067	0.711955	0.516407
	H433	H	0.704668	0.719034	0.526950
	H434	H	0.734303	0.715998	0.525303
	O435	O	-0.070271	0.149742	0.073090
	H436	H	-0.073599	0.141310	0.065804
	H437	H	-0.070945	0.145288	0.066915
	O438	O	1.151596	0.043693	0.070720
	H439	H	1.167043	0.047387	0.069039
	H440	H	1.169777	0.042947	0.088405
	O441	O	0.498631	0.464726	0.541893
	H442	H	0.503734	0.450225	0.542177
	H443	H	0.508653	0.475135	0.542963
	O444	O	-0.117713	0.906747	0.914016
	H445	H	-0.123121	0.921120	0.926255
	H446	H	-0.094240	0.911948	0.906498
	O447	O	1.001235	0.825099	0.962582
	H448	H	0.990101	0.813114	0.950398
	H449	H	0.995304	0.822760	0.966845
	O450	O	0.497106	0.440562	0.299971
	H451	H	0.494461	0.443686	0.305158
	H452	H	0.501768	0.443633	0.305002
	O453	O	0.427989	0.401643	0.357660
	H454	H	0.443504	0.394183	0.358036
	H455	H	0.432576	0.405878	0.350746
	O456	O	0.341118	0.546022	0.670651
	H457	H	0.333239	0.546537	0.659452
	H458	H	0.364704	0.568729	0.684903
	O459	O	0.717219	0.532859	0.699773
	H460	H	0.726300	0.526752	0.708826
	H461	H	0.720627	0.541446	0.704533
	O462	O	0.301779	1.401394	1.690377
	H463	H	0.306468	1.414358	1.666427
	H464	H	0.279741	1.412438	1.711253
	O465	O	0.837418	0.209686	-0.217497
	H466	H	0.813355	0.234549	-0.237205
	H467	H	0.842242	0.178884	-0.214253
