data_Molecule from HDF5

_cell_length_a		16.246932
_cell_length_b		16.265850
_cell_length_c		16.307732
_cell_angle_alpha	89.628691
_cell_angle_beta	89.910703
_cell_angle_gamma	89.714364
_symmetry_space_group_name_H-M	'P 1'
_symmetry_Int_Tables_number		1

loop_
	_symmetry_equiv_pos_as_xyz
	x,y,z

loop_
	_atom_site_label
	_atom_site_type_symbol
	_atom_site_fract_x
	_atom_site_fract_y
	_atom_site_fract_z
	H0	H	0.401209	0.841823	0.720083
	H1	H	0.598689	0.168806	0.715681
	H2	H	0.600813	0.840882	0.288008
	H3	H	0.400604	0.168268	0.286808
	H4	H	0.716872	0.406593	0.839401
	H5	H	0.713791	0.600938	0.166471
	H6	H	0.285476	0.604900	0.839246
	H7	H	0.287304	0.407522	0.166749
	H8	H	0.836403	0.720342	0.404055
	H9	H	0.164686	0.716662	0.599331
	H10	H	0.835860	0.291255	0.601441
	H11	H	0.164628	0.289974	0.404982
	H12	H	0.836918	0.406618	0.717690
	H13	H	0.165504	0.601609	0.715475
	H14	H	0.836274	0.604256	0.288527
	H15	H	0.164364	0.406035	0.288961
	H16	H	0.399777	0.722823	0.839886
	H17	H	0.597358	0.717253	0.167145
	H18	H	0.599929	0.291686	0.838606
	H19	H	0.403338	0.290948	0.166178
	H20	H	0.715391	0.840808	0.405779
	H21	H	0.712676	0.168822	0.598459
	H22	H	0.288134	0.840160	0.601973
	H23	H	0.284313	0.167490	0.402347
	H24	H	0.901570	0.341545	0.219558
	H25	H	0.098468	0.668916	0.216189
	H26	H	0.101325	0.340245	0.790078
	H27	H	0.901511	0.667993	0.786233
	H28	H	0.216271	0.905268	0.339063
	H29	H	0.214409	0.099761	0.666594
	H30	H	0.786521	0.104101	0.338444
	H31	H	0.784840	0.904853	0.665835
	H32	H	0.335535	0.220703	0.904221
	H33	H	0.664740	0.217390	0.098906
	H34	H	0.335404	0.790868	0.103134
	H35	H	0.663767	0.791571	0.906069
	H36	H	0.335963	0.906196	0.218806
	H37	H	0.664450	0.101590	0.216085
	H38	H	0.336129	0.106055	0.786934
	H39	H	0.664563	0.907272	0.790265
	H40	H	0.901898	0.220978	0.339734
	H41	H	0.098345	0.216207	0.666578
	H42	H	0.098565	0.790433	0.338864
	H43	H	0.901541	0.789131	0.666656
	H44	H	0.216059	0.341512	0.906586
	H45	H	0.212023	0.669842	0.097510
	H46	H	0.787199	0.340976	0.101660
	H47	H	0.787511	0.669254	0.904005
	H48	H	0.404623	0.122547	0.594758
	H49	H	0.599423	0.883659	0.604750
	H50	H	0.585783	0.121743	0.399677
	H51	H	0.408339	0.885628	0.404152
	H52	H	0.586078	0.418505	0.113819
	H53	H	0.594758	0.602993	0.884836
	H54	H	0.398240	0.597608	0.121252
	H55	H	0.408902	0.410491	0.885387
	H56	H	0.114974	0.595311	0.414211
	H57	H	0.880865	0.597405	0.607092
	H58	H	0.113665	0.414723	0.588782
	H59	H	0.883279	0.416026	0.406023
	H60	H	0.118108	0.414051	0.607126
	H61	H	0.883308	0.606701	0.588711
	H62	H	0.116409	0.592898	0.404809
	H63	H	0.882126	0.406946	0.410887
	H64	H	0.410735	0.591856	0.116310
	H65	H	0.595792	0.597058	0.886561
	H66	H	0.589990	0.399728	0.120675
	H67	H	0.404265	0.414328	0.885236
	H68	H	0.589923	0.117175	0.416867
	H69	H	0.583590	0.890849	0.599377
	H70	H	0.408833	0.120825	0.595777
	H71	H	0.414674	0.890840	0.411867
	H72	H	0.900315	0.623613	0.095498
	H73	H	0.092586	0.389563	0.094415
	H74	H	0.104069	0.626876	0.903436
	H75	H	0.900074	0.386294	0.912966
	H76	H	0.093662	0.904505	0.620067
	H77	H	0.095967	0.092251	0.386991
	H78	H	0.917139	0.090481	0.613620
	H79	H	0.912349	0.913352	0.387835
	H80	H	0.617817	0.104939	0.910570
	H81	H	0.384821	0.092224	0.096845
	H82	H	0.612756	0.914118	0.086732
	H83	H	0.382687	0.910796	0.914504
	H84	H	0.617286	0.916569	0.105259
	H85	H	0.381489	0.102161	0.099860
	H86	H	0.613524	0.093645	0.912764
	H87	H	0.384461	0.919780	0.911312
	H88	H	0.906801	0.109968	0.622064
	H89	H	0.087015	0.096824	0.388694
	H90	H	0.098421	0.910511	0.619206
	H91	H	0.906977	0.907741	0.385786
	H92	H	0.082433	0.620628	0.899423
	H93	H	0.096909	0.387288	0.096747
	H94	H	0.910661	0.621949	0.101610
	H95	H	0.911247	0.385756	0.901940
	H96	H	0.407571	0.120248	0.591238
	H97	H	0.597644	0.889882	0.588213
	H98	H	0.602592	0.124500	0.405772
	H99	H	0.404358	0.887675	0.414351
	H100	H	0.604080	0.413549	0.121106
	H101	H	0.590187	0.599237	0.887226
	H102	H	0.410114	0.605721	0.119528
	H103	H	0.409648	0.416029	0.887759
	H104	H	0.118825	0.601695	0.408152
	H105	H	0.888765	0.586419	0.591682
	H106	H	0.121317	0.398020	0.595402
	H107	H	0.885661	0.414785	0.415912
	H108	H	0.910068	0.619255	0.089203
	H109	H	0.092568	0.388035	0.099134
	H110	H	0.091323	0.617992	0.920194
	H111	H	0.913866	0.391539	0.916521
	H112	H	0.091004	0.911247	0.617707
	H113	H	0.094724	0.102552	0.384229
	H114	H	0.894806	0.089971	0.620417
	H115	H	0.904766	0.915084	0.387071
	H116	H	0.618281	0.097086	0.900891
	H117	H	0.384688	0.099850	0.089269
	H118	H	0.619956	0.900210	0.096874
	H119	H	0.381816	0.913509	0.905375
	C120	C	0.379200	0.012836	0.623747
	C121	C	0.621617	0.996557	0.624255
	C122	C	0.622076	0.013070	0.379922
	C123	C	0.379268	0.996037	0.380646
	C124	C	0.622320	0.383071	0.010369
	C125	C	0.621631	0.626728	0.994634
	C126	C	0.377887	0.627549	0.010945
	C127	C	0.379038	0.384367	0.994327
	C128	C	0.008658	0.626298	0.380656
	C129	C	0.992563	0.624964	0.624033
	C130	C	0.008974	0.381340	0.625504
	C131	C	0.992288	0.383703	0.382372
	C132	C	0.878995	0.513293	0.124523
	C133	C	0.121816	0.496597	0.123902
	C134	C	0.121937	0.513343	0.881001
	C135	C	0.879686	0.496462	0.881234
	C136	C	0.123345	0.881113	0.510953
	C137	C	0.121315	0.124731	0.494576
	C138	C	0.878246	0.125975	0.510653
	C139	C	0.879058	0.883004	0.494963
	C140	C	0.508387	0.127573	0.879504
	C141	C	0.491870	0.125631	0.123260
	C142	C	0.507978	0.882783	0.124971
	C143	C	0.491609	0.885382	0.881974
	C144	C	0.381542	0.890239	0.680900
	C145	C	0.618710	0.119906	0.678045
	C146	C	0.620664	0.889609	0.326017
	C147	C	0.380186	0.119160	0.324483
	C148	C	0.678417	0.386423	0.887902
	C149	C	0.676081	0.622433	0.117807
	C150	C	0.323177	0.625553	0.888040
	C151	C	0.324858	0.387057	0.117776
	C152	C	0.885284	0.682330	0.383432
	C153	C	0.116060	0.679165	0.620448
	C154	C	0.885269	0.327893	0.622554
	C155	C	0.115652	0.328047	0.384690
	C156	C	0.885794	0.385238	0.680167
	C157	C	0.116449	0.621705	0.677876
	C158	C	0.885136	0.624920	0.325891
	C159	C	0.115550	0.385817	0.326998
	C160	C	0.379989	0.684042	0.888432
	C161	C	0.617806	0.679798	0.118072
	C162	C	0.620600	0.328967	0.887340
	C163	C	0.382037	0.328741	0.117230
	C164	C	0.677823	0.889813	0.383977
	C165	C	0.675316	0.119971	0.619675
	C166	C	0.325392	0.889274	0.622075
	C167	C	0.322624	0.118894	0.382168
	C168	C	0.881705	0.390057	0.180628
	C169	C	0.118865	0.620099	0.178407
	C170	C	0.121227	0.389620	0.827139
	C171	C	0.881406	0.619251	0.824857
	C172	C	0.178048	0.884620	0.387895
	C173	C	0.175993	0.120607	0.617924
	C174	C	0.823548	0.124279	0.387451
	C175	C	0.823415	0.884935	0.617427
	C176	C	0.384706	0.183271	0.883028
	C177	C	0.615687	0.179794	0.119886
	C178	C	0.384597	0.828464	0.123012
	C179	C	0.614937	0.829572	0.885073
	C180	C	0.384850	0.885509	0.180762
	C181	C	0.615562	0.122458	0.177973
	C182	C	0.384954	0.126283	0.824804
	C183	C	0.615214	0.887205	0.827597
	C184	C	0.880747	0.182450	0.387987
	C185	C	0.118095	0.178160	0.618040
	C186	C	0.119946	0.827231	0.387819
	C187	C	0.881641	0.827429	0.617895
	C188	C	0.178110	0.390152	0.885095
	C189	C	0.175272	0.620750	0.119712
	C190	C	0.824318	0.390044	0.122724
	C191	C	0.824670	0.619797	0.883314
	C192	C	0.400471	0.098926	0.600762
	C193	C	0.600012	0.910349	0.603651
	C194	C	0.599461	0.098861	0.401159
	C195	C	0.402362	0.910262	0.403463
	C196	C	0.599919	0.404228	0.096368
	C197	C	0.600107	0.605816	0.908561
	C198	C	0.399711	0.604883	0.096928
	C199	C	0.401049	0.407007	0.908317
	C200	C	0.094269	0.603243	0.402614
	C201	C	0.906494	0.603271	0.602401
	C202	C	0.095277	0.402522	0.603466
	C203	C	0.905951	0.406126	0.404482
	C204	C	0.900782	0.599371	0.102025
	C205	C	0.100504	0.410579	0.103028
	C206	C	0.099219	0.599565	0.901690
	C207	C	0.902056	0.410170	0.903822
	C208	C	0.101001	0.902440	0.596835
	C209	C	0.099243	0.103484	0.408899
	C210	C	0.899880	0.103590	0.596565
	C211	C	0.901612	0.905621	0.408970
	C212	C	0.594267	0.105112	0.901513
	C213	C	0.405920	0.104360	0.101792
	C214	C	0.594517	0.904092	0.102852
	C215	C	0.405220	0.908247	0.903864
	Zn216	Zn	0.500046	0.005470	0.752354
	Zn217	Zn	0.500292	0.004433	0.252393
	Zn218	Zn	0.750854	0.504951	0.002588
	Zn219	Zn	0.250068	0.505632	0.002779
	Zn220	Zn	0.000459	0.753520	0.502750
	Zn221	Zn	0.000155	0.253971	0.502935
	Zn222	Zn	0.001355	0.503999	0.752670
	Zn223	Zn	0.000610	0.505000	0.252564
	Zn224	Zn	0.499384	0.755879	0.003205
	Zn225	Zn	0.500643	0.255050	0.001834
	Zn226	Zn	0.749684	0.004838	0.502290
	Zn227	Zn	0.250671	0.003600	0.502573
	N228	N	0.414476	0.967953	0.681762
	N229	N	0.585800	0.042193	0.680795
	N230	N	0.586556	0.967111	0.323495
	N231	N	0.414733	0.041834	0.323682
	N232	N	0.679443	0.419417	0.965353
	N233	N	0.678257	0.589965	0.040191
	N234	N	0.321984	0.591149	0.965188
	N235	N	0.323141	0.421025	0.040215
	N236	N	0.963074	0.683470	0.416593
	N237	N	0.038167	0.681368	0.587780
	N238	N	0.963146	0.325379	0.589195
	N239	N	0.037905	0.326504	0.418151
	N240	N	0.963734	0.417499	0.682307
	N241	N	0.038673	0.588593	0.680166
	N242	N	0.962764	0.591059	0.323691
	N243	N	0.037845	0.419699	0.325468
	N244	N	0.413552	0.685161	0.965771
	N245	N	0.584591	0.682630	0.040482
	N246	N	0.586675	0.326656	0.964606
	N247	N	0.415014	0.327034	0.039527
	N248	N	0.678732	0.967395	0.416801
	N249	N	0.677257	0.042388	0.586958
	N250	N	0.324025	0.966414	0.586953
	N251	N	0.321999	0.041325	0.416372
	N252	N	0.914814	0.467850	0.181909
	N253	N	0.086362	0.542096	0.181385
	N254	N	0.086954	0.467175	0.824417
	N255	N	0.914769	0.541395	0.823357
	N256	N	0.180387	0.917283	0.465495
	N257	N	0.178212	0.088193	0.540214
	N258	N	0.822097	0.089868	0.464747
	N259	N	0.821742	0.918730	0.539951
	N260	N	0.462483	0.184300	0.916452
	N261	N	0.538026	0.181811	0.086454
	N262	N	0.462081	0.826734	0.088968
	N263	N	0.537066	0.828312	0.918262
	N264	N	0.462727	0.918382	0.182027
	N265	N	0.537693	0.089547	0.180261
	N266	N	0.462601	0.092616	0.822537
	N267	N	0.537341	0.920965	0.825588
	N268	N	0.914093	0.183492	0.465308
	N269	N	0.085054	0.180990	0.540408
	N270	N	0.086468	0.825177	0.465351
	N271	N	0.915470	0.826135	0.540429
	N272	N	0.178689	0.467874	0.917753
	N273	N	0.177120	0.543276	0.086541
	N274	N	0.822605	0.467550	0.088655
	N275	N	0.823613	0.542415	0.917808
	O276	O	-0.073956	0.030161	0.989095
	H277	H	-0.070864	0.026687	0.984210
	H278	H	-0.078347	0.035479	0.990499
	O279	O	0.427954	0.492581	0.523272
	H280	H	0.408104	0.502235	0.527311
	H281	H	0.426914	0.496397	0.510894
	O282	O	0.498278	0.500077	0.468959
	H283	H	0.508118	0.495677	0.472910
	H284	H	0.503799	0.496388	0.468944
	O285	O	0.428679	0.519443	0.482604
	H286	H	0.446524	0.523440	0.471285
	H287	H	0.428092	0.514594	0.478412
	O288	O	0.942240	0.015458	-0.042068
	H289	H	0.933321	0.016327	-0.042304
	H290	H	0.942158	0.017081	-0.040302
	O291	O	-0.056319	1.028757	0.984143
	H292	H	-0.059354	1.027830	0.991923
	H293	H	-0.054920	1.034060	0.982668
	O294	O	0.501823	0.468936	0.516662
	H295	H	0.489734	0.459808	0.533795
	H296	H	0.494092	0.473344	0.517700
	O297	O	0.938220	0.043553	-0.024642
	H298	H	0.938950	0.040802	-0.030898
	H299	H	0.941488	0.042714	-0.027870
