data_Molecule from HDF5

_cell_length_a		16.309472
_cell_length_b		16.290764
_cell_length_c		16.455664
_cell_angle_alpha	90.201549
_cell_angle_beta	90.073711
_cell_angle_gamma	89.855092
_symmetry_space_group_name_H-M	'P 1'
_symmetry_Int_Tables_number		1

loop_
	_symmetry_equiv_pos_as_xyz
	x,y,z

loop_
	_atom_site_label
	_atom_site_type_symbol
	_atom_site_fract_x
	_atom_site_fract_y
	_atom_site_fract_z
	H0	H	0.392987	0.826996	0.717515
	H1	H	0.604278	0.146315	0.720456
	H2	H	0.599587	0.825811	0.279796
	H3	H	0.388943	0.147598	0.276781
	H4	H	0.714939	0.383580	0.837484
	H5	H	0.713824	0.588860	0.158523
	H6	H	0.276945	0.590520	0.837977
	H7	H	0.275224	0.381935	0.155925
	H8	H	0.834444	0.704258	0.398241
	H9	H	0.158617	0.704494	0.599304
	H10	H	0.834828	0.273021	0.598824
	H11	H	0.156699	0.266186	0.392998
	H12	H	0.835696	0.387249	0.715595
	H13	H	0.156247	0.595304	0.720613
	H14	H	0.838006	0.594574	0.277116
	H15	H	0.156300	0.380678	0.276547
	H16	H	0.392843	0.706976	0.838223
	H17	H	0.597986	0.706275	0.158287
	H18	H	0.600844	0.266356	0.838634
	H19	H	0.394008	0.268360	0.157834
	H20	H	0.712959	0.825333	0.398671
	H21	H	0.712287	0.150201	0.598552
	H22	H	0.278261	0.827181	0.601684
	H23	H	0.275158	0.148831	0.394542
	H24	H	0.891163	0.328502	0.219696
	H25	H	0.103674	0.647144	0.220097
	H26	H	0.102242	0.328875	0.776087
	H27	H	0.893330	0.649528	0.780924
	H28	H	0.219410	0.881408	0.340252
	H29	H	0.218464	0.093986	0.657704
	H30	H	0.776061	0.091983	0.338647
	H31	H	0.779977	0.887900	0.658534
	H32	H	0.336244	0.206632	0.894430
	H33	H	0.658903	0.203140	0.099266
	H34	H	0.334516	0.769518	0.099473
	H35	H	0.657657	0.769043	0.896500
	H36	H	0.336290	0.880974	0.219196
	H37	H	0.655981	0.092961	0.219200
	H38	H	0.337219	0.094324	0.775458
	H39	H	0.656834	0.882539	0.778745
	H40	H	0.891911	0.208402	0.338902
	H41	H	0.100913	0.209180	0.658323
	H42	H	0.102473	0.765796	0.339211
	H43	H	0.898412	0.772683	0.659076
	H44	H	0.214587	0.326589	0.893916
	H45	H	0.216331	0.648011	0.101523
	H46	H	0.780562	0.325039	0.098585
	H47	H	0.778828	0.649330	0.898264
	H48	H	0.410994	0.099669	0.584421
	H49	H	0.592121	0.872300	0.583929
	H50	H	0.585735	0.104752	0.400849
	H51	H	0.414329	0.876986	0.409875
	H52	H	0.583795	0.398739	0.110277
	H53	H	0.587801	0.581247	0.882970
	H54	H	0.399227	0.581127	0.115005
	H55	H	0.405315	0.390251	0.881411
	H56	H	0.112525	0.577500	0.405196
	H57	H	0.881424	0.584400	0.588084
	H58	H	0.112882	0.396088	0.590453
	H59	H	0.880739	0.396092	0.405778
	H60	H	0.110025	0.399186	0.583579
	H61	H	0.882196	0.576795	0.589716
	H62	H	0.110830	0.578935	0.412067
	H63	H	0.884397	0.399151	0.413381
	H64	H	0.406964	0.568420	0.108471
	H65	H	0.590276	0.576358	0.883287
	H66	H	0.587615	0.390989	0.113325
	H67	H	0.402342	0.401743	0.884845
	H68	H	0.580063	0.100000	0.410216
	H69	H	0.590866	0.869562	0.594087
	H70	H	0.406016	0.102129	0.586790
	H71	H	0.404235	0.873952	0.412770
	H72	H	0.904238	0.603762	0.090386
	H73	H	0.086144	0.371548	0.093900
	H74	H	0.081444	0.600174	0.911699
	H75	H	0.909299	0.372009	0.902136
	H76	H	0.089822	0.899717	0.612055
	H77	H	0.089308	0.076788	0.385588
	H78	H	0.905235	0.082876	0.612789
	H79	H	0.902993	0.898572	0.383716
	H80	H	0.611996	0.074561	0.904639
	H81	H	0.382578	0.074749	0.086181
	H82	H	0.608080	0.901306	0.087604
	H83	H	0.381472	0.902035	0.904970
	H84	H	0.612051	0.897081	0.093394
	H85	H	0.381802	0.076485	0.089217
	H86	H	0.611925	0.078956	0.909029
	H87	H	0.380341	0.895667	0.905727
	H88	H	0.902809	0.080239	0.612947
	H89	H	0.083960	0.072136	0.387618
	H90	H	0.084311	0.899099	0.610170
	H91	H	0.906919	0.897842	0.384372
	H92	H	0.090740	0.603725	0.911474
	H93	H	0.079617	0.375267	0.086052
	H94	H	0.909644	0.601496	0.089338
	H95	H	0.907199	0.373757	0.908368
	H96	H	0.411206	0.102200	0.590204
	H97	H	0.583302	0.873534	0.589118
	H98	H	0.591544	0.103860	0.411332
	H99	H	0.408319	0.871838	0.402685
	H100	H	0.593067	0.398613	0.112617
	H101	H	0.585043	0.576773	0.885356
	H102	H	0.414743	0.582968	0.110022
	H103	H	0.413892	0.397559	0.886832
	H104	H	0.109836	0.572500	0.409395
	H105	H	0.879230	0.581460	0.595203
	H106	H	0.109630	0.404268	0.590416
	H107	H	0.883679	0.405008	0.405727
	H108	H	0.905645	0.601834	0.085150
	H109	H	0.090385	0.372792	0.083427
	H110	H	0.084993	0.604759	0.903577
	H111	H	0.902953	0.370008	0.903674
	H112	H	0.087867	0.894290	0.612809
	H113	H	0.082696	0.079739	0.385910
	H114	H	0.905489	0.079512	0.611883
	H115	H	0.904207	0.894739	0.383000
	H116	H	0.609335	0.073068	0.909841
	H117	H	0.381984	0.078387	0.086694
	H118	H	0.610523	0.893762	0.086364
	H119	H	0.383106	0.898500	0.909922
	C120	C	0.376873	-0.004268	0.618824
	C121	C	0.618758	0.978566	0.619726
	C122	C	0.617343	-0.004181	0.376837
	C123	C	0.375445	0.979727	0.376754
	C124	C	0.618970	0.364943	0.006335
	C125	C	0.618371	0.609436	0.989523
	C126	C	0.375087	0.608597	0.005693
	C127	C	0.375318	0.365102	0.989489
	C128	C	0.005309	0.608968	0.377258
	C129	C	0.987438	0.611209	0.621180
	C130	C	0.004862	0.368989	0.618653
	C131	C	0.988155	0.366477	0.376369
	C132	C	0.875437	0.496196	0.119193
	C133	C	0.118225	0.478850	0.119468
	C134	C	0.117449	0.496934	0.876859
	C135	C	0.875209	0.479058	0.875728
	C136	C	0.119418	0.865371	0.506886
	C137	C	0.117915	0.109161	0.490963
	C138	C	0.873583	0.111340	0.506921
	C139	C	0.875407	0.867208	0.490036
	C140	C	0.505542	0.108714	0.875612
	C141	C	0.488151	0.108451	0.119176
	C142	C	0.504411	0.865821	0.119843
	C143	C	0.488110	0.866675	0.876372
	C144	C	0.374826	0.875120	0.677714
	C145	C	0.620674	0.099050	0.679479
	C146	C	0.618348	0.874426	0.318777
	C147	C	0.371798	0.100007	0.317277
	C148	C	0.676711	0.364243	0.885891
	C149	C	0.675501	0.608877	0.110224
	C150	C	0.316560	0.609198	0.885607
	C151	C	0.315432	0.363523	0.108762
	C152	C	0.883742	0.666802	0.377778
	C153	C	0.109705	0.667334	0.619754
	C154	C	0.883389	0.311500	0.618337
	C155	C	0.108362	0.305635	0.374531
	C156	C	0.883780	0.368434	0.676531
	C157	C	0.108481	0.612829	0.679956
	C158	C	0.885256	0.612082	0.317483
	C159	C	0.108271	0.363008	0.316582
	C160	C	0.374206	0.667311	0.885803
	C161	C	0.617921	0.667447	0.110084
	C162	C	0.619501	0.306202	0.886336
	C163	C	0.374681	0.306912	0.109705
	C164	C	0.675028	0.874063	0.377978
	C165	C	0.674997	0.101068	0.619158
	C166	C	0.317443	0.875075	0.620242
	C167	C	0.315003	0.100439	0.375874
	C168	C	0.873736	0.375857	0.178698
	C169	C	0.121254	0.599189	0.179653
	C170	C	0.120170	0.376551	0.816290
	C171	C	0.874529	0.601056	0.819645
	C172	C	0.179477	0.863348	0.387532
	C173	C	0.178099	0.111941	0.610344
	C174	C	0.815307	0.111221	0.386592
	C175	C	0.818732	0.868092	0.610695
	C176	C	0.384786	0.168036	0.874698
	C177	C	0.609758	0.165642	0.119213
	C178	C	0.382985	0.808053	0.119420
	C179	C	0.609229	0.807972	0.876838
	C180	C	0.383757	0.863643	0.178746
	C181	C	0.608234	0.110538	0.178928
	C182	C	0.385452	0.111894	0.815426
	C183	C	0.608897	0.864359	0.818254
	C184	C	0.872847	0.169373	0.386762
	C185	C	0.119709	0.169512	0.610523
	C186	C	0.121547	0.805319	0.387211
	C187	C	0.877605	0.810950	0.610972
	C188	C	0.176015	0.375364	0.875137
	C189	C	0.177542	0.599633	0.120545
	C190	C	0.818287	0.374194	0.118804
	C191	C	0.817453	0.600969	0.877766
	C192	C	0.402076	0.079409	0.594126
	C193	C	0.595501	0.893913	0.595956
	C194	C	0.592813	0.080675	0.400548
	C195	C	0.401422	0.895974	0.401383
	C196	C	0.594982	0.389039	0.090416
	C197	C	0.594716	0.585259	0.905634
	C198	C	0.399803	0.584479	0.089337
	C199	C	0.399900	0.389497	0.906005
	C200	C	0.089470	0.583576	0.401591
	C201	C	0.902952	0.587636	0.597890
	C202	C	0.089059	0.392967	0.594863
	C203	C	0.904562	0.392510	0.401178
	C204	C	0.899585	0.580355	0.095347
	C205	C	0.092779	0.394934	0.094877
	C206	C	0.092888	0.580930	0.901768
	C207	C	0.899285	0.394001	0.897967
	C208	C	0.094415	0.890458	0.589996
	C209	C	0.092634	0.083614	0.407998
	C210	C	0.897652	0.087678	0.590737
	C211	C	0.898168	0.890319	0.405626
	C212	C	0.589379	0.082987	0.900551
	C213	C	0.403973	0.083574	0.094522
	C214	C	0.588309	0.890436	0.096015
	C215	C	0.403724	0.891592	0.899977
	Zn216	Zn	0.497220	-0.012938	0.747559
	Zn217	Zn	0.495712	-0.012368	0.247640
	Zn218	Zn	0.747091	0.486770	-0.002496
	Zn219	Zn	0.246225	0.487062	-0.002535
	Zn220	Zn	-0.003243	0.737520	0.498105
	Zn221	Zn	-0.003594	0.238672	0.498461
	Zn222	Zn	-0.002912	0.489132	0.748305
	Zn223	Zn	-0.003060	0.488358	0.248036
	Zn224	Zn	0.495685	0.738120	-0.002022
	Zn225	Zn	0.496940	0.236372	-0.001952
	Zn226	Zn	0.745990	-0.011580	0.498480
	Zn227	Zn	0.247522	-0.012275	0.499085
	N228	N	0.410955	0.951139	0.676996
	N229	N	0.586446	0.021999	0.680022
	N230	N	0.583271	0.951296	0.318008
	N231	N	0.408662	0.024093	0.317838
	N232	N	0.676465	0.400114	0.961657
	N233	N	0.675915	0.573498	0.034201
	N234	N	0.317138	0.573396	0.961196
	N235	N	0.315673	0.398736	0.032980
	N236	N	0.959638	0.665116	0.413978
	N237	N	0.033504	0.666763	0.584015
	N238	N	0.959676	0.311541	0.583164
	N239	N	0.032754	0.307734	0.411073
	N240	N	0.960304	0.403532	0.676914
	N241	N	0.031524	0.578644	0.681070
	N242	N	0.961950	0.576874	0.317240
	N243	N	0.032637	0.400214	0.317510
	N244	N	0.409862	0.666973	0.961548
	N245	N	0.583266	0.668117	0.033897
	N246	N	0.584471	0.306492	0.962269
	N247	N	0.411240	0.307812	0.034511
	N248	N	0.674823	0.950744	0.412934
	N249	N	0.673960	0.025210	0.582624
	N250	N	0.318696	0.950998	0.584297
	N251	N	0.317201	0.024607	0.412253
	N252	N	0.908678	0.452663	0.178994
	N253	N	0.085265	0.523003	0.179260
	N254	N	0.084590	0.453047	0.817045
	N255	N	0.909528	0.524277	0.818354
	N256	N	0.178391	0.899741	0.462884
	N257	N	0.177233	0.075438	0.535084
	N258	N	0.815532	0.075915	0.462273
	N259	N	0.817300	0.902149	0.534423
	N260	N	0.460449	0.166191	0.911339
	N261	N	0.533915	0.164426	0.082848
	N262	N	0.458710	0.809405	0.083158
	N263	N	0.533005	0.809389	0.912464
	N264	N	0.460175	0.899063	0.179055
	N265	N	0.531560	0.075632	0.178940
	N266	N	0.461803	0.075742	0.815857
	N267	N	0.532474	0.900076	0.817890
	N268	N	0.908500	0.169411	0.462494
	N269	N	0.082825	0.167954	0.535200
	N270	N	0.084969	0.806333	0.462399
	N271	N	0.912026	0.810293	0.534792
	N272	N	0.174603	0.451116	0.912128
	N273	N	0.175876	0.523633	0.084123
	N274	N	0.819104	0.449956	0.082528
	N275	N	0.817469	0.523903	0.911749
	O276	O	0.696611	0.453627	0.472268
	H277	H	0.688802	0.459402	0.473136
	H278	H	0.704767	0.458799	0.467964
	O279	O	0.284840	0.375672	0.610501
	H280	H	0.278674	0.373306	0.637976
	H281	H	0.268389	0.345323	0.617776
	O282	O	0.492501	0.599906	0.559188
	H283	H	0.502692	0.588647	0.566356
	H284	H	0.481570	0.611651	0.558122
	O285	O	0.843303	0.148371	-0.166894
	H286	H	0.843515	0.162828	-0.176751
	H287	H	0.846206	0.133142	-0.147968
	O288	O	-0.540474	0.576770	0.473803
	H289	H	-0.540438	0.580939	0.472439
	H290	H	-0.537821	0.576395	0.467323
	O291	O	0.462120	0.629478	0.521437
	H292	H	0.455285	0.638196	0.523541
	H293	H	0.468753	0.625586	0.538408
	O294	O	0.160181	0.854485	0.967487
	H295	H	0.159244	0.853211	0.971518
	H296	H	0.165790	0.856291	0.979676
	O297	O	1.199728	1.146391	1.002874
	H298	H	1.193543	1.145616	1.012164
	H299	H	1.207068	1.166938	0.996558
	O300	O	0.389234	0.383254	0.425644
	H301	H	0.391604	0.375980	0.416252
	H302	H	0.382607	0.378942	0.422407
	O303	O	0.525120	0.621030	0.497740
	H304	H	0.509445	0.622863	0.512431
	H305	H	0.514354	0.635871	0.509869
	O306	O	1.128322	-0.177493	-0.033034
	H307	H	1.137534	-0.178243	-0.042679
	H308	H	1.122982	-0.179491	-0.039687
	O309	O	0.549116	0.434637	0.369436
	H310	H	0.544684	0.427304	0.369036
	H311	H	0.553212	0.429557	0.374416
	O312	O	0.797271	0.968854	0.100416
	H313	H	0.779106	0.951633	0.121839
	H314	H	0.804358	0.977100	0.102887
	O315	O	0.618800	0.565807	0.663497
	H316	H	0.611087	0.558223	0.669836
	H317	H	0.618111	0.578408	0.669494
	O318	O	0.932386	1.112936	0.060662
	H319	H	0.929796	1.106798	0.047901
	H320	H	0.920931	1.105374	0.075856
	O321	O	1.458157	-0.370647	1.408329
	H322	H	1.465431	-0.390832	1.398062
	H323	H	1.470090	-0.365140	1.399091
	O324	O	-0.066734	0.048297	0.828445
	H325	H	-0.065297	0.044469	0.828598
	H326	H	-0.098743	0.045347	0.825014
	O327	O	0.541788	0.589442	0.458235
	H328	H	0.541654	0.603459	0.454125
	H329	H	0.544440	0.587405	0.454404
	O330	O	0.372083	0.517213	0.544115
	H331	H	0.359653	0.529545	0.526030
	H332	H	0.359323	0.510234	0.567675
	O333	O	0.666199	1.321891	0.410988
	H334	H	0.678366	1.333460	0.401869
	H335	H	0.635387	1.332912	0.404150
	O336	O	0.965125	-0.197799	0.948098
	H337	H	0.972314	-0.191913	0.940867
	H338	H	0.967138	-0.197227	0.957404
	O339	O	0.967266	0.099628	1.128338
	H340	H	0.951934	0.080647	1.132367
	H341	H	0.975569	0.106945	1.129978
	O342	O	0.126922	0.935479	1.118732
	H343	H	0.134899	0.935106	1.126736
	H344	H	0.123429	0.927346	1.124672
	O345	O	0.108375	0.973322	1.210875
	H346	H	0.109299	0.962416	1.223817
	H347	H	0.088687	0.996974	1.204528
	O348	O	0.926740	0.951545	-0.069737
	H349	H	0.919917	0.955781	-0.061662
	H350	H	0.931968	0.956176	-0.078465
	O351	O	0.129916	0.003111	-0.203093
	H352	H	0.134004	0.012351	-0.212115
	H353	H	0.143640	0.014136	-0.183754
	O354	O	0.911539	0.835576	0.086719
	H355	H	0.929136	0.835964	0.080268
	H356	H	0.917569	0.838262	0.085396
	O357	O	0.071400	0.836925	-0.180911
	H358	H	0.066790	0.839378	-0.195391
	H359	H	0.073063	0.854108	-0.185068
	O360	O	0.506775	0.523754	0.699392
	H361	H	0.516235	0.526350	0.725017
	H362	H	0.533870	0.516915	0.687115
	O363	O	0.641066	0.645531	0.536041
	H364	H	0.645549	0.654426	0.559750
	H365	H	0.639790	0.629988	0.538559
	O366	O	0.365789	0.640790	0.372382
	H367	H	0.348814	0.632284	0.375542
	H368	H	0.390982	0.643913	0.353467
	O369	O	0.478012	0.322493	0.493772
	H370	H	0.461588	0.317987	0.489304
	H371	H	0.472346	0.328884	0.494117
	O372	O	-0.151969	0.931875	0.150187
	H373	H	-0.165102	0.924058	0.141864
	H374	H	-0.139170	0.923872	0.142576
	O375	O	0.452028	0.418340	0.693420
	H376	H	0.455033	0.414596	0.700814
	H377	H	0.454486	0.424615	0.674462
	O378	O	0.657941	0.371352	0.319891
	H379	H	0.669769	0.385470	0.319989
	H380	H	0.659055	0.379157	0.325054
	O381	O	0.607491	0.543009	0.414524
	H382	H	0.607498	0.539218	0.418683
	H383	H	0.607776	0.532741	0.415858
	O384	O	0.169485	1.052952	0.924644
	H385	H	0.174804	1.054236	0.937655
	H386	H	0.175204	1.039924	0.940583
	O387	O	1.428415	0.453371	0.635000
	H388	H	1.417307	0.465798	0.621645
	H389	H	1.429734	0.442031	0.631626
	O390	O	0.325456	0.306580	0.668712
	H391	H	0.342470	0.317478	0.677697
	H392	H	0.343800	0.303837	0.650872
	O393	O	0.935567	-0.102398	1.061614
	H394	H	0.937060	-0.101271	1.060074
	H395	H	0.942741	-0.104497	1.050106
	O396	O	-0.163075	0.958397	0.874359
	H397	H	-0.161336	0.968927	0.876306
	H398	H	-0.151569	0.977521	0.888946
	O399	O	0.482231	0.602542	0.445526
	H400	H	0.475932	0.597411	0.443691
	H401	H	0.475489	0.610530	0.468750
	O402	O	0.929689	-0.141231	0.853034
	H403	H	0.918459	-0.123907	0.844192
	H404	H	0.942076	-0.148640	0.842172
	O405	O	0.087993	0.171738	0.192957
	H406	H	0.067620	0.167672	0.208876
	H407	H	0.101362	0.164824	0.205236
	O408	O	1.037295	1.173882	0.896690
	H409	H	1.029586	1.173470	0.897926
	H410	H	1.030505	1.182637	0.899537
	O411	O	0.861700	1.159481	-0.014985
	H412	H	0.861867	1.165715	-0.018114
	H413	H	0.865787	1.158836	-0.013297
	O414	O	-0.100817	-0.176757	1.202200
	H415	H	-0.092491	-0.204656	1.208470
	H416	H	-0.111980	-0.180202	1.199577
	O417	O	0.502077	0.313520	0.305257
	H418	H	0.511684	0.320485	0.307533
	H419	H	0.508729	0.300466	0.303836
	O420	O	-0.001268	0.978778	-0.056364
	H421	H	-0.005654	0.976650	-0.061832
	H422	H	-0.006192	0.994815	-0.056645
	O423	O	0.590692	0.323966	-0.387025
	H424	H	0.594955	0.321862	-0.406285
	H425	H	0.586511	0.325732	-0.395235
	O426	O	0.191277	0.089029	1.182247
	H427	H	0.197559	0.093439	1.200580
	H428	H	0.178965	0.081615	1.163496
	O429	O	0.309912	0.448627	0.357791
	H430	H	0.314761	0.448005	0.359416
	H431	H	0.297927	0.466610	0.361156
