data_Molecule from HDF5

_cell_length_a		16.108522
_cell_length_b		16.360275
_cell_length_c		16.273732
_cell_angle_alpha	89.966661
_cell_angle_beta	90.104281
_cell_angle_gamma	90.005372
_symmetry_space_group_name_H-M	'P 1'
_symmetry_Int_Tables_number		1

loop_
	_symmetry_equiv_pos_as_xyz
	x,y,z

loop_
	_atom_site_label
	_atom_site_type_symbol
	_atom_site_fract_x
	_atom_site_fract_y
	_atom_site_fract_z
	H0	H	0.405720	0.837657	0.720384
	H1	H	0.607442	0.162678	0.720042
	H2	H	0.605465	0.836958	0.288577
	H3	H	0.404347	0.161728	0.287315
	H4	H	0.718706	0.402406	0.838042
	H5	H	0.719646	0.595564	0.167539
	H6	H	0.293602	0.598034	0.839227
	H7	H	0.292446	0.402617	0.167309
	H8	H	0.840244	0.713396	0.400689
	H9	H	0.169400	0.714225	0.601355
	H10	H	0.840752	0.284470	0.601275
	H11	H	0.170527	0.284868	0.401958
	H12	H	0.840604	0.399094	0.716705
	H13	H	0.170757	0.598295	0.715643
	H14	H	0.840862	0.596944	0.287939
	H15	H	0.171502	0.402284	0.290042
	H16	H	0.404182	0.717606	0.841752
	H17	H	0.608934	0.715977	0.167041
	H18	H	0.608214	0.281012	0.841173
	H19	H	0.404895	0.283149	0.166481
	H20	H	0.717554	0.835552	0.408090
	H21	H	0.721473	0.162533	0.601742
	H22	H	0.292310	0.835809	0.600629
	H23	H	0.290441	0.162394	0.405905
	H24	H	0.906982	0.336934	0.217311
	H25	H	0.106422	0.662299	0.218751
	H26	H	0.106381	0.337094	0.786834
	H27	H	0.904312	0.662252	0.784558
	H28	H	0.218154	0.902811	0.338588
	H29	H	0.216629	0.094471	0.667768
	H30	H	0.790918	0.095766	0.338494
	H31	H	0.794976	0.903757	0.668068
	H32	H	0.341314	0.215861	0.903392
	H33	H	0.671181	0.214158	0.104408
	H34	H	0.341281	0.785154	0.103647
	H35	H	0.671197	0.786743	0.905931
	H36	H	0.340557	0.900838	0.216394
	H37	H	0.670803	0.097020	0.218238
	H38	H	0.340001	0.098967	0.790607
	H39	H	0.671079	0.902971	0.791010
	H40	H	0.903741	0.215639	0.338619
	H41	H	0.108132	0.216878	0.664863
	H42	H	0.105561	0.783686	0.339063
	H43	H	0.903699	0.780817	0.664176
	H44	H	0.220845	0.336587	0.905528
	H45	H	0.219322	0.663946	0.099459
	H46	H	0.792357	0.336124	0.099473
	H47	H	0.792368	0.664046	0.904946
	H48	H	0.419811	0.110880	0.588488
	H49	H	0.592404	0.882897	0.607231
	H50	H	0.595459	0.115841	0.405865
	H51	H	0.423648	0.885487	0.406594
	H52	H	0.602090	0.404429	0.120758
	H53	H	0.596582	0.593505	0.887361
	H54	H	0.411763	0.586825	0.118960
	H55	H	0.414587	0.397568	0.884397
	H56	H	0.122895	0.587525	0.405056
	H57	H	0.889565	0.594127	0.586090
	H58	H	0.116424	0.419331	0.585290
	H59	H	0.886493	0.404826	0.407396
	H60	H	0.127403	0.409461	0.609157
	H61	H	0.890006	0.582906	0.594679
	H62	H	0.125734	0.599157	0.409017
	H63	H	0.889259	0.404987	0.412757
	H64	H	0.420980	0.596402	0.119598
	H65	H	0.596402	0.595618	0.887226
	H66	H	0.599433	0.411289	0.117903
	H67	H	0.406442	0.412010	0.886297
	H68	H	0.592919	0.113450	0.414216
	H69	H	0.593539	0.887449	0.590062
	H70	H	0.400068	0.118440	0.594390
	H71	H	0.407913	0.885363	0.421601
	H72	H	0.914100	0.617639	0.103551
	H73	H	0.095260	0.383473	0.102029
	H74	H	0.093381	0.613387	0.911408
	H75	H	0.911173	0.385282	0.912908
	H76	H	0.100422	0.902696	0.621487
	H77	H	0.090299	0.090174	0.388862
	H78	H	0.909130	0.087265	0.618078
	H79	H	0.914344	0.901763	0.385038
	H80	H	0.621959	0.091546	0.915347
	H81	H	0.385037	0.101525	0.098226
	H82	H	0.623911	0.907763	0.096536
	H83	H	0.388521	0.912328	0.909863
	H84	H	0.624638	0.907041	0.098993
	H85	H	0.391238	0.091634	0.086600
	H86	H	0.623342	0.089744	0.910635
	H87	H	0.385321	0.902890	0.909029
	H88	H	0.922649	0.093086	0.615750
	H89	H	0.097648	0.101289	0.382758
	H90	H	0.097567	0.908074	0.617468
	H91	H	0.907878	0.905102	0.383683
	H92	H	0.104443	0.616601	0.911358
	H93	H	0.099404	0.386105	0.091658
	H94	H	0.919164	0.613252	0.091562
	H95	H	0.910351	0.381874	0.905490
	H96	H	0.416425	0.117682	0.608085
	H97	H	0.608102	0.881946	0.597936
	H98	H	0.602046	0.116467	0.412548
	H99	H	0.404506	0.878092	0.401596
	H100	H	0.594115	0.404632	0.118569
	H101	H	0.597813	0.594901	0.886358
	H102	H	0.408228	0.598355	0.123623
	H103	H	0.423360	0.410749	0.891376
	H104	H	0.121021	0.590863	0.417070
	H105	H	0.884063	0.594923	0.599619
	H106	H	0.124602	0.393635	0.586933
	H107	H	0.888238	0.410194	0.408916
	H108	H	0.906063	0.617131	0.092547
	H109	H	0.106042	0.380673	0.099074
	H110	H	0.098252	0.617538	0.901928
	H111	H	0.917367	0.385714	0.907564
	H112	H	0.093330	0.902554	0.619376
	H113	H	0.104820	0.088805	0.385504
	H114	H	0.911484	0.101534	0.622430
	H115	H	0.913784	0.908820	0.387349
	H116	H	0.623622	0.094755	0.911086
	H117	H	0.387922	0.085452	0.101688
	H118	H	0.624308	0.905175	0.096702
	H119	H	0.389837	0.906098	0.917843
	C120	C	0.383115	0.008114	0.625747
	C121	C	0.627799	0.991643	0.626831
	C122	C	0.626269	0.007741	0.382386
	C123	C	0.382784	0.990824	0.381145
	C124	C	0.627849	0.377782	0.011406
	C125	C	0.626880	0.621965	0.995336
	C126	C	0.384737	0.622152	0.012368
	C127	C	0.385395	0.378341	0.995215
	C128	C	0.014601	0.620937	0.380711
	C129	C	0.996540	0.619893	0.622801
	C130	C	0.014049	0.378339	0.622993
	C131	C	0.997101	0.378258	0.380727
	C132	C	0.884528	0.508047	0.124168
	C133	C	0.128534	0.491602	0.125240
	C134	C	0.127687	0.507934	0.880474
	C135	C	0.883875	0.491908	0.879944
	C136	C	0.125964	0.877137	0.510866
	C137	C	0.126894	0.121448	0.493870
	C138	C	0.884415	0.121927	0.510723
	C139	C	0.883440	0.877072	0.493851
	C140	C	0.514020	0.121096	0.883093
	C141	C	0.497228	0.121152	0.125038
	C142	C	0.514775	0.878176	0.125509
	C143	C	0.497201	0.878524	0.883069
	C144	C	0.385667	0.885902	0.681571
	C145	C	0.626615	0.113997	0.681932
	C146	C	0.624553	0.885214	0.327327
	C147	C	0.384522	0.113086	0.325635
	C148	C	0.682158	0.380677	0.887646
	C149	C	0.682476	0.617352	0.118585
	C150	C	0.330125	0.619090	0.888721
	C151	C	0.329663	0.381371	0.118270
	C152	C	0.889840	0.675636	0.381478
	C153	C	0.120590	0.675777	0.621206
	C154	C	0.889969	0.322460	0.621177
	C155	C	0.121356	0.322996	0.382408
	C156	C	0.889978	0.379646	0.678828
	C157	C	0.121157	0.618382	0.678161
	C158	C	0.890126	0.618001	0.325163
	C159	C	0.121843	0.381465	0.326901
	C160	C	0.385534	0.678426	0.889913
	C161	C	0.627473	0.677370	0.118219
	C162	C	0.626997	0.320719	0.888998
	C163	C	0.385792	0.322335	0.118015
	C164	C	0.680625	0.884571	0.386478
	C165	C	0.683690	0.113942	0.623316
	C166	C	0.328963	0.885071	0.622458
	C167	C	0.328482	0.113691	0.384980
	C168	C	0.886889	0.385476	0.179136
	C169	C	0.126343	0.613870	0.180519
	C170	C	0.126061	0.385526	0.825307
	C171	C	0.885082	0.614106	0.823667
	C172	C	0.180712	0.881305	0.387337
	C173	C	0.181117	0.117176	0.618047
	C174	C	0.828561	0.117680	0.387309
	C175	C	0.830825	0.881369	0.618294
	C176	C	0.390091	0.177065	0.884158
	C177	C	0.621705	0.176337	0.124251
	C178	C	0.390496	0.822944	0.123478
	C179	C	0.621622	0.823942	0.885150
	C180	C	0.390217	0.880534	0.179623
	C181	C	0.621484	0.118379	0.181008
	C182	C	0.389618	0.119365	0.827746
	C183	C	0.621621	0.881869	0.828307
	C184	C	0.885073	0.176762	0.387397
	C185	C	0.126906	0.177847	0.616599
	C186	C	0.124713	0.822208	0.387571
	C187	C	0.885003	0.820729	0.616371
	C188	C	0.183149	0.385239	0.884158
	C189	C	0.182298	0.614808	0.121232
	C190	C	0.829788	0.385110	0.120557
	C191	C	0.829096	0.614796	0.883281
	C192	C	0.405481	0.093744	0.603697
	C193	C	0.604920	0.906136	0.604649
	C194	C	0.603560	0.093120	0.404391
	C195	C	0.405238	0.905132	0.403382
	C196	C	0.605178	0.400162	0.097066
	C197	C	0.603631	0.600795	0.909208
	C198	C	0.407066	0.600388	0.098356
	C199	C	0.408174	0.400169	0.909503
	C200	C	0.101140	0.599006	0.403532
	C201	C	0.910266	0.597398	0.599937
	C202	C	0.100562	0.400813	0.600422
	C203	C	0.910306	0.400158	0.403198
	C204	C	0.906606	0.593983	0.102211
	C205	C	0.106551	0.405675	0.103941
	C206	C	0.105320	0.593587	0.902007
	C207	C	0.906452	0.406277	0.902107
	C208	C	0.103757	0.898316	0.597015
	C209	C	0.104134	0.099826	0.407950
	C210	C	0.907489	0.100322	0.596544
	C211	C	0.905209	0.898950	0.407737
	C212	C	0.600698	0.098749	0.905692
	C213	C	0.410663	0.099337	0.102193
	C214	C	0.601863	0.900155	0.103687
	C215	C	0.410264	0.900453	0.905578
	Zn216	Zn	0.505156	0.000551	0.755067
	Zn217	Zn	0.505493	-0.000823	0.252436
	Zn218	Zn	0.755375	0.500280	0.002286
	Zn219	Zn	0.256745	0.500062	0.003058
	Zn220	Zn	0.004551	0.748206	0.501594
	Zn221	Zn	0.006119	0.250519	0.501517
	Zn222	Zn	0.005561	0.499577	0.751071
	Zn223	Zn	0.006207	0.499488	0.253655
	Zn224	Zn	0.505986	0.750831	0.004599
	Zn225	Zn	0.506117	0.249122	0.003753
	Zn226	Zn	0.756222	-0.000505	0.503651
	Zn227	Zn	0.254253	-0.001236	0.503216
	N228	N	0.418696	0.963512	0.683612
	N229	N	0.592700	0.036856	0.684290
	N230	N	0.591341	0.962730	0.324722
	N231	N	0.417626	0.035487	0.323113
	N232	N	0.682669	0.415661	0.964614
	N233	N	0.682147	0.583525	0.041162
	N234	N	0.329556	0.584709	0.965853
	N235	N	0.329493	0.415771	0.041059
	N236	N	0.968099	0.677624	0.415571
	N237	N	0.042308	0.676948	0.587473
	N238	N	0.968116	0.321597	0.587195
	N239	N	0.042929	0.321229	0.415481
	N240	N	0.968104	0.413480	0.680180
	N241	N	0.043044	0.584317	0.679337
	N242	N	0.968513	0.584611	0.324670
	N243	N	0.043498	0.415049	0.325734
	N244	N	0.418784	0.680487	0.967769
	N245	N	0.593377	0.680043	0.040745
	N246	N	0.593983	0.318806	0.966899
	N247	N	0.419789	0.320394	0.040571
	N248	N	0.681975	0.961785	0.420104
	N249	N	0.684649	0.036878	0.589873
	N250	N	0.327563	0.961977	0.588287
	N251	N	0.327299	0.036613	0.418835
	N252	N	0.920328	0.462911	0.181328
	N253	N	0.093670	0.536142	0.183164
	N254	N	0.092462	0.462858	0.822986
	N255	N	0.918411	0.536628	0.821618
	N256	N	0.181606	0.914764	0.464835
	N257	N	0.181221	0.082739	0.540896
	N258	N	0.828174	0.084271	0.464876
	N259	N	0.829929	0.915920	0.541245
	N260	N	0.468559	0.178274	0.917931
	N261	N	0.543405	0.178546	0.090423
	N262	N	0.469013	0.821401	0.090478
	N263	N	0.543111	0.821945	0.918624
	N264	N	0.468431	0.914235	0.180925
	N265	N	0.543293	0.084560	0.181364
	N266	N	0.467643	0.085239	0.827055
	N267	N	0.543070	0.914797	0.826667
	N268	N	0.918825	0.179597	0.465169
	N269	N	0.093842	0.180581	0.538514
	N270	N	0.091134	0.819773	0.465330
	N271	N	0.917146	0.818230	0.538157
	N272	N	0.184376	0.462502	0.917653
	N273	N	0.183928	0.537674	0.087631
	N274	N	0.828294	0.462375	0.087115
	N275	N	0.828273	0.537893	0.917559
	O276	O	0.487750	0.572336	0.461402
	H277	H	0.488795	0.577024	0.465231
	H278	H	0.480122	0.562753	0.451551
	O279	O	0.564757	0.503232	0.560911
	H280	H	0.561397	0.499375	0.559753
	H281	H	0.565518	0.503947	0.563051
	O282	O	0.545865	0.457057	0.581092
	H283	H	0.549244	0.449184	0.585630
	H284	H	0.535254	0.457562	0.588565
	O285	O	0.006193	1.056455	0.913328
	H286	H	0.011420	1.057372	0.908401
	H287	H	0.008066	1.058976	0.915433
	O288	O	0.424422	0.567910	0.605077
	H289	H	0.424834	0.564251	0.611450
	H290	H	0.422359	0.561307	0.596305
	O291	O	-0.442799	0.513282	0.469191
	H292	H	-0.442680	0.513951	0.481437
	H293	H	-0.439585	0.520666	0.462212
	O294	O	0.515231	0.461331	0.457191
	H295	H	0.520203	0.462816	0.452591
	H296	H	0.517782	0.453659	0.462386
	O297	O	0.511782	0.454864	0.499503
	H298	H	0.505888	0.443944	0.497142
	H299	H	0.520449	0.464777	0.502201
	O300	O	0.505058	0.512580	0.527903
	H301	H	0.511463	0.518734	0.533103
	H302	H	0.500603	0.509355	0.534725
	O303	O	0.477344	0.453406	0.493353
	H304	H	0.474363	0.459487	0.499492
	H305	H	0.477242	0.455279	0.488800
	O306	O	0.445037	0.463872	1.543959
	H307	H	0.443650	0.461590	1.536410
	H308	H	0.443209	0.469545	1.544786
	O309	O	0.470537	0.550337	0.487991
	H310	H	0.468000	0.550145	0.494580
	H311	H	0.464119	0.546294	0.484986
	O312	O	0.469852	0.534065	0.492870
	H313	H	0.474933	0.530264	0.482546
	H314	H	0.463096	0.542324	0.494619
	O315	O	0.986397	0.042676	0.928006
	H316	H	0.981447	0.044324	0.927710
	H317	H	0.986949	0.043718	0.932391
	O318	O	-0.515145	-0.418809	-0.478401
	H319	H	-0.515928	-0.415970	-0.482181
	H320	H	-0.520645	-0.418156	-0.481373
	O321	O	0.485400	0.392730	0.571835
	H322	H	0.496405	0.394649	0.576575
	H323	H	0.479943	0.396622	0.560978
	O324	O	1.000587	0.025005	-0.056770
	H325	H	0.998032	0.027660	-0.058941
	H326	H	1.006685	0.025175	-0.061329
	O327	O	1.135167	0.870475	-0.217032
	H328	H	1.133932	0.868795	-0.225635
	H329	H	1.122067	0.874122	-0.212945
	O330	O	0.520444	0.385471	0.456687
	H331	H	0.528670	0.391589	0.458217
	H332	H	0.528369	0.380878	0.450206
	O333	O	0.605203	0.526153	0.492072
	H334	H	0.620438	0.526898	0.489479
	H335	H	0.598939	0.524637	0.506253
