data_Molecule from HDF5

_cell_length_a		16.643222
_cell_length_b		16.703829
_cell_length_c		16.580560
_cell_angle_alpha	90.004343
_cell_angle_beta	90.194357
_cell_angle_gamma	89.900910
_symmetry_space_group_name_H-M	'P 1'
_symmetry_Int_Tables_number		1

loop_
	_symmetry_equiv_pos_as_xyz
	x,y,z

loop_
	_atom_site_label
	_atom_site_type_symbol
	_atom_site_fract_x
	_atom_site_fract_y
	_atom_site_fract_z
	H0	H	0.386947	0.847405	0.721844
	H1	H	0.603662	0.152348	0.720629
	H2	H	0.602293	0.844883	0.275391
	H3	H	0.386299	0.151704	0.271723
	H4	H	0.720894	0.390009	0.841911
	H5	H	0.717989	0.603105	0.151285
	H6	H	0.274319	0.604332	0.841600
	H7	H	0.273831	0.390964	0.150709
	H8	H	0.845008	0.725289	0.384858
	H9	H	0.148635	0.724632	0.606784
	H10	H	0.840463	0.279229	0.602501
	H11	H	0.148768	0.272071	0.386836
	H12	H	0.840051	0.396261	0.716506
	H13	H	0.150653	0.605078	0.718549
	H14	H	0.845347	0.608463	0.270142
	H15	H	0.147963	0.386461	0.269614
	H16	H	0.390956	0.719631	0.840893
	H17	H	0.602761	0.719471	0.151586
	H18	H	0.607509	0.272224	0.843527
	H19	H	0.390733	0.276520	0.151243
	H20	H	0.718424	0.844979	0.392086
	H21	H	0.719172	0.153381	0.604539
	H22	H	0.267189	0.850161	0.609511
	H23	H	0.269822	0.151262	0.386692
	H24	H	0.883767	0.349701	0.226566
	H25	H	0.111344	0.648001	0.226894
	H26	H	0.102766	0.345533	0.773434
	H27	H	0.890157	0.654237	0.775770
	H28	H	0.220337	0.890332	0.344191
	H29	H	0.222107	0.109429	0.649998
	H30	H	0.773790	0.105412	0.341748
	H31	H	0.773678	0.891829	0.650817
	H32	H	0.344294	0.224576	0.886531
	H33	H	0.650589	0.221233	0.104817
	H34	H	0.342904	0.776869	0.102590
	H35	H	0.650883	0.776153	0.890529
	H36	H	0.342596	0.892926	0.218031
	H37	H	0.650120	0.103380	0.219758
	H38	H	0.344558	0.109511	0.769847
	H39	H	0.652333	0.894573	0.776927
	H40	H	0.886376	0.223733	0.343587
	H41	H	0.104041	0.223462	0.651774
	H42	H	0.107508	0.773056	0.345406
	H43	H	0.887942	0.775252	0.650657
	H44	H	0.221979	0.346816	0.886977
	H45	H	0.225770	0.648687	0.109726
	H46	H	0.767536	0.350282	0.111342
	H47	H	0.773117	0.652582	0.890171
	H48	H	0.407299	0.109275	0.581354
	H49	H	0.582546	0.888894	0.588978
	H50	H	0.589961	0.112556	0.406076
	H51	H	0.410640	0.892110	0.416217
	H52	H	0.579486	0.409988	0.105078
	H53	H	0.574787	0.588352	0.887443
	H54	H	0.414742	0.580419	0.104793
	H55	H	0.410128	0.410673	0.885476
	H56	H	0.108029	0.583290	0.407420
	H57	H	0.886445	0.583650	0.584126
	H58	H	0.107545	0.403682	0.579122
	H59	H	0.886180	0.407762	0.412991
	H60	H	0.103998	0.418468	0.583271
	H61	H	0.881826	0.590474	0.589071
	H62	H	0.106954	0.590581	0.416294
	H63	H	0.890952	0.417036	0.415871
	H64	H	0.413660	0.596042	0.108951
	H65	H	0.588830	0.593597	0.880353
	H66	H	0.586330	0.408433	0.108720
	H67	H	0.408651	0.412907	0.885276
	H68	H	0.580955	0.110262	0.404733
	H69	H	0.585729	0.890050	0.581444
	H70	H	0.413258	0.109345	0.584898
	H71	H	0.402374	0.886672	0.409792
	H72	H	0.915387	0.607474	0.082859
	H73	H	0.082156	0.389557	0.083900
	H74	H	0.087272	0.611367	0.904858
	H75	H	0.912504	0.387271	0.899426
	H76	H	0.080070	0.916308	0.605615
	H77	H	0.076648	0.083788	0.389684
	H78	H	0.907326	0.092318	0.610197
	H79	H	0.909907	0.904941	0.383350
	H80	H	0.606585	0.087900	0.911988
	H81	H	0.385731	0.085783	0.082711
	H82	H	0.607149	0.911630	0.082643
	H83	H	0.382962	0.908188	0.900608
	H84	H	0.609729	0.909565	0.091369
	H85	H	0.385082	0.088819	0.085725
	H86	H	0.605303	0.083456	0.913740
	H87	H	0.385664	0.903601	0.914396
	H88	H	0.904930	0.086760	0.609907
	H89	H	0.080515	0.091264	0.385001
	H90	H	0.078639	0.912477	0.606563
	H91	H	0.901366	0.914044	0.384654
	H92	H	0.081680	0.608926	0.908631
	H93	H	0.079316	0.392140	0.079442
	H94	H	0.911627	0.606363	0.077573
	H95	H	0.910943	0.391388	0.914424
	H96	H	0.413064	0.106325	0.578960
	H97	H	0.590644	0.886536	0.587903
	H98	H	0.584492	0.109538	0.413034
	H99	H	0.412708	0.889226	0.405009
	H100	H	0.585206	0.415633	0.105726
	H101	H	0.587738	0.578465	0.886039
	H102	H	0.400372	0.586662	0.110460
	H103	H	0.411107	0.413247	0.886359
	H104	H	0.102348	0.579858	0.417226
	H105	H	0.884742	0.592162	0.580461
	H106	H	0.110800	0.408679	0.594037
	H107	H	0.885895	0.415850	0.405901
	H108	H	0.908796	0.608992	0.082649
	H109	H	0.085018	0.390071	0.079238
	H110	H	0.087948	0.609648	0.911958
	H111	H	0.899049	0.384476	0.906978
	H112	H	0.082619	0.913700	0.607891
	H113	H	0.086103	0.083755	0.386984
	H114	H	0.910269	0.087749	0.607358
	H115	H	0.913440	0.915493	0.388478
	H116	H	0.606175	0.084101	0.908439
	H117	H	0.385346	0.090070	0.081494
	H118	H	0.610061	0.903185	0.084899
	H119	H	0.388790	0.917637	0.910015
	C120	C	0.375916	0.007990	0.617271
	C121	C	0.618676	0.990280	0.618884
	C122	C	0.618020	0.008238	0.375568
	C123	C	0.373984	0.990160	0.375443
	C124	C	0.618670	0.376955	0.004932
	C125	C	0.617158	0.619402	0.987219
	C126	C	0.376023	0.620149	0.005357
	C127	C	0.376598	0.378453	0.987826
	C128	C	0.005729	0.619869	0.376554
	C129	C	0.986871	0.621101	0.617797
	C130	C	0.004601	0.378444	0.618064
	C131	C	0.988107	0.377824	0.376166
	C132	C	0.876070	0.507817	0.117321
	C133	C	0.118147	0.490041	0.117542
	C134	C	0.118583	0.508239	0.874564
	C135	C	0.874843	0.490298	0.874871
	C136	C	0.116124	0.879251	0.506008
	C137	C	0.116034	0.120598	0.488880
	C138	C	0.874350	0.121425	0.506166
	C139	C	0.874882	0.877932	0.487775
	C140	C	0.505069	0.120179	0.875809
	C141	C	0.487504	0.120347	0.117738
	C142	C	0.506079	0.876772	0.118139
	C143	C	0.488255	0.877638	0.875472
	C144	C	0.370108	0.893487	0.680818
	C145	C	0.621639	0.106301	0.680025
	C146	C	0.620385	0.891418	0.315654
	C147	C	0.369158	0.105254	0.312566
	C148	C	0.680826	0.372068	0.888952
	C149	C	0.677678	0.621422	0.104535
	C150	C	0.314731	0.622672	0.888311
	C151	C	0.314706	0.373875	0.104066
	C152	C	0.891155	0.683577	0.368837
	C153	C	0.102845	0.682718	0.622967
	C154	C	0.887540	0.318898	0.620599
	C155	C	0.102455	0.313161	0.369862
	C156	C	0.887145	0.377235	0.677336
	C157	C	0.103743	0.623465	0.678743
	C158	C	0.891416	0.625534	0.311534
	C159	C	0.102435	0.370507	0.311794
	C160	C	0.372843	0.679816	0.887914
	C161	C	0.620322	0.679268	0.104632
	C162	C	0.624165	0.313612	0.889584
	C163	C	0.372993	0.316968	0.104454
	C164	C	0.678057	0.891411	0.373874
	C165	C	0.679093	0.106651	0.622294
	C166	C	0.310564	0.894638	0.624905
	C167	C	0.311184	0.105155	0.369883
	C168	C	0.868539	0.394876	0.183522
	C169	C	0.126438	0.603111	0.183769
	C170	C	0.121205	0.392237	0.813277
	C171	C	0.872461	0.607352	0.815585
	C172	C	0.179329	0.873532	0.390606
	C173	C	0.180025	0.126065	0.604162
	C174	C	0.813702	0.123726	0.388929
	C175	C	0.813744	0.874179	0.604173
	C176	C	0.390221	0.183329	0.869694
	C177	C	0.603942	0.180776	0.122211
	C178	C	0.389591	0.816754	0.120519
	C179	C	0.604780	0.817075	0.872750
	C180	C	0.389265	0.874559	0.177954
	C181	C	0.603868	0.122349	0.179247
	C182	C	0.390450	0.125856	0.811801
	C183	C	0.605228	0.875636	0.816017
	C184	C	0.869901	0.182495	0.389800
	C185	C	0.121314	0.182658	0.605099
	C186	C	0.122848	0.815281	0.391054
	C187	C	0.870834	0.816129	0.603995
	C188	C	0.180237	0.392642	0.870113
	C189	C	0.183345	0.603568	0.125582
	C190	C	0.810557	0.394911	0.125922
	C191	C	0.814100	0.606708	0.872316
	C192	C	0.403256	0.087484	0.589391
	C193	C	0.593413	0.909486	0.593316
	C194	C	0.592613	0.089455	0.400727
	C195	C	0.400906	0.910205	0.402811
	C196	C	0.591580	0.403756	0.085434
	C197	C	0.591138	0.594122	0.905790
	C198	C	0.401995	0.594817	0.086845
	C199	C	0.402672	0.404651	0.906767
	C200	C	0.085252	0.592338	0.405483
	C201	C	0.905826	0.596025	0.591888
	C202	C	0.086050	0.403121	0.592677
	C203	C	0.908312	0.405686	0.403711
	C204	C	0.904044	0.586975	0.088873
	C205	C	0.089923	0.411212	0.088837
	C206	C	0.092894	0.588938	0.900981
	C207	C	0.900192	0.408972	0.899943
	C208	C	0.088332	0.906803	0.585933
	C209	C	0.088774	0.093789	0.408248
	C210	C	0.900266	0.096037	0.587892
	C211	C	0.900777	0.904105	0.406563
	C212	C	0.585320	0.092922	0.903704
	C213	C	0.406424	0.095289	0.091045
	C214	C	0.587638	0.901411	0.093399
	C215	C	0.406996	0.902617	0.901069
	Zn216	Zn	0.496777	-0.000746	0.746999
	Zn217	Zn	0.495733	-0.001305	0.246908
	Zn218	Zn	0.746472	0.499111	-0.003929
	Zn219	Zn	0.247341	0.499043	-0.003200
	Zn220	Zn	-0.003535	0.750100	0.497053
	Zn221	Zn	-0.004484	0.249398	0.497145
	Zn222	Zn	-0.004261	0.499933	0.745996
	Zn223	Zn	-0.002120	0.498928	0.246895
	Zn224	Zn	0.497094	0.748554	-0.003640
	Zn225	Zn	0.497201	0.249474	-0.003752
	Zn226	Zn	0.746985	-0.000170	0.497373
	Zn227	Zn	0.245354	-0.000235	0.497185
	N228	N	0.410148	0.965012	0.676206
	N229	N	0.584831	0.032890	0.678242
	N230	N	0.583823	0.965237	0.316321
	N231	N	0.407781	0.032621	0.315718
	N232	N	0.677756	0.410733	0.961824
	N233	N	0.675917	0.584893	0.030417
	N234	N	0.316397	0.586455	0.962541
	N235	N	0.316790	0.411511	0.030429
	N236	N	0.963514	0.680563	0.408362
	N237	N	0.029272	0.681419	0.585582
	N238	N	0.961750	0.319121	0.584757
	N239	N	0.030104	0.317393	0.409091
	N240	N	0.961187	0.413511	0.676176
	N241	N	0.030623	0.585972	0.675897
	N242	N	0.963873	0.586441	0.316117
	N243	N	0.030263	0.409916	0.315335
	N244	N	0.410146	0.678579	0.961813
	N245	N	0.583597	0.678343	0.030474
	N246	N	0.586337	0.316317	0.962998
	N247	N	0.410748	0.319590	0.031048
	N248	N	0.676787	0.965141	0.410210
	N249	N	0.677644	0.033423	0.585063
	N250	N	0.314047	0.966825	0.585818
	N251	N	0.313727	0.032458	0.408005
	N252	N	0.908973	0.466093	0.178287
	N253	N	0.086289	0.531599	0.178792
	N254	N	0.083480	0.465307	0.815910
	N255	N	0.909446	0.533952	0.816995
	N256	N	0.175408	0.912732	0.463155
	N257	N	0.176741	0.087868	0.530885
	N258	N	0.816236	0.086299	0.462566
	N259	N	0.816194	0.912090	0.530877
	N260	N	0.462600	0.179719	0.909076
	N261	N	0.530409	0.179811	0.084717
	N262	N	0.463237	0.818002	0.083886
	N263	N	0.530868	0.817986	0.908929
	N264	N	0.462825	0.911226	0.176842
	N265	N	0.530255	0.085716	0.177039
	N266	N	0.463085	0.087197	0.815622
	N267	N	0.531620	0.912695	0.817545
	N268	N	0.906863	0.181165	0.463821
	N269	N	0.082202	0.179346	0.532311
	N270	N	0.084176	0.818579	0.463911
	N271	N	0.908220	0.818205	0.530450
	N272	N	0.178793	0.465742	0.907690
	N273	N	0.178251	0.532431	0.084703
	N274	N	0.815433	0.466000	0.084954
	N275	N	0.815084	0.532640	0.908352
	O276	O	0.197612	1.207575	0.194490
	H277	H	0.198847	1.179025	0.175617
	H278	H	0.184409	1.199228	0.172305
	O279	O	-0.110427	0.019742	-0.080421
	H280	H	-0.103890	0.003268	-0.080954
	H281	H	-0.116649	0.019749	-0.073849
	O282	O	1.011569	0.228051	1.214755
	H283	H	1.035518	0.238771	1.215759
	H284	H	1.021296	0.236430	1.228609
	O285	O	0.714033	0.277309	0.470082
	H286	H	0.730024	0.270807	0.452069
	H287	H	0.713741	0.267157	0.459340
	O288	O	0.796817	0.852773	0.114010
	H289	H	0.797071	0.852403	0.126260
	H290	H	0.791084	0.890450	0.114039
	O291	O	0.434656	0.265724	0.423840
	H292	H	0.407071	0.264371	0.426090
	H293	H	0.419801	0.277174	0.426900
	O294	O	1.227747	-0.033650	0.996914
	H295	H	1.234798	-0.030692	0.994160
	H296	H	1.220456	-0.032687	1.003577
	O297	O	0.714106	0.505179	0.380402
	H298	H	0.727116	0.510183	0.382823
	H299	H	0.709063	0.505663	0.412370
	O300	O	-0.035674	0.214616	0.781569
	H301	H	-0.019201	0.224208	0.781366
	H302	H	-0.028081	0.208878	0.768004
	O303	O	0.511215	0.586978	0.522910
	H304	H	0.500740	0.589129	0.529069
	H305	H	0.507370	0.581803	0.502608
	O306	O	0.315548	0.369801	0.298661
	H307	H	0.319142	0.404354	0.303141
	H308	H	0.288009	0.360266	0.266972
	O309	O	0.266588	0.730620	0.726686
	H310	H	0.288559	0.716057	0.702152
	H311	H	0.251091	0.751269	0.751577
	O312	O	0.530063	0.719520	0.714971
	H313	H	0.511367	0.720263	0.714653
	H314	H	0.525525	0.736550	0.725926
	O315	O	0.980878	0.947826	0.802422
	H316	H	0.978114	0.944609	0.806485
	H317	H	0.976014	0.951097	0.801613
	O318	O	0.469900	0.447176	0.480619
	H319	H	0.465519	0.435336	0.482804
	H320	H	0.468334	0.453431	0.496830
	O321	O	0.259664	0.502397	0.513709
	H322	H	0.273447	0.510074	0.498261
	H323	H	0.260689	0.504292	0.532165
	O324	O	1.190734	0.773672	-0.030438
	H325	H	1.200631	0.751745	-0.023423
	H326	H	1.185753	0.770515	-0.016797
	O327	O	0.201459	0.020197	1.204249
	H328	H	0.224710	0.024357	1.235296
	H329	H	0.166653	0.009156	1.206731
	O330	O	0.565595	0.438771	0.694827
	H331	H	0.582941	0.413560	0.700208
	H332	H	0.580474	0.438191	0.696375
	O333	O	0.674375	0.314267	0.671918
	H334	H	0.704238	0.283861	0.688989
	H335	H	0.656057	0.316632	0.659104
	O336	O	0.681577	0.680284	0.309826
	H337	H	0.667962	0.663192	0.326747
	H338	H	0.681142	0.663220	0.314739
	O339	O	1.012823	-0.223525	0.775536
	H340	H	1.040046	-0.215568	0.782295
	H341	H	1.023557	-0.247052	0.745984
	O342	O	-0.231564	0.020614	0.005697
	H343	H	-0.232216	0.012974	0.020452
	H344	H	-0.233227	0.016765	0.005030
	O345	O	-0.131132	0.812186	1.136325
	H346	H	-0.152398	0.798583	1.152586
	H347	H	-0.125277	0.809473	1.116719
	O348	O	-0.060338	0.242241	0.050127
	H349	H	-0.068016	0.242688	0.059822
	H350	H	-0.064209	0.237952	0.061152
	O351	O	0.937031	1.077100	0.131663
	H352	H	0.930660	1.092589	0.129806
	H353	H	0.923262	1.082270	0.132610
	O354	O	0.187080	-0.192323	1.183222
	H355	H	0.184372	-0.189359	1.178512
	H356	H	0.159637	-0.172769	1.181963
	O357	O	0.701338	0.642297	0.598168
	H358	H	0.707722	0.644908	0.607541
	H359	H	0.694559	0.666473	0.599708
	O360	O	0.283719	0.292100	0.704398
	H361	H	0.319033	0.302982	0.703869
	H362	H	0.272369	0.286141	0.697091
	O363	O	0.176568	0.003558	-0.006277
	H364	H	0.179680	0.001484	-0.018269
	H365	H	0.173193	0.011017	0.002573
	O366	O	0.598187	0.535260	0.271857
	H367	H	0.614654	0.528085	0.269098
	H368	H	0.583027	0.525366	0.275822
	O369	O	0.704461	0.288627	0.284851
	H370	H	0.684848	0.319509	0.288404
	H371	H	0.678571	0.298642	0.295634
	O372	O	0.814305	0.867135	-0.064997
	H373	H	0.791975	0.857365	-0.063629
	H374	H	0.823299	0.876246	-0.043276
	O375	O	0.889379	-0.099895	0.132944
	H376	H	0.898421	-0.082519	0.115480
	H377	H	0.869279	-0.084347	0.138180
	O378	O	0.635751	0.482609	0.563468
	H379	H	0.631980	0.483746	0.591131
	H380	H	0.639214	0.454761	0.566449
	O381	O	-0.190540	0.814273	0.809574
	H382	H	-0.196379	0.828389	0.811941
	H383	H	-0.160207	0.820688	0.816559
	O384	O	0.776110	0.022964	0.772210
	H385	H	0.769453	0.029336	0.762595
	H386	H	0.765824	0.046517	0.764982
	O387	O	1.097002	0.946384	-0.006794
	H388	H	1.088425	0.949172	-0.003847
	H389	H	1.078381	0.955829	-0.003481
	O390	O	0.729520	0.637657	0.479690
	H391	H	0.745124	0.662275	0.495754
	H392	H	0.726558	0.619545	0.507358
	O393	O	0.335164	0.499041	0.302957
	H394	H	0.352212	0.517565	0.302409
	H395	H	0.331333	0.524947	0.294038
	O396	O	-0.017038	0.830194	0.942358
	H397	H	-0.011527	0.821599	0.944194
	H398	H	-0.009302	0.826801	0.934722
	O399	O	0.176986	-0.161018	0.848894
	H400	H	0.165063	-0.151456	0.857760
	H401	H	0.179687	-0.168390	0.878700
	O402	O	0.280405	0.280355	0.523848
	H403	H	0.247698	0.252489	0.529145
	H404	H	0.273932	0.312432	0.518654
	O405	O	1.052891	0.235101	0.930659
	H406	H	1.054908	0.226194	0.926429
	H407	H	1.035509	0.236247	0.947607
	O408	O	0.128606	0.140308	-0.075279
	H409	H	0.111761	0.147657	-0.063339
	H410	H	0.126977	0.133163	-0.070224
	O411	O	0.705317	0.703901	0.702750
	H412	H	0.674696	0.704855	0.686566
	H413	H	0.712091	0.722481	0.728798
	O414	O	0.542995	0.288536	0.279533
	H415	H	0.522088	0.272674	0.292501
	H416	H	0.534785	0.281059	0.275754
	O417	O	0.443908	0.733046	0.550965
	H418	H	0.426869	0.732647	0.543786
	H419	H	0.443827	0.726101	0.542170
	O420	O	0.552653	0.275040	0.549615
	H421	H	0.546291	0.273938	0.541251
	H422	H	0.563978	0.281472	0.537094
	O423	O	-0.221272	0.227489	0.981339
	H424	H	-0.223360	0.239097	0.984626
	H425	H	-0.238207	0.234891	0.978374
	O426	O	0.286841	0.718387	0.287556
	H427	H	0.321365	0.718009	0.296411
	H428	H	0.273021	0.731938	0.265587
	O429	O	1.041341	1.085041	0.983567
	H430	H	1.048395	1.082179	0.980221
	H431	H	1.041871	1.073056	0.973201
	O432	O	0.549973	0.464540	0.452690
	H433	H	0.559194	0.465133	0.453844
	H434	H	0.546017	0.464511	0.473568
	O435	O	0.272893	0.723474	0.483951
	H436	H	0.248643	0.748714	0.475828
	H437	H	0.271723	0.701726	0.466068
	O438	O	0.469063	-0.310888	0.420555
	H439	H	0.460736	-0.309747	0.429461
	H440	H	0.505261	-0.315492	0.428732
	O441	O	-0.193378	0.191672	0.184276
	H442	H	-0.177561	0.188490	0.167459
	H443	H	-0.225891	0.223043	0.214829
	O444	O	0.511468	0.504109	0.358353
	H445	H	0.518429	0.488982	0.363781
	H446	H	0.509275	0.482872	0.365011
	O447	O	0.219053	0.976541	0.859536
	H448	H	0.234631	0.952871	0.858398
	H449	H	0.216704	0.961884	0.853027
	O450	O	0.044626	0.833007	1.046818
	H451	H	0.042129	0.834644	1.070780
	H452	H	0.044632	0.829639	1.054647
	O453	O	0.419771	0.427391	0.420997
	H454	H	0.426664	0.442376	0.393408
	H455	H	0.409292	0.456696	0.437040
	O456	O	0.209298	0.221346	1.018217
	H457	H	0.191301	0.213599	1.001222
	H458	H	0.234823	0.234785	1.018610
	O459	O	0.992408	0.990822	0.231027
	H460	H	0.975809	0.994919	0.228678
	H461	H	0.961944	1.000098	0.228935
	O462	O	0.370300	0.534028	0.638852
	H463	H	0.374679	0.529518	0.632890
	H464	H	0.375528	0.525077	0.630016
	O465	O	0.838544	-0.194868	-0.023168
	H466	H	0.835888	-0.190136	-0.043116
	H467	H	0.824181	-0.202358	-0.020711
	O468	O	0.350698	0.566406	0.539319
	H469	H	0.348451	0.556987	0.561935
	H470	H	0.339552	0.572284	0.528101
	O471	O	0.280816	0.468217	0.712701
	H472	H	0.271384	0.460614	0.732588
	H473	H	0.275228	0.464772	0.707930
	O474	O	0.473535	0.721758	0.280520
	H475	H	0.489361	0.720422	0.301372
	H476	H	0.476231	0.739302	0.253940
	O477	O	0.454027	0.576046	1.382448
	H478	H	0.468073	0.575896	1.379659
	H479	H	0.445415	0.576066	1.400115
	O480	O	0.470186	0.286963	0.712519
	H481	H	0.470930	0.265502	0.713593
	H482	H	0.467382	0.290581	0.700977
	O483	O	0.706543	0.506842	0.691032
	H484	H	0.729679	0.507486	0.710893
	H485	H	0.700863	0.528247	0.697660
	O486	O	0.797176	0.207600	0.786397
	H487	H	0.807554	0.198509	0.809647
	H488	H	0.827464	0.195469	0.798757
	O489	O	0.978368	0.777067	0.218332
	H490	H	0.957812	0.764338	0.232205
	H491	H	0.979598	0.771485	0.219872
	O492	O	0.064369	0.062504	0.027070
	H493	H	0.069117	0.058476	0.023819
	H494	H	0.056658	0.066228	0.030385
	O495	O	-0.219317	0.998668	1.166624
	H496	H	-0.235356	0.999134	1.175087
	H497	H	-0.203211	0.974930	1.160821
	O498	O	1.110345	1.112450	0.790578
	H499	H	1.119580	1.098299	0.802145
	H500	H	1.126948	1.119762	0.785701
	O501	O	0.429502	0.542318	0.697646
	H502	H	0.432702	0.534012	0.696251
	H503	H	0.438752	0.526345	0.703065
