data_Molecule from HDF5

_cell_length_a		16.412976
_cell_length_b		16.457399
_cell_length_c		16.443473
_cell_angle_alpha	89.999375
_cell_angle_beta	89.925552
_cell_angle_gamma	89.858902
_symmetry_space_group_name_H-M	'P 1'
_symmetry_Int_Tables_number		1

loop_
	_symmetry_equiv_pos_as_xyz
	x,y,z

loop_
	_atom_site_label
	_atom_site_type_symbol
	_atom_site_fract_x
	_atom_site_fract_y
	_atom_site_fract_z
	H0	H	0.394388	0.836833	0.740372
	H1	H	0.606390	0.152503	0.737855
	H2	H	0.610686	0.836260	0.294871
	H3	H	0.399093	0.153138	0.298669
	H4	H	0.724519	0.388520	0.857889
	H5	H	0.722893	0.599152	0.174957
	H6	H	0.277479	0.603997	0.860489
	H7	H	0.280082	0.388289	0.174864
	H8	H	0.844600	0.715538	0.411591
	H9	H	0.160715	0.717552	0.625138
	H10	H	0.844102	0.275155	0.622409
	H11	H	0.162039	0.275533	0.414569
	H12	H	0.845607	0.387627	0.740597
	H13	H	0.159623	0.604769	0.742684
	H14	H	0.843663	0.599445	0.296632
	H15	H	0.161754	0.389784	0.297142
	H16	H	0.393955	0.719130	0.859626
	H17	H	0.608633	0.717467	0.173691
	H18	H	0.609755	0.270970	0.858705
	H19	H	0.394197	0.270283	0.173393
	H20	H	0.724898	0.835581	0.413658
	H21	H	0.723676	0.152557	0.622947
	H22	H	0.276306	0.838057	0.627658
	H23	H	0.282364	0.152675	0.414410
	H24	H	0.900346	0.335503	0.234755
	H25	H	0.109538	0.652615	0.240782
	H26	H	0.112576	0.338378	0.793790
	H27	H	0.891367	0.650783	0.790591
	H28	H	0.227660	0.887151	0.359047
	H29	H	0.229065	0.105509	0.672884
	H30	H	0.784176	0.096119	0.359173
	H31	H	0.777651	0.882732	0.674089
	H32	H	0.344962	0.217694	0.910638
	H33	H	0.659229	0.216779	0.124112
	H34	H	0.343548	0.773512	0.124735
	H35	H	0.659255	0.770971	0.908723
	H36	H	0.344275	0.890056	0.239723
	H37	H	0.660331	0.099658	0.238195
	H38	H	0.345197	0.103457	0.793052
	H39	H	0.658120	0.884884	0.792536
	H40	H	0.899393	0.213996	0.359177
	H41	H	0.115427	0.223183	0.671208
	H42	H	0.113939	0.768731	0.359335
	H43	H	0.894655	0.767134	0.673312
	H44	H	0.227076	0.338767	0.911171
	H45	H	0.227227	0.651856	0.127274
	H46	H	0.782493	0.336839	0.120387
	H47	H	0.777652	0.651780	0.909083
	H48	H	0.413350	0.106306	0.603463
	H49	H	0.597047	0.880042	0.601872
	H50	H	0.597086	0.110356	0.422543
	H51	H	0.413093	0.881759	0.433160
	H52	H	0.595507	0.401671	0.131785
	H53	H	0.594306	0.582165	0.902964
	H54	H	0.411725	0.580844	0.129380
	H55	H	0.416915	0.409341	0.906281
	H56	H	0.114071	0.574323	0.426217
	H57	H	0.893623	0.572391	0.607448
	H58	H	0.117985	0.403347	0.604807
	H59	H	0.887367	0.407229	0.419609
	H60	H	0.112640	0.409722	0.599771
	H61	H	0.888529	0.586468	0.605058
	H62	H	0.119411	0.585971	0.421813
	H63	H	0.885371	0.397405	0.425128
	H64	H	0.419237	0.583547	0.127649
	H65	H	0.587552	0.579477	0.905535
	H66	H	0.592456	0.410723	0.126965
	H67	H	0.417418	0.405709	0.904557
	H68	H	0.587881	0.105951	0.426781
	H69	H	0.589745	0.879329	0.612618
	H70	H	0.414955	0.106228	0.607147
	H71	H	0.416485	0.880050	0.426609
	H72	H	0.918033	0.604860	0.099752
	H73	H	0.087366	0.379805	0.117082
	H74	H	0.083901	0.603260	0.936439
	H75	H	0.920022	0.383930	0.928492
	H76	H	0.088070	0.904385	0.627584
	H77	H	0.089922	0.077410	0.407134
	H78	H	0.912753	0.087196	0.632904
	H79	H	0.914161	0.909885	0.406909
	H80	H	0.616400	0.086108	0.928074
	H81	H	0.386261	0.088378	0.108231
	H82	H	0.615233	0.902987	0.104078
	H83	H	0.389485	0.908515	0.929823
	H84	H	0.612814	0.909503	0.102252
	H85	H	0.390774	0.082605	0.102161
	H86	H	0.613058	0.079984	0.934100
	H87	H	0.389808	0.908023	0.930621
	H88	H	0.911177	0.081910	0.631374
	H89	H	0.087239	0.087569	0.404767
	H90	H	0.091177	0.908118	0.627716
	H91	H	0.920279	0.904540	0.406786
	H92	H	0.094378	0.608801	0.931504
	H93	H	0.085365	0.387911	0.097533
	H94	H	0.903983	0.611217	0.104684
	H95	H	0.912609	0.384089	0.932996
	H96	H	0.417332	0.105049	0.603942
	H97	H	0.584743	0.885036	0.601481
	H98	H	0.596677	0.106308	0.432897
	H99	H	0.419797	0.883733	0.431785
	H100	H	0.585182	0.402874	0.127924
	H101	H	0.588174	0.587014	0.903260
	H102	H	0.413704	0.588565	0.131487
	H103	H	0.413858	0.407879	0.904620
	H104	H	0.114881	0.584424	0.435388
	H105	H	0.895950	0.579050	0.594084
	H106	H	0.115435	0.411669	0.608275
	H107	H	0.890119	0.405962	0.430341
	H108	H	0.916187	0.610267	0.115325
	H109	H	0.103876	0.379717	0.103205
	H110	H	0.084063	0.607445	0.924306
	H111	H	0.913331	0.380797	0.925054
	H112	H	0.086431	0.908275	0.626032
	H113	H	0.096839	0.084153	0.402273
	H114	H	0.916912	0.083883	0.631077
	H115	H	0.912922	0.902823	0.403315
	H116	H	0.614989	0.077767	0.925341
	H117	H	0.387836	0.079381	0.110777
	H118	H	0.616226	0.907697	0.108696
	H119	H	0.389835	0.909061	0.930736
	C120	C	0.380150	0.002711	0.639185
	C121	C	0.623718	0.985778	0.638602
	C122	C	0.626019	0.002896	0.395336
	C123	C	0.383304	0.986094	0.398050
	C124	C	0.624197	0.372337	0.024654
	C125	C	0.623273	0.615693	1.007866
	C126	C	0.380838	0.617636	0.025709
	C127	C	0.382137	0.374201	1.008832
	C128	C	0.011275	0.614721	0.395490
	C129	C	0.995361	0.614970	0.637846
	C130	C	0.011372	0.374010	0.638336
	C131	C	0.993279	0.372401	0.394416
	C132	C	0.881225	0.503852	0.138004
	C133	C	0.124918	0.486608	0.139323
	C134	C	0.123027	0.503426	0.896924
	C135	C	0.880640	0.486404	0.894922
	C136	C	0.124035	0.872881	0.524012
	C137	C	0.124827	0.116681	0.508346
	C138	C	0.882310	0.115391	0.526620
	C139	C	0.881935	0.871626	0.509118
	C140	C	0.510784	0.115301	0.895606
	C141	C	0.493059	0.116011	0.139042
	C142	C	0.510615	0.873564	0.138727
	C143	C	0.493204	0.873696	0.896230
	C144	C	0.376380	0.884441	0.700855
	C145	C	0.625524	0.104928	0.698510
	C146	C	0.628545	0.883852	0.335275
	C147	C	0.380850	0.105602	0.338390
	C148	C	0.684770	0.370001	0.905672
	C149	C	0.683074	0.617582	0.127399
	C150	C	0.318359	0.621649	0.907601
	C151	C	0.320550	0.370682	0.127266
	C152	C	0.892248	0.675723	0.393302
	C153	C	0.113262	0.677214	0.642652
	C154	C	0.892441	0.313718	0.641497
	C155	C	0.113848	0.314297	0.394757
	C156	C	0.893019	0.370003	0.700274
	C157	C	0.112616	0.620951	0.701285
	C158	C	0.891558	0.617595	0.336381
	C159	C	0.113808	0.371150	0.336236
	C160	C	0.376509	0.679130	0.907205
	C161	C	0.626573	0.676937	0.126508
	C162	C	0.627578	0.311381	0.906007
	C163	C	0.377422	0.311594	0.126481
	C164	C	0.685314	0.883262	0.394436
	C165	C	0.683954	0.104782	0.641228
	C166	C	0.317147	0.885378	0.644822
	C167	C	0.322799	0.105570	0.395888
	C168	C	0.880654	0.383866	0.196293
	C169	C	0.127555	0.605056	0.200632
	C170	C	0.129324	0.385739	0.834611
	C171	C	0.874983	0.603869	0.831937
	C172	C	0.187310	0.868930	0.406306
	C173	C	0.187692	0.121774	0.625853
	C174	C	0.823474	0.115532	0.406824
	C175	C	0.819143	0.866146	0.627060
	C176	C	0.392391	0.177511	0.892130
	C177	C	0.611846	0.176434	0.141650
	C178	C	0.391852	0.813151	0.142562
	C179	C	0.611653	0.811582	0.891805
	C180	C	0.391897	0.871303	0.199913
	C181	C	0.612433	0.118407	0.198791
	C182	C	0.392558	0.120456	0.833648
	C183	C	0.611360	0.868438	0.833887
	C184	C	0.880681	0.174257	0.406976
	C185	C	0.131105	0.180903	0.625076
	C186	C	0.130184	0.810281	0.406466
	C187	C	0.877516	0.808668	0.626756
	C188	C	0.186366	0.385837	0.893117
	C189	C	0.186145	0.604905	0.143680
	C190	C	0.822315	0.384161	0.139153
	C191	C	0.818165	0.604424	0.891006
	C192	C	0.407078	0.084449	0.612233
	C193	C	0.598112	0.903173	0.612712
	C194	C	0.601126	0.085739	0.420242
	C195	C	0.408886	0.903590	0.423482
	C196	C	0.598323	0.397819	0.107443
	C197	C	0.597423	0.590127	0.925551
	C198	C	0.407295	0.591683	0.107948
	C199	C	0.408449	0.400395	0.926589
	C200	C	0.094326	0.588816	0.420568
	C201	C	0.913907	0.587226	0.610120
	C202	C	0.093905	0.400587	0.611890
	C203	C	0.909522	0.396690	0.418071
	C204	C	0.905648	0.587111	0.113709
	C205	C	0.099600	0.404058	0.113280
	C206	C	0.095359	0.585127	0.923248
	C207	C	0.907659	0.404331	0.921189
	C208	C	0.096573	0.899666	0.605925
	C209	C	0.098692	0.090365	0.426006
	C210	C	0.906786	0.091200	0.609985
	C211	C	0.908234	0.898124	0.427090
	C212	C	0.593218	0.088842	0.921590
	C213	C	0.409933	0.090822	0.114322
	C214	C	0.593373	0.899130	0.112355
	C215	C	0.411197	0.900662	0.922735
	Zn216	Zn	0.502122	-0.005891	0.767138
	Zn217	Zn	0.502556	-0.005604	0.267759
	Zn218	Zn	0.752235	0.494040	0.016483
	Zn219	Zn	0.252569	0.495733	0.017391
	Zn220	Zn	0.003923	0.742844	0.516302
	Zn221	Zn	0.002838	0.245006	0.517467
	Zn222	Zn	0.003140	0.494484	0.766531
	Zn223	Zn	0.002571	0.494592	0.266762
	Zn224	Zn	0.501948	0.745289	0.016791
	Zn225	Zn	0.502638	0.243773	0.016756
	Zn226	Zn	0.753626	-0.006420	0.518741
	Zn227	Zn	0.252918	-0.005648	0.516928
	N228	N	0.414641	0.958767	0.697773
	N229	N	0.589299	0.029838	0.697278
	N230	N	0.592576	0.959408	0.335454
	N231	N	0.417851	0.030526	0.339777
	N232	N	0.682861	0.406986	0.980564
	N233	N	0.681399	0.580484	0.052550
	N234	N	0.320693	0.584090	0.982260
	N235	N	0.323476	0.409245	0.053184
	N236	N	0.967987	0.674148	0.429184
	N237	N	0.039170	0.673976	0.604186
	N238	N	0.967218	0.315985	0.603839
	N239	N	0.037852	0.314722	0.430003
	N240	N	0.968159	0.406476	0.698411
	N241	N	0.038009	0.583093	0.698605
	N242	N	0.966742	0.580797	0.337266
	N243	N	0.037919	0.406491	0.335784
	N244	N	0.414345	0.676630	0.981720
	N245	N	0.590451	0.676161	0.051168
	N246	N	0.590668	0.312781	0.981020
	N247	N	0.415231	0.314010	0.051975
	N248	N	0.684110	0.958307	0.430926
	N249	N	0.683335	0.029310	0.605176
	N250	N	0.319088	0.959979	0.607579
	N251	N	0.324275	0.030328	0.432136
	N252	N	0.916626	0.459264	0.195694
	N253	N	0.090190	0.530415	0.198028
	N254	N	0.090707	0.459868	0.836759
	N255	N	0.913292	0.529507	0.834400
	N256	N	0.183722	0.907145	0.480687
	N257	N	0.183559	0.082125	0.552434
	N258	N	0.824263	0.079733	0.482346
	N259	N	0.821994	0.904910	0.553036
	N260	N	0.466747	0.174136	0.930154
	N261	N	0.536495	0.175168	0.105317
	N262	N	0.466924	0.814328	0.105375
	N263	N	0.537277	0.814744	0.929917
	N264	N	0.467057	0.907885	0.197911
	N265	N	0.537687	0.081286	0.197296
	N266	N	0.467124	0.082312	0.835821
	N267	N	0.536687	0.906420	0.836334
	N268	N	0.916330	0.174317	0.482548
	N269	N	0.092364	0.177560	0.551160
	N270	N	0.091696	0.812573	0.480715
	N271	N	0.915959	0.812004	0.552489
	N272	N	0.182770	0.460267	0.930879
	N273	N	0.184758	0.530133	0.106532
	N274	N	0.822561	0.459677	0.103738
	N275	N	0.821569	0.530309	0.929438
	O276	O	-0.207015	0.202523	0.006695
	H277	H	-0.188468	0.199680	-0.030377
	H278	H	-0.221995	0.217177	0.000556
	O279	O	0.984766	0.208958	0.794226
	H280	H	0.985865	0.235272	0.776115
	H281	H	0.969055	0.217210	0.814443
	O282	O	0.383816	0.347140	0.371794
	H283	H	0.394013	0.352308	0.385508
	H284	H	0.399106	0.351349	0.377158
	O285	O	0.645574	0.328619	0.522038
	H286	H	0.654552	0.323993	0.506813
	H287	H	0.629332	0.322378	0.507167
	O288	O	0.963551	0.814512	-0.047860
	H289	H	0.960771	0.824204	-0.036902
	H290	H	0.961359	0.811893	-0.037171
	O291	O	0.025674	-0.146750	-0.145639
	H292	H	0.031716	-0.181298	-0.165125
	H293	H	0.008457	-0.160739	-0.105319
	O294	O	-0.180699	-0.183240	1.204310
	H295	H	-0.166903	-0.146111	1.208092
	H296	H	-0.196335	-0.195091	1.171029
	O297	O	0.683926	1.476721	-0.352651
	H298	H	0.686898	1.478299	-0.337331
	H299	H	0.680485	1.456500	-0.370147
	O300	O	0.686979	0.363176	0.313095
	H301	H	0.701614	0.358351	0.309225
	H302	H	0.670126	0.358987	0.305798
	O303	O	0.668464	0.582764	0.435933
	H304	H	0.660352	0.606090	0.443842
	H305	H	0.672941	0.583405	0.446163
	O306	O	0.605502	0.667468	0.382160
	H307	H	0.590280	0.667800	0.377864
	H308	H	0.605574	0.656129	0.380117
	O309	O	0.501344	0.330369	0.309939
	H310	H	0.504803	0.329415	0.300734
	H311	H	0.514287	0.336185	0.305237
	O312	O	-0.216521	1.021409	0.799223
	H313	H	-0.249184	1.025032	0.767248
	H314	H	-0.194700	1.011967	0.802011
	O315	O	0.217582	0.973782	0.799855
	H316	H	0.172277	1.000105	0.787197
	H317	H	0.249511	0.973364	0.759111
	O318	O	0.667592	0.546281	0.726532
	H319	H	0.692351	0.556308	0.748794
	H320	H	0.672309	0.545811	0.719737
	O321	O	-0.162456	0.168144	-0.143021
	H322	H	-0.165900	0.129411	-0.147939
	H323	H	-0.135562	0.169954	-0.135029
	O324	O	0.704323	0.287347	0.412930
	H325	H	0.708262	0.292029	0.390915
	H326	H	0.723704	0.279020	0.408266
	O327	O	0.302490	0.511073	0.322927
	H328	H	0.267995	0.512698	0.292675
	H329	H	0.335534	0.499514	0.319612
	O330	O	0.034593	1.208276	0.225564
	H331	H	0.055433	1.207921	0.208302
	H332	H	0.031997	1.228154	0.253936
	O333	O	0.815685	-0.220094	1.025450
	H334	H	0.793750	-0.207813	1.015999
	H335	H	0.800224	-0.225314	1.028331
	O336	O	-0.015633	0.106018	0.003553
	H337	H	-0.021750	0.101556	0.033307
	H338	H	0.002576	0.089290	0.007762
	O339	O	0.490870	1.655545	0.712498
	H340	H	0.503762	1.650399	0.730653
	H341	H	0.495432	1.653569	0.718538
	O342	O	0.640623	0.386577	1.557585
	H343	H	0.624746	0.383221	1.553448
	H344	H	0.651539	0.369281	1.532619
	O345	O	0.929925	0.907457	-0.199763
	H346	H	0.939923	0.907145	-0.184983
	H347	H	0.929890	0.889139	-0.207414
	O348	O	0.605780	0.686894	0.634878
	H349	H	0.624968	0.685058	0.601968
	H350	H	0.589289	0.704858	0.641882
	O351	O	0.094438	0.972387	1.026831
	H352	H	0.115685	0.968072	1.032073
	H353	H	0.099625	0.972791	1.011664
	O354	O	-0.358860	0.474919	0.328586
	H355	H	-0.353360	0.468457	0.323184
	H356	H	-0.354658	0.471534	0.321003
	O357	O	0.214675	-0.224860	0.996837
	H358	H	0.240086	-0.249380	0.977406
	H359	H	0.208678	-0.224100	0.960372
	O360	O	0.442869	0.697022	0.505587
	H361	H	0.450972	0.692941	0.503459
	H362	H	0.463243	0.693718	0.527082
	O363	O	0.196323	0.180069	1.203015
	H364	H	0.179728	0.161879	1.213239
	H365	H	0.218593	0.191631	1.186362
	O366	O	0.796324	0.954991	0.056324
	H367	H	0.800200	0.954981	0.080352
	H368	H	0.794281	0.970835	0.075850
	O369	O	0.513968	0.514314	0.486098
	H370	H	0.526038	0.520054	0.502767
	H371	H	0.510635	0.512712	0.478990
	O372	O	0.391459	0.479056	0.542233
	H373	H	0.397463	0.482847	0.536560
	H374	H	0.397077	0.466198	0.531290
	O375	O	0.695235	0.684942	0.576257
	H376	H	0.696936	0.677425	0.576840
	H377	H	0.696873	0.686863	0.553821
	O378	O	0.495476	0.331705	0.671680
	H379	H	0.498207	0.322546	0.665957
	H380	H	0.485670	0.326167	0.674554
	O381	O	1.819721	0.145304	0.157085
	H382	H	1.824176	0.146932	0.144503
	H383	H	1.835572	0.140424	0.140700
	O384	O	0.484135	0.708564	0.370759
	H385	H	0.459561	0.718191	0.366874
	H386	H	0.463190	0.708295	0.363365
	O387	O	-0.192781	-0.070305	0.944299
	H388	H	-0.173358	-0.077355	0.929908
	H389	H	-0.200525	-0.048574	0.964374
	O390	O	-0.580651	-0.512055	-0.284760
	H391	H	-0.582471	-0.531527	-0.278898
	H392	H	-0.572532	-0.507029	-0.281946
	O393	O	1.067943	1.049420	0.784568
	H394	H	1.041668	1.041392	0.794759
	H395	H	1.044042	1.073448	0.773760
	O396	O	1.079894	0.201326	-0.067339
	H397	H	1.086584	0.205306	-0.046439
	H398	H	1.065589	0.192537	-0.072232
	O399	O	1.048825	-0.090299	1.185219
	H400	H	1.059851	-0.100626	1.188030
	H401	H	1.043283	-0.113152	1.185869
	O402	O	0.953548	1.051004	1.214547
	H403	H	0.974456	1.062860	1.219497
	H404	H	0.975804	1.031038	1.220092
	O405	O	1.012313	0.891995	-0.004270
	H406	H	1.018876	0.903093	-0.015257
	H407	H	1.023820	0.883711	0.010657
	O408	O	0.800418	-0.029923	0.230528
	H409	H	0.795364	-0.019024	0.252121
	H410	H	0.799294	-0.035081	0.228769
	O411	O	0.345589	1.662987	0.336605
	H412	H	0.342592	1.656220	0.364128
	H413	H	0.335806	1.648830	0.346232
	O414	O	0.349895	0.312859	0.657393
	H415	H	0.349129	0.303008	0.660976
	H416	H	0.351689	0.310282	0.667017
	O417	O	0.289478	0.474161	0.733425
	H418	H	0.286318	0.475017	0.736742
	H419	H	0.276648	0.464132	0.749163
	O420	O	-0.027545	-0.220877	0.232844
	H421	H	-0.054120	-0.231795	0.236763
	H422	H	-0.030649	-0.236448	0.235400
	O423	O	0.224672	1.103127	-0.011545
	H424	H	0.235428	1.080943	-0.047111
	H425	H	0.235750	1.117457	-0.008937
	O426	O	1.217911	-0.021618	0.030304
	H427	H	1.217936	-0.055697	0.002800
	H428	H	1.223977	-0.026157	0.034397
	O429	O	1.184322	0.813658	-0.161381
	H430	H	1.196067	0.867154	-0.174159
	H431	H	1.130555	0.805091	-0.175341
	O432	O	0.539734	0.345415	0.604769
	H433	H	0.542316	0.350987	0.600557
	H434	H	0.537890	0.349865	0.600231
	O435	O	0.298938	0.706577	0.502878
	H436	H	0.316807	0.703862	0.527777
	H437	H	0.274608	0.730544	0.509221
	O438	O	0.391357	0.369724	-0.630300
	H439	H	0.389407	0.389600	-0.629674
	H440	H	0.399814	0.382939	-0.631188
	O441	O	1.032809	-0.185536	0.092622
	H442	H	1.029193	-0.180729	0.107708
	H443	H	1.036364	-0.181885	0.118064
	O444	O	0.196280	1.016055	1.222755
	H445	H	0.192942	1.014781	1.237369
	H446	H	0.192659	1.021958	1.208480
	O447	O	0.293377	0.507899	0.504758
	H448	H	0.297129	0.511677	0.518931
	H449	H	0.281665	0.523354	0.484037
	O450	O	0.078692	1.196486	1.058953
	H451	H	0.072299	1.185677	1.057626
	H452	H	0.076402	1.191255	1.056926
	O453	O	0.433028	0.387669	0.579030
	H454	H	0.433130	0.405788	0.569733
	H455	H	0.424452	0.392561	0.570212
