data_Molecule from HDF5

_cell_length_a		16.491130
_cell_length_b		16.528771
_cell_length_c		16.579960
_cell_angle_alpha	90.054557
_cell_angle_beta	89.991185
_cell_angle_gamma	90.003675
_symmetry_space_group_name_H-M	'P 1'
_symmetry_Int_Tables_number		1

loop_
	_symmetry_equiv_pos_as_xyz
	x,y,z

loop_
	_atom_site_label
	_atom_site_type_symbol
	_atom_site_fract_x
	_atom_site_fract_y
	_atom_site_fract_z
	H0	H	0.385267	0.860102	0.712822
	H1	H	0.596434	0.172615	0.710298
	H2	H	0.597010	0.858852	0.267659
	H3	H	0.385354	0.170818	0.265301
	H4	H	0.714531	0.412841	0.832059
	H5	H	0.717939	0.623981	0.142949
	H6	H	0.271193	0.622516	0.830939
	H7	H	0.273526	0.412734	0.144684
	H8	H	0.836293	0.737988	0.384012
	H9	H	0.150275	0.741511	0.597113
	H10	H	0.835221	0.298278	0.591203
	H11	H	0.150181	0.293725	0.382503
	H12	H	0.837503	0.413121	0.709851
	H13	H	0.152511	0.623135	0.710938
	H14	H	0.837931	0.623371	0.266020
	H15	H	0.151912	0.412431	0.268571
	H16	H	0.389228	0.736590	0.829504
	H17	H	0.601073	0.741000	0.142751
	H18	H	0.600053	0.294273	0.832964
	H19	H	0.389095	0.294887	0.143895
	H20	H	0.710657	0.857133	0.386761
	H21	H	0.712013	0.173832	0.591697
	H22	H	0.268225	0.860456	0.598043
	H23	H	0.269650	0.170980	0.382791
	H24	H	0.888884	0.360351	0.209562
	H25	H	0.099680	0.673897	0.209857
	H26	H	0.101593	0.359018	0.765805
	H27	H	0.888884	0.671996	0.765483
	H28	H	0.217023	0.908221	0.334554
	H29	H	0.218192	0.126046	0.644718
	H30	H	0.775094	0.115855	0.330016
	H31	H	0.771720	0.911109	0.646201
	H32	H	0.337506	0.241454	0.880656
	H33	H	0.649851	0.237256	0.093272
	H34	H	0.335971	0.793910	0.094365
	H35	H	0.650696	0.797542	0.885607
	H36	H	0.336903	0.907994	0.212325
	H37	H	0.649520	0.121717	0.210405
	H38	H	0.337314	0.125966	0.763718
	H39	H	0.650078	0.912475	0.768636
	H40	H	0.888877	0.234974	0.331164
	H41	H	0.101261	0.241442	0.644537
	H42	H	0.101255	0.791966	0.334388
	H43	H	0.888672	0.794804	0.646544
	H44	H	0.216483	0.358430	0.883021
	H45	H	0.215306	0.674268	0.092827
	H46	H	0.773631	0.360041	0.091728
	H47	H	0.772751	0.672281	0.882875
	H48	H	0.412777	0.122653	0.568717
	H49	H	0.586145	0.902360	0.579410
	H50	H	0.580670	0.127743	0.399499
	H51	H	0.408864	0.905044	0.400808
	H52	H	0.580463	0.426568	0.099786
	H53	H	0.581358	0.604215	0.877172
	H54	H	0.410371	0.608031	0.097856
	H55	H	0.405893	0.431502	0.877148
	H56	H	0.104548	0.603094	0.402350
	H57	H	0.882244	0.603229	0.579417
	H58	H	0.106572	0.425493	0.573580
	H59	H	0.881760	0.427116	0.400956
	H60	H	0.105383	0.429699	0.575637
	H61	H	0.883060	0.605561	0.577577
	H62	H	0.105931	0.603393	0.400006
	H63	H	0.881016	0.429033	0.396419
	H64	H	0.400702	0.608488	0.101627
	H65	H	0.581879	0.606357	0.876640
	H66	H	0.584910	0.424485	0.102014
	H67	H	0.408712	0.426142	0.876718
	H68	H	0.586548	0.129457	0.399509
	H69	H	0.581171	0.902754	0.581569
	H70	H	0.397130	0.128777	0.573330
	H71	H	0.406162	0.904957	0.404140
	H72	H	0.905092	0.630878	0.081377
	H73	H	0.081661	0.406200	0.075392
	H74	H	0.083665	0.627879	0.901625
	H75	H	0.903525	0.401333	0.895174
	H76	H	0.074246	0.926233	0.599385
	H77	H	0.084222	0.103409	0.377452
	H78	H	0.904981	0.110447	0.601952
	H79	H	0.910842	0.932209	0.381906
	H80	H	0.605325	0.105797	0.899942
	H81	H	0.379900	0.103715	0.077150
	H82	H	0.606239	0.927146	0.080779
	H83	H	0.380359	0.927487	0.900774
	H84	H	0.604729	0.925719	0.073406
	H85	H	0.381454	0.104232	0.076359
	H86	H	0.604093	0.103309	0.901182
	H87	H	0.379015	0.928002	0.897810
	H88	H	0.898235	0.108291	0.603307
	H89	H	0.080014	0.099552	0.381465
	H90	H	0.084153	0.926949	0.602988
	H91	H	0.905349	0.914093	0.374030
	H92	H	0.081769	0.627050	0.897978
	H93	H	0.088329	0.402641	0.078335
	H94	H	0.908918	0.628136	0.077472
	H95	H	0.911634	0.406434	0.898285
	H96	H	0.410113	0.128752	0.584822
	H97	H	0.581845	0.903481	0.576080
	H98	H	0.583312	0.130152	0.394594
	H99	H	0.405299	0.902811	0.400236
	H100	H	0.584097	0.430016	0.100993
	H101	H	0.583334	0.605124	0.876118
	H102	H	0.403769	0.599848	0.096822
	H103	H	0.402997	0.426680	0.875144
	H104	H	0.105894	0.605434	0.401866
	H105	H	0.883756	0.602929	0.576787
	H106	H	0.107507	0.425974	0.578291
	H107	H	0.879242	0.424235	0.397064
	H108	H	0.903557	0.630017	0.075657
	H109	H	0.081186	0.403305	0.082989
	H110	H	0.080272	0.626401	0.901453
	H111	H	0.903714	0.404829	0.904540
	H112	H	0.080360	0.935452	0.597949
	H113	H	0.077868	0.105580	0.378660
	H114	H	0.903052	0.103450	0.600598
	H115	H	0.891532	0.929181	0.375056
	H116	H	0.605100	0.103152	0.898042
	H117	H	0.380943	0.102879	0.076877
	H118	H	0.603029	0.932737	0.076672
	H119	H	0.378684	0.925359	0.899276
	C120	C	0.372020	0.024234	0.610243
	C121	C	0.614630	1.007207	0.610570
	C122	C	0.614295	0.024474	0.367004
	C123	C	0.372647	1.007203	0.368466
	C124	C	0.615094	0.395373	-0.002611
	C125	C	0.615376	0.638233	0.979468
	C126	C	0.372138	0.638027	-0.004466
	C127	C	0.373030	0.395504	0.979440
	C128	C	0.001950	0.637322	0.368531
	C129	C	0.986744	0.637349	0.610813
	C130	C	0.002375	0.395460	0.608520
	C131	C	0.984950	0.394835	0.366601
	C132	C	0.873479	0.525462	0.109618
	C133	C	0.116506	0.507860	0.110892
	C134	C	0.115537	0.523725	0.867459
	C135	C	0.873390	0.507490	0.866626
	C136	C	0.114285	0.895052	0.498119
	C137	C	0.114465	0.137502	0.481668
	C138	C	0.871384	0.137405	0.497135
	C139	C	0.871239	0.893919	0.481054
	C140	C	0.501506	0.137772	0.866938
	C141	C	0.484301	0.137062	0.109779
	C142	C	0.501254	0.894669	0.109908
	C143	C	0.483706	0.895352	0.867417
	C144	C	0.367334	0.907094	0.672500
	C145	C	0.615495	0.125968	0.669750
	C146	C	0.615564	0.905713	0.307813
	C147	C	0.367832	0.124068	0.306372
	C148	C	0.674785	0.393820	0.879354
	C149	C	0.676899	0.641748	0.096614
	C150	C	0.311545	0.640558	0.877843
	C151	C	0.313181	0.393858	0.097455
	C152	C	0.883882	0.697983	0.365395
	C153	C	0.104110	0.699416	0.614025
	C154	C	0.882965	0.337086	0.610377
	C155	C	0.103194	0.334503	0.364548
	C156	C	0.884268	0.393942	0.669392
	C157	C	0.105012	0.640840	0.671076
	C158	C	0.884566	0.640826	0.306839
	C159	C	0.104164	0.393452	0.307823
	C160	C	0.370273	0.697502	0.877246
	C161	C	0.618600	0.699561	0.096401
	C162	C	0.617732	0.335129	0.879704
	C163	C	0.370218	0.335064	0.097121
	C164	C	0.672098	0.904959	0.367079
	C165	C	0.672737	0.126449	0.610938
	C166	C	0.309584	0.907054	0.614815
	C167	C	0.310679	0.124313	0.364998
	C168	C	0.870938	0.407342	0.169312
	C169	C	0.118618	0.626476	0.170318
	C170	C	0.119423	0.405936	0.806339
	C171	C	0.870923	0.625335	0.806266
	C172	C	0.176340	0.890736	0.381313
	C173	C	0.176598	0.142529	0.598359
	C174	C	0.813819	0.136173	0.377840
	C175	C	0.811614	0.892577	0.599244
	C176	C	0.384197	0.200232	0.863336
	C177	C	0.602606	0.197351	0.112114
	C178	C	0.383394	0.833641	0.112898
	C179	C	0.603112	0.836856	0.866490
	C180	C	0.383833	0.890481	0.171663
	C181	C	0.602289	0.139800	0.170271
	C182	C	0.384150	0.142681	0.805136
	C183	C	0.602753	0.893721	0.808123
	C184	C	0.870614	0.195202	0.378301
	C185	C	0.118597	0.200330	0.597979
	C186	C	0.118367	0.833222	0.381149
	C187	C	0.869647	0.834575	0.599314
	C188	C	0.176403	0.405645	0.864752
	C189	C	0.175797	0.626613	0.111714
	C190	C	0.813636	0.407158	0.110811
	C191	C	0.812997	0.625446	0.864200
	C192	C	0.399075	0.105339	0.583438
	C193	C	0.589989	0.924680	0.586039
	C194	C	0.590337	0.107463	0.390985
	C195	C	0.399290	0.925470	0.394503
	C196	C	0.590254	0.420079	0.079602
	C197	C	0.589527	0.612304	0.897859
	C198	C	0.397717	0.612755	0.077367
	C199	C	0.398672	0.420739	0.897678
	C200	C	0.084216	0.611388	0.394324
	C201	C	0.904466	0.611344	0.585257
	C202	C	0.084894	0.420073	0.583017
	C203	C	0.902274	0.419674	0.391168
	C204	C	0.898725	0.608220	0.085280
	C205	C	0.091177	0.425488	0.086126
	C206	C	0.089400	0.605619	0.892935
	C207	C	0.898940	0.425464	0.892057
	C208	C	0.087318	0.921789	0.579089
	C209	C	0.088228	0.110640	0.400400
	C210	C	0.895163	0.113943	0.580240
	C211	C	0.895732	0.918212	0.398399
	C212	C	0.583410	0.111618	0.892507
	C213	C	0.402087	0.111198	0.084094
	C214	C	0.583195	0.920988	0.084162
	C215	C	0.401026	0.919918	0.892017
	Zn216	Zn	0.492426	0.016251	0.739084
	Zn217	Zn	0.492850	0.015747	0.238533
	Zn218	Zn	0.744867	0.517161	-0.011865
	Zn219	Zn	0.243723	0.516234	-0.012567
	Zn220	Zn	-0.006340	0.765697	0.489886
	Zn221	Zn	-0.006892	0.265920	0.487928
	Zn222	Zn	-0.004463	0.515606	0.738518
	Zn223	Zn	-0.005604	0.517242	0.238684
	Zn224	Zn	0.492943	0.766827	-0.012038
	Zn225	Zn	0.493735	0.266004	-0.011685
	Zn226	Zn	0.742727	0.015592	0.488782
	Zn227	Zn	0.243369	0.015871	0.489901
	N228	N	0.405220	0.981060	0.669908
	N229	N	0.580496	0.050670	0.670124
	N230	N	0.580396	0.980976	0.307713
	N231	N	0.405621	0.050184	0.308514
	N232	N	0.673308	0.430633	0.953570
	N233	N	0.674841	0.604183	0.022889
	N234	N	0.312431	0.604386	0.952411
	N235	N	0.314631	0.430498	0.023224
	N236	N	0.957969	0.695811	0.403188
	N237	N	0.029444	0.697551	0.577475
	N238	N	0.957346	0.337845	0.573218
	N239	N	0.028027	0.335139	0.400186
	N240	N	0.959589	0.429387	0.668351
	N241	N	0.030900	0.602910	0.669051
	N242	N	0.959097	0.603940	0.308697
	N243	N	0.029483	0.430172	0.308751
	N244	N	0.407025	0.696175	0.951546
	N245	N	0.581150	0.697517	0.022571
	N246	N	0.581390	0.335881	0.954137
	N247	N	0.406795	0.336089	0.022799
	N248	N	0.671624	0.979869	0.403103
	N249	N	0.672206	0.051693	0.574943
	N250	N	0.312330	0.980967	0.576918
	N251	N	0.313377	0.050391	0.402675
	N252	N	0.907337	0.481990	0.168683
	N253	N	0.082599	0.551587	0.170041
	N254	N	0.082405	0.480375	0.807904
	N255	N	0.907838	0.550976	0.807571
	N256	N	0.173830	0.928570	0.455009
	N257	N	0.174103	0.103882	0.524891
	N258	N	0.813933	0.101326	0.453016
	N259	N	0.812395	0.928437	0.524544
	N260	N	0.458348	0.197339	0.901111
	N261	N	0.528036	0.195889	0.075249
	N262	N	0.457483	0.836115	0.075282
	N263	N	0.528073	0.837517	0.902413
	N264	N	0.458153	0.927951	0.169711
	N265	N	0.527597	0.103142	0.168979
	N266	N	0.458098	0.104716	0.807151
	N267	N	0.527335	0.929000	0.808265
	N268	N	0.905426	0.196191	0.453553
	N269	N	0.080625	0.197208	0.524328
	N270	N	0.080546	0.835726	0.454908
	N271	N	0.906076	0.835363	0.524770
	N272	N	0.173865	0.479786	0.902128
	N273	N	0.174921	0.551700	0.075739
	N274	N	0.814876	0.481933	0.074689
	N275	N	0.814539	0.551166	0.901044
	O276	O	1.208208	1.230849	0.019119
	H277	H	1.219755	1.247550	0.010886
	H278	H	1.207029	1.226726	0.016576
	O279	O	0.104233	0.054465	1.140298
	H280	H	0.099738	0.055252	1.144019
	H281	H	0.107160	0.078914	1.135357
	O282	O	0.434993	0.319552	0.685901
	H283	H	0.448452	0.312408	0.681239
	H284	H	0.446808	0.304192	0.669504
	O285	O	0.525935	0.613363	0.463084
	H286	H	0.525540	0.616425	0.451160
	H287	H	0.543766	0.613984	0.455567
	O288	O	1.306648	-0.289574	1.301498
	H289	H	1.342284	-0.282357	1.309957
	H290	H	1.284592	-0.297285	1.275377
	O291	O	0.620654	0.542155	0.626406
	H292	H	0.625911	0.537861	0.632043
	H293	H	0.619040	0.529006	0.630127
	O294	O	0.104028	0.820126	-0.999214
	H295	H	0.085721	0.840852	-1.003338
	H296	H	0.092868	0.813002	-1.020795
	O297	O	0.296565	-0.635422	-0.322901
	H298	H	0.313427	-0.636445	-0.316343
	H299	H	0.301050	-0.615582	-0.317644
	O300	O	-0.222229	0.063702	-0.213087
	H301	H	-0.234410	0.085245	-0.223901
	H302	H	-0.237759	0.084016	-0.218212
	O303	O	0.201803	-0.031708	0.047063
	H304	H	0.205547	-0.039904	0.058593
	H305	H	0.199984	-0.045811	0.048550
	O306	O	1.547753	-0.295281	0.440907
	H307	H	1.552689	-0.299056	0.442440
	H308	H	1.555884	-0.289049	0.433182
	O309	O	0.537041	0.456018	0.630549
	H310	H	0.526156	0.461000	0.610524
	H311	H	0.537183	0.449849	0.636992
	O312	O	0.185147	-0.172674	-0.203048
	H313	H	0.168120	-0.148257	-0.212889
	H314	H	0.201651	-0.165134	-0.194289
	O315	O	0.786023	0.227776	0.776187
	H316	H	0.804816	0.235494	0.792402
	H317	H	0.756325	0.252901	0.748374
	O318	O	0.277476	0.736452	0.468382
	H319	H	0.248061	0.756366	0.458812
	H320	H	0.273167	0.723948	0.444826
	O321	O	-0.125910	0.811450	0.972212
	H322	H	-0.124946	0.813676	0.985954
	H323	H	-0.126947	0.795447	0.953009
	O324	O	1.000956	0.093893	0.954201
	H325	H	1.009987	0.082601	0.953837
	H326	H	1.011493	0.084205	0.942180
	O327	O	1.339550	-0.475305	0.287155
	H328	H	1.321424	-0.471086	0.268949
	H329	H	1.341820	-0.480376	0.294799
	O330	O	0.374976	0.312634	0.545951
	H331	H	0.368696	0.312200	0.539918
	H332	H	0.372521	0.314037	0.554174
	O333	O	0.274551	0.530339	0.515341
	H334	H	0.274280	0.530497	0.511875
	H335	H	0.281999	0.555364	0.521670
	O336	O	0.982345	0.092671	1.018845
	H337	H	0.988721	0.090773	1.022159
	H338	H	0.974192	0.091522	1.008009
	O339	O	0.525882	0.524095	0.658087
	H340	H	0.522041	0.512279	0.650152
	H341	H	0.529647	0.527252	0.670608
	O342	O	-0.195778	1.005540	0.072646
	H343	H	-0.197040	1.004657	0.067502
	H344	H	-0.186578	1.010327	0.071360
	O345	O	0.529155	0.735188	0.704659
	H346	H	0.537844	0.744702	0.696763
	H347	H	0.521980	0.764001	0.718967
	O348	O	-0.172005	1.201246	1.024026
	H349	H	-0.157988	1.192319	1.029195
	H350	H	-0.173458	1.201223	1.038931
	O351	O	-0.020302	-0.150950	1.045492
	H352	H	-0.016973	-0.147188	1.027530
	H353	H	-0.020724	-0.145610	1.069777
	O354	O	1.416323	-0.576705	1.451974
	H355	H	1.406201	-0.579790	1.447678
	H356	H	1.419208	-0.555379	1.454272
	O357	O	0.664574	0.539999	0.344319
	H358	H	0.675094	0.561540	0.355971
	H359	H	0.675054	0.557462	0.338970
	O360	O	0.625960	0.571214	0.465084
	H361	H	0.632323	0.593969	0.478424
	H362	H	0.623190	0.577381	0.467176
	O363	O	0.468206	0.724857	0.278232
	H364	H	0.473199	0.717252	0.282386
	H365	H	0.473450	0.743377	0.272036
	O366	O	0.893203	-0.075026	1.045490
	H367	H	0.893178	-0.088635	1.050531
	H368	H	0.897307	-0.058596	1.042222
	O369	O	0.013302	-0.122623	0.802078
	H370	H	0.026924	-0.122491	0.791765
	H371	H	0.018281	-0.137792	0.794258
	O372	O	0.582085	1.472523	0.273719
	H373	H	0.576167	1.484628	0.277256
	H374	H	0.592760	1.462054	0.265286
	O375	O	0.771321	0.107642	-0.037482
	H376	H	0.771857	0.119500	-0.041215
	H377	H	0.765252	0.111910	-0.048026
	O378	O	1.076961	0.961392	1.111583
	H379	H	1.095208	0.976515	1.120010
	H380	H	1.071288	0.972681	1.110428
	O381	O	-0.201914	0.981222	0.159735
	H382	H	-0.216533	0.983722	0.171566
	H383	H	-0.202588	0.964555	0.138815
	O384	O	0.679904	0.334293	0.676863
	H385	H	0.651997	0.338869	0.655675
	H386	H	0.669708	0.359426	0.657726
	O387	O	-0.044575	1.083560	1.096844
	H388	H	-0.034632	1.086952	1.081153
	H389	H	-0.046163	1.079173	1.092578
	O390	O	0.209263	0.991755	0.773352
	H391	H	0.227436	1.000783	0.775402
	H392	H	0.207522	1.007635	0.757217
	O393	O	1.039081	0.120218	-0.160908
	H394	H	1.044549	0.134013	-0.158482
	H395	H	1.018799	0.120846	-0.155592
	O396	O	1.199121	0.223371	0.195850
	H397	H	1.198076	0.213882	0.165915
	H398	H	1.233904	0.255208	0.225633
	O399	O	0.149006	0.146955	0.903602
	H400	H	0.153830	0.149034	0.894025
	H401	H	0.147249	0.143520	0.916314
	O402	O	0.962091	0.038946	0.797430
	H403	H	0.939451	0.034339	0.798514
	H404	H	0.967425	0.036856	0.790910
	O405	O	0.273830	0.504698	0.355675
	H406	H	0.277011	0.521665	0.370289
	H407	H	0.261761	0.518977	0.339469
	O408	O	0.999395	1.006574	0.950696
	H409	H	0.991820	1.002207	0.937568
	H410	H	1.005244	0.999601	0.953782
	O411	O	1.433171	1.712587	0.584655
	H412	H	1.435967	1.708307	0.572332
	H413	H	1.416631	1.720091	0.570409
	O414	O	0.115851	-0.007192	0.047995
	H415	H	0.113686	-0.004019	0.041897
	H416	H	0.116609	-0.008933	0.063538
	O417	O	-0.304308	-0.281814	0.693682
	H418	H	-0.304283	-0.326695	0.700069
	H419	H	-0.305767	-0.261490	0.718495
	O420	O	1.211784	-0.201257	0.960152
	H421	H	1.206830	-0.206717	0.958228
	H422	H	1.223941	-0.222476	0.943512
	O423	O	1.022106	1.232604	0.205947
	H424	H	1.052772	1.241703	0.208759
	H425	H	1.032890	1.250611	0.213869
	O426	O	0.695088	0.311949	0.286774
	H427	H	0.687798	0.335973	0.275211
	H428	H	0.714142	0.307889	0.259962
	O429	O	0.785582	0.812634	0.191273
	H430	H	0.812139	0.821596	0.184043
	H431	H	0.790192	0.816989	0.188637
	O432	O	1.418125	-0.438383	1.509730
	H433	H	1.419658	-0.434783	1.508062
	H434	H	1.427725	-0.432117	1.503856
	O435	O	-0.161203	1.133613	1.049970
	H436	H	-0.160046	1.131190	1.032830
	H437	H	-0.138478	1.126588	1.030530
	O438	O	0.638950	0.571558	0.478504
	H439	H	0.655504	0.560869	0.482329
	H440	H	0.623246	0.576717	0.486331
	O441	O	0.306722	0.325145	0.297891
	H442	H	0.320288	0.343262	0.321363
	H443	H	0.330082	0.343932	0.311481
	O444	O	0.538326	0.570861	0.278179
	H445	H	0.553784	0.563427	0.279155
	H446	H	0.536141	0.576647	0.292586
	O447	O	0.625023	0.356586	0.547357
	H448	H	0.622617	0.342629	0.523408
	H449	H	0.634494	0.360199	0.516377
	O450	O	0.371530	0.491655	-0.293182
	H451	H	0.369466	0.498384	-0.292702
	H452	H	0.368844	0.497073	-0.278155
	O453	O	-0.172845	0.843731	0.798093
	H454	H	-0.173942	0.842209	0.811267
	H455	H	-0.154759	0.867899	0.808848
	O456	O	-0.002776	0.825416	1.165154
	H457	H	0.000686	0.817588	1.191723
	H458	H	0.023718	0.850105	1.165118
	O459	O	0.712117	0.732798	0.521606
	H460	H	0.729148	0.750276	0.543886
	H461	H	0.715361	0.741391	0.554194
	O462	O	0.497499	0.328423	0.272806
	H463	H	0.509772	0.318871	0.263517
	H464	H	0.508885	0.331014	0.266603
	O465	O	0.567406	0.530866	0.481627
	H466	H	0.578710	0.523488	0.487840
	H467	H	0.572401	0.554318	0.470470
	O468	O	-0.014945	1.004308	0.185998
	H469	H	-0.004833	1.032184	0.191149
	H470	H	-0.026533	1.013545	0.178134
	O471	O	0.445939	0.285467	0.435312
	H472	H	0.439623	0.283154	0.426487
	H473	H	0.428284	0.290870	0.431578
	O474	O	0.964321	1.227071	-0.226288
	H475	H	0.963201	1.244843	-0.229978
	H476	H	0.950557	1.225430	-0.221814
	O477	O	0.716198	0.294382	0.454565
	H478	H	0.742920	0.268423	0.442944
	H479	H	0.715531	0.294259	0.412754
