data_Molecule from HDF5

_cell_length_a		16.206001
_cell_length_b		16.278264
_cell_length_c		16.293387
_cell_angle_alpha	89.994332
_cell_angle_beta	90.081597
_cell_angle_gamma	90.032470
_symmetry_space_group_name_H-M	'P 1'
_symmetry_Int_Tables_number		1

loop_
	_symmetry_equiv_pos_as_xyz
	x,y,z

loop_
	_atom_site_label
	_atom_site_type_symbol
	_atom_site_fract_x
	_atom_site_fract_y
	_atom_site_fract_z
	H0	H	0.407806	0.839604	0.720450
	H1	H	0.607370	0.165875	0.722789
	H2	H	0.607327	0.840033	0.291019
	H3	H	0.406786	0.166194	0.290558
	H4	H	0.723355	0.403206	0.842576
	H5	H	0.721716	0.602173	0.169248
	H6	H	0.294229	0.600597	0.841256
	H7	H	0.293722	0.403874	0.169543
	H8	H	0.842511	0.715843	0.409109
	H9	H	0.172430	0.717211	0.603904
	H10	H	0.843595	0.290169	0.604920
	H11	H	0.172753	0.290124	0.408313
	H12	H	0.843764	0.406466	0.720636
	H13	H	0.171831	0.603882	0.721279
	H14	H	0.843884	0.603057	0.291939
	H15	H	0.172857	0.406153	0.293221
	H16	H	0.408352	0.718177	0.842701
	H17	H	0.607006	0.718407	0.168745
	H18	H	0.607168	0.287128	0.842592
	H19	H	0.407279	0.287858	0.168838
	H20	H	0.721534	0.839332	0.408200
	H21	H	0.722025	0.167728	0.604544
	H22	H	0.292751	0.839645	0.604141
	H23	H	0.293942	0.167715	0.408430
	H24	H	0.907512	0.341520	0.223381
	H25	H	0.107153	0.668225	0.220270
	H26	H	0.107407	0.341530	0.790757
	H27	H	0.909203	0.668373	0.792921
	H28	H	0.219973	0.906545	0.341712
	H29	H	0.222375	0.102160	0.670491
	H30	H	0.793723	0.101296	0.341851
	H31	H	0.794645	0.905792	0.670005
	H32	H	0.343070	0.216821	0.907283
	H33	H	0.670801	0.219317	0.107298
	H34	H	0.343217	0.789059	0.103414
	H35	H	0.671647	0.788974	0.907742
	H36	H	0.342716	0.903912	0.220362
	H37	H	0.671092	0.102434	0.222125
	H38	H	0.343274	0.101278	0.791831
	H39	H	0.671235	0.902491	0.791510
	H40	H	0.907965	0.219540	0.342162
	H41	H	0.107718	0.219584	0.669958
	H42	H	0.106278	0.788664	0.343337
	H43	H	0.907936	0.788885	0.669857
	H44	H	0.219653	0.338866	0.909713
	H45	H	0.223121	0.667083	0.103448
	H46	H	0.794560	0.339940	0.104184
	H47	H	0.793848	0.667654	0.908615
	H48	H	0.418490	0.119605	0.604773
	H49	H	0.599237	0.887076	0.600762
	H50	H	0.600038	0.120230	0.409545
	H51	H	0.415653	0.885784	0.409939
	H52	H	0.609829	0.414628	0.123203
	H53	H	0.603278	0.590050	0.889538
	H54	H	0.417858	0.598260	0.122079
	H55	H	0.414784	0.399128	0.886009
	H56	H	0.126384	0.601453	0.414471
	H57	H	0.889718	0.598208	0.600940
	H58	H	0.122361	0.413923	0.593572
	H59	H	0.891804	0.416052	0.410620
	H60	H	0.125619	0.415788	0.605397
	H61	H	0.891230	0.597419	0.599622
	H62	H	0.123259	0.594110	0.417635
	H63	H	0.889930	0.407552	0.413299
	H64	H	0.412062	0.598035	0.124063
	H65	H	0.594581	0.597298	0.890491
	H66	H	0.592402	0.415826	0.117537
	H67	H	0.404639	0.413964	0.887838
	H68	H	0.596881	0.118622	0.414856
	H69	H	0.600649	0.886898	0.597345
	H70	H	0.418709	0.117956	0.595055
	H71	H	0.418293	0.889063	0.416885
	H72	H	0.915383	0.622221	0.107146
	H73	H	0.115618	0.383205	0.098034
	H74	H	0.097526	0.618556	0.917440
	H75	H	0.912540	0.385064	0.907407
	H76	H	0.100250	0.916492	0.621202
	H77	H	0.105516	0.098184	0.387846
	H78	H	0.926565	0.093343	0.617079
	H79	H	0.906003	0.912388	0.387186
	H80	H	0.627443	0.104153	0.915907
	H81	H	0.391500	0.097036	0.095572
	H82	H	0.629265	0.902306	0.106953
	H83	H	0.389121	0.914899	0.903562
	H84	H	0.622514	0.907080	0.088691
	H85	H	0.390873	0.092156	0.099695
	H86	H	0.619953	0.090120	0.923161
	H87	H	0.386969	0.898816	0.914368
	H88	H	0.915636	0.109016	0.625733
	H89	H	0.099648	0.092431	0.391589
	H90	H	0.096210	0.906308	0.623098
	H91	H	0.920308	0.915312	0.391967
	H92	H	0.108019	0.621949	0.915265
	H93	H	0.094736	0.384854	0.115201
	H94	H	0.923788	0.617007	0.096042
	H95	H	0.924204	0.390772	0.913059
	H96	H	0.410507	0.121671	0.599380
	H97	H	0.602306	0.886481	0.600272
	H98	H	0.603433	0.120609	0.415500
	H99	H	0.410393	0.886091	0.416168
	H100	H	0.598656	0.400629	0.124741
	H101	H	0.603714	0.601324	0.886141
	H102	H	0.415530	0.592963	0.121233
	H103	H	0.422787	0.413980	0.893524
	H104	H	0.124922	0.594627	0.409423
	H105	H	0.889791	0.596039	0.601340
	H106	H	0.127394	0.404643	0.599923
	H107	H	0.892969	0.413807	0.419439
	H108	H	0.908344	0.620825	0.093681
	H109	H	0.091586	0.392865	0.090127
	H110	H	0.100073	0.622358	0.906628
	H111	H	0.912708	0.389098	0.920519
	H112	H	0.106393	0.908429	0.624849
	H113	H	0.097128	0.101272	0.389997
	H114	H	0.906786	0.090077	0.622446
	H115	H	0.916612	0.900736	0.387737
	H116	H	0.624185	0.089954	0.906377
	H117	H	0.388881	0.097946	0.101190
	H118	H	0.622193	0.921337	0.103544
	H119	H	0.394415	0.915295	0.921678
	C120	C	0.386345	0.011702	0.627837
	C121	C	0.629781	0.994671	0.628520
	C122	C	0.628897	0.011544	0.385141
	C123	C	0.385602	0.994869	0.385068
	C124	C	0.629354	0.381047	0.014062
	C125	C	0.629126	0.625193	0.996798
	C126	C	0.386677	0.624483	0.014163
	C127	C	0.385798	0.380929	0.997264
	C128	C	0.016265	0.625274	0.385199
	C129	C	0.999113	0.625811	0.628481
	C130	C	0.016810	0.382586	0.628366
	C131	C	0.999924	0.383264	0.385509
	C132	C	0.886645	0.512439	0.127941
	C133	C	0.130029	0.495337	0.128886
	C134	C	0.130153	0.512627	0.884768
	C135	C	0.887048	0.496070	0.884926
	C136	C	0.129373	0.882167	0.514676
	C137	C	0.129617	0.126085	0.498295
	C138	C	0.886502	0.125998	0.513786
	C139	C	0.886126	0.881415	0.497670
	C140	C	0.515755	0.123931	0.885551
	C141	C	0.498755	0.124567	0.128042
	C142	C	0.515897	0.881408	0.127866
	C143	C	0.498873	0.881455	0.884976
	C144	C	0.387813	0.888424	0.682614
	C145	C	0.627617	0.117711	0.683953
	C146	C	0.627020	0.888629	0.329594
	C147	C	0.387246	0.117669	0.328943
	C148	C	0.685103	0.383070	0.891292
	C149	C	0.684336	0.622776	0.120108
	C150	C	0.331916	0.621314	0.890438
	C151	C	0.331058	0.383548	0.120393
	C152	C	0.891994	0.679213	0.388126
	C153	C	0.123157	0.680211	0.625065
	C154	C	0.892760	0.327825	0.625253
	C155	C	0.123539	0.327702	0.387837
	C156	C	0.892764	0.385758	0.682730
	C157	C	0.123210	0.623658	0.683006
	C158	C	0.892717	0.623208	0.329836
	C159	C	0.123776	0.385571	0.331027
	C160	C	0.388380	0.679938	0.891107
	C161	C	0.627184	0.680589	0.120018
	C162	C	0.627244	0.325406	0.891326
	C163	C	0.387419	0.325613	0.120092
	C164	C	0.683863	0.888305	0.387876
	C165	C	0.684727	0.118269	0.625466
	C166	C	0.330510	0.888620	0.624934
	C167	C	0.331055	0.118468	0.387553
	C168	C	0.888439	0.389582	0.183950
	C169	C	0.127784	0.619042	0.182935
	C170	C	0.127427	0.389644	0.829319
	C171	C	0.888842	0.619193	0.830175
	C172	C	0.183555	0.885236	0.391210
	C173	C	0.184746	0.123066	0.621368
	C174	C	0.830901	0.122961	0.390675
	C175	C	0.831545	0.884715	0.620892
	C176	C	0.392244	0.179354	0.887088
	C177	C	0.622001	0.180454	0.126469
	C178	C	0.392191	0.826621	0.124549
	C179	C	0.622591	0.826383	0.887326
	C180	C	0.392237	0.883366	0.182912
	C181	C	0.622127	0.122859	0.183885
	C182	C	0.392222	0.121867	0.829780
	C183	C	0.622294	0.883101	0.829534
	C184	C	0.887581	0.181640	0.391069
	C185	C	0.127787	0.181410	0.621149
	C186	C	0.126698	0.826878	0.391835
	C187	C	0.888640	0.827043	0.620973
	C188	C	0.183592	0.388593	0.888061
	C189	C	0.185010	0.618580	0.124639
	C190	C	0.831695	0.388974	0.125219
	C191	C	0.831866	0.619032	0.887929
	C192	C	0.409158	0.097568	0.606035
	C193	C	0.607408	0.909028	0.606197
	C194	C	0.606706	0.097564	0.407024
	C195	C	0.408096	0.909075	0.407599
	C196	C	0.607013	0.403749	0.099643
	C197	C	0.606977	0.602936	0.911027
	C198	C	0.408912	0.602799	0.100146
	C199	C	0.407786	0.402691	0.911316
	C200	C	0.102487	0.603208	0.407389
	C201	C	0.912685	0.603714	0.606991
	C202	C	0.102946	0.404977	0.606231
	C203	C	0.913950	0.405819	0.407776
	C204	C	0.909230	0.598086	0.105394
	C205	C	0.107260	0.409213	0.107564
	C206	C	0.108495	0.598697	0.906856
	C207	C	0.909988	0.410342	0.907133
	C208	C	0.107309	0.903856	0.600914
	C209	C	0.107299	0.103882	0.412047
	C210	C	0.909341	0.103800	0.599527
	C211	C	0.907879	0.903062	0.411239
	C212	C	0.601607	0.101293	0.908342
	C213	C	0.412670	0.102157	0.105558
	C214	C	0.602514	0.903591	0.106075
	C215	C	0.412477	0.903229	0.906880
	Zn216	Zn	0.507466	0.002918	0.756745
	Zn217	Zn	0.507253	0.002906	0.256372
	Zn218	Zn	0.757926	0.503646	0.005805
	Zn219	Zn	0.258342	0.503040	0.006088
	Zn220	Zn	0.007281	0.753359	0.506686
	Zn221	Zn	0.007990	0.254807	0.506006
	Zn222	Zn	0.008374	0.504719	0.756550
	Zn223	Zn	0.008209	0.504482	0.257193
	Zn224	Zn	0.507722	0.753426	0.005847
	Zn225	Zn	0.507232	0.252845	0.006184
	Zn226	Zn	0.758300	0.003459	0.505894
	Zn227	Zn	0.257526	0.003860	0.506477
	N228	N	0.421839	0.966005	0.684681
	N229	N	0.594550	0.039963	0.686203
	N230	N	0.593488	0.966122	0.327983
	N231	N	0.420535	0.039780	0.327207
	N232	N	0.686497	0.417095	0.968540
	N233	N	0.685548	0.588789	0.042845
	N234	N	0.330741	0.587422	0.967930
	N235	N	0.329758	0.417123	0.043098
	N236	N	0.969844	0.680836	0.421871
	N237	N	0.045072	0.681765	0.591919
	N238	N	0.970870	0.325829	0.592092
	N239	N	0.045611	0.326411	0.421188
	N240	N	0.970806	0.418871	0.684888
	N241	N	0.045147	0.590470	0.685242
	N242	N	0.970879	0.590323	0.328044
	N243	N	0.046012	0.419388	0.329395
	N244	N	0.421583	0.682080	0.968852
	N245	N	0.593516	0.682058	0.042482
	N246	N	0.593619	0.323820	0.968783
	N247	N	0.421139	0.324015	0.042656
	N248	N	0.685159	0.965829	0.421757
	N249	N	0.686171	0.040909	0.591507
	N250	N	0.329508	0.966240	0.591567
	N251	N	0.330149	0.041314	0.421862
	N252	N	0.921880	0.467234	0.185780
	N253	N	0.094466	0.541214	0.185658
	N254	N	0.094846	0.467769	0.827139
	N255	N	0.922783	0.541684	0.828464
	N256	N	0.184863	0.919205	0.468558
	N257	N	0.185866	0.089360	0.543871
	N258	N	0.829850	0.089282	0.468213
	N259	N	0.830269	0.918180	0.543311
	N260	N	0.469922	0.180719	0.921330
	N261	N	0.544126	0.181903	0.092693
	N262	N	0.470070	0.825302	0.091118
	N263	N	0.544944	0.825422	0.921150
	N264	N	0.470354	0.916692	0.185041
	N265	N	0.544519	0.088754	0.184865
	N266	N	0.469951	0.088173	0.828641
	N267	N	0.544373	0.916612	0.827934
	N268	N	0.921353	0.183587	0.468570
	N269	N	0.094275	0.183325	0.543473
	N270	N	0.093904	0.824721	0.469713
	N271	N	0.921595	0.824861	0.543145
	N272	N	0.185196	0.466009	0.921842
	N273	N	0.186900	0.540688	0.092079
	N274	N	0.830522	0.466305	0.091000
	N275	N	0.830424	0.541373	0.921150
	O276	O	0.505089	0.507715	0.408286
	H277	H	0.501049	0.508858	0.400957
	H278	H	0.502053	0.497913	0.406327
	O279	O	-0.057643	0.046438	-0.031609
	H280	H	-0.053225	0.042327	-0.028894
	H281	H	-0.062628	0.048991	-0.036710
	O282	O	0.438331	0.511519	0.449731
	H283	H	0.439764	0.512533	0.444533
	H284	H	0.442763	0.506609	0.458806
	O285	O	0.502532	0.466128	0.434718
	H286	H	0.503466	0.471341	0.427311
	H287	H	0.491002	0.474997	0.429963
	O288	O	0.963415	0.068296	-0.016616
	H289	H	0.967671	0.069780	-0.024275
	H290	H	0.959238	0.073766	-0.019861
	O291	O	-0.487677	0.477199	-0.534264
	H292	H	-0.484865	0.479904	-0.537970
	H293	H	-0.494553	0.483051	-0.536173
	O294	O	0.488552	0.510269	0.444678
	H295	H	0.483803	0.507867	0.440528
	H296	H	0.497973	0.517566	0.444633
	O297	O	-0.073033	1.087647	-0.016486
	H298	H	-0.064282	1.087256	-0.012236
	H299	H	-0.078492	1.092070	-0.018572
	O300	O	0.931617	0.125992	0.962502
	H301	H	0.932880	0.123030	0.965800
	H302	H	0.927227	0.120392	0.962002
	O303	O	0.503809	0.503299	0.497071
	H304	H	0.518656	0.505967	0.501616
	H305	H	0.502855	0.496958	0.502930
	O306	O	-0.076336	1.078989	0.931114
	H307	H	-0.087038	1.082375	0.919940
	H308	H	-0.079878	1.085570	0.942758
	O309	O	0.540263	0.447860	0.464271
	H310	H	0.531350	0.437060	0.458514
	H311	H	0.539592	0.437066	0.469792
