data_Molecule from HDF5

_cell_length_a		16.086815
_cell_length_b		16.287280
_cell_length_c		16.311934
_cell_angle_alpha	89.739115
_cell_angle_beta	90.006585
_cell_angle_gamma	90.428720
_symmetry_space_group_name_H-M	'P 1'
_symmetry_Int_Tables_number		1

loop_
	_symmetry_equiv_pos_as_xyz
	x,y,z

loop_
	_atom_site_label
	_atom_site_type_symbol
	_atom_site_fract_x
	_atom_site_fract_y
	_atom_site_fract_z
	H0	H	0.402484	0.835338	0.704523
	H1	H	0.609400	0.160100	0.701995
	H2	H	0.604490	0.834295	0.272389
	H3	H	0.405588	0.160537	0.268497
	H4	H	0.719935	0.402293	0.825498
	H5	H	0.717536	0.594557	0.153410
	H6	H	0.292382	0.594618	0.824081
	H7	H	0.291411	0.398137	0.153049
	H8	H	0.839046	0.708952	0.391297
	H9	H	0.169677	0.713298	0.589080
	H10	H	0.840871	0.280692	0.588327
	H11	H	0.170917	0.286916	0.390282
	H12	H	0.840146	0.396219	0.703697
	H13	H	0.169796	0.597764	0.702473
	H14	H	0.839746	0.596020	0.275462
	H15	H	0.169861	0.400073	0.273951
	H16	H	0.406131	0.713090	0.824551
	H17	H	0.606249	0.715166	0.150358
	H18	H	0.606302	0.283962	0.824791
	H19	H	0.403955	0.278233	0.149941
	H20	H	0.716992	0.833209	0.390885
	H21	H	0.720378	0.160935	0.582029
	H22	H	0.291187	0.834227	0.584183
	H23	H	0.293364	0.162513	0.386906
	H24	H	0.902569	0.335313	0.206338
	H25	H	0.107118	0.661543	0.204053
	H26	H	0.105918	0.336051	0.772497
	H27	H	0.903916	0.660901	0.770908
	H28	H	0.215822	0.903078	0.322536
	H29	H	0.220772	0.095385	0.651581
	H30	H	0.794129	0.093600	0.322956
	H31	H	0.789305	0.898514	0.650667
	H32	H	0.339633	0.212174	0.886265
	H33	H	0.670294	0.213028	0.085553
	H34	H	0.341024	0.783049	0.085335
	H35	H	0.671024	0.786784	0.887720
	H36	H	0.341111	0.895497	0.201214
	H37	H	0.670531	0.098671	0.201012
	H38	H	0.341201	0.097491	0.770529
	H39	H	0.670361	0.900671	0.773154
	H40	H	0.905383	0.214941	0.325906
	H41	H	0.108819	0.214975	0.650733
	H42	H	0.104258	0.782534	0.325606
	H43	H	0.903182	0.781203	0.651636
	H44	H	0.216946	0.334357	0.891706
	H45	H	0.220785	0.662401	0.085905
	H46	H	0.791169	0.334160	0.087103
	H47	H	0.794374	0.663179	0.892923
	H48	H	0.412091	0.114857	0.577382
	H49	H	0.606442	0.877243	0.580975
	H50	H	0.599878	0.114030	0.392887
	H51	H	0.421383	0.881758	0.385662
	H52	H	0.600787	0.408610	0.104417
	H53	H	0.598126	0.590883	0.873039
	H54	H	0.404469	0.588825	0.106653
	H55	H	0.403422	0.407395	0.869679
	H56	H	0.123395	0.583805	0.390283
	H57	H	0.885404	0.583087	0.590087
	H58	H	0.126228	0.406277	0.589528
	H59	H	0.887889	0.406361	0.399567
	H60	H	0.122973	0.401105	0.575788
	H61	H	0.883455	0.598970	0.580735
	H62	H	0.126584	0.599574	0.394181
	H63	H	0.886728	0.406770	0.395331
	H64	H	0.420797	0.585241	0.100459
	H65	H	0.598953	0.595999	0.870783
	H66	H	0.590487	0.404576	0.102855
	H67	H	0.416620	0.411526	0.876619
	H68	H	0.600513	0.115889	0.390942
	H69	H	0.590402	0.879667	0.591509
	H70	H	0.415923	0.115400	0.582495
	H71	H	0.412761	0.885419	0.404252
	H72	H	0.913535	0.617588	0.089880
	H73	H	0.107276	0.376609	0.090952
	H74	H	0.094720	0.615205	0.889290
	H75	H	0.920349	0.382858	0.890207
	H76	H	0.099508	0.907754	0.604109
	H77	H	0.103227	0.093962	0.369578
	H78	H	0.920094	0.094120	0.603608
	H79	H	0.912960	0.895263	0.368990
	H80	H	0.625181	0.098957	0.894596
	H81	H	0.389566	0.090821	0.067018
	H82	H	0.623751	0.916021	0.086081
	H83	H	0.384370	0.903351	0.888404
	H84	H	0.629140	0.898053	0.085513
	H85	H	0.390333	0.076317	0.081687
	H86	H	0.621108	0.088913	0.899091
	H87	H	0.387815	0.900143	0.901416
	H88	H	0.907492	0.090821	0.606830
	H89	H	0.096212	0.089227	0.373096
	H90	H	0.094836	0.902958	0.603663
	H91	H	0.905996	0.905309	0.370853
	H92	H	0.093377	0.611874	0.900694
	H93	H	0.083475	0.383817	0.089760
	H94	H	0.918858	0.612892	0.080388
	H95	H	0.913208	0.384540	0.906011
	H96	H	0.417799	0.112786	0.577486
	H97	H	0.591266	0.884324	0.572583
	H98	H	0.598538	0.114327	0.390564
	H99	H	0.401001	0.877950	0.388842
	H100	H	0.598700	0.398677	0.106804
	H101	H	0.602830	0.592459	0.871055
	H102	H	0.416885	0.601469	0.106671
	H103	H	0.415825	0.397648	0.870934
	H104	H	0.119905	0.589536	0.406045
	H105	H	0.890847	0.583763	0.572483
	H106	H	0.119810	0.414935	0.579273
	H107	H	0.885983	0.402742	0.396892
	H108	H	0.907171	0.616217	0.080190
	H109	H	0.098236	0.385210	0.070085
	H110	H	0.104279	0.616486	0.896596
	H111	H	0.903575	0.378020	0.892326
	H112	H	0.099815	0.902289	0.606177
	H113	H	0.095286	0.097899	0.371527
	H114	H	0.915554	0.081831	0.601023
	H115	H	0.918035	0.905745	0.373558
	H116	H	0.623690	0.089510	0.887637
	H117	H	0.382808	0.094843	0.085877
	H118	H	0.621142	0.905043	0.069983
	H119	H	0.389774	0.912644	0.896574
	C120	C	0.384547	0.006557	0.608594
	C121	C	0.626868	0.988504	0.609042
	C122	C	0.627085	0.006168	0.364589
	C123	C	0.383707	0.989832	0.364140
	C124	C	0.626413	0.376347	-0.003146
	C125	C	0.628329	0.621052	0.979676
	C126	C	0.384607	0.619758	-0.003530
	C127	C	0.382642	0.375291	0.979988
	C128	C	0.013660	0.619005	0.368136
	C129	C	0.995879	0.618730	0.610168
	C130	C	0.014144	0.376552	0.610579
	C131	C	0.996126	0.377442	0.368055
	C132	C	0.883518	0.506983	0.111899
	C133	C	0.126682	0.489987	0.111411
	C134	C	0.126402	0.506657	0.867099
	C135	C	0.883733	0.490054	0.867497
	C136	C	0.126457	0.876538	0.496421
	C137	C	0.128474	0.121587	0.479331
	C138	C	0.885344	0.118031	0.496038
	C139	C	0.882620	0.874016	0.479365
	C140	C	0.514301	0.120605	0.864702
	C141	C	0.496776	0.117456	0.106683
	C142	C	0.515253	0.876356	0.108971
	C143	C	0.496735	0.877776	0.866380
	C144	C	0.383513	0.884123	0.665700
	C145	C	0.627776	0.111513	0.663730
	C146	C	0.624414	0.883073	0.310546
	C147	C	0.385867	0.112236	0.307480
	C148	C	0.682182	0.380630	0.874148
	C149	C	0.681811	0.616925	0.103702
	C150	C	0.329460	0.616101	0.873226
	C151	C	0.327954	0.377080	0.103340
	C152	C	0.888967	0.672605	0.370719
	C153	C	0.120303	0.674914	0.608434
	C154	C	0.890014	0.319368	0.608719
	C155	C	0.121063	0.323502	0.370156
	C156	C	0.889760	0.376607	0.666071
	C157	C	0.120332	0.617558	0.665117
	C158	C	0.889276	0.616464	0.312972
	C159	C	0.120771	0.380042	0.312594
	C160	C	0.386007	0.675023	0.873433
	C161	C	0.626146	0.676595	0.102249
	C162	C	0.625531	0.321799	0.873834
	C163	C	0.383908	0.317512	0.101976
	C164	C	0.680284	0.882446	0.369380
	C165	C	0.683237	0.111924	0.604456
	C166	C	0.328265	0.883455	0.605831
	C167	C	0.329763	0.113060	0.366352
	C168	C	0.883442	0.384253	0.167816
	C169	C	0.126323	0.612924	0.166116
	C170	C	0.125285	0.384457	0.810957
	C171	C	0.885012	0.612516	0.810616
	C172	C	0.180239	0.880993	0.372413
	C173	C	0.183901	0.117360	0.602481
	C174	C	0.830870	0.115054	0.372435
	C175	C	0.827252	0.877368	0.602339
	C176	C	0.389592	0.175143	0.866088
	C177	C	0.621093	0.174614	0.105208
	C178	C	0.390781	0.820424	0.106230
	C179	C	0.621224	0.823851	0.867915
	C180	C	0.390737	0.876355	0.164088
	C181	C	0.621315	0.117580	0.162495
	C182	C	0.390267	0.118429	0.808468
	C183	C	0.621142	0.880737	0.811377
	C184	C	0.886395	0.175295	0.373857
	C185	C	0.127966	0.176565	0.601973
	C186	C	0.124670	0.820937	0.374056
	C187	C	0.883811	0.818835	0.602559
	C188	C	0.180362	0.383566	0.870608
	C189	C	0.182962	0.613339	0.107432
	C190	C	0.827689	0.383735	0.108818
	C191	C	0.830382	0.613681	0.871127
	C192	C	0.408422	0.092089	0.585782
	C193	C	0.603049	0.902672	0.588044
	C194	C	0.605972	0.092653	0.385288
	C195	C	0.405306	0.903692	0.386543
	C196	C	0.603358	0.397606	0.082495
	C197	C	0.606430	0.599404	0.893755
	C198	C	0.407427	0.598143	0.082373
	C199	C	0.405450	0.398602	0.894589
	C200	C	0.100739	0.597242	0.390143
	C201	C	0.909002	0.595386	0.587698
	C202	C	0.100609	0.400417	0.588184
	C203	C	0.909340	0.398899	0.390563
	C204	C	0.906563	0.593329	0.089898
	C205	C	0.103331	0.404147	0.090017
	C206	C	0.103993	0.592469	0.889064
	C207	C	0.905902	0.404034	0.889715
	C208	C	0.104623	0.897989	0.582295
	C209	C	0.105185	0.100040	0.393698
	C210	C	0.907766	0.095520	0.581675
	C211	C	0.905379	0.895685	0.393475
	C212	C	0.600792	0.098966	0.887175
	C213	C	0.410189	0.094253	0.084623
	C214	C	0.602227	0.899669	0.087036
	C215	C	0.409825	0.899144	0.888818
	Zn216	Zn	0.505616	-0.002103	0.737956
	Zn217	Zn	0.505691	-0.002499	0.235451
	Zn218	Zn	0.755628	0.498583	-0.010032
	Zn219	Zn	0.254931	0.498403	-0.010988
	Zn220	Zn	0.004593	0.746346	0.489193
	Zn221	Zn	0.005605	0.249291	0.488802
	Zn222	Zn	0.004885	0.498251	0.738232
	Zn223	Zn	0.005126	0.498303	0.240333
	Zn224	Zn	0.506673	0.749461	-0.012971
	Zn225	Zn	0.504951	0.247104	-0.012875
	Zn226	Zn	0.755012	-0.003117	0.487059
	Zn227	Zn	0.256002	-0.001161	0.486930
	N228	N	0.417923	0.961712	0.667286
	N229	N	0.593178	0.033873	0.666521
	N230	N	0.592140	0.960949	0.307472
	N231	N	0.418667	0.034490	0.306051
	N232	N	0.682939	0.413783	0.951557
	N233	N	0.682951	0.582798	0.026596
	N234	N	0.328320	0.582446	0.950732
	N235	N	0.327096	0.412381	0.026486
	N236	N	0.967436	0.674210	0.404208
	N237	N	0.041734	0.675870	0.575287
	N238	N	0.968356	0.319156	0.574997
	N239	N	0.042719	0.322001	0.404205
	N240	N	0.967873	0.411465	0.667301
	N241	N	0.041897	0.583142	0.666102
	N242	N	0.967943	0.583744	0.311105
	N243	N	0.042262	0.412610	0.311129
	N244	N	0.419489	0.677332	0.951001
	N245	N	0.593893	0.679371	0.024201
	N246	N	0.591498	0.319106	0.951261
	N247	N	0.417179	0.316314	0.024266
	N248	N	0.682261	0.960182	0.402036
	N249	N	0.682821	0.034599	0.571109
	N250	N	0.328625	0.960527	0.570940
	N251	N	0.328192	0.035952	0.400941
	N252	N	0.917523	0.462041	0.169766
	N253	N	0.092054	0.535183	0.168654
	N254	N	0.092471	0.462222	0.808640
	N255	N	0.917534	0.534608	0.808350
	N256	N	0.181536	0.915078	0.449668
	N257	N	0.184335	0.083891	0.525180
	N258	N	0.830233	0.079901	0.449329
	N259	N	0.826171	0.910764	0.524665
	N260	N	0.467767	0.176919	0.900293
	N261	N	0.542851	0.174542	0.071070
	N262	N	0.469043	0.820600	0.072360
	N263	N	0.542852	0.821969	0.901715
	N264	N	0.469295	0.910399	0.165944
	N265	N	0.543168	0.082508	0.163384
	N266	N	0.468545	0.085273	0.807457
	N267	N	0.542639	0.913685	0.810289
	N268	N	0.919468	0.177167	0.451609
	N269	N	0.094429	0.179513	0.524400
	N270	N	0.092204	0.817960	0.451907
	N271	N	0.917415	0.816708	0.524917
	N272	N	0.181286	0.460663	0.904587
	N273	N	0.183237	0.535980	0.074079
	N274	N	0.827959	0.460985	0.074454
	N275	N	0.829430	0.536466	0.905835
	O276	O	1.055768	0.955559	-0.033532
	H277	H	1.072024	0.954180	-0.042572
	H278	H	1.048659	0.957696	-0.029684
	O279	O	0.423355	-0.454795	1.523839
	H280	H	0.435623	-0.449662	1.524124
	H281	H	0.418352	-0.453809	1.509900
	O282	O	-0.008989	0.003501	-0.017383
	H283	H	-0.001299	0.007370	-0.015430
	H284	H	-0.016608	0.003582	-0.018323
	O285	O	0.421966	0.517605	0.507374
	H286	H	0.422121	0.518098	0.511371
	H287	H	0.416053	0.519727	0.495256
	O288	O	-0.012518	0.033557	-0.046835
	H289	H	-0.017257	0.033191	-0.030036
	H290	H	-0.010516	0.034804	-0.049528
	O291	O	0.026322	1.008721	-0.042181
	H292	H	0.017590	1.018845	-0.043161
	H293	H	0.031132	1.014316	-0.042546
	O294	O	0.008300	0.987923	-0.015946
	H295	H	0.009296	0.986307	-0.034305
	H296	H	0.003572	0.989104	-0.019609
	O297	O	0.543132	0.490827	0.488547
	H298	H	0.549974	0.489875	0.498781
	H299	H	0.538918	0.486468	0.491473
	O300	O	0.430647	0.462943	0.533957
	H301	H	0.417179	0.457410	0.523744
	H302	H	0.428718	0.474742	0.534450
	O303	O	0.982800	-0.003383	0.915878
	H304	H	0.986489	-0.000120	0.903755
	H305	H	0.981705	-0.003382	0.913831
	O306	O	0.007676	0.993757	1.065712
	H307	H	-0.002584	0.999087	1.067457
	H308	H	-0.004043	0.994190	1.073202
	O309	O	0.008912	1.050060	1.021493
	H310	H	0.012102	1.047230	1.020385
	H311	H	0.009594	1.051741	1.025392
	O312	O	-0.023800	0.034246	0.921774
	H313	H	-0.013802	0.042659	0.921158
	H314	H	-0.028683	0.032168	0.921414
	O315	O	0.535269	0.511498	0.475622
	H316	H	0.531411	0.517121	0.481082
	H317	H	0.539995	0.498809	0.473542
	O318	O	0.073837	0.010064	0.997393
	H319	H	0.076766	0.013816	1.012689
	H320	H	0.077248	0.013597	0.997155
	O321	O	-0.058580	0.995132	0.969600
	H322	H	-0.057395	0.997000	0.967226
	H323	H	-0.063011	0.991930	0.980975
	O324	O	1.003126	0.033362	0.973989
	H325	H	1.000275	0.022747	0.967024
	H326	H	1.010823	0.032780	0.977361
	O327	O	0.983037	1.031586	1.058879
	H328	H	0.981609	1.033317	1.059736
	H329	H	0.980427	1.032749	1.063994
	O330	O	0.507505	0.488528	0.538681
	H331	H	0.509561	0.486133	0.555660
	H332	H	0.511759	0.481921	0.541725
	O333	O	0.522455	0.487217	0.578516
	H334	H	0.522593	0.479986	0.589821
	H335	H	0.515645	0.486931	0.574682
	O336	O	0.467177	0.455364	0.525814
	H337	H	0.456577	0.457810	0.521772
	H338	H	0.459961	0.450597	0.529230
	O339	O	0.502521	0.526306	0.514014
	H340	H	0.507343	0.532046	0.520441
	H341	H	0.495721	0.519296	0.520948
	O342	O	0.405982	0.422987	0.471051
	H343	H	0.419897	0.426516	0.469102
	H344	H	0.396805	0.429077	0.466709
	O345	O	0.401209	0.421076	0.485958
	H346	H	0.391585	0.421817	0.485337
	H347	H	0.401084	0.427574	0.481357
