data_Molecule from HDF5

_cell_length_a		16.514716
_cell_length_b		16.318810
_cell_length_c		16.458522
_cell_angle_alpha	90.255447
_cell_angle_beta	89.974347
_cell_angle_gamma	90.020757
_symmetry_space_group_name_H-M	'P 1'
_symmetry_Int_Tables_number		1

loop_
	_symmetry_equiv_pos_as_xyz
	x,y,z

loop_
	_atom_site_label
	_atom_site_type_symbol
	_atom_site_fract_x
	_atom_site_fract_y
	_atom_site_fract_z
	H0	H	0.399611	0.836684	0.733536
	H1	H	0.612220	0.153162	0.739534
	H2	H	0.609454	0.836372	0.291212
	H3	H	0.394826	0.153130	0.292405
	H4	H	0.729482	0.384779	0.861834
	H5	H	0.730897	0.609529	0.172998
	H6	H	0.281843	0.597030	0.859425
	H7	H	0.277302	0.384757	0.173744
	H8	H	0.843548	0.714748	0.410935
	H9	H	0.159417	0.712047	0.618041
	H10	H	0.844861	0.268981	0.624326
	H11	H	0.158705	0.270029	0.410671
	H12	H	0.845930	0.383125	0.742559
	H13	H	0.159263	0.596618	0.735675
	H14	H	0.846238	0.602718	0.290777
	H15	H	0.157895	0.382182	0.291037
	H16	H	0.405068	0.707581	0.855421
	H17	H	0.612138	0.722972	0.173294
	H18	H	0.610801	0.271457	0.859600
	H19	H	0.393767	0.269400	0.173394
	H20	H	0.725439	0.836610	0.405219
	H21	H	0.729363	0.151318	0.626222
	H22	H	0.283492	0.836393	0.616996
	H23	H	0.279436	0.153802	0.407970
	H24	H	0.895728	0.334585	0.238320
	H25	H	0.108348	0.651689	0.240453
	H26	H	0.111735	0.335881	0.791728
	H27	H	0.898767	0.653224	0.798275
	H28	H	0.223379	0.886678	0.357266
	H29	H	0.223967	0.100969	0.673384
	H30	H	0.775681	0.104520	0.359355
	H31	H	0.776531	0.885244	0.671297
	H32	H	0.345089	0.215832	0.911685
	H33	H	0.659033	0.219610	0.123749
	H34	H	0.343207	0.777014	0.114775
	H35	H	0.662858	0.774843	0.911433
	H36	H	0.345039	0.886564	0.237086
	H37	H	0.658914	0.104059	0.241057
	H38	H	0.346061	0.101555	0.793596
	H39	H	0.661756	0.889306	0.793031
	H40	H	0.892964	0.218955	0.359682
	H41	H	0.104443	0.213242	0.675440
	H42	H	0.104785	0.772074	0.356651
	H43	H	0.898624	0.776041	0.675433
	H44	H	0.225455	0.335352	0.909460
	H45	H	0.222374	0.653646	0.123584
	H46	H	0.774318	0.338460	0.129948
	H47	H	0.783246	0.653583	0.913377
	H48	H	0.413655	0.111931	0.608566
	H49	H	0.590326	0.880906	0.604276
	H50	H	0.584870	0.105620	0.430815
	H51	H	0.412804	0.880366	0.423309
	H52	H	0.586306	0.413972	0.125539
	H53	H	0.594516	0.585014	0.903830
	H54	H	0.411948	0.584772	0.130861
	H55	H	0.419784	0.407024	0.907117
	H56	H	0.114327	0.577722	0.422882
	H57	H	0.887888	0.578777	0.609518
	H58	H	0.115884	0.407384	0.613231
	H59	H	0.892589	0.413021	0.428654
	H60	H	0.115344	0.398135	0.602753
	H61	H	0.884477	0.586477	0.612197
	H62	H	0.114997	0.586896	0.430184
	H63	H	0.888527	0.405321	0.424516
	H64	H	0.412974	0.584599	0.130863
	H65	H	0.596864	0.580543	0.904727
	H66	H	0.586156	0.407665	0.128427
	H67	H	0.410607	0.400915	0.901928
	H68	H	0.589830	0.106283	0.432465
	H69	H	0.588141	0.883681	0.602587
	H70	H	0.415864	0.109441	0.602427
	H71	H	0.414586	0.882398	0.427648
	H72	H	0.913089	0.608598	0.103319
	H73	H	0.090840	0.380388	0.101611
	H74	H	0.094857	0.607527	0.927715
	H75	H	0.912160	0.378535	0.927154
	H76	H	0.096015	0.898566	0.631654
	H77	H	0.092169	0.082499	0.401681
	H78	H	0.910677	0.075239	0.626147
	H79	H	0.918683	0.908703	0.406218
	H80	H	0.617605	0.084625	0.923496
	H81	H	0.389533	0.084031	0.104687
	H82	H	0.613501	0.908378	0.102004
	H83	H	0.389639	0.901370	0.921425
	H84	H	0.614352	0.910232	0.105155
	H85	H	0.392503	0.081643	0.100649
	H86	H	0.614094	0.085268	0.931289
	H87	H	0.390456	0.902532	0.923424
	H88	H	0.919583	0.077036	0.623888
	H89	H	0.091519	0.078486	0.404122
	H90	H	0.098254	0.906891	0.629201
	H91	H	0.914128	0.898540	0.400715
	H92	H	0.092184	0.608716	0.925392
	H93	H	0.092222	0.380188	0.104695
	H94	H	0.919126	0.606071	0.108634
	H95	H	0.921744	0.382497	0.929939
	H96	H	0.408979	0.111609	0.603586
	H97	H	0.590953	0.882304	0.600848
	H98	H	0.589321	0.107735	0.428291
	H99	H	0.410130	0.880724	0.427528
	H100	H	0.591379	0.411239	0.129175
	H101	H	0.591850	0.581172	0.906230
	H102	H	0.412815	0.585808	0.131263
	H103	H	0.409241	0.412892	0.905172
	H104	H	0.110527	0.577142	0.434042
	H105	H	0.887885	0.585848	0.604562
	H106	H	0.109541	0.410793	0.600633
	H107	H	0.891716	0.404781	0.433867
	H108	H	0.919326	0.603760	0.101003
	H109	H	0.089201	0.380319	0.104225
	H110	H	0.090865	0.606967	0.929137
	H111	H	0.914012	0.382153	0.936833
	H112	H	0.089456	0.903988	0.627943
	H113	H	0.088045	0.081517	0.403453
	H114	H	0.914500	0.083838	0.628225
	H115	H	0.907332	0.908585	0.401452
	H116	H	0.613615	0.078064	0.926887
	H117	H	0.391769	0.078657	0.105922
	H118	H	0.616018	0.906586	0.104778
	H119	H	0.389979	0.903884	0.921249
	C120	C	0.382036	0.004938	0.635502
	C121	C	0.624465	0.986430	0.636696
	C122	C	0.621771	0.002296	0.395599
	C123	C	0.379961	0.986215	0.393265
	C124	C	0.623155	0.375385	0.024965
	C125	C	0.627186	0.617775	1.008363
	C126	C	0.382109	0.615062	0.025358
	C127	C	0.380130	0.372807	1.008500
	C128	C	0.009715	0.613782	0.395329
	C129	C	0.991673	0.615025	0.638978
	C130	C	0.010139	0.371555	0.639101
	C131	C	0.993712	0.372048	0.395024
	C132	C	0.881768	0.502449	0.138747
	C133	C	0.123739	0.484984	0.137833
	C134	C	0.124706	0.502410	0.895056
	C135	C	0.883259	0.485847	0.898375
	C136	C	0.124995	0.870962	0.524243
	C137	C	0.123123	0.114582	0.507427
	C138	C	0.879940	0.114681	0.523729
	C139	C	0.880368	0.872616	0.506981
	C140	C	0.511559	0.116255	0.894467
	C141	C	0.494191	0.116431	0.138062
	C142	C	0.510657	0.874311	0.135743
	C143	C	0.495081	0.871662	0.891380
	C144	C	0.380913	0.884472	0.694066
	C145	C	0.629453	0.105360	0.699142
	C146	C	0.626262	0.883682	0.332614
	C147	C	0.376781	0.105365	0.332335
	C148	C	0.687410	0.368614	0.908372
	C149	C	0.689769	0.625061	0.125994
	C150	C	0.322776	0.615854	0.906275
	C151	C	0.318028	0.367585	0.126447
	C152	C	0.891391	0.674950	0.392128
	C153	C	0.111488	0.673313	0.638395
	C154	C	0.891998	0.309620	0.642199
	C155	C	0.111454	0.309951	0.392186
	C156	C	0.892548	0.366626	0.701179
	C157	C	0.111340	0.615978	0.696949
	C158	C	0.892699	0.619139	0.332281
	C159	C	0.111032	0.366085	0.332703
	C160	C	0.383686	0.670949	0.904232
	C161	C	0.630261	0.681666	0.125965
	C162	C	0.628232	0.312092	0.907261
	C163	C	0.376868	0.310523	0.126507
	C164	C	0.684330	0.883794	0.389382
	C165	C	0.687787	0.104266	0.642362
	C166	C	0.323243	0.884364	0.636292
	C167	C	0.319366	0.105804	0.390360
	C168	C	0.877354	0.382925	0.199393
	C169	C	0.126547	0.604061	0.199957
	C170	C	0.128376	0.383267	0.833315
	C171	C	0.880465	0.605401	0.837952
	C172	C	0.183583	0.868974	0.404714
	C173	C	0.183393	0.118005	0.626369
	C174	C	0.816837	0.120939	0.406446
	C175	C	0.818543	0.869068	0.624919
	C176	C	0.392796	0.176373	0.892760
	C177	C	0.611859	0.179282	0.142295
	C178	C	0.391170	0.815211	0.135419
	C179	C	0.614617	0.813355	0.891635
	C180	C	0.392132	0.870318	0.195894
	C181	C	0.611809	0.121480	0.200331
	C182	C	0.393161	0.119281	0.833922
	C183	C	0.614178	0.870772	0.832687
	C184	C	0.875517	0.177916	0.406543
	C185	C	0.124195	0.174287	0.627171
	C186	C	0.124482	0.811624	0.404543
	C187	C	0.879027	0.814136	0.626770
	C188	C	0.185117	0.382878	0.892092
	C189	C	0.183380	0.605104	0.141639
	C190	C	0.816567	0.385093	0.145629
	C191	C	0.823127	0.605718	0.895620
	C192	C	0.405822	0.088974	0.611544
	C193	C	0.597503	0.903729	0.610014
	C194	C	0.595466	0.084850	0.422692
	C195	C	0.405296	0.902996	0.418542
	C196	C	0.595856	0.403043	0.106428
	C197	C	0.601728	0.590087	0.926306
	C198	C	0.405931	0.591831	0.109036
	C199	C	0.405797	0.399196	0.926374
	C200	C	0.091768	0.587858	0.421301
	C201	C	0.908488	0.590662	0.615512
	C202	C	0.092046	0.397874	0.612969
	C203	C	0.912194	0.399751	0.421398
	C204	C	0.909224	0.584453	0.112017
	C205	C	0.098094	0.401812	0.111096
	C206	C	0.099861	0.586174	0.920423
	C207	C	0.908618	0.402840	0.923999
	C208	C	0.101304	0.896047	0.607824
	C209	C	0.097759	0.088517	0.424734
	C210	C	0.907109	0.086849	0.604929
	C211	C	0.905911	0.898104	0.424367
	C212	C	0.593721	0.090106	0.919876
	C213	C	0.412815	0.089329	0.111342
	C214	C	0.592993	0.900625	0.110943
	C215	C	0.411657	0.895686	0.915230
	Zn216	Zn	0.503426	-0.004207	0.764145
	Zn217	Zn	0.502387	-0.005151	0.266195
	Zn218	Zn	0.754347	0.494296	0.018349
	Zn219	Zn	0.252364	0.494435	0.017318
	Zn220	Zn	0.000880	0.743301	0.515898
	Zn221	Zn	0.001468	0.243414	0.516625
	Zn222	Zn	0.001775	0.492985	0.768041
	Zn223	Zn	0.002133	0.492714	0.266011
	Zn224	Zn	0.503571	0.744408	0.015417
	Zn225	Zn	0.502882	0.245162	0.016552
	Zn226	Zn	0.751517	-0.005922	0.514701
	Zn227	Zn	0.252277	-0.004820	0.514978
	N228	N	0.416649	0.960438	0.693869
	N229	N	0.590782	0.030871	0.695637
	N230	N	0.588096	0.958331	0.336279
	N231	N	0.413593	0.029969	0.333836
	N232	N	0.684153	0.407588	0.982426
	N233	N	0.687631	0.585801	0.051874
	N234	N	0.321514	0.582410	0.982716
	N235	N	0.320043	0.405615	0.052153
	N236	N	0.964965	0.671539	0.430822
	N237	N	0.035969	0.673149	0.603271
	N238	N	0.966159	0.312595	0.604237
	N239	N	0.037439	0.313390	0.430113
	N240	N	0.966958	0.404213	0.699428
	N241	N	0.035847	0.580695	0.697562
	N242	N	0.967440	0.581886	0.333992
	N243	N	0.036667	0.403826	0.334191
	N244	N	0.419882	0.670610	0.979360
	N245	N	0.592128	0.677377	0.051875
	N246	N	0.588837	0.316187	0.980786
	N247	N	0.414725	0.313623	0.052113
	N248	N	0.681702	0.958670	0.427838
	N249	N	0.684788	0.029195	0.604343
	N250	N	0.323801	0.960334	0.600738
	N251	N	0.321029	0.030480	0.427202
	N252	N	0.917008	0.456859	0.195302
	N253	N	0.090384	0.528239	0.197909
	N254	N	0.091094	0.458584	0.835160
	N255	N	0.917002	0.529789	0.839401
	N256	N	0.184093	0.905196	0.480399
	N257	N	0.182968	0.081999	0.550687
	N258	N	0.819527	0.082167	0.480408
	N259	N	0.819224	0.904673	0.549443
	N260	N	0.467385	0.174621	0.929573
	N261	N	0.537693	0.176454	0.104619
	N262	N	0.465997	0.817383	0.098957
	N263	N	0.539282	0.813545	0.927117
	N264	N	0.467426	0.906211	0.196368
	N265	N	0.537573	0.083317	0.197966
	N266	N	0.468118	0.082940	0.834577
	N267	N	0.538599	0.905991	0.832094
	N268	N	0.913956	0.174050	0.480313
	N269	N	0.087576	0.172450	0.552151
	N270	N	0.088953	0.812671	0.479996
	N271	N	0.916818	0.816273	0.552342
	N272	N	0.182895	0.458191	0.929719
	N273	N	0.181818	0.529906	0.103821
	N274	N	0.818989	0.460533	0.108824
	N275	N	0.824454	0.530321	0.932329
	O276	O	-0.167858	0.015299	0.086390
	H277	H	-0.166410	0.009070	0.082842
	H278	H	-0.178727	0.014693	0.075747
	O279	O	1.218949	-0.012523	0.850148
	H280	H	1.237230	-0.017828	0.838762
	H281	H	1.227389	-0.016083	0.862777
	O282	O	0.286022	0.513256	0.300043
	H283	H	0.269349	0.505442	0.316525
	H284	H	0.262023	0.531642	0.288775
	O285	O	0.717826	0.474681	0.299535
	H286	H	0.718037	0.484348	0.269872
	H287	H	0.702325	0.489804	0.276115
	O288	O	1.206354	0.792662	-0.187402
	H289	H	1.213997	0.799830	-0.202524
	H290	H	1.217558	0.776604	-0.183884
	O291	O	-0.064265	0.030994	-0.031579
	H292	H	-0.047912	0.037175	-0.031431
	H293	H	-0.048802	0.025991	-0.051383
	O294	O	0.062236	-0.074318	0.996728
	H295	H	0.059884	-0.079794	0.991354
	H296	H	0.063999	-0.081750	0.997865
	O297	O	0.399284	1.289536	-0.528448
	H298	H	0.420936	1.285849	-0.553258
	H299	H	0.406727	1.287277	-0.529180
	O300	O	0.714173	0.466456	0.682744
	H301	H	0.711354	0.447435	0.654743
	H302	H	0.726312	0.462787	0.716365
	O303	O	0.446240	0.498752	0.454299
	H304	H	0.453317	0.495557	0.458806
	H305	H	0.439656	0.493857	0.426998
	O306	O	0.567210	0.695107	0.449382
	H307	H	0.558300	0.698108	0.422493
	H308	H	0.562636	0.678670	0.448988
	O309	O	0.478413	0.713773	0.293776
	H310	H	0.470263	0.751430	0.258807
	H311	H	0.429021	0.700824	0.309940
	O312	O	-0.099040	1.115979	0.901471
	H313	H	-0.102756	1.080071	0.895340
	H314	H	-0.087733	1.116152	0.924035
	O315	O	0.309088	0.681227	0.703983
	H316	H	0.318418	0.672610	0.686544
	H317	H	0.331388	0.665280	0.689313
	O318	O	0.485164	0.713182	0.641388
	H319	H	0.523079	0.704597	0.620842
	H320	H	0.503950	0.730221	0.680888
	O321	O	0.019969	0.166735	-0.186085
	H322	H	0.010884	0.165005	-0.190711
	H323	H	0.003390	0.172623	-0.194980
	O324	O	0.526812	0.331596	0.552457
	H325	H	0.543905	0.335319	0.557222
	H326	H	0.538128	0.316912	0.569246
	O327	O	0.288409	0.493877	0.483202
	H328	H	0.308688	0.479029	0.490675
	H329	H	0.295627	0.494939	0.502867
	O330	O	0.120830	0.942560	0.154208
	H331	H	0.136012	0.960952	0.173865
	H332	H	0.123377	0.927331	0.149706
	O333	O	0.853992	0.155602	1.081511
	H334	H	0.854749	0.157381	1.076630
	H335	H	0.848685	0.144790	1.068841
	O336	O	-0.032842	-0.173693	0.045239
	H337	H	-0.032059	-0.166932	0.034779
	H338	H	-0.047646	-0.181674	0.072929
	O339	O	0.294795	1.389752	0.723984
	H340	H	0.287641	1.391338	0.711069
	H341	H	0.322267	1.391988	0.718529
	O342	O	0.625684	0.385900	1.485605
	H343	H	0.635062	0.400633	1.496292
	H344	H	0.646775	0.366046	1.484466
	O345	O	0.788657	1.028244	-0.048359
	H346	H	0.795285	1.025648	-0.041809
	H347	H	0.787248	1.021464	-0.063930
	O348	O	0.492637	0.545424	0.589385
	H349	H	0.501122	0.542840	0.592176
	H350	H	0.515924	0.555989	0.594564
	O351	O	0.020909	0.786811	0.836655
	H352	H	0.030960	0.767893	0.828666
	H353	H	0.045396	0.786012	0.849887
	O354	O	-0.428511	0.557978	0.287525
	H355	H	-0.443718	0.600416	0.289334
	H356	H	-0.465953	0.538279	0.287737
	O357	O	-0.087729	-0.022978	1.145417
	H358	H	-0.079647	-0.029771	1.155948
	H359	H	-0.098484	-0.033167	1.139374
	O360	O	0.547053	0.448290	0.694417
	H361	H	0.538987	0.454400	0.693239
	H362	H	0.535435	0.427259	0.695235
	O363	O	0.012448	0.196463	1.211514
	H364	H	0.009670	0.175755	1.197104
	H365	H	0.013037	0.221057	1.235025
	O366	O	0.830331	1.018610	-0.178305
	H367	H	0.864146	0.995809	-0.179576
	H368	H	0.811769	1.019149	-0.193910
	O369	O	0.713994	0.540553	0.466887
	H370	H	0.706775	0.551789	0.451541
	H371	H	0.719251	0.529020	0.449999
	O372	O	0.522114	0.277164	0.297268
	H373	H	0.555418	0.272334	0.286940
	H374	H	0.525289	0.271085	0.273475
	O375	O	0.693677	0.609075	0.710957
	H376	H	0.701582	0.612440	0.691843
	H377	H	0.688852	0.563360	0.716680
	O378	O	0.479919	0.277177	0.734200
	H379	H	0.465743	0.264754	0.728158
	H380	H	0.460165	0.258726	0.748327
	O381	O	1.678028	0.314501	0.341022
	H382	H	1.693979	0.363316	0.331605
	H383	H	1.673627	0.302874	0.365026
	O384	O	0.598919	0.694487	0.722600
	H385	H	0.627299	0.678110	0.728717
	H386	H	0.613736	0.705105	0.730527
	O387	O	0.119455	0.092381	0.891377
	H388	H	0.101524	0.096123	0.882420
	H389	H	0.119701	0.073377	0.888324
	O390	O	-0.687438	-0.695505	-0.346758
	H391	H	-0.693730	-0.700671	-0.383011
	H392	H	-0.700362	-0.665035	-0.349717
	O393	O	1.204729	0.830948	1.021962
	H394	H	1.197312	0.835923	1.000496
	H395	H	1.212596	0.811983	1.015525
	O396	O	1.178969	0.174506	0.196703
	H397	H	1.173466	0.186248	0.162857
	H398	H	1.159891	0.170557	0.187794
	O399	O	0.980700	0.013798	1.164688
	H400	H	0.988448	0.032171	1.174811
	H401	H	0.992042	-0.004863	1.163881
	O402	O	1.059152	1.015386	0.840275
	H403	H	1.055811	1.010856	0.848873
	H404	H	1.068037	1.011564	0.829858
	O405	O	0.937242	1.136816	-0.029891
	H406	H	0.926579	1.153980	-0.021302
	H407	H	0.941806	1.135012	-0.031088
	O408	O	0.859803	0.034624	0.181681
	H409	H	0.877034	0.032355	0.194688
	H410	H	0.845276	0.033480	0.191454
	O411	O	0.321501	1.677967	0.333231
	H412	H	0.300922	1.693248	0.365524
	H413	H	0.311091	1.651749	0.339783
	O414	O	0.426276	0.283911	0.546064
	H415	H	0.426532	0.268062	0.530107
	H416	H	0.442359	0.279947	0.538385
	O417	O	0.466372	0.505476	0.724258
	H418	H	0.463977	0.499357	0.716868
	H419	H	0.470750	0.522021	0.721268
	O420	O	-0.149410	-0.156437	0.106022
	H421	H	-0.151418	-0.130714	0.112981
	H422	H	-0.156789	-0.158895	0.072814
	O423	O	-0.098093	0.938095	-0.188854
	H424	H	-0.071029	0.939017	-0.177567
	H425	H	-0.086880	0.927199	-0.200523
	O426	O	0.819034	-0.110513	-0.013924
	H427	H	0.813645	-0.086056	-0.042915
	H428	H	0.816808	-0.131577	-0.017868
	O429	O	1.081518	0.804487	0.072074
	H430	H	1.090258	0.786259	0.076642
	H431	H	1.078620	0.812705	0.081017
	O432	O	0.450338	0.443702	0.299949
	H433	H	0.420805	0.451370	0.295906
	H434	H	0.445483	0.420077	0.302211
	O435	O	0.299066	0.680095	0.501769
	H436	H	0.318567	0.684284	0.515331
	H437	H	0.292825	0.683540	0.514410
	O438	O	0.320470	0.513792	-0.412630
	H439	H	0.345071	0.509908	-0.421161
	H440	H	0.320307	0.504824	-0.401540
	O441	O	1.067535	-0.188782	0.197189
	H442	H	1.050752	-0.173089	0.192976
	H443	H	1.058789	-0.192483	0.197274
	O444	O	0.220519	1.017237	1.233449
	H445	H	0.236327	1.030361	1.239066
	H446	H	0.230233	1.044133	1.244458
	O447	O	0.721532	0.370991	0.549028
	H448	H	0.732285	0.357112	0.553261
	H449	H	0.718783	0.399795	0.516773
	O450	O	0.207222	1.196060	1.035477
	H451	H	0.197641	1.193630	1.015974
	H452	H	0.225122	1.212281	1.020489
	O453	O	0.708874	0.701170	0.540773
	H454	H	0.708893	0.709545	0.532473
	H455	H	0.712561	0.707992	0.527056
