data_Molecule from HDF5

_cell_length_a		16.261878
_cell_length_b		16.285481
_cell_length_c		16.266864
_cell_angle_alpha	90.122773
_cell_angle_beta	89.869555
_cell_angle_gamma	89.733116
_symmetry_space_group_name_H-M	'P 1'
_symmetry_Int_Tables_number		1

loop_
	_symmetry_equiv_pos_as_xyz
	x,y,z

loop_
	_atom_site_label
	_atom_site_type_symbol
	_atom_site_fract_x
	_atom_site_fract_y
	_atom_site_fract_z
	H0	H	0.402886	0.843950	0.720128
	H1	H	0.597547	0.171208	0.718455
	H2	H	0.602426	0.844602	0.288422
	H3	H	0.401986	0.171339	0.290639
	H4	H	0.717491	0.408668	0.841428
	H5	H	0.715073	0.606907	0.168950
	H6	H	0.286174	0.607447	0.841442
	H7	H	0.288428	0.411608	0.169198
	H8	H	0.838490	0.723130	0.406216
	H9	H	0.166378	0.720647	0.602758
	H10	H	0.837977	0.295525	0.603498
	H11	H	0.166678	0.291357	0.405424
	H12	H	0.838679	0.410821	0.719021
	H13	H	0.165843	0.604957	0.718989
	H14	H	0.837600	0.605781	0.292873
	H15	H	0.166150	0.408085	0.290017
	H16	H	0.401840	0.723015	0.840784
	H17	H	0.599784	0.723907	0.167933
	H18	H	0.601378	0.293704	0.840588
	H19	H	0.403046	0.293642	0.168063
	H20	H	0.717876	0.844509	0.404930
	H21	H	0.714651	0.170765	0.603946
	H22	H	0.289940	0.842764	0.601428
	H23	H	0.285903	0.171019	0.407803
	H24	H	0.904886	0.343585	0.219123
	H25	H	0.098727	0.671884	0.219214
	H26	H	0.102888	0.344110	0.789462
	H27	H	0.902647	0.671388	0.791616
	H28	H	0.217261	0.908295	0.341386
	H29	H	0.214426	0.104752	0.669260
	H30	H	0.786413	0.106803	0.340973
	H31	H	0.787498	0.909971	0.668067
	H32	H	0.337717	0.223376	0.907766
	H33	H	0.666463	0.221412	0.102683
	H34	H	0.337827	0.794337	0.104539
	H35	H	0.664813	0.792071	0.903743
	H36	H	0.338038	0.911672	0.218469
	H37	H	0.665320	0.106007	0.219396
	H38	H	0.337409	0.107269	0.791510
	H39	H	0.664877	0.908715	0.789803
	H40	H	0.904306	0.221679	0.340821
	H41	H	0.100339	0.222300	0.668461
	H42	H	0.101717	0.792387	0.341291
	H43	H	0.903127	0.795219	0.668424
	H44	H	0.217711	0.344514	0.906974
	H45	H	0.213679	0.672124	0.103110
	H46	H	0.786956	0.343602	0.104918
	H47	H	0.787731	0.671452	0.908341
	H48	H	0.394024	0.128136	0.601237
	H49	H	0.593773	0.890294	0.601527
	H50	H	0.586058	0.120075	0.417289
	H51	H	0.412003	0.895243	0.417472
	H52	H	0.597929	0.411287	0.123466
	H53	H	0.597622	0.597908	0.888360
	H54	H	0.411092	0.611059	0.122908
	H55	H	0.403479	0.414777	0.886278
	H56	H	0.118509	0.596566	0.410101
	H57	H	0.887220	0.599116	0.594772
	H58	H	0.121501	0.411744	0.604037
	H59	H	0.883491	0.412996	0.406558
	H60	H	0.118564	0.409626	0.591490
	H61	H	0.884294	0.599751	0.603306
	H62	H	0.120064	0.603187	0.410196
	H63	H	0.886588	0.409942	0.417514
	H64	H	0.398979	0.600827	0.123450
	H65	H	0.590856	0.599369	0.889326
	H66	H	0.595509	0.420278	0.119939
	H67	H	0.411657	0.421340	0.890448
	H68	H	0.602698	0.124587	0.417215
	H69	H	0.591001	0.892620	0.594341
	H70	H	0.418227	0.123695	0.608464
	H71	H	0.402091	0.888309	0.410352
	H72	H	0.901978	0.624988	0.099494
	H73	H	0.099240	0.390325	0.098748
	H74	H	0.096603	0.622913	0.919394
	H75	H	0.901067	0.389853	0.918949
	H76	H	0.091502	0.918738	0.618569
	H77	H	0.103221	0.107193	0.384182
	H78	H	0.910485	0.096530	0.619351
	H79	H	0.904353	0.907978	0.384620
	H80	H	0.618809	0.105691	0.914830
	H81	H	0.383305	0.101973	0.103748
	H82	H	0.619182	0.910432	0.094290
	H83	H	0.381270	0.905320	0.913076
	H84	H	0.616066	0.918460	0.092389
	H85	H	0.384666	0.107287	0.093902
	H86	H	0.616466	0.095113	0.911322
	H87	H	0.389370	0.921049	0.922479
	H88	H	0.910587	0.108011	0.622602
	H89	H	0.097630	0.087821	0.391166
	H90	H	0.092842	0.906224	0.623290
	H91	H	0.906952	0.924412	0.389645
	H92	H	0.098914	0.627010	0.906409
	H93	H	0.092518	0.391165	0.101342
	H94	H	0.910430	0.624865	0.104311
	H95	H	0.909175	0.387835	0.900881
	H96	H	0.411203	0.119580	0.584536
	H97	H	0.599154	0.890133	0.595216
	H98	H	0.593545	0.126955	0.403003
	H99	H	0.413990	0.890369	0.404693
	H100	H	0.588492	0.413117	0.120018
	H101	H	0.595712	0.603666	0.887534
	H102	H	0.413451	0.595887	0.117827
	H103	H	0.413837	0.410494	0.887717
	H104	H	0.117350	0.599723	0.416049
	H105	H	0.883875	0.607278	0.597851
	H106	H	0.117093	0.420974	0.596785
	H107	H	0.888503	0.420967	0.413675
	H108	H	0.909922	0.621969	0.095443
	H109	H	0.094529	0.393016	0.094112
	H110	H	0.086082	0.621754	0.909902
	H111	H	0.919788	0.395450	0.915541
	H112	H	0.103289	0.914777	0.623618
	H113	H	0.083120	0.103670	0.390124
	H114	H	0.901456	0.102158	0.623271
	H115	H	0.920244	0.912723	0.389477
	H116	H	0.620597	0.102617	0.904490
	H117	H	0.387747	0.096825	0.095059
	H118	H	0.618681	0.916153	0.100941
	H119	H	0.384545	0.922679	0.903183
	C120	C	0.379828	0.015669	0.626620
	C121	C	0.622411	0.999085	0.625887
	C122	C	0.623558	0.016142	0.382814
	C123	C	0.380166	0.999131	0.383141
	C124	C	0.623476	0.386297	0.013265
	C125	C	0.622738	0.629157	0.996692
	C126	C	0.379344	0.630802	0.013244
	C127	C	0.381010	0.387182	0.996272
	C128	C	0.010461	0.629078	0.383644
	C129	C	0.993881	0.629694	0.626743
	C130	C	0.010890	0.386129	0.626085
	C131	C	0.994368	0.385330	0.383247
	C132	C	0.879164	0.515676	0.127932
	C133	C	0.123185	0.499745	0.126692
	C134	C	0.123892	0.516127	0.883050
	C135	C	0.880781	0.499427	0.883957
	C136	C	0.124429	0.884992	0.513459
	C137	C	0.122698	0.128088	0.497044
	C138	C	0.879391	0.130115	0.513392
	C139	C	0.881188	0.886871	0.496092
	C140	C	0.510045	0.129890	0.882810
	C141	C	0.493313	0.130012	0.126150
	C142	C	0.510053	0.886690	0.125320
	C143	C	0.493129	0.886712	0.883203
	C144	C	0.382625	0.892762	0.682046
	C145	C	0.618479	0.122359	0.680645
	C146	C	0.622212	0.893396	0.326647
	C147	C	0.381854	0.122582	0.328515
	C148	C	0.679689	0.388100	0.890165
	C149	C	0.677549	0.627354	0.119771
	C150	C	0.324280	0.627913	0.890011
	C151	C	0.326139	0.390455	0.120004
	C152	C	0.887465	0.685040	0.385901
	C153	C	0.117228	0.683435	0.623526
	C154	C	0.887281	0.332339	0.623855
	C155	C	0.117413	0.329443	0.385300
	C156	C	0.887537	0.389667	0.681352
	C157	C	0.116895	0.626373	0.681599
	C158	C	0.886887	0.626727	0.329517
	C159	C	0.117513	0.387380	0.327874
	C160	C	0.381655	0.685367	0.889699
	C161	C	0.619927	0.685255	0.119477
	C162	C	0.622049	0.331031	0.889714
	C163	C	0.382882	0.331856	0.119446
	C164	C	0.679831	0.893277	0.384351
	C165	C	0.676838	0.122025	0.623868
	C166	C	0.326578	0.892021	0.623097
	C167	C	0.324286	0.122375	0.386521
	C168	C	0.882951	0.392445	0.182156
	C169	C	0.119512	0.622833	0.181662
	C170	C	0.122380	0.392952	0.828045
	C171	C	0.882769	0.622544	0.829582
	C172	C	0.179349	0.888096	0.390120
	C173	C	0.177208	0.125673	0.620305
	C174	C	0.824612	0.127000	0.389862
	C175	C	0.825764	0.889743	0.619452
	C176	C	0.386821	0.185614	0.886492
	C177	C	0.617359	0.183835	0.123306
	C178	C	0.386769	0.832314	0.123920
	C179	C	0.615860	0.830110	0.883968
	C180	C	0.386801	0.890431	0.180701
	C181	C	0.616492	0.127143	0.181699
	C182	C	0.386491	0.127715	0.829068
	C183	C	0.615906	0.887993	0.827112
	C184	C	0.882831	0.184356	0.389665
	C185	C	0.120271	0.183604	0.620028
	C186	C	0.122059	0.830336	0.390190
	C187	C	0.883283	0.832732	0.619495
	C188	C	0.179788	0.393110	0.886086
	C189	C	0.176753	0.623139	0.123968
	C190	C	0.824714	0.392645	0.125152
	C191	C	0.825355	0.622538	0.887363
	C192	C	0.401314	0.101629	0.604582
	C193	C	0.601024	0.913066	0.603626
	C194	C	0.600480	0.101703	0.405707
	C195	C	0.402784	0.913479	0.404383
	C196	C	0.600670	0.408322	0.098929
	C197	C	0.601115	0.606863	0.910596
	C198	C	0.401384	0.609130	0.099124
	C199	C	0.403204	0.409030	0.910426
	C200	C	0.096389	0.606400	0.405659
	C201	C	0.907359	0.608395	0.604988
	C202	C	0.096959	0.407636	0.603837
	C203	C	0.908500	0.408100	0.405857
	C204	C	0.900977	0.601747	0.106269
	C205	C	0.101878	0.413645	0.104471
	C206	C	0.100669	0.601782	0.905388
	C207	C	0.903357	0.413274	0.905458
	C208	C	0.102400	0.906820	0.599744
	C209	C	0.101080	0.106109	0.410826
	C210	C	0.901199	0.108506	0.599513
	C211	C	0.903763	0.908681	0.410147
	C212	C	0.596477	0.107481	0.903907
	C213	C	0.407533	0.108508	0.104003
	C214	C	0.595883	0.908401	0.102676
	C215	C	0.407193	0.909646	0.906253
	Zn216	Zn	0.501150	0.007459	0.754685
	Zn217	Zn	0.501954	0.007895	0.254115
	Zn218	Zn	0.751838	0.507484	0.005363
	Zn219	Zn	0.251823	0.508898	0.005251
	Zn220	Zn	0.002214	0.757801	0.505002
	Zn221	Zn	0.002196	0.257413	0.505154
	Zn222	Zn	0.001914	0.507379	0.754529
	Zn223	Zn	0.001951	0.507489	0.255484
	Zn224	Zn	0.501077	0.757940	0.003782
	Zn225	Zn	0.502472	0.258150	0.004348
	Zn226	Zn	0.751712	0.007346	0.505055
	Zn227	Zn	0.251936	0.007274	0.505225
	N228	N	0.415020	0.970609	0.684270
	N229	N	0.585391	0.044746	0.682166
	N230	N	0.587870	0.970673	0.325682
	N231	N	0.415959	0.045108	0.326347
	N232	N	0.680719	0.421694	0.967853
	N233	N	0.679194	0.593058	0.042503
	N234	N	0.322931	0.594548	0.967635
	N235	N	0.324778	0.424231	0.042489
	N236	N	0.965197	0.686627	0.418776
	N237	N	0.039561	0.685649	0.590279
	N238	N	0.965024	0.329837	0.590479
	N239	N	0.039798	0.328163	0.418909
	N240	N	0.965297	0.422544	0.682811
	N241	N	0.039076	0.593692	0.683689
	N242	N	0.964487	0.592348	0.327966
	N243	N	0.039984	0.421492	0.326553
	N244	N	0.414979	0.687418	0.967379
	N245	N	0.586576	0.686486	0.041799
	N246	N	0.587878	0.329534	0.967212
	N247	N	0.416194	0.329628	0.041663
	N248	N	0.681044	0.970700	0.418287
	N249	N	0.679129	0.044480	0.590338
	N250	N	0.324696	0.969412	0.589399
	N251	N	0.323145	0.044887	0.419876
	N252	N	0.916028	0.469982	0.184090
	N253	N	0.086959	0.544896	0.183440
	N254	N	0.088512	0.470413	0.825853
	N255	N	0.916476	0.544973	0.827164
	N256	N	0.180951	0.921330	0.467916
	N257	N	0.178911	0.092022	0.542708
	N258	N	0.822360	0.094078	0.467773
	N259	N	0.824253	0.922716	0.541790
	N260	N	0.464774	0.186737	0.919224
	N261	N	0.539792	0.186070	0.089758
	N262	N	0.464296	0.829950	0.089955
	N263	N	0.538473	0.829349	0.918182
	N264	N	0.464479	0.923432	0.181730
	N265	N	0.538680	0.094459	0.183624
	N266	N	0.464184	0.093869	0.826561
	N267	N	0.538512	0.922432	0.826575
	N268	N	0.915870	0.186594	0.467360
	N269	N	0.087046	0.185105	0.542324
	N270	N	0.088656	0.828414	0.467858
	N271	N	0.917157	0.830873	0.541900
	N272	N	0.180722	0.470649	0.919564
	N273	N	0.179263	0.545550	0.090665
	N274	N	0.822214	0.470384	0.092285
	N275	N	0.824043	0.544913	0.920453
	O276	O	0.477384	0.495446	0.492732
	H277	H	0.477997	0.499177	0.490623
	H278	H	0.488754	0.492969	0.489864
	O279	O	0.086504	0.003732	-0.020838
	H280	H	0.090296	-0.000880	-0.028550
	H281	H	0.070182	0.005205	-0.024602
	O282	O	0.587021	0.424768	0.484047
	H283	H	0.596750	0.416233	0.484037
	H284	H	0.590224	0.431243	0.480981
	O285	O	0.556271	0.495260	0.452225
	H286	H	0.553861	0.497853	0.446095
	H287	H	0.542494	0.500795	0.452574
	O288	O	1.036224	-0.026240	-0.009842
	H289	H	1.042429	-0.029404	-0.008724
	H290	H	1.033617	-0.026847	-0.012117
	O291	O	-0.424610	0.442897	-0.509134
	H292	H	-0.435634	0.450585	-0.507415
	H293	H	-0.416518	0.441353	-0.504035
	O294	O	0.521015	0.476713	0.458556
	H295	H	0.522770	0.477609	0.463040
	H296	H	0.515686	0.471866	0.452801
	O297	O	0.044961	0.981872	-0.016224
	H298	H	0.059688	0.978429	-0.022829
	H299	H	0.040505	0.978915	-0.010575
	O300	O	1.069890	-0.013025	0.996064
	H301	H	1.070807	-0.003635	0.992393
	H302	H	1.080914	-0.016556	0.992148
	O303	O	0.550628	0.499534	0.461140
	H304	H	0.566584	0.491863	0.457966
	H305	H	0.558607	0.481969	0.452192
	O306	O	-0.005812	1.017535	0.980900
	H307	H	-0.012023	1.019479	0.988054
	H308	H	-0.003365	1.018433	0.986316
	O309	O	0.584171	0.391035	0.453496
	H310	H	0.579648	0.387005	0.456215
	H311	H	0.574590	0.393376	0.450350
