data_Molecule from HDF5

_cell_length_a		16.213099
_cell_length_b		16.336309
_cell_length_c		16.129658
_cell_angle_alpha	89.516724
_cell_angle_beta	90.398331
_cell_angle_gamma	90.315992
_symmetry_space_group_name_H-M	'P 1'
_symmetry_Int_Tables_number		1

loop_
	_symmetry_equiv_pos_as_xyz
	x,y,z

loop_
	_atom_site_label
	_atom_site_type_symbol
	_atom_site_fract_x
	_atom_site_fract_y
	_atom_site_fract_z
	H0	H	0.405114	0.842297	0.719992
	H1	H	0.605412	0.169075	0.715897
	H2	H	0.600597	0.841431	0.290595
	H3	H	0.405294	0.167221	0.285638
	H4	H	0.716729	0.408818	0.837534
	H5	H	0.721234	0.602234	0.167553
	H6	H	0.289776	0.605050	0.838923
	H7	H	0.293485	0.405302	0.168805
	H8	H	0.840717	0.721447	0.398513
	H9	H	0.168445	0.721514	0.603085
	H10	H	0.841652	0.286013	0.604436
	H11	H	0.168078	0.290783	0.403265
	H12	H	0.840961	0.404181	0.717320
	H13	H	0.169517	0.602096	0.717161
	H14	H	0.840027	0.602444	0.286861
	H15	H	0.169378	0.411154	0.292356
	H16	H	0.403625	0.722063	0.839154
	H17	H	0.607824	0.718751	0.167940
	H18	H	0.604392	0.291840	0.838847
	H19	H	0.404301	0.286217	0.166417
	H20	H	0.716852	0.840962	0.406938
	H21	H	0.723663	0.166486	0.604446
	H22	H	0.289008	0.841646	0.602768
	H23	H	0.289646	0.167452	0.400706
	H24	H	0.906893	0.341404	0.217031
	H25	H	0.104470	0.668713	0.216587
	H26	H	0.101381	0.340894	0.791482
	H27	H	0.907238	0.667422	0.786516
	H28	H	0.215250	0.908399	0.336728
	H29	H	0.220441	0.102217	0.667137
	H30	H	0.787898	0.104097	0.338560
	H31	H	0.792399	0.903946	0.668783
	H32	H	0.341051	0.221865	0.899510
	H33	H	0.667750	0.221647	0.104951
	H34	H	0.342460	0.785361	0.104688
	H35	H	0.669091	0.792246	0.904617
	H36	H	0.339004	0.905533	0.215075
	H37	H	0.668428	0.101846	0.217669
	H38	H	0.340448	0.103393	0.786653
	H39	H	0.669593	0.909711	0.791437
	H40	H	0.902449	0.222093	0.338553
	H41	H	0.105964	0.218127	0.667838
	H42	H	0.101015	0.793582	0.337499
	H43	H	0.903755	0.786339	0.666273
	H44	H	0.218479	0.342107	0.906887
	H45	H	0.223070	0.667399	0.103498
	H46	H	0.788712	0.342380	0.103665
	H47	H	0.789859	0.667832	0.900206
	H48	H	0.410835	0.121185	0.593849
	H49	H	0.598683	0.890038	0.594699
	H50	H	0.601920	0.121232	0.413703
	H51	H	0.397271	0.885816	0.415524
	H52	H	0.602871	0.418295	0.119781
	H53	H	0.599244	0.596468	0.885346
	H54	H	0.420192	0.600757	0.120323
	H55	H	0.417878	0.413006	0.887396
	H56	H	0.125811	0.606851	0.403269
	H57	H	0.883272	0.612059	0.592823
	H58	H	0.124684	0.411369	0.606181
	H59	H	0.886592	0.405810	0.413168
	H60	H	0.123787	0.403138	0.592795
	H61	H	0.894835	0.590194	0.577786
	H62	H	0.119593	0.605410	0.419676
	H63	H	0.889255	0.416141	0.415390
	H64	H	0.409464	0.598544	0.123172
	H65	H	0.591903	0.599241	0.886401
	H66	H	0.589121	0.413751	0.117238
	H67	H	0.407309	0.408355	0.882657
	H68	H	0.597858	0.122336	0.404719
	H69	H	0.599854	0.886437	0.601310
	H70	H	0.414000	0.121457	0.595370
	H71	H	0.411324	0.885375	0.398107
	H72	H	0.904298	0.623060	0.090482
	H73	H	0.100458	0.390736	0.089783
	H74	H	0.100869	0.622578	0.911320
	H75	H	0.912589	0.386309	0.903940
	H76	H	0.106707	0.911480	0.623291
	H77	H	0.094381	0.093885	0.386792
	H78	H	0.918992	0.096890	0.618838
	H79	H	0.914500	0.905747	0.384504
	H80	H	0.624751	0.107650	0.907091
	H81	H	0.388487	0.096910	0.088920
	H82	H	0.619459	0.918358	0.095422
	H83	H	0.389995	0.918615	0.912033
	H84	H	0.623904	0.910902	0.104707
	H85	H	0.387129	0.094327	0.095379
	H86	H	0.618694	0.100706	0.920287
	H87	H	0.385445	0.909859	0.906570
	H88	H	0.911083	0.099300	0.622490
	H89	H	0.091781	0.104126	0.385203
	H90	H	0.092940	0.919352	0.616271
	H91	H	0.900938	0.912938	0.382679
	H92	H	0.096618	0.621719	0.907703
	H93	H	0.106301	0.384167	0.104403
	H94	H	0.914483	0.623662	0.103533
	H95	H	0.914999	0.391435	0.916742
	H96	H	0.412973	0.120390	0.591766
	H97	H	0.592555	0.889264	0.599919
	H98	H	0.592008	0.118279	0.411607
	H99	H	0.419048	0.892871	0.418182
	H100	H	0.597680	0.405141	0.123643
	H101	H	0.597667	0.604342	0.883805
	H102	H	0.416332	0.590523	0.118791
	H103	H	0.407258	0.420120	0.885823
	H104	H	0.119262	0.591954	0.408831
	H105	H	0.886969	0.586538	0.605792
	H106	H	0.118652	0.418003	0.593038
	H107	H	0.885740	0.413052	0.404840
	H108	H	0.919940	0.617355	0.089138
	H109	H	0.090069	0.390132	0.102700
	H110	H	0.096422	0.619212	0.913068
	H111	H	0.901918	0.387383	0.913788
	H112	H	0.091966	0.903318	0.621784
	H113	H	0.102649	0.101125	0.382243
	H114	H	0.912096	0.091179	0.618985
	H115	H	0.913913	0.920138	0.388262
	H116	H	0.620883	0.091790	0.906285
	H117	H	0.385587	0.100146	0.093954
	H118	H	0.622410	0.906072	0.093498
	H119	H	0.388973	0.908700	0.917204
	C120	C	0.383541	0.013302	0.623838
	C121	C	0.627155	0.996380	0.626300
	C122	C	0.625024	0.012690	0.382348
	C123	C	0.380901	0.995723	0.380189
	C124	C	0.625259	0.384598	0.011309
	C125	C	0.627053	0.627443	0.994010
	C126	C	0.384666	0.626630	0.012296
	C127	C	0.383078	0.383662	0.994352
	C128	C	0.013088	0.628412	0.380392
	C129	C	0.996408	0.625933	0.623079
	C130	C	0.013743	0.381677	0.625871
	C131	C	0.995968	0.384243	0.382672
	C132	C	0.883269	0.513526	0.124300
	C133	C	0.127918	0.496443	0.126640
	C134	C	0.126129	0.513452	0.882682
	C135	C	0.881683	0.496063	0.880389
	C136	C	0.124892	0.884277	0.510963
	C137	C	0.126473	0.127201	0.493750
	C138	C	0.883740	0.125654	0.511459
	C139	C	0.882037	0.882958	0.494395
	C140	C	0.513729	0.128428	0.880682
	C141	C	0.495365	0.125995	0.123276
	C142	C	0.513380	0.881990	0.125966
	C143	C	0.496592	0.884919	0.882915
	C144	C	0.385162	0.890749	0.681228
	C145	C	0.625804	0.119656	0.679777
	C146	C	0.621671	0.890102	0.328018
	C147	C	0.384291	0.118456	0.323603
	C148	C	0.679609	0.388344	0.887200
	C149	C	0.683465	0.623543	0.118185
	C150	C	0.327791	0.625244	0.888224
	C151	C	0.330104	0.385113	0.118977
	C152	C	0.889557	0.682967	0.380170
	C153	C	0.119708	0.682472	0.622599
	C154	C	0.890645	0.324496	0.624227
	C155	C	0.119274	0.329158	0.384149
	C156	C	0.890146	0.383363	0.680340
	C157	C	0.120138	0.623309	0.679347
	C158	C	0.889201	0.623872	0.324465
	C159	C	0.120082	0.388988	0.329145
	C160	C	0.384575	0.683287	0.888189
	C161	C	0.626982	0.681317	0.118401
	C162	C	0.623719	0.329900	0.887665
	C163	C	0.384945	0.325703	0.117627
	C164	C	0.679353	0.889834	0.385850
	C165	C	0.684515	0.118431	0.624090
	C166	C	0.327730	0.890329	0.622570
	C167	C	0.326764	0.118567	0.380688
	C168	C	0.885855	0.390447	0.179941
	C169	C	0.125614	0.619652	0.179936
	C170	C	0.122158	0.390057	0.828556
	C171	C	0.885385	0.618659	0.823910
	C172	C	0.178604	0.887604	0.386553
	C173	C	0.182849	0.123373	0.617798
	C174	C	0.826766	0.124436	0.387472
	C175	C	0.828575	0.883823	0.618824
	C176	C	0.389885	0.183430	0.880524
	C177	C	0.619001	0.182525	0.123706
	C178	C	0.390698	0.824588	0.124470
	C179	C	0.620124	0.830018	0.884698
	C180	C	0.389132	0.884523	0.179251
	C181	C	0.619336	0.123110	0.179767
	C182	C	0.389586	0.124841	0.824239
	C183	C	0.620271	0.888539	0.828430
	C184	C	0.883806	0.182602	0.387457
	C185	C	0.125692	0.180895	0.618172
	C186	C	0.121689	0.830490	0.386728
	C187	C	0.884201	0.825276	0.617502
	C188	C	0.180327	0.390482	0.885992
	C189	C	0.184418	0.618909	0.123766
	C190	C	0.827076	0.391019	0.123281
	C191	C	0.827278	0.618764	0.880695
	C192	C	0.406112	0.098799	0.600446
	C193	C	0.603873	0.910773	0.604931
	C194	C	0.603580	0.098491	0.403684
	C195	C	0.402693	0.910108	0.403662
	C196	C	0.602910	0.405976	0.098003
	C197	C	0.603181	0.606488	0.907454
	C198	C	0.408450	0.603323	0.098442
	C199	C	0.404454	0.406976	0.907703
	C200	C	0.099307	0.607459	0.403684
	C201	C	0.910573	0.603208	0.599173
	C202	C	0.100146	0.404245	0.603769
	C203	C	0.909566	0.405514	0.404515
	C204	C	0.906053	0.599287	0.101194
	C205	C	0.105545	0.410698	0.105343
	C206	C	0.104347	0.598986	0.904264
	C207	C	0.903560	0.410601	0.904393
	C208	C	0.103477	0.905340	0.597991
	C209	C	0.103158	0.105922	0.407098
	C210	C	0.907199	0.102690	0.597676
	C211	C	0.903488	0.906312	0.407499
	C212	C	0.599214	0.106673	0.904468
	C213	C	0.409318	0.103666	0.099625
	C214	C	0.599828	0.904840	0.104213
	C215	C	0.410483	0.906109	0.905259
	Zn216	Zn	0.505159	0.006010	0.753446
	Zn217	Zn	0.503316	0.004583	0.252949
	Zn218	Zn	0.753900	0.505291	0.002487
	Zn219	Zn	0.256076	0.505085	0.003964
	Zn220	Zn	0.003825	0.756146	0.501811
	Zn221	Zn	0.004915	0.254582	0.503128
	Zn222	Zn	0.004208	0.504432	0.753102
	Zn223	Zn	0.004628	0.505459	0.253709
	Zn224	Zn	0.505726	0.755100	0.003316
	Zn225	Zn	0.504188	0.256223	0.002128
	Zn226	Zn	0.754262	0.004123	0.504258
	Zn227	Zn	0.253731	0.004858	0.501873
	N228	N	0.419158	0.968170	0.682042
	N229	N	0.590836	0.042697	0.681283
	N230	N	0.588629	0.967491	0.325811
	N231	N	0.417178	0.041072	0.323227
	N232	N	0.680546	0.421502	0.965224
	N233	N	0.683789	0.590854	0.039924
	N234	N	0.327705	0.590714	0.966406
	N235	N	0.328720	0.420426	0.041258
	N236	N	0.967417	0.685683	0.414406
	N237	N	0.041845	0.684192	0.588297
	N238	N	0.968591	0.323645	0.590812
	N239	N	0.041175	0.326330	0.416821
	N240	N	0.967560	0.418286	0.681383
	N241	N	0.042640	0.588594	0.679522
	N242	N	0.967070	0.590785	0.324385
	N243	N	0.042436	0.422647	0.328226
	N244	N	0.419121	0.684374	0.966306
	N245	N	0.592461	0.683884	0.040143
	N246	N	0.590356	0.327475	0.965917
	N247	N	0.417203	0.324797	0.039021
	N248	N	0.681698	0.967270	0.418851
	N249	N	0.685501	0.040840	0.591601
	N250	N	0.326498	0.967556	0.587856
	N251	N	0.324627	0.041175	0.415150
	N252	N	0.920028	0.467746	0.180770
	N253	N	0.091177	0.542575	0.181959
	N254	N	0.089214	0.467575	0.826315
	N255	N	0.918400	0.541385	0.823526
	N256	N	0.180543	0.920481	0.464852
	N257	N	0.183331	0.090553	0.539461
	N258	N	0.826638	0.089541	0.465417
	N259	N	0.827081	0.919063	0.541188
	N260	N	0.467989	0.185964	0.914611
	N261	N	0.540867	0.184661	0.089358
	N262	N	0.469003	0.822828	0.092189
	N263	N	0.542090	0.827666	0.918094
	N264	N	0.466536	0.919513	0.180369
	N265	N	0.541738	0.088833	0.179565
	N266	N	0.467168	0.091370	0.823903
	N267	N	0.542551	0.921843	0.827177
	N268	N	0.918513	0.183360	0.465446
	N269	N	0.091386	0.183311	0.540062
	N270	N	0.089256	0.828059	0.465296
	N271	N	0.916589	0.824681	0.538931
	N272	N	0.183045	0.467990	0.918723
	N273	N	0.186020	0.541202	0.091264
	N274	N	0.825488	0.468554	0.089443
	N275	N	0.824757	0.541310	0.915028
	O276	O	-0.008029	-0.029244	0.003097
	H277	H	-0.005280	-0.019235	-0.003804
	H278	H	-0.006762	-0.035526	0.004360
	O279	O	0.512100	0.514403	0.596391
	H280	H	0.510323	0.514938	0.613829
	H281	H	0.511011	0.500668	0.590334
	O282	O	0.461257	0.411534	0.578594
	H283	H	0.471253	0.410061	0.562633
	H284	H	0.464524	0.412047	0.577400
	O285	O	1.035002	-0.039181	0.977655
	H286	H	1.039476	-0.040428	0.978982
	H287	H	1.043468	-0.045681	0.974856
	O288	O	1.004508	0.086029	0.042280
	H289	H	1.004499	0.091969	0.047900
	H290	H	0.994174	0.077222	0.039887
	O291	O	0.445315	0.431187	0.501109
	H292	H	0.441531	0.422306	0.509805
	H293	H	0.448841	0.437450	0.509152
	O294	O	1.551015	0.466310	0.518453
	H295	H	1.553567	0.463673	0.524469
	H296	H	1.546979	0.472950	0.518481
	O297	O	-0.469485	-0.454529	-0.536946
	H298	H	-0.480895	-0.458304	-0.544556
	H299	H	-0.469056	-0.446835	-0.527491
	O300	O	0.581978	0.556778	0.567582
	H301	H	0.575756	0.550761	0.565503
	H302	H	0.567660	0.555554	0.565563
	O303	O	0.512512	0.497538	0.530582
	H304	H	0.516029	0.506920	0.526943
	H305	H	0.516707	0.499108	0.530583
	O306	O	1.013415	-0.029343	-0.060501
	H307	H	1.009786	-0.031495	-0.052566
	H308	H	1.022250	-0.026355	-0.055252
	O309	O	0.030984	0.018981	1.016345
	H310	H	0.031328	0.022322	1.016081
	H311	H	0.035934	0.023305	1.023179
	O312	O	0.990636	0.995904	0.943680
	H313	H	0.988605	0.994312	0.939600
	H314	H	0.984302	0.996464	0.948114
	O315	O	0.466853	0.424079	0.527424
	H316	H	0.468398	0.424954	0.517885
	H317	H	0.472846	0.425146	0.530384
	O318	O	0.449095	0.552446	0.486197
	H319	H	0.452549	0.557507	0.476045
	H320	H	0.438286	0.557787	0.477845
	O321	O	0.018710	0.942165	1.063609
	H322	H	0.007828	0.936772	1.066080
	H323	H	0.021107	0.936573	1.068547
	O324	O	0.536452	0.435729	0.446162
	H325	H	0.526872	0.439381	0.437960
	H326	H	0.522255	0.431482	0.435375
	O327	O	0.482223	0.575694	0.473718
	H328	H	0.487225	0.561695	0.478626
	H329	H	0.485964	0.583684	0.469519
	O330	O	0.413865	0.613262	0.431393
	H331	H	0.420396	0.618750	0.419746
	H332	H	0.403630	0.610927	0.443833
	O333	O	0.532755	0.558423	0.452286
	H334	H	0.536561	0.563657	0.450781
	H335	H	0.535032	0.563303	0.440135
	O336	O	0.484786	0.451166	0.441634
	H337	H	0.475332	0.462920	0.443004
	H338	H	0.488143	0.453993	0.445564
	O339	O	1.008821	0.916314	0.054172
	H340	H	0.994946	0.905858	0.058419
	H341	H	0.999226	0.919903	0.053454
	O342	O	0.458583	0.535557	0.574029
	H343	H	0.463742	0.531857	0.579498
	H344	H	0.455493	0.527081	0.587137
	O345	O	0.438615	0.394105	0.400673
	H346	H	0.438123	0.390885	0.406188
	H347	H	0.438264	0.395275	0.412425
	O348	O	0.011247	0.073272	-0.123768
	H349	H	0.012003	0.070334	-0.135920
	H350	H	0.015165	0.079969	-0.131026
	O351	O	0.028661	1.012148	0.990185
	H352	H	0.034849	1.015408	0.993904
	H353	H	0.029116	1.043528	0.978153
	O354	O	0.652429	0.574047	0.590270
	H355	H	0.655585	0.586837	0.583352
	H356	H	0.662191	0.564749	0.598241
	O357	O	0.017335	1.069502	1.004639
	H358	H	0.022345	1.056490	0.999929
	H359	H	0.017614	1.066819	1.010226
