data_Molecule from HDF5

_cell_length_a		16.288559
_cell_length_b		16.329449
_cell_length_c		16.210771
_cell_angle_alpha	90.015461
_cell_angle_beta	89.935784
_cell_angle_gamma	90.112159
_symmetry_space_group_name_H-M	'P 1'
_symmetry_Int_Tables_number		1

loop_
	_symmetry_equiv_pos_as_xyz
	x,y,z

loop_
	_atom_site_label
	_atom_site_type_symbol
	_atom_site_fract_x
	_atom_site_fract_y
	_atom_site_fract_z
	H0	H	0.400715	0.839197	0.715129
	H1	H	0.596691	0.167257	0.715978
	H2	H	0.595593	0.839602	0.287741
	H3	H	0.401801	0.166517	0.287257
	H4	H	0.712627	0.403901	0.837695
	H5	H	0.711773	0.600256	0.166422
	H6	H	0.285871	0.600170	0.837218
	H7	H	0.283783	0.404252	0.165631
	H8	H	0.835109	0.717565	0.401944
	H9	H	0.161717	0.718949	0.600924
	H10	H	0.834997	0.288039	0.601283
	H11	H	0.161471	0.288433	0.402000
	H12	H	0.834513	0.405508	0.715840
	H13	H	0.162487	0.601029	0.714828
	H14	H	0.835125	0.600636	0.287094
	H15	H	0.162539	0.406835	0.287879
	H16	H	0.400190	0.715956	0.837627
	H17	H	0.597190	0.717314	0.165721
	H18	H	0.595826	0.289707	0.836656
	H19	H	0.399275	0.287652	0.165650
	H20	H	0.713677	0.840276	0.401557
	H21	H	0.714583	0.166831	0.599983
	H22	H	0.282425	0.840504	0.601175
	H23	H	0.284209	0.166269	0.403235
	H24	H	0.900386	0.339654	0.216113
	H25	H	0.096551	0.666651	0.214741
	H26	H	0.096685	0.339414	0.786762
	H27	H	0.901561	0.666928	0.787548
	H28	H	0.212129	0.905902	0.337423
	H29	H	0.211533	0.101278	0.665761
	H30	H	0.785907	0.100662	0.336395
	H31	H	0.783088	0.904248	0.664973
	H32	H	0.334846	0.217709	0.902422
	H33	H	0.661520	0.219211	0.101024
	H34	H	0.334886	0.787449	0.100151
	H35	H	0.661796	0.787837	0.902110
	H36	H	0.334409	0.904556	0.215686
	H37	H	0.663380	0.100034	0.214139
	H38	H	0.334165	0.098787	0.789170
	H39	H	0.662267	0.905186	0.787120
	H40	H	0.899180	0.218134	0.337159
	H41	H	0.097561	0.218420	0.665075
	H42	H	0.097325	0.789763	0.337196
	H43	H	0.898700	0.788089	0.665438
	H44	H	0.213977	0.339983	0.901953
	H45	H	0.213851	0.665522	0.099412
	H46	H	0.783510	0.339219	0.100317
	H47	H	0.783668	0.666372	0.903034
	H48	H	0.401292	0.121164	0.596424
	H49	H	0.588734	0.890238	0.589854
	H50	H	0.608509	0.122610	0.411251
	H51	H	0.403910	0.888799	0.415561
	H52	H	0.590724	0.411850	0.118323
	H53	H	0.596475	0.594957	0.883199
	H54	H	0.397654	0.593259	0.120541
	H55	H	0.412883	0.403922	0.885363
	H56	H	0.115167	0.602328	0.415474
	H57	H	0.879166	0.599335	0.601665
	H58	H	0.111813	0.422086	0.594874
	H59	H	0.884066	0.416743	0.409147
	H60	H	0.119047	0.403648	0.603026
	H61	H	0.882547	0.601331	0.585893
	H62	H	0.112531	0.589472	0.409174
	H63	H	0.879548	0.406944	0.402314
	H64	H	0.411292	0.589659	0.115517
	H65	H	0.588947	0.592056	0.886636
	H66	H	0.589448	0.409269	0.118575
	H67	H	0.398800	0.406313	0.881427
	H68	H	0.588145	0.123098	0.393164
	H69	H	0.595696	0.886847	0.593063
	H70	H	0.408312	0.118958	0.597178
	H71	H	0.398533	0.883193	0.404833
	H72	H	0.908651	0.618441	0.097431
	H73	H	0.086149	0.387631	0.096986
	H74	H	0.092799	0.618399	0.909888
	H75	H	0.909388	0.387827	0.905887
	H76	H	0.095773	0.911488	0.619967
	H77	H	0.093508	0.095908	0.383895
	H78	H	0.916085	0.095665	0.615001
	H79	H	0.912482	0.908561	0.385608
	H80	H	0.616507	0.097407	0.903789
	H81	H	0.384090	0.092181	0.092039
	H82	H	0.613618	0.911246	0.091585
	H83	H	0.385226	0.915580	0.913375
	H84	H	0.615570	0.910363	0.097425
	H85	H	0.382260	0.095190	0.097481
	H86	H	0.614685	0.100806	0.912328
	H87	H	0.379033	0.909551	0.899310
	H88	H	0.903245	0.104540	0.621834
	H89	H	0.090913	0.095181	0.384699
	H90	H	0.087594	0.914116	0.616096
	H91	H	0.902663	0.904688	0.381486
	H92	H	0.094297	0.620263	0.907250
	H93	H	0.091071	0.388177	0.088031
	H94	H	0.904146	0.618032	0.089928
	H95	H	0.903948	0.388234	0.913066
	H96	H	0.404537	0.118056	0.590942
	H97	H	0.588735	0.887220	0.597542
	H98	H	0.583361	0.113908	0.418501
	H99	H	0.411280	0.888391	0.404792
	H100	H	0.592138	0.409445	0.118510
	H101	H	0.589663	0.600040	0.883585
	H102	H	0.408228	0.603248	0.120514
	H103	H	0.406982	0.417204	0.887133
	H104	H	0.118136	0.599854	0.401176
	H105	H	0.884965	0.587041	0.593100
	H106	H	0.113254	0.404496	0.582392
	H107	H	0.882076	0.405305	0.414299
	H108	H	0.900450	0.620978	0.097551
	H109	H	0.095860	0.384914	0.096470
	H110	H	0.091930	0.618784	0.906909
	H111	H	0.900956	0.384690	0.905481
	H112	H	0.088203	0.905037	0.620402
	H113	H	0.091459	0.098026	0.383444
	H114	H	0.900465	0.088090	0.618081
	H115	H	0.903463	0.915383	0.385465
	H116	H	0.613086	0.091766	0.910554
	H117	H	0.382096	0.098216	0.091849
	H118	H	0.615648	0.905456	0.092961
	H119	H	0.380749	0.900494	0.912990
	C120	C	0.376505	0.011593	0.623434
	C121	C	0.620195	0.995613	0.622614
	C122	C	0.620844	0.011671	0.379197
	C123	C	0.376825	0.994909	0.380090
	C124	C	0.619581	0.381497	0.009879
	C125	C	0.619812	0.623694	0.993327
	C126	C	0.377557	0.623580	0.010205
	C127	C	0.377043	0.380908	0.993079
	C128	C	0.007189	0.624942	0.379886
	C129	C	0.990471	0.624717	0.622226
	C130	C	0.006500	0.381573	0.622397
	C131	C	0.990021	0.381736	0.379972
	C132	C	0.876041	0.511176	0.123511
	C133	C	0.120035	0.494516	0.122365
	C134	C	0.121004	0.511244	0.879272
	C135	C	0.876764	0.494835	0.879563
	C136	C	0.119248	0.882092	0.510253
	C137	C	0.120194	0.124827	0.492698
	C138	C	0.877826	0.124402	0.509453
	C139	C	0.876967	0.881130	0.492770
	C140	C	0.506628	0.124735	0.880223
	C141	C	0.490565	0.124305	0.122846
	C142	C	0.506813	0.880814	0.122970
	C143	C	0.490049	0.880715	0.879664
	C144	C	0.379372	0.888321	0.678125
	C145	C	0.617978	0.118497	0.678192
	C146	C	0.617117	0.888558	0.324771
	C147	C	0.380290	0.117852	0.325153
	C148	C	0.674442	0.384003	0.886341
	C149	C	0.674398	0.620949	0.117131
	C150	C	0.322857	0.621189	0.886499
	C151	C	0.321766	0.383733	0.116835
	C152	C	0.884293	0.680117	0.381491
	C153	C	0.113049	0.680821	0.620789
	C154	C	0.883783	0.326320	0.620974
	C155	C	0.112898	0.326822	0.382024
	C156	C	0.883583	0.384549	0.678166
	C157	C	0.113598	0.622201	0.677364
	C158	C	0.884051	0.621816	0.324507
	C159	C	0.113459	0.385243	0.325064
	C160	C	0.380099	0.678288	0.886600
	C161	C	0.617325	0.678902	0.116973
	C162	C	0.616830	0.326905	0.886116
	C163	C	0.379065	0.325801	0.116770
	C164	C	0.675338	0.888815	0.381992
	C165	C	0.676514	0.118127	0.620780
	C166	C	0.320816	0.888917	0.621406
	C167	C	0.322154	0.117655	0.382843
	C168	C	0.879231	0.388218	0.178398
	C169	C	0.117268	0.617683	0.177084
	C170	C	0.117681	0.388300	0.824305
	C171	C	0.880140	0.618196	0.825060
	C172	C	0.174362	0.885134	0.386284
	C173	C	0.174268	0.122047	0.616700
	C174	C	0.823151	0.121393	0.385524
	C175	C	0.821479	0.884002	0.616182
	C176	C	0.383655	0.179656	0.882093
	C177	C	0.613235	0.180465	0.120954
	C178	C	0.383604	0.825454	0.120817
	C179	C	0.612941	0.825703	0.881636
	C180	C	0.383568	0.883655	0.178188
	C181	C	0.614120	0.121355	0.177070
	C182	C	0.383175	0.120376	0.826126
	C183	C	0.613218	0.884188	0.824700
	C184	C	0.879431	0.179969	0.385980
	C185	C	0.117259	0.180045	0.616339
	C186	C	0.117282	0.827568	0.386264
	C187	C	0.878658	0.826059	0.616197
	C188	C	0.175824	0.388509	0.881631
	C189	C	0.175482	0.617241	0.119891
	C190	C	0.821239	0.388106	0.120898
	C191	C	0.822023	0.617907	0.882757
	C192	C	0.398385	0.097173	0.601432
	C193	C	0.597579	0.910307	0.600155
	C194	C	0.599460	0.097630	0.401160
	C195	C	0.398311	0.908965	0.401914
	C196	C	0.597272	0.403612	0.096116
	C197	C	0.598134	0.601995	0.906820
	C198	C	0.399227	0.601755	0.096621
	C199	C	0.399553	0.402929	0.906801
	C200	C	0.093054	0.603392	0.401949
	C201	C	0.904549	0.602250	0.600129
	C202	C	0.092629	0.403773	0.600025
	C203	C	0.904043	0.403389	0.402060
	C204	C	0.897990	0.596929	0.101597
	C205	C	0.097571	0.409051	0.100340
	C206	C	0.099244	0.597035	0.901343
	C207	C	0.898430	0.409288	0.901432
	C208	C	0.097143	0.903758	0.596557
	C209	C	0.098568	0.102844	0.406439
	C210	C	0.900033	0.102479	0.595805
	C211	C	0.899585	0.903076	0.406405
	C212	C	0.592508	0.103204	0.902509
	C213	C	0.404898	0.101694	0.100530
	C214	C	0.592661	0.902710	0.100405
	C215	C	0.403876	0.902050	0.901987
	Zn216	Zn	0.498414	0.002984	0.751716
	Zn217	Zn	0.498755	0.002847	0.251191
	Zn218	Zn	0.747883	0.502628	0.001457
	Zn219	Zn	0.249570	0.502717	0.001385
	Zn220	Zn	-0.001367	0.753242	0.501414
	Zn221	Zn	-0.001672	0.252708	0.501208
	Zn222	Zn	-0.001426	0.503317	0.750958
	Zn223	Zn	-0.001530	0.503130	0.251353
	Zn224	Zn	0.498239	0.752071	0.001428
	Zn225	Zn	0.498454	0.253030	0.001618
	Zn226	Zn	0.749391	0.003499	0.500765
	Zn227	Zn	0.247865	0.002902	0.501719
	N228	N	0.413272	0.965516	0.679578
	N229	N	0.583767	0.041429	0.679543
	N230	N	0.583778	0.965813	0.323193
	N231	N	0.413441	0.040592	0.323409
	N232	N	0.676143	0.417380	0.964285
	N233	N	0.675816	0.587289	0.039332
	N234	N	0.321333	0.587637	0.964288
	N235	N	0.320686	0.417268	0.038966
	N236	N	0.961670	0.681958	0.415250
	N237	N	0.035521	0.682140	0.587104
	N238	N	0.961147	0.324507	0.587005
	N239	N	0.035302	0.324626	0.415334
	N240	N	0.961126	0.418148	0.679123
	N241	N	0.036341	0.588060	0.678540
	N242	N	0.961409	0.588129	0.323467
	N243	N	0.036031	0.418962	0.323792
	N244	N	0.413450	0.679718	0.964445
	N245	N	0.584296	0.681012	0.038957
	N246	N	0.583490	0.325176	0.963952
	N247	N	0.412569	0.323981	0.038813
	N248	N	0.677898	0.966444	0.414953
	N249	N	0.678227	0.040723	0.587252
	N250	N	0.319006	0.966358	0.587998
	N251	N	0.320039	0.040184	0.416250
	N252	N	0.912547	0.465661	0.180271
	N253	N	0.083258	0.540378	0.178629
	N254	N	0.083994	0.465515	0.823021
	N255	N	0.913512	0.540831	0.823165
	N256	N	0.175462	0.918514	0.464244
	N257	N	0.175863	0.088186	0.539038
	N258	N	0.822206	0.087457	0.463312
	N259	N	0.820130	0.917409	0.538336
	N260	N	0.461340	0.182280	0.915056
	N261	N	0.535426	0.182478	0.088044
	N262	N	0.461379	0.823331	0.087490
	N263	N	0.535251	0.823418	0.915076
	N264	N	0.461086	0.917376	0.179546
	N265	N	0.536817	0.087214	0.178370
	N266	N	0.460729	0.086989	0.824799
	N267	N	0.535693	0.917473	0.823267
	N268	N	0.912608	0.181757	0.463938
	N269	N	0.084402	0.181932	0.538216
	N270	N	0.083563	0.825483	0.464115
	N271	N	0.912364	0.824317	0.538442
	N272	N	0.178225	0.466033	0.914919
	N273	N	0.177350	0.539773	0.086785
	N274	N	0.819126	0.465509	0.087691
	N275	N	0.819546	0.540215	0.915689
	O276	O	-0.067027	0.072287	0.946467
	H277	H	-0.070440	0.073558	0.952090
	H278	H	-0.055632	0.075214	0.947400
	O279	O	0.556101	0.537008	0.550173
	H280	H	0.554555	0.542883	0.546563
	H281	H	0.558821	0.535546	0.551541
	O282	O	0.517329	0.539835	0.537647
	H283	H	0.511187	0.543900	0.544029
	H284	H	0.516743	0.539841	0.535039
	O285	O	0.529775	0.530534	0.553720
	H286	H	0.530961	0.534525	0.552954
	H287	H	0.541214	0.534727	0.553256
	O288	O	0.958940	0.070969	-0.013229
	H289	H	0.952506	0.072555	-0.006564
	H290	H	0.967599	0.072113	-0.006770
	O291	O	-0.085982	1.048075	0.967714
	H292	H	-0.091975	1.049108	0.955736
	H293	H	-0.081893	1.053844	0.962441
	O294	O	0.541649	0.521894	0.535559
	H295	H	0.537436	0.517063	0.527081
	H296	H	0.541487	0.513701	0.549103
	O297	O	0.938498	0.040008	0.011741
	H298	H	0.932717	0.029738	0.010879
	H299	H	0.930213	0.047505	0.004320
