data_Molecule from HDF5

_cell_length_a		16.245386
_cell_length_b		16.227024
_cell_length_c		16.271068
_cell_angle_alpha	90.005928
_cell_angle_beta	90.049103
_cell_angle_gamma	90.049126
_symmetry_space_group_name_H-M	'P 1'
_symmetry_Int_Tables_number		1

loop_
	_symmetry_equiv_pos_as_xyz
	x,y,z

loop_
	_atom_site_label
	_atom_site_type_symbol
	_atom_site_fract_x
	_atom_site_fract_y
	_atom_site_fract_z
	H0	H	0.400821	0.831139	0.712961
	H1	H	0.599894	0.159268	0.711712
	H2	H	0.597435	0.830611	0.284960
	H3	H	0.402150	0.159832	0.284272
	H4	H	0.716093	0.396116	0.834632
	H5	H	0.715880	0.593219	0.161725
	H6	H	0.286004	0.595184	0.835356
	H7	H	0.287508	0.397260	0.162867
	H8	H	0.836773	0.706621	0.401295
	H9	H	0.165313	0.709786	0.597727
	H10	H	0.836758	0.280425	0.597249
	H11	H	0.165125	0.280509	0.401387
	H12	H	0.838067	0.395819	0.714218
	H13	H	0.165668	0.594632	0.712720
	H14	H	0.837915	0.592310	0.284038
	H15	H	0.165417	0.394856	0.284230
	H16	H	0.402094	0.710210	0.835057
	H17	H	0.601291	0.709586	0.161754
	H18	H	0.598226	0.281487	0.834033
	H19	H	0.405053	0.281788	0.163147
	H20	H	0.714731	0.830545	0.398804
	H21	H	0.715144	0.158705	0.596066
	H22	H	0.287331	0.830338	0.595824
	H23	H	0.285840	0.158697	0.399561
	H24	H	0.903119	0.331119	0.211200
	H25	H	0.101517	0.658580	0.214135
	H26	H	0.101576	0.331122	0.783845
	H27	H	0.902549	0.659592	0.784452
	H28	H	0.213952	0.895837	0.333882
	H29	H	0.215657	0.093365	0.661797
	H30	H	0.787450	0.091450	0.334127
	H31	H	0.785916	0.895205	0.661730
	H32	H	0.336935	0.208495	0.900686
	H33	H	0.666582	0.208416	0.096720
	H34	H	0.337954	0.780679	0.096330
	H35	H	0.665844	0.781921	0.899750
	H36	H	0.336956	0.896657	0.210717
	H37	H	0.665810	0.092481	0.212926
	H38	H	0.337092	0.094668	0.783368
	H39	H	0.664844	0.896914	0.782788
	H40	H	0.900432	0.209557	0.334587
	H41	H	0.099801	0.209640	0.662205
	H42	H	0.097891	0.780711	0.334184
	H43	H	0.902438	0.780077	0.662337
	H44	H	0.215466	0.330983	0.900320
	H45	H	0.215936	0.659618	0.097192
	H46	H	0.787671	0.331348	0.096575
	H47	H	0.787227	0.659242	0.900201
	H48	H	0.407501	0.111223	0.586332
	H49	H	0.590189	0.878737	0.592419
	H50	H	0.596920	0.109010	0.415412
	H51	H	0.397974	0.875900	0.406922
	H52	H	0.594152	0.402354	0.114881
	H53	H	0.591079	0.582963	0.883945
	H54	H	0.402879	0.583885	0.116213
	H55	H	0.409668	0.412183	0.885152
	H56	H	0.119661	0.595404	0.409827
	H57	H	0.882115	0.592065	0.595260
	H58	H	0.118251	0.397111	0.586901
	H59	H	0.881584	0.395752	0.403192
	H60	H	0.115979	0.407219	0.589497
	H61	H	0.886649	0.586665	0.585979
	H62	H	0.115460	0.580632	0.410628
	H63	H	0.886546	0.403228	0.409538
	H64	H	0.414817	0.584532	0.111699
	H65	H	0.591720	0.592800	0.880839
	H66	H	0.595070	0.398486	0.115562
	H67	H	0.417110	0.395391	0.882534
	H68	H	0.602892	0.117184	0.397632
	H69	H	0.593268	0.878476	0.588014
	H70	H	0.404790	0.112915	0.592966
	H71	H	0.408953	0.875073	0.393434
	H72	H	0.901382	0.616938	0.097406
	H73	H	0.091464	0.377300	0.097409
	H74	H	0.103532	0.612501	0.914001
	H75	H	0.906970	0.376857	0.903332
	H76	H	0.101377	0.904762	0.616234
	H77	H	0.105022	0.089899	0.377559
	H78	H	0.910843	0.081959	0.612112
	H79	H	0.904925	0.894218	0.379477
	H80	H	0.619681	0.091044	0.904734
	H81	H	0.383101	0.093148	0.091729
	H82	H	0.616251	0.910381	0.091599
	H83	H	0.384363	0.908138	0.898818
	H84	H	0.621842	0.898680	0.099785
	H85	H	0.386542	0.086462	0.087345
	H86	H	0.617092	0.085981	0.906308
	H87	H	0.381740	0.893997	0.903466
	H88	H	0.911423	0.092570	0.615090
	H89	H	0.089386	0.075445	0.386655
	H90	H	0.087607	0.906111	0.611712
	H91	H	0.902808	0.904832	0.380816
	H92	H	0.097126	0.616139	0.893147
	H93	H	0.091690	0.380996	0.085196
	H94	H	0.917948	0.611700	0.095811
	H95	H	0.913590	0.379493	0.904082
	H96	H	0.411439	0.110738	0.592164
	H97	H	0.595392	0.876219	0.592713
	H98	H	0.584066	0.110647	0.399937
	H99	H	0.414002	0.881314	0.409565
	H100	H	0.597854	0.401452	0.115825
	H101	H	0.600055	0.586647	0.880123
	H102	H	0.409516	0.594898	0.116575
	H103	H	0.399480	0.398228	0.878147
	H104	H	0.120829	0.586112	0.397778
	H105	H	0.885366	0.581364	0.595867
	H106	H	0.119605	0.400568	0.597009
	H107	H	0.883982	0.405338	0.399251
	H108	H	0.907400	0.609981	0.082466
	H109	H	0.102772	0.375939	0.090705
	H110	H	0.082688	0.608006	0.907891
	H111	H	0.908742	0.379673	0.909287
	H112	H	0.092556	0.893341	0.617306
	H113	H	0.083338	0.097653	0.381603
	H114	H	0.901685	0.087083	0.616680
	H115	H	0.912851	0.900910	0.383427
	H116	H	0.618429	0.086754	0.900663
	H117	H	0.384643	0.085289	0.095508
	H118	H	0.618293	0.897641	0.085188
	H119	H	0.387477	0.903922	0.913536
	C120	C	0.378915	0.003230	0.619467
	C121	C	0.621607	0.986543	0.619169
	C122	C	0.622120	0.003508	0.376483
	C123	C	0.378726	0.986502	0.375477
	C124	C	0.623933	0.372418	0.007000
	C125	C	0.623139	0.616023	0.989587
	C126	C	0.379886	0.616830	0.007024
	C127	C	0.380132	0.373427	0.990589
	C128	C	0.010105	0.615649	0.377667
	C129	C	0.993113	0.616121	0.620484
	C130	C	0.009749	0.372828	0.620366
	C131	C	0.992545	0.372514	0.375921
	C132	C	0.880516	0.504170	0.119703
	C133	C	0.123782	0.486613	0.119819
	C134	C	0.123579	0.503738	0.876301
	C135	C	0.880478	0.486877	0.876893
	C136	C	0.121868	0.872789	0.506626
	C137	C	0.121876	0.116426	0.489914
	C138	C	0.879111	0.115830	0.506427
	C139	C	0.878237	0.871673	0.489515
	C140	C	0.509734	0.116673	0.876075
	C141	C	0.493416	0.116155	0.120047
	C142	C	0.510173	0.873478	0.119960
	C143	C	0.492975	0.873740	0.876406
	C144	C	0.380903	0.880182	0.674994
	C145	C	0.619837	0.110206	0.674007
	C146	C	0.618527	0.879524	0.322509
	C147	C	0.381677	0.110278	0.321388
	C148	C	0.678693	0.375051	0.883626
	C149	C	0.678285	0.613908	0.112848
	C150	C	0.324077	0.614909	0.884054
	C151	C	0.325270	0.376391	0.113857
	C152	C	0.886091	0.669552	0.380593
	C153	C	0.116346	0.672127	0.618017
	C154	C	0.885905	0.318077	0.617910
	C155	C	0.116109	0.317582	0.379694
	C156	C	0.886814	0.375309	0.676004
	C157	C	0.116766	0.614923	0.675094
	C158	C	0.886804	0.613077	0.322043
	C159	C	0.116112	0.374640	0.321749
	C160	C	0.381812	0.672235	0.883863
	C161	C	0.621328	0.671677	0.112885
	C162	C	0.619987	0.318365	0.883166
	C163	C	0.383539	0.318921	0.114013
	C164	C	0.676671	0.879597	0.379163
	C165	C	0.677248	0.109945	0.616681
	C166	C	0.324671	0.879576	0.616608
	C167	C	0.323900	0.109919	0.378876
	C168	C	0.882935	0.380282	0.173861
	C169	C	0.121593	0.609948	0.175724
	C170	C	0.121315	0.380282	0.821536
	C171	C	0.882502	0.610469	0.822086
	C172	C	0.176658	0.875395	0.383082
	C173	C	0.177595	0.114018	0.612984
	C174	C	0.824660	0.112349	0.383057
	C175	C	0.823689	0.874751	0.612921
	C176	C	0.386180	0.171400	0.879925
	C177	C	0.617489	0.170690	0.117601
	C178	C	0.386654	0.818591	0.116667
	C179	C	0.616504	0.818860	0.878708
	C180	C	0.386456	0.875997	0.174029
	C181	C	0.616956	0.113531	0.175516
	C182	C	0.386046	0.114914	0.821510
	C183	C	0.616050	0.876384	0.820880
	C184	C	0.881011	0.171096	0.383460
	C185	C	0.119764	0.171570	0.613370
	C186	C	0.118696	0.818260	0.383011
	C187	C	0.881543	0.817303	0.613117
	C188	C	0.178534	0.380277	0.879055
	C189	C	0.178465	0.610475	0.117675
	C190	C	0.825408	0.380314	0.117000
	C191	C	0.824817	0.610248	0.879278
	C192	C	0.401288	0.089415	0.597117
	C193	C	0.599400	0.900155	0.597477
	C194	C	0.600842	0.089980	0.398153
	C195	C	0.400499	0.899664	0.396840
	C196	C	0.602282	0.394336	0.093139
	C197	C	0.600740	0.593862	0.903958
	C198	C	0.402495	0.594471	0.092711
	C199	C	0.402243	0.395501	0.904264
	C200	C	0.096426	0.593821	0.399627
	C201	C	0.907174	0.593474	0.598731
	C202	C	0.095726	0.395075	0.597758
	C203	C	0.906213	0.394676	0.397703
	C204	C	0.902424	0.590608	0.098367
	C205	C	0.101806	0.400368	0.097698
	C206	C	0.100982	0.589968	0.898428
	C207	C	0.903090	0.400782	0.899108
	C208	C	0.100198	0.894738	0.592902
	C209	C	0.099255	0.094174	0.404271
	C210	C	0.901574	0.093660	0.592443
	C211	C	0.900186	0.893534	0.403443
	C212	C	0.596042	0.094420	0.897480
	C213	C	0.407038	0.094821	0.098073
	C214	C	0.596511	0.895501	0.098411
	C215	C	0.406771	0.895677	0.898731
	Zn216	Zn	0.500475	-0.004550	0.747603
	Zn217	Zn	0.501227	-0.005266	0.248305
	Zn218	Zn	0.752213	0.495013	-0.001492
	Zn219	Zn	0.251462	0.495374	-0.001705
	Zn220	Zn	0.001489	0.743959	0.498894
	Zn221	Zn	0.000320	0.244996	0.498247
	Zn222	Zn	0.002207	0.495402	0.748438
	Zn223	Zn	0.001472	0.494690	0.247886
	Zn224	Zn	0.501846	0.745237	-0.001586
	Zn225	Zn	0.502176	0.244213	-0.001541
	Zn226	Zn	0.750259	-0.005488	0.498355
	Zn227	Zn	0.250463	-0.005443	0.497853
	N228	N	0.414106	0.958135	0.676810
	N229	N	0.585998	0.032403	0.675540
	N230	N	0.585507	0.957409	0.320802
	N231	N	0.414990	0.032288	0.319348
	N232	N	0.681252	0.407835	0.961629
	N233	N	0.679542	0.579901	0.035456
	N234	N	0.322983	0.580929	0.961505
	N235	N	0.323113	0.409428	0.035999
	N236	N	0.963780	0.671281	0.414474
	N237	N	0.038459	0.672876	0.584527
	N238	N	0.963377	0.316591	0.583891
	N239	N	0.038097	0.316167	0.412822
	N240	N	0.964829	0.408552	0.677673
	N241	N	0.039402	0.580869	0.676700
	N242	N	0.964728	0.579905	0.320409
	N243	N	0.038386	0.408012	0.319243
	N244	N	0.416015	0.673469	0.961170
	N245	N	0.587412	0.673211	0.035351
	N246	N	0.586968	0.316425	0.960885
	N247	N	0.416705	0.316821	0.036120
	N248	N	0.679086	0.957767	0.412117
	N249	N	0.678440	0.032104	0.583326
	N250	N	0.323308	0.957166	0.582624
	N251	N	0.321987	0.031874	0.411648
	N252	N	0.916492	0.458277	0.175683
	N253	N	0.088328	0.531972	0.177316
	N254	N	0.087944	0.458154	0.819789
	N255	N	0.916395	0.532657	0.820216
	N256	N	0.178616	0.908741	0.460913
	N257	N	0.178967	0.080404	0.535359
	N258	N	0.823295	0.078806	0.460686
	N259	N	0.821468	0.908170	0.535127
	N260	N	0.464084	0.172534	0.913114
	N261	N	0.539823	0.172507	0.083900
	N262	N	0.464607	0.816933	0.083861
	N263	N	0.538874	0.817084	0.912511
	N264	N	0.464339	0.909374	0.176267
	N265	N	0.538852	0.080372	0.177136
	N266	N	0.463939	0.081681	0.819014
	N267	N	0.538222	0.909737	0.819263
	N268	N	0.914158	0.173265	0.461369
	N269	N	0.085880	0.173262	0.535810
	N270	N	0.085600	0.816526	0.460908
	N271	N	0.915031	0.815432	0.535497
	N272	N	0.179811	0.458008	0.912630
	N273	N	0.179856	0.532841	0.083624
	N274	N	0.823909	0.458264	0.083801
	N275	N	0.823455	0.532492	0.912592
	O276	O	0.974417	1.077332	-0.004240
	H277	H	0.981759	1.080784	0.000088
	H278	H	0.991647	1.083139	-0.004333
	O279	O	0.067097	0.053456	0.069625
	H280	H	0.055102	0.055880	0.068897
	H281	H	0.065405	0.057817	0.071707
	O282	O	-0.027618	0.032338	0.955767
	H283	H	-0.020213	0.036033	0.961011
	H284	H	-0.045904	0.036438	0.960909
	O285	O	0.485130	0.481639	0.529921
	H286	H	0.486855	0.486015	0.523716
	H287	H	0.476213	0.490525	0.544110
	O288	O	0.513490	0.545208	0.549749
	H289	H	0.514917	0.549496	0.558606
	H290	H	0.515954	0.545503	0.546027
	O291	O	0.427689	0.470036	0.493869
	H292	H	0.435631	0.478734	0.494939
	H293	H	0.421322	0.460001	0.488543
	O294	O	0.030446	0.015956	-0.045461
	H295	H	0.029680	0.024457	-0.043962
	H296	H	0.036611	0.010770	-0.044592
	O297	O	0.487802	0.529355	0.548120
	H298	H	0.489699	0.526768	0.545590
	H299	H	0.487791	0.529617	0.547714
	O300	O	0.048685	1.050481	0.990696
	H301	H	0.050859	1.045817	0.986129
	H302	H	0.045542	1.060827	0.984434
	O303	O	0.461000	0.506188	0.509403
	H304	H	0.455751	0.509170	0.515271
	H305	H	0.466788	0.519043	0.511060
	O306	O	-0.040826	0.051003	1.018435
	H307	H	-0.039070	0.060742	1.015788
	H308	H	-0.042627	0.047242	1.005508
	O309	O	1.087043	1.054100	0.988264
	H310	H	1.091889	1.053743	0.991780
	H311	H	1.089738	1.050588	0.996865
	O312	O	0.465613	0.470545	0.562601
	H313	H	0.471203	0.461936	0.560819
	H314	H	0.461215	0.462553	0.565134
	O315	O	0.452066	0.489068	0.582317
	H316	H	0.447318	0.487420	0.575511
	H317	H	0.444436	0.480762	0.587284
	O318	O	0.018724	1.016056	-0.029619
	H319	H	0.010684	1.011734	-0.029074
	H320	H	0.018171	1.015128	-0.016992
	O321	O	1.018922	1.088476	-0.007239
	H322	H	1.022068	1.083258	-0.015791
	H323	H	1.023258	1.088432	-0.004281
