data_Molecule from HDF5

_cell_length_a		16.281270
_cell_length_b		16.106611
_cell_length_c		16.343910
_cell_angle_alpha	90.410227
_cell_angle_beta	89.955654
_cell_angle_gamma	90.114777
_symmetry_space_group_name_H-M	'P 1'
_symmetry_Int_Tables_number		1

loop_
	_symmetry_equiv_pos_as_xyz
	x,y,z

loop_
	_atom_site_label
	_atom_site_type_symbol
	_atom_site_fract_x
	_atom_site_fract_y
	_atom_site_fract_z
	H0	H	0.401835	0.831188	0.714300
	H1	H	0.600519	0.162761	0.715760
	H2	H	0.601965	0.833812	0.283295
	H3	H	0.402563	0.161710	0.289921
	H4	H	0.717014	0.394600	0.838481
	H5	H	0.717586	0.598978	0.163401
	H6	H	0.285622	0.595878	0.837793
	H7	H	0.285529	0.398195	0.163998
	H8	H	0.837123	0.707931	0.403705
	H9	H	0.165180	0.713951	0.600786
	H10	H	0.837142	0.284463	0.594334
	H11	H	0.166109	0.283446	0.402310
	H12	H	0.838968	0.394714	0.715731
	H13	H	0.164906	0.598699	0.717861
	H14	H	0.839428	0.596509	0.283714
	H15	H	0.164880	0.395477	0.283774
	H16	H	0.404148	0.710581	0.837156
	H17	H	0.600491	0.713078	0.163792
	H18	H	0.598237	0.281568	0.838352
	H19	H	0.405510	0.286992	0.166307
	H20	H	0.714229	0.832552	0.400437
	H21	H	0.716024	0.162220	0.600392
	H22	H	0.286677	0.831358	0.597899
	H23	H	0.288329	0.161408	0.403508
	H24	H	0.902999	0.330874	0.211975
	H25	H	0.101556	0.660890	0.215241
	H26	H	0.102215	0.331472	0.784543
	H27	H	0.902563	0.660774	0.786985
	H28	H	0.218223	0.893417	0.337631
	H29	H	0.216207	0.097666	0.662936
	H30	H	0.786626	0.094586	0.337370
	H31	H	0.783477	0.896621	0.662503
	H32	H	0.336306	0.208859	0.906888
	H33	H	0.666371	0.210355	0.097886
	H34	H	0.337556	0.783862	0.097918
	H35	H	0.667134	0.784423	0.903369
	H36	H	0.338198	0.898420	0.216468
	H37	H	0.664368	0.099201	0.218128
	H38	H	0.337523	0.096463	0.786699
	H39	H	0.664304	0.896530	0.783254
	H40	H	0.906494	0.206728	0.335575
	H41	H	0.097245	0.210917	0.663355
	H42	H	0.098558	0.781203	0.336839
	H43	H	0.902208	0.782555	0.663449
	H44	H	0.215114	0.330885	0.901795
	H45	H	0.214680	0.661359	0.098765
	H46	H	0.787418	0.332313	0.097482
	H47	H	0.789691	0.661752	0.903340
	H48	H	0.409147	0.116404	0.602862
	H49	H	0.592726	0.879898	0.594065
	H50	H	0.588091	0.115158	0.407385
	H51	H	0.416147	0.880142	0.406211
	H52	H	0.598761	0.415403	0.115236
	H53	H	0.599464	0.594305	0.881363
	H54	H	0.414275	0.593139	0.115666
	H55	H	0.410862	0.404253	0.886896
	H56	H	0.120494	0.589335	0.402740
	H57	H	0.882573	0.592337	0.601908
	H58	H	0.119758	0.397878	0.590957
	H59	H	0.890518	0.408007	0.418493
	H60	H	0.116006	0.409957	0.588512
	H61	H	0.886999	0.592803	0.586405
	H62	H	0.117677	0.590488	0.412226
	H63	H	0.883242	0.412627	0.391669
	H64	H	0.402867	0.593508	0.118968
	H65	H	0.599192	0.582185	0.885935
	H66	H	0.586792	0.402530	0.116199
	H67	H	0.407780	0.399959	0.884078
	H68	H	0.595992	0.114250	0.415613
	H69	H	0.591666	0.880447	0.591530
	H70	H	0.415166	0.111559	0.591362
	H71	H	0.407941	0.879238	0.412970
	H72	H	0.897875	0.620204	0.099243
	H73	H	0.107206	0.376441	0.083311
	H74	H	0.091263	0.611001	0.914878
	H75	H	0.915251	0.378165	0.903187
	H76	H	0.093576	0.904736	0.615934
	H77	H	0.105919	0.105162	0.375411
	H78	H	0.920231	0.098255	0.615208
	H79	H	0.908072	0.910967	0.386571
	H80	H	0.616967	0.086547	0.908112
	H81	H	0.381065	0.098819	0.098811
	H82	H	0.622272	0.896708	0.097045
	H83	H	0.385620	0.901703	0.909196
	H84	H	0.614643	0.908290	0.084300
	H85	H	0.387063	0.089692	0.090787
	H86	H	0.618648	0.090495	0.903750
	H87	H	0.386497	0.907280	0.908637
	H88	H	0.895953	0.097870	0.622440
	H89	H	0.106639	0.070577	0.385658
	H90	H	0.095879	0.906493	0.615663
	H91	H	0.913271	0.895919	0.383346
	H92	H	0.100483	0.615882	0.909193
	H93	H	0.095579	0.372138	0.107656
	H94	H	0.920881	0.613710	0.102744
	H95	H	0.908205	0.379864	0.914028
	H96	H	0.402218	0.115350	0.590754
	H97	H	0.594057	0.878823	0.591272
	H98	H	0.599581	0.118267	0.405005
	H99	H	0.406597	0.876595	0.403313
	H100	H	0.602680	0.399080	0.121740
	H101	H	0.588869	0.589443	0.886530
	H102	H	0.407636	0.583403	0.114474
	H103	H	0.404876	0.405520	0.885075
	H104	H	0.116159	0.581520	0.407529
	H105	H	0.888658	0.578119	0.594540
	H106	H	0.120759	0.405768	0.600649
	H107	H	0.879869	0.387213	0.402868
	H108	H	0.911319	0.610034	0.081783
	H109	H	0.080554	0.383486	0.086882
	H110	H	0.090967	0.614295	0.902688
	H111	H	0.902065	0.375817	0.903374
	H112	H	0.093826	0.907020	0.615707
	H113	H	0.076030	0.090286	0.388076
	H114	H	0.906317	0.076204	0.613438
	H115	H	0.897850	0.899373	0.381283
	H116	H	0.618037	0.091889	0.909030
	H117	H	0.383509	0.086912	0.102894
	H118	H	0.617304	0.914933	0.101254
	H119	H	0.385289	0.905066	0.904220
	C120	C	0.380062	0.005267	0.622398
	C121	C	0.622192	0.988930	0.621540
	C122	C	0.622691	0.006534	0.379607
	C123	C	0.381324	0.987712	0.380266
	C124	C	0.623747	0.375331	0.010067
	C125	C	0.624212	0.618764	0.992169
	C126	C	0.379731	0.618529	0.008794
	C127	C	0.379672	0.375025	0.993140
	C128	C	0.009805	0.616214	0.378973
	C129	C	0.993866	0.618274	0.623281
	C130	C	0.010489	0.375674	0.621052
	C131	C	0.993066	0.373924	0.376473
	C132	C	0.881117	0.505552	0.121711
	C133	C	0.123042	0.486909	0.121598
	C134	C	0.123086	0.504682	0.879364
	C135	C	0.880742	0.487684	0.879132
	C136	C	0.123208	0.875167	0.508430
	C137	C	0.123989	0.118501	0.490834
	C138	C	0.879724	0.118078	0.508471
	C139	C	0.878180	0.873848	0.491573
	C140	C	0.509274	0.118283	0.879704
	C141	C	0.492727	0.120216	0.124800
	C142	C	0.509972	0.876892	0.122714
	C143	C	0.493696	0.875138	0.878316
	C144	C	0.381413	0.880546	0.676815
	C145	C	0.620363	0.113362	0.677590
	C146	C	0.621252	0.882832	0.322380
	C147	C	0.382859	0.112321	0.326920
	C148	C	0.678445	0.375906	0.887237
	C149	C	0.679311	0.617989	0.114900
	C150	C	0.324170	0.615887	0.886353
	C151	C	0.324250	0.378207	0.115629
	C152	C	0.886686	0.671150	0.382379
	C153	C	0.116620	0.674923	0.620586
	C154	C	0.886402	0.321232	0.616442
	C155	C	0.116813	0.320166	0.381009
	C156	C	0.887396	0.375924	0.676797
	C157	C	0.116399	0.618035	0.679216
	C158	C	0.887728	0.615576	0.322787
	C159	C	0.116193	0.375709	0.321744
	C160	C	0.382771	0.673135	0.885968
	C161	C	0.621060	0.674874	0.115169
	C162	C	0.619359	0.319729	0.886884
	C163	C	0.384058	0.322972	0.116870
	C164	C	0.676953	0.882184	0.380662
	C165	C	0.677553	0.113247	0.619988
	C166	C	0.324316	0.880687	0.619234
	C167	C	0.326136	0.112110	0.383670
	C168	C	0.883234	0.380408	0.174574
	C169	C	0.121431	0.611514	0.177230
	C170	C	0.121722	0.380670	0.823042
	C171	C	0.882651	0.611524	0.824516
	C172	C	0.179315	0.874801	0.385946
	C173	C	0.178349	0.117199	0.614003
	C174	C	0.824830	0.114847	0.385762
	C175	C	0.822658	0.876844	0.614206
	C176	C	0.385445	0.171853	0.884860
	C177	C	0.616967	0.173503	0.119505
	C178	C	0.386524	0.821713	0.118999
	C179	C	0.617437	0.820738	0.881521
	C180	C	0.386932	0.878302	0.178206
	C181	C	0.615860	0.118401	0.179396
	C182	C	0.386246	0.116229	0.824998
	C183	C	0.616124	0.876521	0.821866
	C184	C	0.884347	0.170413	0.384874
	C185	C	0.119614	0.174219	0.614161
	C186	C	0.120186	0.818755	0.385621
	C187	C	0.881414	0.819919	0.614610
	C188	C	0.177833	0.380260	0.881212
	C189	C	0.177441	0.611888	0.119300
	C190	C	0.825660	0.381081	0.117974
	C191	C	0.826474	0.612068	0.882577
	C192	C	0.402276	0.092002	0.601338
	C193	C	0.599533	0.902000	0.598917
	C194	C	0.600839	0.093424	0.402590
	C195	C	0.403569	0.901123	0.401268
	C196	C	0.602541	0.398761	0.095658
	C197	C	0.602199	0.595504	0.906822
	C198	C	0.401718	0.596623	0.094302
	C199	C	0.401588	0.396671	0.907315
	C200	C	0.095828	0.593663	0.401177
	C201	C	0.908238	0.594699	0.600867
	C202	C	0.096473	0.397918	0.599700
	C203	C	0.906836	0.396153	0.397889
	C204	C	0.903285	0.592289	0.100584
	C205	C	0.100979	0.400028	0.099061
	C206	C	0.100924	0.591387	0.902208
	C207	C	0.902462	0.400404	0.900451
	C208	C	0.101023	0.898998	0.593574
	C209	C	0.102602	0.095456	0.405110
	C210	C	0.901005	0.096847	0.594674
	C211	C	0.900055	0.895577	0.405902
	C212	C	0.595478	0.096272	0.900885
	C213	C	0.406153	0.098329	0.103616
	C214	C	0.595860	0.899917	0.100645
	C215	C	0.408014	0.897819	0.900987
	Zn216	Zn	0.501344	-0.002925	0.750049
	Zn217	Zn	0.501483	-0.001792	0.252459
	Zn218	Zn	0.753138	0.497296	0.000490
	Zn219	Zn	0.250510	0.496342	0.000774
	Zn220	Zn	0.001602	0.745818	0.500449
	Zn221	Zn	0.001461	0.246920	0.499057
	Zn222	Zn	0.002188	0.496026	0.751185
	Zn223	Zn	0.002186	0.495837	0.248887
	Zn224	Zn	0.502411	0.747185	0.000731
	Zn225	Zn	0.501471	0.246975	0.001776
	Zn226	Zn	0.750237	-0.002612	0.500581
	Zn227	Zn	0.252616	-0.003836	0.499969
	N228	N	0.415406	0.958849	0.678782
	N229	N	0.586565	0.035024	0.678461
	N230	N	0.588139	0.961303	0.321617
	N231	N	0.416558	0.034199	0.324588
	N232	N	0.681405	0.409934	0.964706
	N233	N	0.681444	0.583844	0.037398
	N234	N	0.322227	0.582465	0.963707
	N235	N	0.321410	0.409943	0.037762
	N236	N	0.963879	0.671692	0.416748
	N237	N	0.039167	0.675583	0.586805
	N238	N	0.963706	0.320925	0.582459
	N239	N	0.039272	0.318978	0.414506
	N240	N	0.965459	0.409010	0.679999
	N241	N	0.039023	0.583658	0.680964
	N242	N	0.965306	0.582040	0.320878
	N243	N	0.038137	0.408321	0.318809
	N244	N	0.416632	0.674933	0.963002
	N245	N	0.587346	0.675354	0.037934
	N246	N	0.586148	0.319057	0.964174
	N247	N	0.417741	0.320848	0.039610
	N248	N	0.677869	0.960137	0.415557
	N249	N	0.678831	0.034851	0.585943
	N250	N	0.323230	0.958953	0.586152
	N251	N	0.325150	0.033705	0.416287
	N252	N	0.916824	0.458865	0.177246
	N253	N	0.088190	0.532871	0.178560
	N254	N	0.088337	0.459156	0.821742
	N255	N	0.916021	0.533122	0.822583
	N256	N	0.181370	0.909074	0.463308
	N257	N	0.181363	0.083401	0.536392
	N258	N	0.821972	0.082938	0.463794
	N259	N	0.820169	0.909341	0.536623
	N260	N	0.463079	0.173515	0.917848
	N261	N	0.539295	0.174849	0.086417
	N262	N	0.463973	0.820553	0.085442
	N263	N	0.540240	0.819815	0.915827
	N264	N	0.464741	0.911929	0.180441
	N265	N	0.537653	0.086101	0.182850
	N266	N	0.464189	0.083459	0.821869
	N267	N	0.538222	0.909521	0.819786
	N268	N	0.917539	0.172708	0.462107
	N269	N	0.086388	0.174864	0.536828
	N270	N	0.085916	0.818790	0.462588
	N271	N	0.915304	0.817963	0.537524
	N272	N	0.178736	0.458369	0.915647
	N273	N	0.178866	0.533466	0.085624
	N274	N	0.824172	0.459693	0.085819
	N275	N	0.825230	0.533884	0.915728
	O276	O	0.420673	0.387863	0.574502
	H277	H	0.424981	0.389184	0.580523
	H278	H	0.417469	0.384218	0.588152
	O279	O	0.491081	0.588658	0.352681
	H280	H	0.492404	0.575917	0.352608
	H281	H	0.483430	0.589184	0.349310
	O282	O	0.554836	0.624739	0.586413
	H283	H	0.555483	0.624440	0.581697
	H284	H	0.559827	0.624085	0.586072
	O285	O	-0.007722	0.944217	0.902080
	H286	H	-0.007830	0.934739	0.888612
	H287	H	0.003238	0.949392	0.902824
	O288	O	0.518971	0.494548	0.428001
	H289	H	0.513500	0.492150	0.426113
	H290	H	0.522100	0.497544	0.427158
	O291	O	-0.472615	0.492277	0.517028
	H292	H	-0.477015	0.494241	0.513996
	H293	H	-0.482461	0.492826	0.519382
	O294	O	0.415790	0.438824	0.542617
	H295	H	0.423091	0.444980	0.545437
	H296	H	0.423316	0.445683	0.547240
	O297	O	0.558049	0.598169	0.510445
	H298	H	0.548859	0.608612	0.510692
	H299	H	0.565942	0.605248	0.510545
	O300	O	0.465791	0.446057	0.485327
	H301	H	0.467503	0.455609	0.483127
	H302	H	0.467733	0.442600	0.483985
	O303	O	0.590921	0.536414	0.536434
	H304	H	0.588338	0.536204	0.530126
	H305	H	0.595821	0.550393	0.547117
	O306	O	0.506227	0.406274	1.519274
	H307	H	0.495928	0.402344	1.512383
	H308	H	0.514448	0.407338	1.527828
	O309	O	0.604494	0.525665	0.494572
	H310	H	0.605008	0.520645	0.493830
	H311	H	0.607225	0.534297	0.497260
	O312	O	0.530049	0.545824	0.536319
	H313	H	0.534032	0.531571	0.530954
	H314	H	0.527985	0.548022	0.539181
	O315	O	1.043894	-0.060954	0.925064
	H316	H	1.050857	-0.060045	0.926153
	H317	H	1.047059	-0.068096	0.921322
	O318	O	0.046612	-0.026521	-0.091128
	H319	H	0.032454	-0.020306	-0.090028
	H320	H	0.046721	-0.033820	-0.096728
	O321	O	0.517074	0.566455	0.612517
	H322	H	0.513182	0.561223	0.613634
	H323	H	0.521681	0.568892	0.605212
	O324	O	1.023918	-0.059931	-0.071961
	H325	H	1.024913	-0.062349	-0.065425
	H326	H	1.010580	-0.056795	-0.076295
	O327	O	1.071885	0.933735	-0.099532
	H328	H	1.084352	0.931835	-0.104986
	H329	H	1.077137	0.935978	-0.093072
	O330	O	0.434168	0.534732	0.452220
	H331	H	0.435376	0.533627	0.454502
	H332	H	0.430879	0.525933	0.451274
	O333	O	0.495833	0.451549	0.452978
	H334	H	0.500582	0.449258	0.450864
	H335	H	0.482818	0.451685	0.458512
