data_Molecule from HDF5

_cell_length_a		16.315188
_cell_length_b		16.372926
_cell_length_c		16.457783
_cell_angle_alpha	89.908338
_cell_angle_beta	89.694103
_cell_angle_gamma	90.348702
_symmetry_space_group_name_H-M	'P 1'
_symmetry_Int_Tables_number		1

loop_
	_symmetry_equiv_pos_as_xyz
	x,y,z

loop_
	_atom_site_label
	_atom_site_type_symbol
	_atom_site_fract_x
	_atom_site_fract_y
	_atom_site_fract_z
	H0	H	0.395384	0.840790	0.714394
	H1	H	0.605952	0.160513	0.714300
	H2	H	0.606127	0.839724	0.274641
	H3	H	0.404278	0.160630	0.276363
	H4	H	0.723866	0.395975	0.835510
	H5	H	0.717595	0.600964	0.155592
	H6	H	0.280970	0.601917	0.836152
	H7	H	0.281792	0.396676	0.154920
	H8	H	0.839659	0.719332	0.393902
	H9	H	0.160985	0.721986	0.597015
	H10	H	0.839979	0.280654	0.598810
	H11	H	0.162447	0.289463	0.394308
	H12	H	0.841628	0.393150	0.718671
	H13	H	0.160439	0.606240	0.713212
	H14	H	0.839773	0.606179	0.277062
	H15	H	0.160745	0.402862	0.277844
	H16	H	0.394282	0.722334	0.836877
	H17	H	0.603459	0.719127	0.153484
	H18	H	0.606839	0.280364	0.834984
	H19	H	0.402035	0.282339	0.155457
	H20	H	0.718955	0.839186	0.393449
	H21	H	0.721385	0.160682	0.596461
	H22	H	0.283008	0.839695	0.594175
	H23	H	0.289429	0.162792	0.395052
	H24	H	0.895916	0.341107	0.216632
	H25	H	0.103419	0.662470	0.212164
	H26	H	0.105581	0.342507	0.773104
	H27	H	0.896221	0.660031	0.775076
	H28	H	0.217345	0.904328	0.332733
	H29	H	0.220693	0.104601	0.653957
	H30	H	0.783896	0.102666	0.333219
	H31	H	0.778039	0.895184	0.652556
	H32	H	0.341512	0.215769	0.895442
	H33	H	0.663773	0.218074	0.096675
	H34	H	0.340615	0.780261	0.097476
	H35	H	0.662571	0.781158	0.890273
	H36	H	0.341158	0.894956	0.214446
	H37	H	0.663980	0.101389	0.210330
	H38	H	0.341434	0.101579	0.778593
	H39	H	0.660844	0.894158	0.771667
	H40	H	0.899957	0.219886	0.333800
	H41	H	0.104687	0.222016	0.653578
	H42	H	0.104067	0.783970	0.334255
	H43	H	0.894306	0.779441	0.653151
	H44	H	0.216816	0.339193	0.893583
	H45	H	0.221437	0.660727	0.096038
	H46	H	0.782768	0.338937	0.097653
	H47	H	0.785142	0.661314	0.895513
	H48	H	0.411008	0.117884	0.593155
	H49	H	0.589049	0.887839	0.581318
	H50	H	0.591237	0.112302	0.405062
	H51	H	0.408535	0.882400	0.397323
	H52	H	0.588727	0.402211	0.109333
	H53	H	0.592052	0.589130	0.881029
	H54	H	0.408582	0.592943	0.110059
	H55	H	0.405161	0.404474	0.878916
	H56	H	0.115291	0.593401	0.404667
	H57	H	0.886708	0.589394	0.583794
	H58	H	0.117498	0.412264	0.591523
	H59	H	0.883870	0.413368	0.401260
	H60	H	0.115126	0.407547	0.579592
	H61	H	0.887347	0.587653	0.583088
	H62	H	0.115997	0.591820	0.402161
	H63	H	0.882787	0.405283	0.406681
	H64	H	0.409471	0.582292	0.106003
	H65	H	0.592405	0.589478	0.880932
	H66	H	0.597726	0.409353	0.109689
	H67	H	0.409641	0.412873	0.882311
	H68	H	0.596825	0.116173	0.401679
	H69	H	0.588907	0.887462	0.584452
	H70	H	0.415471	0.113363	0.585815
	H71	H	0.414627	0.887164	0.405067
	H72	H	0.906235	0.615360	0.084141
	H73	H	0.088988	0.388277	0.083862
	H74	H	0.089554	0.613811	0.904487
	H75	H	0.909451	0.385341	0.902431
	H76	H	0.096788	0.909974	0.610178
	H77	H	0.094468	0.095932	0.380095
	H78	H	0.911019	0.085878	0.605485
	H79	H	0.908327	0.906240	0.378196
	H80	H	0.619858	0.097406	0.904738
	H81	H	0.390055	0.086730	0.081156
	H82	H	0.615960	0.915784	0.087425
	H83	H	0.384556	0.902750	0.905893
	H84	H	0.619137	0.903761	0.086911
	H85	H	0.387304	0.085361	0.091279
	H86	H	0.614200	0.085961	0.910114
	H87	H	0.391130	0.913730	0.911513
	H88	H	0.916914	0.091969	0.605699
	H89	H	0.095420	0.096604	0.378818
	H90	H	0.089517	0.917409	0.605829
	H91	H	0.910369	0.917762	0.383026
	H92	H	0.090195	0.613361	0.907320
	H93	H	0.092652	0.384852	0.089118
	H94	H	0.907295	0.617964	0.091644
	H95	H	0.917725	0.388047	0.905147
	H96	H	0.406009	0.116626	0.584666
	H97	H	0.585941	0.887434	0.582505
	H98	H	0.590444	0.114573	0.397891
	H99	H	0.404684	0.884915	0.406962
	H100	H	0.587585	0.413544	0.105660
	H101	H	0.592724	0.589292	0.881398
	H102	H	0.418608	0.589480	0.105670
	H103	H	0.415176	0.404644	0.881247
	H104	H	0.116007	0.594486	0.402931
	H105	H	0.887357	0.588867	0.585102
	H106	H	0.111523	0.420365	0.582519
	H107	H	0.886932	0.412813	0.410477
	H108	H	0.913384	0.613958	0.087819
	H109	H	0.085992	0.386759	0.090498
	H110	H	0.092095	0.615341	0.906054
	H111	H	0.910876	0.387266	0.911162
	H112	H	0.086394	0.906766	0.608602
	H113	H	0.095508	0.095273	0.379633
	H114	H	0.908471	0.094234	0.608342
	H115	H	0.919654	0.909067	0.383454
	H116	H	0.618072	0.086215	0.896950
	H117	H	0.385959	0.095187	0.086335
	H118	H	0.613886	0.909286	0.077293
	H119	H	0.387110	0.913863	0.899231
	C120	C	0.379222	0.009831	0.617205
	C121	C	0.621200	0.992714	0.614768
	C122	C	0.623636	0.008014	0.371876
	C123	C	0.381340	0.991658	0.373214
	C124	C	0.623813	0.377515	0.002959
	C125	C	0.622614	0.620565	0.986358
	C126	C	0.380040	0.620411	0.002867
	C127	C	0.379430	0.376759	0.986454
	C128	C	0.009128	0.624046	0.373200
	C129	C	0.992467	0.621880	0.615316
	C130	C	0.009058	0.379941	0.616797
	C131	C	0.991276	0.381583	0.374889
	C132	C	0.877842	0.509689	0.118659
	C133	C	0.121270	0.492562	0.117270
	C134	C	0.121995	0.508915	0.874043
	C135	C	0.880672	0.492410	0.874888
	C136	C	0.121792	0.881163	0.502324
	C137	C	0.124800	0.125527	0.485314
	C138	C	0.880481	0.122243	0.501697
	C139	C	0.879312	0.878609	0.486078
	C140	C	0.510897	0.120436	0.874023
	C141	C	0.494036	0.120447	0.116053
	C142	C	0.510202	0.877955	0.115436
	C143	C	0.493410	0.878459	0.873209
	C144	C	0.377545	0.888734	0.674538
	C145	C	0.624509	0.112701	0.674339
	C146	C	0.624579	0.887595	0.314109
	C147	C	0.383918	0.112861	0.315664
	C148	C	0.683628	0.377034	0.883066
	C149	C	0.679260	0.620291	0.107167
	C150	C	0.320668	0.621602	0.883379
	C151	C	0.321406	0.377261	0.107148
	C152	C	0.887959	0.681045	0.374133
	C153	C	0.112905	0.682120	0.616114
	C154	C	0.888392	0.319719	0.618283
	C155	C	0.113453	0.326616	0.374730
	C156	C	0.889087	0.375979	0.677582
	C157	C	0.112773	0.624415	0.673818
	C158	C	0.888033	0.624622	0.315981
	C159	C	0.112690	0.383061	0.316894
	C160	C	0.377252	0.681141	0.883925
	C161	C	0.622667	0.679358	0.106086
	C162	C	0.625239	0.319543	0.882727
	C163	C	0.380888	0.320330	0.107349
	C164	C	0.680807	0.887399	0.373072
	C165	C	0.681407	0.113046	0.615428
	C166	C	0.321440	0.888118	0.615011
	C167	C	0.327051	0.114050	0.374660
	C168	C	0.877014	0.388882	0.177095
	C169	C	0.122603	0.614039	0.173499
	C170	C	0.123728	0.389763	0.813638
	C171	C	0.878461	0.612500	0.815215
	C172	C	0.179060	0.883129	0.381265
	C173	C	0.181791	0.124579	0.605941
	C174	C	0.822471	0.122487	0.381445
	C175	C	0.818237	0.876585	0.605102
	C176	C	0.389542	0.177193	0.875243
	C177	C	0.615432	0.179177	0.115616
	C178	C	0.388890	0.819315	0.116763
	C179	C	0.614036	0.819919	0.871191
	C180	C	0.389299	0.876403	0.174933
	C181	C	0.615483	0.121208	0.172495
	C182	C	0.389572	0.120660	0.817227
	C183	C	0.613300	0.876232	0.812274
	C184	C	0.880770	0.180469	0.381473
	C185	C	0.124045	0.182864	0.605791
	C186	C	0.122654	0.823380	0.382199
	C187	C	0.876349	0.819036	0.605403
	C188	C	0.179269	0.388195	0.873395
	C189	C	0.181355	0.613092	0.116093
	C190	C	0.820568	0.387884	0.118046
	C191	C	0.823067	0.612978	0.875089
	C192	C	0.403749	0.094077	0.594527
	C193	C	0.595403	0.909327	0.590072
	C194	C	0.599730	0.092630	0.394795
	C195	C	0.402847	0.906876	0.396508
	C196	C	0.598593	0.401410	0.086455
	C197	C	0.598995	0.596272	0.902760
	C198	C	0.404985	0.595399	0.085709
	C199	C	0.403017	0.400552	0.902573
	C200	C	0.093779	0.600195	0.396515
	C201	C	0.908880	0.595943	0.590984
	C202	C	0.092685	0.406078	0.591744
	C203	C	0.906518	0.404011	0.399063
	C204	C	0.901903	0.593744	0.094779
	C205	C	0.096322	0.408484	0.094435
	C206	C	0.097634	0.592605	0.898768
	C207	C	0.905482	0.408590	0.899174
	C208	C	0.097945	0.904643	0.586498
	C209	C	0.101967	0.102513	0.401288
	C210	C	0.904951	0.097659	0.584855
	C211	C	0.905099	0.903870	0.403123
	C212	C	0.595325	0.096775	0.897088
	C213	C	0.409625	0.096076	0.092852
	C214	C	0.594501	0.902373	0.090868
	C215	C	0.409462	0.902860	0.898292
	Zn216	Zn	0.501504	0.000420	0.745446
	Zn217	Zn	0.502941	-0.000979	0.243615
	Zn218	Zn	0.751698	0.499815	-0.005152
	Zn219	Zn	0.250355	0.499310	-0.004615
	Zn220	Zn	0.001068	0.750983	0.494460
	Zn221	Zn	0.001077	0.252748	0.494150
	Zn222	Zn	0.000873	0.501387	0.745358
	Zn223	Zn	-0.000314	0.502069	0.246594
	Zn224	Zn	0.501508	0.749828	-0.006047
	Zn225	Zn	0.502568	0.248497	-0.005284
	Zn226	Zn	0.751292	0.000306	0.493743
	Zn227	Zn	0.252123	0.001690	0.494417
	N228	N	0.412634	0.965273	0.676214
	N229	N	0.587999	0.036926	0.674273
	N230	N	0.589976	0.963972	0.313211
	N231	N	0.416572	0.035600	0.314319
	N232	N	0.682854	0.412190	0.958935
	N233	N	0.679420	0.584551	0.031623
	N234	N	0.322460	0.584447	0.958050
	N235	N	0.320119	0.411451	0.030889
	N236	N	0.964433	0.680878	0.408793
	N237	N	0.037029	0.680757	0.580717
	N238	N	0.964049	0.322017	0.581314
	N239	N	0.036830	0.325617	0.410106
	N240	N	0.965055	0.412760	0.676729
	N241	N	0.036853	0.587519	0.673483
	N242	N	0.964634	0.590036	0.315220
	N243	N	0.035713	0.416545	0.316989
	N244	N	0.413667	0.680255	0.959099
	N245	N	0.588168	0.679705	0.030083
	N246	N	0.588924	0.319810	0.958346
	N247	N	0.415901	0.319681	0.031367
	N248	N	0.680211	0.963360	0.408195
	N249	N	0.679680	0.037433	0.579171
	N250	N	0.322132	0.964446	0.580335
	N251	N	0.325335	0.037932	0.409719
	N252	N	0.911589	0.465554	0.177806
	N253	N	0.086083	0.538226	0.174345
	N254	N	0.088913	0.466044	0.813983
	N255	N	0.913207	0.536083	0.814585
	N256	N	0.178703	0.918246	0.457114
	N257	N	0.182654	0.089685	0.530093
	N258	N	0.822070	0.087134	0.457203
	N259	N	0.820158	0.913067	0.530014
	N260	N	0.466032	0.177259	0.909706
	N261	N	0.538750	0.178838	0.081173
	N262	N	0.464936	0.820058	0.080534
	N263	N	0.538284	0.821086	0.908242
	N264	N	0.465816	0.912021	0.174271
	N265	N	0.539346	0.085168	0.172737
	N266	N	0.466047	0.086194	0.816313
	N267	N	0.537042	0.911401	0.813121
	N268	N	0.915971	0.180441	0.457263
	N269	N	0.089285	0.183557	0.529792
	N270	N	0.087902	0.822136	0.458560
	N271	N	0.913706	0.820391	0.530426
	N272	N	0.178284	0.463326	0.910258
	N273	N	0.180568	0.536552	0.081799
	N274	N	0.820565	0.464019	0.082652
	N275	N	0.824439	0.537408	0.911342
	O276	O	0.602111	0.497340	0.409560
	H277	H	0.582792	0.503634	0.411398
	H278	H	0.618676	0.487388	0.389501
	O279	O	0.453437	0.608354	0.433267
	H280	H	0.440738	0.605782	0.442020
	H281	H	0.458782	0.594337	0.444132
	O282	O	0.451983	0.656549	0.654825
	H283	H	0.460884	0.670931	0.660094
	H284	H	0.478564	0.652026	0.650014
	O285	O	1.199844	1.162831	0.155325
	H286	H	1.177015	1.165930	0.162523
	H287	H	1.209273	1.177460	0.171374
	O288	O	0.336984	0.683173	0.408926
	H289	H	0.336781	0.691804	0.434063
	H290	H	0.327980	0.688654	0.421964
	O291	O	0.337971	0.466196	0.456596
	H292	H	0.332883	0.454257	0.446093
	H293	H	0.335953	0.471284	0.461580
	O294	O	1.108879	1.066507	1.193885
	H295	H	1.124528	1.080151	1.197155
	H296	H	1.106343	1.057499	1.206067
	O297	O	0.653818	0.321117	0.311882
	H298	H	0.632819	0.313320	0.320055
	H299	H	0.650782	0.320682	0.316946
	O300	O	0.614356	0.378639	0.412476
	H301	H	0.621283	0.382690	0.418340
	H302	H	0.615408	0.372839	0.410033
	O303	O	0.342277	0.617465	0.295594
	H304	H	0.324179	0.633475	0.302728
	H305	H	0.331320	0.627565	0.288454
	O306	O	-0.028798	-0.140054	1.105257
	H307	H	-0.022986	-0.133077	1.091019
	H308	H	-0.042946	-0.147878	1.102811
	O309	O	0.903131	0.165543	0.102817
	H310	H	0.905406	0.146526	0.110733
	H311	H	0.906915	0.160210	0.095113
	O312	O	0.434380	0.465301	0.331419
	H313	H	0.448222	0.474100	0.341924
	H314	H	0.433764	0.483562	0.319710
	O315	O	0.421322	0.654724	0.304601
	H316	H	0.407443	0.662337	0.315959
	H317	H	0.399346	0.678077	0.301450
	O318	O	-0.076906	-0.063272	-0.059287
	H319	H	-0.086495	-0.049778	-0.067760
	H320	H	-0.058096	-0.056255	-0.056485
	O321	O	0.707291	0.472951	0.284651
	H322	H	0.695223	0.444821	0.283725
	H323	H	0.727546	0.473098	0.258239
	O324	O	1.211447	0.116777	1.003674
	H325	H	1.219320	0.117945	1.003124
	H326	H	1.222110	0.121819	1.004874
	O327	O	0.321670	0.451997	0.653861
	H328	H	0.308025	0.459221	0.668488
	H329	H	0.342662	0.467838	0.667007
	O330	O	-0.073329	1.175075	0.797672
	H331	H	-0.081373	1.182507	0.811427
	H332	H	-0.075256	1.182958	0.787030
	O333	O	0.104189	0.884760	-0.111975
	H334	H	0.098415	0.876449	-0.111283
	H335	H	0.093135	0.883548	-0.114783
	O336	O	1.063516	0.909730	-0.158395
	H337	H	1.044544	0.921942	-0.163718
	H338	H	1.075681	0.911073	-0.169666
	O339	O	0.116026	0.905760	0.823063
	H340	H	0.115031	0.902396	0.831614
	H341	H	0.125511	0.903348	0.821725
	O342	O	0.354818	0.530633	0.481159
	H343	H	0.363359	0.531441	0.485539
	H344	H	0.346965	0.508114	0.493778
	O345	O	-0.200451	0.119714	0.971178
	H346	H	-0.201504	0.118375	0.974976
	H347	H	-0.197526	0.124837	0.971252
	O348	O	0.514346	0.546586	0.506650
	H349	H	0.512511	0.540198	0.513901
	H350	H	0.516952	0.536391	0.509425
	O351	O	0.895088	0.995124	-0.180727
	H352	H	0.896607	0.984872	-0.180924
	H353	H	0.876497	1.004644	-0.182475
	O354	O	0.859174	0.866837	1.092604
	H355	H	0.867388	0.858771	1.092993
	H356	H	0.869461	0.865939	1.079245
	O357	O	0.139226	-0.096074	-0.142853
	H358	H	0.140860	-0.127292	-0.149748
	H359	H	0.140925	-0.087191	-0.159673
	O360	O	0.158890	0.191673	0.800769
	H361	H	0.160270	0.206794	0.787958
	H362	H	0.160607	0.193601	0.812523
	O363	O	0.925690	-0.015801	-0.031033
	H364	H	0.920565	-0.008450	-0.027469
	H365	H	0.936521	-0.005989	-0.025501
	O366	O	-0.096495	-0.090535	1.121157
	H367	H	-0.089122	-0.089634	1.122328
	H368	H	-0.105069	-0.087321	1.114364
	O369	O	0.815776	0.071106	0.870128
	H370	H	0.815025	0.084741	0.895511
	H371	H	0.823107	0.057716	0.850355
	O372	O	0.403718	0.364943	0.531259
	H373	H	0.408216	0.351987	0.520616
	H374	H	0.418300	0.359931	0.504372
	O375	O	-0.409842	-0.360427	1.376276
	H376	H	-0.420137	-0.370723	1.371378
	H377	H	-0.428078	-0.354937	1.368782
	O378	O	0.630645	0.688283	0.602949
	H379	H	0.650745	0.676967	0.608711
	H380	H	0.639415	0.676071	0.573934
	O381	O	-0.138340	0.892225	0.155162
	H382	H	-0.133326	0.873041	0.154898
	H383	H	-0.143174	0.885042	0.158091
	O384	O	0.415356	0.454700	0.437952
	H385	H	0.417846	0.463196	0.438849
	H386	H	0.434777	0.459863	0.442373
	O387	O	0.557627	0.501351	0.676138
	H388	H	0.566412	0.495535	0.689582
	H389	H	0.558057	0.494068	0.668468
	O390	O	1.100415	1.176066	0.183286
	H391	H	1.088352	1.153287	0.171457
	H392	H	1.087730	1.179432	0.176097
	O393	O	1.139326	-0.106428	1.028161
	H394	H	1.142322	-0.109071	1.020092
	H395	H	1.139238	-0.105888	1.029720
	O396	O	0.563841	0.401305	0.574009
	H397	H	0.579788	0.416732	0.588646
	H398	H	0.560701	0.402308	0.570877
	O399	O	0.699011	0.514411	0.606209
	H400	H	0.700230	0.526875	0.586337
	H401	H	0.696698	0.508916	0.612500
	O402	O	0.935251	1.073974	0.039531
	H403	H	0.953936	1.077377	0.041701
	H404	H	0.927887	1.047951	0.049741
	O405	O	0.608802	0.696422	0.634764
	H406	H	0.629096	0.698905	0.641113
	H407	H	0.617357	0.704365	0.623985
	O408	O	0.493461	0.330384	0.708724
	H409	H	0.470701	0.332960	0.715261
	H410	H	0.488732	0.320975	0.714767
	O411	O	1.036643	0.975936	0.880677
	H412	H	1.042378	0.985006	0.876618
	H413	H	1.037951	0.970626	0.874542
	O414	O	0.362780	0.311897	0.677359
	H415	H	0.368038	0.306936	0.637568
	H416	H	0.363214	0.348890	0.681285
	O417	O	-0.014319	1.193478	0.947173
	H418	H	-0.003945	1.203981	0.960796
	H419	H	-0.010566	1.189495	0.941386
	O420	O	-0.126655	0.874024	0.933985
	H421	H	-0.130715	0.885891	0.945964
	H422	H	-0.127765	0.874912	0.949235
	O423	O	0.025821	0.909505	0.018934
	H424	H	0.031461	0.914632	0.006597
	H425	H	0.016489	0.916715	0.024412
	O426	O	0.602090	0.430716	0.493828
	H427	H	0.608661	0.434904	0.487950
	H428	H	0.594094	0.424313	0.493711
	O429	O	0.439294	0.496421	0.446042
	H430	H	0.431329	0.488292	0.451733
	H431	H	0.441861	0.496018	0.467930
	O432	O	0.653228	0.360616	0.579032
	H433	H	0.662130	0.344738	0.582637
	H434	H	0.660603	0.374687	0.572572
	O435	O	0.163793	0.011085	0.021331
	H436	H	0.166128	0.016394	0.009063
	H437	H	0.180611	0.018274	0.021976
	O438	O	0.053668	0.917125	1.112183
	H439	H	0.069205	0.917463	1.102778
	H440	H	0.059066	0.925860	1.127007
	O441	O	0.402789	0.490633	0.706162
	H442	H	0.431247	0.491022	0.707475
	H443	H	0.415845	0.502424	0.716957
