data_Molecule from HDF5

_cell_length_a		16.459399
_cell_length_b		16.456736
_cell_length_c		16.406877
_cell_angle_alpha	90.175234
_cell_angle_beta	89.761556
_cell_angle_gamma	89.933841
_symmetry_space_group_name_H-M	'P 1'
_symmetry_Int_Tables_number		1

loop_
	_symmetry_equiv_pos_as_xyz
	x,y,z

loop_
	_atom_site_label
	_atom_site_type_symbol
	_atom_site_fract_x
	_atom_site_fract_y
	_atom_site_fract_z
	H0	H	0.403879	0.849498	0.723679
	H1	H	0.612505	0.165075	0.727347
	H2	H	0.613783	0.850103	0.280375
	H3	H	0.399932	0.165406	0.281801
	H4	H	0.727821	0.401113	0.846212
	H5	H	0.729867	0.614272	0.162874
	H6	H	0.288523	0.608258	0.846622
	H7	H	0.282724	0.398428	0.163050
	H8	H	0.848894	0.728196	0.398945
	H9	H	0.166301	0.725968	0.607159
	H10	H	0.849503	0.283978	0.612006
	H11	H	0.162338	0.280219	0.393291
	H12	H	0.849028	0.401095	0.725910
	H13	H	0.166401	0.607309	0.721971
	H14	H	0.847174	0.611823	0.284476
	H15	H	0.161438	0.395158	0.276123
	H16	H	0.406000	0.722871	0.845797
	H17	H	0.615390	0.732043	0.161980
	H18	H	0.614083	0.284090	0.847386
	H19	H	0.400010	0.284136	0.163556
	H20	H	0.729679	0.849261	0.396355
	H21	H	0.730820	0.163735	0.612135
	H22	H	0.285659	0.850202	0.608895
	H23	H	0.282079	0.164024	0.396578
	H24	H	0.899167	0.347475	0.226066
	H25	H	0.108350	0.665079	0.224446
	H26	H	0.110577	0.346430	0.785444
	H27	H	0.906621	0.664424	0.788345
	H28	H	0.230599	0.900625	0.344446
	H29	H	0.223919	0.109453	0.664122
	H30	H	0.784596	0.112704	0.345318
	H31	H	0.788748	0.905520	0.662226
	H32	H	0.348983	0.229629	0.899516
	H33	H	0.663902	0.230758	0.112025
	H34	H	0.348003	0.787383	0.110997
	H35	H	0.666008	0.789382	0.903239
	H36	H	0.347781	0.903747	0.226178
	H37	H	0.664343	0.114763	0.227351
	H38	H	0.347624	0.110841	0.786716
	H39	H	0.666024	0.907121	0.787672
	H40	H	0.900166	0.229118	0.345365
	H41	H	0.109750	0.227170	0.662961
	H42	H	0.114193	0.784630	0.343665
	H43	H	0.908066	0.790965	0.663466
	H44	H	0.228297	0.347345	0.900747
	H45	H	0.226302	0.665279	0.110473
	H46	H	0.782699	0.347861	0.111546
	H47	H	0.787987	0.663660	0.903655
	H48	H	0.417181	0.122493	0.598392
	H49	H	0.602719	0.892295	0.594288
	H50	H	0.593833	0.117806	0.420074
	H51	H	0.417059	0.895991	0.420295
	H52	H	0.595376	0.420511	0.117778
	H53	H	0.600456	0.600740	0.889718
	H54	H	0.417710	0.596914	0.119831
	H55	H	0.415424	0.414433	0.890656
	H56	H	0.118456	0.590419	0.409004
	H57	H	0.893127	0.595504	0.598891
	H58	H	0.117852	0.420713	0.589673
	H59	H	0.894452	0.418453	0.416205
	H60	H	0.121507	0.417622	0.597912
	H61	H	0.892021	0.601973	0.596908
	H62	H	0.121417	0.600217	0.413114
	H63	H	0.894943	0.417837	0.418673
	H64	H	0.414855	0.598466	0.120821
	H65	H	0.599733	0.590439	0.892677
	H66	H	0.591494	0.421037	0.116632
	H67	H	0.416786	0.421420	0.893033
	H68	H	0.597871	0.119368	0.417491
	H69	H	0.593582	0.893198	0.599211
	H70	H	0.416985	0.121242	0.592938
	H71	H	0.419536	0.894478	0.412838
	H72	H	0.918045	0.616389	0.089456
	H73	H	0.092673	0.396482	0.085212
	H74	H	0.096027	0.618170	0.915335
	H75	H	0.911403	0.390236	0.918635
	H76	H	0.097809	0.909713	0.618917
	H77	H	0.090853	0.094040	0.392320
	H78	H	0.924578	0.097734	0.614998
	H79	H	0.923507	0.914914	0.389627
	H80	H	0.618296	0.092528	0.915266
	H81	H	0.397902	0.092572	0.085465
	H82	H	0.618812	0.916017	0.089999
	H83	H	0.391952	0.922958	0.908976
	H84	H	0.617553	0.921513	0.091500
	H85	H	0.395283	0.089180	0.097636
	H86	H	0.621146	0.097868	0.913276
	H87	H	0.387322	0.906564	0.909926
	H88	H	0.912986	0.098487	0.618529
	H89	H	0.096813	0.095219	0.389696
	H90	H	0.101879	0.918835	0.616540
	H91	H	0.915129	0.913327	0.386780
	H92	H	0.101518	0.619877	0.914729
	H93	H	0.099752	0.392029	0.091839
	H94	H	0.914139	0.619841	0.094584
	H95	H	0.917286	0.388771	0.908587
	H96	H	0.412756	0.123506	0.595702
	H97	H	0.594496	0.896276	0.589448
	H98	H	0.593870	0.119273	0.415520
	H99	H	0.424648	0.898803	0.418328
	H100	H	0.593106	0.417222	0.118343
	H101	H	0.590977	0.596949	0.893725
	H102	H	0.414642	0.595412	0.120666
	H103	H	0.421684	0.415994	0.893969
	H104	H	0.116992	0.592484	0.419354
	H105	H	0.894441	0.597770	0.592798
	H106	H	0.121353	0.411323	0.590062
	H107	H	0.895325	0.420707	0.418034
	H108	H	0.920454	0.617303	0.096212
	H109	H	0.090232	0.393957	0.095138
	H110	H	0.097698	0.620566	0.910430
	H111	H	0.922740	0.393815	0.918257
	H112	H	0.092019	0.917022	0.614712
	H113	H	0.095424	0.089157	0.392907
	H114	H	0.917162	0.088090	0.614227
	H115	H	0.917218	0.920788	0.389647
	H116	H	0.618659	0.097774	0.919047
	H117	H	0.392531	0.101344	0.093440
	H118	H	0.620476	0.917873	0.095486
	H119	H	0.394620	0.914177	0.923319
	C120	C	0.384885	0.017185	0.626783
	C121	C	0.629065	0.998509	0.626500
	C122	C	0.628538	0.015269	0.383045
	C123	C	0.386497	0.999945	0.383846
	C124	C	0.627276	0.385804	0.013446
	C125	C	0.628983	0.628513	0.996477
	C126	C	0.385526	0.627522	0.014590
	C127	C	0.385085	0.384677	0.997033
	C128	C	0.014394	0.626916	0.382722
	C129	C	0.998642	0.628349	0.626145
	C130	C	0.015464	0.384932	0.625092
	C131	C	0.997767	0.384186	0.382382
	C132	C	0.883951	0.514063	0.126342
	C133	C	0.126761	0.498137	0.124837
	C134	C	0.129624	0.514402	0.882655
	C135	C	0.886313	0.496201	0.884173
	C136	C	0.130231	0.883230	0.511663
	C137	C	0.126947	0.126647	0.495800
	C138	C	0.885249	0.128142	0.511881
	C139	C	0.887306	0.885790	0.494362
	C140	C	0.515224	0.128647	0.883782
	C141	C	0.498921	0.128276	0.125820
	C142	C	0.514651	0.886097	0.126152
	C143	C	0.497332	0.885272	0.883357
	C144	C	0.384364	0.897363	0.685074
	C145	C	0.631085	0.117536	0.687016
	C146	C	0.631835	0.897220	0.320956
	C147	C	0.382334	0.118162	0.322251
	C148	C	0.688301	0.382669	0.894219
	C149	C	0.689519	0.631925	0.115437
	C150	C	0.327937	0.627198	0.894464
	C151	C	0.323436	0.381112	0.115817
	C152	C	0.895921	0.687766	0.380940
	C153	C	0.118516	0.686499	0.626292
	C154	C	0.896710	0.324482	0.629078
	C155	C	0.115284	0.321362	0.376596
	C156	C	0.896487	0.383033	0.685756
	C157	C	0.118641	0.627805	0.683615
	C158	C	0.894998	0.629552	0.324135
	C159	C	0.114814	0.378461	0.317992
	C160	C	0.386241	0.684595	0.894124
	C161	C	0.632345	0.690503	0.114971
	C162	C	0.631427	0.324518	0.894757
	C163	C	0.381977	0.324242	0.116023
	C164	C	0.689782	0.896746	0.378523
	C165	C	0.690053	0.116962	0.629685
	C166	C	0.325912	0.897656	0.627745
	C167	C	0.323433	0.117479	0.379175
	C168	C	0.881048	0.395135	0.186627
	C169	C	0.127491	0.617468	0.185102
	C170	C	0.130460	0.394315	0.824032
	C171	C	0.886567	0.616418	0.826787
	C172	C	0.190641	0.881941	0.392219
	C173	C	0.185303	0.128560	0.616131
	C174	C	0.824754	0.130940	0.392749
	C175	C	0.828612	0.886098	0.614641
	C176	C	0.396132	0.188813	0.881990
	C177	C	0.616814	0.189984	0.129478
	C178	C	0.395777	0.826487	0.129380
	C179	C	0.617805	0.828161	0.883535
	C180	C	0.395671	0.884611	0.186733
	C181	C	0.617172	0.131999	0.186814
	C182	C	0.395341	0.130016	0.825470
	C183	C	0.617979	0.886677	0.826129
	C184	C	0.882413	0.188824	0.392762
	C185	C	0.128663	0.187032	0.615295
	C186	C	0.132736	0.823999	0.391779
	C187	C	0.887642	0.829110	0.615059
	C188	C	0.188720	0.394918	0.881603
	C189	C	0.186065	0.617550	0.128004
	C190	C	0.823015	0.395420	0.129614
	C191	C	0.827750	0.616283	0.884011
	C192	C	0.408716	0.100788	0.602578
	C193	C	0.604246	0.915663	0.601309
	C194	C	0.602728	0.097533	0.409989
	C195	C	0.412728	0.917749	0.409967
	C196	C	0.600929	0.412053	0.096104
	C197	C	0.604031	0.603129	0.913551
	C198	C	0.409046	0.603860	0.098479
	C199	C	0.410645	0.410155	0.914033
	C200	C	0.097399	0.601530	0.407040
	C201	C	0.915074	0.605070	0.602781
	C202	C	0.098509	0.409507	0.599785
	C203	C	0.916153	0.411321	0.409833
	C204	C	0.909838	0.596443	0.100656
	C205	C	0.101594	0.415647	0.098537
	C206	C	0.105400	0.597803	0.906773
	C207	C	0.910261	0.412717	0.908237
	C208	C	0.104812	0.908006	0.594949
	C209	C	0.101869	0.100318	0.413393
	C210	C	0.910909	0.102269	0.594450
	C211	C	0.911547	0.909682	0.410486
	C212	C	0.597772	0.103357	0.908631
	C213	C	0.416629	0.101954	0.099684
	C214	C	0.597465	0.911364	0.100076
	C215	C	0.413180	0.908001	0.907052
	Zn216	Zn	0.506455	0.007843	0.754950
	Zn217	Zn	0.507148	0.007889	0.254493
	Zn218	Zn	0.756495	0.505235	0.005107
	Zn219	Zn	0.257171	0.506072	0.005469
	Zn220	Zn	0.008136	0.755883	0.502598
	Zn221	Zn	0.006519	0.255848	0.503960
	Zn222	Zn	0.007545	0.505031	0.754387
	Zn223	Zn	0.005113	0.505913	0.254078
	Zn224	Zn	0.506682	0.756843	0.005803
	Zn225	Zn	0.506517	0.257090	0.005223
	Zn226	Zn	0.757335	0.006830	0.503657
	Zn227	Zn	0.256710	0.007737	0.504328
	N228	N	0.420005	0.972805	0.684658
	N229	N	0.593906	0.042844	0.685112
	N230	N	0.594494	0.971901	0.323710
	N231	N	0.420927	0.044176	0.325175
	N232	N	0.685874	0.420077	0.969209
	N233	N	0.687561	0.593937	0.040776
	N234	N	0.327302	0.592664	0.970473
	N235	N	0.325240	0.418038	0.040774
	N236	N	0.971163	0.686214	0.416704
	N237	N	0.042813	0.687233	0.591459
	N238	N	0.971604	0.325572	0.591736
	N239	N	0.041441	0.324815	0.415679
	N240	N	0.971301	0.419753	0.683387
	N241	N	0.043084	0.592596	0.684018
	N242	N	0.969798	0.592307	0.325009
	N243	N	0.040715	0.416842	0.321275
	N244	N	0.421094	0.685151	0.970103
	N245	N	0.595168	0.688430	0.040117
	N246	N	0.594209	0.326361	0.969801
	N247	N	0.419496	0.326399	0.041139
	N248	N	0.687785	0.971224	0.416514
	N249	N	0.688726	0.041959	0.592663
	N250	N	0.326024	0.973187	0.592315
	N251	N	0.325972	0.043002	0.416845
	N252	N	0.918108	0.469937	0.184994
	N253	N	0.091579	0.541994	0.183513
	N254	N	0.094387	0.469592	0.824519
	N255	N	0.922056	0.540835	0.826755
	N256	N	0.189430	0.917965	0.467959
	N257	N	0.184505	0.091772	0.540787
	N258	N	0.826205	0.094188	0.467804
	N259	N	0.827971	0.920077	0.538295
	N260	N	0.471620	0.188132	0.917595
	N261	N	0.542188	0.187575	0.092327
	N262	N	0.471006	0.827076	0.092777
	N263	N	0.541561	0.826958	0.918073
	N264	N	0.470933	0.920774	0.184817
	N265	N	0.542814	0.094266	0.184620
	N266	N	0.470296	0.093304	0.826355
	N267	N	0.541856	0.921230	0.825648
	N268	N	0.919278	0.187021	0.467809
	N269	N	0.093292	0.186223	0.539654
	N270	N	0.096137	0.824607	0.467269
	N271	N	0.923255	0.828675	0.539145
	N272	N	0.188337	0.470577	0.917266
	N273	N	0.186103	0.542283	0.091552
	N274	N	0.824292	0.470594	0.093406
	N275	N	0.827358	0.540461	0.918904
	O276	O	0.018998	0.132263	-0.138973
	H277	H	0.033480	0.133510	-0.141254
	H278	H	0.022735	0.141130	-0.146089
	O279	O	1.163008	0.191163	0.993257
	H280	H	1.147619	0.177206	0.979489
	H281	H	1.187682	0.205717	0.992635
	O282	O	0.493660	0.624776	0.607454
	H283	H	0.486659	0.641964	0.602620
	H284	H	0.522308	0.627274	0.595839
	O285	O	0.715020	0.711750	0.709193
	H286	H	0.745170	0.741774	0.737501
	H287	H	0.713106	0.692540	0.689452
	O288	O	0.947775	0.893862	-0.010639
	H289	H	0.953727	0.885353	-0.009432
	H290	H	0.959117	0.902766	0.001211
	O291	O	-0.093148	0.071227	0.114217
	H292	H	-0.119437	0.073205	0.116024
	H293	H	-0.081830	0.078181	0.113565
	O294	O	0.162082	0.179396	1.188133
	H295	H	0.163824	0.189100	1.151877
	H296	H	0.175194	0.170800	1.194682
	O297	O	0.316067	0.650204	0.318043
	H298	H	0.322024	0.655866	0.343193
	H299	H	0.330693	0.636706	0.311257
	O300	O	0.287606	0.502924	0.315682
	H301	H	0.283526	0.522826	0.325284
	H302	H	0.268755	0.495009	0.312711
	O303	O	0.534991	0.541972	0.683835
	H304	H	0.536374	0.531976	0.678396
	H305	H	0.531873	0.549687	0.685348
	O306	O	0.408707	0.452432	0.702150
	H307	H	0.424282	0.450487	0.706488
	H308	H	0.425021	0.459223	0.697727
	O309	O	0.524320	0.304422	0.300191
	H310	H	0.505093	0.296471	0.298631
	H311	H	0.508215	0.297559	0.308535
	O312	O	0.010433	0.823237	1.124145
	H313	H	0.016632	0.828349	1.132900
	H314	H	0.026721	0.820244	1.126000
	O315	O	0.562687	0.339932	0.661191
	H316	H	0.559548	0.336637	0.670172
	H317	H	0.574191	0.330468	0.643427
	O318	O	0.453953	0.536023	0.648272
	H319	H	0.465205	0.538444	0.636943
	H320	H	0.477216	0.545207	0.638148
	O321	O	-0.174893	-0.179364	-0.176080
	H322	H	-0.165920	-0.154607	-0.159268
	H323	H	-0.152887	-0.163173	-0.162983
	O324	O	0.697883	0.511840	0.293123
	H325	H	0.694386	0.509005	0.296808
	H326	H	0.724480	0.514051	0.267648
	O327	O	0.619230	0.646341	0.712108
	H328	H	0.617711	0.627129	0.711989
	H329	H	0.629384	0.654468	0.726874
	O330	O	0.216361	0.974136	-0.202514
	H331	H	0.235944	0.959650	-0.220226
	H332	H	0.227744	0.976729	-0.198022
	O333	O	0.784291	0.175468	0.739220
	H334	H	0.795965	0.199520	0.745570
	H335	H	0.775240	0.194307	0.723717
	O336	O	-0.144777	-0.072734	0.214012
	H337	H	-0.153850	-0.076445	0.235906
	H338	H	-0.151364	-0.078721	0.218544
	O339	O	0.038911	0.801525	0.805592
	H340	H	0.028978	0.814453	0.811647
	H341	H	0.041844	0.786254	0.780736
	O342	O	0.054757	1.013326	0.955472
	H343	H	0.051482	1.008078	0.965461
	H344	H	0.060331	1.016022	0.951956
	O345	O	0.838966	1.167265	-0.077958
	H346	H	0.833093	1.147909	-0.079197
	H347	H	0.836956	1.169328	-0.075303
	O348	O	0.299054	0.715411	0.453185
	H349	H	0.294774	0.728299	0.446432
	H350	H	0.297619	0.712765	0.464191
	O351	O	0.163303	1.081140	0.998644
	H352	H	0.146518	1.087579	1.003159
	H353	H	0.162692	1.060514	0.996780
	O354	O	-0.025141	1.193135	0.157554
	H355	H	-0.005203	1.184144	0.151292
	H356	H	-0.015700	1.210667	0.163535
	O357	O	-0.153900	0.197568	0.891484
	H358	H	-0.148644	0.197139	0.901067
	H359	H	-0.154944	0.212917	0.885139
	O360	O	0.513675	0.610289	0.461367
	H361	H	0.517657	0.606577	0.444664
	H362	H	0.537021	0.607318	0.469464
	O363	O	-0.013938	-0.093717	1.004044
	H364	H	0.000688	-0.109936	1.005485
	H365	H	-0.026576	-0.094425	1.013986
	O366	O	0.686904	0.593948	0.403076
	H367	H	0.693903	0.605279	0.404485
	H368	H	0.687056	0.583660	0.405393
	O369	O	0.724711	0.723923	0.535322
	H370	H	0.726808	0.724063	0.532394
	H371	H	0.739623	0.740134	0.551041
	O372	O	0.818325	0.081257	1.032033
	H373	H	0.810013	0.076256	1.038036
	H374	H	0.817860	0.079312	1.055426
	O375	O	0.555103	0.444272	0.445605
	H376	H	0.567072	0.441821	0.444015
	H377	H	0.558161	0.428143	0.431097
	O378	O	0.302666	0.292761	0.520620
	H379	H	0.300257	0.299344	0.524352
	H380	H	0.282533	0.284459	0.534282
	O381	O	1.316673	0.319271	0.687914
	H382	H	1.309451	0.328594	0.662443
	H383	H	1.326032	0.343603	0.690027
	O384	O	0.480645	0.703070	0.299730
	H385	H	0.483210	0.706928	0.285148
	H386	H	0.495761	0.712142	0.286017
	O387	O	-0.118549	0.035409	0.971240
	H388	H	-0.112933	0.040525	0.959709
	H389	H	-0.111337	0.042826	0.992570
	O390	O	-0.281226	-0.495164	-0.351176
	H391	H	-0.291645	-0.474251	-0.351249
	H392	H	-0.264236	-0.497813	-0.328590
	O393	O	1.033382	1.074858	1.045057
	H394	H	1.029357	1.080038	1.032741
	H395	H	1.033737	1.070062	1.057565
	O396	O	1.102546	0.021220	0.206780
	H397	H	1.106027	0.024421	0.200272
	H398	H	1.109238	0.027722	0.217296
	O399	O	1.178693	-0.041848	1.040211
	H400	H	1.187846	-0.046024	1.043573
	H401	H	1.185486	-0.053753	1.039302
	O402	O	0.810802	0.826901	1.007364
	H403	H	0.816121	0.821722	1.011080
	H404	H	0.815785	0.832293	1.009474
	O405	O	1.222073	0.814849	-0.029304
	H406	H	1.229148	0.801167	-0.054331
	H407	H	1.241006	0.802870	-0.047516
	O408	O	0.830913	-0.173960	0.170940
	H409	H	0.835425	-0.163082	0.163555
	H410	H	0.847205	-0.162199	0.167057
	O411	O	0.722988	1.287770	0.482052
	H412	H	0.728357	1.291985	0.481879
	H413	H	0.744256	1.270679	0.464659
	O414	O	0.536179	0.716152	0.486256
	H415	H	0.551589	0.706389	0.482687
	H416	H	0.541173	0.719174	0.482554
	O417	O	0.623105	0.377028	0.551315
	H418	H	0.616050	0.392658	0.555538
	H419	H	0.628573	0.380977	0.550461
	O420	O	0.003315	-0.021744	-0.184301
	H421	H	-0.004783	-0.012486	-0.193056
	H422	H	0.019647	-0.018635	-0.173091
	O423	O	0.450308	0.391453	0.413454
	H424	H	0.448862	0.396662	0.421898
	H425	H	0.448991	0.386117	0.409518
	O426	O	0.687926	0.319419	0.321657
	H427	H	0.667467	0.325650	0.325524
	H428	H	0.665943	0.325666	0.324351
	O429	O	0.291413	0.467068	0.465851
	H430	H	0.287610	0.494011	0.479573
	H431	H	0.304003	0.472346	0.465046
	O432	O	0.322188	0.692472	0.694175
	H433	H	0.340275	0.666461	0.685915
	H434	H	0.344369	0.680860	0.674195
	O435	O	0.433365	0.361858	0.414928
	H436	H	0.427645	0.350138	0.421873
	H437	H	0.431711	0.373503	0.420239
	O438	O	0.300645	0.218385	-0.192179
	H439	H	0.291183	0.213204	-0.177135
	H440	H	0.289523	0.224752	-0.198902
	O441	O	1.104665	0.047665	0.205992
	H442	H	1.098765	0.042954	0.212635
	H443	H	1.094915	0.050235	0.189193
	O444	O	0.208199	0.803019	0.805459
	H445	H	0.229421	0.775140	0.776296
	H446	H	0.184918	0.811481	0.800264
	O447	O	0.579149	0.595149	0.453429
	H448	H	0.593483	0.580797	0.449548
	H449	H	0.594095	0.596467	0.446704
	O450	O	0.293963	0.517452	0.609724
	H451	H	0.308887	0.524564	0.610273
	H452	H	0.289473	0.532621	0.618854
	O453	O	0.520512	0.582526	0.294545
	H454	H	0.516503	0.580720	0.296369
	H455	H	0.498273	0.576313	0.293897
