data_Molecule from HDF5

_cell_length_a		16.296274
_cell_length_b		16.297089
_cell_length_c		16.242806
_cell_angle_alpha	90.027717
_cell_angle_beta	89.949039
_cell_angle_gamma	90.033767
_symmetry_space_group_name_H-M	'P 1'
_symmetry_Int_Tables_number		1

loop_
	_symmetry_equiv_pos_as_xyz
	x,y,z

loop_
	_atom_site_label
	_atom_site_type_symbol
	_atom_site_fract_x
	_atom_site_fract_y
	_atom_site_fract_z
	H0	H	0.402656	0.836727	0.713115
	H1	H	0.598182	0.163554	0.715208
	H2	H	0.597951	0.836586	0.286249
	H3	H	0.403120	0.164128	0.287099
	H4	H	0.715609	0.400811	0.836790
	H5	H	0.713362	0.598127	0.164455
	H6	H	0.285886	0.598585	0.835444
	H7	H	0.285798	0.402608	0.163718
	H8	H	0.836711	0.714656	0.401620
	H9	H	0.162932	0.715021	0.599043
	H10	H	0.836257	0.286012	0.597673
	H11	H	0.162988	0.285129	0.401594
	H12	H	0.836193	0.402341	0.714346
	H13	H	0.163522	0.597215	0.713366
	H14	H	0.835865	0.596003	0.287361
	H15	H	0.163953	0.402361	0.286657
	H16	H	0.402751	0.713904	0.835657
	H17	H	0.597593	0.714834	0.163739
	H18	H	0.598494	0.285819	0.836187
	H19	H	0.400919	0.285850	0.164193
	H20	H	0.714794	0.836560	0.401120
	H21	H	0.715621	0.162494	0.599737
	H22	H	0.286196	0.836215	0.597676
	H23	H	0.285804	0.163137	0.401905
	H24	H	0.903242	0.335701	0.213108
	H25	H	0.097181	0.663717	0.214150
	H26	H	0.097401	0.335845	0.786265
	H27	H	0.902096	0.663678	0.785667
	H28	H	0.214382	0.900952	0.335863
	H29	H	0.212933	0.096596	0.664502
	H30	H	0.786499	0.096977	0.336027
	H31	H	0.785428	0.901562	0.664023
	H32	H	0.336451	0.214616	0.901835
	H33	H	0.663434	0.216069	0.099042
	H34	H	0.336059	0.787115	0.096927
	H35	H	0.663369	0.786398	0.902432
	H36	H	0.335957	0.903540	0.213036
	H37	H	0.663756	0.098710	0.213811
	H38	H	0.336146	0.097505	0.787260
	H39	H	0.663881	0.903218	0.786902
	H40	H	0.901435	0.213410	0.335992
	H41	H	0.095904	0.212424	0.664295
	H42	H	0.096732	0.786140	0.335945
	H43	H	0.902084	0.786149	0.664459
	H44	H	0.214766	0.336270	0.901469
	H45	H	0.213837	0.663872	0.098185
	H46	H	0.785765	0.336443	0.098732
	H47	H	0.785856	0.664194	0.901937
	H48	H	0.405384	0.118982	0.598356
	H49	H	0.596710	0.882716	0.592246
	H50	H	0.594168	0.115153	0.412634
	H51	H	0.407701	0.884566	0.411064
	H52	H	0.591095	0.407952	0.116138
	H53	H	0.602735	0.592219	0.880701
	H54	H	0.399455	0.591017	0.117460
	H55	H	0.402218	0.402385	0.880727
	H56	H	0.113860	0.588708	0.411849
	H57	H	0.884175	0.588906	0.593073
	H58	H	0.114723	0.411639	0.594238
	H59	H	0.883308	0.402898	0.409814
	H60	H	0.118790	0.401597	0.597656
	H61	H	0.881511	0.594321	0.596470
	H62	H	0.117794	0.590719	0.400197
	H63	H	0.885439	0.409761	0.408887
	H64	H	0.412446	0.588893	0.113532
	H65	H	0.589286	0.587270	0.886270
	H66	H	0.593584	0.407098	0.117800
	H67	H	0.405052	0.414061	0.884804
	H68	H	0.597985	0.118389	0.404986
	H69	H	0.592190	0.882613	0.596067
	H70	H	0.409683	0.115372	0.591617
	H71	H	0.401332	0.881423	0.405954
	H72	H	0.904558	0.617619	0.094655
	H73	H	0.095697	0.382209	0.094937
	H74	H	0.092679	0.615593	0.909539
	H75	H	0.905979	0.383505	0.906184
	H76	H	0.088259	0.915257	0.613325
	H77	H	0.087956	0.090077	0.385050
	H78	H	0.902986	0.105465	0.621360
	H79	H	0.898117	0.899377	0.378333
	H80	H	0.618539	0.094420	0.902190
	H81	H	0.382840	0.093281	0.095058
	H82	H	0.612178	0.914293	0.084635
	H83	H	0.384439	0.908289	0.908122
	H84	H	0.618951	0.910858	0.104846
	H85	H	0.382650	0.095791	0.094111
	H86	H	0.615913	0.098302	0.911708
	H87	H	0.381774	0.906478	0.902813
	H88	H	0.897462	0.083356	0.617465
	H89	H	0.094390	0.098736	0.380739
	H90	H	0.088026	0.897562	0.618021
	H91	H	0.904302	0.918279	0.386043
	H92	H	0.096963	0.617312	0.905760
	H93	H	0.090029	0.384030	0.093320
	H94	H	0.907847	0.616791	0.095847
	H95	H	0.908751	0.384570	0.907198
	H96	H	0.400949	0.117376	0.590680
	H97	H	0.591281	0.884743	0.590396
	H98	H	0.589706	0.116264	0.404380
	H99	H	0.409729	0.882989	0.402383
	H100	H	0.593596	0.409472	0.116597
	H101	H	0.590456	0.601286	0.881688
	H102	H	0.408708	0.600968	0.118068
	H103	H	0.413986	0.404563	0.884527
	H104	H	0.118187	0.600337	0.408702
	H105	H	0.884155	0.595291	0.589785
	H106	H	0.115602	0.403271	0.587024
	H107	H	0.882042	0.406322	0.403120
	H108	H	0.906831	0.616165	0.091870
	H109	H	0.094896	0.384276	0.089325
	H110	H	0.091546	0.616672	0.903429
	H111	H	0.906651	0.384033	0.908289
	H112	H	0.103456	0.907127	0.619814
	H113	H	0.098949	0.088420	0.382697
	H114	H	0.919356	0.090664	0.613422
	H115	H	0.917721	0.902056	0.385756
	H116	H	0.614287	0.088439	0.909325
	H117	H	0.384209	0.093405	0.092298
	H118	H	0.619231	0.895043	0.091229
	H119	H	0.382465	0.903010	0.907506
	C120	C	0.378116	0.008780	0.621325
	C121	C	0.621514	0.991379	0.621742
	C122	C	0.622019	0.008240	0.378810
	C123	C	0.378283	0.991309	0.378395
	C124	C	0.621167	0.379363	0.008446
	C125	C	0.621906	0.622245	0.991216
	C126	C	0.378925	0.621576	0.008046
	C127	C	0.378193	0.378588	0.991630
	C128	C	0.008437	0.621205	0.378816
	C129	C	0.991411	0.621172	0.621373
	C130	C	0.008283	0.377465	0.621993
	C131	C	0.991639	0.378066	0.378436
	C132	C	0.878186	0.508507	0.122135
	C133	C	0.121765	0.491759	0.121375
	C134	C	0.121752	0.508037	0.878162
	C135	C	0.878727	0.492123	0.878483
	C136	C	0.121388	0.878147	0.508707
	C137	C	0.121673	0.120954	0.491273
	C138	C	0.878655	0.121185	0.508587
	C139	C	0.878267	0.878088	0.491700
	C140	C	0.508330	0.122051	0.878926
	C141	C	0.491691	0.122485	0.122005
	C142	C	0.508315	0.878798	0.121410
	C143	C	0.491181	0.878301	0.878044
	C144	C	0.381924	0.885349	0.675547
	C145	C	0.618591	0.114654	0.676858
	C146	C	0.618688	0.885340	0.324128
	C147	C	0.381912	0.114832	0.324315
	C148	C	0.676487	0.381466	0.885015
	C149	C	0.675848	0.619025	0.115387
	C150	C	0.324082	0.618738	0.884374
	C151	C	0.323432	0.381787	0.114943
	C152	C	0.885115	0.676126	0.381240
	C153	C	0.114292	0.676890	0.619331
	C154	C	0.884928	0.323463	0.618714
	C155	C	0.114525	0.323137	0.381090
	C156	C	0.885230	0.381156	0.676628
	C157	C	0.114753	0.618292	0.675849
	C158	C	0.884882	0.617287	0.324560
	C159	C	0.114844	0.381000	0.323835
	C160	C	0.382056	0.675974	0.884345
	C161	C	0.618729	0.677092	0.114933
	C162	C	0.618558	0.324115	0.885048
	C163	C	0.380925	0.324023	0.115033
	C164	C	0.677144	0.885513	0.381137
	C165	C	0.676768	0.114308	0.619471
	C166	C	0.323785	0.885367	0.618430
	C167	C	0.323429	0.114569	0.380995
	C168	C	0.881968	0.384895	0.175988
	C169	C	0.118124	0.614968	0.176224
	C170	C	0.118662	0.384785	0.823703
	C171	C	0.881323	0.615006	0.823284
	C172	C	0.176176	0.880786	0.384810
	C173	C	0.175414	0.117736	0.615302
	C174	C	0.824145	0.117822	0.384954
	C175	C	0.823311	0.880868	0.615243
	C176	C	0.385073	0.176521	0.881714
	C177	C	0.614561	0.177679	0.119121
	C178	C	0.385032	0.824339	0.118195
	C179	C	0.614657	0.823961	0.881223
	C180	C	0.384886	0.882295	0.175710
	C181	C	0.614951	0.119793	0.176684
	C182	C	0.385160	0.118659	0.824477
	C183	C	0.614721	0.882116	0.824019
	C184	C	0.881614	0.175427	0.384838
	C185	C	0.117449	0.175165	0.615330
	C186	C	0.118003	0.823507	0.384882
	C187	C	0.880954	0.823412	0.615168
	C188	C	0.176695	0.385150	0.881051
	C189	C	0.175974	0.614886	0.118627
	C190	C	0.823427	0.385316	0.119319
	C191	C	0.823966	0.615318	0.881490
	C192	C	0.399129	0.094914	0.599850
	C193	C	0.599673	0.905347	0.599708
	C194	C	0.600253	0.094446	0.400795
	C195	C	0.399708	0.905282	0.400057
	C196	C	0.599407	0.401482	0.094702
	C197	C	0.600391	0.600256	0.905162
	C198	C	0.400526	0.600042	0.094211
	C199	C	0.400442	0.400471	0.905247
	C200	C	0.094274	0.599661	0.400587
	C201	C	0.905415	0.599182	0.599461
	C202	C	0.094452	0.399154	0.599444
	C203	C	0.905934	0.399842	0.400612
	C204	C	0.899900	0.594683	0.100508
	C205	C	0.099847	0.405569	0.099203
	C206	C	0.100059	0.594272	0.899750
	C207	C	0.900713	0.406193	0.900756
	C208	C	0.099743	0.900126	0.594854
	C209	C	0.100166	0.099114	0.405095
	C210	C	0.900257	0.099587	0.595158
	C211	C	0.900237	0.900050	0.405498
	C212	C	0.594119	0.100193	0.901079
	C213	C	0.405360	0.100398	0.100498
	C214	C	0.594613	0.900298	0.099838
	C215	C	0.405139	0.899614	0.899713
	Zn216	Zn	0.499730	0.000340	0.750104
	Zn217	Zn	0.500103	0.000325	0.250072
	Zn218	Zn	0.750019	0.500386	-0.000110
	Zn219	Zn	0.250203	0.500338	-0.000634
	Zn220	Zn	-0.000252	0.749737	0.500028
	Zn221	Zn	-0.000280	0.249288	0.499604
	Zn222	Zn	0.000360	0.499814	0.749345
	Zn223	Zn	0.000378	0.499677	0.250061
	Zn224	Zn	0.500056	0.750079	-0.000302
	Zn225	Zn	0.499778	0.250423	0.000454
	Zn226	Zn	0.750667	-0.000365	0.500258
	Zn227	Zn	0.249953	-0.000166	0.499782
	N228	N	0.414986	0.962992	0.677508
	N229	N	0.585106	0.037192	0.678465
	N230	N	0.585116	0.962704	0.322597
	N231	N	0.415438	0.037470	0.322709
	N232	N	0.678168	0.415260	0.962633
	N233	N	0.678025	0.585601	0.037700
	N234	N	0.322026	0.585571	0.962108
	N235	N	0.321772	0.415081	0.037217
	N236	N	0.962822	0.678546	0.414083
	N237	N	0.036705	0.678560	0.586057
	N238	N	0.962641	0.321126	0.585491
	N239	N	0.036986	0.321299	0.414394
	N240	N	0.962893	0.413980	0.678441
	N241	N	0.037586	0.584358	0.677093
	N242	N	0.962466	0.584025	0.322738
	N243	N	0.037520	0.414414	0.322019
	N244	N	0.415436	0.677772	0.962063
	N245	N	0.585958	0.679260	0.036996
	N246	N	0.584771	0.322878	0.962529
	N247	N	0.414467	0.322319	0.037395
	N248	N	0.678941	0.963053	0.414550
	N249	N	0.678646	0.036786	0.585959
	N250	N	0.321395	0.962989	0.585329
	N251	N	0.321007	0.036852	0.413823
	N252	N	0.915265	0.462435	0.177896
	N253	N	0.085303	0.537189	0.178162
	N254	N	0.085226	0.462247	0.821906
	N255	N	0.914357	0.537323	0.821071
	N256	N	0.178424	0.913991	0.462638
	N257	N	0.177942	0.084816	0.537426
	N258	N	0.822303	0.084874	0.462881
	N259	N	0.821797	0.914273	0.537599
	N260	N	0.462621	0.178751	0.914776
	N261	N	0.537084	0.179281	0.086045
	N262	N	0.462774	0.822158	0.085135
	N263	N	0.536854	0.821540	0.914032
	N264	N	0.462453	0.915400	0.177716
	N265	N	0.537519	0.085920	0.178259
	N266	N	0.462738	0.085514	0.822478
	N267	N	0.537123	0.915098	0.821950
	N268	N	0.914540	0.177690	0.462797
	N269	N	0.084791	0.177312	0.537217
	N270	N	0.084736	0.821786	0.462745
	N271	N	0.914585	0.821642	0.537473
	N272	N	0.178593	0.462846	0.914083
	N273	N	0.178200	0.537338	0.085207
	N274	N	0.821157	0.463057	0.086342
	N275	N	0.822330	0.537913	0.915031
