data_Molecule from HDF5

_cell_length_a		16.537233
_cell_length_b		16.683300
_cell_length_c		16.532320
_cell_angle_alpha	89.929820
_cell_angle_beta	89.986344
_cell_angle_gamma	89.955261
_symmetry_space_group_name_H-M	'P 1'
_symmetry_Int_Tables_number		1

loop_
	_symmetry_equiv_pos_as_xyz
	x,y,z

loop_
	_atom_site_label
	_atom_site_type_symbol
	_atom_site_fract_x
	_atom_site_fract_y
	_atom_site_fract_z
	H0	H	0.388415	0.843430	0.711145
	H1	H	0.595630	0.155382	0.713255
	H2	H	0.598583	0.844924	0.268685
	H3	H	0.384870	0.154674	0.269033
	H4	H	0.710366	0.394592	0.833642
	H5	H	0.711304	0.601705	0.147476
	H6	H	0.269075	0.604043	0.836063
	H7	H	0.267257	0.390802	0.147672
	H8	H	0.835341	0.721521	0.385699
	H9	H	0.147320	0.719340	0.595837
	H10	H	0.834417	0.277243	0.598132
	H11	H	0.146168	0.275648	0.382585
	H12	H	0.832929	0.395938	0.710883
	H13	H	0.147759	0.601832	0.711235
	H14	H	0.833685	0.603806	0.270470
	H15	H	0.146453	0.391861	0.267844
	H16	H	0.384317	0.722004	0.836903
	H17	H	0.597622	0.721291	0.146482
	H18	H	0.598210	0.275308	0.835523
	H19	H	0.382496	0.274823	0.147389
	H20	H	0.714549	0.844463	0.385647
	H21	H	0.714561	0.153908	0.599535
	H22	H	0.271400	0.843425	0.594928
	H23	H	0.268120	0.155025	0.385318
	H24	H	0.882931	0.343835	0.214597
	H25	H	0.094578	0.653519	0.211759
	H26	H	0.098378	0.345252	0.766495
	H27	H	0.886857	0.655413	0.771109
	H28	H	0.212733	0.893346	0.334957
	H29	H	0.208308	0.100583	0.649842
	H30	H	0.768595	0.104561	0.335989
	H31	H	0.772003	0.895471	0.649163
	H32	H	0.334154	0.220706	0.887128
	H33	H	0.646469	0.222521	0.099547
	H34	H	0.337769	0.773936	0.102336
	H35	H	0.645465	0.776048	0.883512
	H36	H	0.335568	0.893820	0.213658
	H37	H	0.646762	0.106587	0.215813
	H38	H	0.332270	0.101847	0.773949
	H39	H	0.645895	0.894116	0.769458
	H40	H	0.881869	0.223403	0.336796
	H41	H	0.095639	0.219928	0.648263
	H42	H	0.100696	0.773927	0.337348
	H43	H	0.885923	0.776934	0.648149
	H44	H	0.216965	0.345908	0.881730
	H45	H	0.212272	0.652662	0.097036
	H46	H	0.769175	0.342697	0.094659
	H47	H	0.769643	0.654907	0.887127
	H48	H	0.403909	0.110048	0.581523
	H49	H	0.582475	0.890041	0.575470
	H50	H	0.580895	0.109300	0.407405
	H51	H	0.395352	0.884977	0.397940
	H52	H	0.579638	0.408842	0.103054
	H53	H	0.576780	0.585309	0.880951
	H54	H	0.401617	0.582499	0.102563
	H55	H	0.403520	0.409620	0.880450
	H56	H	0.101870	0.584296	0.399965
	H57	H	0.878740	0.587937	0.580080
	H58	H	0.102562	0.414277	0.584805
	H59	H	0.880277	0.409959	0.408052
	H60	H	0.104945	0.403088	0.579860
	H61	H	0.877892	0.589652	0.581232
	H62	H	0.103820	0.590116	0.401101
	H63	H	0.880466	0.414890	0.402693
	H64	H	0.407195	0.588412	0.102771
	H65	H	0.576231	0.592002	0.878927
	H66	H	0.578861	0.409606	0.103806
	H67	H	0.402828	0.412023	0.881033
	H68	H	0.577113	0.109898	0.402618
	H69	H	0.585266	0.885727	0.585915
	H70	H	0.394101	0.112643	0.578439
	H71	H	0.410569	0.890727	0.400159
	H72	H	0.895384	0.611284	0.080894
	H73	H	0.079629	0.388223	0.076939
	H74	H	0.080482	0.608188	0.905387
	H75	H	0.900024	0.386706	0.899583
	H76	H	0.072498	0.912880	0.600199
	H77	H	0.072440	0.089787	0.380723
	H78	H	0.894687	0.082475	0.604734
	H79	H	0.899788	0.916269	0.380332
	H80	H	0.600379	0.085563	0.907272
	H81	H	0.379310	0.085168	0.083655
	H82	H	0.603157	0.910206	0.079441
	H83	H	0.380772	0.910272	0.910753
	H84	H	0.602632	0.911525	0.076511
	H85	H	0.378038	0.091990	0.079378
	H86	H	0.603402	0.085724	0.899883
	H87	H	0.378841	0.915943	0.900207
	H88	H	0.912090	0.084871	0.598992
	H89	H	0.082705	0.093833	0.376754
	H90	H	0.079544	0.900899	0.606391
	H91	H	0.910401	0.910545	0.382051
	H92	H	0.081115	0.610402	0.901823
	H93	H	0.077594	0.386615	0.081285
	H94	H	0.903252	0.610014	0.084806
	H95	H	0.902411	0.388123	0.901522
	H96	H	0.397254	0.114570	0.588509
	H97	H	0.574672	0.889746	0.583722
	H98	H	0.575087	0.106604	0.407136
	H99	H	0.399719	0.890955	0.412514
	H100	H	0.578606	0.409064	0.102994
	H101	H	0.582339	0.588458	0.877452
	H102	H	0.399526	0.589828	0.105966
	H103	H	0.405273	0.411171	0.881559
	H104	H	0.101112	0.586909	0.405543
	H105	H	0.878593	0.589776	0.578930
	H106	H	0.100492	0.411801	0.572953
	H107	H	0.877402	0.408532	0.401660
	H108	H	0.901866	0.607642	0.076187
	H109	H	0.074756	0.388455	0.077860
	H110	H	0.076631	0.608483	0.902517
	H111	H	0.899407	0.388254	0.902233
	H112	H	0.086842	0.913896	0.604796
	H113	H	0.081511	0.082716	0.380432
	H114	H	0.903384	0.098720	0.606755
	H115	H	0.900883	0.904674	0.377143
	H116	H	0.603631	0.092663	0.904310
	H117	H	0.381587	0.085748	0.075955
	H118	H	0.602058	0.913580	0.079335
	H119	H	0.375644	0.903683	0.901961
	C120	C	0.368260	0.008703	0.613502
	C121	C	0.612994	0.991054	0.614310
	C122	C	0.611685	0.007109	0.371758
	C123	C	0.369049	0.991286	0.370233
	C124	C	0.611813	0.377113	-0.000288
	C125	C	0.611826	0.620453	0.982474
	C126	C	0.369948	0.619879	0.000755
	C127	C	0.369564	0.377366	0.983715
	C128	C	-0.000882	0.619939	0.369840
	C129	C	0.982222	0.620178	0.612044
	C130	C	-0.001040	0.378013	0.612172
	C131	C	0.982056	0.377495	0.370018
	C132	C	0.867709	0.507012	0.112898
	C133	C	0.110378	0.490057	0.111838
	C134	C	0.112424	0.507191	0.869585
	C135	C	0.868936	0.490786	0.869529
	C136	C	0.112660	0.877169	0.500429
	C137	C	0.110846	0.120055	0.483320
	C138	C	0.869524	0.120936	0.500275
	C139	C	0.871506	0.878571	0.483726
	C140	C	0.498863	0.120390	0.871380
	C141	C	0.482528	0.120835	0.113378
	C142	C	0.500190	0.878480	0.112557
	C143	C	0.481693	0.878204	0.870998
	C144	C	0.368818	0.890426	0.671613
	C145	C	0.614488	0.108243	0.673733
	C146	C	0.615842	0.891226	0.309816
	C147	C	0.366682	0.108008	0.309436
	C148	C	0.671237	0.375443	0.881183
	C149	C	0.671932	0.621469	0.100232
	C150	C	0.309544	0.622323	0.882910
	C151	C	0.307992	0.373628	0.100896
	C152	C	0.881779	0.680831	0.367321
	C153	C	0.100383	0.679191	0.614075
	C154	C	0.881089	0.318043	0.615209
	C155	C	0.099177	0.316067	0.365778
	C156	C	0.880356	0.376841	0.671648
	C157	C	0.100510	0.620982	0.671540
	C158	C	0.880916	0.622298	0.310258
	C159	C	0.099178	0.373717	0.308047
	C160	C	0.366466	0.681077	0.883521
	C161	C	0.615523	0.680655	0.099876
	C162	C	0.615225	0.316263	0.882256
	C163	C	0.365257	0.315516	0.100567
	C164	C	0.673624	0.890962	0.367972
	C165	C	0.673579	0.107560	0.616892
	C166	C	0.310827	0.890482	0.613667
	C167	C	0.308636	0.108335	0.367478
	C168	C	0.864964	0.390274	0.173680
	C169	C	0.113008	0.606756	0.172206
	C170	C	0.116456	0.391346	0.807346
	C171	C	0.867650	0.608394	0.810354
	C172	C	0.173133	0.874843	0.382455
	C173	C	0.169584	0.120505	0.602151
	C174	C	0.808497	0.123242	0.382833
	C175	C	0.811516	0.876408	0.601933
	C176	C	0.381036	0.180643	0.868624
	C177	C	0.599441	0.182098	0.117393
	C178	C	0.383851	0.815912	0.118313
	C179	C	0.598846	0.817044	0.866458
	C180	C	0.382755	0.875151	0.173984
	C181	C	0.599701	0.124209	0.175026
	C182	C	0.380146	0.121641	0.812432
	C183	C	0.599043	0.875952	0.810007
	C184	C	0.865127	0.182169	0.383358
	C185	C	0.113393	0.179681	0.601395
	C186	C	0.117202	0.815551	0.383619
	C187	C	0.868094	0.817477	0.601288
	C188	C	0.175004	0.391626	0.865007
	C189	C	0.171484	0.606363	0.114980
	C190	C	0.808328	0.389593	0.114193
	C191	C	0.809396	0.608170	0.868089
	C192	C	0.391625	0.090996	0.589765
	C193	C	0.587920	0.909681	0.589066
	C194	C	0.585345	0.087640	0.398310
	C195	C	0.394588	0.910020	0.396098
	C196	C	0.586346	0.402059	0.081837
	C197	C	0.585620	0.595719	0.900312
	C198	C	0.395540	0.594209	0.082537
	C199	C	0.396300	0.403493	0.902180
	C200	C	0.080959	0.594462	0.394902
	C201	C	0.899735	0.596184	0.587181
	C202	C	0.081186	0.402867	0.586637
	C203	C	0.900551	0.403526	0.396613
	C204	C	0.892894	0.588367	0.087827
	C205	C	0.084783	0.408853	0.086058
	C206	C	0.086723	0.587890	0.895726
	C207	C	0.893653	0.408912	0.893902
	C208	C	0.086932	0.902137	0.582515
	C209	C	0.086041	0.095699	0.400885
	C210	C	0.895798	0.095744	0.582155
	C211	C	0.896509	0.903477	0.401414
	C212	C	0.581033	0.095316	0.896727
	C213	C	0.400886	0.094901	0.087208
	C214	C	0.581351	0.904467	0.085983
	C215	C	0.399768	0.902869	0.897034
	Zn216	Zn	0.490304	-0.000008	0.742545
	Zn217	Zn	0.491137	-0.000946	0.241508
	Zn218	Zn	0.739638	0.498417	-0.009764
	Zn219	Zn	0.241189	0.498375	-0.008074
	Zn220	Zn	-0.008902	0.749094	0.491137
	Zn221	Zn	-0.009240	0.249356	0.491801
	Zn222	Zn	-0.009684	0.498982	0.740534
	Zn223	Zn	-0.010153	0.498100	0.241595
	Zn224	Zn	0.490814	0.749715	-0.007815
	Zn225	Zn	0.490946	0.248938	-0.008248
	Zn226	Zn	0.741836	-0.000889	0.492624
	Zn227	Zn	0.239547	-0.000472	0.491575
	N228	N	0.403713	0.965041	0.671975
	N229	N	0.577308	0.034770	0.672254
	N230	N	0.577972	0.964473	0.311937
	N231	N	0.403678	0.034450	0.311298
	N232	N	0.669334	0.412518	0.955295
	N233	N	0.669632	0.584823	0.026019
	N234	N	0.311328	0.585155	0.956983
	N235	N	0.310308	0.411254	0.027018
	N236	N	0.956390	0.679633	0.403559
	N237	N	0.025788	0.678702	0.577885
	N238	N	0.955954	0.318391	0.579343
	N239	N	0.025178	0.318159	0.403571
	N240	N	0.954933	0.413392	0.670092
	N241	N	0.025906	0.585161	0.670528
	N242	N	0.955074	0.585176	0.311593
	N243	N	0.025294	0.411107	0.310439
	N244	N	0.403319	0.679692	0.957809
	N245	N	0.578928	0.680195	0.025361
	N246	N	0.579140	0.316872	0.957163
	N247	N	0.402877	0.317731	0.026635
	N248	N	0.671012	0.963902	0.406157
	N249	N	0.672733	0.033636	0.580640
	N250	N	0.310075	0.965105	0.578598
	N251	N	0.309668	0.034508	0.404515
	N252	N	0.900950	0.464395	0.173272
	N253	N	0.075774	0.533377	0.170362
	N254	N	0.078183	0.464187	0.810233
	N255	N	0.903867	0.534267	0.811005
	N256	N	0.170607	0.912516	0.456285
	N257	N	0.168332	0.084348	0.527649
	N258	N	0.810947	0.086079	0.456886
	N259	N	0.813114	0.913477	0.527691
	N260	N	0.455912	0.179931	0.904498
	N261	N	0.525537	0.180184	0.079958
	N262	N	0.457778	0.817726	0.080758
	N263	N	0.524673	0.818076	0.903606
	N264	N	0.456181	0.913473	0.170669
	N265	N	0.525661	0.086984	0.172919
	N266	N	0.454678	0.085184	0.813665
	N267	N	0.525178	0.913290	0.812618
	N268	N	0.902160	0.180988	0.457544
	N269	N	0.077750	0.179646	0.526356
	N270	N	0.080392	0.816762	0.457979
	N271	N	0.904318	0.818552	0.526567
	N272	N	0.172850	0.464628	0.902958
	N273	N	0.170131	0.532678	0.078146
	N274	N	0.809781	0.463208	0.077240
	N275	N	0.810128	0.534097	0.904058
	O276	O	0.210483	0.777807	-0.034676
	H277	H	0.204712	0.784766	-0.037659
	H278	H	0.230619	0.763462	-0.043813
	O279	O	0.460650	0.683156	0.310809
	H280	H	0.468293	0.675427	0.297721
	H281	H	0.458534	0.678022	0.318031
	O282	O	0.824288	-0.187409	1.168671
	H283	H	0.826717	-0.188784	1.132014
	H284	H	0.821698	-0.186188	1.173525
	O285	O	0.397984	0.324113	0.367316
	H286	H	0.398461	0.331507	0.385810
	H287	H	0.402752	0.337762	0.375638
	O288	O	0.501264	0.468747	0.525800
	H289	H	0.501876	0.455960	0.526550
	H290	H	0.499069	0.483861	0.522766
	O291	O	0.291354	0.302995	0.690207
	H292	H	0.325389	0.294816	0.682773
	H293	H	0.265538	0.275037	0.701949
	O294	O	1.517473	0.281556	1.275758
	H295	H	1.513658	0.254114	1.260918
	H296	H	1.514235	0.283802	1.288665
	O297	O	0.477281	0.283265	0.656111
	H298	H	0.491643	0.284695	0.643516
	H299	H	0.480966	0.267762	0.670951
	O300	O	-0.009341	-0.097613	0.777697
	H301	H	-0.013106	-0.100933	0.764059
	H302	H	0.017664	-0.095921	0.784996
	O303	O	0.266028	0.552525	0.552902
	H304	H	0.271897	0.540254	0.567248
	H305	H	0.254654	0.557618	0.557064
	O306	O	0.669369	0.555721	0.688508
	H307	H	0.671529	0.572997	0.694578
	H308	H	0.681299	0.571320	0.698184
	O309	O	0.491960	0.418726	0.714014
	H310	H	0.504053	0.415183	0.702255
	H311	H	0.487878	0.401681	0.719046
	O312	O	0.581333	0.418076	0.442578
	H313	H	0.595702	0.420582	0.442216
	H314	H	0.573509	0.417697	0.447885
	O315	O	0.932886	1.039125	0.788465
	H316	H	0.949335	1.048717	0.784058
	H317	H	0.905498	1.051372	0.774723
	O318	O	0.180496	0.170103	0.816291
	H319	H	0.168895	0.162355	0.840318
	H320	H	0.160124	0.154309	0.829841
	O321	O	0.513225	0.322277	0.551844
	H322	H	0.520888	0.322625	0.542763
	H323	H	0.525600	0.341019	0.560907
	O324	O	0.964470	0.776661	0.150880
	H325	H	0.944270	0.769686	0.148339
	H326	H	0.963861	0.765397	0.153713
	O327	O	-0.001600	0.009132	1.227329
	H328	H	-0.021907	-0.003326	1.220719
	H329	H	-0.005119	0.005982	1.236347
	O330	O	0.009229	1.013878	-0.009373
	H331	H	0.012811	1.013771	-0.012855
	H332	H	0.012066	1.017444	0.001080
	O333	O	0.775514	0.109458	0.855535
	H334	H	0.764505	0.095939	0.859986
	H335	H	0.759817	0.125013	0.857983
	O336	O	0.696130	0.292975	0.286042
	H337	H	0.704987	0.290269	0.280731
	H338	H	0.674186	0.298769	0.286442
	O339	O	0.840368	0.222017	0.993721
	H340	H	0.833813	0.220637	0.970616
	H341	H	0.834996	0.226519	1.003129
	O342	O	0.176852	0.196607	0.183324
	H343	H	0.178843	0.161033	0.186182
	H344	H	0.175412	0.200108	0.200301
	O345	O	0.204948	1.223511	1.011421
	H346	H	0.204005	1.215907	1.044841
	H347	H	0.232880	1.237796	1.020111
	O348	O	0.672305	0.462563	0.277698
	H349	H	0.679293	0.449936	0.288791
	H350	H	0.692220	0.459640	0.266204
	O351	O	-0.009496	0.877937	0.124949
	H352	H	0.003224	0.875980	0.111643
	H353	H	-0.018680	0.847811	0.139709
	O354	O	0.180906	-0.185898	1.168539
	H355	H	0.183325	-0.181856	1.159073
	H356	H	0.178979	-0.191274	1.179752
	O357	O	0.268944	0.276317	0.524148
	H358	H	0.260448	0.261352	0.537142
	H359	H	0.252096	0.280138	0.518932
	O360	O	0.330802	0.454462	0.449361
	H361	H	0.332984	0.458980	0.466465
	H362	H	0.338718	0.465791	0.438846
	O363	O	-0.001739	-0.223644	-0.141083
	H364	H	-0.003272	-0.233795	-0.155981
	H365	H	0.010523	-0.223541	-0.140317
	O366	O	0.277683	0.469445	0.705939
	H367	H	0.282962	0.437682	0.701361
	H368	H	0.253385	0.453590	0.727602
	O369	O	1.202579	-0.212106	-0.218125
	H370	H	1.190522	-0.208619	-0.195937
	H371	H	1.233247	-0.244557	-0.249902
	O372	O	1.004222	1.215279	0.202612
	H373	H	1.016531	1.238673	0.221811
	H374	H	1.008721	1.207167	0.186134
	O375	O	0.851089	0.194791	0.117910
	H376	H	0.867250	0.195917	0.118035
	H377	H	0.849539	0.188382	0.112256
	O378	O	0.597330	0.493146	0.537205
	H379	H	0.598252	0.496553	0.531266
	H380	H	0.593980	0.493936	0.542248
	O381	O	0.210479	0.956181	0.774395
	H382	H	0.239961	0.950758	0.744319
	H383	H	0.209573	0.936689	0.783615
	O384	O	1.030596	-0.106279	0.956567
	H385	H	1.028758	-0.099656	0.950160
	H386	H	1.035469	-0.106915	0.953506
	O387	O	0.884943	0.776015	0.019454
	H388	H	0.878134	0.774759	0.023732
	H389	H	0.899445	0.775936	0.018701
	O390	O	0.704404	0.277864	0.460509
	H391	H	0.722221	0.260047	0.452590
	H392	H	0.709683	0.277150	0.451428
	O393	O	0.500324	0.585188	0.290393
	H394	H	0.485817	0.580814	0.291513
	H395	H	0.511434	0.559021	0.285626
	O396	O	-0.147404	0.926668	0.863570
	H397	H	-0.142517	0.926306	0.850755
	H398	H	-0.130049	0.936488	0.863068
	O399	O	0.204932	0.037604	1.207102
	H400	H	0.190588	0.021051	1.220012
	H401	H	0.215575	0.025246	1.217770
	O402	O	0.704346	-0.339060	0.685926
	H403	H	0.678813	-0.329825	0.683309
	H404	H	0.726928	-0.312032	0.705457
	O405	O	1.678610	0.499563	0.448631
	H406	H	1.683503	0.492041	0.458289
	H407	H	1.677286	0.506207	0.443753
	O408	O	-0.036460	0.049989	0.169810
	H409	H	-0.040209	0.019695	0.164185
	H410	H	-0.039811	0.068033	0.160210
	O411	O	0.768511	0.858279	0.988372
	H412	H	0.769247	0.860527	0.967871
	H413	H	0.765208	0.868555	0.984178
	O414	O	0.361753	0.533056	0.354738
	H415	H	0.359142	0.551611	0.348731
	H416	H	0.355279	0.546605	0.344841
	O417	O	0.697325	0.706779	0.284999
	H418	H	0.698412	0.712424	0.265936
	H419	H	0.673177	0.684669	0.297472
	O420	O	0.444407	0.593087	0.682362
	H421	H	0.442315	0.578064	0.669920
	H422	H	0.432328	0.578730	0.691145
	O423	O	-0.102608	-0.036275	1.052960
	H424	H	-0.092774	-0.017944	1.062580
	H425	H	-0.094204	-0.036519	1.045733
	O426	O	0.645670	0.336936	0.667828
	H427	H	0.627850	0.343241	0.658519
	H428	H	0.654727	0.339027	0.675395
	O429	O	1.073076	1.174773	0.958446
	H430	H	1.067807	1.172671	0.963039
	H431	H	1.089710	1.172300	0.959948
	O432	O	0.484250	0.481425	0.489645
	H433	H	0.495716	0.492856	0.499917
	H434	H	0.484877	0.482444	0.478020
	O435	O	-0.433995	0.709951	-0.301665
	H436	H	-0.432560	0.703526	-0.308304
	H437	H	-0.448150	0.712477	-0.286559
	O438	O	-0.200199	-0.040847	0.191042
	H439	H	-0.207679	-0.057295	0.192196
	H440	H	-0.208016	-0.041889	0.195119
	O441	O	-0.302565	-0.292715	-0.472451
	H442	H	-0.303247	-0.294851	-0.469454
	H443	H	-0.285891	-0.281430	-0.469691
	O444	O	0.584106	0.718732	0.415130
	H445	H	0.591245	0.711057	0.425100
	H446	H	0.584821	0.712254	0.393719
	O447	O	-0.034520	1.218936	0.774727
	H448	H	-0.029139	1.224625	0.798450
	H449	H	-0.031612	1.236499	0.749804
	O450	O	-0.158714	0.805832	0.840816
	H451	H	-0.154234	0.810147	0.861967
	H452	H	-0.141477	0.825770	0.852864
	O453	O	0.282475	0.706759	0.282790
	H454	H	0.293515	0.694918	0.302891
	H455	H	0.295263	0.711513	0.285178
	O456	O	0.593970	0.469467	1.366509
	H457	H	0.591587	0.439320	1.368870
	H458	H	0.588272	0.469704	1.381297
	O459	O	1.024758	1.022281	-0.201065
	H460	H	1.010459	1.015256	-0.189595
	H461	H	1.031487	0.988618	-0.211819
	O462	O	0.275953	0.711401	0.469397
	H463	H	0.273732	0.716025	0.474002
	H464	H	0.275936	0.722793	0.467611
	O465	O	1.342173	0.481869	0.408144
	H466	H	1.341810	0.484527	0.408969
	H467	H	1.345945	0.469718	0.418588
	O468	O	0.304638	0.687939	0.678507
	H469	H	0.317597	0.671579	0.651785
	H470	H	0.332589	0.669480	0.670222
	O471	O	0.790398	0.199753	0.794271
	H472	H	0.800357	0.212635	0.801605
	H473	H	0.812646	0.186355	0.803139
	O474	O	0.390958	0.507117	0.348431
	H475	H	0.379236	0.504948	0.356658
	H476	H	0.387241	0.494475	0.337114
	O477	O	1.187907	0.058785	2.007038
	H478	H	1.195332	0.053438	2.005022
	H479	H	1.187114	0.059909	2.008593
	O480	O	0.455641	0.730436	0.524356
	H481	H	0.468269	0.734090	0.535461
	H482	H	0.475298	0.728810	0.515331
	O483	O	0.192776	0.937208	0.025554
	H484	H	0.198595	0.934169	0.029710
	H485	H	0.191946	0.946528	0.034208
	O486	O	0.758067	0.063000	1.048307
	H487	H	0.756182	0.046132	1.057076
	H488	H	0.760206	0.077079	1.049185
	O489	O	0.962954	1.127883	0.022622
	H490	H	0.952008	1.117933	0.040062
	H491	H	0.989694	1.123779	0.019500
