data_Molecule from HDF5

_cell_length_a		16.254244
_cell_length_b		16.379082
_cell_length_c		16.324981
_cell_angle_alpha	90.035209
_cell_angle_beta	89.693778
_cell_angle_gamma	89.893453
_symmetry_space_group_name_H-M	'P 1'
_symmetry_Int_Tables_number		1

loop_
	_symmetry_equiv_pos_as_xyz
	x,y,z

loop_
	_atom_site_label
	_atom_site_type_symbol
	_atom_site_fract_x
	_atom_site_fract_y
	_atom_site_fract_z
	H0	H	0.402325	0.825577	0.724525
	H1	H	0.605974	0.147412	0.723612
	H2	H	0.611366	0.826376	0.284894
	H3	H	0.403258	0.146723	0.287908
	H4	H	0.725595	0.382693	0.843741
	H5	H	0.724656	0.589819	0.165210
	H6	H	0.294035	0.583738	0.841880
	H7	H	0.288520	0.386023	0.165479
	H8	H	0.843001	0.704442	0.401413
	H9	H	0.166864	0.702336	0.604595
	H10	H	0.843634	0.268205	0.607818
	H11	H	0.167932	0.267150	0.401000
	H12	H	0.844682	0.381548	0.725161
	H13	H	0.168714	0.584936	0.717668
	H14	H	0.843714	0.588652	0.285629
	H15	H	0.167993	0.382596	0.285445
	H16	H	0.405890	0.703463	0.843784
	H17	H	0.610924	0.706257	0.164290
	H18	H	0.609468	0.267254	0.843158
	H19	H	0.402123	0.268012	0.165569
	H20	H	0.727291	0.827105	0.400368
	H21	H	0.722656	0.148328	0.607164
	H22	H	0.288925	0.824294	0.606022
	H23	H	0.288195	0.147127	0.405376
	H24	H	0.901806	0.324628	0.223516
	H25	H	0.109622	0.645717	0.223724
	H26	H	0.109400	0.325164	0.786169
	H27	H	0.903683	0.646454	0.786257
	H28	H	0.224967	0.883487	0.343459
	H29	H	0.219378	0.084498	0.668343
	H30	H	0.786212	0.090522	0.344302
	H31	H	0.786734	0.884846	0.667149
	H32	H	0.343568	0.202553	0.904246
	H33	H	0.666974	0.204983	0.106328
	H34	H	0.344023	0.768719	0.107679
	H35	H	0.667054	0.765212	0.898082
	H36	H	0.344437	0.883952	0.223714
	H37	H	0.667900	0.089321	0.222653
	H38	H	0.342238	0.085380	0.791989
	H39	H	0.667252	0.881846	0.783652
	H40	H	0.901727	0.205153	0.344228
	H41	H	0.108166	0.204482	0.665294
	H42	H	0.110286	0.765757	0.343649
	H43	H	0.901545	0.766948	0.666281
	H44	H	0.223628	0.325013	0.902982
	H45	H	0.221430	0.647593	0.103777
	H46	H	0.787129	0.324899	0.106409
	H47	H	0.784904	0.645742	0.899477
	H48	H	0.420617	0.098817	0.598961
	H49	H	0.590348	0.875138	0.592352
	H50	H	0.600413	0.103783	0.410566
	H51	H	0.418066	0.873115	0.417196
	H52	H	0.597744	0.402696	0.117821
	H53	H	0.595856	0.584765	0.887314
	H54	H	0.407247	0.578689	0.123125
	H55	H	0.421256	0.388921	0.888476
	H56	H	0.120702	0.579198	0.416185
	H57	H	0.889758	0.579378	0.591656
	H58	H	0.124149	0.391805	0.601433
	H59	H	0.892009	0.397765	0.416754
	H60	H	0.120906	0.389577	0.588400
	H61	H	0.891740	0.570633	0.594301
	H62	H	0.117926	0.572512	0.415958
	H63	H	0.890342	0.396435	0.410079
	H64	H	0.416490	0.572148	0.117694
	H65	H	0.603251	0.571454	0.888250
	H66	H	0.586775	0.393555	0.116873
	H67	H	0.409149	0.390163	0.886150
	H68	H	0.589096	0.098807	0.411206
	H69	H	0.599877	0.871616	0.591242
	H70	H	0.407835	0.100295	0.590974
	H71	H	0.412009	0.870563	0.414849
	H72	H	0.913734	0.600197	0.096548
	H73	H	0.100225	0.370635	0.091518
	H74	H	0.099477	0.602603	0.907423
	H75	H	0.918617	0.367929	0.900786
	H76	H	0.105425	0.890539	0.623630
	H77	H	0.096859	0.067784	0.392248
	H78	H	0.913463	0.086964	0.622770
	H79	H	0.925422	0.903427	0.396631
	H80	H	0.620372	0.077957	0.918875
	H81	H	0.387989	0.082322	0.097180
	H82	H	0.620453	0.894884	0.090255
	H83	H	0.394230	0.902888	0.917682
	H84	H	0.619981	0.899173	0.095074
	H85	H	0.392088	0.075956	0.090570
	H86	H	0.620520	0.070563	0.912096
	H87	H	0.387626	0.893350	0.907337
	H88	H	0.906500	0.069089	0.620314
	H89	H	0.089049	0.082508	0.390494
	H90	H	0.093864	0.902781	0.616257
	H91	H	0.919972	0.884221	0.388261
	H92	H	0.097193	0.601378	0.910937
	H93	H	0.098298	0.369849	0.098540
	H94	H	0.920301	0.598307	0.095824
	H95	H	0.928637	0.378429	0.921191
	H96	H	0.407988	0.105250	0.605491
	H97	H	0.595233	0.871697	0.599862
	H98	H	0.596234	0.098950	0.420944
	H99	H	0.416935	0.871007	0.411096
	H100	H	0.599225	0.389203	0.122730
	H101	H	0.588695	0.572395	0.893266
	H102	H	0.418218	0.583929	0.121828
	H103	H	0.415995	0.399952	0.890489
	H104	H	0.121600	0.575190	0.409899
	H105	H	0.887337	0.576507	0.600363
	H106	H	0.118086	0.401632	0.593627
	H107	H	0.889576	0.391625	0.415023
	H108	H	0.915945	0.597831	0.090882
	H109	H	0.093430	0.372635	0.093657
	H110	H	0.100912	0.602472	0.911586
	H111	H	0.905284	0.370062	0.921430
	H112	H	0.088081	0.886152	0.619646
	H113	H	0.104739	0.079893	0.386120
	H114	H	0.924702	0.073899	0.615315
	H115	H	0.905403	0.900029	0.388505
	H116	H	0.623657	0.080428	0.909403
	H117	H	0.390504	0.073336	0.100271
	H118	H	0.622640	0.893128	0.096290
	H119	H	0.391693	0.888419	0.921940
	C120	C	0.382548	-0.005258	0.628191
	C121	C	0.625957	0.979050	0.625652
	C122	C	0.627892	-0.004916	0.382652
	C123	C	0.384458	0.977535	0.384010
	C124	C	0.626924	0.364131	0.012960
	C125	C	0.627593	0.607486	0.995772
	C126	C	0.385168	0.607006	0.013376
	C127	C	0.384218	0.363625	0.995077
	C128	C	0.013664	0.607061	0.382867
	C129	C	0.996716	0.606188	0.625038
	C130	C	0.014366	0.363774	0.626205
	C131	C	0.997506	0.364351	0.382903
	C132	C	0.884391	0.493411	0.125821
	C133	C	0.127622	0.477238	0.125040
	C134	C	0.128765	0.495006	0.881095
	C135	C	0.885519	0.478034	0.883276
	C136	C	0.127316	0.862927	0.513188
	C137	C	0.126755	0.106508	0.496509
	C138	C	0.883758	0.107975	0.513549
	C139	C	0.884646	0.864861	0.497273
	C140	C	0.513958	0.106856	0.884022
	C141	C	0.497222	0.107881	0.126380
	C142	C	0.514521	0.864978	0.125562
	C143	C	0.497561	0.863850	0.882986
	C144	C	0.383246	0.873507	0.685413
	C145	C	0.626151	0.099486	0.684495
	C146	C	0.629634	0.874607	0.323972
	C147	C	0.383951	0.098769	0.326765
	C148	C	0.685823	0.363713	0.891594
	C149	C	0.685897	0.608654	0.116553
	C150	C	0.330822	0.604858	0.890812
	C151	C	0.326885	0.365800	0.117092
	C152	C	0.891737	0.665528	0.382528
	C153	C	0.118626	0.663552	0.624280
	C154	C	0.892457	0.306722	0.626953
	C155	C	0.119178	0.305906	0.381884
	C156	C	0.893013	0.363053	0.685526
	C157	C	0.119522	0.605227	0.680538
	C158	C	0.891742	0.607591	0.325225
	C159	C	0.119413	0.363419	0.324367
	C160	C	0.386584	0.664177	0.891686
	C161	C	0.629534	0.666999	0.116265
	C162	C	0.628195	0.306175	0.891566
	C163	C	0.383444	0.307093	0.116975
	C164	C	0.687198	0.874877	0.381636
	C165	C	0.683512	0.100103	0.626001
	C166	C	0.326709	0.872902	0.626569
	C167	C	0.326688	0.098956	0.385179
	C168	C	0.883565	0.372737	0.184023
	C169	C	0.128136	0.598011	0.183819
	C170	C	0.128448	0.373432	0.824730
	C171	C	0.884473	0.598467	0.825113
	C172	C	0.186310	0.863289	0.391918
	C173	C	0.182051	0.104838	0.619068
	C174	C	0.825569	0.108870	0.392469
	C175	C	0.825776	0.865056	0.618577
	C176	C	0.391959	0.163797	0.885205
	C177	C	0.618813	0.165957	0.126026
	C178	C	0.392744	0.807217	0.126693
	C179	C	0.618984	0.805280	0.880583
	C180	C	0.392808	0.864672	0.184125
	C181	C	0.619096	0.108505	0.183835
	C182	C	0.391311	0.105594	0.829098
	C183	C	0.618870	0.863313	0.823351
	C184	C	0.882725	0.166460	0.392560
	C185	C	0.126579	0.164496	0.617716
	C186	C	0.128753	0.805038	0.391848
	C187	C	0.882943	0.806529	0.618221
	C188	C	0.185091	0.373324	0.883091
	C189	C	0.183786	0.599055	0.124344
	C190	C	0.826277	0.372735	0.125707
	C191	C	0.825472	0.598039	0.881769
	C192	C	0.405537	0.079620	0.605231
	C193	C	0.602087	0.894863	0.601469
	C194	C	0.602594	0.078709	0.407075
	C195	C	0.408665	0.893371	0.407436
	C196	C	0.601996	0.388264	0.097185
	C197	C	0.603127	0.583140	0.911635
	C198	C	0.407434	0.584657	0.098682
	C199	C	0.408389	0.386495	0.910437
	C200	C	0.098105	0.582727	0.406921
	C201	C	0.911692	0.582376	0.601955
	C202	C	0.099182	0.387449	0.601569
	C203	C	0.912757	0.388321	0.406958
	C204	C	0.909272	0.577221	0.101397
	C205	C	0.103926	0.393100	0.101565
	C206	C	0.105839	0.580182	0.903427
	C207	C	0.910237	0.393959	0.907524
	C208	C	0.102872	0.886348	0.597894
	C209	C	0.103835	0.083559	0.411673
	C210	C	0.907941	0.083815	0.597660
	C211	C	0.909741	0.888776	0.413041
	C212	C	0.599349	0.083208	0.906971
	C213	C	0.412373	0.083979	0.102857
	C214	C	0.599057	0.888830	0.101029
	C215	C	0.413044	0.887936	0.908281
	Zn216	Zn	0.505098	-0.013616	0.755636
	Zn217	Zn	0.506114	-0.013593	0.254300
	Zn218	Zn	0.755340	0.485780	0.004295
	Zn219	Zn	0.256303	0.486120	0.003778
	Zn220	Zn	0.004637	0.734702	0.504676
	Zn221	Zn	0.005661	0.235852	0.504431
	Zn222	Zn	0.006268	0.485664	0.753620
	Zn223	Zn	0.006085	0.485455	0.254474
	Zn224	Zn	0.506466	0.735565	0.004950
	Zn225	Zn	0.505840	0.235557	0.004130
	Zn226	Zn	0.756016	-0.013153	0.505052
	Zn227	Zn	0.255393	-0.014406	0.505422
	N228	N	0.417204	0.950373	0.686479
	N229	N	0.590824	0.023286	0.684192
	N230	N	0.593317	0.950506	0.324591
	N231	N	0.419261	0.022521	0.326050
	N232	N	0.685121	0.399171	0.967828
	N233	N	0.684803	0.572312	0.040491
	N234	N	0.329789	0.570208	0.967382
	N235	N	0.327093	0.400401	0.040321
	N236	N	0.968494	0.665370	0.417411
	N237	N	0.041204	0.664402	0.590727
	N238	N	0.968936	0.306958	0.590811
	N239	N	0.042418	0.306344	0.417523
	N240	N	0.969860	0.397889	0.685090
	N241	N	0.042567	0.570495	0.681504
	N242	N	0.968471	0.572137	0.325018
	N243	N	0.042692	0.399033	0.324902
	N244	N	0.419497	0.665770	0.969043
	N245	N	0.594136	0.666513	0.040191
	N246	N	0.592281	0.306481	0.968052
	N247	N	0.418534	0.305930	0.040374
	N248	N	0.686456	0.950731	0.417280
	N249	N	0.683480	0.024036	0.590340
	N250	N	0.326079	0.949300	0.591836
	N251	N	0.326746	0.022527	0.419945
	N252	N	0.918988	0.448975	0.184249
	N253	N	0.093892	0.521356	0.184632
	N254	N	0.093976	0.450236	0.823326
	N255	N	0.921212	0.522833	0.826037
	N256	N	0.185385	0.898751	0.468290
	N257	N	0.182196	0.069452	0.542741
	N258	N	0.826064	0.073420	0.468602
	N259	N	0.826462	0.900441	0.542193
	N260	N	0.469490	0.164730	0.918370
	N261	N	0.542044	0.165869	0.091169
	N262	N	0.469447	0.807356	0.090624
	N263	N	0.542550	0.805413	0.917015
	N264	N	0.469508	0.899695	0.183802
	N265	N	0.542478	0.073120	0.184114
	N266	N	0.468349	0.070730	0.828256
	N267	N	0.542204	0.898990	0.824719
	N268	N	0.918338	0.166222	0.468865
	N269	N	0.092830	0.165748	0.540532
	N270	N	0.093008	0.804601	0.468266
	N271	N	0.919054	0.806661	0.541980
	N272	N	0.185489	0.449914	0.917265
	N273	N	0.183833	0.523043	0.088601
	N274	N	0.826584	0.448880	0.090543
	N275	N	0.826157	0.521989	0.917363
	O276	O	0.502812	0.593412	0.536958
	H277	H	0.494728	0.584462	0.533360
	H278	H	0.513523	0.595500	0.540261
	O279	O	0.512059	0.532936	0.586666
	H280	H	0.519374	0.542516	0.581666
	H281	H	0.498331	0.526487	0.572020
	O282	O	1.100037	-0.088302	0.946007
	H283	H	1.092183	-0.094834	0.937200
	H284	H	1.102857	-0.102434	0.952914
	O285	O	1.007929	1.047467	1.104287
	H286	H	1.007546	1.049043	1.113870
	H287	H	1.016504	1.056662	1.099300
	O288	O	0.916646	0.991685	0.829326
	H289	H	0.901780	0.988238	0.832078
	H290	H	0.915440	0.985728	0.831944
	O291	O	-0.091896	0.880329	0.133104
	H292	H	-0.101144	0.878242	0.113395
	H293	H	-0.106041	0.905922	0.145334
	O294	O	0.625050	0.488894	0.325445
	H295	H	0.632150	0.473205	0.343423
	H296	H	0.621365	0.482544	0.317825
	O297	O	0.361197	0.356438	0.672567
	H298	H	0.366932	0.355621	0.676644
	H299	H	0.371335	0.357834	0.669514
	O300	O	0.673631	0.520069	0.642486
	H301	H	0.657944	0.537993	0.629342
	H302	H	0.687806	0.519378	0.661125
	O303	O	0.233674	0.719867	0.730581
	H304	H	0.229938	0.716132	0.731180
	H305	H	0.220372	0.730971	0.740868
	O306	O	0.530766	0.398429	0.656139
	H307	H	0.537404	0.399311	0.632142
	H308	H	0.534856	0.405359	0.665377
	O309	O	0.426248	0.304148	0.496949
	H310	H	0.434981	0.307088	0.511439
	H311	H	0.426359	0.292978	0.513120
	O312	O	0.117633	0.141383	0.085738
	H313	H	0.115153	0.137802	0.057294
	H314	H	0.127204	0.135464	0.085724
	O315	O	0.544894	1.575255	-0.644582
	H316	H	0.535786	1.563230	-0.642170
	H317	H	0.544176	1.580614	-0.653235
	O318	O	0.013724	1.112909	1.067664
	H319	H	0.009798	1.107337	1.070187
	H320	H	0.012381	1.106186	1.072933
	O321	O	0.905781	-0.120715	0.995075
	H322	H	0.914731	-0.115052	0.994078
	H323	H	0.880144	-0.134297	0.989810
	O324	O	0.441825	0.621488	-0.600463
	H325	H	0.461865	0.609538	-0.609171
	H326	H	0.445331	0.628664	-0.613733
	O327	O	0.631607	0.612984	0.686666
	H328	H	0.602130	0.625264	0.694839
	H329	H	0.623317	0.619412	0.670032
	O330	O	0.106984	0.107608	1.079851
	H331	H	0.125030	0.110472	1.076409
	H332	H	0.099981	0.106899	1.086650
	O333	O	-0.115505	-0.018945	0.950469
	H334	H	-0.120663	-0.014102	0.961150
	H335	H	-0.136455	-0.015447	0.943105
	O336	O	0.620190	0.378004	0.420972
	H337	H	0.607978	0.387977	0.438503
	H338	H	0.630918	0.378951	0.421754
	O339	O	1.130650	-0.211484	-0.042948
	H340	H	1.128115	-0.206890	-0.033967
	H341	H	1.131478	-0.210428	-0.033677
	O342	O	-0.002262	0.029464	-0.049886
	H343	H	0.011577	0.029405	-0.057898
	H344	H	-0.008347	0.039022	-0.052831
	O345	O	0.355315	-0.538208	1.407428
	H346	H	0.360154	-0.532117	1.402727
	H347	H	0.349776	-0.530581	1.394518
	O348	O	0.907692	1.175061	-0.064435
	H349	H	0.914069	1.168235	-0.067159
	H350	H	0.902465	1.173307	-0.050370
	O351	O	0.402898	0.386147	0.361900
	H352	H	0.409707	0.396020	0.363635
	H353	H	0.401748	0.382763	0.380624
	O354	O	0.896361	0.003742	1.064844
	H355	H	0.915504	0.003418	1.078198
	H356	H	0.899398	-0.015441	1.079781
	O357	O	0.337304	0.556957	0.590239
	H358	H	0.336891	0.539925	0.582713
	H359	H	0.317296	0.565351	0.602336
	O360	O	0.635455	0.337039	0.390130
	H361	H	0.628421	0.328796	0.383783
	H362	H	0.634984	0.338986	0.389487
	O363	O	-0.120427	1.167580	0.907198
	H364	H	-0.115857	1.175395	0.895016
	H365	H	-0.145151	1.179132	0.910832
	O366	O	0.430637	0.429152	0.535735
	H367	H	0.423570	0.428025	0.528570
	H368	H	0.438650	0.448682	0.530108
	O369	O	0.060037	1.028522	-0.022419
	H370	H	0.053226	1.027636	-0.040526
	H371	H	0.066070	1.032179	-0.024894
	O372	O	0.085511	0.875881	-0.005047
	H373	H	0.076709	0.862872	-0.008382
	H374	H	0.088290	0.871681	-0.005524
	O375	O	0.098763	0.156876	0.951874
	H376	H	0.119106	0.152764	0.956892
	H377	H	0.102907	0.155073	0.953209
	O378	O	0.634097	0.424649	0.535482
	H379	H	0.612355	0.426807	0.546168
	H380	H	0.645750	0.419764	0.536521
	O381	O	1.129056	-0.088590	0.086780
	H382	H	1.129411	-0.082564	0.091974
	H383	H	1.120532	-0.095274	0.092450
	O384	O	0.986120	0.812213	0.178600
	H385	H	0.961846	0.809934	0.168124
	H386	H	0.988513	0.797700	0.195439
	O387	O	0.096002	0.001902	-0.173322
	H388	H	0.089742	0.003343	-0.172535
	H389	H	0.099910	0.007818	-0.184766
	O390	O	0.009393	0.974487	0.192703
	H391	H	0.008938	0.980620	0.207920
	H392	H	0.022325	0.987839	0.193466
	O393	O	1.016119	0.982204	1.131154
	H394	H	1.021726	0.979904	1.139855
	H395	H	1.029424	0.989886	1.133786
	O396	O	0.330566	0.623557	0.436343
	H397	H	0.344215	0.620500	0.430395
	H398	H	0.323006	0.638895	0.436669
	O399	O	-0.007539	0.881296	0.942899
	H400	H	0.001012	0.886317	0.948726
	H401	H	-0.015293	0.867038	0.942799
	O402	O	-0.025954	0.965049	-0.123042
	H403	H	-0.040408	0.965121	-0.129563
	H404	H	-0.033350	0.965124	-0.108137
	O405	O	1.542197	1.427796	0.652696
	H406	H	1.547934	1.427058	0.645347
	H407	H	1.532602	1.431016	0.666330
	O408	O	0.650270	1.652459	-0.449345
	H409	H	0.653661	1.662471	-0.454673
	H410	H	0.639562	1.658217	-0.449075
	O411	O	0.556025	-0.357879	0.487214
	H412	H	0.550080	-0.360695	0.485853
	H413	H	0.546099	-0.360922	0.489373
	O414	O	0.551333	0.375788	0.443994
	H415	H	0.568246	0.375684	0.430754
	H416	H	0.543367	0.389580	0.452582
	O417	O	0.538717	0.469172	0.366897
	H418	H	0.541348	0.454770	0.369453
	H419	H	0.534357	0.463841	0.373667
