data_Molecule from HDF5

_cell_length_a		16.014706
_cell_length_b		16.379210
_cell_length_c		16.413678
_cell_angle_alpha	89.543301
_cell_angle_beta	90.279929
_cell_angle_gamma	89.506982
_symmetry_space_group_name_H-M	'P 1'
_symmetry_Int_Tables_number		1

loop_
	_symmetry_equiv_pos_as_xyz
	x,y,z

loop_
	_atom_site_label
	_atom_site_type_symbol
	_atom_site_fract_x
	_atom_site_fract_y
	_atom_site_fract_z
	H0	H	0.400309	0.842956	0.710318
	H1	H	0.607337	0.163885	0.708963
	H2	H	0.608370	0.843137	0.272446
	H3	H	0.395454	0.164830	0.266177
	H4	H	0.719502	0.406498	0.823978
	H5	H	0.721811	0.596838	0.150557
	H6	H	0.290335	0.605041	0.825333
	H7	H	0.293275	0.406666	0.151665
	H8	H	0.838889	0.722004	0.382552
	H9	H	0.168694	0.718504	0.584254
	H10	H	0.838518	0.292312	0.586360
	H11	H	0.167994	0.285970	0.386191
	H12	H	0.840934	0.401821	0.704353
	H13	H	0.168734	0.605113	0.701758
	H14	H	0.840561	0.607681	0.267983
	H15	H	0.171664	0.405002	0.276024
	H16	H	0.399919	0.727714	0.829061
	H17	H	0.610271	0.718317	0.149913
	H18	H	0.610544	0.283858	0.828077
	H19	H	0.407612	0.287033	0.150911
	H20	H	0.719240	0.842079	0.393097
	H21	H	0.715095	0.167265	0.585287
	H22	H	0.291465	0.840190	0.584948
	H23	H	0.288284	0.168002	0.390801
	H24	H	0.904377	0.344011	0.207953
	H25	H	0.113664	0.664186	0.207546
	H26	H	0.112485	0.343179	0.767970
	H27	H	0.899551	0.664505	0.765731
	H28	H	0.220447	0.907282	0.325650
	H29	H	0.216302	0.100860	0.651291
	H30	H	0.783361	0.107423	0.326973
	H31	H	0.794313	0.908282	0.651604
	H32	H	0.341829	0.223039	0.888330
	H33	H	0.672109	0.213784	0.089761
	H34	H	0.340887	0.786546	0.090966
	H35	H	0.670743	0.789027	0.890160
	H36	H	0.339166	0.902797	0.204181
	H37	H	0.668879	0.102482	0.206066
	H38	H	0.340063	0.107601	0.773396
	H39	H	0.669425	0.902723	0.775861
	H40	H	0.895615	0.226930	0.327601
	H41	H	0.105287	0.221132	0.648021
	H42	H	0.106269	0.788715	0.325256
	H43	H	0.897997	0.782452	0.645716
	H44	H	0.223023	0.340817	0.890361
	H45	H	0.220115	0.667678	0.082764
	H46	H	0.797308	0.339639	0.083364
	H47	H	0.787826	0.665283	0.885902
	H48	H	0.414383	0.119269	0.585554
	H49	H	0.584635	0.893343	0.579605
	H50	H	0.587813	0.119670	0.391474
	H51	H	0.423816	0.892572	0.396917
	H52	H	0.601181	0.410780	0.102056
	H53	H	0.596514	0.596894	0.873115
	H54	H	0.422382	0.594226	0.100497
	H55	H	0.422058	0.409556	0.874924
	H56	H	0.122310	0.592513	0.392335
	H57	H	0.882295	0.601775	0.580374
	H58	H	0.121489	0.414199	0.576947
	H59	H	0.884640	0.414127	0.391985
	H60	H	0.122776	0.410780	0.578477
	H61	H	0.889047	0.596193	0.565616
	H62	H	0.124796	0.602754	0.394410
	H63	H	0.886833	0.415479	0.397233
	H64	H	0.414637	0.602390	0.106051
	H65	H	0.593574	0.598973	0.874261
	H66	H	0.598403	0.403663	0.104081
	H67	H	0.412737	0.410920	0.872345
	H68	H	0.589808	0.118261	0.399001
	H69	H	0.608204	0.887454	0.577062
	H70	H	0.412644	0.117727	0.579757
	H71	H	0.406637	0.890034	0.403840
	H72	H	0.906995	0.620407	0.074665
	H73	H	0.105081	0.386575	0.084216
	H74	H	0.080166	0.614889	0.887705
	H75	H	0.907198	0.384380	0.891093
	H76	H	0.092468	0.910970	0.601187
	H77	H	0.091110	0.095381	0.373981
	H78	H	0.908959	0.097994	0.602578
	H79	H	0.903981	0.913502	0.370098
	H80	H	0.619904	0.089287	0.904653
	H81	H	0.391313	0.096878	0.063214
	H82	H	0.622286	0.915767	0.086753
	H83	H	0.387603	0.918008	0.897002
	H84	H	0.625637	0.905376	0.084726
	H85	H	0.389003	0.083511	0.086354
	H86	H	0.625002	0.088662	0.890044
	H87	H	0.385824	0.912157	0.899077
	H88	H	0.913413	0.099054	0.602369
	H89	H	0.091667	0.101911	0.371582
	H90	H	0.092701	0.908285	0.600708
	H91	H	0.913758	0.920657	0.374100
	H92	H	0.100202	0.615937	0.906251
	H93	H	0.090252	0.390470	0.086885
	H94	H	0.915993	0.620723	0.085250
	H95	H	0.923530	0.387682	0.885345
	H96	H	0.407891	0.120671	0.584000
	H97	H	0.597751	0.884009	0.597269
	H98	H	0.594585	0.120397	0.394171
	H99	H	0.409815	0.885492	0.386568
	H100	H	0.605659	0.404891	0.104802
	H101	H	0.595935	0.600035	0.872999
	H102	H	0.410192	0.590736	0.102383
	H103	H	0.418220	0.417558	0.876134
	H104	H	0.120188	0.595893	0.402027
	H105	H	0.888171	0.585562	0.579070
	H106	H	0.121886	0.411031	0.574899
	H107	H	0.888000	0.419850	0.393455
	H108	H	0.921513	0.615939	0.072625
	H109	H	0.097413	0.393077	0.073283
	H110	H	0.105081	0.625373	0.881409
	H111	H	0.919433	0.392032	0.901658
	H112	H	0.094598	0.910384	0.602178
	H113	H	0.097372	0.097112	0.371439
	H114	H	0.910941	0.102095	0.604568
	H115	H	0.916154	0.908501	0.371419
	H116	H	0.626390	0.101740	0.898739
	H117	H	0.380748	0.109628	0.084600
	H118	H	0.620281	0.911858	0.077282
	H119	H	0.388102	0.915801	0.903164
	C120	C	0.381809	0.012056	0.612213
	C121	C	0.625785	0.995450	0.612282
	C122	C	0.623030	0.012603	0.367594
	C123	C	0.381377	0.996069	0.365711
	C124	C	0.630375	0.379100	-0.003836
	C125	C	0.627335	0.625438	0.979881
	C126	C	0.384191	0.626788	-0.003244
	C127	C	0.387214	0.383124	0.981083
	C128	C	0.013638	0.627568	0.364260
	C129	C	0.995264	0.624595	0.605407
	C130	C	0.013058	0.383136	0.607086
	C131	C	0.996062	0.385176	0.366001
	C132	C	0.886093	0.512119	0.107737
	C133	C	0.128251	0.496428	0.109655
	C134	C	0.127653	0.512144	0.863529
	C135	C	0.884503	0.494771	0.863283
	C136	C	0.124633	0.882026	0.494974
	C137	C	0.124163	0.126428	0.479145
	C138	C	0.879597	0.129157	0.496570
	C139	C	0.881677	0.883590	0.478461
	C140	C	0.514954	0.125447	0.867595
	C141	C	0.496454	0.124181	0.108884
	C142	C	0.513813	0.881407	0.111847
	C143	C	0.496167	0.884366	0.870167
	C144	C	0.381947	0.890736	0.670014
	C145	C	0.625271	0.116384	0.668787
	C146	C	0.625615	0.891158	0.311867
	C147	C	0.378673	0.116904	0.306714
	C148	C	0.683406	0.384442	0.873381
	C149	C	0.684145	0.619397	0.101890
	C150	C	0.327466	0.626053	0.874654
	C151	C	0.331000	0.385340	0.102869
	C152	C	0.888890	0.684354	0.363253
	C153	C	0.119414	0.680745	0.604610
	C154	C	0.888343	0.328821	0.606244
	C155	C	0.119399	0.325888	0.367385
	C156	C	0.889681	0.383687	0.664898
	C157	C	0.119473	0.624469	0.662808
	C158	C	0.889785	0.627115	0.306359
	C159	C	0.121161	0.385153	0.312434
	C160	C	0.382261	0.686612	0.876191
	C161	C	0.628795	0.680129	0.101612
	C162	C	0.629553	0.323071	0.875540
	C163	C	0.387862	0.325765	0.102458
	C164	C	0.680981	0.890682	0.371799
	C165	C	0.679286	0.117960	0.607582
	C166	C	0.327685	0.889425	0.608005
	C167	C	0.325111	0.118819	0.368682
	C168	C	0.886524	0.391300	0.166943
	C169	C	0.130440	0.616987	0.167139
	C170	C	0.130201	0.391061	0.807200
	C171	C	0.881835	0.616142	0.805311
	C172	C	0.182183	0.885879	0.373892
	C173	C	0.179527	0.122465	0.601821
	C174	C	0.821979	0.127537	0.375137
	C175	C	0.828603	0.886111	0.601468
	C176	C	0.390942	0.184001	0.868345
	C177	C	0.621886	0.177379	0.108886
	C178	C	0.389911	0.825127	0.110284
	C179	C	0.620913	0.827232	0.871024
	C180	C	0.389029	0.883264	0.166513
	C181	C	0.620299	0.122048	0.166999
	C182	C	0.390050	0.126624	0.811101
	C183	C	0.620279	0.883696	0.813864
	C184	C	0.877575	0.187153	0.375535
	C185	C	0.124145	0.182224	0.600356
	C186	C	0.125314	0.826997	0.373629
	C187	C	0.880766	0.823620	0.598627
	C188	C	0.185579	0.390055	0.868105
	C189	C	0.183628	0.618654	0.105170
	C190	C	0.833158	0.388924	0.105043
	C191	C	0.826124	0.616737	0.865227
	C192	C	0.404854	0.097110	0.589662
	C193	C	0.603434	0.910411	0.591005
	C194	C	0.597919	0.097415	0.388702
	C195	C	0.406196	0.911290	0.388901
	C196	C	0.608354	0.400171	0.081507
	C197	C	0.602698	0.604698	0.895336
	C198	C	0.408621	0.602716	0.081107
	C199	C	0.410831	0.406078	0.896318
	C200	C	0.100130	0.603915	0.388884
	C201	C	0.909070	0.601252	0.581868
	C202	C	0.099761	0.405561	0.583529
	C203	C	0.909095	0.409484	0.387757
	C204	C	0.908407	0.596863	0.084402
	C205	C	0.104490	0.411759	0.087900
	C206	C	0.102389	0.596811	0.885401
	C207	C	0.909366	0.410055	0.886187
	C208	C	0.100282	0.903698	0.579457
	C209	C	0.100293	0.104588	0.394436
	C210	C	0.903938	0.106295	0.581002
	C211	C	0.904850	0.907199	0.393810
	C212	C	0.601267	0.100532	0.890923
	C213	C	0.409729	0.102809	0.085161
	C214	C	0.600283	0.904288	0.089437
	C215	C	0.409561	0.908192	0.893175
	Zn216	Zn	0.504452	0.003221	0.741470
	Zn217	Zn	0.503761	0.004286	0.236982
	Zn218	Zn	0.757160	0.502655	-0.013574
	Zn219	Zn	0.256123	0.504501	-0.012428
	Zn220	Zn	0.002555	0.753273	0.485837
	Zn221	Zn	0.002847	0.256454	0.486768
	Zn222	Zn	0.005317	0.503443	0.733766
	Zn223	Zn	0.006368	0.505569	0.238515
	Zn224	Zn	0.505547	0.755807	-0.010268
	Zn225	Zn	0.507689	0.251594	-0.010730
	Zn226	Zn	0.753302	0.005167	0.488784
	Zn227	Zn	0.253319	0.004578	0.488345
	N228	N	0.414742	0.968102	0.672880
	N229	N	0.592780	0.039167	0.671828
	N230	N	0.590303	0.967992	0.309010
	N231	N	0.412823	0.039457	0.304721
	N232	N	0.684055	0.418636	0.949570
	N233	N	0.683656	0.586256	0.025052
	N234	N	0.328619	0.589600	0.950400
	N235	N	0.330584	0.420568	0.026374
	N236	N	0.967089	0.684686	0.398455
	N237	N	0.041206	0.681045	0.569792
	N238	N	0.966258	0.328193	0.570937
	N239	N	0.040355	0.325900	0.400178
	N240	N	0.968444	0.416369	0.665693
	N241	N	0.041434	0.590069	0.663329
	N242	N	0.968463	0.592703	0.306704
	N243	N	0.043304	0.421108	0.311387
	N244	N	0.416819	0.687213	0.953123
	N245	N	0.594322	0.684105	0.024917
	N246	N	0.597273	0.319893	0.952821
	N247	N	0.422046	0.324435	0.025662
	N248	N	0.679299	0.967108	0.405979
	N249	N	0.679853	0.041801	0.573137
	N250	N	0.327148	0.966008	0.573112
	N251	N	0.326683	0.042821	0.404785
	N252	N	0.918841	0.468879	0.168756
	N253	N	0.096641	0.539997	0.170080
	N254	N	0.095167	0.468047	0.804046
	N255	N	0.917354	0.539512	0.804074
	N256	N	0.181866	0.919376	0.450464
	N257	N	0.179819	0.088640	0.525429
	N258	N	0.822719	0.092471	0.451444
	N259	N	0.828848	0.922802	0.525608
	N260	N	0.469457	0.183411	0.902571
	N261	N	0.543879	0.178726	0.073255
	N262	N	0.468436	0.823927	0.077040
	N263	N	0.542614	0.827486	0.905265
	N264	N	0.467125	0.917554	0.167570
	N265	N	0.541420	0.089586	0.166966
	N266	N	0.468057	0.090973	0.810362
	N267	N	0.541871	0.918551	0.813275
	N268	N	0.912772	0.188394	0.452019
	N269	N	0.090424	0.185035	0.523143
	N270	N	0.090066	0.824532	0.449909
	N271	N	0.912877	0.821739	0.521086
	N272	N	0.184284	0.466393	0.902346
	N273	N	0.182219	0.542788	0.070083
	N274	N	0.832635	0.465062	0.069071
	N275	N	0.827494	0.540364	0.900572
	O276	O	0.017621	0.180619	0.084939
	H277	H	0.028636	0.179759	0.098138
	H278	H	0.040694	0.190234	0.069200
	O279	O	0.624032	0.410576	0.410223
	H280	H	0.617448	0.407791	0.430282
	H281	H	0.627871	0.402939	0.403002
	O282	O	0.859737	-0.021025	0.152761
	H283	H	0.854823	-0.018743	0.147480
	H284	H	0.866964	-0.016763	0.150831
	O285	O	-0.023661	1.007117	0.108108
	H286	H	-0.024672	1.012719	0.106149
	H287	H	-0.005843	1.007367	0.103575
	O288	O	0.015044	0.105441	1.011719
	H289	H	0.018369	0.111900	0.999263
	H290	H	0.017672	0.113292	1.014561
	O291	O	0.511900	0.399396	0.584300
	H292	H	0.512048	0.397693	0.580992
	H293	H	0.516801	0.401277	0.592877
	O294	O	1.063851	0.941079	0.888520
	H295	H	1.065176	0.941085	0.889391
	H296	H	1.068797	0.928969	0.882881
	O297	O	-0.076507	-0.020866	-0.201288
	H298	H	-0.068724	-0.021351	-0.200923
	H299	H	-0.076626	-0.021453	-0.202032
	O300	O	0.565846	0.536109	0.515980
	H301	H	0.570097	0.535992	0.527993
	H302	H	0.562829	0.529052	0.523930
	O303	O	-0.009581	0.888972	0.902084
	H304	H	-0.009823	0.870693	0.909817
	H305	H	-0.015748	0.885072	0.904931
	O306	O	0.842023	1.147855	-0.093369
	H307	H	0.852235	1.141908	-0.083643
	H308	H	0.833061	1.136856	-0.083579
	O309	O	0.959832	-0.067021	0.066049
	H310	H	0.966702	-0.064346	0.062372
	H311	H	0.950875	-0.061222	0.074599
	O312	O	-0.024735	0.175914	0.857003
	H313	H	-0.021949	0.176483	0.859958
	H314	H	-0.040692	0.176961	0.864069
	O315	O	0.583152	0.655755	0.524308
	H316	H	0.580358	0.661511	0.530550
	H317	H	0.576628	0.653960	0.535324
	O318	O	0.578278	0.483014	0.473145
	H319	H	0.567356	0.462419	0.471217
	H320	H	0.586905	0.497824	0.476218
	O321	O	0.445273	0.469273	0.559992
	H322	H	0.425579	0.468219	0.556293
	H323	H	0.443137	0.465478	0.555081
	O324	O	0.406639	0.457071	0.445688
	H325	H	0.393681	0.454177	0.451649
	H326	H	0.417594	0.450263	0.456278
	O327	O	0.161796	0.986202	0.839000
	H328	H	0.178364	0.984732	0.840114
	H329	H	0.162516	0.968755	0.839668
	O330	O	0.492718	0.514818	0.554244
	H331	H	0.481146	0.504136	0.562278
	H332	H	0.491116	0.508325	0.561254
	O333	O	-0.528396	0.631596	0.449955
	H334	H	-0.523142	0.637642	0.444078
	H335	H	-0.534077	0.624895	0.446360
	O336	O	0.900798	0.816483	0.960924
	H337	H	0.909923	0.812335	0.970628
	H338	H	0.906199	0.799618	0.971082
	O339	O	0.404570	0.526097	0.562320
	H340	H	0.384246	0.524707	0.565760
	H341	H	0.391469	0.513266	0.548754
	O342	O	1.538088	-0.455682	0.551400
	H343	H	1.553391	-0.453487	0.554824
	H344	H	1.539834	-0.439201	0.554107
	O345	O	0.561054	0.613781	0.499032
	H346	H	0.577439	0.618466	0.513291
	H347	H	0.560675	0.605128	0.503559
	O348	O	1.125093	0.909377	1.038153
	H349	H	1.109790	0.900790	1.038562
	H350	H	1.123317	0.896793	1.028410
	O351	O	0.478341	1.554183	-0.578226
	H352	H	0.473367	1.551073	-0.571770
	H353	H	0.482684	1.548905	-0.574176
	O354	O	0.081269	0.094714	0.050996
	H355	H	0.076663	0.111866	0.045975
	H356	H	0.086518	0.081797	0.045958
	O357	O	-0.081570	0.950052	1.069086
	H358	H	-0.087935	0.944795	1.082160
	H359	H	-0.077864	0.960646	1.069594
	O360	O	0.523227	0.540150	0.407464
	H361	H	0.528596	0.555032	0.409575
	H362	H	0.516882	0.551384	0.402757
	O363	O	0.464235	0.473212	0.400983
	H364	H	0.459865	0.474522	0.389663
	H365	H	0.475853	0.482761	0.398776
	O366	O	-0.110789	-0.119021	1.129120
	H367	H	-0.112848	-0.109906	1.115675
	H368	H	-0.095869	-0.124085	1.130485
	O369	O	0.493232	0.457110	0.590752
	H370	H	0.490978	0.451606	0.604054
	H371	H	0.492997	0.448594	0.587944
	O372	O	0.461047	0.511622	0.466385
	H373	H	0.458169	0.523152	0.467937
	H374	H	0.457525	0.507075	0.467880
	O375	O	1.106749	0.174418	1.107862
	H376	H	1.101487	0.178467	1.094871
	H377	H	1.108725	0.167096	1.107187
	O378	O	-0.206076	0.891771	0.764686
	H379	H	-0.207846	0.911534	0.767321
	H380	H	-0.222131	0.887032	0.765969
	O381	O	0.410150	0.505582	0.366458
	H382	H	0.407948	0.504496	0.366976
	H383	H	0.406679	0.514977	0.367959
	O384	O	-0.101997	1.012594	-0.078379
	H385	H	-0.110427	1.021811	-0.076821
	H386	H	-0.098670	1.009026	-0.069014
	O387	O	1.492978	-0.486784	1.610696
	H388	H	1.485884	-0.493933	1.617435
	H389	H	1.502658	-0.479929	1.609643
	O390	O	0.132742	1.003077	0.031966
	H391	H	0.130569	0.997762	0.032298
	H392	H	0.125916	1.000893	0.025841
	O393	O	1.050932	0.826619	-0.032691
	H394	H	1.051485	0.819568	-0.031552
	H395	H	1.041008	0.836733	-0.031470
	O396	O	0.580427	0.401367	0.408491
	H397	H	0.568014	0.402646	0.388011
	H398	H	0.598728	0.397074	0.399060
	O399	O	0.095316	1.124878	0.940577
	H400	H	0.091124	1.136485	0.945820
	H401	H	0.102250	1.108189	0.935346
	O402	O	1.139121	0.869828	0.943786
	H403	H	1.121723	0.867649	0.953736
	H404	H	1.132166	0.870295	0.944918
	O405	O	0.511943	0.347029	0.594825
	H406	H	0.516808	0.334093	0.592953
	H407	H	0.512779	0.350475	0.594235
