data_Molecule from HDF5

_cell_length_a		16.189081
_cell_length_b		16.326348
_cell_length_c		16.174708
_cell_angle_alpha	90.028166
_cell_angle_beta	90.323824
_cell_angle_gamma	90.252344
_symmetry_space_group_name_H-M	'P 1'
_symmetry_Int_Tables_number		1

loop_
	_symmetry_equiv_pos_as_xyz
	x,y,z

loop_
	_atom_site_label
	_atom_site_type_symbol
	_atom_site_fract_x
	_atom_site_fract_y
	_atom_site_fract_z
	H0	H	0.406927	0.834557	0.703296
	H1	H	0.606176	0.160653	0.705254
	H2	H	0.601468	0.834108	0.275781
	H3	H	0.407160	0.161743	0.274033
	H4	H	0.715809	0.401918	0.822467
	H5	H	0.722748	0.597378	0.151814
	H6	H	0.292998	0.594645	0.823892
	H7	H	0.292035	0.399025	0.153882
	H8	H	0.840770	0.710771	0.387484
	H9	H	0.167668	0.714987	0.590675
	H10	H	0.840440	0.281901	0.587617
	H11	H	0.168042	0.280939	0.386038
	H12	H	0.840002	0.399962	0.700722
	H13	H	0.169759	0.596721	0.701590
	H14	H	0.841077	0.594767	0.273008
	H15	H	0.170377	0.401381	0.276399
	H16	H	0.404618	0.712788	0.825150
	H17	H	0.607514	0.712781	0.152591
	H18	H	0.605448	0.282517	0.825189
	H19	H	0.407462	0.283407	0.153783
	H20	H	0.717496	0.833581	0.390948
	H21	H	0.721548	0.160976	0.588275
	H22	H	0.290375	0.834403	0.587579
	H23	H	0.289823	0.160954	0.389507
	H24	H	0.907013	0.335354	0.202565
	H25	H	0.106980	0.661893	0.204151
	H26	H	0.102740	0.334298	0.773728
	H27	H	0.907787	0.661951	0.773370
	H28	H	0.215807	0.900635	0.324037
	H29	H	0.220408	0.097455	0.653882
	H30	H	0.790489	0.095071	0.323701
	H31	H	0.793825	0.900815	0.653336
	H32	H	0.341832	0.212711	0.888678
	H33	H	0.669772	0.214408	0.091961
	H34	H	0.342471	0.780769	0.088953
	H35	H	0.670047	0.784591	0.890311
	H36	H	0.340162	0.899987	0.199314
	H37	H	0.670512	0.095405	0.203525
	H38	H	0.340538	0.095458	0.774474
	H39	H	0.670010	0.901706	0.777099
	H40	H	0.902876	0.212206	0.324169
	H41	H	0.106411	0.214897	0.652686
	H42	H	0.103553	0.783263	0.324844
	H43	H	0.905149	0.782426	0.651854
	H44	H	0.218800	0.333840	0.890664
	H45	H	0.221818	0.661730	0.087757
	H46	H	0.790196	0.335156	0.086369
	H47	H	0.790832	0.661177	0.887540
	H48	H	0.410573	0.115702	0.585940
	H49	H	0.599662	0.880939	0.582692
	H50	H	0.599975	0.114419	0.396018
	H51	H	0.420610	0.885092	0.395311
	H52	H	0.596649	0.409866	0.104794
	H53	H	0.591680	0.584491	0.873801
	H54	H	0.405189	0.586784	0.107908
	H55	H	0.409599	0.404997	0.870871
	H56	H	0.120521	0.582154	0.395563
	H57	H	0.888872	0.585440	0.577568
	H58	H	0.121288	0.406264	0.577988
	H59	H	0.886745	0.409585	0.387117
	H60	H	0.122068	0.406838	0.582263
	H61	H	0.885307	0.590446	0.585824
	H62	H	0.127074	0.598640	0.389092
	H63	H	0.885005	0.395129	0.394189
	H64	H	0.423615	0.584465	0.101663
	H65	H	0.592584	0.602266	0.869213
	H66	H	0.597303	0.401173	0.107153
	H67	H	0.415314	0.407208	0.873106
	H68	H	0.597945	0.113806	0.395464
	H69	H	0.599837	0.880077	0.584565
	H70	H	0.418049	0.112506	0.582276
	H71	H	0.401443	0.881318	0.402927
	H72	H	0.916490	0.617783	0.091805
	H73	H	0.087766	0.382488	0.090532
	H74	H	0.111598	0.614432	0.905405
	H75	H	0.916297	0.382056	0.893856
	H76	H	0.093124	0.909493	0.603860
	H77	H	0.102181	0.083028	0.372542
	H78	H	0.920139	0.087690	0.603354
	H79	H	0.902032	0.897345	0.365506
	H80	H	0.625380	0.088682	0.887947
	H81	H	0.388860	0.090784	0.079250
	H82	H	0.623549	0.910168	0.088478
	H83	H	0.387047	0.904442	0.893330
	H84	H	0.626326	0.898491	0.084763
	H85	H	0.388600	0.090458	0.082201
	H86	H	0.625164	0.102106	0.900811
	H87	H	0.387776	0.901225	0.899478
	H88	H	0.914282	0.099162	0.607021
	H89	H	0.087163	0.089192	0.374539
	H90	H	0.094928	0.898754	0.607691
	H91	H	0.909500	0.914521	0.372429
	H92	H	0.103350	0.619298	0.880827
	H93	H	0.097994	0.386602	0.068827
	H94	H	0.923750	0.610411	0.073302
	H95	H	0.908599	0.382227	0.899095
	H96	H	0.410063	0.113536	0.576060
	H97	H	0.598800	0.880998	0.583202
	H98	H	0.598949	0.114364	0.397243
	H99	H	0.406005	0.876383	0.383411
	H100	H	0.603469	0.406872	0.107339
	H101	H	0.607389	0.591864	0.867335
	H102	H	0.417262	0.601508	0.109484
	H103	H	0.414669	0.400844	0.871177
	H104	H	0.121069	0.596674	0.407490
	H105	H	0.886721	0.595307	0.576701
	H106	H	0.121878	0.403299	0.580465
	H107	H	0.890866	0.407468	0.403081
	H108	H	0.903400	0.615943	0.074609
	H109	H	0.111391	0.377257	0.086680
	H110	H	0.086413	0.609225	0.898756
	H111	H	0.908162	0.379728	0.888863
	H112	H	0.102792	0.906643	0.608170
	H113	H	0.099268	0.098200	0.368580
	H114	H	0.907333	0.087100	0.607219
	H115	H	0.922125	0.898337	0.371758
	H116	H	0.619130	0.085122	0.905040
	H117	H	0.387489	0.092522	0.081147
	H118	H	0.620999	0.906586	0.076108
	H119	H	0.389476	0.907745	0.898526
	C120	C	0.384002	0.006138	0.609977
	C121	C	0.628423	0.988973	0.612094
	C122	C	0.626144	0.005870	0.368139
	C123	C	0.381544	0.989297	0.365645
	C124	C	0.626582	0.377576	-0.002677
	C125	C	0.627457	0.620621	0.978974
	C126	C	0.385479	0.619139	-0.002408
	C127	C	0.384500	0.375941	0.980522
	C128	C	0.014036	0.620095	0.367121
	C129	C	0.995786	0.619734	0.609760
	C130	C	0.013091	0.376613	0.608923
	C131	C	0.996230	0.375850	0.366185
	C132	C	0.884871	0.506663	0.108686
	C133	C	0.128590	0.490059	0.111374
	C134	C	0.127832	0.506048	0.866295
	C135	C	0.883322	0.489477	0.865400
	C136	C	0.125257	0.876411	0.497644
	C137	C	0.126125	0.119871	0.480681
	C138	C	0.884110	0.118599	0.496921
	C139	C	0.883477	0.875893	0.479043
	C140	C	0.514289	0.119924	0.867934
	C141	C	0.497175	0.119985	0.110992
	C142	C	0.514632	0.876203	0.110789
	C143	C	0.496949	0.877232	0.868460
	C144	C	0.386140	0.883311	0.665451
	C145	C	0.626033	0.111943	0.667010
	C146	C	0.622601	0.882834	0.313270
	C147	C	0.385596	0.112497	0.311243
	C148	C	0.679434	0.380921	0.872176
	C149	C	0.684441	0.617984	0.102854
	C150	C	0.330165	0.615476	0.873325
	C151	C	0.329845	0.378379	0.104755
	C152	C	0.889913	0.673479	0.368038
	C153	C	0.119193	0.676055	0.609302
	C154	C	0.889413	0.320688	0.607151
	C155	C	0.119502	0.319913	0.367493
	C156	C	0.889132	0.379177	0.663512
	C157	C	0.119919	0.617291	0.664752
	C158	C	0.890057	0.616004	0.311128
	C159	C	0.120601	0.379682	0.312468
	C160	C	0.385525	0.674482	0.874009
	C161	C	0.627247	0.675453	0.103195
	C162	C	0.624617	0.321559	0.873642
	C163	C	0.386870	0.320739	0.104497
	C164	C	0.679828	0.882510	0.371038
	C165	C	0.683734	0.112012	0.609131
	C166	C	0.328462	0.883032	0.607758
	C167	C	0.327261	0.112136	0.368665
	C168	C	0.886902	0.383792	0.164092
	C169	C	0.126819	0.612984	0.166261
	C170	C	0.124109	0.383147	0.811184
	C171	C	0.886859	0.612898	0.810589
	C172	C	0.179442	0.879496	0.373524
	C173	C	0.182263	0.117617	0.604644
	C174	C	0.828039	0.115789	0.372953
	C175	C	0.829947	0.879295	0.603703
	C176	C	0.390775	0.174777	0.868765
	C177	C	0.620876	0.175483	0.110494
	C178	C	0.391076	0.819736	0.108531
	C179	C	0.620934	0.822353	0.870311
	C180	C	0.389881	0.879169	0.163312
	C181	C	0.620886	0.117070	0.166843
	C182	C	0.390108	0.116397	0.812116
	C183	C	0.620923	0.880821	0.814155
	C184	C	0.884396	0.173755	0.373121
	C185	C	0.125796	0.176222	0.603845
	C186	C	0.123190	0.821372	0.373795
	C187	C	0.884984	0.820372	0.602866
	C188	C	0.181764	0.382979	0.869407
	C189	C	0.184126	0.612916	0.108389
	C190	C	0.828467	0.383905	0.106913
	C191	C	0.828862	0.612587	0.867491
	C192	C	0.406121	0.091703	0.587810
	C193	C	0.606042	0.902860	0.589913
	C194	C	0.605115	0.092067	0.389739
	C195	C	0.403013	0.903167	0.387372
	C196	C	0.605368	0.399416	0.083806
	C197	C	0.604239	0.598971	0.892507
	C198	C	0.408743	0.597359	0.084132
	C199	C	0.406626	0.397891	0.894254
	C200	C	0.100642	0.598750	0.390406
	C201	C	0.909189	0.597158	0.586506
	C202	C	0.099229	0.399124	0.586720
	C203	C	0.909946	0.397585	0.388274
	C204	C	0.907867	0.592314	0.086553
	C205	C	0.105698	0.404190	0.088721
	C206	C	0.106803	0.592023	0.888508
	C207	C	0.904595	0.403617	0.887524
	C208	C	0.103473	0.898551	0.584081
	C209	C	0.103004	0.096934	0.394196
	C210	C	0.907072	0.097485	0.583473
	C211	C	0.904899	0.897185	0.392349
	C212	C	0.600882	0.098320	0.891081
	C213	C	0.410624	0.097730	0.087763
	C214	C	0.601163	0.898479	0.089468
	C215	C	0.410486	0.898290	0.890548
	Zn216	Zn	0.504989	-0.001959	0.739536
	Zn217	Zn	0.505090	-0.002490	0.238539
	Zn218	Zn	0.754763	0.498357	-0.012891
	Zn219	Zn	0.257244	0.497971	-0.010922
	Zn220	Zn	0.004126	0.747599	0.488585
	Zn221	Zn	0.004366	0.247910	0.488199
	Zn222	Zn	0.005064	0.498114	0.737105
	Zn223	Zn	0.005915	0.499100	0.239206
	Zn224	Zn	0.505891	0.748228	-0.011050
	Zn225	Zn	0.506604	0.248116	-0.010595
	Zn226	Zn	0.756065	-0.003018	0.488736
	Zn227	Zn	0.253913	-0.002383	0.489424
	N228	N	0.420100	0.960715	0.666738
	N229	N	0.592359	0.034492	0.668820
	N230	N	0.589777	0.960477	0.311529
	N231	N	0.418680	0.034961	0.309311
	N232	N	0.681112	0.414941	0.950035
	N233	N	0.684375	0.584412	0.024771
	N234	N	0.329844	0.581852	0.951243
	N235	N	0.327979	0.411928	0.026741
	N236	N	0.967969	0.676063	0.402098
	N237	N	0.040973	0.677443	0.575581
	N238	N	0.967517	0.318786	0.574145
	N239	N	0.041017	0.317318	0.400080
	N240	N	0.967115	0.413132	0.664811
	N241	N	0.042188	0.582849	0.664933
	N242	N	0.968344	0.583615	0.310542
	N243	N	0.043027	0.413637	0.311458
	N244	N	0.419256	0.676644	0.952390
	N245	N	0.592668	0.677358	0.025183
	N246	N	0.592342	0.319496	0.952156
	N247	N	0.420214	0.319191	0.026356
	N248	N	0.682016	0.960033	0.404519
	N249	N	0.685550	0.034393	0.575765
	N250	N	0.327026	0.960319	0.573918
	N251	N	0.324635	0.034464	0.401583
	N252	N	0.921295	0.461019	0.165247
	N253	N	0.093235	0.535398	0.168283
	N254	N	0.091241	0.460714	0.809158
	N255	N	0.919959	0.535320	0.808918
	N256	N	0.180710	0.913221	0.451465
	N257	N	0.182500	0.083254	0.526958
	N258	N	0.827912	0.081949	0.450904
	N259	N	0.828881	0.913268	0.525803
	N260	N	0.468928	0.177061	0.902653
	N261	N	0.542847	0.177367	0.076443
	N262	N	0.469557	0.817754	0.076438
	N263	N	0.542947	0.820048	0.903819
	N264	N	0.467576	0.913564	0.164950
	N265	N	0.542827	0.083188	0.167277
	N266	N	0.468102	0.083277	0.811230
	N267	N	0.542990	0.914072	0.812994
	N268	N	0.918593	0.175665	0.451151
	N269	N	0.091997	0.177868	0.525480
	N270	N	0.090051	0.819311	0.451930
	N271	N	0.917754	0.818163	0.524670
	N272	N	0.184149	0.460389	0.902996
	N273	N	0.185426	0.535442	0.074920
	N274	N	0.827109	0.461226	0.073014
	N275	N	0.826574	0.535170	0.901012
	O276	O	1.046180	1.063338	0.019250
	H277	H	1.051154	1.068990	0.020432
	H278	H	1.041067	1.072436	0.028432
	O279	O	0.408018	-0.560037	1.452825
	H280	H	0.406026	-0.566146	1.463659
	H281	H	0.406170	-0.559395	1.444705
	O282	O	0.050325	-0.007336	0.032835
	H283	H	0.055400	-0.003884	0.042117
	H284	H	0.043486	-0.003555	0.032801
	O285	O	0.463209	0.510479	0.466408
	H286	H	0.465335	0.503102	0.471513
	H287	H	0.457594	0.499079	0.466757
	O288	O	0.029637	-0.000474	-0.073027
	H289	H	0.038388	-0.008659	-0.080809
	H290	H	0.023702	0.010523	-0.072538
	O291	O	0.043691	0.992239	-0.010751
	H292	H	0.040217	0.986757	-0.008621
	H293	H	0.051770	0.988089	-0.000807
	O294	O	0.053963	1.103433	-0.018511
	H295	H	0.051374	1.096118	-0.021767
	H296	H	0.056077	1.113317	-0.017983
	O297	O	0.422520	0.462223	0.557438
	H298	H	0.420494	0.470489	0.561605
	H299	H	0.431544	0.458718	0.554522
	O300	O	0.460335	0.437214	0.546424
	H301	H	0.459240	0.428581	0.547623
	H302	H	0.456649	0.433833	0.544993
	O303	O	0.939695	0.041196	0.952185
	H304	H	0.935262	0.041423	0.952767
	H305	H	0.938581	0.042843	0.947928
	O306	O	0.021828	1.020516	0.997070
	H307	H	0.018577	1.027793	0.994718
	H308	H	0.018272	1.020539	0.998115
	O309	O	0.046577	1.061500	1.010146
	H310	H	0.047906	1.060118	1.010183
	H311	H	0.055491	1.064480	1.018450
	O312	O	0.018583	0.061472	1.005040
	H313	H	0.012986	0.054766	1.006364
	H314	H	0.026192	0.061274	1.001038
	O315	O	0.471815	0.512857	0.467509
	H316	H	0.462139	0.520325	0.455382
	H317	H	0.469794	0.507297	0.468991
	O318	O	-0.047211	-0.018607	1.009752
	H319	H	-0.052843	-0.021939	1.022572
	H320	H	-0.042825	-0.032466	1.011680
	O321	O	-0.060681	1.039231	0.990355
	H322	H	-0.069571	1.044484	0.993651
	H323	H	-0.057549	1.031154	0.987399
	O324	O	0.995225	0.012907	1.029536
	H325	H	0.985480	0.020076	1.024776
	H326	H	1.007019	0.014007	1.029465
	O327	O	1.007971	0.953844	0.964581
	H328	H	1.018540	0.956660	0.964619
	H329	H	1.001411	0.951881	0.958794
	O330	O	0.425474	0.453501	0.508763
	H331	H	0.421483	0.453664	0.514120
	H332	H	0.421194	0.457655	0.506863
	O333	O	0.456160	0.428030	0.506073
	H334	H	0.446073	0.417748	0.507091
	H335	H	0.460618	0.436035	0.513224
	O336	O	0.511855	0.422125	0.509779
	H337	H	0.506417	0.422992	0.507552
	H338	H	0.518019	0.428359	0.518124
	O339	O	0.473942	0.452401	0.439644
	H340	H	0.476296	0.459340	0.440988
	H341	H	0.481795	0.454170	0.436135
	O342	O	0.513330	0.458350	0.512237
	H343	H	0.518961	0.466038	0.518270
	H344	H	0.523803	0.460377	0.508046
	O345	O	0.458212	0.570703	0.443345
	H346	H	0.451516	0.564521	0.442282
	H347	H	0.454615	0.563697	0.441847
