data_Molecule from HDF5

_cell_length_a		16.622107
_cell_length_b		16.555242
_cell_length_c		16.565515
_cell_angle_alpha	89.873896
_cell_angle_beta	90.012958
_cell_angle_gamma	89.971861
_symmetry_space_group_name_H-M	'P 1'
_symmetry_Int_Tables_number		1

loop_
	_symmetry_equiv_pos_as_xyz
	x,y,z

loop_
	_atom_site_label
	_atom_site_type_symbol
	_atom_site_fract_x
	_atom_site_fract_y
	_atom_site_fract_z
	H0	H	0.375038	0.829522	0.717607
	H1	H	0.584807	0.141835	0.716160
	H2	H	0.588957	0.831817	0.273089
	H3	H	0.378546	0.144187	0.275409
	H4	H	0.701682	0.382937	0.838796
	H5	H	0.705544	0.595228	0.150298
	H6	H	0.258750	0.594024	0.838916
	H7	H	0.262481	0.384350	0.152883
	H8	H	0.825993	0.710556	0.388477
	H9	H	0.137816	0.708746	0.599483
	H10	H	0.826434	0.266780	0.601529
	H11	H	0.137248	0.268514	0.392917
	H12	H	0.826397	0.382900	0.717150
	H13	H	0.136406	0.596807	0.719481
	H14	H	0.825281	0.593949	0.273146
	H15	H	0.137823	0.384621	0.276345
	H16	H	0.373613	0.710663	0.839847
	H17	H	0.587891	0.709502	0.151201
	H18	H	0.583675	0.269187	0.838003
	H19	H	0.379515	0.267821	0.153027
	H20	H	0.705046	0.832324	0.388394
	H21	H	0.703617	0.141580	0.602932
	H22	H	0.260882	0.829179	0.600118
	H23	H	0.263127	0.144276	0.393116
	H24	H	0.877955	0.331045	0.214995
	H25	H	0.084480	0.644504	0.214790
	H26	H	0.085462	0.331872	0.774985
	H27	H	0.876556	0.644613	0.774916
	H28	H	0.201027	0.885247	0.338187
	H29	H	0.202833	0.092757	0.651932
	H30	H	0.759559	0.094420	0.340104
	H31	H	0.761550	0.883889	0.651885
	H32	H	0.324738	0.207034	0.891483
	H33	H	0.638794	0.205818	0.097800
	H34	H	0.325196	0.765954	0.101931
	H35	H	0.635247	0.764075	0.890216
	H36	H	0.325431	0.883622	0.216707
	H37	H	0.638485	0.088914	0.214121
	H38	H	0.324952	0.091145	0.774781
	H39	H	0.636180	0.882280	0.774587
	H40	H	0.876636	0.209524	0.339998
	H41	H	0.085773	0.209019	0.651865
	H42	H	0.085566	0.767520	0.338314
	H43	H	0.878337	0.767526	0.651815
	H44	H	0.200475	0.330700	0.891868
	H45	H	0.202767	0.643631	0.100693
	H46	H	0.760863	0.331848	0.100760
	H47	H	0.758353	0.643063	0.889109
	H48	H	0.401257	0.096258	0.587079
	H49	H	0.569359	0.875281	0.581286
	H50	H	0.569173	0.098195	0.406339
	H51	H	0.394856	0.877856	0.412727
	H52	H	0.568463	0.391616	0.108782
	H53	H	0.566793	0.570162	0.887072
	H54	H	0.394067	0.578997	0.108026
	H55	H	0.385687	0.396168	0.881160
	H56	H	0.093075	0.578160	0.404183
	H57	H	0.870039	0.575762	0.587235
	H58	H	0.095424	0.397661	0.587879
	H59	H	0.869811	0.400024	0.406601
	H60	H	0.092767	0.397798	0.580948
	H61	H	0.869709	0.579727	0.584635
	H62	H	0.092118	0.578374	0.408340
	H63	H	0.869307	0.398672	0.403436
	H64	H	0.387717	0.574188	0.108368
	H65	H	0.564774	0.576776	0.884879
	H66	H	0.577862	0.397301	0.109894
	H67	H	0.391194	0.399107	0.883290
	H68	H	0.571664	0.099198	0.407913
	H69	H	0.572381	0.873962	0.583532
	H70	H	0.386612	0.097151	0.575834
	H71	H	0.385516	0.872633	0.407174
	H72	H	0.890029	0.598833	0.075032
	H73	H	0.070235	0.375812	0.084371
	H74	H	0.072128	0.599820	0.910802
	H75	H	0.890622	0.374968	0.904090
	H76	H	0.067473	0.897562	0.606148
	H77	H	0.070566	0.081040	0.382805
	H78	H	0.896161	0.074713	0.605881
	H79	H	0.894221	0.903297	0.385567
	H80	H	0.594414	0.081086	0.905630
	H81	H	0.367261	0.081890	0.087037
	H82	H	0.591044	0.900560	0.083292
	H83	H	0.367150	0.895680	0.904526
	H84	H	0.593448	0.897705	0.085220
	H85	H	0.370203	0.077122	0.080714
	H86	H	0.591140	0.074766	0.908704
	H87	H	0.370180	0.898353	0.912430
	H88	H	0.891405	0.081788	0.610051
	H89	H	0.074738	0.076012	0.382176
	H90	H	0.072937	0.896086	0.609008
	H91	H	0.895429	0.896378	0.382681
	H92	H	0.071067	0.601581	0.904695
	H93	H	0.075221	0.374006	0.086242
	H94	H	0.886989	0.605126	0.089505
	H95	H	0.895749	0.376797	0.907183
	H96	H	0.385404	0.102478	0.593022
	H97	H	0.568922	0.874184	0.585365
	H98	H	0.570748	0.100317	0.404785
	H99	H	0.396448	0.874517	0.401187
	H100	H	0.568985	0.402392	0.105980
	H101	H	0.572109	0.574564	0.883816
	H102	H	0.394567	0.571917	0.104309
	H103	H	0.391226	0.393168	0.881694
	H104	H	0.091901	0.574400	0.405920
	H105	H	0.871579	0.576198	0.582973
	H106	H	0.091661	0.403798	0.585538
	H107	H	0.868291	0.397219	0.406360
	H108	H	0.901338	0.597942	0.086381
	H109	H	0.070497	0.373848	0.089459
	H110	H	0.066161	0.598298	0.907794
	H111	H	0.890172	0.376525	0.910224
	H112	H	0.072245	0.901287	0.606673
	H113	H	0.068958	0.075212	0.385034
	H114	H	0.887204	0.073029	0.608680
	H115	H	0.888495	0.899757	0.381591
	H116	H	0.594034	0.074035	0.901371
	H117	H	0.369788	0.073709	0.088677
	H118	H	0.592559	0.896752	0.081052
	H119	H	0.370319	0.904044	0.905580
	C120	C	0.359313	-0.005132	0.617306
	C121	C	0.602053	0.977718	0.615960
	C122	C	0.603360	-0.003784	0.373938
	C123	C	0.360954	0.978768	0.374889
	C124	C	0.602807	0.366111	0.004194
	C125	C	0.601704	0.607626	0.987567
	C126	C	0.359271	0.608295	0.003971
	C127	C	0.359233	0.364984	0.986556
	C128	C	-0.010375	0.609744	0.373487
	C129	C	0.973176	0.609717	0.617069
	C130	C	-0.009825	0.367653	0.616784
	C131	C	0.972383	0.366902	0.374039
	C132	C	0.860571	0.496964	0.116180
	C133	C	0.103103	0.478664	0.117285
	C134	C	0.102039	0.496234	0.875031
	C135	C	0.860304	0.479298	0.874696
	C136	C	0.102543	0.866856	0.503361
	C137	C	0.102919	0.109131	0.487062
	C138	C	0.860054	0.109110	0.504672
	C139	C	0.860513	0.866795	0.486465
	C140	C	0.489730	0.108386	0.873756
	C141	C	0.473160	0.108164	0.116321
	C142	C	0.489864	0.865656	0.116969
	C143	C	0.471896	0.865960	0.874818
	C144	C	0.357139	0.876557	0.677230
	C145	C	0.603845	0.095149	0.676353
	C146	C	0.606468	0.878678	0.313497
	C147	C	0.359771	0.097074	0.315667
	C148	C	0.661579	0.364922	0.886004
	C149	C	0.664259	0.612092	0.103946
	C150	C	0.298363	0.612033	0.886428
	C151	C	0.301561	0.364761	0.105563
	C152	C	0.872613	0.670221	0.370655
	C153	C	0.090528	0.669513	0.618687
	C154	C	0.873170	0.307263	0.619514
	C155	C	0.090390	0.308018	0.373441
	C156	C	0.873160	0.365009	0.677175
	C157	C	0.089882	0.613530	0.678198
	C158	C	0.872420	0.612124	0.313222
	C159	C	0.090392	0.365794	0.315697
	C160	C	0.355976	0.669897	0.886618
	C161	C	0.605542	0.668939	0.104438
	C162	C	0.602980	0.308162	0.885482
	C163	C	0.359794	0.307081	0.105661
	C164	C	0.664380	0.879034	0.370909
	C165	C	0.662479	0.095096	0.619747
	C166	C	0.300223	0.876461	0.618883
	C167	C	0.302464	0.097250	0.373826
	C168	C	0.859046	0.378529	0.175548
	C169	C	0.103907	0.597227	0.175635
	C170	C	0.104133	0.378760	0.814996
	C171	C	0.857864	0.597360	0.814630
	C172	C	0.161525	0.865732	0.385210
	C173	C	0.162536	0.111027	0.604989
	C174	C	0.799563	0.112333	0.387215
	C175	C	0.801273	0.864778	0.604748
	C176	C	0.371971	0.167655	0.872353
	C177	C	0.591598	0.166184	0.116716
	C178	C	0.372327	0.805896	0.119839
	C179	C	0.588962	0.804850	0.871848
	C180	C	0.372609	0.864128	0.177278
	C181	C	0.591518	0.108619	0.174964
	C182	C	0.371961	0.109847	0.814567
	C183	C	0.589361	0.863265	0.814430
	C184	C	0.857862	0.169489	0.387082
	C185	C	0.104549	0.168837	0.605019
	C186	C	0.104080	0.807647	0.385193
	C187	C	0.859197	0.807033	0.604713
	C188	C	0.161176	0.378019	0.873181
	C189	C	0.162475	0.596775	0.118730
	C190	C	0.800767	0.378922	0.118750
	C191	C	0.799165	0.596548	0.871304
	C192	C	0.384106	0.077068	0.592670
	C193	C	0.577286	0.895769	0.590660
	C194	C	0.577723	0.078060	0.399095
	C195	C	0.385243	0.896328	0.399720
	C196	C	0.578554	0.390277	0.086823
	C197	C	0.575162	0.581443	0.906347
	C198	C	0.384726	0.582486	0.085526
	C199	C	0.382680	0.389032	0.903686
	C200	C	0.071286	0.584391	0.398912
	C201	C	0.891630	0.584460	0.592073
	C202	C	0.072017	0.392641	0.591691
	C203	C	0.890271	0.391463	0.398490
	C204	C	0.885428	0.579103	0.090891
	C205	C	0.078965	0.396012	0.093476
	C206	C	0.077120	0.578553	0.900541
	C207	C	0.885204	0.397444	0.899874
	C208	C	0.077960	0.891428	0.585874
	C209	C	0.078233	0.084534	0.404764
	C210	C	0.884686	0.083697	0.586890
	C211	C	0.885603	0.892313	0.404588
	C212	C	0.571861	0.083574	0.898083
	C213	C	0.390517	0.084179	0.092363
	C214	C	0.571219	0.891065	0.090797
	C215	C	0.390457	0.891940	0.900220
	Zn216	Zn	0.480727	-0.013950	0.745184
	Zn217	Zn	0.481923	-0.012621	0.245847
	Zn218	Zn	0.731579	0.487617	-0.004487
	Zn219	Zn	0.230932	0.487096	-0.004442
	Zn220	Zn	-0.018151	0.738181	0.494848
	Zn221	Zn	-0.018510	0.238272	0.495601
	Zn222	Zn	-0.018394	0.488468	0.746135
	Zn223	Zn	-0.019056	0.488024	0.245114
	Zn224	Zn	0.480595	0.736477	-0.004197
	Zn225	Zn	0.481773	0.237064	-0.004827
	Zn226	Zn	0.731533	-0.012474	0.495322
	Zn227	Zn	0.231697	-0.012863	0.495629
	N228	N	0.393302	0.951276	0.676488
	N229	N	0.566751	0.021204	0.674210
	N230	N	0.569158	0.952584	0.315280
	N231	N	0.395453	0.022358	0.316192
	N232	N	0.661685	0.400284	0.960825
	N233	N	0.662003	0.574569	0.030080
	N234	N	0.300081	0.574524	0.960365
	N235	N	0.300768	0.399871	0.030360
	N236	N	0.946636	0.669008	0.407404
	N237	N	0.016844	0.667642	0.581472
	N238	N	0.946986	0.308735	0.582672
	N239	N	0.015786	0.308416	0.408993
	N240	N	0.947040	0.402119	0.675459
	N241	N	0.015817	0.577127	0.677501
	N242	N	0.946304	0.575328	0.314763
	N243	N	0.015848	0.401405	0.315823
	N244	N	0.392812	0.668052	0.960887
	N245	N	0.567278	0.666211	0.031069
	N246	N	0.567167	0.308535	0.960198
	N247	N	0.394443	0.306696	0.030412
	N248	N	0.662751	0.953304	0.407648
	N249	N	0.661613	0.020975	0.582903
	N250	N	0.301060	0.951072	0.582676
	N251	N	0.303009	0.022624	0.410090
	N252	N	0.895469	0.452915	0.174291
	N253	N	0.067623	0.522718	0.174953
	N254	N	0.068253	0.453544	0.815961
	N255	N	0.894963	0.523407	0.816246
	N256	N	0.160953	0.901495	0.459823
	N257	N	0.161686	0.074467	0.530645
	N258	N	0.800769	0.075486	0.461507
	N259	N	0.801482	0.900754	0.530066
	N260	N	0.446291	0.166992	0.908426
	N261	N	0.516920	0.166187	0.081201
	N262	N	0.446484	0.806340	0.083390
	N263	N	0.514872	0.806304	0.908473
	N264	N	0.446858	0.900364	0.175975
	N265	N	0.516795	0.073437	0.174948
	N266	N	0.446227	0.073685	0.815237
	N267	N	0.515450	0.900221	0.815919
	N268	N	0.894639	0.167881	0.461192
	N269	N	0.068125	0.167771	0.530663
	N270	N	0.068198	0.808223	0.459815
	N271	N	0.895118	0.807894	0.530088
	N272	N	0.160241	0.452380	0.909548
	N273	N	0.161869	0.522175	0.083063
	N274	N	0.801479	0.453625	0.082527
	N275	N	0.800297	0.522160	0.907712
	O276	O	-0.030101	0.766074	-0.022509
	H277	H	-0.031948	0.784000	-0.010405
	H278	H	-0.037902	0.755599	-0.021374
	O279	O	0.652236	0.445360	0.344231
	H280	H	0.649251	0.459259	0.359463
	H281	H	0.656988	0.442291	0.336887
	O282	O	1.261134	0.271743	0.712834
	H283	H	1.273722	0.306298	0.710908
	H284	H	1.269439	0.275360	0.670601
	O285	O	0.538097	0.315932	0.441886
	H286	H	0.549338	0.316551	0.433615
	H287	H	0.555163	0.306370	0.440079
	O288	O	0.278585	0.286360	0.296508
	H289	H	0.282604	0.303030	0.320478
	H290	H	0.307652	0.307931	0.308371
	O291	O	0.365034	0.471655	0.460478
	H292	H	0.377582	0.464095	0.460627
	H293	H	0.360549	0.491745	0.467161
	O294	O	1.447780	0.343961	1.296991
	H295	H	1.462558	0.360050	1.294631
	H296	H	1.452199	0.337072	1.286788
	O297	O	0.450305	0.381812	0.526798
	H298	H	0.439532	0.384145	0.529560
	H299	H	0.457946	0.388082	0.518870
	O300	O	0.067380	-0.079924	0.987827
	H301	H	0.077013	-0.070774	0.979906
	H302	H	0.059854	-0.069720	0.987686
	O303	O	0.613023	0.308725	0.457105
	H304	H	0.600954	0.311975	0.438961
	H305	H	0.639255	0.292934	0.444124
	O306	O	0.508962	0.706491	0.718840
	H307	H	0.534759	0.725998	0.737559
	H308	H	0.538147	0.707807	0.724545
	O309	O	0.326898	0.537290	0.488835
	H310	H	0.332432	0.549380	0.480668
	H311	H	0.332289	0.536006	0.508660
	O312	O	0.671167	0.297013	0.683008
	H313	H	0.660557	0.311355	0.677523
	H314	H	0.660795	0.304698	0.655657
	O315	O	0.796026	1.174381	1.181410
	H316	H	0.813464	1.149493	1.167166
	H317	H	0.821981	1.166290	1.163170
	O318	O	0.079298	0.126836	0.872344
	H319	H	0.065472	0.141395	0.863704
	H320	H	0.081827	0.129295	0.872375
	O321	O	0.509767	0.482871	0.704409
	H322	H	0.524735	0.468194	0.704786
	H323	H	0.525173	0.499302	0.712784
	O324	O	0.927645	1.047924	0.222803
	H325	H	0.941487	1.053739	0.225065
	H326	H	0.947402	1.037393	0.220341
	O327	O	-0.163567	0.093893	1.045109
	H328	H	-0.153394	0.110529	1.036072
	H329	H	-0.154877	0.103616	1.049652
	O330	O	0.170583	1.135174	-0.152221
	H331	H	0.162174	1.144119	-0.157930
	H332	H	0.176864	1.154927	-0.159161
	O333	O	0.760938	0.203652	0.963723
	H334	H	0.759851	0.222033	0.954612
	H335	H	0.755401	0.210278	0.951111
	O336	O	0.306357	0.272681	0.519427
	H337	H	0.302787	0.272777	0.506323
	H338	H	0.311108	0.272868	0.500926
	O339	O	1.020283	0.020673	0.788469
	H340	H	1.042581	0.023856	0.783020
	H341	H	1.016624	0.028962	0.784094
	O342	O	0.331650	0.468251	0.534904
	H343	H	0.335800	0.486702	0.554283
	H344	H	0.326332	0.475115	0.515285
	O345	O	-0.121028	1.137218	0.788557
	H346	H	-0.134722	1.133151	0.780391
	H347	H	-0.129807	1.158027	0.789782
	O348	O	0.415420	0.597932	0.651190
	H349	H	0.418506	0.593456	0.664858
	H350	H	0.416456	0.585443	0.650936
	O351	O	-0.099819	0.943206	-0.205515
	H352	H	-0.090979	0.946124	-0.206923
	H353	H	-0.097863	0.953336	-0.213882
	O354	O	0.205272	0.207999	1.031410
	H355	H	0.227574	0.229370	1.032858
	H356	H	0.206498	0.208524	1.065029
	O357	O	0.261735	0.523877	0.356591
	H358	H	0.260724	0.533456	0.358029
	H359	H	0.253748	0.541803	0.346041
	O360	O	0.588081	0.690207	0.380908
	H361	H	0.572795	0.677306	0.375803
	H362	H	0.573273	0.692722	0.396824
	O363	O	0.068589	0.191413	-0.063402
	H364	H	0.091768	0.205057	-0.062863
	H365	H	0.081118	0.191233	-0.069019
	O366	O	0.382618	0.693718	0.358616
	H367	H	0.362951	0.708587	0.368533
	H368	H	0.373887	0.696401	0.377803
	O369	O	1.196135	-0.045798	-0.218388
	H370	H	1.210591	-0.033569	-0.225860
	H371	H	1.199632	-0.037005	-0.212015
	O372	O	0.764338	0.768826	0.015643
	H373	H	0.748092	0.758516	0.034057
	H374	H	0.765116	0.773291	0.033196
	O375	O	0.770099	-0.044394	0.206816
	H376	H	0.756717	-0.048823	0.218534
	H377	H	0.777635	-0.028875	0.214538
	O378	O	0.473835	0.682227	0.546189
	H379	H	0.465664	0.690274	0.557765
	H380	H	0.474699	0.671730	0.559310
	O381	O	-0.131037	1.011890	0.797605
	H382	H	-0.123115	1.017154	0.803737
	H383	H	-0.130606	1.016999	0.790299
	O384	O	0.969865	-0.007185	1.072612
	H385	H	0.970749	-0.020044	1.073783
	H386	H	0.967367	-0.004003	1.064370
	O387	O	1.116113	0.817121	0.091346
	H388	H	1.104738	0.820292	0.075836
	H389	H	1.100999	0.831264	0.078192
	O390	O	0.779582	0.783383	0.196663
	H391	H	0.768349	0.764044	0.215099
	H392	H	0.780412	0.813265	0.190928
	O393	O	0.504491	0.446469	0.393786
	H394	H	0.493152	0.451928	0.392033
	H395	H	0.513242	0.444878	0.391327
	O396	O	-0.046327	1.209428	1.003755
	H397	H	-0.033758	1.217353	0.998666
	H398	H	-0.047232	1.216590	0.992201
	O399	O	0.181624	0.186726	1.196017
	H400	H	0.215191	0.215627	1.230391
	H401	H	0.189498	0.144025	1.192295
	O402	O	0.698323	-0.290962	0.529962
	H403	H	0.695184	-0.290134	0.514768
	H404	H	0.707616	-0.276978	0.511643
	O405	O	2.100159	0.995778	0.148014
	H406	H	2.105073	0.984431	0.138513
	H407	H	2.095869	0.989387	0.142131
	O408	O	0.111453	-0.071315	0.063966
	H409	H	0.104292	-0.088032	0.037829
	H410	H	0.122252	-0.067213	0.046239
	O411	O	1.182136	0.790068	0.801668
	H412	H	1.159626	0.784157	0.803505
	H413	H	1.177338	0.828004	0.795241
	O414	O	0.706111	0.532391	0.484814
	H415	H	0.718687	0.520166	0.498189
	H416	H	0.694171	0.536767	0.494550
	O417	O	0.957428	0.777313	0.205706
	H418	H	0.944279	0.779438	0.218388
	H419	H	0.942322	0.763145	0.205787
	O420	O	0.679965	0.587024	0.328581
	H421	H	0.659271	0.584143	0.341059
	H422	H	0.679204	0.577887	0.320758
	O423	O	-0.108347	-0.074173	1.103984
	H424	H	-0.101666	-0.055933	1.118763
	H425	H	-0.108834	-0.062615	1.095414
	O426	O	0.324742	0.663989	0.566300
	H427	H	0.338190	0.672947	0.586731
	H428	H	0.332157	0.645487	0.571715
	O429	O	1.010025	1.200015	1.209078
	H430	H	1.023291	1.208972	1.223970
	H431	H	1.039894	1.207241	1.216116
	O432	O	0.351660	0.360164	0.469942
	H433	H	0.357033	0.381722	0.451221
	H434	H	0.359676	0.372650	0.458964
	O435	O	-0.313870	0.698262	-0.296089
	H436	H	-0.305776	0.705289	-0.350174
	H437	H	-0.279139	0.732290	-0.267699
	O438	O	-0.212775	-0.200871	-0.196756
	H439	H	-0.182485	-0.178135	-0.189451
	H440	H	-0.212673	-0.184983	-0.161212
	O441	O	-0.317148	-0.475413	-0.290605
	H442	H	-0.302037	-0.452292	-0.277743
	H443	H	-0.311586	-0.450083	-0.288055
	O444	O	0.487190	0.320646	0.595781
	H445	H	0.495011	0.316720	0.594892
	H446	H	0.475394	0.326050	0.601956
	O447	O	0.141880	1.027582	1.085846
	H448	H	0.140647	1.028164	1.090414
	H449	H	0.145687	1.045041	1.091637
	O450	O	-0.306940	1.278578	1.279906
	H451	H	-0.276678	1.262294	1.252322
	H452	H	-0.301645	1.294500	1.287690
	O453	O	0.455827	0.707685	0.273706
	H454	H	0.439482	0.728566	0.252670
	H455	H	0.444918	0.706159	0.279047
	O456	O	0.555121	0.530126	1.265385
	H457	H	0.549663	0.541724	1.261739
	H458	H	0.547419	0.523479	1.268440
	O459	O	1.202999	0.768957	-0.034646
	H460	H	1.204898	0.755796	-0.043302
	H461	H	1.213175	0.751452	-0.057558
	O462	O	0.655055	0.434681	0.580976
	H463	H	0.653853	0.428222	0.589052
	H464	H	0.661856	0.439102	0.584386
	O465	O	1.391682	0.631935	0.483678
	H466	H	1.381279	0.647789	0.480781
	H467	H	1.395312	0.622816	0.470796
	O468	O	0.312824	0.463948	0.708552
	H469	H	0.334562	0.467953	0.718112
	H470	H	0.302169	0.459344	0.715481
	O471	O	0.769261	0.196610	0.786179
	H472	H	0.752689	0.219848	0.758907
	H473	H	0.780243	0.177260	0.797203
	O474	O	0.447352	0.276544	0.705743
	H475	H	0.435104	0.260797	0.725204
	H476	H	0.431584	0.281921	0.690264
	O477	O	0.985971	-0.142806	2.019547
	H478	H	0.995306	-0.140425	2.018764
	H479	H	0.963215	-0.145262	2.010413
	O480	O	0.234686	0.774037	0.194867
	H481	H	0.253937	0.784004	0.192362
	H482	H	0.212228	0.792650	0.165423
	O483	O	-0.232055	0.974079	-0.033924
	H484	H	-0.220278	0.979922	-0.023635
	H485	H	-0.236826	0.977308	-0.019455
	O486	O	1.015276	-0.231579	0.776740
	H487	H	1.009304	-0.228863	0.788434
	H488	H	1.010460	-0.259239	0.756368
	O489	O	1.421390	0.419386	0.253381
	H490	H	1.413361	0.412280	0.232265
	H491	H	1.451642	0.431304	0.248179
