data_Molecule from HDF5

_cell_length_a		16.172911
_cell_length_b		16.227237
_cell_length_c		16.599961
_cell_angle_alpha	90.088772
_cell_angle_beta	90.152780
_cell_angle_gamma	89.780208
_symmetry_space_group_name_H-M	'P 1'
_symmetry_Int_Tables_number		1

loop_
	_symmetry_equiv_pos_as_xyz
	x,y,z

loop_
	_atom_site_label
	_atom_site_type_symbol
	_atom_site_fract_x
	_atom_site_fract_y
	_atom_site_fract_z
	H0	H	0.386321	0.830364	0.721740
	H1	H	0.605275	0.146751	0.726034
	H2	H	0.603024	0.828320	0.281163
	H3	H	0.389918	0.150180	0.279924
	H4	H	0.718014	0.384820	0.846379
	H5	H	0.712291	0.593136	0.160873
	H6	H	0.273268	0.593595	0.844191
	H7	H	0.277016	0.388818	0.161332
	H8	H	0.831400	0.707006	0.404124
	H9	H	0.157239	0.708957	0.605005
	H10	H	0.832114	0.277737	0.602315
	H11	H	0.157199	0.272845	0.399677
	H12	H	0.835961	0.386254	0.723134
	H13	H	0.153683	0.602959	0.728312
	H14	H	0.835237	0.601455	0.280129
	H15	H	0.155877	0.386496	0.281853
	H16	H	0.386494	0.711292	0.843714
	H17	H	0.594860	0.709929	0.160619
	H18	H	0.601096	0.268491	0.845302
	H19	H	0.392172	0.269485	0.160135
	H20	H	0.711269	0.827340	0.403496
	H21	H	0.709219	0.151919	0.602451
	H22	H	0.278730	0.828047	0.598790
	H23	H	0.277643	0.152900	0.397919
	H24	H	0.887681	0.332943	0.224339
	H25	H	0.102240	0.652829	0.223660
	H26	H	0.104210	0.333207	0.780160
	H27	H	0.884119	0.651005	0.780427
	H28	H	0.213481	0.886676	0.341581
	H29	H	0.216961	0.094878	0.658748
	H30	H	0.775327	0.092435	0.342473
	H31	H	0.775726	0.889002	0.660596
	H32	H	0.333250	0.207821	0.899944
	H33	H	0.658892	0.205473	0.102891
	H34	H	0.329709	0.777446	0.098689
	H35	H	0.656792	0.771795	0.902346
	H36	H	0.335526	0.882329	0.223387
	H37	H	0.656820	0.094201	0.222507
	H38	H	0.336108	0.097987	0.778433
	H39	H	0.655823	0.880455	0.781355
	H40	H	0.891088	0.211449	0.342654
	H41	H	0.099666	0.211918	0.660096
	H42	H	0.097887	0.768263	0.343940
	H43	H	0.889843	0.770487	0.660477
	H44	H	0.208627	0.327981	0.904839
	H45	H	0.211727	0.654128	0.103051
	H46	H	0.778593	0.329608	0.105169
	H47	H	0.775549	0.652786	0.901966
	H48	H	0.409975	0.105266	0.592817
	H49	H	0.587320	0.871719	0.593832
	H50	H	0.577809	0.102867	0.412793
	H51	H	0.407267	0.870117	0.395065
	H52	H	0.577939	0.397982	0.112997
	H53	H	0.593776	0.571615	0.889172
	H54	H	0.408284	0.578749	0.112535
	H55	H	0.401924	0.403462	0.890274
	H56	H	0.108557	0.577208	0.415219
	H57	H	0.877992	0.593747	0.583570
	H58	H	0.108497	0.405212	0.584610
	H59	H	0.879820	0.403468	0.411027
	H60	H	0.110510	0.411025	0.596621
	H61	H	0.887268	0.564005	0.587381
	H62	H	0.111376	0.576677	0.408825
	H63	H	0.880077	0.405511	0.410524
	H64	H	0.405824	0.590223	0.116150
	H65	H	0.572879	0.576807	0.893989
	H66	H	0.589341	0.393630	0.119535
	H67	H	0.406772	0.397206	0.889754
	H68	H	0.588207	0.106652	0.410908
	H69	H	0.582939	0.872621	0.595138
	H70	H	0.410759	0.103861	0.589061
	H71	H	0.419023	0.881263	0.416124
	H72	H	0.911104	0.604039	0.091718
	H73	H	0.087839	0.372452	0.103085
	H74	H	0.084024	0.610516	0.904522
	H75	H	0.910831	0.372320	0.897108
	H76	H	0.083043	0.901153	0.612913
	H77	H	0.083342	0.071331	0.392274
	H78	H	0.903870	0.086846	0.615048
	H79	H	0.908190	0.896286	0.389923
	H80	H	0.610367	0.073835	0.910110
	H81	H	0.379870	0.074127	0.095421
	H82	H	0.607713	0.905393	0.089251
	H83	H	0.380300	0.906700	0.912324
	H84	H	0.613632	0.900549	0.100096
	H85	H	0.377903	0.082933	0.093498
	H86	H	0.612375	0.078962	0.910158
	H87	H	0.377813	0.903974	0.904324
	H88	H	0.900687	0.084108	0.615758
	H89	H	0.075769	0.088634	0.389509
	H90	H	0.088270	0.897809	0.615591
	H91	H	0.900581	0.900086	0.388493
	H92	H	0.071804	0.603485	0.915005
	H93	H	0.074879	0.380212	0.094827
	H94	H	0.900643	0.607671	0.089119
	H95	H	0.921067	0.383640	0.918997
	H96	H	0.407458	0.105309	0.589373
	H97	H	0.584326	0.873470	0.590731
	H98	H	0.580833	0.106922	0.402788
	H99	H	0.393574	0.872651	0.417275
	H100	H	0.588680	0.405972	0.113599
	H101	H	0.585762	0.590849	0.885187
	H102	H	0.397238	0.581186	0.116674
	H103	H	0.399722	0.396696	0.886789
	H104	H	0.112400	0.582786	0.412805
	H105	H	0.873597	0.579947	0.610828
	H106	H	0.114009	0.398041	0.594544
	H107	H	0.878679	0.404120	0.409272
	H108	H	0.905230	0.610285	0.098777
	H109	H	0.089431	0.377442	0.086896
	H110	H	0.088564	0.606899	0.921149
	H111	H	0.895455	0.374351	0.918583
	H112	H	0.089050	0.904575	0.613581
	H113	H	0.093296	0.085466	0.384771
	H114	H	0.904481	0.082546	0.613231
	H115	H	0.906974	0.904702	0.391947
	H116	H	0.610031	0.076400	0.914511
	H117	H	0.381968	0.077157	0.087452
	H118	H	0.612428	0.892386	0.089629
	H119	H	0.377525	0.898025	0.911286
	C120	C	0.375924	-0.001346	0.621044
	C121	C	0.616268	0.979650	0.623416
	C122	C	0.615401	-0.001646	0.379359
	C123	C	0.373959	0.981123	0.378032
	C124	C	0.618152	0.367278	0.011539
	C125	C	0.615387	0.611899	0.993783
	C126	C	0.371340	0.613986	0.010554
	C127	C	0.372564	0.368452	0.994023
	C128	C	0.003652	0.611662	0.381690
	C129	C	0.985895	0.612721	0.625287
	C130	C	0.004165	0.372747	0.622424
	C131	C	0.986101	0.371288	0.379410
	C132	C	0.874195	0.500701	0.124252
	C133	C	0.116326	0.483133	0.125103
	C134	C	0.114823	0.500800	0.881880
	C135	C	0.874384	0.482583	0.880795
	C136	C	0.117540	0.868778	0.509392
	C137	C	0.116798	0.113534	0.492979
	C138	C	0.871541	0.114569	0.509893
	C139	C	0.873652	0.869533	0.494501
	C140	C	0.504570	0.109702	0.880029
	C141	C	0.487303	0.109799	0.122849
	C142	C	0.503542	0.869314	0.122203
	C143	C	0.485526	0.869449	0.879545
	C144	C	0.370874	0.878153	0.680529
	C145	C	0.620928	0.099703	0.684479
	C146	C	0.619361	0.876516	0.321496
	C147	C	0.371357	0.101993	0.319129
	C148	C	0.677875	0.366054	0.893185
	C149	C	0.673229	0.612284	0.113478
	C150	C	0.312058	0.613366	0.891702
	C151	C	0.315530	0.368965	0.113550
	C152	C	0.880873	0.669823	0.382956
	C153	C	0.108182	0.671305	0.625240
	C154	C	0.881486	0.315273	0.621927
	C155	C	0.108273	0.311795	0.379937
	C156	C	0.883332	0.369599	0.682093
	C157	C	0.106089	0.618687	0.686704
	C158	C	0.882650	0.616927	0.321602
	C159	C	0.107738	0.368527	0.321280
	C160	C	0.368749	0.672044	0.891423
	C161	C	0.614730	0.670328	0.113177
	C162	C	0.619914	0.308152	0.892494
	C163	C	0.372887	0.309507	0.112873
	C164	C	0.673214	0.875962	0.382227
	C165	C	0.672741	0.102292	0.622919
	C166	C	0.317101	0.876843	0.619545
	C167	C	0.315717	0.103423	0.378147
	C168	C	0.871340	0.380428	0.183569
	C169	C	0.119418	0.604615	0.183835
	C170	C	0.119452	0.380270	0.821707
	C171	C	0.868396	0.603040	0.821004
	C172	C	0.174754	0.867892	0.389581
	C173	C	0.177185	0.114436	0.611568
	C174	C	0.813856	0.112968	0.390334
	C175	C	0.815086	0.869877	0.613334
	C176	C	0.382325	0.169391	0.879786
	C177	C	0.609716	0.167569	0.122822
	C178	C	0.379786	0.813590	0.120195
	C179	C	0.608119	0.810331	0.881560
	C180	C	0.382526	0.866115	0.181834
	C181	C	0.608716	0.111796	0.182234
	C182	C	0.383902	0.114477	0.819455
	C183	C	0.607552	0.864868	0.821690
	C184	C	0.871518	0.172076	0.390150
	C185	C	0.118717	0.172645	0.612251
	C186	C	0.117569	0.808793	0.390735
	C187	C	0.871876	0.810773	0.613457
	C188	C	0.172269	0.377967	0.883221
	C189	C	0.174016	0.605463	0.123853
	C190	C	0.816862	0.378646	0.123998
	C191	C	0.814133	0.603878	0.881477
	C192	C	0.401879	0.082818	0.597166
	C193	C	0.591870	0.894783	0.600008
	C194	C	0.589823	0.083312	0.402250
	C195	C	0.399366	0.896466	0.402376
	C196	C	0.592837	0.391784	0.093970
	C197	C	0.591258	0.587139	0.910972
	C198	C	0.396635	0.590225	0.093641
	C199	C	0.395930	0.392095	0.910594
	C200	C	0.088595	0.586369	0.405473
	C201	C	0.901608	0.586884	0.600710
	C202	C	0.088925	0.397846	0.598737
	C203	C	0.901419	0.396879	0.403316
	C204	C	0.898616	0.585334	0.100113
	C205	C	0.091301	0.398686	0.101782
	C206	C	0.088845	0.585033	0.906335
	C207	C	0.901404	0.398534	0.904521
	C208	C	0.093692	0.893776	0.592217
	C209	C	0.091277	0.089115	0.410329
	C210	C	0.896031	0.091432	0.593013
	C211	C	0.898374	0.893527	0.411803
	C212	C	0.588793	0.083918	0.904560
	C213	C	0.402216	0.085177	0.098847
	C214	C	0.589038	0.892658	0.099312
	C215	C	0.400708	0.895419	0.902424
	Zn216	Zn	0.495885	-0.011423	0.750590
	Zn217	Zn	0.495513	-0.011438	0.250957
	Zn218	Zn	0.746589	0.490459	0.002878
	Zn219	Zn	0.242835	0.491396	0.002665
	Zn220	Zn	-0.005163	0.738844	0.503281
	Zn221	Zn	-0.005281	0.244054	0.501864
	Zn222	Zn	-0.004478	0.492259	0.752864
	Zn223	Zn	-0.005507	0.493280	0.252042
	Zn224	Zn	0.493279	0.742292	0.000829
	Zn225	Zn	0.495894	0.238304	0.001651
	Zn226	Zn	0.742382	-0.009385	0.501975
	Zn227	Zn	0.246956	-0.009007	0.500402
	N228	N	0.406874	0.954958	0.681701
	N229	N	0.586564	0.022432	0.684962
	N230	N	0.584162	0.953790	0.319662
	N231	N	0.406588	0.024817	0.318959
	N232	N	0.677005	0.402021	0.968228
	N233	N	0.673847	0.576726	0.038283
	N234	N	0.313634	0.578015	0.966792
	N235	N	0.315430	0.404916	0.038580
	N236	N	0.957071	0.666452	0.419803
	N237	N	0.032304	0.667867	0.587940
	N238	N	0.957827	0.316915	0.585637
	N239	N	0.031555	0.313381	0.415340
	N240	N	0.960466	0.404827	0.682513
	N241	N	0.029051	0.583098	0.687053
	N242	N	0.959966	0.581539	0.320730
	N243	N	0.030795	0.404786	0.320810
	N244	N	0.405078	0.672423	0.966373
	N245	N	0.579568	0.670178	0.037798
	N246	N	0.583429	0.308880	0.967136
	N247	N	0.407598	0.309037	0.037450
	N248	N	0.671048	0.952838	0.417406
	N249	N	0.670119	0.026664	0.585709
	N250	N	0.320240	0.952726	0.583051
	N251	N	0.316982	0.027124	0.414022
	N252	N	0.906316	0.457230	0.183614
	N253	N	0.084273	0.527574	0.184857
	N254	N	0.084742	0.457790	0.820522
	N255	N	0.905351	0.526586	0.820537
	N256	N	0.174972	0.904335	0.464468
	N257	N	0.176385	0.078714	0.536522
	N258	N	0.813423	0.078282	0.465884
	N259	N	0.816063	0.905788	0.538391
	N260	N	0.458485	0.166878	0.916718
	N261	N	0.533117	0.166495	0.086707
	N262	N	0.456055	0.815460	0.083722
	N263	N	0.531359	0.812881	0.916675
	N264	N	0.460333	0.899906	0.183294
	N265	N	0.531375	0.076776	0.182398
	N266	N	0.460767	0.077984	0.819458
	N267	N	0.530320	0.900661	0.820182
	N268	N	0.906305	0.173551	0.465641
	N269	N	0.081918	0.172207	0.537426
	N270	N	0.082595	0.809025	0.466087
	N271	N	0.907744	0.810543	0.538605
	N272	N	0.169384	0.453777	0.920030
	N273	N	0.172446	0.529142	0.088251
	N274	N	0.818469	0.454590	0.087603
	N275	N	0.817677	0.528026	0.918048
	O276	O	0.698742	0.288652	0.467338
	H277	H	0.731511	0.257850	0.477076
	H278	H	0.679860	0.297350	0.448369
	O279	O	0.418902	0.374052	0.417382
	H280	H	0.416011	0.358921	0.423452
	H281	H	0.421170	0.376454	0.439432
	O282	O	0.615629	0.500451	0.635473
	H283	H	0.612667	0.499580	0.630699
	H284	H	0.631984	0.503970	0.644632
	O285	O	0.827008	-0.133293	0.195982
	H286	H	0.830919	-0.138180	0.191684
	H287	H	0.839349	-0.144349	0.210363
	O288	O	-0.698775	0.645751	0.432617
	H289	H	-0.704170	0.643540	0.405454
	H290	H	-0.701588	0.650107	0.427425
	O291	O	0.671095	0.655297	0.630145
	H292	H	0.673294	0.641797	0.613985
	H293	H	0.662995	0.636145	0.640798
	O294	O	0.639668	0.666750	0.500853
	H295	H	0.627431	0.667881	0.495012
	H296	H	0.634751	0.661578	0.517683
	O297	O	1.079212	0.881196	0.879139
	H298	H	1.078513	0.886450	0.905267
	H299	H	1.044660	0.872467	0.878916
	O300	O	0.293819	0.389215	0.391087
	H301	H	0.302046	0.386192	0.384531
	H302	H	0.317092	0.379315	0.402169
	O303	O	0.590771	0.602555	0.437217
	H304	H	0.585335	0.607383	0.444792
	H305	H	0.583907	0.588608	0.427841
	O306	O	1.167529	0.065278	0.110739
	H307	H	1.171191	0.072074	0.109102
	H308	H	1.191873	0.073614	0.111753
	O309	O	0.627203	0.533959	0.548748
	H310	H	0.630731	0.548651	0.560789
	H311	H	0.609537	0.546096	0.556060
	O312	O	0.953940	0.885219	0.027803
	H313	H	0.956183	0.877184	0.037010
	H314	H	0.958566	0.888584	0.039009
	O315	O	0.421385	0.449810	0.526470
	H316	H	0.427274	0.441185	0.533865
	H317	H	0.411831	0.432506	0.524476
	O318	O	0.794089	1.087773	-0.079522
	H319	H	0.788918	1.108218	-0.070895
	H320	H	0.803858	1.087732	-0.082968
	O321	O	1.394249	-0.506716	1.342034
	H322	H	1.400906	-0.529905	1.346671
	H323	H	1.403254	-0.510696	1.343700
	O324	O	-0.076417	0.159874	1.099594
	H325	H	-0.056320	0.157904	1.114050
	H326	H	-0.075975	0.149669	1.091196
	O327	O	0.654036	0.296798	0.304118
	H328	H	0.657543	0.322390	0.316946
	H329	H	0.648357	0.299455	0.286655
	O330	O	0.608994	0.442692	0.521932
	H331	H	0.603874	0.451411	0.527916
	H332	H	0.594576	0.445753	0.516415
	O333	O	0.481875	1.341803	0.645524
	H334	H	0.481963	1.334136	0.654539
	H335	H	0.488739	1.340611	0.644564
	O336	O	0.871618	-0.173132	1.076376
	H337	H	0.879978	-0.169487	1.094430
	H338	H	0.871984	-0.163325	1.088556
	O339	O	1.015029	0.130091	1.133354
	H340	H	1.020000	0.147831	1.150440
	H341	H	0.998614	0.123032	1.135761
	O342	O	0.104236	1.059581	1.050612
	H343	H	0.109280	1.061975	1.054770
	H344	H	0.115066	1.063025	1.054115
	O345	O	0.114827	0.959667	1.079745
	H346	H	0.114563	0.967171	1.066707
	H347	H	0.118386	0.969423	1.086217
	O348	O	0.864778	1.180907	-0.200691
	H349	H	0.871049	1.157677	-0.203565
	H350	H	0.861000	1.185992	-0.178511
	O351	O	-0.015479	-0.143294	-0.059246
	H352	H	-0.022659	-0.144475	-0.072385
	H353	H	-0.017261	-0.140383	-0.062765
	O354	O	1.113609	1.051698	-0.119576
	H355	H	1.108071	1.023777	-0.118624
	H356	H	1.116549	1.046585	-0.137309
	O357	O	0.108241	0.846082	-0.037913
	H358	H	0.111221	0.849609	-0.031846
	H359	H	0.098916	0.847509	-0.030944
	O360	O	0.317770	0.352554	0.684653
	H361	H	0.308028	0.392279	0.686498
	H362	H	0.339351	0.353209	0.694279
	O363	O	0.623518	0.477749	0.347661
	H364	H	0.614300	0.483536	0.346393
	H365	H	0.627045	0.494545	0.355129
	O366	O	0.385046	0.526983	0.330980
	H367	H	0.379897	0.529801	0.331339
	H368	H	0.377260	0.518785	0.327191
	O369	O	0.638130	0.453272	0.607738
	H370	H	0.625503	0.441454	0.604869
	H371	H	0.635298	0.443684	0.598691
	O372	O	-0.087318	1.069782	0.088688
	H373	H	-0.079216	1.087767	0.092799
	H374	H	-0.075227	1.060924	0.083326
	O375	O	0.477087	0.608647	0.657007
	H376	H	0.466034	0.615992	0.666493
	H377	H	0.460516	0.602842	0.656786
	O378	O	0.467236	0.573185	0.375365
	H379	H	0.466996	0.589117	0.373264
	H380	H	0.449954	0.559386	0.365773
	O381	O	0.523565	0.660992	0.700886
	H382	H	0.523317	0.674080	0.707326
	H383	H	0.523532	0.669459	0.690160
	O384	O	-0.115187	0.902771	0.896638
	H385	H	-0.122817	0.912155	0.911606
	H386	H	-0.123712	0.913882	0.905154
	O387	O	1.411921	0.519062	0.552227
	H388	H	1.418478	0.523653	0.542909
	H389	H	1.429018	0.528337	0.552460
	O390	O	0.311061	0.440163	0.676183
	H391	H	0.302090	0.453658	0.680362
	H392	H	0.314127	0.456560	0.669161
	O393	O	0.969264	-0.114056	1.137559
	H394	H	0.971676	-0.107425	1.130240
	H395	H	0.985564	-0.101099	1.131018
	O396	O	-0.181516	0.988884	1.125870
	H397	H	-0.177009	0.981769	1.128371
	H398	H	-0.185434	0.970657	1.121424
	O399	O	0.433710	0.654715	0.349247
	H400	H	0.428293	0.648928	0.345977
	H401	H	0.438671	0.643986	0.347542
	O402	O	1.068861	-0.201862	0.838536
	H403	H	1.052127	-0.186816	0.858718
	H404	H	1.060830	-0.230580	0.821740
	O405	O	0.156669	0.065639	0.155428
	H406	H	0.153653	0.075461	0.163216
	H407	H	0.160984	0.090432	0.133400
	O408	O	1.022745	1.011793	0.880725
	H409	H	1.020588	1.019231	0.877753
	H410	H	1.023032	0.994460	0.888452
	O411	O	0.947118	1.159365	-0.126955
	H412	H	0.925493	1.158502	-0.131260
	H413	H	0.949915	1.160547	-0.131596
	O414	O	0.030492	0.043066	1.068291
	H415	H	0.029179	0.044554	1.061814
	H416	H	0.038011	0.045688	1.075176
	O417	O	0.528857	0.328469	0.409631
	H418	H	0.556624	0.328459	0.414722
	H419	H	0.549833	0.312015	0.401352
	O420	O	-0.153821	0.999151	-0.196699
	H421	H	-0.162813	0.993388	-0.202738
	H422	H	-0.155636	0.998632	-0.191455
	O423	O	0.564307	0.349167	-0.408600
	H424	H	0.562459	0.373201	-0.423296
	H425	H	0.587549	0.334348	-0.394190
	O426	O	0.155234	0.037946	0.884276
	H427	H	0.143501	0.028696	0.870532
	H428	H	0.166109	0.019856	0.874195
	O429	O	0.293360	0.343579	0.462421
	H430	H	0.303885	0.336933	0.487830
	H431	H	0.269865	0.323462	0.478691
