data_Molecule from HDF5

_cell_length_a		16.390120
_cell_length_b		16.485385
_cell_length_c		16.610514
_cell_angle_alpha	90.095305
_cell_angle_beta	90.104875
_cell_angle_gamma	89.912064
_symmetry_space_group_name_H-M	'P 1'
_symmetry_Int_Tables_number		1

loop_
	_symmetry_equiv_pos_as_xyz
	x,y,z

loop_
	_atom_site_label
	_atom_site_type_symbol
	_atom_site_fract_x
	_atom_site_fract_y
	_atom_site_fract_z
	H0	H	0.391031	0.840365	0.707552
	H1	H	0.600865	0.154743	0.706263
	H2	H	0.609062	0.842641	0.256498
	H3	H	0.387578	0.153009	0.263639
	H4	H	0.713733	0.395141	0.828724
	H5	H	0.721094	0.607075	0.143140
	H6	H	0.272894	0.602602	0.830291
	H7	H	0.270433	0.390823	0.141587
	H8	H	0.838539	0.724585	0.374287
	H9	H	0.152807	0.716551	0.588463
	H10	H	0.835980	0.275936	0.590510
	H11	H	0.153098	0.278605	0.382330
	H12	H	0.835537	0.392343	0.706078
	H13	H	0.151076	0.602801	0.706589
	H14	H	0.838084	0.609210	0.259317
	H15	H	0.152028	0.392286	0.264170
	H16	H	0.386151	0.722258	0.832089
	H17	H	0.606808	0.725887	0.141555
	H18	H	0.598723	0.277251	0.829373
	H19	H	0.387561	0.274091	0.142192
	H20	H	0.721188	0.840957	0.375888
	H21	H	0.714107	0.156151	0.586923
	H22	H	0.276085	0.839215	0.588258
	H23	H	0.276632	0.155031	0.383829
	H24	H	0.886593	0.341897	0.208887
	H25	H	0.102065	0.655817	0.208838
	H26	H	0.096483	0.340489	0.766242
	H27	H	0.887444	0.656810	0.764483
	H28	H	0.219287	0.889507	0.327925
	H29	H	0.210148	0.095566	0.644276
	H30	H	0.774666	0.100338	0.326712
	H31	H	0.773966	0.893065	0.641470
	H32	H	0.334967	0.211234	0.888384
	H33	H	0.654820	0.218100	0.091062
	H34	H	0.336643	0.776386	0.091221
	H35	H	0.653174	0.773748	0.880973
	H36	H	0.338349	0.887899	0.210447
	H37	H	0.653537	0.103030	0.208428
	H38	H	0.336743	0.098410	0.769428
	H39	H	0.655241	0.890226	0.765439
	H40	H	0.887902	0.219945	0.327718
	H41	H	0.095639	0.215261	0.642506
	H42	H	0.103495	0.772222	0.328813
	H43	H	0.888951	0.775488	0.641442
	H44	H	0.210718	0.339096	0.886078
	H45	H	0.214126	0.657684	0.089265
	H46	H	0.774255	0.340072	0.089565
	H47	H	0.775040	0.658051	0.883756
	H48	H	0.400283	0.111888	0.573971
	H49	H	0.587505	0.884197	0.573494
	H50	H	0.587924	0.110752	0.394767
	H51	H	0.412240	0.885448	0.397147
	H52	H	0.582734	0.408110	0.097898
	H53	H	0.577469	0.589082	0.877409
	H54	H	0.409379	0.589432	0.098592
	H55	H	0.404323	0.400118	0.872283
	H56	H	0.104482	0.579520	0.398247
	H57	H	0.881030	0.586272	0.572938
	H58	H	0.106415	0.413052	0.577380
	H59	H	0.880572	0.410718	0.393789
	H60	H	0.110601	0.404872	0.580890
	H61	H	0.879574	0.586380	0.575211
	H62	H	0.107076	0.585251	0.395410
	H63	H	0.880987	0.407818	0.399762
	H64	H	0.402599	0.584807	0.099184
	H65	H	0.586628	0.587450	0.875453
	H66	H	0.585485	0.406655	0.099655
	H67	H	0.398960	0.407653	0.872765
	H68	H	0.576658	0.108523	0.393044
	H69	H	0.584821	0.883318	0.579231
	H70	H	0.403877	0.113252	0.584156
	H71	H	0.407278	0.884195	0.399992
	H72	H	0.903354	0.612750	0.075723
	H73	H	0.079260	0.385818	0.080882
	H74	H	0.080507	0.611347	0.893800
	H75	H	0.899495	0.384664	0.899249
	H76	H	0.076298	0.905280	0.593438
	H77	H	0.091205	0.087186	0.369962
	H78	H	0.903122	0.078077	0.594523
	H79	H	0.899839	0.914742	0.372766
	H80	H	0.614863	0.087106	0.882917
	H81	H	0.380426	0.089278	0.077261
	H82	H	0.600286	0.919616	0.064110
	H83	H	0.383224	0.914921	0.893367
	H84	H	0.606616	0.917225	0.080201
	H85	H	0.383314	0.086872	0.071857
	H86	H	0.613863	0.099607	0.900113
	H87	H	0.380628	0.905491	0.892969
	H88	H	0.915120	0.092137	0.594250
	H89	H	0.083456	0.085324	0.373699
	H90	H	0.090076	0.900428	0.599782
	H91	H	0.916986	0.917417	0.380000
	H92	H	0.084228	0.612084	0.897640
	H93	H	0.080062	0.388610	0.070328
	H94	H	0.915262	0.608291	0.077500
	H95	H	0.903268	0.383231	0.887833
	H96	H	0.409868	0.109256	0.576351
	H97	H	0.581093	0.885752	0.574483
	H98	H	0.581766	0.105502	0.403547
	H99	H	0.407742	0.882370	0.394241
	H100	H	0.585613	0.409783	0.098361
	H101	H	0.581582	0.580775	0.879466
	H102	H	0.409463	0.582055	0.095807
	H103	H	0.407651	0.407552	0.876577
	H104	H	0.105548	0.585432	0.401619
	H105	H	0.879650	0.588321	0.573845
	H106	H	0.106804	0.404341	0.571982
	H107	H	0.883050	0.414460	0.398660
	H108	H	0.909246	0.606696	0.066319
	H109	H	0.088612	0.384181	0.075770
	H110	H	0.084707	0.614007	0.892542
	H111	H	0.910851	0.388781	0.895852
	H112	H	0.088766	0.914961	0.594762
	H113	H	0.085005	0.093765	0.369734
	H114	H	0.898405	0.094782	0.601071
	H115	H	0.912270	0.900812	0.371530
	H116	H	0.607288	0.079240	0.900971
	H117	H	0.382989	0.083464	0.077404
	H118	H	0.608211	0.904156	0.068591
	H119	H	0.385000	0.908986	0.900857
	C120	C	0.373915	0.006046	0.608151
	C121	C	0.616395	0.988916	0.606598
	C122	C	0.616851	0.004943	0.363501
	C123	C	0.375844	0.988142	0.365211
	C124	C	0.616322	0.376537	-0.005248
	C125	C	0.616968	0.620319	0.979621
	C126	C	0.374311	0.618180	-0.005082
	C127	C	0.371947	0.374226	0.977492
	C128	C	0.002448	0.618727	0.363852
	C129	C	0.984939	0.618713	0.605879
	C130	C	0.002594	0.376014	0.607150
	C131	C	0.985906	0.378003	0.364807
	C132	C	0.874476	0.506365	0.106544
	C133	C	0.115558	0.490538	0.107802
	C134	C	0.114277	0.507192	0.864349
	C135	C	0.871964	0.490147	0.863112
	C136	C	0.118275	0.873955	0.492932
	C137	C	0.116496	0.118398	0.476321
	C138	C	0.872860	0.120046	0.493006
	C139	C	0.875404	0.877275	0.477034
	C140	C	0.505167	0.117996	0.865688
	C141	C	0.486857	0.119341	0.107975
	C142	C	0.502626	0.878252	0.105932
	C143	C	0.487489	0.875796	0.863857
	C144	C	0.372406	0.887360	0.667168
	C145	C	0.618876	0.107550	0.666004
	C146	C	0.623712	0.888746	0.299211
	C147	C	0.370842	0.106176	0.304358
	C148	C	0.674602	0.375946	0.876218
	C149	C	0.680258	0.624924	0.096107
	C150	C	0.313041	0.620912	0.877384
	C151	C	0.311286	0.372732	0.095131
	C152	C	0.885074	0.682447	0.358305
	C153	C	0.104868	0.677376	0.607433
	C154	C	0.883524	0.315963	0.608797
	C155	C	0.105277	0.318135	0.363200
	C156	C	0.883081	0.374261	0.666024
	C157	C	0.104175	0.620849	0.665966
	C158	C	0.885010	0.625086	0.300771
	C159	C	0.104854	0.374845	0.304844
	C160	C	0.369658	0.680466	0.878456
	C161	C	0.622878	0.683891	0.095585
	C162	C	0.617359	0.317212	0.876574
	C163	C	0.369660	0.314611	0.095382
	C164	C	0.680197	0.887902	0.358445
	C165	C	0.674934	0.108384	0.606470
	C166	C	0.315543	0.886532	0.607791
	C167	C	0.315496	0.107051	0.364122
	C168	C	0.869575	0.388692	0.168056
	C169	C	0.118986	0.608907	0.167969
	C170	C	0.115236	0.387790	0.805999
	C171	C	0.869192	0.609270	0.804158
	C172	C	0.179238	0.871371	0.375353
	C173	C	0.172419	0.116328	0.595994
	C174	C	0.813320	0.120152	0.374473
	C175	C	0.813728	0.874046	0.594470
	C176	C	0.383716	0.173697	0.867534
	C177	C	0.606699	0.178667	0.109785
	C178	C	0.384152	0.816171	0.109726
	C179	C	0.606229	0.814581	0.862378
	C180	C	0.385034	0.872015	0.168985
	C181	C	0.606242	0.121375	0.168076
	C182	C	0.384598	0.117544	0.808558
	C183	C	0.607023	0.872754	0.805043
	C184	C	0.870137	0.179378	0.374693
	C185	C	0.115018	0.175384	0.595592
	C186	C	0.121673	0.812786	0.375519
	C187	C	0.871597	0.816014	0.594530
	C188	C	0.172159	0.387199	0.865227
	C189	C	0.175111	0.609683	0.108544
	C190	C	0.813902	0.387735	0.108515
	C191	C	0.813247	0.609851	0.863576
	C192	C	0.397813	0.089617	0.584758
	C193	C	0.591593	0.905800	0.582505
	C194	C	0.589727	0.086915	0.389649
	C195	C	0.401779	0.905473	0.389868
	C196	C	0.591826	0.401113	0.077375
	C197	C	0.589701	0.593557	0.898529
	C198	C	0.400077	0.592763	0.076572
	C199	C	0.396691	0.398355	0.895269
	C200	C	0.084432	0.591097	0.390821
	C201	C	0.901499	0.594175	0.581201
	C202	C	0.086249	0.400480	0.583342
	C203	C	0.903075	0.403511	0.390217
	C204	C	0.901516	0.587967	0.080680
	C205	C	0.089980	0.407516	0.082997
	C206	C	0.090072	0.590637	0.887717
	C207	C	0.897212	0.407124	0.887253
	C208	C	0.092585	0.899683	0.574718
	C209	C	0.092968	0.095607	0.392720
	C210	C	0.898148	0.095665	0.575071
	C211	C	0.901841	0.903484	0.396003
	C212	C	0.590037	0.095174	0.888248
	C213	C	0.403859	0.093958	0.082770
	C214	C	0.583782	0.905757	0.078758
	C215	C	0.404662	0.902032	0.888666
	Zn216	Zn	0.496625	-0.002539	0.736663
	Zn217	Zn	0.495206	-0.002627	0.235412
	Zn218	Zn	0.745821	0.498688	-0.013781
	Zn219	Zn	0.243678	0.498319	-0.013489
	Zn220	Zn	-0.005311	0.746461	0.484271
	Zn221	Zn	-0.005547	0.248524	0.484376
	Zn222	Zn	-0.006921	0.498726	0.734824
	Zn223	Zn	-0.005418	0.498460	0.235926
	Zn224	Zn	0.494895	0.748932	-0.012734
	Zn225	Zn	0.495578	0.246453	-0.013591
	Zn226	Zn	0.745143	-0.002994	0.484955
	Zn227	Zn	0.246224	-0.003285	0.484879
	N228	N	0.407854	0.962770	0.667581
	N229	N	0.583365	0.032188	0.666327
	N230	N	0.584863	0.962688	0.302452
	N231	N	0.407444	0.031170	0.304749
	N232	N	0.674140	0.412277	0.950814
	N233	N	0.676361	0.585722	0.023126
	N234	N	0.315934	0.582716	0.950721
	N235	N	0.312532	0.409295	0.020931
	N236	N	0.958962	0.678265	0.397267
	N237	N	0.029678	0.676299	0.570856
	N238	N	0.958830	0.317037	0.572722
	N239	N	0.030114	0.319884	0.399647
	N240	N	0.958294	0.411017	0.665224
	N241	N	0.028523	0.585077	0.665059
	N242	N	0.959086	0.585979	0.304374
	N243	N	0.029566	0.411217	0.305601
	N244	N	0.407308	0.678673	0.952317
	N245	N	0.584246	0.681068	0.022095
	N246	N	0.582166	0.317230	0.951532
	N247	N	0.406829	0.315675	0.021513
	N248	N	0.675788	0.961017	0.397930
	N249	N	0.673826	0.033369	0.570493
	N250	N	0.316384	0.961359	0.571903
	N251	N	0.318060	0.032419	0.400781
	N252	N	0.906311	0.463628	0.167207
	N253	N	0.083351	0.533491	0.167902
	N254	N	0.080266	0.463708	0.805237
	N255	N	0.904812	0.533626	0.803406
	N256	N	0.177354	0.908657	0.449573
	N257	N	0.173482	0.081811	0.520781
	N258	N	0.814829	0.084099	0.448964
	N259	N	0.815993	0.911280	0.520694
	N260	N	0.459941	0.174272	0.901939
	N261	N	0.531322	0.177722	0.073437
	N262	N	0.458128	0.819882	0.071333
	N263	N	0.530730	0.816211	0.898133
	N264	N	0.459555	0.909825	0.166860
	N265	N	0.530669	0.085454	0.167211
	N266	N	0.461460	0.084016	0.806952
	N267	N	0.531890	0.909938	0.805728
	N268	N	0.906053	0.179815	0.449516
	N269	N	0.081145	0.176942	0.519791
	N270	N	0.084518	0.814169	0.449512
	N271	N	0.908801	0.817497	0.520332
	N272	N	0.171954	0.462486	0.900627
	N273	N	0.173214	0.534672	0.071981
	N274	N	0.816722	0.461928	0.071136
	N275	N	0.814836	0.534702	0.899223
	O276	O	0.586478	0.331863	0.667968
	H277	H	0.591769	0.328580	0.657662
	H278	H	0.578923	0.347787	0.650226
	O279	O	0.482986	0.512948	0.639810
	H280	H	0.490312	0.501132	0.635876
	H281	H	0.474102	0.494336	0.644999
	O282	O	1.099231	1.028419	-0.066184
	H283	H	1.098948	1.025969	-0.059845
	H284	H	1.103169	1.016403	-0.072366
	O285	O	0.798134	0.168996	0.809065
	H286	H	0.787883	0.194814	0.808903
	H287	H	0.804303	0.174274	0.836802
	O288	O	-0.211046	0.146342	-0.160415
	H289	H	-0.216904	0.170505	-0.144904
	H290	H	-0.228342	0.128282	-0.156631
	O291	O	1.316860	0.679063	0.297324
	H292	H	1.324853	0.674628	0.312740
	H293	H	1.334203	0.688395	0.323455
	O294	O	0.714988	0.280988	-0.544646
	H295	H	0.713962	0.276834	-0.568439
	H296	H	0.737045	0.266232	-0.548156
	O297	O	0.283581	0.274323	0.716943
	H298	H	0.272362	0.249518	0.749123
	H299	H	0.304207	0.285816	0.700093
	O300	O	0.508685	0.724999	0.467203
	H301	H	0.513003	0.721904	0.482525
	H302	H	0.528980	0.729240	0.470213
	O303	O	0.184331	0.185602	1.182315
	H304	H	0.199185	0.169632	1.175434
	H305	H	0.208483	0.176145	1.194368
	O306	O	0.186086	0.977356	0.773924
	H307	H	0.185922	0.953964	0.765683
	H308	H	0.199158	0.965924	0.773639
	O309	O	0.709210	1.471096	1.272895
	H310	H	0.686303	1.497691	1.285919
	H311	H	0.736383	1.477238	1.238771
	O312	O	0.692622	0.516261	0.701160
	H313	H	0.700940	0.506990	0.707356
	H314	H	0.707671	0.513506	0.700011
	O315	O	0.013708	0.211846	1.199606
	H316	H	0.028561	0.226677	1.224379
	H317	H	0.053120	0.207404	1.195387
	O318	O	-0.510101	0.389488	0.459371
	H319	H	-0.507939	0.391842	0.444926
	H320	H	-0.512964	0.391949	0.462250
	O321	O	0.427679	0.292690	0.651567
	H322	H	0.418205	0.278634	0.658654
	H323	H	0.431191	0.289397	0.648545
	O324	O	1.200312	-0.207194	0.776353
	H325	H	1.215548	-0.235122	0.749279
	H326	H	1.184712	-0.204395	0.777411
	O327	O	1.489468	0.652201	0.706602
	H328	H	1.495441	0.668582	0.731448
	H329	H	1.492401	0.621620	0.714673
	O330	O	0.952154	0.199855	0.020858
	H331	H	0.957456	0.200430	0.027758
	H332	H	0.961504	0.197796	0.024890
	O333	O	0.853349	0.992863	1.141271
	H334	H	0.852537	0.994382	1.151220
	H335	H	0.847590	0.989081	1.142677
	O336	O	0.993591	-0.151112	0.908585
	H337	H	0.973130	-0.140034	0.901887
	H338	H	0.998814	-0.146180	0.909725
	O339	O	0.556118	0.534983	0.273584
	H340	H	0.559136	0.555856	0.277682
	H341	H	0.534648	0.543069	0.277076
	O342	O	0.907431	0.968828	0.098667
	H343	H	0.905494	0.978300	0.080126
	H344	H	0.917840	0.985709	0.097140
	O345	O	0.121339	0.195393	-0.145380
	H346	H	0.105150	0.190470	-0.117884
	H347	H	0.100924	0.188120	-0.157214
	O348	O	1.189663	-0.028357	1.154415
	H349	H	1.201766	-0.040326	1.164159
	H350	H	1.172949	-0.045889	1.146182
	O351	O	0.855575	1.137900	0.053426
	H352	H	0.862842	1.131996	0.068746
	H353	H	0.874974	1.150127	0.059823
	O354	O	0.556404	0.310174	0.542252
	H355	H	0.562472	0.306999	0.527294
	H356	H	0.541444	0.304478	0.519777
	O357	O	0.917244	1.088821	1.142624
	H358	H	0.930588	1.109002	1.153426
	H359	H	0.925492	1.092260	1.132983
	O360	O	0.372338	0.298483	0.347358
	H361	H	0.386240	0.314121	0.340139
	H362	H	0.376833	0.310512	0.348569
	O363	O	-0.075718	0.882787	0.102288
	H364	H	-0.089420	0.875327	0.092981
	H365	H	-0.068457	0.878033	0.108422
	O366	O	1.027400	-0.207961	0.775036
	H367	H	1.018730	-0.204048	0.762860
	H368	H	1.030830	-0.215835	0.772377
	O369	O	0.488453	0.493069	0.476847
	H370	H	0.490894	0.495111	0.473496
	H371	H	0.484052	0.490576	0.476351
	O372	O	0.539506	0.379684	0.558487
	H373	H	0.550034	0.377112	0.558212
	H374	H	0.526025	0.381162	0.566218
	O375	O	1.306611	0.686753	-0.325494
	H376	H	1.321488	0.657826	-0.335751
	H377	H	1.324943	0.674093	-0.345627
	O378	O	0.686708	0.308493	0.295093
	H379	H	0.692716	0.358450	0.290009
	H380	H	0.657621	0.303492	0.304012
	O381	O	0.908457	-0.029952	-0.035674
	H382	H	0.908457	-0.010628	-0.033584
	H383	H	0.911298	-0.030033	-0.056052
	O384	O	-0.151725	-0.030864	1.058060
	H385	H	-0.155405	-0.024936	1.072882
	H386	H	-0.144738	-0.031280	1.069804
	O387	O	-0.566622	0.430979	1.276264
	H388	H	-0.579698	0.451464	1.276854
	H389	H	-0.578413	0.433378	1.275759
	O390	O	0.160892	-0.127032	1.050424
	H391	H	0.143893	-0.127015	1.048586
	H392	H	0.168732	-0.137831	1.028702
	O393	O	0.807211	0.807054	-0.024254
	H394	H	0.800513	0.808006	-0.013589
	H395	H	0.805308	0.803367	-0.020511
	O396	O	0.476398	0.715809	0.267065
	H397	H	0.482676	0.738390	0.272106
	H398	H	0.473197	0.733008	0.267526
	O399	O	0.293247	0.389265	0.381613
	H400	H	0.300752	0.399323	0.384988
	H401	H	0.296122	0.393689	0.394952
	O402	O	-0.685586	0.533972	1.510023
	H403	H	-0.683303	0.526558	1.496093
	H404	H	-0.682404	0.528133	1.524024
	O405	O	-0.001789	-0.009246	-0.185383
	H406	H	0.001216	0.001647	-0.189246
	H407	H	0.004712	-0.002867	-0.175663
	O408	O	0.462214	0.456501	0.610930
	H409	H	0.460634	0.454371	0.599934
	H410	H	0.471831	0.459752	0.625536
	O411	O	0.705553	0.489420	0.489441
	H412	H	0.709871	0.480286	0.472856
	H413	H	0.695902	0.474657	0.478714
	O414	O	0.586692	0.598844	0.530899
	H415	H	0.588664	0.602640	0.529161
	H416	H	0.568186	0.598120	0.532585
	O417	O	0.291926	0.704832	0.457432
	H418	H	0.305454	0.716715	0.473322
	H419	H	0.280860	0.713531	0.471834
	O420	O	0.523491	0.279250	0.264241
	H421	H	0.512514	0.282686	0.239973
	H422	H	0.538577	0.274846	0.252369
	O423	O	0.083033	0.899696	0.193108
	H424	H	0.085800	0.897530	0.188258
	H425	H	0.092508	0.887428	0.186184
	O426	O	0.278516	1.522079	1.264334
	H427	H	0.284502	1.551644	1.284477
	H428	H	0.243799	1.529622	1.235767
	O429	O	0.109905	-1.125089	1.030681
	H430	H	0.111122	-1.125706	1.020210
	H431	H	0.118755	-1.123040	1.040969
	O432	O	0.712358	0.716201	0.506360
	H433	H	0.718505	0.708700	0.521561
	H434	H	0.738389	0.727373	0.515883
	O435	O	-0.006632	-0.128259	-0.004144
	H436	H	-0.009829	-0.133453	-0.018295
	H437	H	-0.016480	-0.118319	0.000553
	O438	O	1.189442	0.197259	0.013793
	H439	H	1.180418	0.195111	0.029862
	H440	H	1.196876	0.212354	0.009272
	O441	O	0.373318	0.649798	0.552122
	H442	H	0.383682	0.652397	0.542019
	H443	H	0.385434	0.643691	0.563892
	O444	O	0.162074	1.093532	0.846285
	H445	H	0.158658	1.074587	0.855170
	H446	H	0.158001	1.098939	0.869719
	O447	O	0.913145	0.872342	0.969462
	H448	H	0.924132	0.879850	0.957170
	H449	H	0.922354	0.870190	0.967289
	O450	O	0.653172	0.627073	0.413377
	H451	H	0.645603	0.630225	0.425297
	H452	H	0.659774	0.619443	0.433053
	O453	O	0.796568	0.980226	-0.166017
	H454	H	0.790691	0.997819	-0.172321
	H455	H	0.795919	0.978769	-0.189769
	O456	O	0.290536	0.474024	0.694329
	H457	H	0.277822	0.477586	0.717938
	H458	H	0.284674	0.446221	0.685635
	O459	O	0.623040	0.685727	0.669161
	H460	H	0.616772	0.653156	0.678427
	H461	H	0.620802	0.691428	0.677369
	O462	O	0.277687	1.280231	1.575060
	H463	H	0.257708	1.253621	1.582961
	H464	H	0.282299	1.281555	1.589843
	O465	O	0.984030	0.147892	-0.185754
	H466	H	0.959766	0.152687	-0.188757
	H467	H	0.975628	0.150666	-0.199189
