data_Molecule from HDF5

_cell_length_a		16.247590
_cell_length_b		16.228683
_cell_length_c		16.275988
_cell_angle_alpha	90.729259
_cell_angle_beta	89.460342
_cell_angle_gamma	89.516824
_symmetry_space_group_name_H-M	'P 1'
_symmetry_Int_Tables_number		1

loop_
	_symmetry_equiv_pos_as_xyz
	x,y,z

loop_
	_atom_site_label
	_atom_site_type_symbol
	_atom_site_fract_x
	_atom_site_fract_y
	_atom_site_fract_z
	H0	H	0.387851	0.833718	0.721108
	H1	H	0.585099	0.161515	0.724067
	H2	H	0.592699	0.837299	0.283256
	H3	H	0.386106	0.162788	0.296723
	H4	H	0.705075	0.395451	0.840170
	H5	H	0.702201	0.599649	0.167777
	H6	H	0.273567	0.598021	0.840623
	H7	H	0.270941	0.402376	0.166365
	H8	H	0.826689	0.715387	0.403358
	H9	H	0.152374	0.711135	0.602084
	H10	H	0.822840	0.286657	0.601573
	H11	H	0.150649	0.278117	0.400196
	H12	H	0.824078	0.399488	0.719432
	H13	H	0.151829	0.596602	0.717741
	H14	H	0.825189	0.598016	0.290838
	H15	H	0.150128	0.391970	0.282617
	H16	H	0.388799	0.714342	0.842149
	H17	H	0.584457	0.715052	0.168839
	H18	H	0.592881	0.276324	0.842855
	H19	H	0.389109	0.290786	0.168676
	H20	H	0.706815	0.836067	0.399472
	H21	H	0.702910	0.160867	0.609911
	H22	H	0.272600	0.834151	0.606199
	H23	H	0.272113	0.161809	0.413425
	H24	H	0.887318	0.333490	0.218292
	H25	H	0.086847	0.659292	0.221449
	H26	H	0.089569	0.333499	0.784215
	H27	H	0.887755	0.661763	0.790699
	H28	H	0.207627	0.895846	0.342829
	H29	H	0.195089	0.095636	0.671362
	H30	H	0.770209	0.096940	0.342349
	H31	H	0.770815	0.899037	0.667578
	H32	H	0.323548	0.212687	0.911397
	H33	H	0.651417	0.213979	0.105082
	H34	H	0.322945	0.787552	0.105727
	H35	H	0.650342	0.780419	0.902812
	H36	H	0.323320	0.903797	0.221309
	H37	H	0.650680	0.099725	0.223102
	H38	H	0.322617	0.098786	0.795323
	H39	H	0.649411	0.895514	0.786344
	H40	H	0.887906	0.210122	0.340001
	H41	H	0.082380	0.214285	0.667654
	H42	H	0.093551	0.778085	0.341506
	H43	H	0.888303	0.783544	0.667461
	H44	H	0.206692	0.333892	0.899643
	H45	H	0.197296	0.662191	0.101186
	H46	H	0.771959	0.333933	0.101974
	H47	H	0.772290	0.660954	0.905349
	H48	H	0.400023	0.110139	0.596845
	H49	H	0.578780	0.881127	0.600864
	H50	H	0.588350	0.117708	0.416052
	H51	H	0.398626	0.882677	0.415501
	H52	H	0.584928	0.406931	0.122386
	H53	H	0.581444	0.581744	0.890702
	H54	H	0.380336	0.598686	0.125445
	H55	H	0.397040	0.408895	0.888565
	H56	H	0.104606	0.589220	0.416664
	H57	H	0.871444	0.591041	0.600871
	H58	H	0.108493	0.399596	0.602642
	H59	H	0.875987	0.409897	0.418247
	H60	H	0.102889	0.398214	0.583425
	H61	H	0.871440	0.594685	0.594506
	H62	H	0.102394	0.578047	0.410741
	H63	H	0.869231	0.409326	0.401062
	H64	H	0.391703	0.579892	0.117346
	H65	H	0.573352	0.590845	0.890612
	H66	H	0.579641	0.413790	0.117868
	H67	H	0.403322	0.402737	0.887811
	H68	H	0.572078	0.115169	0.408663
	H69	H	0.573479	0.884135	0.593086
	H70	H	0.380293	0.116639	0.597983
	H71	H	0.397598	0.881305	0.413503
	H72	H	0.894736	0.611300	0.091339
	H73	H	0.081919	0.377703	0.098419
	H74	H	0.079118	0.614470	0.907825
	H75	H	0.905650	0.384379	0.912535
	H76	H	0.085113	0.910199	0.620276
	H77	H	0.083088	0.088404	0.388114
	H78	H	0.893321	0.088747	0.619566
	H79	H	0.902947	0.910726	0.392115
	H80	H	0.605412	0.090459	0.910813
	H81	H	0.368765	0.098671	0.103944
	H82	H	0.604633	0.905341	0.100195
	H83	H	0.373252	0.913815	0.916032
	H84	H	0.603138	0.904196	0.090946
	H85	H	0.371538	0.095021	0.101101
	H86	H	0.601706	0.087952	0.919914
	H87	H	0.367558	0.904208	0.907588
	H88	H	0.897457	0.094255	0.619785
	H89	H	0.083225	0.084469	0.388915
	H90	H	0.071951	0.904402	0.619439
	H91	H	0.901184	0.898519	0.386681
	H92	H	0.080313	0.613148	0.912189
	H93	H	0.072397	0.383514	0.088956
	H94	H	0.891016	0.615507	0.100426
	H95	H	0.891595	0.380265	0.914547
	H96	H	0.392637	0.118142	0.614608
	H97	H	0.582876	0.882182	0.591848
	H98	H	0.574762	0.110397	0.425642
	H99	H	0.399502	0.882378	0.412946
	H100	H	0.575541	0.404939	0.119525
	H101	H	0.585425	0.592909	0.885973
	H102	H	0.403058	0.600528	0.119655
	H103	H	0.395266	0.400500	0.884692
	H104	H	0.107825	0.587622	0.403971
	H105	H	0.873231	0.587620	0.594753
	H106	H	0.101332	0.416044	0.593114
	H107	H	0.868029	0.394080	0.411290
	H108	H	0.901302	0.612158	0.099876
	H109	H	0.086206	0.381304	0.085252
	H110	H	0.083612	0.615337	0.908773
	H111	H	0.897368	0.378815	0.901711
	H112	H	0.083401	0.896547	0.624331
	H113	H	0.079735	0.085975	0.388951
	H114	H	0.891111	0.094331	0.621782
	H115	H	0.891050	0.907693	0.387705
	H116	H	0.601553	0.081560	0.912774
	H117	H	0.369797	0.093723	0.106277
	H118	H	0.602087	0.912804	0.095020
	H119	H	0.370908	0.901585	0.920538
	C120	C	0.363320	0.006632	0.630895
	C121	C	0.607393	0.989855	0.627016
	C122	C	0.609755	0.007337	0.384039
	C123	C	0.367669	0.990097	0.387365
	C124	C	0.610575	0.376129	0.012694
	C125	C	0.608788	0.619580	0.996565
	C126	C	0.364512	0.621493	0.013017
	C127	C	0.367726	0.377868	0.995124
	C128	C	-0.002548	0.616686	0.382335
	C129	C	0.980111	0.619281	0.624970
	C130	C	-0.004111	0.376740	0.623468
	C131	C	0.978768	0.373402	0.379471
	C132	C	0.865956	0.505215	0.125752
	C133	C	0.108312	0.488590	0.122357
	C134	C	0.111208	0.506037	0.879280
	C135	C	0.867734	0.489307	0.882027
	C136	C	0.111192	0.873978	0.513554
	C137	C	0.108302	0.117185	0.496731
	C138	C	0.864783	0.119917	0.512741
	C139	C	0.867722	0.876602	0.496145
	C140	C	0.495276	0.117578	0.886758
	C141	C	0.478539	0.123695	0.131119
	C142	C	0.495316	0.879075	0.126285
	C143	C	0.478336	0.876096	0.883429
	C144	C	0.366637	0.883007	0.684473
	C145	C	0.605549	0.112510	0.685537
	C146	C	0.611138	0.885442	0.323582
	C147	C	0.367197	0.113632	0.333894
	C148	C	0.667196	0.375470	0.889510
	C149	C	0.664157	0.619174	0.119137
	C150	C	0.310784	0.618711	0.889846
	C151	C	0.309881	0.382152	0.117685
	C152	C	0.875221	0.676142	0.383624
	C153	C	0.103162	0.674075	0.622561
	C154	C	0.872254	0.323111	0.622058
	C155	C	0.101780	0.316305	0.380108
	C156	C	0.873085	0.379380	0.680869
	C157	C	0.102956	0.617071	0.680253
	C158	C	0.874236	0.617366	0.327841
	C159	C	0.101503	0.372856	0.321587
	C160	C	0.367823	0.676684	0.890747
	C161	C	0.605488	0.676429	0.119708
	C162	C	0.611294	0.316138	0.891004
	C163	C	0.368591	0.326404	0.119000
	C164	C	0.668162	0.884858	0.381244
	C165	C	0.664004	0.112118	0.628529
	C166	C	0.309453	0.883173	0.627263
	C167	C	0.310298	0.113119	0.391939
	C168	C	0.867121	0.382534	0.180665
	C169	C	0.106119	0.611081	0.181422
	C170	C	0.110039	0.382771	0.822331
	C171	C	0.868286	0.612634	0.828135
	C172	C	0.169115	0.875463	0.391411
	C173	C	0.159399	0.116034	0.621356
	C174	C	0.808813	0.117016	0.390464
	C175	C	0.809860	0.878805	0.618858
	C176	C	0.372157	0.174614	0.890654
	C177	C	0.602089	0.177516	0.126837
	C178	C	0.372315	0.824561	0.125827
	C179	C	0.601244	0.818753	0.883335
	C180	C	0.372367	0.882644	0.183150
	C181	C	0.601857	0.120760	0.185447
	C182	C	0.371801	0.117806	0.832818
	C183	C	0.600765	0.875974	0.825428
	C184	C	0.867374	0.173177	0.389177
	C185	C	0.103311	0.174977	0.619583
	C186	C	0.112016	0.817328	0.390406
	C187	C	0.868497	0.821315	0.618731
	C188	C	0.168116	0.382952	0.879859
	C189	C	0.161297	0.612411	0.121851
	C190	C	0.809739	0.382847	0.122852
	C191	C	0.810796	0.612302	0.885215
	C192	C	0.384626	0.092671	0.609645
	C193	C	0.584945	0.904546	0.602430
	C194	C	0.585555	0.092254	0.409326
	C195	C	0.391614	0.904387	0.407940
	C196	C	0.586817	0.401211	0.097976
	C197	C	0.586694	0.595564	0.911125
	C198	C	0.385748	0.599570	0.098762
	C199	C	0.391625	0.398117	0.909233
	C200	C	0.082734	0.592228	0.404234
	C201	C	0.894147	0.597575	0.603074
	C202	C	0.081976	0.398149	0.599891
	C203	C	0.893376	0.397366	0.403092
	C204	C	0.889039	0.590905	0.103789
	C205	C	0.086556	0.402783	0.098090
	C206	C	0.087783	0.592183	0.902783
	C207	C	0.891308	0.403468	0.903316
	C208	C	0.086947	0.896987	0.599231
	C209	C	0.087926	0.093297	0.410878
	C210	C	0.887298	0.098776	0.598116
	C211	C	0.891408	0.899012	0.411045
	C212	C	0.580763	0.093655	0.908195
	C213	C	0.392442	0.101966	0.110061
	C214	C	0.581079	0.900906	0.102357
	C215	C	0.392632	0.899652	0.907731
	Zn216	Zn	0.485992	-0.001890	0.756519
	Zn217	Zn	0.487245	-0.000379	0.256986
	Zn218	Zn	0.738518	0.497722	0.003516
	Zn219	Zn	0.238200	0.498137	0.002503
	Zn220	Zn	-0.010960	0.746236	0.502814
	Zn221	Zn	-0.013010	0.247076	0.502733
	Zn222	Zn	-0.012132	0.497952	0.752242
	Zn223	Zn	-0.012072	0.496142	0.253056
	Zn224	Zn	0.487107	0.749261	0.005695
	Zn225	Zn	0.488135	0.248531	0.005769
	Zn226	Zn	0.737078	-0.001943	0.505264
	Zn227	Zn	0.237513	-0.002737	0.507367
	N228	N	0.399454	0.960708	0.686711
	N229	N	0.570930	0.035363	0.684748
	N230	N	0.575728	0.962555	0.324869
	N231	N	0.402119	0.036206	0.330826
	N232	N	0.666912	0.411986	0.966170
	N233	N	0.666298	0.584528	0.041489
	N234	N	0.308412	0.585194	0.967002
	N235	N	0.309208	0.413403	0.039479
	N236	N	0.952742	0.675745	0.416923
	N237	N	0.025821	0.675579	0.588848
	N238	N	0.949587	0.321397	0.586856
	N239	N	0.024465	0.316213	0.415296
	N240	N	0.950971	0.411985	0.681545
	N241	N	0.025291	0.583999	0.681977
	N242	N	0.951147	0.581313	0.326682
	N243	N	0.024101	0.407642	0.321283
	N244	N	0.400680	0.678397	0.968271
	N245	N	0.571753	0.676728	0.042601
	N246	N	0.577007	0.316272	0.968626
	N247	N	0.404246	0.323795	0.042072
	N248	N	0.667244	0.961521	0.418231
	N249	N	0.665338	0.034998	0.592747
	N250	N	0.307140	0.960960	0.594526
	N251	N	0.310364	0.035347	0.424425
	N252	N	0.901190	0.459696	0.182690
	N253	N	0.073607	0.533017	0.181839
	N254	N	0.075536	0.460452	0.821808
	N255	N	0.902887	0.535218	0.826085
	N256	N	0.168764	0.909877	0.469102
	N257	N	0.162431	0.080744	0.544093
	N258	N	0.806933	0.084829	0.468150
	N259	N	0.809262	0.912407	0.541658
	N260	N	0.450002	0.174800	0.923415
	N261	N	0.524388	0.179610	0.093920
	N262	N	0.449825	0.822480	0.091024
	N263	N	0.523968	0.818756	0.918774
	N264	N	0.450005	0.915795	0.183531
	N265	N	0.524039	0.088277	0.188448
	N266	N	0.449197	0.083110	0.830183
	N267	N	0.523348	0.910666	0.825499
	N268	N	0.901441	0.175291	0.466268
	N269	N	0.072331	0.176036	0.541176
	N270	N	0.076844	0.816201	0.467477
	N271	N	0.903636	0.819762	0.541607
	N272	N	0.168821	0.460717	0.914532
	N273	N	0.162761	0.535301	0.085824
	N274	N	0.808863	0.460328	0.089536
	N275	N	0.810143	0.534553	0.918153
	O276	O	0.453416	-0.458382	1.598984
	H277	H	0.463404	-0.460236	1.601844
	H278	H	0.443877	-0.465778	1.602886
	O279	O	0.439315	0.368704	0.581058
	H280	H	0.446853	0.367911	0.572284
	H281	H	0.439973	0.357257	0.559425
	O282	O	0.556389	0.420411	0.461489
	H283	H	0.551711	0.425949	0.452757
	H284	H	0.558623	0.408255	0.460558
	O285	O	0.391131	0.483305	0.678040
	H286	H	0.385080	0.462583	0.678680
	H287	H	0.383278	0.471301	0.673541
	O288	O	0.423699	0.438624	0.636474
	H289	H	0.408913	0.436772	0.644693
	H290	H	0.429464	0.425710	0.628094
	O291	O	0.587371	-0.366459	1.543155
	H292	H	0.582192	-0.371850	1.560207
	H293	H	0.591549	-0.356078	1.548579
	O294	O	0.899632	0.889377	-0.007600
	H295	H	0.895078	0.899837	-0.007560
	H296	H	0.899193	0.884248	-0.002027
	O297	O	1.035488	0.909344	-0.061633
	H298	H	1.039586	0.910491	-0.067861
	H299	H	1.032571	0.903571	-0.068771
	O300	O	0.529495	0.432010	0.443535
	H301	H	0.551183	0.435535	0.442455
	H302	H	0.533002	0.431191	0.434197
	O303	O	0.505348	0.514977	0.400145
	H304	H	0.497692	0.512097	0.402101
	H305	H	0.508241	0.527029	0.397141
	O306	O	0.586088	0.638235	0.585586
	H307	H	0.570474	0.642572	0.584585
	H308	H	0.582724	0.623751	0.582945
	O309	O	0.379001	0.568718	0.520739
	H310	H	0.389153	0.555892	0.515311
	H311	H	0.367500	0.571084	0.521919
	O312	O	1.062684	0.913443	1.011617
	H313	H	1.053151	0.904894	1.017262
	H314	H	1.067273	0.908842	1.013804
	O315	O	0.906237	1.047635	0.018922
	H316	H	0.906063	1.037597	0.023571
	H317	H	0.903346	1.056241	0.005139
	O318	O	0.958368	0.014019	0.039246
	H319	H	0.955684	0.009109	0.043308
	H320	H	0.950073	0.023342	0.019613
	O321	O	0.464751	0.640421	0.463451
	H322	H	0.479425	0.642106	0.464249
	H323	H	0.456957	0.650521	0.466362
	O324	O	-0.041619	1.079160	0.942660
	H325	H	-0.038068	1.086501	0.944982
	H326	H	-0.045174	1.076208	0.940091
	O327	O	-0.110991	0.929275	0.980884
	H328	H	-0.116407	0.941723	0.972656
	H329	H	-0.113460	0.919123	0.985337
	O330	O	-0.504017	0.484224	0.465977
	H331	H	-0.505446	0.485615	0.464463
	H332	H	-0.492439	0.490117	0.478830
	O333	O	0.454937	0.564856	0.414225
	H334	H	0.444436	0.584321	0.418480
	H335	H	0.461208	0.567398	0.405286
	O336	O	-0.029097	-0.023545	-0.050567
	H337	H	-0.025627	-0.041507	-0.057725
	H338	H	-0.020658	-0.023353	-0.060797
	O339	O	-0.014577	-0.077369	0.036115
	H340	H	-0.024370	-0.087128	0.042746
	H341	H	-0.000381	-0.081507	0.033485
	O342	O	0.370104	0.451180	0.512089
	H343	H	0.383200	0.450861	0.502938
	H344	H	0.354623	0.457546	0.497771
	O345	O	-0.076017	1.119035	1.063502
	H346	H	-0.082694	1.118968	1.052871
	H347	H	-0.080482	1.124493	1.060339
	O348	O	0.503430	0.357193	0.408493
	H349	H	0.516155	0.358399	0.399206
	H350	H	0.513333	0.368656	0.401393
	O351	O	0.497688	0.520245	0.438563
	H352	H	0.496071	0.514821	0.433610
	H353	H	0.499582	0.525043	0.426701
	O354	O	0.993593	0.954983	-1.007949
	H355	H	0.984180	0.952945	-1.015000
	H356	H	0.999288	0.945310	-1.011777
	O357	O	0.923316	0.925270	1.039825
	H358	H	0.921762	0.942989	1.046251
	H359	H	0.909878	0.925573	1.037549
	O360	O	0.904922	0.071414	1.043733
	H361	H	0.896304	0.077880	1.041792
	H362	H	0.922979	0.066329	1.042032
	O363	O	-0.049554	0.968871	0.067798
	H364	H	-0.051022	0.966258	0.066991
	H365	H	-0.061771	0.969095	0.069530
	O366	O	0.579102	0.397803	0.518805
	H367	H	0.570565	0.396274	0.518362
	H368	H	0.566339	0.404167	0.508091
	O369	O	0.958984	0.045134	-0.059435
	H370	H	0.960652	0.059401	-0.056784
	H371	H	0.966481	0.045753	-0.066699
	O372	O	0.541752	0.460135	0.531497
	H373	H	0.539243	0.469113	0.524938
	H374	H	0.554033	0.453708	0.524601
	O375	O	1.045309	-0.029787	1.027691
	H376	H	1.052508	-0.027240	1.017873
	H377	H	1.038673	-0.029726	1.032695
	O378	O	-0.423930	1.565071	-0.559327
	H379	H	-0.433810	1.556799	-0.549278
	H380	H	-0.417844	1.587238	-0.546981
	O381	O	0.539111	0.506105	0.438774
	H382	H	0.543923	0.507272	0.441078
	H383	H	0.540439	0.485069	0.437780
	O384	O	1.244386	1.229550	-0.348263
	H385	H	1.243216	1.229477	-0.352191
	H386	H	1.241135	1.236109	-0.347071
	O387	O	1.047008	0.111518	1.065279
	H388	H	1.053790	0.114488	1.076296
	H389	H	1.049644	0.103522	1.068144
	O390	O	1.486247	0.635347	0.532982
	H391	H	1.483922	0.635583	0.530908
	H392	H	1.482354	0.639637	0.544146
	O393	O	1.016331	1.016321	-0.071646
	H394	H	1.029787	1.012342	-0.081759
	H395	H	1.016667	1.018886	-0.063780
