data_Molecule from HDF5

_cell_length_a		16.293568
_cell_length_b		16.293820
_cell_length_c		16.236760
_cell_angle_alpha	89.982317
_cell_angle_beta	90.002587
_cell_angle_gamma	89.991787
_symmetry_space_group_name_H-M	'P 1'
_symmetry_Int_Tables_number		1

loop_
	_symmetry_equiv_pos_as_xyz
	x,y,z

loop_
	_atom_site_label
	_atom_site_type_symbol
	_atom_site_fract_x
	_atom_site_fract_y
	_atom_site_fract_z
	H0	H	0.403209	0.836135	0.713461
	H1	H	0.597530	0.164055	0.714195
	H2	H	0.597237	0.835787	0.287054
	H3	H	0.403169	0.163774	0.286274
	H4	H	0.713621	0.402599	0.834982
	H5	H	0.714139	0.597149	0.164074
	H6	H	0.287301	0.596457	0.835243
	H7	H	0.286728	0.402505	0.164877
	H8	H	0.836368	0.713407	0.402854
	H9	H	0.164229	0.713923	0.598482
	H10	H	0.835754	0.286004	0.597934
	H11	H	0.163847	0.285329	0.401375
	H12	H	0.835931	0.402000	0.713774
	H13	H	0.164233	0.596826	0.713709
	H14	H	0.835690	0.597344	0.286491
	H15	H	0.163884	0.403195	0.286356
	H16	H	0.402268	0.713422	0.835531
	H17	H	0.598184	0.713052	0.164722
	H18	H	0.597657	0.285385	0.835571
	H19	H	0.402259	0.285875	0.164746
	H20	H	0.714742	0.836661	0.402606
	H21	H	0.714037	0.164151	0.598388
	H22	H	0.284915	0.836721	0.599096
	H23	H	0.286156	0.163438	0.401621
	H24	H	0.901743	0.336590	0.214484
	H25	H	0.097466	0.663595	0.214433
	H26	H	0.096129	0.335435	0.786646
	H27	H	0.903053	0.664501	0.786197
	H28	H	0.213345	0.902986	0.335046
	H29	H	0.213238	0.097651	0.664702
	H30	H	0.785907	0.097842	0.336161
	H31	H	0.787132	0.904319	0.664608
	H32	H	0.336064	0.214159	0.901228
	H33	H	0.663097	0.214435	0.098770
	H34	H	0.336511	0.785330	0.098350
	H35	H	0.663975	0.784944	0.901463
	H36	H	0.336116	0.902993	0.213753
	H37	H	0.663944	0.096805	0.212924
	H38	H	0.335605	0.096189	0.787315
	H39	H	0.664066	0.902744	0.786628
	H40	H	0.900587	0.214666	0.335408
	H41	H	0.097258	0.213893	0.664571
	H42	H	0.097755	0.786239	0.335232
	H43	H	0.902755	0.786692	0.664458
	H44	H	0.213646	0.335740	0.901431
	H45	H	0.214067	0.663647	0.098325
	H46	H	0.786480	0.335846	0.097345
	H47	H	0.784506	0.663864	0.900896
	H48	H	0.408390	0.118127	0.599408
	H49	H	0.595719	0.880414	0.604212
	H50	H	0.594112	0.117552	0.405391
	H51	H	0.396997	0.879217	0.403500
	H52	H	0.591081	0.406532	0.116032
	H53	H	0.592758	0.596038	0.882624
	H54	H	0.411098	0.595981	0.116698
	H55	H	0.399321	0.404975	0.881033
	H56	H	0.112225	0.587789	0.415503
	H57	H	0.884228	0.593983	0.591960
	H58	H	0.115137	0.402493	0.585617
	H59	H	0.885297	0.413443	0.407677
	H60	H	0.113916	0.414644	0.594831
	H61	H	0.884085	0.593184	0.594238
	H62	H	0.117863	0.588685	0.396996
	H63	H	0.881653	0.404292	0.402034
	H64	H	0.401572	0.595568	0.118840
	H65	H	0.595806	0.591635	0.882458
	H66	H	0.594290	0.404431	0.117304
	H67	H	0.407767	0.413395	0.885888
	H68	H	0.592874	0.116250	0.406603
	H69	H	0.584436	0.887197	0.589976
	H70	H	0.410091	0.114388	0.589716
	H71	H	0.414355	0.884257	0.400204
	H72	H	0.905446	0.615224	0.087650
	H73	H	0.093107	0.382282	0.099223
	H74	H	0.101290	0.619540	0.902251
	H75	H	0.908624	0.386475	0.914799
	H76	H	0.082428	0.901981	0.614765
	H77	H	0.086901	0.090890	0.386268
	H78	H	0.906764	0.098262	0.618629
	H79	H	0.910653	0.904972	0.383679
	H80	H	0.618217	0.101187	0.909200
	H81	H	0.386101	0.088593	0.089041
	H82	H	0.615551	0.906772	0.090466
	H83	H	0.388439	0.917448	0.910785
	H84	H	0.616882	0.907466	0.095378
	H85	H	0.381356	0.092000	0.100536
	H86	H	0.613303	0.088608	0.912294
	H87	H	0.379222	0.903810	0.894630
	H88	H	0.902931	0.091742	0.617227
	H89	H	0.093764	0.100445	0.380789
	H90	H	0.101644	0.899417	0.621603
	H91	H	0.904275	0.905766	0.381639
	H92	H	0.086376	0.615607	0.902215
	H93	H	0.088971	0.385443	0.090101
	H94	H	0.901970	0.619177	0.096445
	H95	H	0.897940	0.380618	0.905257
	H96	H	0.400403	0.118126	0.592233
	H97	H	0.603122	0.882868	0.586492
	H98	H	0.594695	0.116664	0.407048
	H99	H	0.406741	0.886352	0.416924
	H100	H	0.594606	0.408607	0.116223
	H101	H	0.590160	0.591728	0.884014
	H102	H	0.405636	0.587839	0.115437
	H103	H	0.411787	0.401155	0.883134
	H104	H	0.119388	0.603969	0.407924
	H105	H	0.882744	0.595405	0.593724
	H106	H	0.119790	0.401535	0.600540
	H107	H	0.884453	0.403400	0.413183
	H108	H	0.912034	0.616128	0.095713
	H109	H	0.098702	0.382951	0.090280
	H110	H	0.094400	0.614251	0.915046
	H111	H	0.912040	0.383792	0.899688
	H112	H	0.095442	0.917368	0.613553
	H113	H	0.099037	0.088997	0.382985
	H114	H	0.910603	0.092317	0.615287
	H115	H	0.907667	0.910872	0.384239
	H116	H	0.617900	0.091285	0.899331
	H117	H	0.381395	0.100628	0.091055
	H118	H	0.618159	0.902855	0.093184
	H119	H	0.383670	0.896004	0.915464
	C120	C	0.378392	0.008623	0.621884
	C121	C	0.621853	0.991816	0.621800
	C122	C	0.621704	0.008484	0.378349
	C123	C	0.378324	0.991442	0.378272
	C124	C	0.621500	0.378199	0.007922
	C125	C	0.621265	0.621112	0.991715
	C126	C	0.378171	0.621019	0.008270
	C127	C	0.377927	0.378109	0.992020
	C128	C	0.008135	0.621469	0.378461
	C129	C	0.992269	0.622099	0.621516
	C130	C	0.007958	0.378118	0.621617
	C131	C	0.991764	0.378726	0.378815
	C132	C	0.878412	0.508530	0.121415
	C133	C	0.121520	0.491779	0.121609
	C134	C	0.121664	0.507906	0.878150
	C135	C	0.878260	0.492092	0.877960
	C136	C	0.121417	0.878544	0.507904
	C137	C	0.121359	0.121721	0.491948
	C138	C	0.878136	0.122439	0.508444
	C139	C	0.878884	0.879105	0.491634
	C140	C	0.508231	0.121510	0.878422
	C141	C	0.491503	0.121099	0.121420
	C142	C	0.508576	0.878050	0.121472
	C143	C	0.492067	0.877753	0.878381
	C144	C	0.381921	0.885018	0.676134
	C145	C	0.618385	0.115302	0.676369
	C146	C	0.618889	0.884908	0.323975
	C147	C	0.381959	0.114944	0.323929
	C148	C	0.675909	0.381516	0.884000
	C149	C	0.676400	0.618268	0.115316
	C150	C	0.324022	0.617683	0.884391
	C151	C	0.323901	0.381529	0.115757
	C152	C	0.885011	0.675973	0.381664
	C153	C	0.115398	0.676500	0.619095
	C154	C	0.884681	0.323547	0.618724
	C155	C	0.115064	0.323554	0.380979
	C156	C	0.884608	0.381584	0.675768
	C157	C	0.115503	0.618317	0.676080
	C158	C	0.884853	0.618235	0.324134
	C159	C	0.115204	0.382051	0.323957
	C160	C	0.381558	0.675298	0.884388
	C161	C	0.618560	0.675539	0.115612
	C162	C	0.618480	0.323530	0.884364
	C163	C	0.381649	0.324019	0.115871
	C164	C	0.677252	0.885483	0.381154
	C165	C	0.676265	0.115291	0.618963
	C166	C	0.323265	0.885281	0.619242
	C167	C	0.323916	0.114752	0.381191
	C168	C	0.881151	0.385180	0.176564
	C169	C	0.118286	0.614998	0.176429
	C170	C	0.117675	0.384463	0.824130
	C171	C	0.881659	0.615528	0.823455
	C172	C	0.176177	0.881585	0.384079
	C173	C	0.175599	0.118303	0.615542
	C174	C	0.823640	0.119068	0.384841
	C175	C	0.824555	0.882955	0.615716
	C176	C	0.384745	0.175749	0.881567
	C177	C	0.614523	0.176148	0.119064
	C178	C	0.385226	0.823376	0.119069
	C179	C	0.615249	0.822798	0.880947
	C180	C	0.385074	0.881617	0.176181
	C181	C	0.615015	0.117842	0.175669
	C182	C	0.384512	0.117638	0.824403
	C183	C	0.615349	0.881534	0.824107
	C184	C	0.880585	0.176992	0.384782
	C185	C	0.118220	0.176322	0.615602
	C186	C	0.118427	0.824054	0.383972
	C187	C	0.881481	0.824387	0.615358
	C188	C	0.175931	0.384516	0.881210
	C189	C	0.175638	0.615143	0.118496
	C190	C	0.824065	0.384838	0.118283
	C191	C	0.823213	0.615361	0.880612
	C192	C	0.400000	0.094654	0.600169
	C193	C	0.600689	0.905700	0.600106
	C194	C	0.600111	0.094630	0.399946
	C195	C	0.399866	0.905442	0.400220
	C196	C	0.599828	0.400061	0.094256
	C197	C	0.599499	0.599471	0.905369
	C198	C	0.399832	0.599583	0.094815
	C199	C	0.399873	0.399944	0.905517
	C200	C	0.094380	0.599768	0.400304
	C201	C	0.905865	0.600529	0.599763
	C202	C	0.093988	0.399857	0.600010
	C203	C	0.905910	0.400505	0.401123
	C204	C	0.899937	0.594405	0.099657
	C205	C	0.100064	0.405721	0.099717
	C206	C	0.100363	0.594235	0.899935
	C207	C	0.899906	0.405962	0.899889
	C208	C	0.099754	0.899916	0.594290
	C209	C	0.099480	0.099861	0.405401
	C210	C	0.900141	0.100560	0.594921
	C211	C	0.900940	0.901015	0.405559
	C212	C	0.594306	0.100020	0.900372
	C213	C	0.405471	0.099910	0.099793
	C214	C	0.594631	0.899395	0.099713
	C215	C	0.406061	0.899367	0.900466
	Zn216	Zn	0.500149	0.000263	0.749994
	Zn217	Zn	0.500268	-0.000327	0.250028
	Zn218	Zn	0.749845	0.500159	-0.000352
	Zn219	Zn	0.249865	0.499912	-0.000003
	Zn220	Zn	0.000057	0.750125	0.500041
	Zn221	Zn	-0.000265	0.250165	0.499997
	Zn222	Zn	0.000272	0.500003	0.749994
	Zn223	Zn	-0.000079	0.500200	0.249860
	Zn224	Zn	0.500103	0.749200	-0.000006
	Zn225	Zn	0.499853	0.250013	0.000057
	Zn226	Zn	0.750193	0.000596	0.500068
	Zn227	Zn	0.250029	-0.000073	0.499996
	N228	N	0.415661	0.962470	0.677533
	N229	N	0.585294	0.037670	0.678107
	N230	N	0.585249	0.962382	0.322123
	N231	N	0.415117	0.037396	0.322045
	N232	N	0.678037	0.414669	0.961917
	N233	N	0.678219	0.585166	0.037440
	N234	N	0.321889	0.584810	0.962399
	N235	N	0.321545	0.414415	0.037763
	N236	N	0.962776	0.678071	0.414588
	N237	N	0.037639	0.678883	0.586078
	N238	N	0.962379	0.321318	0.585744
	N239	N	0.037473	0.321416	0.414305
	N240	N	0.962222	0.414689	0.677786
	N241	N	0.037923	0.585026	0.677609
	N242	N	0.962438	0.585040	0.322141
	N243	N	0.037510	0.415496	0.322282
	N244	N	0.414368	0.677711	0.962498
	N245	N	0.585083	0.677372	0.037676
	N246	N	0.585297	0.321439	0.962348
	N247	N	0.414480	0.321847	0.037800
	N248	N	0.678736	0.963145	0.414428
	N249	N	0.678575	0.037661	0.585615
	N250	N	0.321015	0.963049	0.586307
	N251	N	0.321760	0.037092	0.414581
	N252	N	0.914416	0.462782	0.178344
	N253	N	0.085072	0.537466	0.178096
	N254	N	0.084785	0.462226	0.822138
	N255	N	0.915266	0.538015	0.821955
	N256	N	0.178113	0.914940	0.461960
	N257	N	0.177589	0.085175	0.537692
	N258	N	0.821944	0.085842	0.462804
	N259	N	0.822474	0.916063	0.537730
	N260	N	0.462526	0.178302	0.914502
	N261	N	0.536805	0.178402	0.086057
	N262	N	0.462898	0.820977	0.085712
	N263	N	0.537569	0.820567	0.914095
	N264	N	0.462764	0.914793	0.177823
	N265	N	0.537559	0.084366	0.177344
	N266	N	0.462288	0.084838	0.822394
	N267	N	0.537886	0.915074	0.822424
	N268	N	0.913989	0.178924	0.462616
	N269	N	0.085285	0.178685	0.537474
	N270	N	0.085199	0.822149	0.461851
	N271	N	0.914752	0.822346	0.537542
	N272	N	0.178332	0.462336	0.914075
	N273	N	0.177948	0.537480	0.085227
	N274	N	0.822409	0.462336	0.084268
	N275	N	0.821125	0.537645	0.913968
