data_Molecule from HDF5

_cell_length_a		16.499920
_cell_length_b		16.236086
_cell_length_c		16.093604
_cell_angle_alpha	89.916717
_cell_angle_beta	89.429314
_cell_angle_gamma	89.912893
_symmetry_space_group_name_H-M	'P 1'
_symmetry_Int_Tables_number		1

loop_
	_symmetry_equiv_pos_as_xyz
	x,y,z

loop_
	_atom_site_label
	_atom_site_type_symbol
	_atom_site_fract_x
	_atom_site_fract_y
	_atom_site_fract_z
	H0	H	0.407552	0.832470	0.709463
	H1	H	0.602233	0.160921	0.705162
	H2	H	0.609023	0.833193	0.277273
	H3	H	0.413372	0.161462	0.282397
	H4	H	0.728484	0.392681	0.831507
	H5	H	0.722860	0.598418	0.158044
	H6	H	0.289186	0.600984	0.832470
	H7	H	0.289562	0.391268	0.157691
	H8	H	0.846483	0.714934	0.394658
	H9	H	0.167472	0.714443	0.597374
	H10	H	0.845683	0.277621	0.599110
	H11	H	0.166939	0.276687	0.390980
	H12	H	0.846565	0.395631	0.715916
	H13	H	0.169132	0.595369	0.710001
	H14	H	0.844210	0.594318	0.281556
	H15	H	0.167478	0.396271	0.276535
	H16	H	0.409942	0.710902	0.829420
	H17	H	0.606568	0.711227	0.158277
	H18	H	0.608606	0.282502	0.828350
	H19	H	0.409948	0.283488	0.159477
	H20	H	0.728740	0.834833	0.388257
	H21	H	0.724733	0.157786	0.596898
	H22	H	0.287966	0.834527	0.600122
	H23	H	0.285620	0.155810	0.386262
	H24	H	0.908041	0.331678	0.210992
	H25	H	0.101436	0.659546	0.206996
	H26	H	0.107935	0.331458	0.779723
	H27	H	0.912754	0.660064	0.782678
	H28	H	0.226591	0.892052	0.331503
	H29	H	0.225070	0.100728	0.656732
	H30	H	0.792222	0.099787	0.331574
	H31	H	0.785694	0.890445	0.657127
	H32	H	0.347392	0.217163	0.892226
	H33	H	0.668164	0.214596	0.093273
	H34	H	0.348180	0.777912	0.098957
	H35	H	0.667731	0.778241	0.889117
	H36	H	0.347262	0.897851	0.213032
	H37	H	0.669249	0.097611	0.208948
	H38	H	0.344521	0.097164	0.779891
	H39	H	0.667673	0.897595	0.774832
	H40	H	0.909161	0.209863	0.330617
	H41	H	0.104576	0.208953	0.659464
	H42	H	0.108489	0.779774	0.330876
	H43	H	0.906092	0.781119	0.660244
	H44	H	0.229354	0.333959	0.889290
	H45	H	0.225854	0.656600	0.099260
	H46	H	0.787198	0.334093	0.101407
	H47	H	0.789042	0.657190	0.889760
	H48	H	0.411035	0.112433	0.582265
	H49	H	0.605363	0.879199	0.578585
	H50	H	0.591584	0.109491	0.404574
	H51	H	0.417121	0.880942	0.408896
	H52	H	0.602774	0.404283	0.112606
	H53	H	0.596040	0.585047	0.879256
	H54	H	0.416348	0.585054	0.111330
	H55	H	0.411900	0.406884	0.874787
	H56	H	0.121472	0.588548	0.400797
	H57	H	0.896225	0.580375	0.585433
	H58	H	0.122121	0.396132	0.584697
	H59	H	0.890519	0.396082	0.403803
	H60	H	0.119100	0.403817	0.581763
	H61	H	0.890730	0.588789	0.596299
	H62	H	0.120111	0.587647	0.403247
	H63	H	0.894906	0.403658	0.410967
	H64	H	0.415861	0.586886	0.111523
	H65	H	0.602378	0.590193	0.875334
	H66	H	0.597922	0.409529	0.108972
	H67	H	0.420305	0.413347	0.879465
	H68	H	0.609110	0.111184	0.411223
	H69	H	0.598071	0.878059	0.590035
	H70	H	0.412271	0.113626	0.587049
	H71	H	0.412654	0.879014	0.403592
	H72	H	0.910603	0.612130	0.083296
	H73	H	0.098032	0.380056	0.081929
	H74	H	0.101552	0.610025	0.909164
	H75	H	0.923050	0.383058	0.910413
	H76	H	0.091848	0.901214	0.611537
	H77	H	0.104741	0.077865	0.378303
	H78	H	0.915014	0.089667	0.613831
	H79	H	0.916909	0.898617	0.375932
	H80	H	0.625088	0.092792	0.887758
	H81	H	0.393905	0.091788	0.085907
	H82	H	0.623428	0.897071	0.082709
	H83	H	0.391458	0.897643	0.906265
	H84	H	0.620821	0.907810	0.080251
	H85	H	0.394672	0.086582	0.087159
	H86	H	0.620931	0.097130	0.908448
	H87	H	0.395709	0.906671	0.907227
	H88	H	0.908025	0.084253	0.614072
	H89	H	0.091299	0.082473	0.381526
	H90	H	0.105275	0.902663	0.614847
	H91	H	0.912329	0.911282	0.377939
	H92	H	0.103577	0.613195	0.903072
	H93	H	0.104519	0.377598	0.084469
	H94	H	0.911113	0.613240	0.089716
	H95	H	0.909749	0.378852	0.911490
	H96	H	0.415270	0.111673	0.583788
	H97	H	0.592876	0.883655	0.578498
	H98	H	0.604956	0.117151	0.393551
	H99	H	0.419273	0.880705	0.401975
	H100	H	0.595232	0.401778	0.111991
	H101	H	0.604648	0.581155	0.876758
	H102	H	0.414772	0.585176	0.111712
	H103	H	0.421838	0.401716	0.877309
	H104	H	0.120308	0.586339	0.400878
	H105	H	0.894185	0.594809	0.583330
	H106	H	0.122188	0.403140	0.589538
	H107	H	0.891996	0.407238	0.400106
	H108	H	0.916537	0.610584	0.086079
	H109	H	0.098226	0.378033	0.088853
	H110	H	0.097917	0.610903	0.903597
	H111	H	0.916660	0.377092	0.899271
	H112	H	0.097730	0.913666	0.609492
	H113	H	0.100330	0.092068	0.374995
	H114	H	0.915768	0.080483	0.610819
	H115	H	0.925057	0.907816	0.382037
	H116	H	0.617087	0.077407	0.900703
	H117	H	0.392120	0.089979	0.090194
	H118	H	0.622722	0.904879	0.090494
	H119	H	0.391453	0.904722	0.898098
	C120	C	0.384185	0.004880	0.615765
	C121	C	0.627438	0.988065	0.613244
	C122	C	0.631431	0.005138	0.371812
	C123	C	0.387330	0.987812	0.373975
	C124	C	0.629470	0.374802	0.002707
	C125	C	0.629159	0.616079	0.985483
	C126	C	0.386329	0.616726	0.003354
	C127	C	0.387716	0.376118	0.985646
	C128	C	0.014620	0.617566	0.372935
	C129	C	0.999548	0.617903	0.617703
	C130	C	0.014995	0.372200	0.617409
	C131	C	0.998185	0.372350	0.372870
	C132	C	0.883662	0.504351	0.117541
	C133	C	0.128249	0.486550	0.115431
	C134	C	0.130810	0.503593	0.873956
	C135	C	0.887359	0.487258	0.875686
	C136	C	0.128354	0.874959	0.503688
	C137	C	0.128433	0.115859	0.486005
	C138	C	0.885364	0.115572	0.504227
	C139	C	0.886707	0.875095	0.486630
	C140	C	0.514927	0.119263	0.870880
	C141	C	0.499613	0.118969	0.116030
	C142	C	0.516498	0.874183	0.116127
	C143	C	0.498806	0.873704	0.871922
	C144	C	0.386723	0.881974	0.672569
	C145	C	0.623920	0.111343	0.668494
	C146	C	0.629695	0.882542	0.314836
	C147	C	0.391030	0.111400	0.318664
	C148	C	0.688679	0.373905	0.879966
	C149	C	0.684340	0.616783	0.109097
	C150	C	0.328909	0.618387	0.880626
	C151	C	0.329661	0.374370	0.108991
	C152	C	0.894262	0.675544	0.374930
	C153	C	0.119754	0.675433	0.616594
	C154	C	0.894055	0.316026	0.618466
	C155	C	0.118902	0.315533	0.372200
	C156	C	0.894612	0.374697	0.676650
	C157	C	0.120754	0.615871	0.672627
	C158	C	0.893156	0.615648	0.318324
	C159	C	0.119173	0.374720	0.315008
	C160	C	0.388698	0.673436	0.879309
	C161	C	0.626494	0.673090	0.109157
	C162	C	0.628790	0.319310	0.878481
	C163	C	0.389246	0.320260	0.109747
	C164	C	0.689213	0.883257	0.370061
	C165	C	0.685131	0.109585	0.614611
	C166	C	0.327361	0.882670	0.617812
	C167	C	0.327801	0.108772	0.370577
	C168	C	0.887028	0.380921	0.173614
	C169	C	0.123918	0.610077	0.170658
	C170	C	0.128843	0.380908	0.817061
	C171	C	0.890586	0.610717	0.819607
	C172	C	0.186813	0.873723	0.380412
	C173	C	0.185529	0.117723	0.608530
	C174	C	0.830414	0.117202	0.380508
	C175	C	0.826761	0.873111	0.609176
	C176	C	0.394699	0.177483	0.872700
	C177	C	0.620394	0.175665	0.113143
	C178	C	0.395985	0.817192	0.117432
	C179	C	0.619639	0.817161	0.870519
	C180	C	0.395422	0.876678	0.174455
	C181	C	0.620931	0.117734	0.171077
	C182	C	0.393447	0.117639	0.816642
	C183	C	0.619653	0.876775	0.813901
	C184	C	0.888537	0.172178	0.380167
	C185	C	0.125630	0.172049	0.609752
	C186	C	0.127969	0.817979	0.380245
	C187	C	0.886537	0.818504	0.610597
	C188	C	0.189298	0.382064	0.871742
	C189	C	0.185662	0.608433	0.116885
	C190	C	0.826771	0.382082	0.119084
	C191	C	0.829246	0.609103	0.873140
	C192	C	0.406244	0.090285	0.591400
	C193	C	0.605079	0.902381	0.589367
	C194	C	0.608556	0.090532	0.395941
	C195	C	0.409738	0.902320	0.398043
	C196	C	0.605569	0.398290	0.088777
	C197	C	0.607455	0.592468	0.899400
	C198	C	0.409078	0.592633	0.089231
	C199	C	0.411224	0.400372	0.899512
	C200	C	0.098896	0.594309	0.395127
	C201	C	0.915529	0.594671	0.595047
	C202	C	0.099095	0.394617	0.592690
	C203	C	0.914236	0.395458	0.397777
	C204	C	0.906256	0.589792	0.093415
	C205	C	0.106574	0.400649	0.091895
	C206	C	0.107644	0.589134	0.898191
	C207	C	0.909830	0.401920	0.900032
	C208	C	0.105069	0.898980	0.589734
	C209	C	0.105630	0.091340	0.400291
	C210	C	0.906716	0.091680	0.590487
	C211	C	0.911027	0.899078	0.400950
	C212	C	0.599098	0.095935	0.892729
	C213	C	0.415475	0.096049	0.094274
	C214	C	0.600480	0.896689	0.091430
	C215	C	0.414666	0.896296	0.896834
	Zn216	Zn	0.505653	-0.003439	0.742244
	Zn217	Zn	0.508813	-0.003178	0.245616
	Zn218	Zn	0.757131	0.495779	-0.004673
	Zn219	Zn	0.258868	0.495187	-0.004937
	Zn220	Zn	0.007210	0.747160	0.495804
	Zn221	Zn	0.005885	0.242143	0.495222
	Zn222	Zn	0.008441	0.496059	0.746908
	Zn223	Zn	0.006168	0.495335	0.243763
	Zn224	Zn	0.508000	0.743830	-0.006115
	Zn225	Zn	0.507108	0.248180	-0.006624
	Zn226	Zn	0.758282	-0.004620	0.494092
	Zn227	Zn	0.256783	-0.004317	0.494525
	N228	N	0.421131	0.958926	0.671494
	N229	N	0.588758	0.034615	0.667802
	N230	N	0.594638	0.959409	0.315756
	N231	N	0.427177	0.035058	0.320632
	N232	N	0.689112	0.407798	0.958276
	N233	N	0.686197	0.582191	0.031133
	N234	N	0.327228	0.584011	0.958765
	N235	N	0.328639	0.408425	0.030726
	N236	N	0.970752	0.676860	0.408055
	N237	N	0.043474	0.676727	0.583211
	N238	N	0.969840	0.314351	0.582349
	N239	N	0.042604	0.313897	0.407418
	N240	N	0.970954	0.408798	0.676171
	N241	N	0.044954	0.580764	0.673499
	N242	N	0.968984	0.580334	0.316954
	N243	N	0.043294	0.409477	0.315430
	N244	N	0.423598	0.672418	0.956587
	N245	N	0.592892	0.672710	0.031244
	N246	N	0.592842	0.319656	0.955895
	N247	N	0.424726	0.321265	0.032021
	N248	N	0.690552	0.960612	0.404706
	N249	N	0.687444	0.031660	0.581161
	N250	N	0.325411	0.960183	0.583141
	N251	N	0.325381	0.030901	0.404341
	N252	N	0.921507	0.457968	0.172821
	N253	N	0.089050	0.533208	0.169815
	N254	N	0.093479	0.457708	0.818049
	N255	N	0.926064	0.534143	0.821040
	N256	N	0.187212	0.908767	0.458220
	N257	N	0.187233	0.083273	0.530430
	N258	N	0.828255	0.082597	0.458607
	N259	N	0.826729	0.907600	0.531052
	N260	N	0.471179	0.178696	0.905571
	N261	N	0.543941	0.176777	0.079748
	N262	N	0.472184	0.815386	0.082055
	N263	N	0.543519	0.815341	0.905972
	N264	N	0.471472	0.911112	0.174090
	N265	N	0.545162	0.082891	0.172869
	N266	N	0.469312	0.082366	0.815211
	N267	N	0.543435	0.911195	0.814588
	N268	N	0.922107	0.171341	0.458151
	N269	N	0.090760	0.170896	0.532604
	N270	N	0.092325	0.818695	0.457728
	N271	N	0.923140	0.819591	0.533444
	N272	N	0.190575	0.459427	0.906313
	N273	N	0.188508	0.530477	0.083529
	N274	N	0.824398	0.459810	0.085170
	N275	N	0.827256	0.531223	0.907406
	O276	O	-0.011070	0.029235	-0.007970
	H277	H	-0.017313	0.038220	-0.007726
	H278	H	-0.013338	0.021020	-0.017076
	O279	O	0.384537	0.389066	0.498267
	H280	H	0.375170	0.382254	0.477708
	H281	H	0.399275	0.391279	0.508092
	O282	O	0.929593	-0.035050	0.086210
	H283	H	0.933335	-0.036286	0.089240
	H284	H	0.927802	-0.028657	0.087003
	O285	O	-0.005560	0.968700	-0.063985
	H286	H	-0.007386	0.962892	-0.057682
	H287	H	-0.003955	0.961225	-0.071424
	O288	O	0.036499	-0.107051	1.036682
	H289	H	0.039776	-0.106202	1.045525
	H290	H	0.044311	-0.111310	1.041681
	O291	O	0.456187	0.645571	0.507983
	H292	H	0.467980	0.648810	0.517679
	H293	H	0.458552	0.654009	0.506506
	O294	O	0.893747	1.036016	0.900794
	H295	H	0.880019	1.035308	0.913987
	H296	H	0.886268	1.033820	0.887385
	O297	O	-0.024248	0.020122	-0.023050
	H298	H	-0.024453	0.024912	-0.034135
	H299	H	-0.044461	0.026310	-0.017426
	O300	O	0.525049	0.389032	0.433977
	H301	H	0.514049	0.388457	0.428203
	H302	H	0.527930	0.398516	0.423315
	O303	O	0.052226	1.034057	0.929267
	H304	H	0.050897	1.026791	0.922514
	H305	H	0.042746	1.040652	0.928871
	O306	O	1.143197	0.953671	-0.026768
	H307	H	1.148088	0.948879	-0.038941
	H308	H	1.138357	0.958062	-0.036084
	O309	O	1.150440	-0.058381	0.005626
	H310	H	1.153576	-0.057755	0.011469
	H311	H	1.139713	-0.061058	-0.014987
	O312	O	-0.082026	-0.121159	1.081775
	H313	H	-0.084864	-0.113845	1.085984
	H314	H	-0.088608	-0.124318	1.072624
	O315	O	0.511412	0.531327	0.432255
	H316	H	0.490693	0.537653	0.436398
	H317	H	0.509358	0.522852	0.442982
	O318	O	0.591757	0.403917	0.538787
	H319	H	0.588564	0.403834	0.524120
	H320	H	0.600949	0.400469	0.546950
	O321	O	0.455480	0.572975	0.586809
	H322	H	0.454121	0.573150	0.586308
	H323	H	0.450764	0.554378	0.591214
	O324	O	0.467650	0.438549	0.486277
	H325	H	0.456944	0.427164	0.494504
	H326	H	0.472330	0.427152	0.490585
	O327	O	-0.085679	0.898973	1.065402
	H328	H	-0.099503	0.908135	1.054230
	H329	H	-0.089543	0.903422	1.081254
	O330	O	0.587838	0.588813	0.489072
	H331	H	0.585474	0.592200	0.493581
	H332	H	0.579312	0.594852	0.497027
	O333	O	-0.453906	0.668673	0.559657
	H334	H	-0.454425	0.661565	0.551058
	H335	H	-0.440174	0.667634	0.558751
	O336	O	0.918432	1.025662	1.079661
	H337	H	0.923502	1.031283	1.098490
	H338	H	0.915724	1.028832	1.084080
	O339	O	0.367455	0.547308	0.388653
	H340	H	0.362538	0.562148	0.406640
	H341	H	0.354560	0.539457	0.382000
	O342	O	0.997695	0.057491	-0.053751
	H343	H	0.981360	0.047046	-0.040741
	H344	H	0.988049	0.067385	-0.074172
	O345	O	0.607499	0.546519	0.547781
	H346	H	0.604193	0.541528	0.542662
	H347	H	0.599428	0.546844	0.548205
	O348	O	0.969632	0.943903	1.128234
	H349	H	0.973550	0.944307	1.126491
	H350	H	0.968730	0.951412	1.137526
	O351	O	0.316868	1.605154	-0.497444
	H352	H	0.315411	1.591067	-0.500429
	H353	H	0.304442	1.603322	-0.484785
	O354	O	-0.048497	0.136510	0.022891
	H355	H	-0.041430	0.135783	0.011668
	H356	H	-0.033176	0.145709	0.028654
	O357	O	0.123937	0.919579	0.893922
	H358	H	0.125122	0.915618	0.896829
	H359	H	0.136857	0.914501	0.874329
	O360	O	0.519508	0.471127	0.425790
	H361	H	0.512421	0.484519	0.440006
	H362	H	0.513863	0.474479	0.426285
	O363	O	0.489671	0.364503	0.439705
	H364	H	0.493808	0.355785	0.434088
	H365	H	0.491315	0.387315	0.426855
	O366	O	0.479259	0.481559	0.590185
	H367	H	0.479876	0.479700	0.602508
	H368	H	0.476745	0.483385	0.582789
	O369	O	0.653618	0.403776	0.363579
	H370	H	0.644512	0.404467	0.361207
	H371	H	0.658022	0.404606	0.360924
	O372	O	0.553330	0.439787	0.599046
	H373	H	0.561537	0.450900	0.591373
	H374	H	0.556861	0.434982	0.587920
	O375	O	0.501530	0.599008	0.561945
	H376	H	0.494199	0.589636	0.570956
	H377	H	0.502829	0.602737	0.556690
	O378	O	0.027957	0.931667	0.864491
	H379	H	0.022623	0.930447	0.873098
	H380	H	0.012134	0.924198	0.862989
	O381	O	0.579263	0.581905	0.387977
	H382	H	0.575141	0.570456	0.381024
	H383	H	0.566153	0.581655	0.379235
	O384	O	0.123282	0.945312	-0.045391
	H385	H	0.119299	0.943120	-0.041269
	H386	H	0.127488	0.931927	-0.050604
	O387	O	1.463576	-0.555295	1.619138
	H388	H	1.474431	-0.558757	1.604504
	H389	H	1.477037	-0.563811	1.618897
	O390	O	-0.040209	1.083737	-0.040958
	H391	H	-0.035406	1.074343	-0.053370
	H392	H	-0.029765	1.083488	-0.051247
	O393	O	1.150132	1.082866	0.162319
	H394	H	1.168241	1.077294	0.149550
	H395	H	1.137646	1.086124	0.165942
	O396	O	0.635992	0.427634	0.448688
	H397	H	0.631060	0.437822	0.439933
	H398	H	0.646969	0.432313	0.444148
	O399	O	-0.121108	0.995205	1.132225
	H400	H	-0.108539	1.001378	1.139156
	H401	H	-0.124499	0.998540	1.138634
	O402	O	0.986314	1.072640	0.860679
	H403	H	0.972298	1.076113	0.854299
	H404	H	0.992619	1.066167	0.855477
	O405	O	0.352566	0.349137	0.521571
	H406	H	0.352751	0.344274	0.518847
	H407	H	0.356355	0.359679	0.510582
