data_Molecule from HDF5

_cell_length_a		16.661333
_cell_length_b		16.675065
_cell_length_c		16.578548
_cell_angle_alpha	90.027286
_cell_angle_beta	89.907977
_cell_angle_gamma	90.070305
_symmetry_space_group_name_H-M	'P 1'
_symmetry_Int_Tables_number		1

loop_
	_symmetry_equiv_pos_as_xyz
	x,y,z

loop_
	_atom_site_label
	_atom_site_type_symbol
	_atom_site_fract_x
	_atom_site_fract_y
	_atom_site_fract_z
	H0	H	0.382916	0.850461	0.722880
	H1	H	0.601312	0.155718	0.724996
	H2	H	0.595077	0.848164	0.279999
	H3	H	0.383732	0.156909	0.273087
	H4	H	0.718092	0.394128	0.846950
	H5	H	0.717689	0.614675	0.151025
	H6	H	0.263619	0.617069	0.847692
	H7	H	0.268430	0.396868	0.152952
	H8	H	0.836185	0.723661	0.395938
	H9	H	0.146395	0.728003	0.606502
	H10	H	0.836655	0.283440	0.604292
	H11	H	0.145409	0.279923	0.390313
	H12	H	0.836679	0.400101	0.720311
	H13	H	0.145637	0.612003	0.721994
	H14	H	0.835386	0.605755	0.280854
	H15	H	0.146654	0.397909	0.276025
	H16	H	0.381907	0.729801	0.846629
	H17	H	0.599815	0.727915	0.153110
	H18	H	0.603153	0.277117	0.846717
	H19	H	0.382876	0.280522	0.152774
	H20	H	0.709388	0.846201	0.397590
	H21	H	0.716883	0.155793	0.608749
	H22	H	0.266619	0.851563	0.606981
	H23	H	0.261557	0.152966	0.382255
	H24	H	0.885799	0.348523	0.220999
	H25	H	0.093787	0.660201	0.217030
	H26	H	0.100987	0.351468	0.772043
	H27	H	0.886956	0.658747	0.778722
	H28	H	0.211964	0.901182	0.342339
	H29	H	0.219913	0.116250	0.650543
	H30	H	0.772942	0.107071	0.343269
	H31	H	0.777420	0.904780	0.658299
	H32	H	0.337691	0.225512	0.892935
	H33	H	0.646029	0.225769	0.103975
	H34	H	0.338362	0.778381	0.110541
	H35	H	0.646223	0.782114	0.895693
	H36	H	0.337984	0.896401	0.224191
	H37	H	0.648862	0.106365	0.216954
	H38	H	0.337306	0.108216	0.777673
	H39	H	0.646697	0.897541	0.778722
	H40	H	0.887879	0.224483	0.343566
	H41	H	0.104207	0.231858	0.650985
	H42	H	0.094165	0.786312	0.341687
	H43	H	0.892357	0.787640	0.657642
	H44	H	0.218724	0.351819	0.887250
	H45	H	0.213340	0.658141	0.104293
	H46	H	0.768109	0.350016	0.107068
	H47	H	0.768605	0.657379	0.893082
	H48	H	0.410637	0.111465	0.583291
	H49	H	0.577809	0.892187	0.589422
	H50	H	0.581829	0.114051	0.415392
	H51	H	0.401419	0.892930	0.412601
	H52	H	0.577966	0.415101	0.109988
	H53	H	0.573396	0.591301	0.891038
	H54	H	0.414293	0.591173	0.105689
	H55	H	0.408895	0.413873	0.888500
	H56	H	0.106373	0.599219	0.406443
	H57	H	0.880694	0.593272	0.589360
	H58	H	0.101612	0.424028	0.588737
	H59	H	0.880312	0.411826	0.409656
	H60	H	0.104123	0.412491	0.585973
	H61	H	0.880223	0.596300	0.589544
	H62	H	0.102921	0.596285	0.411710
	H63	H	0.882518	0.415807	0.412916
	H64	H	0.399936	0.598850	0.114524
	H65	H	0.580582	0.594498	0.886795
	H66	H	0.579082	0.416896	0.110083
	H67	H	0.402306	0.415164	0.886505
	H68	H	0.590581	0.118058	0.408298
	H69	H	0.585036	0.891791	0.585437
	H70	H	0.405033	0.113264	0.582964
	H71	H	0.409809	0.895323	0.409818
	H72	H	0.900930	0.614781	0.086033
	H73	H	0.083730	0.392236	0.084531
	H74	H	0.077640	0.613066	0.911746
	H75	H	0.904610	0.391950	0.906718
	H76	H	0.080753	0.909565	0.613073
	H77	H	0.079110	0.088013	0.389163
	H78	H	0.901651	0.093868	0.612874
	H79	H	0.904729	0.912490	0.387497
	H80	H	0.605112	0.097455	0.911710
	H81	H	0.381695	0.094093	0.080094
	H82	H	0.598371	0.919733	0.083901
	H83	H	0.382928	0.921358	0.912865
	H84	H	0.603660	0.916178	0.094271
	H85	H	0.382597	0.084903	0.088630
	H86	H	0.599333	0.088663	0.919705
	H87	H	0.378594	0.913899	0.907806
	H88	H	0.904901	0.089823	0.609730
	H89	H	0.075029	0.087767	0.391545
	H90	H	0.086852	0.920277	0.611975
	H91	H	0.899060	0.907517	0.383749
	H92	H	0.077840	0.612174	0.914599
	H93	H	0.080666	0.390544	0.090481
	H94	H	0.901972	0.616162	0.091141
	H95	H	0.908463	0.396142	0.914192
	H96	H	0.408345	0.114273	0.587747
	H97	H	0.584474	0.889777	0.593788
	H98	H	0.580091	0.116008	0.404065
	H99	H	0.407006	0.897888	0.417710
	H100	H	0.577159	0.417183	0.109406
	H101	H	0.580724	0.587016	0.889872
	H102	H	0.398792	0.581300	0.108488
	H103	H	0.406093	0.420560	0.889203
	H104	H	0.103938	0.592781	0.405813
	H105	H	0.881065	0.595290	0.586835
	H106	H	0.098221	0.419328	0.577732
	H107	H	0.880382	0.416734	0.407708
	H108	H	0.905787	0.613950	0.088580
	H109	H	0.076723	0.394608	0.085799
	H110	H	0.079661	0.613479	0.913694
	H111	H	0.899931	0.392943	0.914856
	H112	H	0.075345	0.919397	0.607962
	H113	H	0.076208	0.091349	0.389112
	H114	H	0.906925	0.095134	0.610673
	H115	H	0.897053	0.915352	0.385809
	H116	H	0.602225	0.085494	0.907112
	H117	H	0.377927	0.095492	0.092236
	H118	H	0.603136	0.908263	0.084656
	H119	H	0.380440	0.912993	0.917609
	C120	C	0.372295	0.012067	0.619232
	C121	C	0.614804	0.993442	0.622398
	C122	C	0.614502	0.012438	0.378222
	C123	C	0.371459	0.996012	0.377882
	C124	C	0.612880	0.382292	0.008192
	C125	C	0.612236	0.624880	0.991060
	C126	C	0.370076	0.625329	0.008098
	C127	C	0.371124	0.383038	0.989868
	C128	C	0.000559	0.625905	0.377539
	C129	C	0.983341	0.626894	0.620839
	C130	C	-0.000316	0.384839	0.618539
	C131	C	0.983331	0.382199	0.376698
	C132	C	0.869685	0.512609	0.121239
	C133	C	0.112339	0.495065	0.119425
	C134	C	0.113334	0.512200	0.877607
	C135	C	0.870999	0.495670	0.878748
	C136	C	0.112739	0.884014	0.507444
	C137	C	0.113184	0.125205	0.490220
	C138	C	0.871492	0.125038	0.508230
	C139	C	0.871240	0.882702	0.490868
	C140	C	0.500699	0.124199	0.878392
	C141	C	0.483373	0.123987	0.119471
	C142	C	0.500022	0.881545	0.121718
	C143	C	0.482982	0.882783	0.879763
	C144	C	0.366042	0.896753	0.681822
	C145	C	0.618606	0.109282	0.684303
	C146	C	0.614237	0.894869	0.319740
	C147	C	0.366000	0.110592	0.313919
	C148	C	0.676338	0.377217	0.892701
	C149	C	0.675524	0.630608	0.105633
	C150	C	0.305925	0.632569	0.893364
	C151	C	0.308852	0.379100	0.106060
	C152	C	0.882798	0.683862	0.377010
	C153	C	0.099596	0.687537	0.624118
	C154	C	0.883445	0.323687	0.622442
	C155	C	0.099540	0.321242	0.373117
	C156	C	0.883225	0.381696	0.680061
	C157	C	0.099514	0.629787	0.681541
	C158	C	0.882482	0.625380	0.319895
	C159	C	0.099997	0.379509	0.315892
	C160	C	0.364516	0.688827	0.892831
	C161	C	0.617029	0.687125	0.106750
	C162	C	0.618988	0.319293	0.892684
	C163	C	0.365970	0.321115	0.105994
	C164	C	0.671332	0.894129	0.378007
	C165	C	0.676328	0.109488	0.626449
	C166	C	0.308288	0.897524	0.624030
	C167	C	0.305594	0.108933	0.368671
	C168	C	0.867000	0.395697	0.181531
	C169	C	0.113181	0.612756	0.178071
	C170	C	0.118580	0.397345	0.813580
	C171	C	0.868114	0.611950	0.818324
	C172	C	0.171959	0.882589	0.389252
	C173	C	0.178114	0.132540	0.604705
	C174	C	0.812424	0.126150	0.390456
	C175	C	0.815485	0.884483	0.610764
	C176	C	0.384029	0.184898	0.874895
	C177	C	0.600095	0.184631	0.121731
	C178	C	0.384546	0.819581	0.127280
	C179	C	0.599508	0.822151	0.876940
	C180	C	0.384352	0.878097	0.183919
	C181	C	0.601264	0.125478	0.177965
	C182	C	0.384018	0.126613	0.817571
	C183	C	0.599905	0.879615	0.818956
	C184	C	0.869475	0.184518	0.390558
	C185	C	0.120222	0.189794	0.604901
	C186	C	0.113754	0.825302	0.389095
	C187	C	0.872620	0.826405	0.610282
	C188	C	0.177115	0.397606	0.870614
	C189	C	0.172406	0.611897	0.121801
	C190	C	0.808622	0.396322	0.124653
	C191	C	0.809429	0.611337	0.875302
	C192	C	0.400215	0.092120	0.592309
	C193	C	0.589556	0.912451	0.596701
	C194	C	0.591082	0.094679	0.402303
	C195	C	0.398555	0.916189	0.405570
	C196	C	0.585783	0.408942	0.088842
	C197	C	0.585578	0.598296	0.910239
	C198	C	0.396769	0.598107	0.088506
	C199	C	0.398123	0.409243	0.908999
	C200	C	0.082978	0.602624	0.401323
	C201	C	0.901878	0.601863	0.595623
	C202	C	0.080258	0.411226	0.591879
	C203	C	0.902246	0.407510	0.402680
	C204	C	0.895339	0.593831	0.095763
	C205	C	0.087399	0.413755	0.094184
	C206	C	0.085998	0.591985	0.905458
	C207	C	0.896940	0.414811	0.904470
	C208	C	0.087960	0.909033	0.589461
	C209	C	0.084799	0.096962	0.410656
	C210	C	0.897226	0.100027	0.589992
	C211	C	0.893644	0.905306	0.407550
	C212	C	0.581134	0.098244	0.905140
	C213	C	0.402012	0.098601	0.094278
	C214	C	0.580869	0.907531	0.095096
	C215	C	0.401816	0.908737	0.905468
	Zn216	Zn	0.491620	0.002767	0.749811
	Zn217	Zn	0.492445	0.004067	0.249473
	Zn218	Zn	0.741235	0.503541	-0.000320
	Zn219	Zn	0.242137	0.503916	-0.001472
	Zn220	Zn	-0.007582	0.754544	0.499195
	Zn221	Zn	-0.007559	0.254393	0.499204
	Zn222	Zn	-0.007722	0.504826	0.749130
	Zn223	Zn	-0.008339	0.503750	0.248662
	Zn224	Zn	0.490943	0.753169	0.000270
	Zn225	Zn	0.491636	0.253802	-0.000910
	Zn226	Zn	0.742645	0.003219	0.499754
	Zn227	Zn	0.242344	0.004931	0.498674
	N228	N	0.405361	0.969135	0.678882
	N229	N	0.581089	0.036078	0.682123
	N230	N	0.579720	0.969617	0.319387
	N231	N	0.406437	0.039342	0.319443
	N232	N	0.672287	0.416232	0.965406
	N233	N	0.672554	0.592220	0.032671
	N234	N	0.309320	0.593489	0.965987
	N235	N	0.311802	0.416977	0.032694
	N236	N	0.957335	0.684397	0.412098
	N237	N	0.026187	0.685962	0.587102
	N238	N	0.956964	0.325362	0.585101
	N239	N	0.025808	0.322379	0.409845
	N240	N	0.956890	0.418813	0.678134
	N241	N	0.026156	0.592610	0.679700
	N242	N	0.956935	0.590092	0.319825
	N243	N	0.026712	0.416942	0.317944
	N244	N	0.403832	0.684509	0.965214
	N245	N	0.578014	0.683580	0.034196
	N246	N	0.579926	0.322372	0.965489
	N247	N	0.404135	0.323338	0.032601
	N248	N	0.672014	0.968520	0.413489
	N249	N	0.674216	0.036481	0.588442
	N250	N	0.312013	0.970344	0.585708
	N251	N	0.308865	0.036537	0.407960
	N252	N	0.904240	0.469132	0.179693
	N253	N	0.076745	0.539004	0.176981
	N254	N	0.079758	0.469790	0.817718
	N255	N	0.905620	0.538988	0.820220
	N256	N	0.171741	0.918268	0.463963
	N257	N	0.173669	0.092810	0.532372
	N258	N	0.813171	0.090117	0.464941
	N259	N	0.814159	0.918381	0.535314
	N260	N	0.457655	0.183845	0.911794
	N261	N	0.525510	0.184233	0.086456
	N262	N	0.457624	0.821630	0.089331
	N263	N	0.525654	0.823727	0.913796
	N264	N	0.457284	0.916379	0.180568
	N265	N	0.527597	0.088646	0.177028
	N266	N	0.457733	0.089995	0.819306
	N267	N	0.526174	0.916288	0.820297
	N268	N	0.905407	0.184188	0.465016
	N269	N	0.080299	0.185374	0.532726
	N270	N	0.077859	0.825887	0.463691
	N271	N	0.906139	0.824712	0.534545
	N272	N	0.174166	0.470210	0.909618
	N273	N	0.172282	0.537599	0.086149
	N274	N	0.810021	0.470219	0.088036
	N275	N	0.810872	0.537746	0.912111
	O276	O	0.299627	1.312906	0.309237
	H277	H	0.302702	1.317600	0.333890
	H278	H	0.281328	1.292636	0.290106
	O279	O	-0.130786	0.087398	0.010885
	H280	H	-0.116150	0.084348	0.023140
	H281	H	-0.130693	0.072258	0.023447
	O282	O	0.940813	0.226793	1.047838
	H283	H	0.940151	0.234630	1.043044
	H284	H	0.959160	0.218947	1.044426
	O285	O	0.254243	0.462032	0.443156
	H286	H	0.256645	0.487584	0.444682
	H287	H	0.253573	0.461628	0.429192
	O288	O	0.815792	0.940321	0.032540
	H289	H	0.823843	0.941431	0.024871
	H290	H	0.828423	0.923878	0.031439
	O291	O	0.264937	0.537666	0.275448
	H292	H	0.255413	0.534943	0.265577
	H293	H	0.254975	0.543606	0.264490
	O294	O	0.771619	-0.140692	0.997874
	H295	H	0.767798	-0.127621	0.982180
	H296	H	0.772193	-0.137296	0.987316
	O297	O	0.822151	0.184139	0.174583
	H298	H	0.844676	0.168151	0.163531
	H299	H	0.831235	0.166999	0.150763
	O300	O	0.209514	0.216152	1.027327
	H301	H	0.221858	0.226685	1.039466
	H302	H	0.216413	0.225910	1.031574
	O303	O	0.480812	0.584913	0.319124
	H304	H	0.471217	0.574751	0.319161
	H305	H	0.455957	0.588982	0.311808
	O306	O	0.517822	0.274293	0.276424
	H307	H	0.553053	0.284104	0.277391
	H308	H	0.531509	0.248586	0.246976
	O309	O	0.462878	0.262231	0.465993
	H310	H	0.478915	0.258668	0.425866
	H311	H	0.437389	0.259812	0.458959
	O312	O	0.358407	0.729503	0.412628
	H313	H	0.361085	0.723896	0.420393
	H314	H	0.352691	0.718410	0.411056
	O315	O	0.980131	0.791101	0.912989
	H316	H	0.987030	0.779240	0.908736
	H317	H	0.980549	0.811047	0.900138
	O318	O	0.707114	0.720763	0.542870
	H319	H	0.702326	0.706973	0.553047
	H320	H	0.733023	0.744965	0.548297
	O321	O	0.531006	0.443153	0.496539
	H322	H	0.533199	0.448600	0.499527
	H323	H	0.523075	0.441391	0.480043
	O324	O	1.097930	0.805381	0.116577
	H325	H	1.076876	0.815628	0.128405
	H326	H	1.097629	0.800105	0.124670
	O327	O	0.153697	0.003529	1.210438
	H328	H	0.160123	-0.003771	1.208497
	H329	H	0.162234	0.001034	1.217899
	O330	O	0.710704	0.571498	0.431091
	H331	H	0.713145	0.564973	0.422617
	H332	H	0.688335	0.583867	0.441483
	O333	O	0.713932	0.436221	0.484139
	H334	H	0.706976	0.440295	0.495360
	H335	H	0.704506	0.450870	0.492872
	O336	O	0.643551	0.513901	0.274954
	H337	H	0.646862	0.499779	0.271210
	H338	H	0.649455	0.501267	0.273281
	O339	O	1.195540	-0.196678	0.799721
	H340	H	1.196243	-0.176275	0.826934
	H341	H	1.180675	-0.171322	0.807789
	O342	O	0.120115	-0.033369	-0.013076
	H343	H	0.124994	-0.032241	-0.017629
	H344	H	0.112391	-0.032319	-0.017080
	O345	O	-0.302687	0.513400	1.689743
	H346	H	-0.294154	0.528234	1.714836
	H347	H	-0.321413	0.516099	1.686225
	O348	O	-0.213718	0.198813	-0.195381
	H349	H	-0.243652	0.232677	-0.226267
	H350	H	-0.201566	0.204309	-0.163216
	O351	O	1.303915	0.694554	-0.310485
	H352	H	1.287783	0.703377	-0.282825
	H353	H	1.303594	0.686591	-0.306665
	O354	O	0.043171	0.073793	1.164736
	H355	H	0.044772	0.080050	1.151060
	H356	H	0.044215	0.072088	1.156831
	O357	O	0.712036	0.274946	0.472770
	H358	H	0.733468	0.258834	0.456873
	H359	H	0.722528	0.289777	0.471104
	O360	O	-0.024567	-0.214015	1.160206
	H361	H	-0.038941	-0.218262	1.168756
	H362	H	-0.039202	-0.224823	1.181335
	O363	O	0.132583	-0.175196	-0.029320
	H364	H	0.131396	-0.176712	-0.036756
	H365	H	0.127964	-0.182469	-0.035393
	O366	O	0.529520	0.561264	0.577632
	H367	H	0.525317	0.561313	0.590219
	H368	H	0.540530	0.566996	0.576571
	O369	O	0.438193	0.323488	0.699553
	H370	H	0.462086	0.319797	0.694533
	H371	H	0.451623	0.313287	0.704384
	O372	O	0.822627	1.058020	0.122751
	H373	H	0.809305	1.044844	0.136701
	H374	H	0.832412	1.046618	0.117803
	O375	O	1.054984	0.070053	-0.238507
	H376	H	1.059627	0.086773	-0.236870
	H377	H	1.048364	0.078542	-0.239912
	O378	O	0.686130	0.696823	0.300997
	H379	H	0.672908	0.662595	0.307927
	H380	H	0.662131	0.691854	0.328902
	O381	O	-0.231594	0.968965	1.224743
	H382	H	-0.239320	0.935424	1.230956
	H383	H	-0.252707	0.951765	1.244111
	O384	O	0.959719	0.227403	0.775605
	H385	H	0.948563	0.226823	0.782408
	H386	H	0.950985	0.252680	0.752668
	O387	O	1.208496	1.041014	0.025615
	H388	H	1.205999	1.052646	0.026948
	H389	H	1.210941	1.038514	0.029354
	O390	O	0.788675	0.800180	0.207281
	H391	H	0.754222	0.764782	0.234246
	H392	H	0.781007	0.794154	0.152039
	O393	O	0.545683	0.448369	0.734279
	H394	H	0.538101	0.444800	0.718764
	H395	H	0.546283	0.454056	0.738836
	O396	O	0.111770	1.053287	1.005690
	H397	H	0.113227	1.057622	1.004636
	H398	H	0.120103	1.051606	0.996443
	O399	O	-0.231797	-0.013894	0.875963
	H400	H	-0.223820	0.003615	0.877386
	H401	H	-0.237890	0.002614	0.864694
	O402	O	0.279674	0.279174	0.721101
	H403	H	0.277807	0.305537	0.682908
	H404	H	0.325657	0.286277	0.721928
	O405	O	1.174102	0.186818	0.819514
	H406	H	1.161469	0.171945	0.831153
	H407	H	1.207578	0.216002	0.787316
	O408	O	-0.047496	0.069756	0.022934
	H409	H	-0.036996	0.061593	0.020176
	H410	H	-0.057558	0.079434	0.013267
	O411	O	0.829436	1.102451	1.005968
	H412	H	0.836487	1.109051	0.998132
	H413	H	0.824507	1.100107	1.005398
	O414	O	0.431736	0.508693	0.452021
	H415	H	0.433669	0.501019	0.446928
	H416	H	0.421506	0.510137	0.462192
	O417	O	0.513899	0.369650	0.618336
	H418	H	0.518206	0.358345	0.616658
	H419	H	0.507208	0.360073	0.605713
	O420	O	0.315300	0.274211	0.480238
	H421	H	0.330912	0.291966	0.482504
	H422	H	0.285872	0.253250	0.493866
	O423	O	-0.022384	-0.080671	1.218778
	H424	H	-0.027808	-0.073272	1.220270
	H425	H	-0.045303	-0.111037	1.234950
	O426	O	0.432724	0.550014	0.714194
	H427	H	0.432121	0.553909	0.711401
	H428	H	0.447424	0.573937	0.720257
	O429	O	0.996228	0.779559	0.818380
	H430	H	1.006293	0.753130	0.793519
	H431	H	1.031626	0.791911	0.828225
	O432	O	0.698308	0.285118	0.286058
	H433	H	0.706996	0.309049	0.310343
	H434	H	0.734417	0.255705	0.255137
	O435	O	0.269290	0.730498	0.464636
	H436	H	0.256397	0.733916	0.457451
	H437	H	0.256475	0.734103	0.465388
	O438	O	0.457465	-0.306635	0.299059
	H439	H	0.472563	-0.321413	0.297850
	H440	H	0.445115	-0.310908	0.298354
	O441	O	0.001829	0.218810	0.210127
	H442	H	-0.003727	0.234988	0.212374
	H443	H	-0.012817	0.195150	0.217513
	O444	O	0.275233	0.592953	0.544504
	H445	H	0.275266	0.604556	0.571754
	H446	H	0.281881	0.592821	0.553798
	O447	O	0.198450	0.973184	0.794659
	H448	H	0.200398	0.992521	0.795060
	H449	H	0.201860	0.989552	0.792332
	O450	O	-0.297950	0.720174	0.712534
	H451	H	-0.264262	0.749866	0.746105
	H452	H	-0.301240	0.702746	0.695125
	O453	O	0.292905	0.379616	0.587716
	H454	H	0.312094	0.395868	0.597408
	H455	H	0.282864	0.390614	0.556972
	O456	O	-0.198193	-0.185635	0.816186
	H457	H	-0.172867	-0.165611	0.829366
	H458	H	-0.186372	-0.168749	0.840594
	O459	O	0.854363	1.019153	-0.179170
	H460	H	0.856148	1.047993	-0.177133
	H461	H	0.839652	1.025375	-0.185073
	O462	O	0.521826	0.724801	0.727685
	H463	H	0.535605	0.734911	0.715887
	H464	H	0.539497	0.752513	0.749144
	O465	O	1.226583	-0.235203	0.229890
	H466	H	1.233606	-0.226430	0.251136
	H467	H	1.236816	-0.227622	0.231858
	O468	O	0.424151	0.439084	0.302487
	H469	H	0.409694	0.417532	0.306479
	H470	H	0.420597	0.428459	0.291012
	O471	O	0.616934	0.457254	0.307477
	H472	H	0.636452	0.455176	0.297311
	H473	H	0.624055	0.453954	0.315652
	O474	O	0.505246	0.721823	0.424257
	H475	H	0.495021	0.722626	0.440553
	H476	H	0.508065	0.725495	0.409274
	O477	O	0.513778	0.708518	1.530398
	H478	H	0.502090	0.709638	1.533558
	H479	H	0.510773	0.718314	1.539738
	O480	O	0.664305	0.499258	0.647361
	H481	H	0.651359	0.523031	0.633244
	H482	H	0.670880	0.514436	0.654093
	O483	O	0.542567	0.349146	0.510537
	H484	H	0.525985	0.347951	0.513899
	H485	H	0.542825	0.349156	0.487750
	O486	O	0.696455	0.298639	0.702285
	H487	H	0.682950	0.304444	0.676747
	H488	H	0.682616	0.329666	0.686834
	O489	O	1.218937	0.885006	0.031142
	H490	H	1.217173	0.859753	0.034235
	H491	H	1.218215	0.887698	0.044728
	O492	O	0.048526	0.241752	-0.066367
	H493	H	0.073053	0.243238	-0.070008
	H494	H	0.043623	0.238671	-0.080318
	O495	O	-0.050173	0.939370	0.793434
	H496	H	-0.040722	0.945157	0.785987
	H497	H	-0.065439	0.951329	0.786587
	O498	O	1.197422	1.211161	1.201581
	H499	H	1.190815	1.177567	1.195811
	H500	H	1.162876	1.223166	1.205562
	O501	O	0.273480	0.503294	0.722203
	H502	H	0.277879	0.483329	0.727562
	H503	H	0.277854	0.499001	0.746836
