data_Molecule from HDF5

_cell_length_a		16.412169
_cell_length_b		16.495648
_cell_length_c		16.408946
_cell_angle_alpha	90.039853
_cell_angle_beta	90.096035
_cell_angle_gamma	89.967221
_symmetry_space_group_name_H-M	'P 1'
_symmetry_Int_Tables_number		1

loop_
	_symmetry_equiv_pos_as_xyz
	x,y,z

loop_
	_atom_site_label
	_atom_site_type_symbol
	_atom_site_fract_x
	_atom_site_fract_y
	_atom_site_fract_z
	H0	H	0.396304	0.849560	0.722893
	H1	H	0.611434	0.162760	0.721779
	H2	H	0.613382	0.849018	0.273009
	H3	H	0.395161	0.160936	0.274025
	H4	H	0.731027	0.396895	0.842364
	H5	H	0.729562	0.615192	0.156162
	H6	H	0.280213	0.615034	0.841868
	H7	H	0.286790	0.402952	0.158093
	H8	H	0.848745	0.730539	0.389894
	H9	H	0.161202	0.731001	0.609423
	H10	H	0.847545	0.280749	0.609470
	H11	H	0.160094	0.280968	0.390056
	H12	H	0.848037	0.397133	0.724557
	H13	H	0.161959	0.613711	0.723122
	H14	H	0.847127	0.613210	0.276009
	H15	H	0.161658	0.398480	0.277720
	H16	H	0.395187	0.730781	0.842413
	H17	H	0.615201	0.732303	0.154881
	H18	H	0.614609	0.282639	0.841562
	H19	H	0.400797	0.284311	0.156158
	H20	H	0.729662	0.849299	0.389792
	H21	H	0.727417	0.163265	0.605587
	H22	H	0.279904	0.849043	0.606914
	H23	H	0.278805	0.161003	0.389956
	H24	H	0.899451	0.349283	0.222075
	H25	H	0.113482	0.662972	0.223470
	H26	H	0.111547	0.348612	0.776611
	H27	H	0.897307	0.663193	0.774883
	H28	H	0.226025	0.898616	0.341077
	H29	H	0.227123	0.113724	0.656365
	H30	H	0.781287	0.111930	0.340787
	H31	H	0.781655	0.898094	0.656103
	H32	H	0.348955	0.230332	0.890408
	H33	H	0.662934	0.229377	0.108864
	H34	H	0.347757	0.780265	0.107479
	H35	H	0.661295	0.780522	0.888994
	H36	H	0.346085	0.898258	0.221189
	H37	H	0.660881	0.114028	0.225427
	H38	H	0.348000	0.113799	0.776091
	H39	H	0.661768	0.897586	0.774823
	H40	H	0.893098	0.231261	0.343094
	H41	H	0.109992	0.228833	0.656984
	H42	H	0.114054	0.780132	0.343270
	H43	H	0.896367	0.781554	0.655907
	H44	H	0.227610	0.348150	0.893644
	H45	H	0.228522	0.663251	0.106372
	H46	H	0.781577	0.349248	0.107292
	H47	H	0.779129	0.662175	0.889225
	H48	H	0.413409	0.117407	0.584474
	H49	H	0.592597	0.894620	0.585222
	H50	H	0.588778	0.119286	0.400794
	H51	H	0.414307	0.894674	0.418195
	H52	H	0.591110	0.418220	0.110949
	H53	H	0.591582	0.594447	0.886268
	H54	H	0.417844	0.601814	0.114904
	H55	H	0.419209	0.416232	0.885113
	H56	H	0.116824	0.598126	0.420286
	H57	H	0.890951	0.595723	0.588828
	H58	H	0.119107	0.405544	0.581465
	H59	H	0.892886	0.418294	0.415537
	H60	H	0.110616	0.426675	0.579457
	H61	H	0.894624	0.594803	0.580476
	H62	H	0.113896	0.584730	0.412487
	H63	H	0.891776	0.422080	0.409767
	H64	H	0.410513	0.588611	0.112142
	H65	H	0.592633	0.589345	0.887670
	H66	H	0.594040	0.416001	0.112877
	H67	H	0.415571	0.416607	0.884542
	H68	H	0.582663	0.111328	0.419220
	H69	H	0.593696	0.893314	0.587757
	H70	H	0.415155	0.119238	0.590126
	H71	H	0.409766	0.889695	0.406783
	H72	H	0.914505	0.619010	0.084773
	H73	H	0.093847	0.394098	0.086267
	H74	H	0.089629	0.618650	0.906461
	H75	H	0.921111	0.396407	0.914604
	H76	H	0.086809	0.913501	0.611515
	H77	H	0.091054	0.094723	0.385931
	H78	H	0.917355	0.097701	0.613266
	H79	H	0.912750	0.919224	0.385157
	H80	H	0.615573	0.088997	0.915801
	H81	H	0.390795	0.093942	0.090037
	H82	H	0.615295	0.924700	0.089532
	H83	H	0.392728	0.915010	0.913845
	H84	H	0.618386	0.913531	0.086961
	H85	H	0.391498	0.099224	0.084268
	H86	H	0.620494	0.092280	0.903633
	H87	H	0.394546	0.922505	0.914446
	H88	H	0.912700	0.092665	0.613481
	H89	H	0.091353	0.092978	0.386349
	H90	H	0.096630	0.918010	0.614174
	H91	H	0.920700	0.920749	0.388655
	H92	H	0.089951	0.615679	0.916406
	H93	H	0.097385	0.392106	0.088344
	H94	H	0.918433	0.619084	0.090367
	H95	H	0.916517	0.395541	0.914035
	H96	H	0.419996	0.116590	0.586135
	H97	H	0.590490	0.893827	0.587212
	H98	H	0.602520	0.118718	0.416694
	H99	H	0.422144	0.894240	0.407943
	H100	H	0.594566	0.419408	0.110481
	H101	H	0.588216	0.591464	0.889233
	H102	H	0.425399	0.590657	0.107529
	H103	H	0.417443	0.419523	0.886389
	H104	H	0.121297	0.596769	0.405355
	H105	H	0.894108	0.587479	0.586324
	H106	H	0.119805	0.419626	0.599113
	H107	H	0.889171	0.415831	0.410183
	H108	H	0.920518	0.615776	0.084339
	H109	H	0.093741	0.393965	0.090618
	H110	H	0.098279	0.619803	0.911850
	H111	H	0.919416	0.395115	0.910483
	H112	H	0.088637	0.924053	0.609117
	H113	H	0.089062	0.093976	0.387110
	H114	H	0.918676	0.091927	0.609986
	H115	H	0.918732	0.913216	0.385084
	H116	H	0.620130	0.101069	0.913690
	H117	H	0.395452	0.092523	0.083639
	H118	H	0.612946	0.920593	0.078645
	H119	H	0.391491	0.919473	0.908178
	C120	C	0.382449	0.014402	0.620741
	C121	C	0.625725	0.997520	0.620122
	C122	C	0.625604	0.013343	0.377562
	C123	C	0.381910	0.996299	0.377177
	C124	C	0.627400	0.384334	0.007594
	C125	C	0.625904	0.626810	0.990727
	C126	C	0.383425	0.627635	0.007713
	C127	C	0.385021	0.385215	0.990084
	C128	C	0.013934	0.627509	0.378099
	C129	C	0.996078	0.627177	0.620531
	C130	C	0.012527	0.384147	0.620897
	C131	C	0.995295	0.385283	0.378501
	C132	C	0.884201	0.514565	0.120434
	C133	C	0.127585	0.497629	0.121597
	C134	C	0.126924	0.514430	0.877831
	C135	C	0.883790	0.498286	0.877802
	C136	C	0.124897	0.884664	0.507966
	C137	C	0.124559	0.127363	0.490434
	C138	C	0.882252	0.127597	0.507936
	C139	C	0.883551	0.884219	0.490437
	C140	C	0.514498	0.127554	0.877393
	C141	C	0.496441	0.128370	0.121067
	C142	C	0.512127	0.884884	0.119496
	C143	C	0.496152	0.884566	0.877622
	C144	C	0.379031	0.896606	0.682318
	C145	C	0.629385	0.115691	0.681490
	C146	C	0.630287	0.895948	0.314575
	C147	C	0.377624	0.113932	0.314786
	C148	C	0.690099	0.379846	0.889705
	C149	C	0.688981	0.632427	0.108659
	C150	C	0.320967	0.631984	0.889421
	C151	C	0.325752	0.383579	0.109944
	C152	C	0.895732	0.689802	0.372930
	C153	C	0.114081	0.690156	0.626174
	C154	C	0.894677	0.321781	0.626227
	C155	C	0.112916	0.322012	0.373651
	C156	C	0.894976	0.379985	0.683597
	C157	C	0.114490	0.631417	0.682839
	C158	C	0.894991	0.631245	0.316061
	C159	C	0.114089	0.381127	0.317690
	C160	C	0.378460	0.689886	0.889486
	C161	C	0.631719	0.690692	0.108155
	C162	C	0.632027	0.322815	0.889177
	C163	C	0.382543	0.324728	0.109076
	C164	C	0.688171	0.895901	0.372772
	C165	C	0.687308	0.115709	0.623690
	C166	C	0.320596	0.896537	0.624658
	C167	C	0.319616	0.113828	0.372574
	C168	C	0.880993	0.396513	0.181914
	C169	C	0.130929	0.615749	0.182983
	C170	C	0.129942	0.395692	0.817075
	C171	C	0.879276	0.615615	0.815063
	C172	C	0.186379	0.880662	0.389101
	C173	C	0.186396	0.131169	0.609037
	C174	C	0.821126	0.130306	0.388918
	C175	C	0.821999	0.880613	0.608882
	C176	C	0.396371	0.189598	0.873008
	C177	C	0.614947	0.189327	0.126022
	C178	C	0.394497	0.821859	0.124278
	C179	C	0.614196	0.821894	0.872534
	C180	C	0.393661	0.880527	0.181133
	C181	C	0.613851	0.131865	0.184474
	C182	C	0.395666	0.131454	0.816018
	C183	C	0.614198	0.879997	0.815334
	C184	C	0.876810	0.189944	0.389942
	C185	C	0.128187	0.188662	0.609188
	C186	C	0.130359	0.821651	0.389850
	C187	C	0.878908	0.822070	0.608321
	C188	C	0.187954	0.395804	0.875146
	C189	C	0.188482	0.615747	0.124728
	C190	C	0.822302	0.396793	0.124619
	C191	C	0.820558	0.615373	0.872347
	C192	C	0.408651	0.096343	0.594394
	C193	C	0.599665	0.915314	0.594377
	C194	C	0.598999	0.094999	0.404437
	C195	C	0.408011	0.914351	0.403260
	C196	C	0.600799	0.410379	0.090042
	C197	C	0.598767	0.599583	0.909038
	C198	C	0.410255	0.601372	0.089928
	C199	C	0.410176	0.410304	0.907042
	C200	C	0.095828	0.600899	0.405046
	C201	C	0.914533	0.600237	0.593108
	C202	C	0.095085	0.409893	0.594192
	C203	C	0.912881	0.411348	0.404350
	C204	C	0.910430	0.596664	0.093988
	C205	C	0.102131	0.415075	0.095680
	C206	C	0.100467	0.596370	0.903777
	C207	C	0.911309	0.416766	0.905118
	C208	C	0.098294	0.910956	0.590043
	C209	C	0.098163	0.101323	0.407997
	C210	C	0.908760	0.101463	0.590542
	C211	C	0.909906	0.910330	0.407809
	C212	C	0.597110	0.101502	0.903365
	C213	C	0.413958	0.102564	0.093852
	C214	C	0.594169	0.911992	0.092725
	C215	C	0.414364	0.911518	0.904598
	Zn216	Zn	0.504859	0.005803	0.749822
	Zn217	Zn	0.503727	0.005145	0.248793
	Zn218	Zn	0.754851	0.506429	-0.000631
	Zn219	Zn	0.255665	0.505998	-0.000581
	Zn220	Zn	0.004989	0.755537	0.499290
	Zn221	Zn	0.002818	0.256479	0.498841
	Zn222	Zn	0.005174	0.505673	0.748965
	Zn223	Zn	0.005665	0.506540	0.250057
	Zn224	Zn	0.504869	0.755740	-0.001478
	Zn225	Zn	0.506266	0.256005	-0.001470
	Zn226	Zn	0.754818	0.005588	0.498986
	Zn227	Zn	0.252970	0.005257	0.499218
	N228	N	0.416645	0.971052	0.680106
	N229	N	0.592001	0.041179	0.679563
	N230	N	0.592142	0.970137	0.317303
	N231	N	0.415609	0.039864	0.317414
	N232	N	0.687450	0.417295	0.964488
	N233	N	0.685307	0.593330	0.034836
	N234	N	0.323931	0.594094	0.963932
	N235	N	0.327180	0.420387	0.034850
	N236	N	0.970404	0.687611	0.410670
	N237	N	0.039455	0.687885	0.588238
	N238	N	0.968778	0.324461	0.587667
	N239	N	0.037991	0.324460	0.411060
	N240	N	0.969390	0.418007	0.680232
	N241	N	0.040324	0.592926	0.679512
	N242	N	0.969444	0.593090	0.319205
	N243	N	0.040044	0.419652	0.320478
	N244	N	0.416673	0.687281	0.963989
	N245	N	0.593173	0.687369	0.033696
	N246	N	0.593931	0.325357	0.963629
	N247	N	0.418284	0.325213	0.033435
	N248	N	0.685277	0.969843	0.411186
	N249	N	0.685121	0.041223	0.586270
	N250	N	0.322559	0.970854	0.587122
	N251	N	0.322088	0.039769	0.410693
	N252	N	0.918541	0.470847	0.179603
	N253	N	0.093904	0.541065	0.181361
	N254	N	0.093143	0.470571	0.818258
	N255	N	0.917849	0.541612	0.818480
	N256	N	0.183078	0.919108	0.463456
	N257	N	0.184417	0.093966	0.534127
	N258	N	0.824476	0.092277	0.463392
	N259	N	0.824784	0.918487	0.534468
	N260	N	0.471272	0.187497	0.910170
	N261	N	0.540570	0.187108	0.087253
	N262	N	0.469392	0.824303	0.086960
	N263	N	0.539690	0.824467	0.910574
	N264	N	0.467924	0.918982	0.178316
	N265	N	0.538879	0.094932	0.181753
	N266	N	0.470340	0.093598	0.818470
	N267	N	0.539836	0.918068	0.818358
	N268	N	0.913990	0.188340	0.465012
	N269	N	0.090590	0.186613	0.534305
	N270	N	0.092869	0.823966	0.464654
	N271	N	0.916626	0.824244	0.533629
	N272	N	0.186461	0.470807	0.911755
	N273	N	0.186334	0.541298	0.087292
	N274	N	0.824147	0.471464	0.087260
	N275	N	0.822986	0.541253	0.910381
	O276	O	0.308918	0.442493	0.457119
	H277	H	0.299034	0.444648	0.470911
	H278	H	0.306440	0.422136	0.453972
	O279	O	0.987102	0.207646	0.796877
	H280	H	0.995245	0.219664	0.783000
	H281	H	1.008750	0.184221	0.791563
	O282	O	0.481794	0.293983	0.709969
	H283	H	0.507371	0.295981	0.688620
	H284	H	0.490640	0.267188	0.730365
	O285	O	0.717333	0.480435	0.287071
	H286	H	0.718967	0.453681	0.282007
	H287	H	0.734140	0.491817	0.274545
	O288	O	1.017017	0.808907	0.203028
	H289	H	1.009324	0.815911	0.216079
	H290	H	1.028907	0.818330	0.220893
	O291	O	0.210937	0.209365	0.204526
	H292	H	0.179210	0.219182	0.200452
	H293	H	0.228731	0.232454	0.183050
	O294	O	0.131306	0.209353	0.982397
	H295	H	0.152978	0.194773	0.975976
	H296	H	0.141430	0.213316	0.975821
	O297	O	0.716884	0.719815	0.515812
	H298	H	0.735816	0.741888	0.519286
	H299	H	0.714670	0.697466	0.509887
	O300	O	0.715886	0.535531	0.625284
	H301	H	0.713366	0.561540	0.622476
	H302	H	0.733038	0.540408	0.654627
	O303	O	0.584899	0.461415	0.709266
	H304	H	0.575220	0.445988	0.706401
	H305	H	0.602634	0.466786	0.705667
	O306	O	0.419408	0.649675	0.521211
	H307	H	0.429746	0.633695	0.505233
	H308	H	0.433122	0.651259	0.514328
	O309	O	0.520473	0.520175	0.442302
	H310	H	0.517109	0.533329	0.436622
	H311	H	0.519337	0.515001	0.447170
	O312	O	-0.208931	1.217039	0.981033
	H313	H	-0.202512	1.242467	0.993835
	H314	H	-0.195803	1.244847	0.988429
	O315	O	0.723491	0.383738	0.528746
	H316	H	0.732682	0.392023	0.526303
	H317	H	0.717170	0.403346	0.523617
	O318	O	0.511433	0.292749	0.511802
	H319	H	0.518310	0.306123	0.509205
	H320	H	0.513747	0.298034	0.517084
	O321	O	0.121457	0.102074	-0.025187
	H322	H	0.132126	0.094443	-0.025232
	H323	H	0.111867	0.082967	-0.038731
	O324	O	0.523996	0.290618	0.291692
	H325	H	0.496484	0.279702	0.337251
	H326	H	0.525758	0.258424	0.262562
	O327	O	0.548658	0.706392	0.710649
	H328	H	0.542581	0.719238	0.695453
	H329	H	0.559621	0.716919	0.717336
	O330	O	-0.062447	1.057376	0.064296
	H331	H	-0.057544	1.047718	0.069235
	H332	H	-0.082541	1.069039	0.054855
	O333	O	0.472266	0.535188	0.305956
	H334	H	0.464695	0.529626	0.297455
	H335	H	0.457783	0.524095	0.304687
	O336	O	0.027360	0.207439	0.195124
	H337	H	0.029187	0.211766	0.217514
	H338	H	0.024523	0.190128	0.193644
	O339	O	0.148001	1.086280	0.857187
	H340	H	0.147564	1.053534	0.851387
	H341	H	0.163594	1.069375	0.856977
	O342	O	-0.180158	0.818640	1.121638
	H343	H	-0.189798	0.859565	1.130463
	H344	H	-0.164052	0.807327	1.127249
	O345	O	0.983391	0.793598	-0.113234
	H346	H	0.955158	0.788784	-0.105390
	H347	H	0.995927	0.782888	-0.123637
	O348	O	0.592512	0.591238	0.328218
	H349	H	0.617196	0.586787	0.323087
	H350	H	0.575505	0.575780	0.334956
	O351	O	0.218599	0.987760	0.785092
	H352	H	0.203638	0.940085	0.795286
	H353	H	0.252111	0.978943	0.754218
	O354	O	0.213536	1.029242	0.210161
	H355	H	0.239564	1.049150	0.236685
	H356	H	0.203956	1.061980	0.204479
	O357	O	-0.034116	0.214779	1.027020
	H358	H	-0.004780	0.209957	1.021394
	H359	H	-0.010407	0.210625	1.034620
	O360	O	0.450604	0.584690	0.722263
	H361	H	0.482344	0.586007	0.720307
	H362	H	0.452274	0.601186	0.725745
	O363	O	-0.031656	-0.013718	0.859124
	H364	H	-0.042215	-0.008659	0.867794
	H365	H	-0.023792	-0.004695	0.849877
	O366	O	0.474632	0.650745	0.572920
	H367	H	0.442196	0.646737	0.553722
	H368	H	0.487857	0.650790	0.551917
	O369	O	0.478603	0.705169	0.384717
	H370	H	0.491144	0.700674	0.376706
	H371	H	0.480035	0.704163	0.375471
	O372	O	1.062657	-0.008360	0.932241
	H373	H	1.080794	-0.016557	0.935262
	H374	H	1.049686	-0.011456	0.941941
	O375	O	0.533873	0.591435	0.442497
	H376	H	0.521553	0.594109	0.451231
	H377	H	0.525774	0.595337	0.427962
	O378	O	0.287196	0.480457	0.716527
	H379	H	0.307472	0.493984	0.726702
	H380	H	0.262438	0.485019	0.740407
	O381	O	1.197504	-0.198834	0.987287
	H382	H	1.189279	-0.214762	1.004618
	H383	H	1.187189	-0.201077	1.000933
	O384	O	0.687333	0.323558	0.318252
	H385	H	0.695197	0.333770	0.346938
	H386	H	0.637616	0.314011	0.307459
	O387	O	0.190232	-0.030930	1.074591
	H388	H	0.189950	-0.053867	1.080413
	H389	H	0.201064	-0.028788	1.108245
	O390	O	-0.174159	-0.200952	-0.030179
	H391	H	-0.162435	-0.187059	-0.007145
	H392	H	-0.190490	-0.229290	-0.009548
	O393	O	0.788400	1.021573	0.785555
	H394	H	0.772614	1.045661	0.767450
	H395	H	0.785221	1.054852	0.783439
	O396	O	1.047621	-0.211794	0.043150
	H397	H	1.038489	-0.201020	0.070355
	H398	H	1.019995	-0.210610	0.043417
	O399	O	0.824829	0.178546	0.819331
	H400	H	0.814843	0.190935	0.871405
	H401	H	0.877284	0.188828	0.813189
	O402	O	1.026752	0.963334	1.207836
	H403	H	1.026834	0.990652	1.214161
	H404	H	1.046552	0.979384	1.205627
	O405	O	0.788495	1.039811	0.108354
	H406	H	0.792435	1.073102	0.092240
	H407	H	0.785770	1.023256	0.082126
	O408	O	0.830289	-0.070116	0.206961
	H409	H	0.808825	-0.068391	0.224082
	H410	H	0.819734	-0.045494	0.182992
	O411	O	0.893266	1.035517	0.196832
	H412	H	0.884771	1.031948	0.195400
	H413	H	0.886345	1.028776	0.178286
	O414	O	0.298620	0.715892	0.482055
	H415	H	0.278098	0.728229	0.485412
	H416	H	0.304121	0.709230	0.477239
	O417	O	0.393154	0.517517	0.521352
	H418	H	0.392830	0.513041	0.529527
	H419	H	0.382950	0.530125	0.529170
	O420	O	0.191831	0.168416	0.028053
	H421	H	0.208554	0.165715	0.002699
	H422	H	0.214723	0.153829	0.032342
	O423	O	0.698268	0.615962	0.660857
	H424	H	0.683686	0.618166	0.663194
	H425	H	0.693337	0.611762	0.633847
	O426	O	0.657989	0.295811	0.509211
	H427	H	0.693320	0.293276	0.508147
	H428	H	0.659908	0.314571	0.522015
	O429	O	0.320849	0.321469	0.676928
	H430	H	0.325709	0.344478	0.695322
	H431	H	0.354712	0.330712	0.690344
	O432	O	0.392615	0.312218	0.398693
	H433	H	0.397244	0.337775	0.414564
	H434	H	0.385282	0.302920	0.430865
	O435	O	0.300648	0.519875	0.291135
	H436	H	0.279424	0.522433	0.280267
	H437	H	0.309082	0.524082	0.296313
	O438	O	-0.205180	-0.035243	-0.054296
	H439	H	-0.212027	-0.050265	-0.057994
	H440	H	-0.208632	-0.034850	-0.078548
	O441	O	1.003921	-0.132192	-0.212664
	H442	H	0.993131	-0.131082	-0.216562
	H443	H	0.982453	-0.136457	-0.231305
	O444	O	0.185439	0.829278	0.832651
	H445	H	0.152366	0.814194	0.843593
	H446	H	0.179633	0.816263	0.863606
	O447	O	0.327896	0.679348	0.322993
	H448	H	0.368138	0.676016	0.320067
	H449	H	0.315301	0.667169	0.346652
	O450	O	0.689564	0.587142	0.498219
	H451	H	0.689324	0.575742	0.469545
	H452	H	0.676132	0.565698	0.498892
	O453	O	0.283459	0.281366	0.519618
	H454	H	0.244220	0.242415	0.524529
	H455	H	0.296380	0.295777	0.573464
