data_Molecule from HDF5

_cell_length_a		16.548866
_cell_length_b		16.448314
_cell_length_c		16.460611
_cell_angle_alpha	90.155151
_cell_angle_beta	90.037136
_cell_angle_gamma	89.890634
_symmetry_space_group_name_H-M	'P 1'
_symmetry_Int_Tables_number		1

loop_
	_symmetry_equiv_pos_as_xyz
	x,y,z

loop_
	_atom_site_label
	_atom_site_type_symbol
	_atom_site_fract_x
	_atom_site_fract_y
	_atom_site_fract_z
	H0	H	0.395901	0.839749	0.716590
	H1	H	0.610260	0.153639	0.721630
	H2	H	0.605884	0.839126	0.275589
	H3	H	0.391925	0.152582	0.269066
	H4	H	0.728599	0.383521	0.840661
	H5	H	0.725010	0.604261	0.151003
	H6	H	0.279093	0.600366	0.838069
	H7	H	0.276137	0.386808	0.151671
	H8	H	0.845032	0.717243	0.391863
	H9	H	0.158173	0.720204	0.604105
	H10	H	0.845705	0.272641	0.604364
	H11	H	0.158197	0.270828	0.387464
	H12	H	0.845694	0.389821	0.719333
	H13	H	0.158516	0.603848	0.719633
	H14	H	0.845011	0.601149	0.275028
	H15	H	0.157692	0.386145	0.271090
	H16	H	0.396215	0.714726	0.836689
	H17	H	0.605598	0.717483	0.152336
	H18	H	0.608328	0.272154	0.838812
	H19	H	0.392089	0.271036	0.151989
	H20	H	0.722620	0.839715	0.391568
	H21	H	0.724997	0.154848	0.604334
	H22	H	0.277810	0.841546	0.602894
	H23	H	0.273331	0.151461	0.382186
	H24	H	0.894436	0.337110	0.218200
	H25	H	0.101514	0.654841	0.213655
	H26	H	0.109645	0.337859	0.771295
	H27	H	0.899901	0.655860	0.779340
	H28	H	0.222514	0.890765	0.339006
	H29	H	0.229017	0.108750	0.650512
	H30	H	0.779702	0.103652	0.338406
	H31	H	0.781999	0.894720	0.654964
	H32	H	0.345169	0.222157	0.885721
	H33	H	0.656590	0.223461	0.105518
	H34	H	0.344238	0.777091	0.098774
	H35	H	0.658689	0.775170	0.891499
	H36	H	0.346331	0.891234	0.217705
	H37	H	0.658284	0.105468	0.219433
	H38	H	0.345616	0.105686	0.770274
	H39	H	0.659785	0.893447	0.777125
	H40	H	0.895326	0.219287	0.338218
	H41	H	0.110184	0.220713	0.653330
	H42	H	0.103711	0.776917	0.337800
	H43	H	0.898302	0.778199	0.654681
	H44	H	0.225361	0.337784	0.887711
	H45	H	0.218795	0.654386	0.098850
	H46	H	0.778058	0.337850	0.102611
	H47	H	0.780953	0.653145	0.892155
	H48	H	0.415385	0.109811	0.584008
	H49	H	0.591593	0.886882	0.578645
	H50	H	0.585848	0.109405	0.407310
	H51	H	0.418226	0.890109	0.417258
	H52	H	0.590140	0.410840	0.106614
	H53	H	0.587964	0.580727	0.883207
	H54	H	0.413806	0.586268	0.108174
	H55	H	0.417684	0.409319	0.886076
	H56	H	0.116469	0.589186	0.406529
	H57	H	0.888194	0.587754	0.589772
	H58	H	0.112102	0.411518	0.584203
	H59	H	0.892238	0.416283	0.403809
	H60	H	0.113374	0.407467	0.583222
	H61	H	0.888682	0.590116	0.584693
	H62	H	0.113151	0.583457	0.408165
	H63	H	0.887505	0.402838	0.404826
	H64	H	0.409197	0.589914	0.110482
	H65	H	0.589072	0.588745	0.880839
	H66	H	0.587278	0.414368	0.104704
	H67	H	0.411635	0.406498	0.882809
	H68	H	0.593204	0.110324	0.411636
	H69	H	0.598538	0.882119	0.586813
	H70	H	0.418437	0.107985	0.580725
	H71	H	0.403576	0.881769	0.407835
	H72	H	0.917403	0.605671	0.083907
	H73	H	0.091878	0.381505	0.083600
	H74	H	0.093916	0.611315	0.902647
	H75	H	0.913106	0.383669	0.910972
	H76	H	0.088522	0.911950	0.607568
	H77	H	0.086827	0.085387	0.384469
	H78	H	0.910185	0.084027	0.609142
	H79	H	0.914092	0.908166	0.384150
	H80	H	0.611690	0.084707	0.910207
	H81	H	0.390896	0.086988	0.080970
	H82	H	0.616313	0.908891	0.091309
	H83	H	0.389267	0.907754	0.906314
	H84	H	0.616763	0.899175	0.083742
	H85	H	0.393798	0.080363	0.078213
	H86	H	0.610291	0.082128	0.910349
	H87	H	0.388053	0.906709	0.901804
	H88	H	0.915542	0.083502	0.606782
	H89	H	0.089735	0.081226	0.384790
	H90	H	0.088870	0.907253	0.609367
	H91	H	0.910179	0.903730	0.380705
	H92	H	0.084425	0.605810	0.906488
	H93	H	0.087580	0.382080	0.083939
	H94	H	0.908284	0.607235	0.079956
	H95	H	0.914191	0.382011	0.905401
	H96	H	0.413862	0.108819	0.579484
	H97	H	0.587287	0.884841	0.589286
	H98	H	0.592384	0.113286	0.403506
	H99	H	0.420075	0.884986	0.398904
	H100	H	0.585622	0.409972	0.105912
	H101	H	0.595759	0.583387	0.881131
	H102	H	0.408333	0.583770	0.109270
	H103	H	0.411960	0.413506	0.885114
	H104	H	0.115249	0.584616	0.402089
	H105	H	0.891243	0.584613	0.585092
	H106	H	0.111504	0.410306	0.579772
	H107	H	0.894304	0.408588	0.416140
	H108	H	0.910162	0.610076	0.089870
	H109	H	0.089267	0.383114	0.080809
	H110	H	0.094107	0.606513	0.913654
	H111	H	0.917816	0.384501	0.908061
	H112	H	0.092512	0.910319	0.609963
	H113	H	0.085087	0.081078	0.385986
	H114	H	0.913785	0.089124	0.608566
	H115	H	0.907298	0.909581	0.382320
	H116	H	0.611444	0.082873	0.907842
	H117	H	0.390995	0.080702	0.085252
	H118	H	0.612215	0.909656	0.079269
	H119	H	0.387660	0.903143	0.905382
	C120	C	0.381668	0.005756	0.615610
	C121	C	0.624414	0.989014	0.617873
	C122	C	0.622600	0.006308	0.375237
	C123	C	0.379859	0.988489	0.373263
	C124	C	0.622280	0.375223	0.003522
	C125	C	0.622678	0.617099	0.986035
	C126	C	0.378806	0.617879	0.004551
	C127	C	0.379907	0.375562	0.987632
	C128	C	0.011095	0.618002	0.374132
	C129	C	0.993440	0.619212	0.618718
	C130	C	0.009757	0.375557	0.616934
	C131	C	0.993837	0.374232	0.374092
	C132	C	0.879117	0.503526	0.117617
	C133	C	0.121290	0.486927	0.115358
	C134	C	0.124037	0.503824	0.874028
	C135	C	0.882167	0.487502	0.875518
	C136	C	0.122165	0.876637	0.504758
	C137	C	0.122518	0.117498	0.487820
	C138	C	0.880202	0.118736	0.504200
	C139	C	0.879680	0.875873	0.487578
	C140	C	0.508891	0.117703	0.874394
	C141	C	0.494176	0.117909	0.116606
	C142	C	0.510886	0.874414	0.116599
	C143	C	0.492738	0.874531	0.873230
	C144	C	0.378016	0.887404	0.676582
	C145	C	0.627708	0.106837	0.680594
	C146	C	0.624616	0.886685	0.315514
	C147	C	0.374596	0.105507	0.309832
	C148	C	0.686177	0.367882	0.886949
	C149	C	0.683551	0.621036	0.104381
	C150	C	0.318881	0.619054	0.885612
	C151	C	0.317156	0.369938	0.104888
	C152	C	0.892507	0.677733	0.372746
	C153	C	0.111130	0.679782	0.621702
	C154	C	0.892847	0.313613	0.621438
	C155	C	0.111094	0.311709	0.369832
	C156	C	0.892615	0.371956	0.679025
	C157	C	0.111197	0.621708	0.679389
	C158	C	0.892587	0.619956	0.314468
	C159	C	0.111124	0.369463	0.311968
	C160	C	0.377131	0.676400	0.885066
	C161	C	0.624209	0.677497	0.105043
	C162	C	0.626559	0.312191	0.886177
	C163	C	0.375052	0.312381	0.104991
	C164	C	0.682512	0.887046	0.373051
	C165	C	0.684736	0.107621	0.622164
	C166	C	0.318985	0.888344	0.620053
	C167	C	0.315582	0.105034	0.366549
	C168	C	0.876617	0.384708	0.178089
	C169	C	0.121412	0.606708	0.174702
	C170	C	0.126997	0.385088	0.812390
	C171	C	0.880718	0.607479	0.817911
	C172	C	0.182222	0.872868	0.386066
	C173	C	0.186705	0.124123	0.604397
	C174	C	0.819883	0.121527	0.385759
	C175	C	0.821387	0.875628	0.607132
	C176	C	0.392066	0.180786	0.868951
	C177	C	0.610132	0.181677	0.122040
	C178	C	0.392095	0.816005	0.117851
	C179	C	0.611502	0.815109	0.872606
	C180	C	0.392978	0.873162	0.176821
	C181	C	0.611086	0.122855	0.178887
	C182	C	0.392111	0.122584	0.811274
	C183	C	0.611763	0.873815	0.815452
	C184	C	0.877501	0.179319	0.385829
	C185	C	0.127436	0.180164	0.605633
	C186	C	0.123441	0.816222	0.385584
	C187	C	0.879424	0.817738	0.607107
	C188	C	0.184757	0.385016	0.870414
	C189	C	0.179561	0.606616	0.117391
	C190	C	0.818480	0.385113	0.120511
	C191	C	0.821661	0.606296	0.874215
	C192	C	0.408358	0.087533	0.588962
	C193	C	0.599610	0.906337	0.592249
	C194	C	0.597525	0.089338	0.400182
	C195	C	0.406446	0.906982	0.400453
	C196	C	0.595407	0.403559	0.084667
	C197	C	0.597909	0.591607	0.903413
	C198	C	0.403464	0.593650	0.087599
	C199	C	0.406251	0.402221	0.905985
	C200	C	0.093517	0.592953	0.398789
	C201	C	0.910807	0.594291	0.593624
	C202	C	0.091142	0.402275	0.590107
	C203	C	0.912588	0.401260	0.400785
	C204	C	0.904481	0.586202	0.092046
	C205	C	0.096711	0.403813	0.090141
	C206	C	0.098364	0.586357	0.900099
	C207	C	0.907712	0.404897	0.900756
	C208	C	0.097237	0.902490	0.587293
	C209	C	0.095059	0.090300	0.406302
	C210	C	0.905677	0.093069	0.586831
	C211	C	0.903608	0.900119	0.404106
	C212	C	0.590022	0.090919	0.901609
	C213	C	0.413024	0.090488	0.089276
	C214	C	0.593597	0.898846	0.091728
	C215	C	0.409928	0.898834	0.897455
	Zn216	Zn	0.502025	-0.002611	0.744684
	Zn217	Zn	0.502600	-0.003015	0.245845
	Zn218	Zn	0.751534	0.495135	-0.004879
	Zn219	Zn	0.251384	0.495565	-0.004208
	Zn220	Zn	0.002191	0.747202	0.496313
	Zn221	Zn	0.002470	0.246353	0.496060
	Zn222	Zn	0.002078	0.496494	0.746297
	Zn223	Zn	0.001543	0.494899	0.245183
	Zn224	Zn	0.501605	0.745490	-0.005676
	Zn225	Zn	0.500946	0.247040	-0.004357
	Zn226	Zn	0.751505	-0.001928	0.496008
	Zn227	Zn	0.251782	-0.002830	0.495289
	N228	N	0.416269	0.961351	0.673778
	N229	N	0.591002	0.032077	0.677963
	N230	N	0.588212	0.961887	0.316549
	N231	N	0.413932	0.032073	0.313831
	N232	N	0.683611	0.406365	0.960912
	N233	N	0.682763	0.584037	0.029423
	N234	N	0.319605	0.583751	0.961051
	N235	N	0.320198	0.408229	0.031034
	N236	N	0.967136	0.676550	0.409312
	N237	N	0.036773	0.678491	0.584804
	N238	N	0.966791	0.315820	0.583585
	N239	N	0.037266	0.314704	0.407909
	N240	N	0.966461	0.409719	0.676335
	N241	N	0.036834	0.584854	0.677680
	N242	N	0.967186	0.583189	0.315254
	N243	N	0.037144	0.407482	0.314248
	N244	N	0.413601	0.676014	0.960157
	N245	N	0.587014	0.674966	0.030572
	N246	N	0.587414	0.316720	0.959650
	N247	N	0.413532	0.315641	0.031132
	N248	N	0.681500	0.962499	0.409289
	N249	N	0.682671	0.033420	0.583642
	N250	N	0.321008	0.963085	0.582948
	N251	N	0.318694	0.031160	0.405303
	N252	N	0.913494	0.459533	0.176532
	N253	N	0.086090	0.531189	0.173777
	N254	N	0.090120	0.460075	0.814267
	N255	N	0.917453	0.532641	0.818705
	N256	N	0.181647	0.909450	0.461142
	N257	N	0.183741	0.085913	0.530043
	N258	N	0.821333	0.084761	0.460423
	N259	N	0.821366	0.910923	0.531575
	N260	N	0.465603	0.177918	0.907455
	N261	N	0.536336	0.178627	0.083960
	N262	N	0.466562	0.816759	0.081158
	N263	N	0.536212	0.814975	0.907158
	N264	N	0.468141	0.908705	0.176415
	N265	N	0.537840	0.083866	0.175583
	N266	N	0.465781	0.083960	0.814533
	N267	N	0.536729	0.909802	0.815421
	N268	N	0.914324	0.177763	0.460701
	N269	N	0.088247	0.176133	0.532070
	N270	N	0.087001	0.818307	0.460539
	N271	N	0.914885	0.817717	0.531697
	N272	N	0.182845	0.459762	0.907894
	N273	N	0.179798	0.531037	0.081547
	N274	N	0.819870	0.460002	0.083741
	N275	N	0.822059	0.530495	0.909113
	O276	O	0.717501	0.473220	0.274765
	H277	H	0.734469	0.453051	0.261038
	H278	H	0.725433	0.447823	0.277032
	O279	O	0.611257	0.419624	0.482854
	H280	H	0.611421	0.414964	0.483664
	H281	H	0.624822	0.406513	0.476757
	O282	O	0.969801	0.795324	0.182204
	H283	H	0.978085	0.792138	0.174032
	H284	H	0.984581	0.784978	0.175180
	O285	O	0.574685	0.515003	0.449324
	H286	H	0.594656	0.497145	0.447834
	H287	H	0.558907	0.509363	0.465525
	O288	O	-0.040250	0.185410	-0.020788
	H289	H	-0.039879	0.179809	-0.005320
	H290	H	-0.034672	0.186528	-0.035523
	O291	O	1.020173	0.923771	0.041909
	H292	H	1.021117	0.917019	0.042706
	H293	H	1.024918	0.909190	0.034052
	O294	O	-0.212158	1.184704	-0.009761
	H295	H	-0.200567	1.184977	0.012987
	H296	H	-0.231088	1.205213	-0.003145
	O297	O	0.423475	0.699389	0.378712
	H298	H	0.431561	0.694542	0.378692
	H299	H	0.433068	0.686360	0.374464
	O300	O	0.480875	0.426775	0.326334
	H301	H	0.483629	0.431720	0.327008
	H302	H	0.474427	0.420585	0.345956
	O303	O	0.287106	0.473769	0.706940
	H304	H	0.290246	0.482560	0.681359
	H305	H	0.266694	0.478146	0.736604
	O306	O	0.115867	0.903806	1.109363
	H307	H	0.128266	0.891166	1.114904
	H308	H	0.114433	0.921869	1.107616
	O309	O	0.704372	0.692198	0.695791
	H310	H	0.692685	0.713804	0.705672
	H311	H	0.692746	0.706672	0.679545
	O312	O	0.473166	0.661290	0.694582
	H313	H	0.473378	0.656881	0.679834
	H314	H	0.461323	0.684010	0.708765
	O315	O	-0.024731	0.145984	0.777810
	H316	H	-0.025711	0.163239	0.765214
	H317	H	-0.040875	0.143957	0.777276
	O318	O	-0.247990	0.677880	0.318917
	H319	H	-0.252600	0.683466	0.328165
	H320	H	-0.236872	0.677949	0.333230
	O321	O	0.394712	0.685083	0.618720
	H322	H	0.402165	0.668624	0.612689
	H323	H	0.389837	0.681519	0.595295
	O324	O	1.087953	0.206158	1.148161
	H325	H	1.086180	0.211708	1.167160
	H326	H	1.073508	0.192096	1.153875
	O327	O	1.318608	0.314689	0.670808
	H328	H	1.307529	0.348744	0.669828
	H329	H	1.369199	0.305800	0.681218
	O330	O	0.936669	0.136455	0.017561
	H331	H	0.937877	0.135124	0.010652
	H332	H	0.934163	0.141305	0.023732
	O333	O	1.033183	0.786305	1.024706
	H334	H	1.025683	0.790600	1.002768
	H335	H	1.046491	0.788778	1.013837
	O336	O	0.822376	0.175933	0.813411
	H337	H	0.822768	0.182532	0.843930
	H338	H	0.814744	0.135856	0.815310
	O339	O	0.404004	0.405528	0.401781
	H340	H	0.399235	0.421164	0.402418
	H341	H	0.397033	0.399093	0.414232
	O342	O	0.544900	0.712583	0.604660
	H343	H	0.538716	0.732561	0.633336
	H344	H	0.525787	0.703463	0.582732
	O345	O	0.026739	0.130164	0.161270
	H346	H	0.038442	0.113566	0.159616
	H347	H	0.020501	0.122857	0.148670
	O348	O	0.836192	-0.142837	0.966681
	H349	H	0.844463	-0.139641	0.966031
	H350	H	0.831954	-0.154398	0.985131
	O351	O	0.917727	0.925375	-0.035078
	H352	H	0.928736	0.929389	-0.042855
	H353	H	0.910539	0.926268	-0.031668
	O354	O	0.708704	0.360199	0.485816
	H355	H	0.720479	0.369283	0.508516
	H356	H	0.713404	0.371632	0.496319
	O357	O	1.087910	1.034625	0.951028
	H358	H	1.086078	1.041018	0.933482
	H359	H	1.109452	1.035130	0.943442
	O360	O	0.487815	0.290017	0.689881
	H361	H	0.508854	0.303582	0.682725
	H362	H	0.500540	0.269786	0.696081
	O363	O	0.528494	0.511620	0.653034
	H364	H	0.522372	0.519165	0.655261
	H365	H	0.534338	0.514370	0.656939
	O366	O	0.838696	0.029442	1.038511
	H367	H	0.840980	0.004852	1.057874
	H368	H	0.841201	0.033647	1.050695
	O369	O	0.281625	0.523920	0.273939
	H370	H	0.263880	0.524306	0.253676
	H371	H	0.274759	0.545710	0.281159
	O372	O	0.291190	0.446119	0.447932
	H373	H	0.293766	0.441633	0.444139
	H374	H	0.287169	0.429741	0.461514
	O375	O	0.068373	1.089597	0.808178
	H376	H	0.063543	1.105089	0.817468
	H377	H	0.040096	1.075893	0.794358
	O378	O	0.463677	0.271829	0.388472
	H379	H	0.463348	0.256780	0.359261
	H380	H	0.456442	0.272628	0.399166
	O381	O	1.132877	-0.103135	0.084994
	H382	H	1.123880	-0.077861	0.077538
	H383	H	1.118023	-0.110356	0.069340
	O384	O	0.069374	-0.003905	0.894818
	H385	H	0.078604	-0.007100	0.916997
	H386	H	0.081022	-0.007630	0.872066
	O387	O	-0.071155	0.977623	0.912556
	H388	H	-0.077192	0.951905	0.906026
	H389	H	-0.086676	0.976092	0.919876
	O390	O	0.157790	-0.170446	1.029375
	H391	H	0.160506	-0.161134	1.036778
	H392	H	0.174708	-0.170670	1.034218
	O393	O	0.797330	0.796385	0.124234
	H394	H	0.825738	0.796579	0.137940
	H395	H	0.777326	0.766700	0.144011
	O396	O	0.705148	0.399449	0.589893
	H397	H	0.703763	0.404900	0.606553
	H398	H	0.701502	0.384366	0.589769
	O399	O	0.446958	0.705943	0.389389
	H400	H	0.442862	0.717817	0.377319
	H401	H	0.454485	0.699387	0.384103
	O402	O	-0.208665	0.011362	0.844395
	H403	H	-0.209322	0.003198	0.866760
	H404	H	-0.235783	0.019917	0.834295
	O405	O	0.195341	0.137110	0.095487
	H406	H	0.194591	0.141283	0.075066
	H407	H	0.163301	0.143612	0.090035
	O408	O	0.477403	0.544626	0.596223
	H409	H	0.472241	0.534770	0.589480
	H410	H	0.472671	0.548025	0.586134
	O411	O	0.296252	0.298685	0.463372
	H412	H	0.283396	0.276442	0.480535
	H413	H	0.299957	0.296631	0.471027
	O414	O	0.371831	0.701493	0.294135
	H415	H	0.410440	0.711819	0.287311
	H416	H	0.367600	0.708948	0.278199
	O417	O	0.521509	0.344306	0.362729
	H418	H	0.517337	0.342346	0.353186
	H419	H	0.510345	0.359369	0.347844
	O420	O	0.713904	0.712705	0.527304
	H421	H	0.707136	0.718644	0.536613
	H422	H	0.734747	0.718484	0.518898
	O423	O	0.098870	0.787816	-0.174136
	H424	H	0.123357	0.806659	-0.173666
	H425	H	0.119536	0.763949	-0.175503
	O426	O	1.220271	1.105673	1.013085
	H427	H	1.237263	1.130068	0.996942
	H428	H	1.209501	1.114636	1.020613
	O429	O	0.359266	0.621700	0.472555
	H430	H	0.345205	0.613681	0.470981
	H431	H	0.349506	0.618745	0.459185
	O432	O	0.544454	0.668133	0.322587
	H433	H	0.547580	0.666513	0.329871
	H434	H	0.543476	0.652106	0.320177
	O435	O	0.205342	0.013157	0.198075
	H436	H	0.196620	0.027407	0.198883
	H437	H	0.217590	0.031940	0.206143
	O438	O	0.900997	-0.056745	-0.039663
	H439	H	0.909704	-0.027629	-0.021912
	H440	H	0.916933	-0.054072	-0.032748
	O441	O	0.556806	0.489903	0.580219
	H442	H	0.560531	0.471816	0.583231
	H443	H	0.562407	0.510943	0.583063
	O444	O	0.217949	0.974712	0.781615
	H445	H	0.225457	0.965597	0.763514
	H446	H	0.202658	0.993531	0.764454
	O447	O	0.281210	0.553162	0.555300
	H448	H	0.289038	0.556632	0.554280
	H449	H	0.279387	0.558785	0.541726
	O450	O	0.520737	0.498078	0.379621
	H451	H	0.499771	0.493971	0.393451
	H452	H	0.532346	0.487843	0.380225
	O453	O	0.723647	0.522616	0.716455
	H454	H	0.724463	0.551204	0.726678
	H455	H	0.738628	0.547870	0.734109
	O456	O	0.684520	0.307959	0.305662
	H457	H	0.668496	0.299967	0.330788
	H458	H	0.661915	0.308879	0.319161
	O459	O	0.628261	0.282045	0.526887
	H460	H	0.639590	0.268970	0.520186
	H461	H	0.629839	0.293981	0.529001
	O462	O	0.202840	0.836265	0.888025
	H463	H	0.214062	0.849636	0.904011
	H464	H	0.196458	0.844143	0.909956
	O465	O	0.785182	-0.030969	0.207570
	H466	H	0.781055	-0.039860	0.204013
	H467	H	0.766148	-0.041327	0.217752
