data_Molecule from HDF5

_cell_length_a		16.204207
_cell_length_b		16.286326
_cell_length_c		16.324614
_cell_angle_alpha	89.934460
_cell_angle_beta	89.818341
_cell_angle_gamma	90.048885
_symmetry_space_group_name_H-M	'P 1'
_symmetry_Int_Tables_number		1

loop_
	_symmetry_equiv_pos_as_xyz
	x,y,z

loop_
	_atom_site_label
	_atom_site_type_symbol
	_atom_site_fract_x
	_atom_site_fract_y
	_atom_site_fract_z
	H0	H	0.404777	0.832553	0.708772
	H1	H	0.603597	0.159667	0.707065
	H2	H	0.604932	0.832359	0.277789
	H3	H	0.406616	0.159055	0.279393
	H4	H	0.717222	0.399198	0.830008
	H5	H	0.717199	0.593274	0.156917
	H6	H	0.292064	0.591148	0.828212
	H7	H	0.290265	0.399145	0.156133
	H8	H	0.840070	0.710386	0.396748
	H9	H	0.169973	0.708755	0.590012
	H10	H	0.840483	0.281481	0.591915
	H11	H	0.169066	0.282415	0.394883
	H12	H	0.839765	0.397391	0.707049
	H13	H	0.168638	0.594080	0.707313
	H14	H	0.838984	0.595068	0.279966
	H15	H	0.168044	0.396839	0.277593
	H16	H	0.405515	0.710940	0.829772
	H17	H	0.603186	0.711670	0.156580
	H18	H	0.602153	0.281438	0.830475
	H19	H	0.403460	0.280339	0.156355
	H20	H	0.719201	0.832003	0.395993
	H21	H	0.717507	0.160059	0.589065
	H22	H	0.289757	0.832015	0.591824
	H23	H	0.291790	0.159441	0.396501
	H24	H	0.902837	0.332421	0.210760
	H25	H	0.102719	0.659482	0.206343
	H26	H	0.102393	0.331672	0.778798
	H27	H	0.905082	0.658462	0.777646
	H28	H	0.219568	0.899109	0.329956
	H29	H	0.219386	0.094118	0.656772
	H30	H	0.791191	0.093687	0.329188
	H31	H	0.788883	0.896966	0.656936
	H32	H	0.338856	0.209234	0.894496
	H33	H	0.668323	0.209334	0.089716
	H34	H	0.340431	0.780874	0.092680
	H35	H	0.668694	0.781819	0.894172
	H36	H	0.340509	0.895492	0.209497
	H37	H	0.668220	0.095177	0.206659
	H38	H	0.340185	0.094198	0.777877
	H39	H	0.668927	0.897331	0.778739
	H40	H	0.906789	0.210943	0.329592
	H41	H	0.103523	0.211222	0.656667
	H42	H	0.104998	0.782209	0.329859
	H43	H	0.904918	0.780116	0.656699
	H44	H	0.217783	0.331382	0.895380
	H45	H	0.217525	0.659229	0.088750
	H46	H	0.790286	0.330800	0.091166
	H47	H	0.790334	0.659463	0.895453
	H48	H	0.423039	0.109301	0.586825
	H49	H	0.599647	0.877635	0.591949
	H50	H	0.593969	0.111206	0.398518
	H51	H	0.411319	0.880834	0.409072
	H52	H	0.604578	0.395085	0.114153
	H53	H	0.603255	0.577461	0.879129
	H54	H	0.403476	0.587699	0.111080
	H55	H	0.408345	0.411484	0.878656
	H56	H	0.125672	0.590511	0.386218
	H57	H	0.885374	0.597991	0.585888
	H58	H	0.122557	0.401249	0.585250
	H59	H	0.889503	0.401510	0.406681
	H60	H	0.121004	0.404315	0.585708
	H61	H	0.891084	0.584332	0.578900
	H62	H	0.122722	0.599078	0.405445
	H63	H	0.887692	0.408828	0.399173
	H64	H	0.413900	0.583940	0.106306
	H65	H	0.584370	0.590997	0.880712
	H66	H	0.599108	0.411870	0.108128
	H67	H	0.421647	0.398556	0.878394
	H68	H	0.601176	0.112191	0.401609
	H69	H	0.590933	0.881590	0.586125
	H70	H	0.405726	0.110856	0.576030
	H71	H	0.405308	0.875564	0.395002
	H72	H	0.915109	0.609531	0.084318
	H73	H	0.094101	0.377782	0.092300
	H74	H	0.102314	0.612302	0.903616
	H75	H	0.907123	0.377349	0.898367
	H76	H	0.095958	0.899820	0.609399
	H77	H	0.093386	0.090119	0.378648
	H78	H	0.920239	0.093784	0.607448
	H79	H	0.928071	0.903587	0.382311
	H80	H	0.621074	0.086436	0.897463
	H81	H	0.387266	0.082574	0.090880
	H82	H	0.621303	0.899914	0.083406
	H83	H	0.387378	0.902139	0.901709
	H84	H	0.619030	0.907202	0.082277
	H85	H	0.384239	0.093502	0.087863
	H86	H	0.622154	0.092699	0.898620
	H87	H	0.387694	0.904621	0.900917
	H88	H	0.903049	0.095986	0.613306
	H89	H	0.100944	0.094305	0.375472
	H90	H	0.099937	0.902159	0.611052
	H91	H	0.906238	0.891387	0.372244
	H92	H	0.096824	0.613497	0.893185
	H93	H	0.092767	0.380612	0.082673
	H94	H	0.906097	0.612030	0.083212
	H95	H	0.914021	0.379748	0.897342
	H96	H	0.406605	0.116504	0.595102
	H97	H	0.601018	0.879526	0.581148
	H98	H	0.599656	0.114181	0.394712
	H99	H	0.420533	0.880458	0.396241
	H100	H	0.586349	0.398300	0.109395
	H101	H	0.604250	0.599123	0.872063
	H102	H	0.412648	0.595623	0.110218
	H103	H	0.403794	0.394564	0.872096
	H104	H	0.117037	0.578508	0.402509
	H105	H	0.886250	0.584251	0.595068
	H106	H	0.122773	0.403196	0.588717
	H107	H	0.884765	0.399001	0.397750
	H108	H	0.910743	0.612939	0.091698
	H109	H	0.101325	0.377803	0.085806
	H110	H	0.090739	0.609163	0.902327
	H111	H	0.911217	0.379727	0.903844
	H112	H	0.096499	0.904822	0.608679
	H113	H	0.100627	0.085360	0.377456
	H114	H	0.908879	0.079956	0.607537
	H115	H	0.904659	0.917302	0.379663
	H116	H	0.619181	0.088227	0.902841
	H117	H	0.389434	0.086635	0.080160
	H118	H	0.621946	0.904935	0.089276
	H119	H	0.386976	0.902976	0.898678
	C120	C	0.382989	0.004027	0.614846
	C121	C	0.625396	0.987825	0.614151
	C122	C	0.626701	0.004117	0.370415
	C123	C	0.383735	0.986977	0.371682
	C124	C	0.624920	0.373958	0.002357
	C125	C	0.625495	0.617376	0.985228
	C126	C	0.382387	0.617036	0.000748
	C127	C	0.382298	0.373335	0.984418
	C128	C	0.012682	0.618019	0.370960
	C129	C	0.996466	0.616947	0.614228
	C130	C	0.012986	0.374449	0.614659
	C131	C	0.996255	0.374765	0.372169
	C132	C	0.881614	0.503175	0.115561
	C133	C	0.124753	0.486969	0.114461
	C134	C	0.125598	0.503712	0.870972
	C135	C	0.882202	0.487052	0.871430
	C136	C	0.126286	0.874600	0.501776
	C137	C	0.126651	0.118290	0.485159
	C138	C	0.882774	0.118077	0.501184
	C139	C	0.883455	0.874755	0.485794
	C140	C	0.512236	0.117500	0.871349
	C141	C	0.495272	0.116721	0.114444
	C142	C	0.512561	0.874738	0.114370
	C143	C	0.495905	0.874614	0.871679
	C144	C	0.384791	0.881054	0.670495
	C145	C	0.623421	0.110791	0.669143
	C146	C	0.624866	0.880945	0.315748
	C147	C	0.386145	0.110321	0.316937
	C148	C	0.679503	0.377796	0.878784
	C149	C	0.679754	0.614473	0.108295
	C150	C	0.328650	0.612991	0.877474
	C151	C	0.327344	0.377057	0.107387
	C152	C	0.888926	0.672598	0.375357
	C153	C	0.120624	0.671345	0.611105
	C154	C	0.889085	0.319702	0.611910
	C155	C	0.119936	0.320194	0.374434
	C156	C	0.888838	0.377332	0.668973
	C157	C	0.119899	0.614449	0.669387
	C158	C	0.888542	0.615491	0.317208
	C159	C	0.119449	0.377323	0.316490
	C160	C	0.385043	0.672415	0.878195
	C161	C	0.623114	0.673100	0.108032
	C162	C	0.622565	0.319386	0.879094
	C163	C	0.383699	0.318326	0.107442
	C164	C	0.681628	0.880780	0.374458
	C165	C	0.679679	0.111351	0.610421
	C166	C	0.327884	0.880760	0.612144
	C167	C	0.329364	0.110625	0.375279
	C168	C	0.883070	0.380808	0.171888
	C169	C	0.122942	0.610439	0.168595
	C170	C	0.123173	0.380476	0.816349
	C171	C	0.884849	0.610022	0.816089
	C172	C	0.181581	0.878235	0.378608
	C173	C	0.181558	0.115048	0.608073
	C174	C	0.828718	0.114841	0.377941
	C175	C	0.827636	0.876819	0.608457
	C176	C	0.388313	0.172116	0.873948
	C177	C	0.619214	0.171725	0.110876
	C178	C	0.389162	0.819000	0.112736
	C179	C	0.619747	0.819637	0.873875
	C180	C	0.389363	0.875956	0.170724
	C181	C	0.619185	0.115104	0.168930
	C182	C	0.388783	0.114717	0.816268
	C183	C	0.619686	0.876986	0.816377
	C184	C	0.885877	0.173344	0.378367
	C185	C	0.124133	0.173268	0.607930
	C186	C	0.124971	0.819709	0.378773
	C187	C	0.885059	0.818635	0.608101
	C188	C	0.180361	0.380349	0.874338
	C189	C	0.179912	0.610239	0.110237
	C190	C	0.827000	0.380035	0.112643
	C191	C	0.827644	0.610270	0.874491
	C192	C	0.405323	0.089888	0.592674
	C193	C	0.603643	0.901686	0.592636
	C194	C	0.604698	0.090295	0.391899
	C195	C	0.405828	0.901058	0.393578
	C196	C	0.603147	0.395390	0.088233
	C197	C	0.603542	0.595798	0.899505
	C198	C	0.403782	0.595635	0.087041
	C199	C	0.404630	0.395083	0.898571
	C200	C	0.099346	0.595989	0.391920
	C201	C	0.909982	0.595523	0.592756
	C202	C	0.099639	0.396464	0.593008
	C203	C	0.909500	0.396755	0.394690
	C204	C	0.904049	0.589233	0.092965
	C205	C	0.102547	0.400855	0.093199
	C206	C	0.103027	0.589519	0.893063
	C207	C	0.904371	0.400992	0.893312
	C208	C	0.103890	0.895938	0.587686
	C209	C	0.104796	0.096291	0.399376
	C210	C	0.904275	0.096180	0.587251
	C211	C	0.906125	0.897503	0.400234
	C212	C	0.598575	0.095567	0.893147
	C213	C	0.409295	0.094102	0.092811
	C214	C	0.598683	0.897361	0.091661
	C215	C	0.409702	0.896731	0.893771
	Zn216	Zn	0.504431	-0.004379	0.743064
	Zn217	Zn	0.504440	-0.004603	0.242919
	Zn218	Zn	0.753630	0.495508	-0.006321
	Zn219	Zn	0.253440	0.495119	-0.007337
	Zn220	Zn	0.005061	0.745815	0.493023
	Zn221	Zn	0.004473	0.246680	0.493595
	Zn222	Zn	0.004471	0.495375	0.742655
	Zn223	Zn	0.003672	0.495760	0.243593
	Zn224	Zn	0.504244	0.746586	-0.007191
	Zn225	Zn	0.503447	0.245137	-0.006429
	Zn226	Zn	0.754199	-0.003893	0.493426
	Zn227	Zn	0.254723	-0.004233	0.493262
	N228	N	0.418287	0.958635	0.672158
	N229	N	0.590440	0.032959	0.671498
	N230	N	0.591844	0.958622	0.313098
	N231	N	0.419144	0.032595	0.314654
	N232	N	0.680868	0.411347	0.956226
	N233	N	0.681437	0.580862	0.031119
	N234	N	0.326681	0.579595	0.954893
	N235	N	0.326373	0.410611	0.030070
	N236	N	0.967088	0.674336	0.407819
	N237	N	0.042948	0.672810	0.577364
	N238	N	0.967105	0.318277	0.578659
	N239	N	0.042232	0.318800	0.408557
	N240	N	0.967010	0.410589	0.670802
	N241	N	0.041867	0.581213	0.671378
	N242	N	0.966571	0.582328	0.314463
	N243	N	0.041341	0.410547	0.315258
	N244	N	0.417774	0.674930	0.955961
	N245	N	0.589813	0.674897	0.030519
	N246	N	0.589527	0.316852	0.956748
	N247	N	0.417159	0.316001	0.029831
	N248	N	0.683054	0.958552	0.407652
	N249	N	0.680908	0.034015	0.576797
	N250	N	0.326784	0.958106	0.578029
	N251	N	0.327695	0.032943	0.408516
	N252	N	0.916316	0.458629	0.173739
	N253	N	0.089436	0.532879	0.171448
	N254	N	0.090013	0.458121	0.814202
	N255	N	0.918086	0.532300	0.814049
	N256	N	0.182540	0.911309	0.456000
	N257	N	0.183022	0.081499	0.530730
	N258	N	0.826558	0.081246	0.455394
	N259	N	0.826453	0.910938	0.531246
	N260	N	0.466098	0.173763	0.907614
	N261	N	0.541383	0.172975	0.077661
	N262	N	0.466734	0.818116	0.078184
	N263	N	0.541962	0.818112	0.907789
	N264	N	0.467168	0.910059	0.171571
	N265	N	0.541210	0.081359	0.171182
	N266	N	0.466724	0.081373	0.814600
	N267	N	0.541737	0.910588	0.815022
	N268	N	0.918612	0.175222	0.455932
	N269	N	0.090894	0.175539	0.530525
	N270	N	0.090978	0.817444	0.456259
	N271	N	0.919124	0.817333	0.530768
	N272	N	0.181861	0.457954	0.907664
	N273	N	0.181199	0.532473	0.077208
	N274	N	0.826028	0.457251	0.078533
	N275	N	0.826174	0.532844	0.908298
	O276	O	0.963767	-0.120473	1.020220
	H277	H	0.960823	-0.108948	1.016738
	H278	H	0.958687	-0.121880	1.017291
	O279	O	-0.018563	0.910473	1.069551
	H280	H	-0.019561	0.897398	1.075318
	H281	H	-0.016971	0.910216	1.068258
	O282	O	0.954054	0.915608	0.041656
	H283	H	0.961222	0.920408	0.043614
	H284	H	0.953199	0.911470	0.052073
	O285	O	-0.030018	0.882949	1.056897
	H286	H	-0.037234	0.876259	1.065849
	H287	H	-0.033788	0.878830	1.050075
