data_Molecule from HDF5

_cell_length_a		16.541581
_cell_length_b		16.388653
_cell_length_c		16.388754
_cell_angle_alpha	89.944063
_cell_angle_beta	89.925992
_cell_angle_gamma	89.945346
_symmetry_space_group_name_H-M	'P 1'
_symmetry_Int_Tables_number		1

loop_
	_symmetry_equiv_pos_as_xyz
	x,y,z

loop_
	_atom_site_label
	_atom_site_type_symbol
	_atom_site_fract_x
	_atom_site_fract_y
	_atom_site_fract_z
	H0	H	0.401736	0.846066	0.721066
	H1	H	0.611804	0.162521	0.721042
	H2	H	0.611652	0.845675	0.278062
	H3	H	0.402707	0.162802	0.276736
	H4	H	0.729753	0.397305	0.839901
	H5	H	0.730823	0.610053	0.154778
	H6	H	0.282050	0.611940	0.842268
	H7	H	0.281569	0.391872	0.155078
	H8	H	0.850402	0.725452	0.396186
	H9	H	0.164564	0.725392	0.603935
	H10	H	0.851778	0.278394	0.608029
	H11	H	0.163591	0.279084	0.389794
	H12	H	0.852171	0.395938	0.723669
	H13	H	0.164486	0.609428	0.720481
	H14	H	0.849713	0.609045	0.279284
	H15	H	0.162978	0.394925	0.273282
	H16	H	0.401008	0.724608	0.839501
	H17	H	0.613138	0.725474	0.155754
	H18	H	0.610447	0.284830	0.838330
	H19	H	0.403123	0.281936	0.157619
	H20	H	0.730558	0.848070	0.391966
	H21	H	0.729308	0.162409	0.607050
	H22	H	0.284509	0.846573	0.607218
	H23	H	0.285101	0.162268	0.391859
	H24	H	0.903489	0.344579	0.220029
	H25	H	0.110842	0.664501	0.217389
	H26	H	0.113641	0.345778	0.776848
	H27	H	0.901508	0.661406	0.776767
	H28	H	0.232021	0.895360	0.341181
	H29	H	0.229143	0.110549	0.656992
	H30	H	0.783517	0.113010	0.341091
	H31	H	0.786515	0.901019	0.657203
	H32	H	0.349890	0.225916	0.894390
	H33	H	0.665826	0.223648	0.102277
	H34	H	0.349983	0.780409	0.104456
	H35	H	0.664310	0.782004	0.890996
	H36	H	0.349948	0.896764	0.221129
	H37	H	0.664349	0.109271	0.220170
	H38	H	0.348635	0.109192	0.779027
	H39	H	0.663922	0.899726	0.776437
	H40	H	0.903514	0.224703	0.339332
	H41	H	0.111402	0.224018	0.657029
	H42	H	0.113321	0.782531	0.339769
	H43	H	0.905969	0.787371	0.658482
	H44	H	0.229232	0.345002	0.893706
	H45	H	0.230494	0.661454	0.105618
	H46	H	0.787181	0.343856	0.104513
	H47	H	0.784022	0.660124	0.890306
	H48	H	0.417726	0.118202	0.587060
	H49	H	0.595542	0.892559	0.582609
	H50	H	0.598539	0.120072	0.407962
	H51	H	0.420293	0.890776	0.409164
	H52	H	0.599196	0.415298	0.112235
	H53	H	0.594104	0.595231	0.884100
	H54	H	0.429990	0.587008	0.105702
	H55	H	0.416679	0.419677	0.886138
	H56	H	0.121115	0.593079	0.405268
	H57	H	0.894634	0.597211	0.585200
	H58	H	0.117410	0.418085	0.585215
	H59	H	0.897123	0.418823	0.410855
	H60	H	0.120552	0.414658	0.589095
	H61	H	0.895597	0.590247	0.588189
	H62	H	0.121985	0.596636	0.409883
	H63	H	0.894972	0.414134	0.408712
	H64	H	0.419211	0.600551	0.114245
	H65	H	0.601538	0.591046	0.883092
	H66	H	0.597198	0.413632	0.111953
	H67	H	0.423182	0.417493	0.888571
	H68	H	0.591547	0.117630	0.407654
	H69	H	0.600526	0.889907	0.587510
	H70	H	0.418504	0.117153	0.587198
	H71	H	0.419422	0.892015	0.412319
	H72	H	0.916707	0.616793	0.086783
	H73	H	0.091691	0.392473	0.086137
	H74	H	0.100431	0.616643	0.913906
	H75	H	0.914605	0.386886	0.906119
	H76	H	0.100429	0.912536	0.614058
	H77	H	0.102727	0.094131	0.382577
	H78	H	0.923478	0.086609	0.608200
	H79	H	0.917955	0.920378	0.386311
	H80	H	0.616243	0.089005	0.914843
	H81	H	0.392336	0.093220	0.095745
	H82	H	0.617474	0.916377	0.083806
	H83	H	0.393345	0.910990	0.911079
	H84	H	0.619329	0.917371	0.089752
	H85	H	0.393834	0.100848	0.083385
	H86	H	0.620853	0.089693	0.901512
	H87	H	0.396059	0.916704	0.912493
	H88	H	0.920783	0.099458	0.613755
	H89	H	0.095844	0.083228	0.388135
	H90	H	0.098197	0.920226	0.610316
	H91	H	0.921331	0.914527	0.385360
	H92	H	0.096174	0.618392	0.906806
	H93	H	0.098382	0.391107	0.084172
	H94	H	0.917991	0.616560	0.088387
	H95	H	0.927728	0.391768	0.908382
	H96	H	0.417951	0.117046	0.586465
	H97	H	0.593827	0.890927	0.589390
	H98	H	0.595724	0.117138	0.413929
	H99	H	0.417303	0.890619	0.410474
	H100	H	0.599515	0.413067	0.112603
	H101	H	0.594883	0.586986	0.886021
	H102	H	0.412438	0.582843	0.110925
	H103	H	0.418729	0.413001	0.884661
	H104	H	0.119157	0.591514	0.410730
	H105	H	0.892992	0.596230	0.592556
	H106	H	0.119478	0.412765	0.583895
	H107	H	0.896719	0.414149	0.413871
	H108	H	0.918579	0.616928	0.086612
	H109	H	0.095861	0.389415	0.090394
	H110	H	0.091494	0.615272	0.913316
	H111	H	0.917477	0.392437	0.919090
	H112	H	0.092459	0.913845	0.611070
	H113	H	0.089338	0.095279	0.386625
	H114	H	0.910708	0.089202	0.612757
	H115	H	0.915164	0.914885	0.383115
	H116	H	0.622289	0.101394	0.909974
	H117	H	0.398312	0.086403	0.083620
	H118	H	0.619628	0.911297	0.087004
	H119	H	0.393876	0.915483	0.906508
	C120	C	0.385808	0.012731	0.619952
	C121	C	0.628094	0.996120	0.619642
	C122	C	0.627893	0.013589	0.377572
	C123	C	0.385871	0.995529	0.377318
	C124	C	0.629608	0.382298	0.006895
	C125	C	0.629483	0.624359	0.988658
	C126	C	0.386832	0.623720	0.006417
	C127	C	0.386534	0.382904	0.990660
	C128	C	0.016456	0.625942	0.377335
	C129	C	0.998464	0.626408	0.620979
	C130	C	0.016106	0.381776	0.620223
	C131	C	0.999246	0.382228	0.377078
	C132	C	0.885823	0.511849	0.120201
	C133	C	0.128664	0.495486	0.120229
	C134	C	0.128738	0.512113	0.878324
	C135	C	0.886872	0.494620	0.877605
	C136	C	0.130039	0.882131	0.507310
	C137	C	0.128481	0.124464	0.490066
	C138	C	0.885610	0.125742	0.507444
	C139	C	0.886876	0.884908	0.490182
	C140	C	0.515450	0.125868	0.876937
	C141	C	0.499257	0.125434	0.119693
	C142	C	0.515235	0.881673	0.119970
	C143	C	0.498240	0.882153	0.876588
	C144	C	0.383348	0.893568	0.680700
	C145	C	0.630271	0.115028	0.680986
	C146	C	0.630665	0.893885	0.317552
	C147	C	0.383806	0.115195	0.316701
	C148	C	0.689626	0.379429	0.887320
	C149	C	0.690139	0.627916	0.107713
	C150	C	0.323889	0.628654	0.888577
	C151	C	0.324065	0.376957	0.108631
	C152	C	0.897713	0.685795	0.376361
	C153	C	0.117210	0.685695	0.622737
	C154	C	0.898823	0.319640	0.624930
	C155	C	0.116552	0.320182	0.372661
	C156	C	0.898859	0.377868	0.682991
	C157	C	0.117252	0.627666	0.680476
	C158	C	0.897232	0.627723	0.318555
	C159	C	0.116367	0.377944	0.314470
	C160	C	0.383291	0.684832	0.887359
	C161	C	0.631685	0.685429	0.107893
	C162	C	0.630181	0.323512	0.886756
	C163	C	0.384338	0.321885	0.109890
	C164	C	0.689595	0.894932	0.374195
	C165	C	0.688661	0.115075	0.623860
	C166	C	0.325127	0.893911	0.623896
	C167	C	0.325221	0.114796	0.373755
	C168	C	0.884823	0.392235	0.180346
	C169	C	0.130448	0.615711	0.179528
	C170	C	0.131927	0.393118	0.817137
	C171	C	0.883643	0.613645	0.816857
	C172	C	0.191342	0.878145	0.388712
	C173	C	0.188666	0.127750	0.609371
	C174	C	0.824279	0.130230	0.388588
	C175	C	0.827357	0.883000	0.609870
	C176	C	0.397156	0.186278	0.875451
	C177	C	0.617953	0.184973	0.121761
	C178	C	0.397324	0.820684	0.122657
	C179	C	0.617006	0.822076	0.873374
	C180	C	0.397202	0.878749	0.180781
	C181	C	0.617359	0.127524	0.180144
	C182	C	0.396468	0.127813	0.818143
	C183	C	0.616793	0.880703	0.816311
	C184	C	0.884269	0.185444	0.387397
	C185	C	0.130274	0.184611	0.609433
	C186	C	0.132079	0.821844	0.387882
	C187	C	0.886615	0.826456	0.610584
	C188	C	0.189319	0.392808	0.875256
	C189	C	0.190048	0.614257	0.123796
	C190	C	0.827024	0.391866	0.122489
	C191	C	0.825133	0.613060	0.873462
	C192	C	0.410878	0.095853	0.594293
	C193	C	0.603380	0.912994	0.593857
	C194	C	0.602480	0.096518	0.402564
	C195	C	0.411474	0.912748	0.403337
	C196	C	0.605573	0.406964	0.090479
	C197	C	0.604194	0.598493	0.905989
	C198	C	0.412873	0.597194	0.088799
	C199	C	0.412076	0.409278	0.908158
	C200	C	0.099206	0.600892	0.401618
	C201	C	0.915985	0.601689	0.595850
	C202	C	0.097888	0.407837	0.593653
	C203	C	0.917465	0.408337	0.403617
	C204	C	0.910500	0.595073	0.094613
	C205	C	0.102819	0.412718	0.094370
	C206	C	0.103281	0.595077	0.904126
	C207	C	0.912618	0.411854	0.903720
	C208	C	0.104562	0.908066	0.590263
	C209	C	0.103201	0.098490	0.407381
	C210	C	0.911034	0.099518	0.590112
	C211	C	0.911175	0.909486	0.406648
	C212	C	0.598232	0.100483	0.901601
	C213	C	0.416360	0.100789	0.094708
	C214	C	0.597415	0.907524	0.094212
	C215	C	0.416000	0.907288	0.902475
	Zn216	Zn	0.506302	0.004480	0.748352
	Zn217	Zn	0.507011	0.003887	0.248431
	Zn218	Zn	0.758314	0.502499	-0.002152
	Zn219	Zn	0.257316	0.503428	-0.000739
	Zn220	Zn	0.007325	0.755038	0.499006
	Zn221	Zn	0.007346	0.252909	0.498285
	Zn222	Zn	0.008038	0.503703	0.749206
	Zn223	Zn	0.007390	0.504487	0.248397
	Zn224	Zn	0.507300	0.753122	-0.002535
	Zn225	Zn	0.507877	0.254313	-0.001574
	Zn226	Zn	0.756975	0.005311	0.498856
	Zn227	Zn	0.257622	0.004241	0.498709
	N228	N	0.420378	0.968481	0.678402
	N229	N	0.593076	0.040112	0.678403
	N230	N	0.593037	0.968589	0.319485
	N231	N	0.420535	0.039989	0.318665
	N232	N	0.689489	0.415045	0.963081
	N233	N	0.689306	0.590857	0.032564
	N234	N	0.326149	0.591148	0.963525
	N235	N	0.325450	0.414335	0.033670
	N236	N	0.972804	0.685051	0.411901
	N237	N	0.042533	0.684786	0.586364
	N238	N	0.972744	0.321855	0.586840
	N239	N	0.042759	0.322952	0.411118
	N240	N	0.972759	0.415793	0.680033
	N241	N	0.042166	0.591730	0.679903
	N242	N	0.972155	0.591138	0.319042
	N243	N	0.042582	0.416083	0.317336
	N244	N	0.422043	0.681645	0.961422
	N245	N	0.594798	0.683371	0.032938
	N246	N	0.593719	0.325035	0.962203
	N247	N	0.422876	0.325626	0.035614
	N248	N	0.688239	0.970381	0.410722
	N249	N	0.687406	0.040068	0.586445
	N250	N	0.326578	0.969137	0.586932
	N251	N	0.326452	0.039526	0.410719
	N252	N	0.920528	0.468013	0.179154
	N253	N	0.093337	0.540626	0.177905
	N254	N	0.094948	0.468243	0.819011
	N255	N	0.921411	0.539051	0.819486
	N256	N	0.190327	0.914768	0.464133
	N257	N	0.187806	0.091087	0.534126
	N258	N	0.824751	0.094194	0.464361
	N259	N	0.827350	0.918597	0.534039
	N260	N	0.472323	0.185464	0.910970
	N261	N	0.543414	0.183690	0.084890
	N262	N	0.472060	0.822187	0.085707
	N263	N	0.542177	0.822641	0.909894
	N264	N	0.471531	0.916095	0.179116
	N265	N	0.542364	0.091475	0.179090
	N266	N	0.471224	0.091212	0.818879
	N267	N	0.541892	0.917052	0.818003
	N268	N	0.921483	0.182922	0.462332
	N269	N	0.093830	0.182882	0.534169
	N270	N	0.094666	0.824194	0.462756
	N271	N	0.923108	0.827765	0.535212
	N272	N	0.187506	0.467938	0.912411
	N273	N	0.189297	0.538421	0.087999
	N274	N	0.827164	0.467485	0.086291
	N275	N	0.827210	0.537951	0.910648
	O276	O	0.487551	0.412055	0.412820
	H277	H	0.499072	0.424115	0.409363
	H278	H	0.480759	0.412608	0.395523
	O279	O	0.916213	0.056550	0.820663
	H280	H	0.921830	0.040569	0.824735
	H281	H	0.915422	0.033005	0.820781
	O282	O	0.482472	0.302210	0.684561
	H283	H	0.462562	0.292661	0.699233
	H284	H	0.476518	0.307852	0.684239
	O285	O	0.712544	0.495247	0.514229
	H286	H	0.720280	0.483939	0.500835
	H287	H	0.707746	0.487463	0.487379
	O288	O	1.176568	0.802798	-0.006042
	H289	H	1.166897	0.794993	-0.006398
	H290	H	1.169866	0.804869	-0.007674
	O291	O	0.086762	0.183740	0.163843
	H292	H	0.072892	0.176862	0.178712
	H293	H	0.091653	0.187955	0.127637
	O294	O	0.224330	0.026665	1.213395
	H295	H	0.228745	0.046536	1.209138
	H296	H	0.244503	0.051324	1.232614
	O297	O	0.567773	0.615995	0.441386
	H298	H	0.582638	0.623040	0.457907
	H299	H	0.548329	0.616462	0.452265
	O300	O	0.289895	0.533874	0.303748
	H301	H	0.297575	0.560445	0.312950
	H302	H	0.270040	0.550382	0.295535
	O303	O	0.687681	0.692045	0.684162
	H304	H	0.664257	0.682533	0.693069
	H305	H	0.679037	0.694684	0.705226
	O306	O	0.712231	0.518322	0.699845
	H307	H	0.721107	0.521070	0.689943
	H308	H	0.733648	0.514204	0.703860
	O309	O	0.628852	0.320836	0.584044
	H310	H	0.614179	0.334534	0.586613
	H311	H	0.609692	0.326126	0.581484
	O312	O	-0.027217	0.795111	1.209855
	H313	H	-0.012978	0.825511	1.210699
	H314	H	-0.028878	0.768569	1.240486
	O315	O	0.440827	0.482571	0.537154
	H316	H	0.454203	0.476875	0.539132
	H317	H	0.445762	0.484347	0.524511
	O318	O	0.395327	0.444925	0.560460
	H319	H	0.395901	0.444098	0.562686
	H320	H	0.385068	0.454629	0.555069
	O321	O	-0.024006	-0.190795	-0.143257
	H322	H	-0.035347	-0.192092	-0.113993
	H323	H	-0.032869	-0.216826	-0.155647
	O324	O	0.726274	0.478778	0.281780
	H325	H	0.726807	0.443834	0.284463
	H326	H	0.748602	0.457482	0.259295
	O327	O	0.524759	0.631067	0.709959
	H328	H	0.532609	0.636446	0.723182
	H329	H	0.520489	0.616861	0.713853
	O330	O	0.102961	1.085228	-0.079225
	H331	H	0.115099	1.069394	-0.081466
	H332	H	0.113060	1.079103	-0.100994
	O333	O	0.556771	0.567985	0.682134
	H334	H	0.545668	0.563670	0.676123
	H335	H	0.562439	0.563064	0.679453
	O336	O	-0.193668	-0.023409	0.189902
	H337	H	-0.197425	-0.029147	0.187241
	H338	H	-0.186343	-0.013777	0.205337
	O339	O	0.000555	0.864492	1.007531
	H340	H	-0.002027	0.865049	1.015689
	H341	H	-0.006326	0.874128	1.014793
	O342	O	-0.174084	0.921759	0.903994
	H343	H	-0.189293	0.908625	0.927968
	H344	H	-0.158278	0.930464	0.908299
	O345	O	0.823471	1.188105	-0.189036
	H346	H	0.814838	1.175254	-0.188949
	H347	H	0.814445	1.177210	-0.165715
	O348	O	0.554204	0.584610	0.291389
	H349	H	0.561066	0.558287	0.291667
	H350	H	0.564917	0.568779	0.291325
	O351	O	0.209165	1.110580	0.993317
	H352	H	0.207556	1.104184	0.981320
	H353	H	0.208194	1.107415	0.983022
	O354	O	0.168888	0.843210	-0.084135
	H355	H	0.149510	0.836427	-0.100956
	H356	H	0.167893	0.847442	-0.061299
	O357	O	-0.023019	0.157165	1.086101
	H358	H	-0.020347	0.164149	1.077034
	H359	H	-0.024631	0.156676	1.068478
	O360	O	0.316608	0.676704	0.372070
	H361	H	0.329917	0.683767	0.398772
	H362	H	0.342652	0.694601	0.369883
	O363	O	0.014772	-0.081568	0.806742
	H364	H	0.024052	-0.079402	0.809901
	H365	H	0.008858	-0.097473	0.799975
	O366	O	0.698514	0.686545	0.339884
	H367	H	0.702250	0.689292	0.353207
	H368	H	0.685231	0.666176	0.353074
	O369	O	0.598202	0.672059	0.541681
	H370	H	0.602709	0.658936	0.547023
	H371	H	0.616405	0.692554	0.560057
	O372	O	1.018362	-0.033553	1.181077
	H373	H	1.020525	-0.031061	1.184118
	H374	H	1.042424	-0.017707	1.175733
	O375	O	0.523100	0.350066	0.520470
	H376	H	0.502369	0.344462	0.516175
	H377	H	0.509925	0.353052	0.521713
	O378	O	0.314010	0.310105	0.631672
	H379	H	0.304628	0.316087	0.637952
	H380	H	0.314137	0.303613	0.623900
	O381	O	1.092836	0.075921	0.878441
	H382	H	1.083087	0.075788	0.888612
	H383	H	1.089123	0.073048	0.885951
	O384	O	0.394142	0.431856	0.322569
	H385	H	0.386854	0.437702	0.305026
	H386	H	0.378368	0.459716	0.329462
	O387	O	-0.111063	0.164530	1.083216
	H388	H	-0.111321	0.164273	1.096680
	H389	H	-0.110530	0.170650	1.091087
	O390	O	0.063366	-0.070047	-0.203265
	H391	H	0.064049	-0.088061	-0.196344
	H392	H	0.072403	-0.064014	-0.213572
	O393	O	1.133417	0.962068	1.085768
	H394	H	1.134736	0.963919	1.102200
	H395	H	1.140149	0.970827	1.068356
	O396	O	0.870371	0.132922	0.123527
	H397	H	0.884332	0.145738	0.133261
	H398	H	0.862590	0.144155	0.122997
	O399	O	1.090972	0.045359	0.941295
	H400	H	1.099617	0.033896	0.932432
	H401	H	1.093490	0.057742	0.932690
	O402	O	0.792316	0.784566	1.021655
	H403	H	0.757932	0.751046	1.026316
	H404	H	0.799969	0.799260	1.071824
	O405	O	0.906167	0.996541	-0.044390
	H406	H	0.913359	0.986032	-0.054547
	H407	H	0.900940	1.009345	-0.047146
	O408	O	0.810572	-0.186916	0.190480
	H409	H	0.836950	-0.171122	0.199221
	H410	H	0.802174	-0.188975	0.206647
	O411	O	0.725446	1.293374	0.470312
	H412	H	0.707702	1.284628	0.489296
	H413	H	0.741206	1.269183	0.479526
	O414	O	0.376766	0.647026	0.562272
	H415	H	0.392432	0.651378	0.550526
	H416	H	0.372014	0.652717	0.568210
	O417	O	0.379475	0.673560	0.473334
	H418	H	0.374543	0.688742	0.458806
	H419	H	0.396206	0.679107	0.481503
	O420	O	-0.067540	0.135732	-0.084874
	H421	H	-0.085759	0.150908	-0.080670
	H422	H	-0.067609	0.134414	-0.095309
	O423	O	0.400625	0.369139	0.354032
	H424	H	0.377961	0.372523	0.363328
	H425	H	0.402960	0.369999	0.355159
	O426	O	0.687494	0.320130	0.314544
	H427	H	0.701782	0.309461	0.365849
	H428	H	0.637571	0.309793	0.305018
	O429	O	0.297607	0.381583	0.500427
	H430	H	0.279507	0.390402	0.479739
	H431	H	0.290676	0.383547	0.498648
	O432	O	0.425724	0.581795	0.684018
	H433	H	0.452941	0.582899	0.687793
	H434	H	0.437257	0.578171	0.656917
	O435	O	0.530886	0.670428	0.465083
	H436	H	0.542292	0.671803	0.461809
	H437	H	0.535266	0.662072	0.456081
	O438	O	-0.007214	0.208777	-0.184787
	H439	H	-0.034269	0.207147	-0.191915
	H440	H	-0.008544	0.208883	-0.206030
	O441	O	1.171075	0.190670	0.103689
	H442	H	1.158582	0.184097	0.090027
	H443	H	1.173488	0.209331	0.098722
	O444	O	0.081627	0.896793	0.893383
	H445	H	0.086730	0.876859	0.882198
	H446	H	0.061566	0.894264	0.911597
	O447	O	0.503280	0.704832	0.320143
	H448	H	0.519557	0.704775	0.305648
	H449	H	0.526917	0.701718	0.309718
	O450	O	0.300424	0.453580	0.704853
	H451	H	0.303964	0.474057	0.713842
	H452	H	0.286423	0.443112	0.715740
	O453	O	0.531993	0.339443	0.294723
	H454	H	0.513044	0.329045	0.299583
	H455	H	0.511705	0.341766	0.286822
