data_Molecule from HDF5

_cell_length_a		16.351629
_cell_length_b		16.240759
_cell_length_c		16.343430
_cell_angle_alpha	89.816269
_cell_angle_beta	90.011250
_cell_angle_gamma	90.154492
_symmetry_space_group_name_H-M	'P 1'
_symmetry_Int_Tables_number		1

loop_
	_symmetry_equiv_pos_as_xyz
	x,y,z

loop_
	_atom_site_label
	_atom_site_type_symbol
	_atom_site_fract_x
	_atom_site_fract_y
	_atom_site_fract_z
	H0	H	0.409888	0.819266	0.718083
	H1	H	0.614490	0.143997	0.718192
	H2	H	0.611988	0.818988	0.285381
	H3	H	0.410612	0.145174	0.282287
	H4	H	0.727816	0.378397	0.840670
	H5	H	0.729176	0.582937	0.163051
	H6	H	0.291673	0.584561	0.840000
	H7	H	0.291936	0.378051	0.164056
	H8	H	0.847761	0.698161	0.401445
	H9	H	0.172376	0.700309	0.599469
	H10	H	0.849692	0.264246	0.602332
	H11	H	0.173043	0.267174	0.400247
	H12	H	0.849402	0.380988	0.718734
	H13	H	0.171824	0.587267	0.719335
	H14	H	0.848843	0.585049	0.283539
	H15	H	0.171626	0.381285	0.283405
	H16	H	0.410127	0.697888	0.839014
	H17	H	0.610716	0.696983	0.164070
	H18	H	0.610335	0.266413	0.840100
	H19	H	0.410067	0.262958	0.162894
	H20	H	0.726963	0.819267	0.401892
	H21	H	0.728313	0.144796	0.600525
	H22	H	0.293192	0.820371	0.603422
	H23	H	0.294974	0.145290	0.397871
	H24	H	0.905602	0.320319	0.222036
	H25	H	0.110529	0.645292	0.216938
	H26	H	0.115452	0.322533	0.780586
	H27	H	0.907704	0.645289	0.783376
	H28	H	0.232597	0.878789	0.340881
	H29	H	0.233216	0.087754	0.661563
	H30	H	0.793950	0.086331	0.339590
	H31	H	0.793156	0.878919	0.661147
	H32	H	0.349540	0.199567	0.898133
	H33	H	0.673414	0.199108	0.101381
	H34	H	0.349882	0.763190	0.103991
	H35	H	0.672375	0.763816	0.899795
	H36	H	0.351302	0.876610	0.221886
	H37	H	0.672978	0.083850	0.217480
	H38	H	0.350492	0.084449	0.781439
	H39	H	0.673275	0.880671	0.784432
	H40	H	0.911894	0.199910	0.339164
	H41	H	0.116139	0.202329	0.661689
	H42	H	0.111839	0.766393	0.338163
	H43	H	0.910116	0.765969	0.662037
	H44	H	0.226790	0.320057	0.899325
	H45	H	0.228551	0.643047	0.104712
	H46	H	0.793246	0.318546	0.103108
	H47	H	0.790385	0.642764	0.897070
	H48	H	0.420103	0.099142	0.591719
	H49	H	0.602171	0.864691	0.597145
	H50	H	0.607994	0.098368	0.413076
	H51	H	0.425259	0.868837	0.410451
	H52	H	0.601826	0.398482	0.114629
	H53	H	0.602533	0.574115	0.886718
	H54	H	0.407591	0.569551	0.118621
	H55	H	0.419228	0.387867	0.886392
	H56	H	0.126938	0.574008	0.404336
	H57	H	0.895693	0.578615	0.586862
	H58	H	0.129469	0.390267	0.600606
	H59	H	0.894978	0.388957	0.410978
	H60	H	0.124570	0.387914	0.583766
	H61	H	0.898100	0.566904	0.592723
	H62	H	0.125561	0.579632	0.411623
	H63	H	0.896519	0.393092	0.413082
	H64	H	0.425569	0.563425	0.111344
	H65	H	0.601795	0.570974	0.886877
	H66	H	0.595052	0.386203	0.116548
	H67	H	0.413902	0.392786	0.886522
	H68	H	0.604840	0.100235	0.403654
	H69	H	0.599623	0.868176	0.590657
	H70	H	0.425234	0.097140	0.593162
	H71	H	0.420421	0.868709	0.415521
	H72	H	0.918898	0.596645	0.090488
	H73	H	0.100846	0.365725	0.093909
	H74	H	0.102230	0.597305	0.915244
	H75	H	0.927693	0.369305	0.909326
	H76	H	0.098495	0.883838	0.616955
	H77	H	0.107972	0.078771	0.383251
	H78	H	0.920204	0.068036	0.614344
	H79	H	0.919273	0.890178	0.384442
	H80	H	0.625370	0.074157	0.911915
	H81	H	0.396943	0.077349	0.087117
	H82	H	0.623986	0.894246	0.088451
	H83	H	0.396754	0.894382	0.907536
	H84	H	0.627167	0.893066	0.099102
	H85	H	0.398904	0.065019	0.090344
	H86	H	0.624838	0.071622	0.910306
	H87	H	0.395440	0.888622	0.908134
	H88	H	0.923214	0.075827	0.615668
	H89	H	0.104308	0.065158	0.389032
	H90	H	0.111474	0.894795	0.616481
	H91	H	0.917134	0.892408	0.384638
	H92	H	0.103075	0.599432	0.908195
	H93	H	0.098859	0.366556	0.094579
	H94	H	0.918029	0.598263	0.093097
	H95	H	0.916694	0.368359	0.918313
	H96	H	0.423210	0.096139	0.588203
	H97	H	0.606827	0.865357	0.590371
	H98	H	0.598433	0.096609	0.409395
	H99	H	0.418926	0.865746	0.409119
	H100	H	0.608806	0.387479	0.119993
	H101	H	0.599886	0.573489	0.887073
	H102	H	0.424086	0.582846	0.117837
	H103	H	0.420120	0.395601	0.888431
	H104	H	0.123084	0.570147	0.412203
	H105	H	0.892090	0.577325	0.599537
	H106	H	0.122064	0.403524	0.592041
	H107	H	0.895941	0.393343	0.408590
	H108	H	0.920899	0.596814	0.092747
	H109	H	0.100030	0.365947	0.092608
	H110	H	0.096609	0.596476	0.910752
	H111	H	0.915178	0.363584	0.905310
	H112	H	0.095740	0.899546	0.610711
	H113	H	0.094315	0.075852	0.389350
	H114	H	0.915258	0.074652	0.617434
	H115	H	0.919631	0.893222	0.385754
	H116	H	0.626586	0.074070	0.909226
	H117	H	0.394013	0.073286	0.099281
	H118	H	0.627992	0.883627	0.092502
	H119	H	0.397971	0.892097	0.912910
	C120	C	0.391217	-0.009394	0.621986
	C121	C	0.633372	0.973301	0.622547
	C122	C	0.633109	-0.009224	0.379487
	C123	C	0.390810	0.974530	0.379721
	C124	C	0.631460	0.360956	0.010195
	C125	C	0.632076	0.602950	0.993438
	C126	C	0.388271	0.603206	0.009648
	C127	C	0.387795	0.360379	0.993571
	C128	C	0.018401	0.604647	0.379370
	C129	C	1.002031	0.605274	0.622634
	C130	C	0.019360	0.361746	0.623263
	C131	C	1.002411	0.361753	0.380213
	C132	C	0.888847	0.489926	0.122934
	C133	C	0.130817	0.473269	0.123456
	C134	C	0.131556	0.490975	0.880110
	C135	C	0.889022	0.473936	0.880085
	C136	C	0.132658	0.861380	0.508696
	C137	C	0.134011	0.104728	0.493011
	C138	C	0.889926	0.103793	0.509121
	C139	C	0.888720	0.861201	0.491513
	C140	C	0.519532	0.103797	0.879151
	C141	C	0.503354	0.102581	0.121840
	C142	C	0.519823	0.859472	0.123805
	C143	C	0.503032	0.860825	0.879709
	C144	C	0.390508	0.868292	0.679489
	C145	C	0.633226	0.095507	0.679337
	C146	C	0.631640	0.867915	0.323602
	C147	C	0.391040	0.096565	0.321111
	C148	C	0.688657	0.360304	0.888808
	C149	C	0.689863	0.602197	0.114774
	C150	C	0.330502	0.603832	0.888424
	C151	C	0.330638	0.359252	0.115242
	C152	C	0.896550	0.660817	0.380686
	C153	C	0.123918	0.662298	0.620477
	C154	C	0.898079	0.303258	0.622571
	C155	C	0.124302	0.305237	0.380538
	C156	C	0.897947	0.361296	0.680402
	C157	C	0.123494	0.606033	0.680036
	C158	C	0.897066	0.604101	0.322452
	C159	C	0.123576	0.361994	0.322457
	C160	C	0.389390	0.660640	0.887940
	C161	C	0.630917	0.659093	0.115517
	C162	C	0.630226	0.304573	0.888419
	C163	C	0.389288	0.302045	0.114894
	C164	C	0.689029	0.868105	0.381283
	C165	C	0.689891	0.096093	0.620887
	C166	C	0.332313	0.868760	0.622516
	C167	C	0.333468	0.096689	0.378785
	C168	C	0.887514	0.368516	0.182203
	C169	C	0.130612	0.595981	0.179558
	C170	C	0.132931	0.370167	0.820753
	C171	C	0.888516	0.596114	0.822283
	C172	C	0.191685	0.860634	0.388116
	C173	C	0.193453	0.106210	0.613401
	C174	C	0.832713	0.104881	0.387945
	C175	C	0.831866	0.860556	0.613080
	C176	C	0.398276	0.161399	0.878490
	C177	C	0.624855	0.160384	0.121052
	C178	C	0.398474	0.801644	0.123530
	C179	C	0.624285	0.802942	0.880294
	C180	C	0.398956	0.858324	0.181977
	C181	C	0.624796	0.103069	0.179066
	C182	C	0.398657	0.103938	0.820330
	C183	C	0.624711	0.860781	0.822768
	C184	C	0.891639	0.161408	0.387603
	C185	C	0.135105	0.163230	0.613550
	C186	C	0.131891	0.804520	0.387005
	C187	C	0.889837	0.804042	0.613409
	C188	C	0.188314	0.368949	0.880217
	C189	C	0.189315	0.594904	0.123702
	C190	C	0.831345	0.367544	0.123136
	C191	C	0.829975	0.594988	0.878740
	C192	C	0.415685	0.075465	0.597951
	C193	C	0.609840	0.888057	0.599433
	C194	C	0.610387	0.076147	0.402117
	C195	C	0.414632	0.889897	0.404373
	C196	C	0.608465	0.383943	0.094957
	C197	C	0.608349	0.579587	0.908905
	C198	C	0.412143	0.578762	0.093999
	C199	C	0.410939	0.384907	0.909095
	C200	C	0.103272	0.581416	0.402562
	C201	C	0.917253	0.581249	0.599808
	C202	C	0.103494	0.386405	0.599177
	C203	C	0.917774	0.385060	0.403955
	C204	C	0.912428	0.575164	0.098990
	C205	C	0.107065	0.388186	0.100263
	C206	C	0.107533	0.575680	0.904408
	C207	C	0.913012	0.389212	0.904055
	C208	C	0.108842	0.885854	0.592877
	C209	C	0.109372	0.080337	0.409112
	C210	C	0.913029	0.079579	0.593956
	C211	C	0.911981	0.885066	0.406832
	C212	C	0.603634	0.080311	0.903461
	C213	C	0.418497	0.078816	0.098778
	C214	C	0.604416	0.883481	0.100288
	C215	C	0.418740	0.884558	0.902836
	Zn216	Zn	0.511929	-0.018395	0.750482
	Zn217	Zn	0.511798	-0.017916	0.250913
	Zn218	Zn	0.760814	0.480652	0.001379
	Zn219	Zn	0.258762	0.481771	0.002199
	Zn220	Zn	0.009462	0.733442	0.499793
	Zn221	Zn	0.011360	0.232961	0.501145
	Zn222	Zn	0.010750	0.483537	0.752210
	Zn223	Zn	0.009822	0.482662	0.251601
	Zn224	Zn	0.510549	0.732085	0.001322
	Zn225	Zn	0.510753	0.232309	0.001348
	Zn226	Zn	0.761139	-0.017495	0.500593
	Zn227	Zn	0.262525	-0.016919	0.501331
	N228	N	0.426173	0.944974	0.679232
	N229	N	0.599011	0.018144	0.680507
	N230	N	0.597636	0.945270	0.322230
	N231	N	0.425752	0.019437	0.321256
	N232	N	0.689568	0.394454	0.965549
	N233	N	0.690899	0.568394	0.037626
	N234	N	0.329355	0.569268	0.965274
	N235	N	0.329410	0.394442	0.038596
	N236	N	0.973121	0.661142	0.415456
	N237	N	0.047375	0.662014	0.585594
	N238	N	0.974735	0.303111	0.588046
	N239	N	0.047896	0.304847	0.415765
	N240	N	0.974418	0.396631	0.681074
	N241	N	0.046728	0.571137	0.681386
	N242	N	0.973845	0.569858	0.321648
	N243	N	0.046919	0.396467	0.322364
	N244	N	0.424734	0.660243	0.964374
	N245	N	0.595865	0.659890	0.039068
	N246	N	0.595208	0.304784	0.964925
	N247	N	0.423733	0.302161	0.038211
	N248	N	0.690174	0.945521	0.414923
	N249	N	0.690188	0.018991	0.586355
	N250	N	0.332700	0.945942	0.587502
	N251	N	0.333137	0.019866	0.414319
	N252	N	0.922518	0.445692	0.182115
	N253	N	0.094959	0.519323	0.179687
	N254	N	0.098298	0.447128	0.820624
	N255	N	0.924402	0.519778	0.822741
	N256	N	0.192177	0.895464	0.464633
	N257	N	0.192972	0.070667	0.537259
	N258	N	0.831545	0.069875	0.464645
	N259	N	0.831067	0.895348	0.536324
	N260	N	0.474343	0.161381	0.914410
	N261	N	0.548166	0.160247	0.086187
	N262	N	0.474727	0.802333	0.088027
	N263	N	0.547718	0.802808	0.915091
	N264	N	0.475457	0.893473	0.182442
	N265	N	0.548191	0.068012	0.179759
	N266	N	0.475067	0.068819	0.820544
	N267	N	0.548332	0.895800	0.822009
	N268	N	0.926499	0.160875	0.464127
	N269	N	0.098598	0.162373	0.537796
	N270	N	0.095707	0.805073	0.462950
	N271	N	0.924580	0.804406	0.536959
	N272	N	0.187598	0.445194	0.916444
	N273	N	0.189458	0.517777	0.089381
	N274	N	0.832070	0.443994	0.086778
	N275	N	0.830274	0.518040	0.914045
	O276	O	0.380746	0.525757	0.496342
	H277	H	0.375864	0.521536	0.505960
	H278	H	0.381511	0.519367	0.496898
	O279	O	0.677828	0.493838	0.452264
	H280	H	0.670703	0.495823	0.446654
	H281	H	0.672080	0.497951	0.452275
	O282	O	1.138882	-0.149547	1.032654
	H283	H	1.141711	-0.143797	1.013165
	H284	H	1.128241	-0.171396	1.023250
	O285	O	0.995813	0.966903	1.097763
	H286	H	0.987523	0.988248	1.101394
	H287	H	0.995927	0.960689	1.081569
	O288	O	1.044941	0.967489	1.078572
	H289	H	1.039825	0.966051	1.072889
	H290	H	1.048464	0.971172	1.076942
	O291	O	0.171277	1.097566	0.136954
	H292	H	0.175903	1.100296	0.132237
	H293	H	0.182987	1.095921	0.164192
	O294	O	-0.136178	1.072845	0.883484
	H295	H	-0.151494	1.069701	0.898777
	H296	H	-0.129191	1.088338	0.893403
	O297	O	0.471474	0.531431	0.410871
	H298	H	0.477000	0.537862	0.416255
	H299	H	0.471741	0.533673	0.413277
	O300	O	0.458523	0.566900	0.341416
	H301	H	0.443493	0.569627	0.351921
	H302	H	0.449886	0.572980	0.337691
	O303	O	0.103212	1.031914	0.804732
	H304	H	0.097031	1.013795	0.816370
	H305	H	0.106347	1.029494	0.791488
	O306	O	0.475846	0.391866	0.499813
	H307	H	0.481001	0.385985	0.505800
	H308	H	0.479143	0.381245	0.502484
	O309	O	0.460437	0.584169	0.559524
	H310	H	0.466457	0.582904	0.552680
	H311	H	0.474025	0.590852	0.557807
	O312	O	0.137928	-0.098349	0.106089
	H313	H	0.144015	-0.108125	0.116056
	H314	H	0.146961	-0.104909	0.097248
	O315	O	0.395208	1.613349	-0.656096
	H316	H	0.395501	1.604899	-0.644924
	H317	H	0.389644	1.613236	-0.650699
	O318	O	-0.165806	0.914200	1.052890
	H319	H	-0.169638	0.914722	1.041646
	H320	H	-0.175932	0.909655	1.062943
	O321	O	0.848995	0.138381	0.976307
	H322	H	0.846965	0.137662	0.991746
	H323	H	0.857452	0.138262	0.977698
	O324	O	0.529856	0.437737	-0.406387
	H325	H	0.539012	0.429713	-0.408923
	H326	H	0.525541	0.442085	-0.406401
	O327	O	0.597391	0.378189	0.544923
	H328	H	0.593177	0.389572	0.542230
	H329	H	0.588992	0.374740	0.543439
	O330	O	-0.145720	-0.203578	1.091484
	H331	H	-0.145468	-0.200801	1.102690
	H332	H	-0.158058	-0.225307	1.107370
	O333	O	-0.004680	0.049849	1.116350
	H334	H	0.009143	0.034425	1.110519
	H335	H	0.000044	0.050328	1.120731
	O336	O	0.553952	0.441618	0.529235
	H337	H	0.557248	0.426804	0.535651
	H338	H	0.548087	0.464187	0.541258
	O339	O	0.953711	-0.103411	0.048921
	H340	H	0.929856	-0.115473	0.057293
	H341	H	0.955998	-0.096123	0.066059
	O342	O	0.094600	-0.024442	-0.067004
	H343	H	0.092511	-0.031054	-0.068033
	H344	H	0.095976	-0.012759	-0.069145
	O345	O	0.618234	-0.521016	1.545031
	H346	H	0.625026	-0.522830	1.523652
	H347	H	0.616274	-0.520110	1.536168
	O348	O	0.955773	1.171108	-0.164987
	H349	H	0.951589	1.181311	-0.183232
	H350	H	0.941454	1.175743	-0.174148
	O351	O	0.470898	0.452520	0.490517
	H352	H	0.458732	0.454825	0.491956
	H353	H	0.479331	0.460418	0.502984
	O354	O	1.148825	-0.029633	0.979154
	H355	H	1.145728	-0.030191	0.985855
	H356	H	1.157739	-0.031229	0.977814
	O357	O	0.516855	0.359970	0.437199
	H358	H	0.510463	0.354187	0.451642
	H359	H	0.523773	0.367136	0.428124
	O360	O	0.661186	0.393153	0.391633
	H361	H	0.659745	0.382607	0.388664
	H362	H	0.658860	0.402246	0.379357
	O363	O	0.073610	1.086978	0.936685
	H364	H	0.079250	1.093010	0.932289
	H365	H	0.069093	1.089100	0.937279
	O366	O	0.404747	0.513873	0.459254
	H367	H	0.397299	0.508207	0.467687
	H368	H	0.392443	0.511314	0.467226
	O369	O	0.088965	1.025769	0.146797
	H370	H	0.095672	1.013217	0.143568
	H371	H	0.101532	1.042904	0.147403
	O372	O	0.145650	1.003672	-0.162553
	H373	H	0.137202	0.983598	-0.156470
	H374	H	0.152365	1.015733	-0.175397
	O375	O	0.185685	-0.125646	0.897747
	H376	H	0.178288	-0.128338	0.889034
	H377	H	0.193245	-0.125138	0.888900
	O378	O	0.497404	0.443775	0.667365
	H379	H	0.507316	0.445279	0.669336
	H380	H	0.492336	0.429199	0.662657
	O381	O	1.032274	0.123623	0.147793
	H382	H	1.031328	0.116734	0.157665
	H383	H	1.031707	0.121381	0.151927
	O384	O	1.020668	0.865549	-0.022727
	H385	H	1.015052	0.857450	-0.025709
	H386	H	1.013027	0.865536	-0.028114
	O387	O	0.074468	0.030570	0.053905
	H388	H	0.078947	0.032423	0.043595
	H389	H	0.099343	0.039735	0.051166
	O390	O	-0.070411	1.090801	-0.021126
	H391	H	-0.073507	1.095465	-0.029839
	H392	H	-0.059471	1.087447	-0.008418
	O393	O	0.802431	1.052051	0.854937
	H394	H	0.800272	1.044220	0.839463
	H395	H	0.809050	1.054557	0.857309
	O396	O	0.438867	0.409903	0.483101
	H397	H	0.448141	0.409626	0.472578
	H398	H	0.428370	0.400086	0.482815
	O399	O	-0.167316	0.846481	1.085121
	H400	H	-0.168048	0.856601	1.092569
	H401	H	-0.151917	0.860935	1.082515
	O402	O	-0.048147	0.854083	-0.166977
	H403	H	-0.044245	0.862665	-0.173216
	H404	H	-0.061004	0.851612	-0.151917
	O405	O	1.611914	1.536462	0.452574
	H406	H	1.615726	1.532485	0.442334
	H407	H	1.592170	1.536534	0.442302
	O408	O	0.531129	1.535007	-0.447568
	H409	H	0.525444	1.547573	-0.455656
	H410	H	0.528917	1.525908	-0.447004
	O411	O	0.361934	-0.586060	0.585849
	H412	H	0.349817	-0.585781	0.599631
	H413	H	0.380047	-0.596487	0.595412
	O414	O	0.573395	0.604630	0.576715
	H415	H	0.576223	0.609906	0.575951
	H416	H	0.573158	0.592405	0.574335
	O417	O	0.547081	0.466835	0.610431
	H418	H	0.549675	0.476103	0.623454
	H419	H	0.561630	0.457373	0.612851
