data_Molecule from HDF5

_cell_length_a		16.223582
_cell_length_b		16.300321
_cell_length_c		16.524994
_cell_angle_alpha	90.042279
_cell_angle_beta	89.818124
_cell_angle_gamma	89.693566
_symmetry_space_group_name_H-M	'P 1'
_symmetry_Int_Tables_number		1

loop_
	_symmetry_equiv_pos_as_xyz
	x,y,z

loop_
	_atom_site_label
	_atom_site_type_symbol
	_atom_site_fract_x
	_atom_site_fract_y
	_atom_site_fract_z
	H0	H	0.382068	0.838766	0.722892
	H1	H	0.594325	0.156974	0.721142
	H2	H	0.599699	0.838030	0.277692
	H3	H	0.380305	0.155601	0.276686
	H4	H	0.711718	0.391680	0.839320
	H5	H	0.709082	0.599359	0.156737
	H6	H	0.272350	0.602270	0.838097
	H7	H	0.268667	0.394736	0.155927
	H8	H	0.829102	0.718067	0.394755
	H9	H	0.153551	0.711686	0.596930
	H10	H	0.828345	0.282633	0.598059
	H11	H	0.150713	0.277104	0.391472
	H12	H	0.832076	0.390017	0.720225
	H13	H	0.149875	0.604367	0.717658
	H14	H	0.830219	0.607106	0.274476
	H15	H	0.150842	0.391679	0.274737
	H16	H	0.383311	0.723178	0.841726
	H17	H	0.597390	0.718437	0.155565
	H18	H	0.595210	0.274353	0.840459
	H19	H	0.383600	0.277532	0.157080
	H20	H	0.709397	0.836071	0.398817
	H21	H	0.708679	0.158478	0.604526
	H22	H	0.272181	0.835994	0.603323
	H23	H	0.270441	0.158766	0.398758
	H24	H	0.880518	0.341511	0.219863
	H25	H	0.099078	0.656076	0.218870
	H26	H	0.098397	0.338439	0.774213
	H27	H	0.881616	0.657388	0.773748
	H28	H	0.212369	0.892916	0.341824
	H29	H	0.207037	0.102478	0.658255
	H30	H	0.765563	0.103474	0.341321
	H31	H	0.770320	0.893248	0.658632
	H32	H	0.328992	0.219572	0.895393
	H33	H	0.651936	0.213360	0.100217
	H34	H	0.331327	0.775177	0.106629
	H35	H	0.652235	0.778196	0.896003
	H36	H	0.333343	0.886646	0.226532
	H37	H	0.649982	0.104416	0.221743
	H38	H	0.329898	0.107976	0.777492
	H39	H	0.650067	0.889034	0.776253
	H40	H	0.880057	0.221694	0.340323
	H41	H	0.094103	0.221910	0.653990
	H42	H	0.095876	0.777155	0.340168
	H43	H	0.883546	0.774277	0.655910
	H44	H	0.213304	0.337886	0.890449
	H45	H	0.207737	0.658596	0.097355
	H46	H	0.775767	0.336647	0.096772
	H47	H	0.766496	0.657261	0.890342
	H48	H	0.401400	0.114553	0.598281
	H49	H	0.582358	0.882135	0.590121
	H50	H	0.575186	0.110355	0.411083
	H51	H	0.397038	0.879800	0.406539
	H52	H	0.581995	0.402509	0.112151
	H53	H	0.584705	0.584945	0.883725
	H54	H	0.403094	0.588925	0.109982
	H55	H	0.409666	0.412668	0.889232
	H56	H	0.107214	0.582834	0.397365
	H57	H	0.874633	0.584036	0.589436
	H58	H	0.108185	0.409050	0.590518
	H59	H	0.873573	0.408675	0.404151
	H60	H	0.104971	0.405495	0.580604
	H61	H	0.874812	0.589254	0.584357
	H62	H	0.106909	0.593795	0.407099
	H63	H	0.875799	0.411101	0.408188
	H64	H	0.396809	0.587232	0.112015
	H65	H	0.574843	0.580795	0.888205
	H66	H	0.585430	0.406755	0.112365
	H67	H	0.406363	0.399202	0.883498
	H68	H	0.576984	0.111060	0.411661
	H69	H	0.576640	0.882545	0.592648
	H70	H	0.404894	0.109591	0.587089
	H71	H	0.412274	0.885466	0.407922
	H72	H	0.894649	0.617054	0.090108
	H73	H	0.071281	0.387874	0.080047
	H74	H	0.082901	0.611265	0.912572
	H75	H	0.906858	0.387598	0.912621
	H76	H	0.081463	0.902489	0.614156
	H77	H	0.079070	0.086580	0.384725
	H78	H	0.904406	0.099258	0.612077
	H79	H	0.902247	0.916074	0.389687
	H80	H	0.602814	0.083251	0.911248
	H81	H	0.374981	0.090954	0.085591
	H82	H	0.604864	0.907758	0.087015
	H83	H	0.377333	0.915136	0.910106
	H84	H	0.605042	0.911226	0.088317
	H85	H	0.377312	0.079409	0.089052
	H86	H	0.604471	0.083004	0.906967
	H87	H	0.374763	0.908015	0.910442
	H88	H	0.892023	0.086341	0.612433
	H89	H	0.079433	0.085032	0.385936
	H90	H	0.080972	0.906450	0.613773
	H91	H	0.907201	0.904031	0.387437
	H92	H	0.082544	0.615052	0.899784
	H93	H	0.085875	0.382275	0.080896
	H94	H	0.909728	0.612795	0.089702
	H95	H	0.894631	0.381841	0.906675
	H96	H	0.392706	0.113215	0.588227
	H97	H	0.576951	0.884496	0.586617
	H98	H	0.575847	0.112293	0.409354
	H99	H	0.401804	0.886242	0.420208
	H100	H	0.580307	0.407753	0.111059
	H101	H	0.575190	0.592012	0.884382
	H102	H	0.401238	0.582507	0.108726
	H103	H	0.395668	0.410083	0.884076
	H104	H	0.101542	0.580805	0.410698
	H105	H	0.877288	0.582583	0.582598
	H106	H	0.102573	0.416183	0.583616
	H107	H	0.875270	0.413586	0.403735
	H108	H	0.900290	0.610971	0.077270
	H109	H	0.076703	0.381471	0.093865
	H110	H	0.071391	0.609608	0.905048
	H111	H	0.907321	0.383288	0.898870
	H112	H	0.078185	0.903662	0.612561
	H113	H	0.078257	0.085744	0.385807
	H114	H	0.907911	0.083154	0.605652
	H115	H	0.894462	0.906691	0.383201
	H116	H	0.604700	0.086789	0.909536
	H117	H	0.371927	0.087321	0.096958
	H118	H	0.605740	0.908393	0.090093
	H119	H	0.377467	0.910993	0.916271
	C120	C	0.367921	0.006496	0.622352
	C121	C	0.610793	0.988885	0.621674
	C122	C	0.610338	0.005859	0.379026
	C123	C	0.369368	0.988988	0.379401
	C124	C	0.613557	0.373723	0.006977
	C125	C	0.611320	0.617922	0.989642
	C126	C	0.368283	0.620137	0.006376
	C127	C	0.369625	0.376130	0.989903
	C128	C	-0.001020	0.619324	0.374044
	C129	C	0.982096	0.617235	0.616880
	C130	C	-0.000794	0.378196	0.617100
	C131	C	0.981118	0.377609	0.373719
	C132	C	0.869894	0.507779	0.117348
	C133	C	0.110651	0.489398	0.116706
	C134	C	0.112633	0.506365	0.874118
	C135	C	0.868750	0.489460	0.874126
	C136	C	0.112393	0.874212	0.508222
	C137	C	0.110317	0.118805	0.489778
	C138	C	0.867113	0.121296	0.506127
	C139	C	0.869210	0.876323	0.491222
	C140	C	0.498154	0.118273	0.877848
	C141	C	0.481281	0.117823	0.121275
	C142	C	0.499575	0.875761	0.121504
	C143	C	0.482126	0.877257	0.879025
	C144	C	0.364964	0.886249	0.682652
	C145	C	0.612712	0.109351	0.681055
	C146	C	0.615639	0.885482	0.318816
	C147	C	0.364369	0.108493	0.318443
	C148	C	0.672332	0.372471	0.887357
	C149	C	0.670875	0.618994	0.108776
	C150	C	0.310103	0.621901	0.886607
	C151	C	0.308882	0.375893	0.108720
	C152	C	0.877720	0.679285	0.374716
	C153	C	0.104145	0.674474	0.616708
	C154	C	0.877472	0.320549	0.617635
	C155	C	0.102185	0.316512	0.372034
	C156	C	0.879389	0.374296	0.678598
	C157	C	0.102382	0.620760	0.676947
	C158	C	0.878133	0.623851	0.314918
	C159	C	0.102317	0.373945	0.314125
	C160	C	0.365679	0.681937	0.888476
	C161	C	0.614435	0.677787	0.108471
	C162	C	0.614160	0.314168	0.887775
	C163	C	0.366123	0.317391	0.109371
	C164	C	0.670479	0.884623	0.378835
	C165	C	0.669676	0.109847	0.622939
	C166	C	0.310020	0.884949	0.622960
	C167	C	0.309281	0.109970	0.379048
	C168	C	0.865161	0.388568	0.178632
	C169	C	0.115210	0.608705	0.177601
	C170	C	0.116175	0.386339	0.813988
	C171	C	0.864392	0.609532	0.814110
	C172	C	0.172341	0.874107	0.388936
	C173	C	0.168323	0.120787	0.609836
	C174	C	0.805640	0.122648	0.388391
	C175	C	0.809359	0.874305	0.610418
	C176	C	0.377243	0.179590	0.876944
	C177	C	0.603056	0.175903	0.120821
	C178	C	0.379535	0.814925	0.124703
	C179	C	0.603256	0.816887	0.876750
	C180	C	0.380336	0.870793	0.184282
	C181	C	0.602181	0.121118	0.180987
	C182	C	0.377630	0.123732	0.818036
	C183	C	0.602208	0.872391	0.817316
	C184	C	0.862865	0.181522	0.387647
	C185	C	0.112305	0.180728	0.607750
	C186	C	0.114593	0.816231	0.388177
	C187	C	0.866251	0.814986	0.609107
	C188	C	0.173579	0.386083	0.871862
	C189	C	0.169867	0.609995	0.117405
	C190	C	0.812668	0.386049	0.117201
	C191	C	0.807155	0.609645	0.872192
	C192	C	0.392560	0.090538	0.598325
	C193	C	0.585764	0.904985	0.597024
	C194	C	0.583706	0.089362	0.403701
	C195	C	0.396108	0.905667	0.404342
	C196	C	0.589338	0.398413	0.090257
	C197	C	0.585786	0.593192	0.906972
	C198	C	0.393149	0.593902	0.088695
	C199	C	0.396089	0.400288	0.907215
	C200	C	0.083458	0.593382	0.397905
	C201	C	0.897476	0.592412	0.592610
	C202	C	0.083420	0.403001	0.591939
	C203	C	0.896844	0.403488	0.398201
	C204	C	0.894546	0.591871	0.092724
	C205	C	0.085219	0.405695	0.091902
	C206	C	0.086373	0.590180	0.898805
	C207	C	0.895229	0.406099	0.898858
	C208	C	0.087444	0.897525	0.591570
	C209	C	0.086079	0.093085	0.407093
	C210	C	0.893714	0.096711	0.588613
	C211	C	0.894054	0.901697	0.408296
	C212	C	0.582033	0.091974	0.902289
	C213	C	0.396852	0.093062	0.097304
	C214	C	0.583396	0.901853	0.095867
	C215	C	0.398316	0.903859	0.904879
	Zn216	Zn	0.489301	-0.002582	0.750175
	Zn217	Zn	0.490813	-0.002553	0.249901
	Zn218	Zn	0.741752	0.497948	-0.002875
	Zn219	Zn	0.240172	0.497568	-0.003936
	Zn220	Zn	-0.009477	0.745814	0.498029
	Zn221	Zn	-0.010015	0.250002	0.495948
	Zn222	Zn	-0.009514	0.498517	0.746117
	Zn223	Zn	-0.010278	0.498987	0.245287
	Zn224	Zn	0.490549	0.748002	-0.000831
	Zn225	Zn	0.489930	0.245741	-0.000356
	Zn226	Zn	0.739036	-0.002408	0.499960
	Zn227	Zn	0.240234	-0.002953	0.501133
	N228	N	0.400097	0.962968	0.682593
	N229	N	0.577006	0.033071	0.680483
	N230	N	0.579302	0.961905	0.318595
	N231	N	0.400780	0.032194	0.318367
	N232	N	0.671962	0.409041	0.962355
	N233	N	0.669080	0.582094	0.033743
	N234	N	0.311609	0.584026	0.960851
	N235	N	0.310967	0.411465	0.033334
	N236	N	0.953991	0.676680	0.410747
	N237	N	0.028259	0.672447	0.580032
	N238	N	0.952967	0.323008	0.579901
	N239	N	0.025815	0.318531	0.408239
	N240	N	0.956141	0.409472	0.678301
	N241	N	0.025258	0.586044	0.677271
	N242	N	0.954692	0.587561	0.314435
	N243	N	0.025839	0.410909	0.314870
	N244	N	0.400661	0.681314	0.964095
	N245	N	0.578388	0.677319	0.033518
	N246	N	0.578589	0.314794	0.963319
	N247	N	0.403238	0.317359	0.034481
	N248	N	0.667517	0.960328	0.415428
	N249	N	0.668728	0.033824	0.586957
	N250	N	0.311595	0.960604	0.586474
	N251	N	0.312131	0.034478	0.416183
	N252	N	0.900007	0.465176	0.178633
	N253	N	0.079094	0.532697	0.177244
	N254	N	0.078988	0.462342	0.815170
	N255	N	0.901868	0.533825	0.815165
	N256	N	0.171529	0.909149	0.464618
	N257	N	0.167294	0.082828	0.535546
	N258	N	0.807894	0.086058	0.463181
	N259	N	0.811317	0.911955	0.536139
	N260	N	0.453091	0.176298	0.913671
	N261	N	0.526891	0.174227	0.084662
	N262	N	0.454700	0.818092	0.086210
	N263	N	0.527569	0.819851	0.914393
	N264	N	0.456009	0.908005	0.182263
	N265	N	0.525167	0.086097	0.181703
	N266	N	0.453599	0.086199	0.818520
	N267	N	0.525673	0.909181	0.818487
	N268	N	0.900494	0.180743	0.462020
	N269	N	0.077077	0.179659	0.532148
	N270	N	0.078217	0.816016	0.463289
	N271	N	0.902892	0.816214	0.534020
	N272	N	0.171360	0.461585	0.908480
	N273	N	0.167016	0.534807	0.079870
	N274	N	0.815372	0.461341	0.079673
	N275	N	0.809650	0.533954	0.908748
	O276	O	0.500805	0.339829	0.435936
	H277	H	0.522527	0.343969	0.421879
	H278	H	0.495998	0.322365	0.441389
	O279	O	0.677386	0.447875	0.548875
	H280	H	0.673169	0.468110	0.543066
	H281	H	0.673306	0.441197	0.548547
	O282	O	0.662976	0.318562	0.313990
	H283	H	0.658342	0.321749	0.329258
	H284	H	0.667766	0.335666	0.335824
	O285	O	0.838788	0.158652	-0.019115
	H286	H	0.818571	0.172423	-0.012607
	H287	H	0.838457	0.159226	-0.020833
	O288	O	-0.441092	0.546693	0.469257
	H289	H	-0.444771	0.542210	0.478681
	H290	H	-0.446772	0.551895	0.462427
	O291	O	0.526727	0.652638	0.509898
	H292	H	0.523989	0.648720	0.498438
	H293	H	0.509535	0.656286	0.508590
	O294	O	0.438523	0.516112	0.514627
	H295	H	0.439813	0.518145	0.509590
	H296	H	0.434789	0.510644	0.523674
	O297	O	1.212715	0.955403	1.096558
	H298	H	1.230527	0.968577	1.113904
	H299	H	1.201435	0.991251	1.101282
	O300	O	-0.058677	0.181357	0.189451
	H301	H	-0.084160	0.164237	0.202437
	H302	H	-0.066915	0.175412	0.204660
	O303	O	0.331971	0.630287	0.405522
	H304	H	0.341712	0.623444	0.383356
	H305	H	0.316831	0.631699	0.397784
	O306	O	1.175137	-0.129736	-0.192097
	H307	H	1.173665	-0.137344	-0.190632
	H308	H	1.158078	-0.127013	-0.165533
	O309	O	0.576983	0.344240	0.513772
	H310	H	0.596553	0.341630	0.523135
	H311	H	0.568477	0.345433	0.525448
	O312	O	0.815316	0.826246	0.174091
	H313	H	0.831111	0.811818	0.150757
	H314	H	0.828087	0.830198	0.155366
	O315	O	0.507136	0.567090	0.335162
	H316	H	0.511839	0.563764	0.334205
	H317	H	0.497977	0.563323	0.335258
	O318	O	1.081879	0.788443	0.019886
	H319	H	1.091049	0.788643	0.004177
	H320	H	1.090723	0.794199	0.014576
	O321	O	1.678772	-0.415646	1.695067
	H322	H	1.673481	-0.424961	1.700913
	H323	H	1.705397	-0.407885	1.695183
	O324	O	-0.195497	-0.190014	1.003296
	H325	H	-0.203489	-0.203891	0.992323
	H326	H	-0.201600	-0.165176	0.991107
	O327	O	0.305636	0.493495	0.598663
	H328	H	0.289280	0.486967	0.615236
	H329	H	0.316235	0.498770	0.603438
	O330	O	0.333866	0.510225	0.462924
	H331	H	0.333407	0.519473	0.482207
	H332	H	0.331002	0.518263	0.461749
	O333	O	0.983911	0.795597	1.143552
	H334	H	0.996631	0.787705	1.135649
	H335	H	0.994885	0.787933	1.143180
	O336	O	1.071418	-0.089470	1.188339
	H337	H	1.078191	-0.082204	1.188397
	H338	H	1.070939	-0.100931	1.181905
	O339	O	0.816556	-0.097450	0.938077
	H340	H	0.819274	-0.084688	0.924822
	H341	H	0.821773	-0.071332	0.947139
	O342	O	-0.020120	1.159144	0.928748
	H343	H	-0.029416	1.153209	0.921415
	H344	H	-0.009906	1.166685	0.949104
	O345	O	0.164328	1.169516	1.174262
	H346	H	0.118978	1.185344	1.182475
	H347	H	0.164944	1.183176	1.134321
	O348	O	0.991980	1.197388	0.094883
	H349	H	0.984720	1.196457	0.105298
	H350	H	0.995016	1.211901	0.113410
	O351	O	-0.028840	-0.086456	-0.180122
	H352	H	-0.022661	-0.082745	-0.180283
	H353	H	-0.021117	-0.093156	-0.179822
	O354	O	1.189759	1.108269	-0.036363
	H355	H	1.200892	1.100923	-0.060193
	H356	H	1.166955	1.095746	-0.034378
	O357	O	-0.212979	0.986100	0.203263
	H358	H	-0.213853	0.959477	0.212736
	H359	H	-0.219931	0.966671	0.198258
	O360	O	0.406725	0.423112	0.453813
	H361	H	0.409849	0.410106	0.441075
	H362	H	0.414174	0.415280	0.459637
	O363	O	0.573618	0.431743	0.695086
	H364	H	0.571898	0.420833	0.696079
	H365	H	0.580495	0.432665	0.693864
	O366	O	0.478854	0.564095	0.679783
	H367	H	0.479592	0.581222	0.677734
	H368	H	0.492608	0.574659	0.670337
	O369	O	0.492744	0.676165	0.657559
	H370	H	0.501238	0.682543	0.653165
	H371	H	0.505413	0.685366	0.657431
	O372	O	-0.024711	0.799151	-0.144296
	H373	H	-0.016031	0.806796	-0.135288
	H374	H	-0.041380	0.785376	-0.152185
	O375	O	0.583407	0.498328	0.452916
	H376	H	0.583049	0.511280	0.460770
	H377	H	0.572282	0.509056	0.443831
	O378	O	0.551828	0.429167	0.565553
	H379	H	0.556034	0.433016	0.568051
	H380	H	0.534295	0.428823	0.562916
	O381	O	0.447056	0.506313	0.403689
	H382	H	0.439023	0.514691	0.394162
	H383	H	0.426532	0.497167	0.404773
	O384	O	0.047857	1.036592	0.983456
	H385	H	0.023411	1.049816	0.983440
	H386	H	0.039267	1.029909	0.980993
	O387	O	1.370178	0.552832	0.406954
	H388	H	1.362446	0.541441	0.405188
	H389	H	1.372083	0.565995	0.387292
	O390	O	0.560947	0.309135	0.344795
	H391	H	0.564901	0.302595	0.336831
	H392	H	0.589444	0.311261	0.354304
	O393	O	0.856664	0.086847	1.028986
	H394	H	0.865399	0.086145	1.029071
	H395	H	0.859478	0.093474	1.032162
	O396	O	0.182075	0.803438	0.925205
	H397	H	0.197522	0.842673	0.948336
	H398	H	0.201199	0.793752	0.936467
	O399	O	0.468780	0.423685	0.672657
	H400	H	0.475976	0.428543	0.668692
	H401	H	0.460541	0.452091	0.681007
	O402	O	1.096832	0.205675	0.958706
	H403	H	1.103191	0.196291	0.952562
	H404	H	1.115432	0.201859	0.952351
	O405	O	-0.202871	0.010845	-0.200715
	H406	H	-0.208363	0.016726	-0.214509
	H407	H	-0.195031	0.001801	-0.218365
	O408	O	1.133134	1.007503	1.186235
	H409	H	1.122073	1.034690	1.179840
	H410	H	1.159636	1.024832	1.211316
	O411	O	0.953795	0.965154	0.213530
	H412	H	0.960931	0.936422	0.219686
	H413	H	0.926622	0.960639	0.215192
	O414	O	-0.204006	0.155633	0.859894
	H415	H	-0.186606	0.166410	0.871379
	H416	H	-0.216065	0.129645	0.861603
	O417	O	0.426571	0.537795	0.348542
	H418	H	0.431267	0.530142	0.345575
	H419	H	0.406252	0.532980	0.358302
	O420	O	0.206746	0.989157	-0.149941
	H421	H	0.201824	0.952915	-0.144620
	H422	H	0.224570	0.991539	-0.169899
	O423	O	0.976882	0.120467	-0.126445
	H424	H	0.972277	0.136224	-0.119003
	H425	H	0.982853	0.124395	-0.116007
	O426	O	0.019021	0.038912	0.792276
	H427	H	0.020158	0.045600	0.788508
	H428	H	0.027653	0.042309	0.792261
	O429	O	0.521798	0.488908	0.492747
	H430	H	0.507360	0.474267	0.499066
	H431	H	0.519990	0.499554	0.489690
