data_Molecule from HDF5

_cell_length_a		16.450667
_cell_length_b		16.206784
_cell_length_c		16.303622
_cell_angle_alpha	89.681207
_cell_angle_beta	89.784611
_cell_angle_gamma	90.309928
_symmetry_space_group_name_H-M	'P 1'
_symmetry_Int_Tables_number		1

loop_
	_symmetry_equiv_pos_as_xyz
	x,y,z

loop_
	_atom_site_label
	_atom_site_type_symbol
	_atom_site_fract_x
	_atom_site_fract_y
	_atom_site_fract_z
	H0	H	0.406038	0.823273	0.721774
	H1	H	0.609281	0.148416	0.714740
	H2	H	0.610592	0.822108	0.283948
	H3	H	0.411117	0.147163	0.285394
	H4	H	0.727791	0.380856	0.839631
	H5	H	0.730254	0.589044	0.161132
	H6	H	0.291791	0.588995	0.840393
	H7	H	0.287559	0.377300	0.161053
	H8	H	0.848665	0.701940	0.398152
	H9	H	0.168405	0.704004	0.601135
	H10	H	0.848896	0.264062	0.602144
	H11	H	0.170422	0.266082	0.397604
	H12	H	0.849251	0.377325	0.721334
	H13	H	0.169160	0.586984	0.718196
	H14	H	0.848528	0.584582	0.282309
	H15	H	0.169972	0.381133	0.280438
	H16	H	0.411120	0.702446	0.840416
	H17	H	0.611552	0.701432	0.163647
	H18	H	0.607374	0.270477	0.837882
	H19	H	0.407888	0.266953	0.163323
	H20	H	0.726871	0.821812	0.398158
	H21	H	0.728681	0.145234	0.604196
	H22	H	0.287269	0.823964	0.608955
	H23	H	0.291410	0.146236	0.397435
	H24	H	0.906578	0.321338	0.219624
	H25	H	0.112513	0.645941	0.216323
	H26	H	0.109451	0.320818	0.783872
	H27	H	0.905874	0.644771	0.779696
	H28	H	0.233606	0.875808	0.343502
	H29	H	0.229896	0.091168	0.660412
	H30	H	0.788106	0.090597	0.341234
	H31	H	0.786696	0.876388	0.661708
	H32	H	0.348051	0.201989	0.900498
	H33	H	0.669646	0.202848	0.100366
	H34	H	0.350185	0.760870	0.108896
	H35	H	0.669855	0.768493	0.899955
	H36	H	0.350697	0.876481	0.225177
	H37	H	0.669340	0.089133	0.219646
	H38	H	0.349872	0.091422	0.780432
	H39	H	0.668448	0.883616	0.781920
	H40	H	0.909772	0.200519	0.338889
	H41	H	0.110181	0.200718	0.662510
	H42	H	0.109487	0.769829	0.338924
	H43	H	0.903287	0.762780	0.661314
	H44	H	0.227533	0.322048	0.897020
	H45	H	0.229492	0.644584	0.103060
	H46	H	0.788728	0.321729	0.105491
	H47	H	0.790242	0.644872	0.895098
	H48	H	0.419190	0.102845	0.596373
	H49	H	0.593865	0.868250	0.597937
	H50	H	0.599891	0.099343	0.410978
	H51	H	0.418696	0.865531	0.405867
	H52	H	0.596045	0.397243	0.113898
	H53	H	0.609889	0.575496	0.883567
	H54	H	0.418428	0.569720	0.115778
	H55	H	0.424902	0.392425	0.887112
	H56	H	0.124414	0.583434	0.411368
	H57	H	0.893228	0.572448	0.596290
	H58	H	0.122138	0.399357	0.595432
	H59	H	0.899229	0.399337	0.410826
	H60	H	0.126222	0.387400	0.597041
	H61	H	0.895357	0.576570	0.586552
	H62	H	0.120525	0.571055	0.411204
	H63	H	0.893424	0.390102	0.404743
	H64	H	0.419363	0.571730	0.116173
	H65	H	0.597020	0.566622	0.890338
	H66	H	0.598118	0.389914	0.116837
	H67	H	0.412309	0.387560	0.881751
	H68	H	0.601787	0.099592	0.411638
	H69	H	0.595114	0.870539	0.586027
	H70	H	0.423006	0.097878	0.587588
	H71	H	0.429257	0.873246	0.418058
	H72	H	0.921466	0.597975	0.089109
	H73	H	0.098507	0.367289	0.092136
	H74	H	0.094952	0.597081	0.912794
	H75	H	0.919156	0.365954	0.904107
	H76	H	0.092652	0.883643	0.617869
	H77	H	0.096280	0.069274	0.388237
	H78	H	0.911688	0.078447	0.619886
	H79	H	0.910633	0.884472	0.380789
	H80	H	0.621123	0.074292	0.911669
	H81	H	0.394929	0.073677	0.095876
	H82	H	0.625150	0.890167	0.098400
	H83	H	0.395892	0.894524	0.912087
	H84	H	0.621302	0.891063	0.085938
	H85	H	0.394649	0.075550	0.092734
	H86	H	0.624934	0.075520	0.904118
	H87	H	0.395113	0.893754	0.912527
	H88	H	0.914348	0.064337	0.614290
	H89	H	0.100716	0.079460	0.384229
	H90	H	0.109595	0.897840	0.618683
	H91	H	0.909840	0.907783	0.388309
	H92	H	0.106684	0.599723	0.913897
	H93	H	0.096644	0.368326	0.089893
	H94	H	0.918573	0.598610	0.087329
	H95	H	0.924202	0.371311	0.916730
	H96	H	0.412820	0.101084	0.587784
	H97	H	0.604934	0.866217	0.592726
	H98	H	0.601010	0.100725	0.410453
	H99	H	0.411840	0.869219	0.422301
	H100	H	0.603536	0.395602	0.116663
	H101	H	0.594600	0.583038	0.886142
	H102	H	0.417075	0.571237	0.116203
	H103	H	0.413280	0.400959	0.886705
	H104	H	0.125593	0.576604	0.400977
	H105	H	0.897783	0.566223	0.588933
	H106	H	0.122133	0.391495	0.586221
	H107	H	0.896466	0.388833	0.416486
	H108	H	0.918267	0.599462	0.090649
	H109	H	0.100247	0.367962	0.089367
	H110	H	0.100761	0.601904	0.903306
	H111	H	0.909741	0.367146	0.915690
	H112	H	0.090577	0.904761	0.610185
	H113	H	0.107093	0.070157	0.385000
	H114	H	0.925474	0.074499	0.614482
	H115	H	0.930171	0.895239	0.390894
	H116	H	0.624043	0.082015	0.910438
	H117	H	0.395819	0.072500	0.092298
	H118	H	0.620824	0.900915	0.093401
	H119	H	0.395776	0.895121	0.913569
	C120	C	0.386539	-0.005989	0.624034
	C121	C	0.629075	0.975847	0.622146
	C122	C	0.631132	-0.007373	0.379872
	C123	C	0.388755	0.975946	0.382065
	C124	C	0.629446	0.363702	0.008998
	C125	C	0.631418	0.605895	0.993081
	C126	C	0.388457	0.603876	0.009863
	C127	C	0.386322	0.361893	0.992044
	C128	C	0.017588	0.606969	0.377220
	C129	C	1.000700	0.604308	0.621348
	C130	C	0.017659	0.360995	0.623444
	C131	C	1.002013	0.362310	0.379342
	C132	C	0.888000	0.491733	0.121099
	C133	C	0.130423	0.474506	0.121422
	C134	C	0.130594	0.492177	0.879448
	C135	C	0.887354	0.474785	0.879562
	C136	C	0.129637	0.863518	0.509860
	C137	C	0.131166	0.104608	0.492297
	C138	C	0.887323	0.104389	0.509465
	C139	C	0.885631	0.862680	0.492658
	C140	C	0.517596	0.107526	0.878723
	C141	C	0.500959	0.105805	0.123054
	C142	C	0.517388	0.861215	0.125017
	C143	C	0.501105	0.864181	0.880981
	C144	C	0.385932	0.872143	0.683411
	C145	C	0.628908	0.098891	0.677678
	C146	C	0.630458	0.870476	0.322442
	C147	C	0.390176	0.098300	0.323684
	C148	C	0.688174	0.362588	0.887747
	C149	C	0.690539	0.607525	0.113423
	C150	C	0.331066	0.606898	0.888604
	C151	C	0.327417	0.359447	0.113091
	C152	C	0.896732	0.663270	0.378507
	C153	C	0.120786	0.663992	0.620687
	C154	C	0.897179	0.302423	0.622458
	C155	C	0.122481	0.304806	0.378361
	C156	C	0.897302	0.358763	0.681872
	C157	C	0.121025	0.605804	0.679063
	C158	C	0.896817	0.605316	0.320464
	C159	C	0.122235	0.362456	0.320138
	C160	C	0.389949	0.663591	0.888638
	C161	C	0.631142	0.663293	0.114740
	C162	C	0.628509	0.307256	0.887114
	C163	C	0.387080	0.304323	0.114139
	C164	C	0.688217	0.870562	0.379316
	C165	C	0.688145	0.097671	0.622233
	C166	C	0.326808	0.872374	0.627590
	C167	C	0.330850	0.097785	0.379631
	C168	C	0.887216	0.369816	0.180265
	C169	C	0.131152	0.596992	0.178190
	C170	C	0.129789	0.369892	0.821817
	C171	C	0.886754	0.596239	0.819267
	C172	C	0.191580	0.859616	0.390528
	C173	C	0.190093	0.108057	0.612702
	C174	C	0.828710	0.107463	0.389043
	C175	C	0.826097	0.858983	0.613313
	C176	C	0.396437	0.164315	0.880137
	C177	C	0.621727	0.164003	0.120895
	C178	C	0.397862	0.800966	0.126979
	C179	C	0.621461	0.806731	0.880188
	C180	C	0.398091	0.858571	0.185061
	C181	C	0.621599	0.107253	0.180143
	C182	C	0.397367	0.108955	0.820541
	C183	C	0.620923	0.864331	0.821700
	C184	C	0.888972	0.162539	0.387773
	C185	C	0.130243	0.162781	0.613627
	C186	C	0.130039	0.806147	0.388205
	C187	C	0.884350	0.802343	0.613266
	C188	C	0.188168	0.370311	0.878538
	C189	C	0.189822	0.596100	0.122141
	C190	C	0.828463	0.370211	0.123824
	C191	C	0.829350	0.596497	0.876813
	C192	C	0.411140	0.078527	0.598263
	C193	C	0.604961	0.890657	0.599139
	C194	C	0.607773	0.077589	0.403911
	C195	C	0.412887	0.891394	0.407903
	C196	C	0.606027	0.387409	0.093805
	C197	C	0.607498	0.582035	0.908505
	C198	C	0.411537	0.578255	0.094199
	C199	C	0.410078	0.386454	0.907257
	C200	C	0.101748	0.583803	0.400797
	C201	C	0.917103	0.578942	0.597503
	C202	C	0.101611	0.385737	0.599834
	C203	C	0.918176	0.385919	0.403514
	C204	C	0.912325	0.576506	0.096115
	C205	C	0.105646	0.389945	0.097586
	C206	C	0.107511	0.577122	0.903069
	C207	C	0.910888	0.390231	0.904821
	C208	C	0.104662	0.888291	0.593731
	C209	C	0.108033	0.080085	0.408038
	C210	C	0.910353	0.079486	0.594137
	C211	C	0.910021	0.888226	0.408506
	C212	C	0.601411	0.083964	0.902011
	C213	C	0.416942	0.081104	0.100342
	C214	C	0.600745	0.886779	0.099824
	C215	C	0.417289	0.887816	0.905691
	Zn216	Zn	0.508838	-0.014267	0.750903
	Zn217	Zn	0.509599	-0.015969	0.252985
	Zn218	Zn	0.759186	0.483738	0.000708
	Zn219	Zn	0.258876	0.483300	0.000559
	Zn220	Zn	0.007727	0.735169	0.500305
	Zn221	Zn	0.010330	0.232404	0.500217
	Zn222	Zn	0.008915	0.483282	0.751849
	Zn223	Zn	0.009567	0.483455	0.249435
	Zn224	Zn	0.509468	0.733472	0.002305
	Zn225	Zn	0.508635	0.234960	0.000812
	Zn226	Zn	0.757451	-0.016482	0.501730
	Zn227	Zn	0.259361	-0.016218	0.501820
	N228	N	0.421996	0.948702	0.681666
	N229	N	0.592840	0.022163	0.677501
	N230	N	0.595843	0.947380	0.322693
	N231	N	0.425224	0.021381	0.324906
	N232	N	0.688759	0.397047	0.964563
	N233	N	0.690898	0.572613	0.036798
	N234	N	0.330069	0.570517	0.965145
	N235	N	0.326803	0.394261	0.036019
	N236	N	0.972975	0.664610	0.412699
	N237	N	0.044926	0.663208	0.585677
	N238	N	0.973129	0.303421	0.586949
	N239	N	0.046909	0.304693	0.414516
	N240	N	0.973212	0.394516	0.682478
	N241	N	0.045319	0.569481	0.679468
	N242	N	0.973122	0.571181	0.319416
	N243	N	0.046231	0.397400	0.320632
	N244	N	0.424841	0.661828	0.964917
	N245	N	0.595047	0.662409	0.038721
	N246	N	0.592767	0.307868	0.963458
	N247	N	0.422900	0.305630	0.037804
	N248	N	0.688719	0.947600	0.414244
	N249	N	0.688602	0.020079	0.588492
	N250	N	0.327153	0.949094	0.591214
	N251	N	0.330032	0.020657	0.415147
	N252	N	0.923448	0.446364	0.178878
	N253	N	0.094915	0.520335	0.177964
	N254	N	0.094655	0.446617	0.822195
	N255	N	0.922219	0.519763	0.821163
	N256	N	0.191700	0.894341	0.467211
	N257	N	0.190738	0.072625	0.536372
	N258	N	0.827595	0.071998	0.465845
	N259	N	0.826668	0.895552	0.537221
	N260	N	0.472106	0.163660	0.915760
	N261	N	0.545682	0.163211	0.086028
	N262	N	0.473200	0.802360	0.090492
	N263	N	0.545748	0.806365	0.916255
	N264	N	0.473410	0.895695	0.183729
	N265	N	0.545637	0.071475	0.181417
	N266	N	0.473432	0.074332	0.819422
	N267	N	0.545023	0.899306	0.822206
	N268	N	0.924846	0.160693	0.463684
	N269	N	0.094050	0.160712	0.537814
	N270	N	0.091900	0.808559	0.463393
	N271	N	0.920577	0.804290	0.537188
	N272	N	0.188853	0.447307	0.913614
	N273	N	0.189719	0.518885	0.087792
	N274	N	0.828766	0.447141	0.087828
	N275	N	0.829536	0.519970	0.913618
	O276	O	0.371206	0.353643	0.486468
	H277	H	0.370754	0.347035	0.493582
	H278	H	0.376528	0.353360	0.485179
	O279	O	0.513363	0.643039	0.513545
	H280	H	0.519517	0.642394	0.526495
	H281	H	0.513646	0.643730	0.501993
	O282	O	1.146234	0.153463	1.169256
	H283	H	1.121563	0.163514	1.166891
	H284	H	1.142870	0.158693	1.150327
	O285	O	0.988288	1.115971	1.133670
	H286	H	0.960462	1.095675	1.135055
	H287	H	0.978268	1.126292	1.127716
	O288	O	0.850697	1.060857	1.061182
	H289	H	0.862109	1.036428	1.058711
	H290	H	0.853711	1.058210	1.061603
	O291	O	-0.181306	0.796984	0.112152
	H292	H	-0.172865	0.803271	0.095301
	H293	H	-0.181736	0.793027	0.105939
	O294	O	0.177916	0.793200	0.763472
	H295	H	0.178725	0.786409	0.769776
	H296	H	0.175048	0.804619	0.762258
	O297	O	0.383237	0.390044	0.625573
	H298	H	0.404218	0.391212	0.624109
	H299	H	0.381661	0.392707	0.614457
	O300	O	0.552635	0.593471	0.588760
	H301	H	0.545440	0.600712	0.588691
	H302	H	0.548517	0.590203	0.574968
	O303	O	0.058255	0.820575	0.994913
	H304	H	0.057726	0.821099	1.016254
	H305	H	0.060942	0.838669	0.997815
	O306	O	0.397070	0.358013	0.449964
	H307	H	0.398983	0.340551	0.466915
	H308	H	0.396627	0.368630	0.456362
	O309	O	0.558261	0.372589	0.444666
	H310	H	0.565107	0.374582	0.438015
	H311	H	0.565058	0.367935	0.441036
	O312	O	-0.091345	0.041771	0.040544
	H313	H	-0.088431	0.043359	0.039713
	H314	H	-0.100126	0.052157	0.052589
	O315	O	0.357924	1.654377	-0.583182
	H316	H	0.365132	1.659294	-0.572262
	H317	H	0.352776	1.651797	-0.592142
	O318	O	-0.087726	1.138984	0.980051
	H319	H	-0.082596	1.132064	0.976146
	H320	H	-0.086378	1.143096	0.962437
	O321	O	0.837626	-0.195201	1.122170
	H322	H	0.831146	-0.193891	1.093910
	H323	H	0.855822	-0.219048	1.137041
	O324	O	0.613464	0.529360	-0.445224
	H325	H	0.605595	0.534559	-0.448396
	H326	H	0.616434	0.544328	-0.439996
	O327	O	0.617066	0.573497	0.645845
	H328	H	0.629632	0.565456	0.649804
	H329	H	0.617105	0.564254	0.644865
	O330	O	0.154836	0.072032	1.189925
	H331	H	0.175226	0.074489	1.189910
	H332	H	0.142633	0.110853	1.197234
	O333	O	-0.071649	0.013070	0.832301
	H334	H	-0.057406	0.009719	0.825861
	H335	H	-0.087183	-0.000700	0.828201
	O336	O	0.639055	0.498556	0.389083
	H337	H	0.629369	0.501611	0.402399
	H338	H	0.655900	0.502499	0.386785
	O339	O	1.073793	-0.046869	0.198628
	H340	H	1.056742	-0.020612	0.195438
	H341	H	1.096948	-0.033662	0.201661
	O342	O	0.116478	-0.018338	-0.015170
	H343	H	0.116626	-0.001358	-0.005609
	H344	H	0.121636	-0.017912	0.001491
	O345	O	0.545045	-0.341685	1.585443
	H346	H	0.552612	-0.328531	1.604541
	H347	H	0.537251	-0.343244	1.601729
	O348	O	1.010809	1.138822	-0.023020
	H349	H	1.016578	1.121535	-0.039188
	H350	H	0.997578	1.139863	-0.041164
	O351	O	0.544920	0.516578	0.615735
	H352	H	0.542800	0.507641	0.630715
	H353	H	0.558006	0.500744	0.619184
	O354	O	1.069160	-0.024117	0.920357
	H355	H	1.080913	-0.030532	0.927700
	H356	H	1.068338	-0.033790	0.901534
	O357	O	0.337769	0.444880	0.423163
	H358	H	0.336632	0.435307	0.421818
	H359	H	0.327253	0.447004	0.429917
	O360	O	0.554165	0.457224	0.325287
	H361	H	0.544665	0.480167	0.322481
	H362	H	0.535214	0.461332	0.321021
	O363	O	-0.177446	1.075502	0.838412
	H364	H	-0.171236	1.073997	0.843008
	H365	H	-0.175593	1.089504	0.831705
	O366	O	0.700413	0.371935	0.476451
	H367	H	0.711729	0.363269	0.466865
	H368	H	0.698119	0.371368	0.475961
	O369	O	0.202513	1.006130	-0.144605
	H370	H	0.212160	1.003844	-0.156297
	H371	H	0.209705	1.010565	-0.126288
	O372	O	0.043960	1.046292	-0.174175
	H373	H	0.040806	1.033814	-0.176795
	H374	H	0.044917	1.043514	-0.188420
	O375	O	0.186762	-0.159253	0.882358
	H376	H	0.184065	-0.138437	0.885803
	H377	H	0.196214	-0.160866	0.902517
	O378	O	0.607313	0.386734	0.531552
	H379	H	0.598727	0.396957	0.522069
	H380	H	0.615880	0.380970	0.518194
	O381	O	1.073187	-0.205099	-0.161427
	H382	H	1.093194	-0.198567	-0.153104
	H383	H	1.071670	-0.216819	-0.171690
	O384	O	1.162211	0.857814	0.063754
	H385	H	1.155405	0.852315	0.069946
	H386	H	1.165291	0.866105	0.088312
	O387	O	0.000271	0.027784	-0.025939
	H388	H	0.002165	0.020705	-0.036779
	H389	H	0.004680	0.015867	-0.028909
	O390	O	-0.071991	0.844119	-0.007478
	H391	H	-0.069047	0.847547	0.016066
	H392	H	-0.050545	0.835262	-0.022857
	O393	O	0.921807	1.015913	1.059444
	H394	H	0.924764	1.017760	1.064293
	H395	H	0.907366	1.021306	1.041952
	O396	O	0.348985	0.482529	0.691379
	H397	H	0.348669	0.474967	0.686092
	H398	H	0.337636	0.489725	0.709232
	O399	O	-0.095994	0.858854	1.163455
	H400	H	-0.098814	0.873236	1.182502
	H401	H	-0.090283	0.830362	1.178599
	O402	O	0.211343	1.075144	-0.032002
	H403	H	0.218932	1.087424	-0.020547
	H404	H	0.203224	1.075070	-0.045448
	O405	O	1.536366	1.474871	0.544369
	H406	H	1.531400	1.491541	0.542759
	H407	H	1.538753	1.478531	0.555565
	O408	O	0.581568	1.596996	-0.628554
	H409	H	0.591681	1.603565	-0.620184
	H410	H	0.589112	1.620523	-0.638589
	O411	O	0.325651	-0.452323	0.386274
	H412	H	0.328079	-0.457412	0.403795
	H413	H	0.319370	-0.468222	0.369437
	O414	O	0.546664	0.407088	0.517765
	H415	H	0.543658	0.416006	0.510466
	H416	H	0.562956	0.401823	0.516495
	O417	O	0.649504	0.362573	0.435035
	H418	H	0.647390	0.370131	0.423081
	H419	H	0.643294	0.354212	0.416507
