data_Molecule from HDF5

_cell_length_a		16.297491
_cell_length_b		16.201195
_cell_length_c		16.327595
_cell_angle_alpha	90.035348
_cell_angle_beta	90.557367
_cell_angle_gamma	89.648342
_symmetry_space_group_name_H-M	'P 1'
_symmetry_Int_Tables_number		1

loop_
	_symmetry_equiv_pos_as_xyz
	x,y,z

loop_
	_atom_site_label
	_atom_site_type_symbol
	_atom_site_fract_x
	_atom_site_fract_y
	_atom_site_fract_z
	H0	H	0.407203	0.831917	0.709096
	H1	H	0.608496	0.157664	0.710961
	H2	H	0.606733	0.832300	0.276455
	H3	H	0.405475	0.159647	0.279415
	H4	H	0.723283	0.392219	0.830900
	H5	H	0.725704	0.596220	0.154211
	H6	H	0.287442	0.597751	0.831203
	H7	H	0.294306	0.394688	0.155348
	H8	H	0.844748	0.713248	0.391499
	H9	H	0.170314	0.708985	0.594266
	H10	H	0.843721	0.281559	0.591868
	H11	H	0.168796	0.276916	0.395822
	H12	H	0.844613	0.395542	0.708472
	H13	H	0.167487	0.599271	0.715226
	H14	H	0.845622	0.598056	0.273387
	H15	H	0.169010	0.390965	0.278016
	H16	H	0.404364	0.712161	0.830629
	H17	H	0.608471	0.710932	0.154374
	H18	H	0.607573	0.277299	0.831219
	H19	H	0.413014	0.281958	0.156736
	H20	H	0.723927	0.831898	0.392150
	H21	H	0.722128	0.158377	0.595353
	H22	H	0.294544	0.830780	0.592000
	H23	H	0.290235	0.158271	0.394768
	H24	H	0.907977	0.331600	0.207486
	H25	H	0.111520	0.656644	0.213032
	H26	H	0.106765	0.331447	0.777695
	H27	H	0.903040	0.658038	0.774534
	H28	H	0.223050	0.892439	0.331743
	H29	H	0.224974	0.095697	0.656186
	H30	H	0.785396	0.099319	0.333159
	H31	H	0.792272	0.894330	0.656040
	H32	H	0.344601	0.211785	0.893661
	H33	H	0.671732	0.207597	0.094013
	H34	H	0.344503	0.780554	0.090314
	H35	H	0.669733	0.776808	0.893177
	H36	H	0.343379	0.895889	0.205916
	H37	H	0.667234	0.098622	0.215037
	H38	H	0.344497	0.097770	0.775149
	H39	H	0.670262	0.893616	0.778097
	H40	H	0.903641	0.211602	0.331596
	H41	H	0.105834	0.210183	0.656964
	H42	H	0.107252	0.777899	0.332291
	H43	H	0.910305	0.780140	0.656885
	H44	H	0.223004	0.331237	0.893198
	H45	H	0.224103	0.658148	0.094474
	H46	H	0.794133	0.331246	0.090306
	H47	H	0.786558	0.657456	0.887981
	H48	H	0.417563	0.111954	0.587618
	H49	H	0.594215	0.881483	0.579867
	H50	H	0.602231	0.116766	0.392534
	H51	H	0.410444	0.874862	0.394953
	H52	H	0.599737	0.404674	0.108415
	H53	H	0.601712	0.582709	0.876234
	H54	H	0.412779	0.584112	0.108119
	H55	H	0.412737	0.407545	0.878059
	H56	H	0.121599	0.589534	0.409993
	H57	H	0.890590	0.584264	0.590333
	H58	H	0.122998	0.400988	0.587386
	H59	H	0.887678	0.398362	0.393682
	H60	H	0.122764	0.403801	0.583968
	H61	H	0.889929	0.594686	0.582255
	H62	H	0.119902	0.577158	0.402824
	H63	H	0.892800	0.403774	0.406531
	H64	H	0.420937	0.585969	0.105982
	H65	H	0.592149	0.581278	0.879487
	H66	H	0.602694	0.400129	0.109424
	H67	H	0.418721	0.402115	0.878141
	H68	H	0.581235	0.106581	0.402640
	H69	H	0.606712	0.876432	0.583433
	H70	H	0.416893	0.109539	0.580409
	H71	H	0.421562	0.879064	0.396743
	H72	H	0.907940	0.612586	0.076064
	H73	H	0.107732	0.375124	0.089715
	H74	H	0.101183	0.613086	0.900609
	H75	H	0.921648	0.381234	0.901183
	H76	H	0.107563	0.889906	0.615623
	H77	H	0.099642	0.090208	0.377250
	H78	H	0.922405	0.084675	0.605888
	H79	H	0.915554	0.904615	0.379476
	H80	H	0.619727	0.076686	0.905068
	H81	H	0.393142	0.084146	0.082334
	H82	H	0.622222	0.907205	0.088089
	H83	H	0.390601	0.901640	0.898445
	H84	H	0.623889	0.901715	0.088083
	H85	H	0.388363	0.089713	0.091121
	H86	H	0.625011	0.085863	0.892376
	H87	H	0.393422	0.905323	0.903542
	H88	H	0.914388	0.096148	0.612401
	H89	H	0.100737	0.081392	0.378825
	H90	H	0.110595	0.915651	0.609004
	H91	H	0.913787	0.904995	0.377812
	H92	H	0.092464	0.610398	0.901311
	H93	H	0.093831	0.379585	0.089197
	H94	H	0.915297	0.614800	0.093946
	H95	H	0.911134	0.378838	0.904895
	H96	H	0.410975	0.112914	0.584314
	H97	H	0.597183	0.877107	0.592647
	H98	H	0.602985	0.109399	0.416170
	H99	H	0.413477	0.879480	0.405563
	H100	H	0.604185	0.404621	0.108691
	H101	H	0.594795	0.590101	0.876074
	H102	H	0.416283	0.592038	0.109901
	H103	H	0.411903	0.399982	0.875576
	H104	H	0.125921	0.588637	0.395599
	H105	H	0.894214	0.583005	0.577602
	H106	H	0.122448	0.404967	0.588175
	H107	H	0.892050	0.412519	0.394675
	H108	H	0.926266	0.607104	0.079362
	H109	H	0.102323	0.380654	0.076938
	H110	H	0.097771	0.609598	0.908598
	H111	H	0.913798	0.376559	0.893295
	H112	H	0.087334	0.903586	0.604478
	H113	H	0.092504	0.085955	0.379901
	H114	H	0.907584	0.082778	0.610805
	H115	H	0.915264	0.906828	0.379136
	H116	H	0.624495	0.093492	0.907452
	H117	H	0.389655	0.095299	0.082063
	H118	H	0.621948	0.904133	0.082953
	H119	H	0.392214	0.908769	0.896730
	C120	C	0.386251	0.003641	0.613921
	C121	C	0.628633	0.986480	0.615133
	C122	C	0.626471	0.003459	0.372852
	C123	C	0.384461	0.986210	0.371010
	C124	C	0.630690	0.372568	0.001699
	C125	C	0.628184	0.615572	0.983875
	C126	C	0.384858	0.617373	0.001257
	C127	C	0.386952	0.373988	0.984713
	C128	C	0.015760	0.616747	0.371240
	C129	C	0.998183	0.617162	0.615092
	C130	C	0.015268	0.374326	0.614929
	C131	C	0.998100	0.373141	0.370517
	C132	C	0.887692	0.503385	0.112227
	C133	C	0.130607	0.486030	0.115335
	C134	C	0.127535	0.503374	0.872677
	C135	C	0.884351	0.486547	0.869867
	C136	C	0.130230	0.872708	0.502617
	C137	C	0.128220	0.116231	0.485715
	C138	C	0.883594	0.118035	0.502689
	C139	C	0.886510	0.874998	0.485875
	C140	C	0.515626	0.116623	0.871444
	C141	C	0.498449	0.118131	0.115418
	C142	C	0.515235	0.874903	0.113898
	C143	C	0.499044	0.873884	0.870756
	C144	C	0.387714	0.880634	0.670425
	C145	C	0.627719	0.109190	0.672137
	C146	C	0.626566	0.880903	0.315280
	C147	C	0.385391	0.110008	0.316537
	C148	C	0.685285	0.373049	0.879229
	C149	C	0.686550	0.615668	0.105805
	C150	C	0.326701	0.616970	0.879479
	C151	C	0.332394	0.375451	0.106965
	C152	C	0.893614	0.674658	0.371405
	C153	C	0.121054	0.672492	0.614678
	C154	C	0.892541	0.319111	0.612426
	C155	C	0.120155	0.315379	0.374584
	C156	C	0.892886	0.375892	0.670378
	C157	C	0.119531	0.617735	0.674868
	C158	C	0.893972	0.617435	0.312648
	C159	C	0.120322	0.372214	0.316085
	C160	C	0.384475	0.674160	0.879203
	C161	C	0.628425	0.672909	0.105763
	C162	C	0.627939	0.315682	0.879641
	C163	C	0.391274	0.319142	0.107661
	C164	C	0.684262	0.880696	0.373328
	C165	C	0.684515	0.109359	0.614772
	C166	C	0.331542	0.880053	0.612198
	C167	C	0.328106	0.109361	0.373869
	C168	C	0.888679	0.380406	0.168727
	C169	C	0.130401	0.608387	0.173330
	C170	C	0.126549	0.380476	0.816190
	C171	C	0.883833	0.609207	0.812987
	C172	C	0.185128	0.873456	0.380282
	C173	C	0.185664	0.115464	0.607670
	C174	C	0.825273	0.117843	0.381134
	C175	C	0.830721	0.875221	0.607757
	C176	C	0.393270	0.173763	0.872995
	C177	C	0.621965	0.171564	0.114374
	C178	C	0.392870	0.818637	0.110805
	C179	C	0.621250	0.815817	0.873041
	C180	C	0.392430	0.876070	0.168417
	C181	C	0.619674	0.117181	0.174725
	C182	C	0.393417	0.117143	0.813898
	C183	C	0.621457	0.873705	0.815633
	C184	C	0.883831	0.174242	0.380449
	C185	C	0.126192	0.172057	0.608264
	C186	C	0.127810	0.816246	0.380455
	C187	C	0.889328	0.818206	0.608050
	C188	C	0.184371	0.380355	0.873538
	C189	C	0.186590	0.609055	0.114565
	C190	C	0.831998	0.380258	0.110591
	C191	C	0.826028	0.609059	0.869704
	C192	C	0.408678	0.089151	0.591045
	C193	C	0.606045	0.900754	0.592093
	C194	C	0.602339	0.088924	0.396605
	C195	C	0.408203	0.900142	0.392612
	C196	C	0.608762	0.396108	0.086695
	C197	C	0.603532	0.591659	0.899261
	C198	C	0.409471	0.594080	0.086078
	C199	C	0.408253	0.396570	0.899341
	C200	C	0.100506	0.592212	0.395659
	C201	C	0.913495	0.594079	0.590425
	C202	C	0.100517	0.396866	0.592980
	C203	C	0.912930	0.397618	0.392099
	C204	C	0.909940	0.589084	0.089677
	C205	C	0.107941	0.400728	0.092090
	C206	C	0.103939	0.588862	0.896388
	C207	C	0.908265	0.401121	0.893076
	C208	C	0.108256	0.896136	0.587562
	C209	C	0.104559	0.092797	0.400820
	C210	C	0.907778	0.094734	0.587638
	C211	C	0.908523	0.898476	0.400883
	C212	C	0.601036	0.092500	0.894839
	C213	C	0.412644	0.096287	0.092012
	C214	C	0.600518	0.897589	0.092534
	C215	C	0.414015	0.898053	0.893061
	Zn216	Zn	0.507365	-0.005108	0.742078
	Zn217	Zn	0.505416	-0.004277	0.242785
	Zn218	Zn	0.757778	0.495213	-0.008259
	Zn219	Zn	0.257733	0.494661	-0.007294
	Zn220	Zn	0.007711	0.745535	0.493919
	Zn221	Zn	0.005791	0.245762	0.494006
	Zn222	Zn	0.006588	0.495702	0.743113
	Zn223	Zn	0.007811	0.494782	0.241932
	Zn224	Zn	0.506972	0.745310	-0.007261
	Zn225	Zn	0.508529	0.244995	-0.006351
	Zn226	Zn	0.756115	-0.004580	0.494431
	Zn227	Zn	0.257710	-0.006038	0.493749
	N228	N	0.421248	0.958363	0.671514
	N229	N	0.593555	0.031799	0.672436
	N230	N	0.591312	0.958327	0.314913
	N231	N	0.419558	0.032131	0.314321
	N232	N	0.687337	0.407604	0.955974
	N233	N	0.686621	0.581078	0.028898
	N234	N	0.326722	0.582608	0.956445
	N235	N	0.329510	0.408729	0.029443
	N236	N	0.970345	0.674565	0.406986
	N237	N	0.044665	0.672103	0.578175
	N238	N	0.969571	0.317899	0.578812
	N239	N	0.042918	0.315630	0.407579
	N240	N	0.970208	0.409546	0.671994
	N241	N	0.042396	0.583991	0.675285
	N242	N	0.971069	0.582398	0.312418
	N243	N	0.043290	0.407081	0.313244
	N244	N	0.420455	0.674335	0.955798
	N245	N	0.592900	0.673033	0.029007
	N246	N	0.594974	0.314910	0.956987
	N247	N	0.424410	0.318070	0.030593
	N248	N	0.684577	0.958010	0.408074
	N249	N	0.685134	0.032080	0.580035
	N250	N	0.330443	0.957444	0.577825
	N251	N	0.327267	0.031374	0.406858
	N252	N	0.922634	0.457994	0.169886
	N253	N	0.096502	0.530908	0.174216
	N254	N	0.092035	0.458116	0.815396
	N255	N	0.919735	0.532321	0.813169
	N256	N	0.186689	0.907784	0.457368
	N257	N	0.187064	0.081607	0.530467
	N258	N	0.824948	0.083647	0.458268
	N259	N	0.829020	0.909937	0.530850
	N260	N	0.470404	0.173878	0.907764
	N261	N	0.545577	0.172069	0.078146
	N262	N	0.470149	0.817675	0.077657
	N263	N	0.544050	0.815523	0.906361
	N264	N	0.469357	0.910494	0.170414
	N265	N	0.541639	0.084922	0.175672
	N266	N	0.470588	0.082213	0.812972
	N267	N	0.544602	0.908972	0.814121
	N268	N	0.919553	0.174311	0.456944
	N269	N	0.091253	0.172853	0.531395
	N270	N	0.094377	0.815498	0.457301
	N271	N	0.923260	0.817949	0.531209
	N272	N	0.184989	0.457710	0.908111
	N273	N	0.186893	0.532064	0.079212
	N274	N	0.831045	0.457599	0.076109
	N275	N	0.826048	0.531689	0.904324
	O276	O	-0.102426	0.134466	-0.019754
	H277	H	-0.104139	0.142294	-0.031673
	H278	H	-0.106741	0.140771	-0.019960
	O279	O	0.633044	0.526884	0.541398
	H280	H	0.635981	0.526066	0.532728
	H281	H	0.632783	0.528676	0.542482
	O282	O	0.950267	0.012233	-0.031648
	H283	H	0.961493	0.001341	-0.036714
	H284	H	0.954181	0.009583	-0.035921
	O285	O	0.138410	1.135010	0.095143
	H286	H	0.142507	1.133821	0.084782
	H287	H	0.151132	1.136345	0.090063
	O288	O	-0.107136	-0.039227	1.023461
	H289	H	-0.111279	-0.026834	1.020995
	H290	H	-0.108226	-0.040345	1.035901
	O291	O	0.349237	0.530934	0.437340
	H292	H	0.356278	0.536464	0.435394
	H293	H	0.346841	0.533308	0.456290
	O294	O	1.090746	1.015390	1.057724
	H295	H	1.097135	1.011752	1.058133
	H296	H	1.098983	1.022416	1.054176
	O297	O	-0.080444	0.127684	-0.054583
	H298	H	-0.076732	0.140486	-0.062725
	H299	H	-0.073208	0.136789	-0.058296
	O300	O	0.626726	0.531675	0.634395
	H301	H	0.623002	0.543458	0.635530
	H302	H	0.638812	0.544509	0.634013
	O303	O	0.061487	0.973718	0.893402
	H304	H	0.083154	0.980351	0.899176
	H305	H	0.054599	0.974208	0.895151
	O306	O	0.941164	1.004167	0.170205
	H307	H	0.954241	1.022114	0.170572
	H308	H	0.929869	1.011509	0.161232
	O309	O	1.110129	-0.116655	-0.080909
	H310	H	1.102131	-0.118364	-0.069072
	H311	H	1.113844	-0.121602	-0.082724
	O312	O	0.071948	0.056070	0.922696
	H313	H	0.061733	0.061792	0.912323
	H314	H	0.083761	0.040744	0.921421
	O315	O	0.476540	0.572421	0.519728
	H316	H	0.491716	0.563557	0.526073
	H317	H	0.470775	0.560740	0.537355
	O318	O	0.496199	0.341696	0.543865
	H319	H	0.510964	0.349169	0.549304
	H320	H	0.515047	0.352499	0.544194
	O321	O	0.379194	0.497616	0.465433
	H322	H	0.373264	0.518974	0.471376
	H323	H	0.386633	0.500988	0.469793
	O324	O	0.601038	0.463847	0.495606
	H325	H	0.607921	0.457459	0.486490
	H326	H	0.607848	0.463874	0.495658
	O327	O	-0.009756	0.882985	0.898326
	H328	H	-0.015063	0.877394	0.908389
	H329	H	-0.013268	0.880677	0.896852
	O330	O	0.383072	0.602487	0.363902
	H331	H	0.372873	0.599355	0.362114
	H332	H	0.395508	0.593236	0.368870
	O333	O	-0.370850	0.593275	0.528077
	H334	H	-0.380431	0.604814	0.513661
	H335	H	-0.365431	0.601786	0.538144
	O336	O	1.132449	1.080698	0.951359
	H337	H	1.130297	1.074165	0.940884
	H338	H	1.138069	1.080366	0.950674
	O339	O	0.509087	0.637630	0.506954
	H340	H	0.511867	0.634186	0.510427
	H341	H	0.514425	0.631846	0.504773
	O342	O	0.959274	-0.111634	0.120643
	H343	H	0.952050	-0.119671	0.135256
	H344	H	0.943906	-0.116708	0.128448
	O345	O	0.486623	0.322361	0.506825
	H346	H	0.471902	0.317311	0.488744
	H347	H	0.498907	0.330866	0.500955
	O348	O	1.070869	1.034487	1.162288
	H349	H	1.098850	1.040716	1.168379
	H350	H	1.070906	1.044365	1.162057
	O351	O	0.481309	1.382909	-0.541169
	H352	H	0.475449	1.384121	-0.537050
	H353	H	0.485972	1.369958	-0.549852
	O354	O	-0.001561	0.057902	-0.034905
	H355	H	0.007726	0.058304	-0.038909
	H356	H	-0.012602	0.055972	-0.026518
	O357	O	-0.087458	0.812368	1.066662
	H358	H	-0.093285	0.810653	1.062733
	H359	H	-0.092186	0.807256	1.065661
	O360	O	0.427476	0.328616	0.670487
	H361	H	0.418466	0.328842	0.657363
	H362	H	0.425010	0.308342	0.678644
	O363	O	0.513404	0.383629	0.424764
	H364	H	0.515517	0.385531	0.429407
	H365	H	0.523119	0.388162	0.423199
	O366	O	0.419535	0.534973	0.522245
	H367	H	0.432224	0.516594	0.514698
	H368	H	0.406556	0.536922	0.537825
	O369	O	0.556697	0.564671	0.419090
	H370	H	0.552560	0.566751	0.418992
	H371	H	0.547772	0.575668	0.419963
	O372	O	0.561297	0.378337	0.335626
	H373	H	0.550024	0.373421	0.346597
	H374	H	0.560677	0.376692	0.321422
	O375	O	0.381320	0.467642	0.582304
	H376	H	0.361441	0.466155	0.593457
	H377	H	0.400197	0.454200	0.583909
	O378	O	0.045897	0.918820	1.101696
	H379	H	0.042481	0.906508	1.104722
	H380	H	0.038506	0.930560	1.105560
	O381	O	0.651103	0.513779	0.549647
	H382	H	0.655601	0.525656	0.557971
	H383	H	0.652221	0.523795	0.539333
	O384	O	0.031373	0.973248	-0.123632
	H385	H	0.028686	0.961596	-0.120484
	H386	H	0.031562	0.960812	-0.120919
	O387	O	1.364199	-0.405587	1.519954
	H388	H	1.352695	-0.408885	1.521771
	H389	H	1.362645	-0.408402	1.513642
	O390	O	-0.112075	0.880128	0.145749
	H391	H	-0.115742	0.882789	0.133217
	H392	H	-0.118731	0.899261	0.148928
	O393	O	0.940045	0.951401	0.010033
	H394	H	0.954510	0.959862	0.006978
	H395	H	0.945314	0.954733	0.015481
	O396	O	0.656207	0.490889	0.490307
	H397	H	0.650836	0.478476	0.503116
	H398	H	0.668559	0.481794	0.479402
	O399	O	-0.041237	1.139282	0.947961
	H400	H	-0.040315	1.136925	0.951692
	H401	H	-0.048445	1.135950	0.948289
	O402	O	1.129212	0.981323	1.042811
	H403	H	1.125386	0.968883	1.049774
	H404	H	1.122256	0.965628	1.048388
	O405	O	0.457401	0.628354	0.351922
	H406	H	0.445775	0.619435	0.358319
	H407	H	0.439954	0.649453	0.335349
