data_Molecule from HDF5

_cell_length_a		16.220551
_cell_length_b		16.294011
_cell_length_c		16.241740
_cell_angle_alpha	89.985233
_cell_angle_beta	90.113266
_cell_angle_gamma	89.623718
_symmetry_space_group_name_H-M	'P 1'
_symmetry_Int_Tables_number		1

loop_
	_symmetry_equiv_pos_as_xyz
	x,y,z

loop_
	_atom_site_label
	_atom_site_type_symbol
	_atom_site_fract_x
	_atom_site_fract_y
	_atom_site_fract_z
	H0	H	0.405653	0.833205	0.715329
	H1	H	0.599570	0.160306	0.716605
	H2	H	0.600826	0.833228	0.287492
	H3	H	0.401708	0.160904	0.286274
	H4	H	0.716709	0.399179	0.836624
	H5	H	0.715609	0.595436	0.164984
	H6	H	0.288450	0.595960	0.836613
	H7	H	0.289454	0.400151	0.165270
	H8	H	0.838477	0.713866	0.402504
	H9	H	0.166122	0.711315	0.602194
	H10	H	0.837613	0.285577	0.600114
	H11	H	0.164973	0.280521	0.401859
	H12	H	0.838275	0.400784	0.714716
	H13	H	0.166938	0.594174	0.714657
	H14	H	0.837841	0.598455	0.287267
	H15	H	0.166065	0.397250	0.288143
	H16	H	0.401795	0.713539	0.837575
	H17	H	0.600401	0.711027	0.164991
	H18	H	0.602286	0.282083	0.837013
	H19	H	0.403525	0.283014	0.164512
	H20	H	0.716614	0.832954	0.404642
	H21	H	0.714378	0.161628	0.599671
	H22	H	0.288766	0.833063	0.600603
	H23	H	0.285267	0.160851	0.402549
	H24	H	0.905662	0.333861	0.215671
	H25	H	0.100684	0.661898	0.216741
	H26	H	0.102508	0.333885	0.787689
	H27	H	0.903138	0.661403	0.787109
	H28	H	0.216744	0.898139	0.337783
	H29	H	0.215298	0.094701	0.665508
	H30	H	0.787527	0.095110	0.337059
	H31	H	0.790469	0.901673	0.666242
	H32	H	0.338904	0.214373	0.901413
	H33	H	0.665661	0.209934	0.101110
	H34	H	0.338129	0.784149	0.099973
	H35	H	0.666366	0.782844	0.902521
	H36	H	0.337566	0.899580	0.215317
	H37	H	0.665289	0.094202	0.216368
	H38	H	0.337672	0.096997	0.787498
	H39	H	0.666221	0.898465	0.787828
	H40	H	0.900422	0.213583	0.338005
	H41	H	0.100674	0.212082	0.665369
	H42	H	0.103510	0.780585	0.338442
	H43	H	0.904687	0.784335	0.666270
	H44	H	0.218628	0.334251	0.904412
	H45	H	0.215934	0.662483	0.099359
	H46	H	0.788657	0.334565	0.100554
	H47	H	0.787891	0.661808	0.903687
	H48	H	0.406610	0.113081	0.591981
	H49	H	0.602403	0.879614	0.592598
	H50	H	0.597013	0.113288	0.410643
	H51	H	0.405807	0.878753	0.404816
	H52	H	0.597454	0.399108	0.119803
	H53	H	0.594964	0.604577	0.879137
	H54	H	0.410943	0.589514	0.117450
	H55	H	0.411888	0.399601	0.883120
	H56	H	0.115015	0.577889	0.408960
	H57	H	0.885651	0.587187	0.596763
	H58	H	0.120845	0.403595	0.598561
	H59	H	0.882357	0.401871	0.403405
	H60	H	0.119793	0.399658	0.591676
	H61	H	0.882134	0.596795	0.597168
	H62	H	0.123656	0.594662	0.400718
	H63	H	0.885031	0.402984	0.413680
	H64	H	0.410488	0.594551	0.118386
	H65	H	0.607023	0.581879	0.883162
	H66	H	0.599060	0.407850	0.117258
	H67	H	0.405138	0.408293	0.883542
	H68	H	0.593881	0.114421	0.404532
	H69	H	0.596193	0.879120	0.601934
	H70	H	0.407397	0.114609	0.596399
	H71	H	0.415101	0.881609	0.405959
	H72	H	0.903792	0.615877	0.094951
	H73	H	0.094280	0.382682	0.094507
	H74	H	0.104345	0.615803	0.913178
	H75	H	0.913798	0.383408	0.911221
	H76	H	0.093654	0.889550	0.623619
	H77	H	0.089914	0.080408	0.388399
	H78	H	0.918213	0.092109	0.616191
	H79	H	0.910596	0.906761	0.385947
	H80	H	0.619019	0.085875	0.906298
	H81	H	0.381497	0.098035	0.097651
	H82	H	0.621630	0.898845	0.098966
	H83	H	0.385083	0.910737	0.904187
	H84	H	0.618098	0.901731	0.088746
	H85	H	0.386777	0.093264	0.084971
	H86	H	0.620365	0.093404	0.907616
	H87	H	0.382272	0.899367	0.905615
	H88	H	0.903003	0.101675	0.622442
	H89	H	0.085722	0.097707	0.385354
	H90	H	0.109018	0.910899	0.620425
	H91	H	0.911201	0.903084	0.384598
	H92	H	0.094051	0.617762	0.897514
	H93	H	0.097412	0.382345	0.093505
	H94	H	0.911173	0.614786	0.099257
	H95	H	0.906190	0.380336	0.910256
	H96	H	0.410584	0.112629	0.594649
	H97	H	0.591819	0.882620	0.592705
	H98	H	0.590343	0.112336	0.410326
	H99	H	0.408353	0.882126	0.413995
	H100	H	0.590696	0.404530	0.115992
	H101	H	0.581856	0.585328	0.889273
	H102	H	0.406262	0.591106	0.118885
	H103	H	0.415333	0.409254	0.886579
	H104	H	0.117335	0.595334	0.420283
	H105	H	0.886546	0.592617	0.588973
	H106	H	0.117842	0.407533	0.591886
	H107	H	0.885467	0.411179	0.407021
	H108	H	0.910323	0.612901	0.090511
	H109	H	0.097104	0.381648	0.096326
	H110	H	0.086596	0.610283	0.912905
	H111	H	0.911611	0.380043	0.904060
	H112	H	0.083561	0.911651	0.612036
	H113	H	0.102304	0.091814	0.381680
	H114	H	0.901926	0.084426	0.618482
	H115	H	0.908186	0.904599	0.384374
	H116	H	0.617742	0.089700	0.913037
	H117	H	0.385763	0.083303	0.095776
	H118	H	0.618231	0.909227	0.097047
	H119	H	0.386768	0.905650	0.914281
	C120	C	0.380704	0.005239	0.622960
	C121	C	0.624159	0.988693	0.623938
	C122	C	0.623287	0.005286	0.380124
	C123	C	0.380012	0.989090	0.379822
	C124	C	0.624929	0.375010	0.009650
	C125	C	0.623124	0.618820	0.992182
	C126	C	0.380634	0.619887	0.009627
	C127	C	0.381910	0.376785	0.992665
	C128	C	0.010454	0.619472	0.380228
	C129	C	0.993697	0.619481	0.623192
	C130	C	0.010896	0.375963	0.622779
	C131	C	0.992780	0.375907	0.379873
	C132	C	0.880432	0.506414	0.123846
	C133	C	0.124767	0.490035	0.123899
	C134	C	0.124486	0.506444	0.879647
	C135	C	0.881406	0.489574	0.879961
	C136	C	0.124456	0.874992	0.510468
	C137	C	0.122231	0.118706	0.493068
	C138	C	0.878829	0.120370	0.510319
	C139	C	0.881450	0.876698	0.493437
	C140	C	0.510794	0.119231	0.879921
	C141	C	0.493030	0.119074	0.122446
	C142	C	0.510446	0.875540	0.122985
	C143	C	0.493373	0.876416	0.879974
	C144	C	0.384105	0.882106	0.678087
	C145	C	0.620569	0.111681	0.678812
	C146	C	0.621401	0.881968	0.325362
	C147	C	0.381553	0.112181	0.324222
	C148	C	0.679388	0.378237	0.885839
	C149	C	0.677800	0.615672	0.116019
	C150	C	0.325368	0.617295	0.885948
	C151	C	0.326676	0.379137	0.116109
	C152	C	0.887285	0.675595	0.382105
	C153	C	0.117377	0.673357	0.621542
	C154	C	0.887117	0.322456	0.620349
	C155	C	0.116089	0.319050	0.381611
	C156	C	0.887343	0.379820	0.677354
	C157	C	0.117463	0.615370	0.677805
	C158	C	0.887030	0.618182	0.324876
	C159	C	0.116777	0.377356	0.325517
	C160	C	0.381700	0.675686	0.886533
	C161	C	0.620261	0.673038	0.115926
	C162	C	0.622885	0.319929	0.886043
	C163	C	0.383832	0.321235	0.115898
	C164	C	0.679126	0.882090	0.383308
	C165	C	0.677748	0.112241	0.620894
	C166	C	0.326608	0.881873	0.620229
	C167	C	0.323885	0.112108	0.382159
	C168	C	0.884273	0.383134	0.178352
	C169	C	0.121820	0.612874	0.179177
	C170	C	0.122638	0.382994	0.825348
	C171	C	0.883245	0.612572	0.824965
	C172	C	0.179274	0.877342	0.386688
	C173	C	0.177703	0.115966	0.616445
	C174	C	0.824263	0.116884	0.386444
	C175	C	0.827420	0.880035	0.617138
	C176	C	0.387583	0.175886	0.881210
	C177	C	0.616423	0.172839	0.121235
	C178	C	0.386956	0.821380	0.120578
	C179	C	0.617171	0.820710	0.882188
	C180	C	0.386760	0.878700	0.177891
	C181	C	0.616373	0.115454	0.178364
	C182	C	0.387003	0.117381	0.824834
	C183	C	0.617177	0.878321	0.825413
	C184	C	0.880650	0.175287	0.386834
	C185	C	0.120454	0.173876	0.616541
	C186	C	0.122809	0.819069	0.387167
	C187	C	0.884460	0.822109	0.617199
	C188	C	0.180296	0.383027	0.883285
	C189	C	0.178806	0.613308	0.120619
	C190	C	0.825965	0.383396	0.121328
	C191	C	0.825775	0.612798	0.882802
	C192	C	0.401970	0.091206	0.600956
	C193	C	0.603169	0.902519	0.602136
	C194	C	0.600317	0.091234	0.401937
	C195	C	0.402998	0.903160	0.401760
	C196	C	0.602331	0.397221	0.095481
	C197	C	0.601007	0.597098	0.905980
	C198	C	0.402806	0.598079	0.095841
	C199	C	0.404302	0.399104	0.906851
	C200	C	0.096486	0.596074	0.403136
	C201	C	0.907046	0.598553	0.600818
	C202	C	0.097304	0.397209	0.600508
	C203	C	0.906525	0.398636	0.401616
	C204	C	0.902141	0.592384	0.101644
	C205	C	0.102895	0.404246	0.101403
	C206	C	0.101826	0.592537	0.901391
	C207	C	0.903910	0.403443	0.902094
	C208	C	0.102009	0.897281	0.596404
	C209	C	0.099493	0.096583	0.407198
	C210	C	0.901042	0.098876	0.596506
	C211	C	0.903587	0.898369	0.407173
	C212	C	0.596941	0.096332	0.902321
	C213	C	0.406956	0.097800	0.099522
	C214	C	0.596920	0.897038	0.101353
	C215	C	0.406957	0.898580	0.901641
	Zn216	Zn	0.501988	-0.002647	0.752106
	Zn217	Zn	0.501787	-0.002786	0.250880
	Zn218	Zn	0.752348	0.497412	0.001115
	Zn219	Zn	0.253258	0.498486	0.001321
	Zn220	Zn	0.002596	0.747463	0.502250
	Zn221	Zn	0.001135	0.247926	0.501656
	Zn222	Zn	0.002581	0.497546	0.750589
	Zn223	Zn	0.002430	0.498121	0.252577
	Zn224	Zn	0.501697	0.748065	0.000961
	Zn225	Zn	0.502703	0.247713	0.001136
	Zn226	Zn	0.752120	-0.002536	0.502033
	Zn227	Zn	0.251115	-0.003030	0.501606
	N228	N	0.417103	0.959665	0.679606
	N229	N	0.587918	0.033923	0.680829
	N230	N	0.587226	0.959532	0.323390
	N231	N	0.415748	0.034662	0.322647
	N232	N	0.680869	0.411773	0.963712
	N233	N	0.679473	0.582299	0.038264
	N234	N	0.324590	0.583325	0.963445
	N235	N	0.325604	0.413297	0.038810
	N236	N	0.964982	0.676522	0.416016
	N237	N	0.039361	0.676023	0.588119
	N238	N	0.965166	0.319806	0.587165
	N239	N	0.037971	0.317719	0.414633
	N240	N	0.965300	0.412265	0.679019
	N241	N	0.039498	0.582432	0.678764
	N242	N	0.964870	0.583813	0.323741
	N243	N	0.039201	0.411920	0.324234
	N244	N	0.415503	0.677243	0.964223
	N245	N	0.587114	0.675280	0.037787
	N246	N	0.589762	0.317793	0.963985
	N247	N	0.417367	0.319527	0.038179
	N248	N	0.680150	0.959737	0.416821
	N249	N	0.680045	0.034723	0.587500
	N250	N	0.324115	0.959512	0.586732
	N251	N	0.322768	0.034521	0.415840
	N252	N	0.917486	0.460666	0.180007
	N253	N	0.088887	0.535332	0.181159
	N254	N	0.088803	0.460634	0.823047
	N255	N	0.917250	0.534895	0.823142
	N256	N	0.180455	0.911338	0.464158
	N257	N	0.178830	0.082395	0.538783
	N258	N	0.822655	0.083805	0.464388
	N259	N	0.825756	0.913352	0.539504
	N260	N	0.465478	0.177159	0.914726
	N261	N	0.538615	0.175316	0.087250
	N262	N	0.464980	0.819168	0.087319
	N263	N	0.539370	0.819570	0.915653
	N264	N	0.464599	0.911541	0.179559
	N265	N	0.538544	0.082742	0.179199
	N266	N	0.464657	0.082795	0.823872
	N267	N	0.539355	0.912282	0.823914
	N268	N	0.913952	0.177743	0.464893
	N269	N	0.086784	0.175809	0.538719
	N270	N	0.089456	0.817515	0.465061
	N271	N	0.917470	0.819694	0.539010
	N272	N	0.181336	0.460722	0.916582
	N273	N	0.180954	0.535739	0.086949
	N274	N	0.823551	0.461045	0.088031
	N275	N	0.824742	0.535295	0.916449
	O276	O	0.917867	1.005656	-0.011361
	H277	H	0.918673	1.003757	-0.016753
	H278	H	0.916072	1.003110	-0.007874
	O279	O	-0.029957	0.011782	-0.039727
	H280	H	-0.032468	0.007125	-0.046609
	H281	H	-0.042360	0.011523	-0.040989
	O282	O	-0.033310	0.017466	1.065586
	H283	H	-0.036705	0.020370	1.057111
	H284	H	-0.028050	0.026823	1.065608
	O285	O	0.512743	0.484989	0.469897
	H286	H	0.506395	0.478191	0.464561
	H287	H	0.521296	0.477608	0.470283
	O288	O	0.478991	0.519334	0.390172
	H289	H	0.478362	0.512442	0.393021
	H290	H	0.477440	0.520249	0.384550
	O291	O	0.470471	0.452802	0.422604
	H292	H	0.470749	0.447184	0.429528
	H293	H	0.472568	0.446136	0.414466
	O294	O	-0.048075	0.017663	0.046002
	H295	H	-0.040187	0.025677	0.052134
	H296	H	-0.055369	0.012229	0.045372
	O297	O	0.493878	0.447327	0.410189
	H298	H	0.497948	0.455719	0.401670
	H299	H	0.490831	0.442994	0.409840
	O300	O	0.031199	1.044158	1.027452
	H301	H	0.030856	1.046479	1.025627
	H302	H	0.028240	1.040436	1.027661
	O303	O	0.510746	0.433287	0.427740
	H304	H	0.510656	0.428210	0.419486
	H305	H	0.506861	0.438528	0.429482
	O306	O	0.041275	0.042769	1.061169
	H307	H	0.032451	0.041181	1.050882
	H308	H	0.035080	0.044309	1.062051
	O309	O	1.015505	1.032521	1.004946
	H310	H	1.014676	1.035911	1.015177
	H311	H	1.024402	1.021295	1.012597
	O312	O	0.460519	0.452945	0.464338
	H313	H	0.463833	0.459539	0.461946
	H314	H	0.453993	0.443947	0.470495
	O315	O	0.510749	0.477468	0.433699
	H316	H	0.506601	0.482748	0.431348
	H317	H	0.505775	0.480310	0.420274
	O318	O	0.007044	1.066472	0.019768
	H319	H	0.007454	1.079686	0.014707
	H320	H	0.015997	1.054293	0.022411
	O321	O	0.994725	1.001465	0.027934
	H322	H	1.005003	1.002176	0.029224
	H323	H	0.990682	1.004386	0.023435
