data_Molecule from HDF5

_cell_length_a		16.429521
_cell_length_b		16.063137
_cell_length_c		16.199931
_cell_angle_alpha	89.596300
_cell_angle_beta	90.214083
_cell_angle_gamma	89.458441
_symmetry_space_group_name_H-M	'P 1'
_symmetry_Int_Tables_number		1

loop_
	_symmetry_equiv_pos_as_xyz
	x,y,z

loop_
	_atom_site_label
	_atom_site_type_symbol
	_atom_site_fract_x
	_atom_site_fract_y
	_atom_site_fract_z
	H0	H	0.407473	0.844130	0.712309
	H1	H	0.601178	0.175151	0.707684
	H2	H	0.603793	0.842476	0.284800
	H3	H	0.405352	0.174712	0.284655
	H4	H	0.718341	0.408621	0.834120
	H5	H	0.720106	0.612811	0.159832
	H6	H	0.281276	0.615736	0.836044
	H7	H	0.286213	0.405182	0.160873
	H8	H	0.841736	0.727167	0.399277
	H9	H	0.167481	0.717470	0.596258
	H10	H	0.840621	0.293212	0.596666
	H11	H	0.165552	0.292079	0.402472
	H12	H	0.839968	0.409717	0.713743
	H13	H	0.163510	0.607434	0.717244
	H14	H	0.840336	0.611407	0.282345
	H15	H	0.164091	0.405220	0.281080
	H16	H	0.402117	0.725118	0.834071
	H17	H	0.595619	0.717423	0.163260
	H18	H	0.597776	0.298457	0.831444
	H19	H	0.405352	0.293836	0.161732
	H20	H	0.721393	0.842742	0.398130
	H21	H	0.721660	0.171539	0.599613
	H22	H	0.294898	0.842125	0.598042
	H23	H	0.282583	0.169333	0.390881
	H24	H	0.902917	0.344417	0.213049
	H25	H	0.096898	0.675334	0.209949
	H26	H	0.099966	0.342736	0.788190
	H27	H	0.901703	0.674110	0.781886
	H28	H	0.222567	0.903489	0.334777
	H29	H	0.221926	0.105476	0.660593
	H30	H	0.785172	0.112824	0.336471
	H31	H	0.787731	0.901898	0.660264
	H32	H	0.340655	0.228912	0.893247
	H33	H	0.665150	0.220606	0.092364
	H34	H	0.338939	0.796562	0.097168
	H35	H	0.664498	0.791151	0.900750
	H36	H	0.342332	0.908758	0.216545
	H37	H	0.664729	0.109091	0.212757
	H38	H	0.342017	0.113650	0.776071
	H39	H	0.666087	0.907718	0.782643
	H40	H	0.904337	0.223256	0.334524
	H41	H	0.101239	0.216461	0.663728
	H42	H	0.101559	0.794795	0.333300
	H43	H	0.911782	0.796141	0.663544
	H44	H	0.220959	0.346316	0.897226
	H45	H	0.216450	0.673212	0.101218
	H46	H	0.788546	0.344852	0.098386
	H47	H	0.782714	0.673461	0.892094
	H48	H	0.408691	0.126094	0.583269
	H49	H	0.598214	0.894439	0.576597
	H50	H	0.601687	0.125346	0.410429
	H51	H	0.412768	0.890096	0.409663
	H52	H	0.591644	0.424358	0.110422
	H53	H	0.593773	0.600903	0.879727
	H54	H	0.406445	0.610645	0.119400
	H55	H	0.402355	0.426059	0.880435
	H56	H	0.115862	0.599986	0.411136
	H57	H	0.889103	0.603774	0.583104
	H58	H	0.118599	0.415099	0.595081
	H59	H	0.885083	0.412854	0.398914
	H60	H	0.119286	0.411047	0.594986
	H61	H	0.888767	0.596230	0.593435
	H62	H	0.117689	0.591898	0.399300
	H63	H	0.888653	0.413525	0.412260
	H64	H	0.398426	0.593882	0.116414
	H65	H	0.593761	0.598690	0.881393
	H66	H	0.591265	0.405707	0.116073
	H67	H	0.414907	0.424521	0.883921
	H68	H	0.597880	0.128811	0.400058
	H69	H	0.608340	0.885361	0.595727
	H70	H	0.408499	0.127784	0.586964
	H71	H	0.412263	0.888878	0.403853
	H72	H	0.901357	0.631331	0.091901
	H73	H	0.089307	0.392489	0.092838
	H74	H	0.089213	0.629815	0.899277
	H75	H	0.907044	0.392714	0.914819
	H76	H	0.099133	0.914249	0.614097
	H77	H	0.101688	0.094429	0.380333
	H78	H	0.908657	0.094841	0.616623
	H79	H	0.902699	0.915535	0.377363
	H80	H	0.613189	0.091446	0.909977
	H81	H	0.388927	0.103314	0.082389
	H82	H	0.617273	0.909338	0.083641
	H83	H	0.388448	0.922829	0.900891
	H84	H	0.616633	0.921914	0.092564
	H85	H	0.388592	0.094568	0.092627
	H86	H	0.621175	0.100523	0.889344
	H87	H	0.387759	0.917046	0.903250
	H88	H	0.915077	0.095869	0.615045
	H89	H	0.090819	0.095040	0.383981
	H90	H	0.103635	0.908215	0.618360
	H91	H	0.912800	0.929954	0.385256
	H92	H	0.085964	0.623796	0.911528
	H93	H	0.095588	0.392885	0.082393
	H94	H	0.914819	0.625781	0.092588
	H95	H	0.903436	0.387523	0.903215
	H96	H	0.411620	0.126916	0.585919
	H97	H	0.586614	0.891134	0.596902
	H98	H	0.590474	0.123442	0.407494
	H99	H	0.417979	0.890637	0.405878
	H100	H	0.607437	0.416367	0.117050
	H101	H	0.592396	0.600129	0.880488
	H102	H	0.416514	0.597007	0.111096
	H103	H	0.407283	0.414575	0.878900
	H104	H	0.121800	0.606156	0.399155
	H105	H	0.884594	0.608792	0.593556
	H106	H	0.117769	0.413947	0.592764
	H107	H	0.889627	0.424574	0.404140
	H108	H	0.907520	0.625670	0.080298
	H109	H	0.100965	0.388983	0.092362
	H110	H	0.098837	0.627939	0.910168
	H111	H	0.915727	0.392684	0.904775
	H112	H	0.107296	0.915984	0.615156
	H113	H	0.095495	0.104795	0.379559
	H114	H	0.911263	0.101252	0.616653
	H115	H	0.920785	0.913121	0.381959
	H116	H	0.619248	0.114576	0.909516
	H117	H	0.384517	0.106602	0.095434
	H118	H	0.621053	0.908326	0.098283
	H119	H	0.389168	0.921931	0.907138
	C120	C	0.383449	0.017132	0.616192
	C121	C	0.626111	0.999638	0.618545
	C122	C	0.626289	0.016808	0.376613
	C123	C	0.383503	0.998546	0.376285
	C124	C	0.624331	0.387280	0.005764
	C125	C	0.622104	0.629194	0.988816
	C126	C	0.377933	0.631634	0.007556
	C127	C	0.380463	0.389798	0.989138
	C128	C	0.011648	0.631020	0.374820
	C129	C	0.994887	0.629856	0.619570
	C130	C	0.011143	0.384963	0.622227
	C131	C	0.994557	0.386764	0.376826
	C132	C	0.879797	0.518457	0.118496
	C133	C	0.122821	0.500607	0.118985
	C134	C	0.121985	0.518219	0.878296
	C135	C	0.879530	0.500276	0.876613
	C136	C	0.129544	0.884296	0.506903
	C137	C	0.125767	0.127059	0.489466
	C138	C	0.882235	0.128634	0.507895
	C139	C	0.884329	0.887953	0.489704
	C140	C	0.510952	0.132707	0.873062
	C141	C	0.494255	0.130588	0.118618
	C142	C	0.511220	0.885795	0.120679
	C143	C	0.495132	0.888647	0.875472
	C144	C	0.387359	0.892970	0.673630
	C145	C	0.622534	0.124665	0.672183
	C146	C	0.624274	0.892062	0.321965
	C147	C	0.384781	0.124243	0.321418
	C148	C	0.679498	0.389200	0.882552
	C149	C	0.679791	0.629985	0.111663
	C150	C	0.320626	0.633523	0.884539
	C151	C	0.324736	0.387345	0.112165
	C152	C	0.890231	0.689064	0.377911
	C153	C	0.118059	0.681822	0.616979
	C154	C	0.889339	0.330113	0.618564
	C155	C	0.116903	0.330262	0.380678
	C156	C	0.888609	0.388862	0.676263
	C157	C	0.116178	0.626831	0.677169
	C158	C	0.889173	0.631251	0.319979
	C159	C	0.116054	0.386652	0.320423
	C160	C	0.380513	0.688175	0.883514
	C161	C	0.617937	0.682262	0.113444
	C162	C	0.619573	0.334543	0.881309
	C163	C	0.384346	0.332139	0.112441
	C164	C	0.682785	0.892241	0.378280
	C165	C	0.682414	0.123056	0.618223
	C166	C	0.331134	0.892112	0.616701
	C167	C	0.323911	0.121615	0.374177
	C168	C	0.882469	0.394131	0.175091
	C169	C	0.118601	0.625302	0.173604
	C170	C	0.120739	0.393033	0.824501
	C171	C	0.881033	0.624482	0.819489
	C172	C	0.184143	0.884925	0.383631
	C173	C	0.182701	0.125167	0.612357
	C174	C	0.824329	0.130840	0.385012
	C175	C	0.827395	0.884593	0.612091
	C176	C	0.389312	0.190382	0.873731
	C177	C	0.616485	0.184198	0.114455
	C178	C	0.388477	0.832545	0.118210
	C179	C	0.616561	0.830412	0.879512
	C180	C	0.389984	0.888689	0.177464
	C181	C	0.616385	0.128643	0.174139
	C182	C	0.389972	0.133059	0.815333
	C183	C	0.617296	0.888318	0.820706
	C184	C	0.883655	0.185789	0.384019
	C185	C	0.122610	0.180279	0.613912
	C186	C	0.124110	0.830796	0.382843
	C187	C	0.889379	0.832453	0.613795
	C188	C	0.180780	0.394710	0.878784
	C189	C	0.177941	0.624344	0.119456
	C190	C	0.825459	0.394294	0.118217
	C191	C	0.822230	0.624321	0.874742
	C192	C	0.403886	0.104418	0.592349
	C193	C	0.604089	0.912718	0.596159
	C194	C	0.603524	0.103397	0.399329
	C195	C	0.407453	0.912231	0.399494
	C196	C	0.603155	0.409139	0.092182
	C197	C	0.599889	0.606583	0.902803
	C198	C	0.400434	0.607646	0.093353
	C199	C	0.401823	0.414495	0.903189
	C200	C	0.096507	0.606387	0.396688
	C201	C	0.909647	0.608975	0.596584
	C202	C	0.096600	0.406953	0.600558
	C203	C	0.909846	0.410092	0.398797
	C204	C	0.901527	0.605078	0.095211
	C205	C	0.101523	0.413816	0.095958
	C206	C	0.098242	0.604868	0.900513
	C207	C	0.902126	0.413486	0.900650
	C208	C	0.109227	0.906296	0.593653
	C209	C	0.102884	0.104857	0.403518
	C210	C	0.904957	0.104459	0.593619
	C211	C	0.905825	0.912297	0.403875
	C212	C	0.595929	0.109052	0.896248
	C213	C	0.409330	0.108079	0.096550
	C214	C	0.596357	0.907061	0.098254
	C215	C	0.410336	0.913472	0.897398
	Zn216	Zn	0.503506	0.009890	0.744039
	Zn217	Zn	0.503952	0.009061	0.248703
	Zn218	Zn	0.751641	0.509388	-0.002163
	Zn219	Zn	0.250660	0.510110	-0.001111
	Zn220	Zn	0.005442	0.759498	0.498355
	Zn221	Zn	0.003340	0.255896	0.498937
	Zn222	Zn	0.001698	0.508592	0.750286
	Zn223	Zn	0.001912	0.508893	0.245692
	Zn224	Zn	0.500783	0.757787	-0.001931
	Zn225	Zn	0.502110	0.260340	-0.003416
	Zn226	Zn	0.754509	0.007094	0.498545
	Zn227	Zn	0.256031	0.006269	0.496698
	N228	N	0.419331	0.971738	0.673259
	N229	N	0.588309	0.046768	0.672442
	N230	N	0.589813	0.970514	0.320614
	N231	N	0.421358	0.046834	0.322458
	N232	N	0.682536	0.421330	0.960994
	N233	N	0.682387	0.597599	0.033193
	N234	N	0.319000	0.599307	0.962618
	N235	N	0.322312	0.422549	0.034557
	N236	N	0.967388	0.689242	0.411232
	N237	N	0.041601	0.683977	0.581855
	N238	N	0.966507	0.327584	0.585855
	N239	N	0.040534	0.330314	0.414969
	N240	N	0.965594	0.421786	0.678951
	N241	N	0.038630	0.595476	0.678955
	N242	N	0.965772	0.596032	0.317792
	N243	N	0.038895	0.420833	0.317631
	N244	N	0.415303	0.687306	0.960806
	N245	N	0.582707	0.682066	0.036244
	N246	N	0.585995	0.333269	0.958835
	N247	N	0.418205	0.333309	0.034766
	N248	N	0.684363	0.970867	0.411379
	N249	N	0.684966	0.044025	0.585789
	N250	N	0.328511	0.970611	0.581868
	N251	N	0.322914	0.042685	0.407435
	N252	N	0.915701	0.472449	0.175427
	N253	N	0.085153	0.547018	0.173665
	N254	N	0.084775	0.470687	0.824105
	N255	N	0.916252	0.546413	0.820709
	N256	N	0.187578	0.917299	0.461911
	N257	N	0.184509	0.092561	0.534079
	N258	N	0.823198	0.096025	0.462998
	N259	N	0.824463	0.918764	0.534133
	N260	N	0.465464	0.190312	0.908818
	N261	N	0.539602	0.185553	0.080521
	N262	N	0.464961	0.830562	0.083643
	N263	N	0.539462	0.830383	0.912673
	N264	N	0.467247	0.920803	0.179427
	N265	N	0.539342	0.095958	0.176911
	N266	N	0.466680	0.097904	0.814599
	N267	N	0.540678	0.923848	0.818076
	N268	N	0.918830	0.184698	0.461210
	N269	N	0.087908	0.181659	0.536340
	N270	N	0.091086	0.830135	0.460677
	N271	N	0.924196	0.834519	0.536712
	N272	N	0.181589	0.473616	0.911416
	N273	N	0.180786	0.545766	0.086246
	N274	N	0.823694	0.472604	0.083635
	N275	N	0.820807	0.545827	0.909319
	O276	O	0.644977	0.432091	0.392936
	H277	H	0.641426	0.424967	0.403295
	H278	H	0.644262	0.425032	0.396475
	O279	O	1.044217	0.030321	1.047380
	H280	H	1.045646	0.032133	1.066596
	H281	H	1.036215	0.039710	1.046898
	O282	O	1.040311	1.098261	0.063105
	H283	H	1.052681	1.098456	0.052580
	H284	H	1.043839	1.107436	0.074139
	O285	O	0.839014	0.029464	0.981709
	H286	H	0.839533	0.037273	0.992646
	H287	H	0.827033	0.034825	0.982943
	O288	O	0.400969	0.581204	0.478825
	H289	H	0.400774	0.580630	0.496152
	H290	H	0.399010	0.592622	0.476166
	O291	O	0.429254	0.491486	0.458134
	H292	H	0.418664	0.499581	0.452142
	H293	H	0.428589	0.503079	0.455792
	O294	O	0.468047	0.567529	0.535350
	H295	H	0.466503	0.576142	0.530781
	H296	H	0.472718	0.556565	0.539779
	O297	O	-0.059947	-0.119405	1.029063
	H298	H	-0.056374	-0.123660	1.028418
	H299	H	-0.055748	-0.113754	1.014954
	O300	O	0.584205	0.487160	0.457022
	H301	H	0.596028	0.469887	0.459806
	H302	H	0.584154	0.473665	0.461493
	O303	O	0.480169	0.547787	0.461538
	H304	H	0.477430	0.550778	0.449461
	H305	H	0.467931	0.547063	0.462127
	O306	O	0.004121	0.920254	1.047065
	H307	H	0.010548	0.931064	1.040218
	H308	H	0.010929	0.916933	1.044819
	O309	O	0.454746	0.568351	0.425842
	H310	H	0.453788	0.574623	0.428441
	H311	H	0.465832	0.558348	0.417730
	O312	O	0.106639	-0.157652	-0.012324
	H313	H	0.122047	-0.172940	-0.024482
	H314	H	0.103029	-0.155681	-0.015971
	O315	O	0.929119	-0.060494	-0.077216
	H316	H	0.923899	-0.051136	-0.084690
	H317	H	0.928233	-0.071901	-0.081105
	O318	O	0.888167	1.103214	0.832149
	H319	H	0.882656	1.113599	0.824632
	H320	H	0.872252	1.109592	0.836024
	O321	O	0.185698	-0.044680	0.977442
	H322	H	0.180294	-0.033737	0.968685
	H323	H	0.195211	-0.049668	0.982769
	O324	O	0.395787	0.423564	0.560670
	H325	H	0.399257	0.417688	0.559262
	H326	H	0.379081	0.420802	0.560469
	O327	O	0.038063	0.131499	0.069583
	H328	H	0.039439	0.136926	0.049601
	H329	H	0.035299	0.129396	0.067610
	O330	O	0.530898	0.513593	0.596619
	H331	H	0.541963	0.504658	0.592972
	H332	H	0.526874	0.511938	0.594329
	O333	O	-0.041851	1.107412	1.065616
	H334	H	-0.052018	1.091512	1.072872
	H335	H	-0.025036	1.099638	1.084333
	O336	O	0.034293	0.048029	-0.030980
	H337	H	0.025416	0.046691	-0.044956
	H338	H	0.037693	0.046692	-0.043662
	O339	O	0.482253	0.503861	0.488264
	H340	H	0.476919	0.514192	0.486059
	H341	H	0.476510	0.505553	0.479040
	O342	O	1.032308	1.057067	1.161027
	H343	H	1.027148	1.064316	1.161548
	H344	H	1.026949	1.053655	1.169486
	O345	O	0.945782	0.997237	-0.006577
	H346	H	0.950077	0.992696	0.000647
	H347	H	0.933519	1.005958	-0.008588
	O348	O	0.573444	0.490405	0.449568
	H349	H	0.565243	0.494992	0.434521
	H350	H	0.582559	0.489143	0.460796
	O351	O	0.577450	0.526781	0.442196
	H352	H	0.583041	0.536727	0.447918
	H353	H	0.578315	0.532860	0.437110
	O354	O	-0.002976	-0.008483	-0.069527
	H355	H	-0.004057	-0.009810	-0.078529
	H356	H	-0.005262	-0.012548	-0.063341
	O357	O	0.975563	0.068889	0.918081
	H358	H	0.985350	0.067444	0.926466
	H359	H	0.973633	0.072235	0.907330
	O360	O	0.538416	0.513896	0.437605
	H361	H	0.540645	0.514898	0.432630
	H362	H	0.542193	0.501927	0.432481
	O363	O	0.515486	0.485788	0.523903
	H364	H	0.522927	0.484042	0.535151
	H365	H	0.511672	0.483562	0.521249
	O366	O	1.054202	0.964291	0.946708
	H367	H	1.034866	0.967821	0.938770
	H368	H	1.046420	0.959855	0.939883
	O369	O	1.068232	0.000511	1.013330
	H370	H	1.069289	-0.003928	1.019551
	H371	H	1.067697	-0.011168	1.014066
	O372	O	-0.102407	0.034659	-0.037467
	H373	H	-0.101739	0.031374	-0.016362
	H374	H	-0.108052	0.035971	-0.032318
	O375	O	1.044351	0.083510	0.083590
	H376	H	1.057656	0.084185	0.073078
	H377	H	1.042479	0.076989	0.082156
	O378	O	0.551410	0.471593	0.537825
	H379	H	0.550173	0.477900	0.536535
	H380	H	0.549224	0.475939	0.530275
	O381	O	0.497673	0.435549	0.513375
	H382	H	0.489005	0.448967	0.516281
	H383	H	0.487129	0.433599	0.519513
