data_Molecule from HDF5

_cell_length_a		16.247895
_cell_length_b		16.133344
_cell_length_c		16.276346
_cell_angle_alpha	89.691886
_cell_angle_beta	90.113260
_cell_angle_gamma	89.557305
_symmetry_space_group_name_H-M	'P 1'
_symmetry_Int_Tables_number		1

loop_
	_symmetry_equiv_pos_as_xyz
	x,y,z

loop_
	_atom_site_label
	_atom_site_type_symbol
	_atom_site_fract_x
	_atom_site_fract_y
	_atom_site_fract_z
	H0	H	0.403968	0.833267	0.708759
	H1	H	0.600477	0.162111	0.705867
	H2	H	0.602835	0.832314	0.280215
	H3	H	0.401283	0.161112	0.276731
	H4	H	0.720231	0.397056	0.829514
	H5	H	0.717686	0.593006	0.156858
	H6	H	0.288425	0.596594	0.828748
	H7	H	0.289212	0.395537	0.156347
	H8	H	0.839800	0.714012	0.393632
	H9	H	0.168576	0.706516	0.588441
	H10	H	0.838298	0.285369	0.591032
	H11	H	0.167480	0.281497	0.397075
	H12	H	0.839636	0.398990	0.708982
	H13	H	0.167330	0.595400	0.707593
	H14	H	0.839226	0.598855	0.277308
	H15	H	0.167134	0.397308	0.280111
	H16	H	0.404645	0.712093	0.829134
	H17	H	0.600600	0.707708	0.157405
	H18	H	0.601614	0.283392	0.828147
	H19	H	0.409168	0.283138	0.157840
	H20	H	0.717786	0.831939	0.395097
	H21	H	0.714977	0.161478	0.590684
	H22	H	0.292074	0.831063	0.592219
	H23	H	0.287011	0.161042	0.393329
	H24	H	0.905580	0.333197	0.208904
	H25	H	0.102430	0.661707	0.206190
	H26	H	0.103195	0.332266	0.780315
	H27	H	0.903770	0.662540	0.779180
	H28	H	0.217860	0.897655	0.329554
	H29	H	0.217476	0.094457	0.657097
	H30	H	0.785143	0.099198	0.330354
	H31	H	0.787793	0.896882	0.657211
	H32	H	0.340003	0.212737	0.894383
	H33	H	0.668825	0.205045	0.089665
	H34	H	0.338775	0.782537	0.092371
	H35	H	0.668282	0.782864	0.897911
	H36	H	0.339558	0.896047	0.209473
	H37	H	0.665847	0.095266	0.209363
	H38	H	0.339480	0.098903	0.776986
	H39	H	0.666596	0.895059	0.777813
	H40	H	0.902628	0.213181	0.329636
	H41	H	0.097462	0.206847	0.658764
	H42	H	0.100224	0.784378	0.328881
	H43	H	0.906071	0.781737	0.657585
	H44	H	0.218295	0.331773	0.894935
	H45	H	0.216893	0.661552	0.090509
	H46	H	0.794060	0.330892	0.091907
	H47	H	0.787093	0.661620	0.893510
	H48	H	0.412844	0.114009	0.587041
	H49	H	0.599012	0.880100	0.578574
	H50	H	0.594364	0.113891	0.402946
	H51	H	0.407680	0.877123	0.397648
	H52	H	0.599666	0.400886	0.110005
	H53	H	0.595956	0.586825	0.876830
	H54	H	0.404287	0.591453	0.112775
	H55	H	0.414432	0.399034	0.875477
	H56	H	0.119265	0.587128	0.399346
	H57	H	0.888235	0.588223	0.582251
	H58	H	0.122305	0.391610	0.584491
	H59	H	0.883577	0.407148	0.390844
	H60	H	0.116103	0.408371	0.579836
	H61	H	0.886362	0.586592	0.589671
	H62	H	0.121332	0.589691	0.396482
	H63	H	0.885530	0.398867	0.404233
	H64	H	0.410359	0.580719	0.107696
	H65	H	0.594037	0.591693	0.875963
	H66	H	0.599928	0.399676	0.109618
	H67	H	0.404738	0.406245	0.875071
	H68	H	0.595674	0.116670	0.397333
	H69	H	0.601933	0.874918	0.592341
	H70	H	0.407986	0.114452	0.580525
	H71	H	0.414237	0.878896	0.399009
	H72	H	0.910984	0.614082	0.082533
	H73	H	0.089840	0.378590	0.095188
	H74	H	0.094876	0.614461	0.899873
	H75	H	0.917763	0.380522	0.900519
	H76	H	0.093133	0.891416	0.611686
	H77	H	0.103443	0.087453	0.374703
	H78	H	0.910406	0.088525	0.609015
	H79	H	0.915085	0.911359	0.380441
	H80	H	0.623314	0.094932	0.896948
	H81	H	0.383293	0.094038	0.088549
	H82	H	0.618802	0.907510	0.088743
	H83	H	0.387695	0.910606	0.898736
	H84	H	0.621942	0.898017	0.090170
	H85	H	0.386771	0.090805	0.080321
	H86	H	0.619270	0.086004	0.904036
	H87	H	0.385066	0.902524	0.895036
	H88	H	0.907747	0.094526	0.611837
	H89	H	0.089763	0.082634	0.379492
	H90	H	0.109207	0.903382	0.613312
	H91	H	0.912003	0.898503	0.375372
	H92	H	0.097223	0.615621	0.900170
	H93	H	0.093725	0.382922	0.075959
	H94	H	0.906760	0.615806	0.084027
	H95	H	0.909263	0.379983	0.904755
	H96	H	0.404668	0.116996	0.587417
	H97	H	0.588119	0.880911	0.588540
	H98	H	0.589964	0.113351	0.398543
	H99	H	0.409637	0.879383	0.404047
	H100	H	0.599926	0.401078	0.110318
	H101	H	0.598918	0.590095	0.875516
	H102	H	0.415830	0.592657	0.108290
	H103	H	0.415305	0.409922	0.878641
	H104	H	0.120717	0.591114	0.400386
	H105	H	0.884419	0.594369	0.586120
	H106	H	0.122425	0.405486	0.597174
	H107	H	0.889279	0.413838	0.403128
	H108	H	0.910072	0.616262	0.087365
	H109	H	0.107185	0.375271	0.088479
	H110	H	0.096168	0.616010	0.897687
	H111	H	0.909728	0.377803	0.896118
	H112	H	0.091740	0.910556	0.605835
	H113	H	0.092567	0.097641	0.376168
	H114	H	0.903131	0.088966	0.611634
	H115	H	0.901373	0.908865	0.375642
	H116	H	0.620732	0.084298	0.892816
	H117	H	0.386532	0.085595	0.088156
	H118	H	0.619104	0.901469	0.081557
	H119	H	0.386692	0.903490	0.904230
	C120	C	0.380978	0.005945	0.614113
	C121	C	0.623942	0.987986	0.614214
	C122	C	0.623601	0.005798	0.371571
	C123	C	0.380797	0.987661	0.370808
	C124	C	0.627551	0.372967	0.001623
	C125	C	0.624674	0.617348	0.984605
	C126	C	0.381190	0.618273	0.001515
	C127	C	0.383122	0.375098	0.984633
	C128	C	0.012274	0.619462	0.370045
	C129	C	0.994682	0.617768	0.614215
	C130	C	0.011822	0.374470	0.615791
	C131	C	0.994468	0.376202	0.371786
	C132	C	0.882174	0.505836	0.113816
	C133	C	0.124971	0.488237	0.114137
	C134	C	0.124871	0.505969	0.871552
	C135	C	0.882012	0.488347	0.871303
	C136	C	0.125535	0.874341	0.501759
	C137	C	0.123554	0.117247	0.485348
	C138	C	0.879060	0.119704	0.502258
	C139	C	0.881222	0.876118	0.485224
	C140	C	0.512440	0.118400	0.869929
	C141	C	0.494446	0.116961	0.114021
	C142	C	0.511511	0.874138	0.115484
	C143	C	0.494547	0.875410	0.871330
	C144	C	0.384282	0.881978	0.670100
	C145	C	0.620609	0.112750	0.668249
	C146	C	0.622431	0.881471	0.317691
	C147	C	0.381941	0.111915	0.315093
	C148	C	0.682252	0.376140	0.878263
	C149	C	0.679590	0.613570	0.108013
	C150	C	0.326154	0.616886	0.877977
	C151	C	0.327926	0.376210	0.107750
	C152	C	0.888446	0.675799	0.372817
	C153	C	0.118931	0.670770	0.610235
	C154	C	0.887518	0.322059	0.612176
	C155	C	0.118290	0.319937	0.375951
	C156	C	0.888542	0.378283	0.671071
	C157	C	0.118555	0.615261	0.669301
	C158	C	0.888423	0.618704	0.315053
	C159	C	0.118039	0.377005	0.317521
	C160	C	0.383887	0.674216	0.878076
	C161	C	0.621341	0.670859	0.108280
	C162	C	0.623505	0.319573	0.877693
	C163	C	0.387476	0.320199	0.108339
	C164	C	0.679747	0.881503	0.374744
	C165	C	0.677520	0.112550	0.611174
	C166	C	0.328371	0.881093	0.612104
	C167	C	0.325094	0.111862	0.372878
	C168	C	0.885529	0.382002	0.170194
	C169	C	0.122889	0.612358	0.168717
	C170	C	0.123172	0.381323	0.817424
	C171	C	0.883222	0.612950	0.816444
	C172	C	0.180226	0.877191	0.378567
	C173	C	0.179036	0.114640	0.608489
	C174	C	0.823575	0.118801	0.379110
	C175	C	0.826077	0.876996	0.608386
	C176	C	0.388757	0.174748	0.873142
	C177	C	0.619020	0.169034	0.110805
	C178	C	0.387935	0.819702	0.112883
	C179	C	0.618893	0.820150	0.875953
	C180	C	0.388399	0.876364	0.171062
	C181	C	0.617480	0.114448	0.170345
	C182	C	0.388716	0.117981	0.815006
	C183	C	0.617918	0.875884	0.816286
	C184	C	0.882058	0.175317	0.378702
	C185	C	0.119687	0.170633	0.609238
	C186	C	0.121602	0.820905	0.378067
	C187	C	0.885082	0.819885	0.608593
	C188	C	0.180311	0.381092	0.874666
	C189	C	0.179700	0.612237	0.111034
	C190	C	0.829823	0.381007	0.112265
	C191	C	0.825388	0.612380	0.873418
	C192	C	0.402131	0.092890	0.591510
	C193	C	0.602686	0.901168	0.592852
	C194	C	0.600271	0.092249	0.393259
	C195	C	0.403829	0.900768	0.393468
	C196	C	0.606329	0.394229	0.087842
	C197	C	0.602795	0.595853	0.898363
	C198	C	0.403538	0.594952	0.087589
	C199	C	0.405078	0.398289	0.898524
	C200	C	0.098286	0.596192	0.392312
	C201	C	0.908637	0.596153	0.592530
	C202	C	0.098046	0.395632	0.593782
	C203	C	0.908414	0.399663	0.393278
	C204	C	0.903133	0.592940	0.091148
	C205	C	0.103197	0.401419	0.092755
	C206	C	0.102627	0.592751	0.892852
	C207	C	0.905482	0.401808	0.893536
	C208	C	0.104294	0.895436	0.588099
	C209	C	0.101610	0.095616	0.399046
	C210	C	0.900707	0.097298	0.588483
	C211	C	0.902989	0.899377	0.399204
	C212	C	0.598728	0.095267	0.891333
	C213	C	0.407872	0.096220	0.092231
	C214	C	0.597636	0.895830	0.093416
	C215	C	0.408577	0.898585	0.893210
	Zn216	Zn	0.503122	-0.002907	0.741799
	Zn217	Zn	0.502415	-0.003299	0.243079
	Zn218	Zn	0.754666	0.495956	-0.006767
	Zn219	Zn	0.253197	0.496328	-0.007002
	Zn220	Zn	0.003148	0.746475	0.492998
	Zn221	Zn	0.001821	0.246724	0.493687
	Zn222	Zn	0.003770	0.497558	0.743366
	Zn223	Zn	0.003104	0.497777	0.241813
	Zn224	Zn	0.502806	0.746454	-0.006883
	Zn225	Zn	0.504791	0.245128	-0.007080
	Zn226	Zn	0.751448	-0.002723	0.493066
	Zn227	Zn	0.253517	-0.003752	0.493174
	N228	N	0.416196	0.960625	0.671653
	N229	N	0.587917	0.034318	0.670227
	N230	N	0.588169	0.959588	0.315492
	N231	N	0.415823	0.033444	0.313574
	N232	N	0.684985	0.408529	0.956255
	N233	N	0.681843	0.581184	0.030074
	N234	N	0.324296	0.582845	0.955854
	N235	N	0.325177	0.409702	0.029820
	N236	N	0.966265	0.676464	0.406181
	N237	N	0.041021	0.672439	0.576636
	N238	N	0.964996	0.319638	0.578670
	N239	N	0.040363	0.319189	0.408961
	N240	N	0.966974	0.410165	0.673463
	N241	N	0.040363	0.583133	0.671908
	N242	N	0.966398	0.584516	0.312904
	N243	N	0.040254	0.411337	0.314752
	N244	N	0.417298	0.675148	0.955796
	N245	N	0.587834	0.673026	0.030613
	N246	N	0.590397	0.317305	0.955461
	N247	N	0.421156	0.319326	0.030731
	N248	N	0.680645	0.959981	0.407669
	N249	N	0.679728	0.034146	0.578226
	N250	N	0.326276	0.959316	0.577978
	N251	N	0.324418	0.033661	0.406769
	N252	N	0.917330	0.460732	0.171260
	N253	N	0.089535	0.534093	0.170927
	N254	N	0.089413	0.459880	0.815317
	N255	N	0.918123	0.534996	0.815315
	N256	N	0.182707	0.909678	0.456457
	N257	N	0.181500	0.082224	0.530337
	N258	N	0.821666	0.084747	0.456868
	N259	N	0.823622	0.911004	0.530629
	N260	N	0.466495	0.174800	0.906933
	N261	N	0.541625	0.170720	0.076404
	N262	N	0.465451	0.817984	0.079327
	N263	N	0.541224	0.819783	0.909564
	N264	N	0.466224	0.909557	0.172854
	N265	N	0.539232	0.082689	0.172214
	N266	N	0.466594	0.083842	0.812868
	N267	N	0.539796	0.909467	0.813075
	N268	N	0.915689	0.176141	0.456275
	N269	N	0.085998	0.172373	0.531558
	N270	N	0.088257	0.818924	0.455663
	N271	N	0.918447	0.819170	0.530878
	N272	N	0.181499	0.459455	0.907666
	N273	N	0.181156	0.534019	0.077923
	N274	N	0.827672	0.459119	0.078032
	N275	N	0.824613	0.533874	0.906891
	O276	O	0.985121	1.058209	0.054887
	H277	H	0.990207	1.057694	0.052992
	H278	H	0.981391	1.056510	0.059283
	O279	O	-0.043871	0.058754	0.936714
	H280	H	-0.039238	0.050666	0.931514
	H281	H	-0.046463	0.062645	0.925586
	O282	O	-0.007288	-0.003367	0.024919
	H283	H	-0.001003	-0.003371	0.026903
	H284	H	-0.012674	0.007453	0.019365
	O285	O	0.492885	0.469312	0.539787
	H286	H	0.495863	0.466088	0.536586
	H287	H	0.491684	0.464003	0.534073
	O288	O	0.045209	-0.045869	-0.037178
	H289	H	0.046450	-0.055019	-0.027747
	H290	H	0.043910	-0.046241	-0.041992
	O291	O	0.042941	0.917789	-0.056920
	H292	H	0.043545	0.915610	-0.058060
	H293	H	0.046864	0.907461	-0.056526
	O294	O	-0.014667	0.991302	-0.008851
	H295	H	-0.008950	0.996822	0.003050
	H296	H	-0.020142	0.993861	-0.012050
	O297	O	0.511134	0.485550	0.481563
	H298	H	0.515175	0.493822	0.486306
	H299	H	0.512076	0.485182	0.485824
	O300	O	0.523960	0.460810	0.503263
	H301	H	0.530083	0.446856	0.507620
	H302	H	0.525530	0.456634	0.498381
	O303	O	0.971385	0.000459	1.039618
	H304	H	0.966536	-0.000941	1.047852
	H305	H	0.957649	0.001636	1.034859
	O306	O	0.011095	0.973034	0.993273
	H307	H	0.010128	0.977038	1.003209
	H308	H	0.010138	0.976803	0.990916
	O309	O	0.070238	0.992924	1.020296
	H310	H	0.071927	0.988879	1.022092
	H311	H	0.077202	0.991485	1.021831
	O312	O	0.011218	0.019298	0.970216
	H313	H	0.008585	0.014628	0.966409
	H314	H	0.013005	0.022008	0.974433
	O315	O	0.572709	0.496732	0.506118
	H316	H	0.580409	0.497359	0.499051
	H317	H	0.578376	0.494261	0.497262
	O318	O	0.036794	-0.008645	1.024692
	H319	H	0.033033	0.003830	1.018362
	H320	H	0.044778	-0.007449	1.020837
	O321	O	0.344315	0.696551	0.723387
	H322	H	0.344490	0.705491	0.715365
	H323	H	0.341408	0.702597	0.726818
	O324	O	1.034617	-0.000608	0.970158
	H325	H	1.040590	0.001936	0.969801
	H326	H	1.038558	-0.008435	0.971489
	O327	O	0.930482	1.025281	0.987789
	H328	H	0.919164	1.026210	0.982635
	H329	H	0.928589	1.017059	0.976659
	O330	O	0.481670	0.496618	0.494184
	H331	H	0.469597	0.502369	0.489985
	H332	H	0.482683	0.494264	0.492458
	O333	O	0.499243	0.561940	0.518697
	H334	H	0.505560	0.557818	0.515684
	H335	H	0.492741	0.559517	0.518944
	O336	O	0.543383	0.555648	0.490207
	H337	H	0.542667	0.552608	0.486624
	H338	H	0.539023	0.561879	0.486019
	O339	O	0.517127	0.485372	0.432538
	H340	H	0.512662	0.489647	0.432450
	H341	H	0.501111	0.484935	0.433790
	O342	O	0.506177	0.512264	0.550885
	H343	H	0.507333	0.509139	0.553639
	H344	H	0.508893	0.516629	0.559152
	O345	O	0.479190	0.472462	0.497595
	H346	H	0.484116	0.476138	0.501222
	H347	H	0.474396	0.469027	0.500535
