data_Molecule from HDF5

_cell_length_a		16.327655
_cell_length_b		16.601856
_cell_length_c		15.989692
_cell_angle_alpha	90.346701
_cell_angle_beta	89.801723
_cell_angle_gamma	90.106349
_symmetry_space_group_name_H-M	'P 1'
_symmetry_Int_Tables_number		1

loop_
	_symmetry_equiv_pos_as_xyz
	x,y,z

loop_
	_atom_site_label
	_atom_site_type_symbol
	_atom_site_fract_x
	_atom_site_fract_y
	_atom_site_fract_z
	H0	H	0.394235	0.829817	0.717326
	H1	H	0.589933	0.150965	0.720659
	H2	H	0.592068	0.831573	0.284032
	H3	H	0.392253	0.151333	0.287063
	H4	H	0.710036	0.387991	0.838969
	H5	H	0.708217	0.594782	0.167085
	H6	H	0.279184	0.587026	0.836871
	H7	H	0.279806	0.394252	0.168103
	H8	H	0.834882	0.715030	0.395096
	H9	H	0.152005	0.714593	0.612762
	H10	H	0.836724	0.266934	0.616693
	H11	H	0.152417	0.269975	0.395489
	H12	H	0.830084	0.395630	0.716968
	H13	H	0.155672	0.589133	0.717949
	H14	H	0.830749	0.591706	0.287670
	H15	H	0.155869	0.395147	0.288787
	H16	H	0.389254	0.706892	0.837582
	H17	H	0.597513	0.713074	0.164653
	H18	H	0.596331	0.271856	0.839238
	H19	H	0.385937	0.273589	0.165442
	H20	H	0.716227	0.833381	0.394688
	H21	H	0.715581	0.148321	0.612627
	H22	H	0.270299	0.833227	0.608228
	H23	H	0.270626	0.149037	0.398712
	H24	H	0.890217	0.332368	0.222324
	H25	H	0.093708	0.650134	0.222552
	H26	H	0.092560	0.331347	0.784258
	H27	H	0.893829	0.651144	0.788244
	H28	H	0.206093	0.892048	0.338099
	H29	H	0.208055	0.093189	0.668493
	H30	H	0.776980	0.093716	0.340185
	H31	H	0.776910	0.892110	0.668247
	H32	H	0.332267	0.210932	0.895671
	H33	H	0.649265	0.216860	0.111531
	H34	H	0.333214	0.769773	0.109498
	H35	H	0.650071	0.766830	0.890617
	H36	H	0.329392	0.893783	0.216794
	H37	H	0.654694	0.092058	0.217524
	H38	H	0.328559	0.085590	0.791398
	H39	H	0.654615	0.893355	0.786598
	H40	H	0.888951	0.211410	0.342455
	H41	H	0.100183	0.212317	0.666728
	H42	H	0.100804	0.769948	0.341750
	H43	H	0.886993	0.772806	0.667053
	H44	H	0.212685	0.331558	0.896559
	H45	H	0.216100	0.647450	0.111404
	H46	H	0.767538	0.334788	0.110705
	H47	H	0.770142	0.647918	0.896288
	H48	H	0.401848	0.103161	0.594142
	H49	H	0.589135	0.878428	0.586737
	H50	H	0.592427	0.104703	0.416604
	H51	H	0.403532	0.883133	0.424458
	H52	H	0.577766	0.403845	0.118303
	H53	H	0.595147	0.578219	0.881392
	H54	H	0.393673	0.584324	0.123672
	H55	H	0.409177	0.399678	0.886405
	H56	H	0.106522	0.588036	0.422224
	H57	H	0.874924	0.590139	0.596425
	H58	H	0.111952	0.395303	0.597018
	H59	H	0.876708	0.395603	0.412557
	H60	H	0.107372	0.397098	0.585158
	H61	H	0.879661	0.586367	0.586958
	H62	H	0.104054	0.576148	0.418128
	H63	H	0.879839	0.395795	0.421884
	H64	H	0.407508	0.572848	0.115271
	H65	H	0.572802	0.567176	0.893016
	H66	H	0.578271	0.402533	0.118896
	H67	H	0.401437	0.392134	0.880948
	H68	H	0.585943	0.106185	0.407648
	H69	H	0.586039	0.875746	0.596802
	H70	H	0.396331	0.104402	0.593780
	H71	H	0.387280	0.873768	0.409962
	H72	H	0.894901	0.604891	0.092132
	H73	H	0.086554	0.378908	0.088055
	H74	H	0.086703	0.602835	0.916689
	H75	H	0.899344	0.377580	0.912543
	H76	H	0.076606	0.911110	0.616839
	H77	H	0.079676	0.087823	0.385130
	H78	H	0.905826	0.078759	0.619881
	H79	H	0.903161	0.900367	0.385096
	H80	H	0.608977	0.084926	0.911058
	H81	H	0.373794	0.090621	0.096436
	H82	H	0.607661	0.898995	0.088146
	H83	H	0.374443	0.902850	0.901766
	H84	H	0.606478	0.900930	0.088734
	H85	H	0.378563	0.084890	0.083793
	H86	H	0.607660	0.087229	0.916142
	H87	H	0.373657	0.884733	0.914742
	H88	H	0.907902	0.083420	0.621277
	H89	H	0.087814	0.079469	0.385014
	H90	H	0.074083	0.892142	0.622027
	H91	H	0.907169	0.905258	0.388360
	H92	H	0.090555	0.605179	0.913063
	H93	H	0.089797	0.375317	0.097349
	H94	H	0.902246	0.605099	0.099137
	H95	H	0.900356	0.378266	0.911519
	H96	H	0.398863	0.105409	0.598508
	H97	H	0.578612	0.880633	0.590152
	H98	H	0.582030	0.101600	0.416462
	H99	H	0.408551	0.878153	0.401502
	H100	H	0.579207	0.403536	0.118306
	H101	H	0.572282	0.592683	0.883673
	H102	H	0.411287	0.591448	0.119775
	H103	H	0.397705	0.402991	0.883983
	H104	H	0.110223	0.583898	0.409793
	H105	H	0.878582	0.579771	0.595615
	H106	H	0.108010	0.406421	0.593764
	H107	H	0.879911	0.404126	0.416741
	H108	H	0.904331	0.601246	0.089129
	H109	H	0.078987	0.377503	0.096043
	H110	H	0.085334	0.604168	0.911096
	H111	H	0.900560	0.377799	0.912982
	H112	H	0.091661	0.901054	0.625168
	H113	H	0.076779	0.078256	0.389786
	H114	H	0.903307	0.082702	0.622796
	H115	H	0.909993	0.898892	0.387444
	H116	H	0.606678	0.081723	0.915573
	H117	H	0.377776	0.076896	0.095984
	H118	H	0.607684	0.900038	0.090592
	H119	H	0.382299	0.903371	0.923228
	C120	C	0.369187	-0.000934	0.625523
	C121	C	0.614619	0.982725	0.624649
	C122	C	0.617141	-0.000331	0.380324
	C123	C	0.369843	0.983520	0.381823
	C124	C	0.611361	0.371072	0.010914
	C125	C	0.612465	0.612024	0.993542
	C126	C	0.372950	0.611364	0.010478
	C127	C	0.371590	0.369350	0.992671
	C128	C	0.001395	0.613702	0.383396
	C129	C	0.984044	0.614933	0.625427
	C130	C	0.002716	0.369669	0.624763
	C131	C	0.984913	0.369329	0.383639
	C132	C	0.869383	0.499630	0.125571
	C133	C	0.115434	0.482129	0.125592
	C134	C	0.116238	0.498923	0.881180
	C135	C	0.869960	0.482763	0.881287
	C136	C	0.113136	0.870414	0.512897
	C137	C	0.113661	0.112737	0.494861
	C138	C	0.873623	0.112685	0.513612
	C139	C	0.874315	0.871155	0.495312
	C140	C	0.500830	0.112831	0.882500
	C141	C	0.482850	0.114872	0.124121
	C142	C	0.500957	0.870141	0.122128
	C143	C	0.483088	0.867912	0.880773
	C144	C	0.372042	0.878481	0.681016
	C145	C	0.611883	0.102843	0.682827
	C146	C	0.614166	0.879635	0.322132
	C147	C	0.371508	0.103500	0.324989
	C148	C	0.670624	0.369474	0.887955
	C149	C	0.670210	0.613573	0.117338
	C150	C	0.316730	0.608145	0.886251
	C151	C	0.315735	0.372382	0.117734
	C152	C	0.881756	0.673445	0.379383
	C153	C	0.104676	0.673462	0.628683
	C154	C	0.883178	0.309248	0.630798
	C155	C	0.105074	0.310805	0.379171
	C156	C	0.879917	0.373135	0.680997
	C157	C	0.106497	0.611409	0.681523
	C158	C	0.879629	0.612108	0.325600
	C159	C	0.106820	0.372993	0.325984
	C160	C	0.371715	0.667629	0.886675
	C161	C	0.614794	0.672290	0.116096
	C162	C	0.614101	0.311492	0.888225
	C163	C	0.368883	0.312639	0.116493
	C164	C	0.675985	0.880714	0.377157
	C165	C	0.674112	0.101554	0.628629
	C166	C	0.310304	0.880357	0.626636
	C167	C	0.310776	0.102113	0.380748
	C168	C	0.869664	0.380321	0.183945
	C169	C	0.114053	0.602039	0.183988
	C170	C	0.113412	0.379073	0.822837
	C171	C	0.872759	0.602875	0.825321
	C172	C	0.169650	0.871242	0.388512
	C173	C	0.170910	0.112761	0.618710
	C174	C	0.815761	0.112856	0.389693
	C175	C	0.815142	0.871665	0.619033
	C176	C	0.379921	0.170350	0.879258
	C177	C	0.602529	0.175314	0.127948
	C178	C	0.380491	0.811003	0.125701
	C179	C	0.603291	0.808486	0.875228
	C180	C	0.378635	0.872782	0.179444
	C181	C	0.605017	0.113421	0.180879
	C182	C	0.378185	0.107932	0.827008
	C183	C	0.605518	0.871116	0.823312
	C184	C	0.871521	0.171457	0.390898
	C185	C	0.116974	0.172000	0.617973
	C186	C	0.117027	0.810487	0.390132
	C187	C	0.870097	0.812507	0.618124
	C188	C	0.173299	0.379087	0.878899
	C189	C	0.175043	0.600757	0.128445
	C190	C	0.808506	0.381567	0.128565
	C191	C	0.811069	0.601259	0.879230
	C192	C	0.392210	0.082677	0.602377
	C193	C	0.591384	0.899797	0.598598
	C194	C	0.593634	0.082524	0.406013
	C195	C	0.393064	0.900157	0.405146
	C196	C	0.585673	0.396157	0.096391
	C197	C	0.587453	0.586576	0.908189
	C198	C	0.397148	0.589255	0.097092
	C199	C	0.395729	0.391592	0.906154
	C200	C	0.085233	0.589650	0.409146
	C201	C	0.899590	0.591992	0.600442
	C202	C	0.087077	0.392830	0.599321
	C203	C	0.900484	0.392072	0.409588
	C204	C	0.893441	0.582311	0.100590
	C205	C	0.091922	0.398911	0.100907
	C206	C	0.094155	0.582432	0.906398
	C207	C	0.893297	0.399542	0.905549
	C208	C	0.087828	0.894236	0.599011
	C209	C	0.088592	0.088869	0.409031
	C210	C	0.898321	0.088494	0.599170
	C211	C	0.899506	0.894621	0.409573
	C212	C	0.585669	0.091035	0.907192
	C213	C	0.398494	0.091080	0.099366
	C214	C	0.585282	0.893318	0.096627
	C215	C	0.398762	0.890466	0.906133
	Zn216	Zn	0.492227	-0.009506	0.754803
	Zn217	Zn	0.492424	-0.007904	0.251071
	Zn218	Zn	0.739858	0.491357	0.002739
	Zn219	Zn	0.245857	0.489873	0.002699
	Zn220	Zn	-0.006360	0.743254	0.503986
	Zn221	Zn	-0.005739	0.240429	0.505185
	Zn222	Zn	-0.006858	0.491391	0.752526
	Zn223	Zn	-0.007794	0.491090	0.255080
	Zn224	Zn	0.492354	0.740166	0.001252
	Zn225	Zn	0.490914	0.242679	0.002597
	Zn226	Zn	0.746361	-0.008775	0.503865
	Zn227	Zn	0.239250	-0.008780	0.503584
	N228	N	0.407882	0.953424	0.680639
	N229	N	0.575410	0.028045	0.680312
	N230	N	0.578598	0.954696	0.323587
	N231	N	0.407692	0.028867	0.325486
	N232	N	0.669005	0.405852	0.965278
	N233	N	0.668982	0.576689	0.040088
	N234	N	0.317131	0.574165	0.964478
	N235	N	0.317170	0.406807	0.039707
	N236	N	0.958481	0.674452	0.414505
	N237	N	0.027388	0.675964	0.594703
	N238	N	0.960491	0.307135	0.596535
	N239	N	0.028212	0.308473	0.414327
	N240	N	0.955289	0.410046	0.677480
	N241	N	0.030506	0.575878	0.679876
	N242	N	0.954995	0.575436	0.328154
	N243	N	0.030903	0.408714	0.328604
	N244	N	0.405696	0.669654	0.965184
	N245	N	0.579945	0.671743	0.037961
	N246	N	0.577792	0.312547	0.965982
	N247	N	0.402713	0.310537	0.037721
	N248	N	0.678012	0.956408	0.412521
	N249	N	0.675740	0.026106	0.593028
	N250	N	0.308306	0.956355	0.593095
	N251	N	0.309758	0.026514	0.415327
	N252	N	0.906641	0.454709	0.182326
	N253	N	0.077546	0.527445	0.182131
	N254	N	0.078852	0.454483	0.824019
	N255	N	0.908519	0.528105	0.826257
	N256	N	0.167344	0.907719	0.465901
	N257	N	0.168942	0.076544	0.541147
	N258	N	0.816854	0.077125	0.466937
	N259	N	0.817303	0.907309	0.541614
	N260	N	0.457127	0.173477	0.913080
	N261	N	0.525370	0.176689	0.093704
	N262	N	0.457533	0.809270	0.090754
	N263	N	0.526200	0.806362	0.910084
	N264	N	0.454699	0.908726	0.177445
	N265	N	0.529585	0.076669	0.178883
	N266	N	0.454485	0.072842	0.828974
	N267	N	0.529902	0.907171	0.826322
	N268	N	0.906607	0.171587	0.469113
	N269	N	0.082158	0.172315	0.539947
	N270	N	0.082686	0.809768	0.468757
	N271	N	0.905970	0.812046	0.540170
	N272	N	0.175236	0.454669	0.914486
	N273	N	0.176160	0.525217	0.092775
	N274	N	0.807937	0.456845	0.093401
	N275	N	0.809045	0.525407	0.913244
	O276	O	0.621689	0.493174	0.667287
	H277	H	0.623701	0.490789	0.666183
	H278	H	0.604624	0.505920	0.673138
	O279	O	0.488035	0.387753	0.342470
	H280	H	0.485858	0.378827	0.350307
	H281	H	0.490129	0.404529	0.329408
	O282	O	1.174492	-0.172876	0.864345
	H283	H	1.188051	-0.168085	0.871204
	H284	H	1.167452	-0.168029	0.853041
	O285	O	0.881031	0.908205	0.935693
	H286	H	0.887099	0.908445	0.932356
	H287	H	0.888321	0.919162	0.945793
	O288	O	0.855881	0.807778	1.180797
	H289	H	0.858778	0.824395	1.178651
	H290	H	0.880966	0.803913	1.174974
	O291	O	-0.043060	0.842916	-0.038518
	H292	H	-0.045622	0.825983	-0.065539
	H293	H	-0.024151	0.854244	-0.031392
	O294	O	0.613445	0.357915	0.516372
	H295	H	0.608125	0.383938	0.523529
	H296	H	0.606644	0.361665	0.514140
	O297	O	0.314803	0.577406	0.402830
	H298	H	0.321800	0.563826	0.397110
	H299	H	0.313719	0.569902	0.404077
	O300	O	0.554919	0.518235	0.529867
	H301	H	0.550993	0.515802	0.531297
	H302	H	0.566691	0.507124	0.522980
	O303	O	0.618670	0.468129	0.311330
	H304	H	0.633597	0.468731	0.297683
	H305	H	0.614936	0.464497	0.306276
	O306	O	0.531433	0.342626	0.479884
	H307	H	0.539234	0.342189	0.497565
	H308	H	0.550118	0.327962	0.464767
	O309	O	0.505194	0.516577	0.446528
	H310	H	0.516975	0.514318	0.444337
	H311	H	0.501420	0.526782	0.444183
	O312	O	0.098436	0.023422	0.163437
	H313	H	0.099838	0.034475	0.158635
	H314	H	0.107341	0.023214	0.172932
	O315	O	0.820678	0.985719	0.009245
	H316	H	0.828941	0.988574	0.017243
	H317	H	0.810132	0.980657	0.021154
	O318	O	0.071352	0.937981	1.004754
	H319	H	0.063097	0.939174	1.012990
	H320	H	0.087826	0.947040	0.987465
	O321	O	1.055349	0.100715	0.952465
	H322	H	1.048188	0.094489	0.961424
	H323	H	1.067102	0.096741	0.952474
	O324	O	0.691269	0.290555	-0.554118
	H325	H	0.687924	0.289450	-0.547024
	H326	H	0.711157	0.282242	-0.546405
	O327	O	0.386649	0.394105	0.588426
	H328	H	0.389985	0.400624	0.581546
	H329	H	0.385113	0.392100	0.597944
	O330	O	-0.136911	0.145470	1.138623
	H331	H	-0.144212	0.123325	1.119610
	H332	H	-0.131134	0.148716	1.146488
	O333	O	-0.220746	-0.146190	1.107445
	H334	H	-0.239604	-0.167512	1.113809
	H335	H	-0.218912	-0.147993	1.133429
	O336	O	0.409722	0.586245	0.558319
	H337	H	0.393765	0.573371	0.552042
	H338	H	0.404141	0.590591	0.562772
	O339	O	0.961956	0.126594	-0.120214
	H340	H	0.945739	0.127980	-0.122608
	H341	H	0.958192	0.132587	-0.127699
	O342	O	-0.117317	0.154695	-0.086887
	H343	H	-0.108168	0.150847	-0.076608
	H344	H	-0.119296	0.147790	-0.074369
	O345	O	1.045350	-0.167825	1.149670
	H346	H	1.061208	-0.154292	1.148968
	H347	H	1.037360	-0.173982	1.142655
	O348	O	1.048061	1.002070	-0.149292
	H349	H	1.035529	1.001179	-0.139790
	H350	H	1.039450	0.992938	-0.151645
	O351	O	0.652122	0.628638	0.556627
	H352	H	0.656495	0.623138	0.546028
	H353	H	0.643402	0.639838	0.566599
	O354	O	0.995289	0.104022	0.906885
	H355	H	0.985892	0.113004	0.906241
	H356	H	0.999743	0.106039	0.896939
	O357	O	0.400315	0.396450	0.460197
	H358	H	0.409821	0.390022	0.462247
	H359	H	0.402957	0.395146	0.458754
	O360	O	0.453259	0.347877	0.653507
	H361	H	0.460461	0.343836	0.652761
	H362	H	0.461968	0.340094	0.665436
	O363	O	-0.123399	0.994549	0.930853
	H364	H	-0.123255	0.988328	0.920405
	H365	H	-0.132354	0.989764	0.944620
	O366	O	0.630215	0.576624	0.572216
	H367	H	0.643151	0.560656	0.566577
	H368	H	0.654184	0.581276	0.572068
	O369	O	0.115849	0.965561	0.013845
	H370	H	0.130037	0.978378	0.005390
	H371	H	0.130415	0.954256	0.019168
	O372	O	0.140238	1.133211	0.091633
	H373	H	0.142239	1.133667	0.099171
	H374	H	0.122045	1.131272	0.097375
	O375	O	0.402127	0.564047	0.552379
	H376	H	0.400705	0.575605	0.541901
	H377	H	0.406206	0.569865	0.550542
	O378	O	0.391390	0.440294	0.481268
	H379	H	0.400691	0.440531	0.499447
	H380	H	0.393521	0.423336	0.474520
	O381	O	1.165927	-0.112608	-0.076226
	H382	H	1.149836	-0.114027	-0.085312
	H383	H	1.161077	-0.107765	-0.071905
	O384	O	0.974483	1.085135	-0.014475
	H385	H	0.964824	1.097921	-0.020360
	H386	H	0.978892	1.079046	-0.012871
	O387	O	-0.144505	-0.039793	-0.113122
	H388	H	-0.149996	-0.044542	-0.112796
	H389	H	-0.126981	-0.060640	-0.101406
	O390	O	0.078671	0.970102	0.013549
	H391	H	0.066968	0.967761	0.012610
	H392	H	0.077802	0.977263	0.000156
	O393	O	0.973875	1.014373	1.152318
	H394	H	0.993524	1.004589	1.141632
	H395	H	0.976023	1.014740	1.164869
	O396	O	0.434949	0.489989	0.426695
	H397	H	0.435315	0.494041	0.423396
	H398	H	0.440500	0.482965	0.419898
	O399	O	0.084063	1.122666	1.157223
	H400	H	0.083810	1.126229	1.158043
	H401	H	0.082964	1.128328	1.153684
	O402	O	0.633950	0.505067	0.387839
	H403	H	0.627072	0.502604	0.384642
	H404	H	0.636256	0.507697	0.399218
	O405	O	1.394224	1.579634	0.448789
	H406	H	1.401616	1.571803	0.442015
	H407	H	1.397408	1.579544	0.449894
	O408	O	0.959129	0.891478	0.056769
	H409	H	0.978228	0.900436	0.036065
	H410	H	0.951919	0.873528	0.046591
	O411	O	0.406017	-0.488923	0.603524
	H412	H	0.391623	-0.492193	0.600572
	H413	H	0.407565	-0.483796	0.595278
	O414	O	0.508870	0.593229	0.496352
	H415	H	0.495575	0.597494	0.492972
	H416	H	0.512181	0.604471	0.498178
	O417	O	0.505387	0.622750	0.478691
	H418	H	0.499482	0.627678	0.477988
	H419	H	0.495769	0.610974	0.476508
