data_Molecule from HDF5

_cell_length_a		16.295592
_cell_length_b		16.299890
_cell_length_c		16.430250
_cell_angle_alpha	90.154679
_cell_angle_beta	90.165017
_cell_angle_gamma	89.970416
_symmetry_space_group_name_H-M	'P 1'
_symmetry_Int_Tables_number		1

loop_
	_symmetry_equiv_pos_as_xyz
	x,y,z

loop_
	_atom_site_label
	_atom_site_type_symbol
	_atom_site_fract_x
	_atom_site_fract_y
	_atom_site_fract_z
	H0	H	0.392983	0.832986	0.724006
	H1	H	0.603458	0.152357	0.727272
	H2	H	0.603288	0.834229	0.284044
	H3	H	0.388694	0.150824	0.280658
	H4	H	0.715785	0.389066	0.843063
	H5	H	0.718518	0.593614	0.163326
	H6	H	0.275170	0.599562	0.845936
	H7	H	0.278739	0.389263	0.164046
	H8	H	0.834835	0.708147	0.403146
	H9	H	0.157694	0.714042	0.608122
	H10	H	0.836876	0.274663	0.606976
	H11	H	0.154945	0.267367	0.393672
	H12	H	0.838618	0.388417	0.725163
	H13	H	0.155461	0.603753	0.728186
	H14	H	0.837857	0.597385	0.283523
	H15	H	0.156742	0.386018	0.282867
	H16	H	0.394200	0.713270	0.844953
	H17	H	0.605459	0.713559	0.162933
	H18	H	0.602126	0.270369	0.844291
	H19	H	0.396105	0.273516	0.164029
	H20	H	0.713061	0.832028	0.405814
	H21	H	0.715274	0.154828	0.609925
	H22	H	0.278488	0.832744	0.607402
	H23	H	0.273336	0.151002	0.395281
	H24	H	0.891539	0.333697	0.224833
	H25	H	0.104801	0.652895	0.225894
	H26	H	0.107017	0.335405	0.779088
	H27	H	0.893627	0.653607	0.786132
	H28	H	0.218490	0.885708	0.346242
	H29	H	0.220038	0.100571	0.662836
	H30	H	0.775589	0.095909	0.344980
	H31	H	0.779365	0.892817	0.666050
	H32	H	0.337853	0.211855	0.900477
	H33	H	0.659808	0.209280	0.107479
	H34	H	0.338957	0.769071	0.110485
	H35	H	0.658516	0.773554	0.901049
	H36	H	0.338073	0.884180	0.225573
	H37	H	0.657546	0.096512	0.225835
	H38	H	0.338848	0.100408	0.782324
	H39	H	0.656596	0.885900	0.783212
	H40	H	0.890879	0.213332	0.344272
	H41	H	0.102674	0.217019	0.662420
	H42	H	0.098229	0.774403	0.344044
	H43	H	0.894346	0.774510	0.664730
	H44	H	0.217245	0.332327	0.898858
	H45	H	0.220205	0.652379	0.109695
	H46	H	0.780571	0.330950	0.105769
	H47	H	0.777434	0.652197	0.899475
	H48	H	0.413355	0.105268	0.591312
	H49	H	0.584108	0.880813	0.590072
	H50	H	0.589553	0.109383	0.417257
	H51	H	0.405199	0.878473	0.417309
	H52	H	0.587955	0.402049	0.116462
	H53	H	0.589521	0.581355	0.889572
	H54	H	0.414713	0.577662	0.113996
	H55	H	0.403831	0.401719	0.888784
	H56	H	0.113367	0.585730	0.415190
	H57	H	0.883525	0.580906	0.593714
	H58	H	0.112253	0.403784	0.590951
	H59	H	0.884831	0.406693	0.416200
	H60	H	0.109241	0.408881	0.588018
	H61	H	0.881348	0.584066	0.598469
	H62	H	0.111706	0.581145	0.415658
	H63	H	0.882711	0.407419	0.409658
	H64	H	0.411681	0.585027	0.118596
	H65	H	0.586406	0.580492	0.890500
	H66	H	0.590344	0.397620	0.119649
	H67	H	0.410489	0.406791	0.892537
	H68	H	0.585499	0.110124	0.410213
	H69	H	0.594590	0.876579	0.594800
	H70	H	0.405646	0.107662	0.592318
	H71	H	0.410475	0.877739	0.411637
	H72	H	0.908480	0.608174	0.097075
	H73	H	0.091805	0.377974	0.090310
	H74	H	0.085123	0.606929	0.916492
	H75	H	0.903897	0.377408	0.919011
	H76	H	0.084685	0.904498	0.617082
	H77	H	0.087787	0.079519	0.390800
	H78	H	0.902520	0.085490	0.619813
	H79	H	0.916960	0.906627	0.396180
	H80	H	0.612013	0.077129	0.914419
	H81	H	0.383338	0.075291	0.098631
	H82	H	0.615813	0.898408	0.101477
	H83	H	0.382977	0.912172	0.906773
	H84	H	0.609881	0.901524	0.085293
	H85	H	0.379554	0.089190	0.097292
	H86	H	0.614045	0.082789	0.914273
	H87	H	0.379792	0.893664	0.914699
	H88	H	0.908854	0.079826	0.616344
	H89	H	0.081466	0.076009	0.394514
	H90	H	0.087053	0.902929	0.619375
	H91	H	0.902380	0.885480	0.384851
	H92	H	0.086202	0.607037	0.917447
	H93	H	0.086981	0.376722	0.099104
	H94	H	0.913138	0.605000	0.092227
	H95	H	0.907544	0.374417	0.904599
	H96	H	0.411211	0.108530	0.598458
	H97	H	0.585049	0.877217	0.602230
	H98	H	0.581386	0.106978	0.416977
	H99	H	0.411967	0.880633	0.417827
	H100	H	0.592800	0.402521	0.118535
	H101	H	0.586982	0.583803	0.890210
	H102	H	0.406546	0.577797	0.117413
	H103	H	0.411995	0.398239	0.890211
	H104	H	0.113275	0.583035	0.411620
	H105	H	0.882625	0.587049	0.593042
	H106	H	0.111256	0.409485	0.594027
	H107	H	0.882202	0.401676	0.413188
	H108	H	0.906281	0.607170	0.090158
	H109	H	0.082863	0.380813	0.091695
	H110	H	0.086462	0.606936	0.915899
	H111	H	0.918063	0.380620	0.914490
	H112	H	0.088141	0.905782	0.617378
	H113	H	0.080810	0.083125	0.391994
	H114	H	0.910591	0.088526	0.618653
	H115	H	0.890532	0.910461	0.388876
	H116	H	0.610741	0.080706	0.919092
	H117	H	0.385167	0.082224	0.086602
	H118	H	0.608760	0.914398	0.097249
	H119	H	0.388188	0.908630	0.926846
	C120	C	0.377532	0.001413	0.625511
	C121	C	0.619545	0.984464	0.627837
	C122	C	0.617433	0.002543	0.383972
	C123	C	0.375498	0.983793	0.382209
	C124	C	0.620913	0.369177	0.012527
	C125	C	0.620204	0.613456	0.995298
	C126	C	0.377592	0.613837	0.012339
	C127	C	0.376956	0.370760	0.995681
	C128	C	0.006359	0.614299	0.382835
	C129	C	0.988158	0.616525	0.626769
	C130	C	0.005435	0.374507	0.623400
	C131	C	0.988635	0.371902	0.381038
	C132	C	0.877264	0.500794	0.124551
	C133	C	0.120274	0.483876	0.126558
	C134	C	0.119592	0.501935	0.882494
	C135	C	0.877150	0.483623	0.881558
	C136	C	0.117990	0.871955	0.512940
	C137	C	0.118084	0.114549	0.496082
	C138	C	0.874598	0.115551	0.512833
	C139	C	0.873940	0.871263	0.496518
	C140	C	0.506833	0.113057	0.883454
	C141	C	0.489138	0.113235	0.125904
	C142	C	0.506188	0.871042	0.126463
	C143	C	0.489155	0.872139	0.884060
	C144	C	0.375036	0.880946	0.684646
	C145	C	0.621529	0.104546	0.687541
	C146	C	0.620345	0.881818	0.324574
	C147	C	0.371407	0.103398	0.321033
	C148	C	0.678091	0.368982	0.891771
	C149	C	0.679598	0.613752	0.115426
	C150	C	0.316076	0.617161	0.893268
	C151	C	0.318225	0.370372	0.115959
	C152	C	0.884124	0.670458	0.383409
	C153	C	0.108972	0.675570	0.627763
	C154	C	0.885041	0.314483	0.625500
	C155	C	0.107547	0.309022	0.377256
	C156	C	0.885956	0.371159	0.684528
	C157	C	0.108120	0.620258	0.687242
	C158	C	0.885575	0.615390	0.323603
	C159	C	0.108688	0.367979	0.321581
	C160	C	0.375189	0.673901	0.892848
	C161	C	0.623602	0.673621	0.114980
	C162	C	0.621222	0.310054	0.892180
	C163	C	0.376601	0.312792	0.116071
	C164	C	0.675218	0.880822	0.384734
	C165	C	0.676949	0.105946	0.628571
	C166	C	0.318047	0.880739	0.626320
	C167	C	0.314104	0.103486	0.378438
	C168	C	0.874385	0.381028	0.184591
	C169	C	0.122871	0.604500	0.186410
	C170	C	0.124014	0.383024	0.819947
	C171	C	0.875076	0.604951	0.824350
	C172	C	0.177549	0.868916	0.393280
	C173	C	0.179821	0.118584	0.615090
	C174	C	0.814797	0.115693	0.392763
	C175	C	0.817740	0.872883	0.617719
	C176	C	0.386085	0.173019	0.881462
	C177	C	0.610873	0.170951	0.126857
	C178	C	0.386564	0.809374	0.128459
	C179	C	0.610000	0.812378	0.881989
	C180	C	0.386230	0.866830	0.186045
	C181	C	0.609682	0.114802	0.185681
	C182	C	0.386533	0.117024	0.822953
	C183	C	0.609037	0.868369	0.823291
	C184	C	0.872348	0.173876	0.392369
	C185	C	0.121210	0.176466	0.614900
	C186	C	0.118010	0.813132	0.392392
	C187	C	0.874586	0.813620	0.617034
	C188	C	0.178942	0.381158	0.879942
	C189	C	0.180365	0.604362	0.128422
	C190	C	0.819131	0.379520	0.124911
	C191	C	0.816964	0.604152	0.880744
	C192	C	0.402675	0.085409	0.601040
	C193	C	0.595078	0.900070	0.602816
	C194	C	0.592732	0.086921	0.407964
	C195	C	0.401678	0.900903	0.408156
	C196	C	0.597218	0.393375	0.096321
	C197	C	0.594891	0.589063	0.911913
	C198	C	0.403456	0.587781	0.094997
	C199	C	0.401468	0.395082	0.912207
	C200	C	0.090779	0.590317	0.407063
	C201	C	0.904350	0.591123	0.602202
	C202	C	0.089061	0.400038	0.598048
	C203	C	0.904798	0.397968	0.406107
	C204	C	0.902149	0.585043	0.100152
	C205	C	0.094603	0.400247	0.101148
	C206	C	0.093483	0.585229	0.908983
	C207	C	0.902386	0.399528	0.905498
	C208	C	0.093623	0.897205	0.596235
	C209	C	0.091318	0.087200	0.413859
	C210	C	0.899906	0.091798	0.596279
	C211	C	0.896699	0.894182	0.412091
	C212	C	0.590483	0.087503	0.908693
	C213	C	0.404599	0.089210	0.101374
	C214	C	0.589775	0.897200	0.101857
	C215	C	0.405673	0.897409	0.909085
	Zn216	Zn	0.497624	-0.007076	0.755162
	Zn217	Zn	0.496751	-0.007554	0.255015
	Zn218	Zn	0.749665	0.491265	0.002939
	Zn219	Zn	0.247610	0.492473	0.003763
	Zn220	Zn	-0.003270	0.743055	0.504141
	Zn221	Zn	-0.003279	0.244919	0.502963
	Zn222	Zn	-0.001813	0.494172	0.753877
	Zn223	Zn	-0.002122	0.493072	0.253822
	Zn224	Zn	0.498735	0.743604	0.004609
	Zn225	Zn	0.498361	0.241139	0.004250
	Zn226	Zn	0.745500	-0.005961	0.505624
	Zn227	Zn	0.248140	-0.007456	0.504353
	N228	N	0.411266	0.957049	0.684165
	N229	N	0.586620	0.027887	0.687185
	N230	N	0.585046	0.958507	0.324189
	N231	N	0.408806	0.027922	0.323097
	N232	N	0.678128	0.404906	0.967507
	N233	N	0.678128	0.577336	0.039948
	N234	N	0.317146	0.580734	0.968587
	N235	N	0.318453	0.405817	0.039997
	N236	N	0.960267	0.670041	0.419417
	N237	N	0.033391	0.673267	0.590687
	N238	N	0.960293	0.316617	0.588188
	N239	N	0.031760	0.311464	0.413720
	N240	N	0.961945	0.407780	0.683220
	N241	N	0.032002	0.584163	0.686843
	N242	N	0.962735	0.581253	0.322873
	N243	N	0.033597	0.406229	0.323873
	N244	N	0.412557	0.672122	0.967980
	N245	N	0.587332	0.673483	0.039347
	N246	N	0.586303	0.310091	0.968310
	N247	N	0.412264	0.312781	0.040426
	N248	N	0.673534	0.956783	0.421047
	N249	N	0.675767	0.030068	0.592178
	N250	N	0.319335	0.956678	0.590266
	N251	N	0.316298	0.028124	0.415828
	N252	N	0.909876	0.457544	0.184469
	N253	N	0.086443	0.528399	0.185512
	N254	N	0.087775	0.459249	0.821441
	N255	N	0.911657	0.529038	0.824730
	N256	N	0.177644	0.904824	0.469079
	N257	N	0.177993	0.080829	0.540185
	N258	N	0.815840	0.080311	0.468642
	N259	N	0.817073	0.907689	0.541700
	N260	N	0.461827	0.170699	0.918552
	N261	N	0.534682	0.170386	0.090667
	N262	N	0.462304	0.811829	0.092189
	N263	N	0.534695	0.814740	0.919289
	N264	N	0.461621	0.904615	0.184785
	N265	N	0.532888	0.079800	0.185377
	N266	N	0.462611	0.080740	0.823937
	N267	N	0.533104	0.904884	0.824261
	N268	N	0.908694	0.174175	0.467921
	N269	N	0.083825	0.174384	0.539763
	N270	N	0.081589	0.814852	0.467810
	N271	N	0.908690	0.812420	0.540618
	N272	N	0.176559	0.456293	0.917965
	N273	N	0.178961	0.528488	0.092096
	N274	N	0.820777	0.455188	0.088394
	N275	N	0.818052	0.527620	0.915748
	O276	O	0.682110	0.436445	0.355743
	H277	H	0.682295	0.446412	0.357543
	H278	H	0.673900	0.443939	0.348623
	O279	O	0.355451	0.624563	0.359802
	H280	H	0.343749	0.599870	0.350451
	H281	H	0.366438	0.622895	0.363053
	O282	O	0.349292	0.451473	0.472708
	H283	H	0.352540	0.444730	0.478078
	H284	H	0.347002	0.434955	0.485330
	O285	O	0.866589	-0.193090	0.198490
	H286	H	0.863105	-0.205642	0.204857
	H287	H	0.870459	-0.176960	0.204234
	O288	O	-0.669383	0.551799	0.302051
	H289	H	-0.686646	0.552731	0.277393
	H290	H	-0.673906	0.531133	0.315637
	O291	O	0.592564	0.496676	0.604048
	H292	H	0.593968	0.492919	0.602821
	H293	H	0.586923	0.496663	0.586906
	O294	O	0.627385	0.692078	0.583431
	H295	H	0.617281	0.695672	0.609939
	H296	H	0.641251	0.699562	0.580068
	O297	O	1.055894	0.929933	0.942593
	H298	H	1.041734	0.927105	0.946913
	H299	H	1.030076	0.928383	0.940619
	O300	O	0.165858	0.162899	0.163065
	H301	H	0.157640	0.168359	0.144339
	H302	H	0.173551	0.124942	0.163576
	O303	O	0.579801	0.624035	0.341165
	H304	H	0.559473	0.636391	0.349897
	H305	H	0.568984	0.604825	0.339195
	O306	O	1.101917	0.192054	-0.090247
	H307	H	1.093541	0.187294	-0.076079
	H308	H	1.094469	0.209540	-0.096843
	O309	O	0.677625	0.593947	0.691509
	H310	H	0.688229	0.587398	0.711278
	H311	H	0.668576	0.598717	0.684869
	O312	O	1.187412	1.005176	0.176488
	H313	H	1.188124	1.006889	0.185682
	H314	H	1.200066	0.986421	0.177100
	O315	O	0.472654	0.299962	0.358772
	H316	H	0.454688	0.298555	0.380888
	H317	H	0.470714	0.287344	0.354733
	O318	O	0.969976	1.054014	-0.162474
	H319	H	0.967792	1.044031	-0.154166
	H320	H	0.970302	1.063780	-0.164030
	O321	O	1.690070	-0.626069	1.519660
	H322	H	1.714940	-0.644531	1.514925
	H323	H	1.684185	-0.619842	1.497240
	O324	O	0.086722	-0.043203	0.891463
	H325	H	0.066331	-0.051544	0.885894
	H326	H	0.089792	-0.024014	0.885701
	O327	O	0.665764	0.574723	0.564720
	H328	H	0.669565	0.577875	0.559779
	H329	H	0.676649	0.577117	0.566332
	O330	O	0.435141	0.670417	0.376596
	H331	H	0.421335	0.668246	0.367521
	H332	H	0.443163	0.664232	0.387426
	O333	O	0.401159	1.312522	0.678281
	H334	H	0.430419	1.318212	0.682204
	H335	H	0.408150	1.331242	0.690300
	O336	O	1.008240	0.104350	1.186124
	H337	H	1.021483	0.104839	1.179237
	H338	H	1.022376	0.108912	1.193702
	O339	O	0.919341	-0.016395	1.023270
	H340	H	0.922185	-0.008583	1.022272
	H341	H	0.910207	-0.030985	1.019589
	O342	O	-0.064964	1.191605	1.099010
	H343	H	-0.059748	1.200508	1.106411
	H344	H	-0.046969	1.179557	1.092285
	O345	O	0.182948	0.897871	0.839966
	H346	H	0.182413	0.902747	0.820236
	H347	H	0.167193	0.912036	0.850297
	O348	O	0.806542	0.960604	-0.015181
	H349	H	0.795218	0.967532	-0.018799
	H350	H	0.824311	0.955884	0.006463
	O351	O	0.001720	-0.172046	0.163344
	H352	H	-0.004705	-0.180687	0.174383
	H353	H	0.003977	-0.180524	0.156339
	O354	O	1.184867	1.028064	-0.015062
	H355	H	1.183533	1.014042	-0.018369
	H356	H	1.189315	1.028241	-0.009757
	O357	O	0.062382	0.892267	-0.004992
	H358	H	0.055960	0.887155	-0.010666
	H359	H	0.064205	0.902688	-0.002599
	O360	O	0.308897	0.430354	0.679347
	H361	H	0.302659	0.437139	0.692484
	H362	H	0.308013	0.454852	0.668913
	O363	O	0.549690	0.601081	0.495416
	H364	H	0.547957	0.601629	0.487943
	H365	H	0.537917	0.588220	0.493472
	O366	O	0.503314	0.494812	0.348639
	H367	H	0.501304	0.504491	0.350580
	H368	H	0.497974	0.474887	0.351214
	O369	O	0.503756	0.460087	0.368154
	H370	H	0.505703	0.451305	0.360478
	H371	H	0.503743	0.456525	0.369253
	O372	O	-0.040056	1.003962	0.143344
	H373	H	-0.025174	1.010995	0.128843
	H374	H	-0.037579	1.004726	0.146482
	O375	O	0.523700	0.366106	0.636726
	H376	H	0.519134	0.359802	0.632201
	H377	H	0.522041	0.367992	0.630938
	O378	O	0.303768	0.627623	0.536010
	H379	H	0.290882	0.639834	0.531580
	H380	H	0.308348	0.623443	0.528294
	O381	O	0.494994	0.594742	0.685824
	H382	H	0.487792	0.587252	0.686288
	H383	H	0.483815	0.595684	0.700569
	O384	O	0.155024	0.782094	0.981274
	H385	H	0.167518	0.762271	0.971475
	H386	H	0.146191	0.780679	0.956638
	O387	O	1.550423	0.466013	0.423836
	H388	H	1.536351	0.472597	0.422172
	H389	H	1.561311	0.471432	0.416445
	O390	O	0.332608	0.462340	0.513529
	H391	H	0.330274	0.448714	0.513812
	H392	H	0.343574	0.484723	0.508245
	O393	O	0.810149	-0.093698	0.914405
	H394	H	0.788011	-0.100451	0.919409
	H395	H	0.801188	-0.093244	0.934227
	O396	O	-0.195833	1.030425	0.985345
	H397	H	-0.197336	1.038036	0.992847
	H398	H	-0.189993	1.031298	0.986731
	O399	O	0.443685	0.502616	0.634052
	H400	H	0.453786	0.506763	0.640674
	H401	H	0.454561	0.490077	0.629462
	O402	O	0.988326	-0.168214	0.812881
	H403	H	0.972890	-0.148769	0.829757
	H404	H	0.978802	-0.176918	0.798575
	O405	O	-0.117421	-0.020815	0.188244
	H406	H	-0.100984	-0.018369	0.185773
	H407	H	-0.134568	-0.004760	0.196412
	O408	O	1.098313	1.149760	0.947388
	H409	H	1.104781	1.144175	0.937982
	H410	H	1.114352	1.156151	0.948853
	O411	O	0.818603	1.174796	-0.168729
	H412	H	0.824434	1.157887	-0.178387
	H413	H	0.811593	1.174794	-0.154145
	O414	O	-0.094703	0.152769	0.980538
	H415	H	-0.081962	0.142377	0.974327
	H416	H	-0.111841	0.173307	0.970948
	O417	O	0.520516	0.396265	0.565992
	H418	H	0.529707	0.408589	0.556435
	H419	H	0.531387	0.396434	0.552866
	O420	O	-0.184103	0.840696	-0.011021
	H421	H	-0.184779	0.839829	-0.000520
	H422	H	-0.185095	0.829015	0.018068
	O423	O	0.684230	0.332816	-0.604409
	H424	H	0.695604	0.354958	-0.617488
	H425	H	0.653809	0.330655	-0.620137
	O426	O	0.085318	-0.087587	0.922017
	H427	H	0.095660	-0.100992	0.917977
	H428	H	0.087626	-0.092997	0.920797
	O429	O	0.282116	0.281745	0.522497
	H430	H	0.289979	0.283746	0.562305
	H431	H	0.253892	0.256243	0.538368
