data_Molecule from HDF5

_cell_length_a		16.210281
_cell_length_b		16.254092
_cell_length_c		16.224212
_cell_angle_alpha	90.901312
_cell_angle_beta	89.586354
_cell_angle_gamma	89.541568
_symmetry_space_group_name_H-M	'P 1'
_symmetry_Int_Tables_number		1

loop_
	_symmetry_equiv_pos_as_xyz
	x,y,z

loop_
	_atom_site_label
	_atom_site_type_symbol
	_atom_site_fract_x
	_atom_site_fract_y
	_atom_site_fract_z
	H0	H	0.405598	0.845273	0.710567
	H1	H	0.603678	0.171396	0.717016
	H2	H	0.606943	0.847538	0.276964
	H3	H	0.403522	0.174511	0.288881
	H4	H	0.720257	0.405803	0.833569
	H5	H	0.715315	0.609572	0.161798
	H6	H	0.287008	0.609014	0.833347
	H7	H	0.288419	0.415507	0.160591
	H8	H	0.840004	0.726546	0.397692
	H9	H	0.168190	0.721883	0.594339
	H10	H	0.838576	0.298105	0.595036
	H11	H	0.166382	0.291839	0.393423
	H12	H	0.837835	0.414138	0.709582
	H13	H	0.165675	0.611154	0.713381
	H14	H	0.836589	0.604095	0.287551
	H15	H	0.165160	0.405538	0.278247
	H16	H	0.404443	0.723126	0.832386
	H17	H	0.601629	0.727887	0.160372
	H18	H	0.605638	0.289260	0.834569
	H19	H	0.403555	0.300772	0.161196
	H20	H	0.720763	0.846238	0.394312
	H21	H	0.717103	0.172704	0.599906
	H22	H	0.289409	0.845339	0.597190
	H23	H	0.288147	0.172854	0.403224
	H24	H	0.901718	0.344595	0.208914
	H25	H	0.099771	0.670127	0.215558
	H26	H	0.105784	0.346853	0.775917
	H27	H	0.901721	0.674139	0.786358
	H28	H	0.222618	0.905768	0.334831
	H29	H	0.213497	0.108632	0.662848
	H30	H	0.786825	0.109663	0.334291
	H31	H	0.788574	0.913851	0.660646
	H32	H	0.338918	0.223569	0.899947
	H33	H	0.665977	0.226273	0.098498
	H34	H	0.339165	0.798980	0.097630
	H35	H	0.667204	0.789809	0.893217
	H36	H	0.340059	0.914850	0.212354
	H37	H	0.666771	0.111315	0.213070
	H38	H	0.339763	0.107744	0.785458
	H39	H	0.667546	0.905765	0.779815
	H40	H	0.905514	0.220551	0.332278
	H41	H	0.102611	0.229423	0.659556
	H42	H	0.108702	0.788707	0.334672
	H43	H	0.904422	0.798180	0.661009
	H44	H	0.221010	0.346585	0.892603
	H45	H	0.213052	0.673288	0.097762
	H46	H	0.788760	0.345371	0.094139
	H47	H	0.785319	0.671791	0.900248
	H48	H	0.402914	0.128572	0.596258
	H49	H	0.589601	0.896033	0.583725
	H50	H	0.591229	0.122861	0.413540
	H51	H	0.422072	0.896592	0.407778
	H52	H	0.599883	0.421247	0.113600
	H53	H	0.586463	0.606756	0.880941
	H54	H	0.413041	0.618454	0.116127
	H55	H	0.403429	0.417129	0.876782
	H56	H	0.118809	0.595905	0.403672
	H57	H	0.884018	0.605535	0.597570
	H58	H	0.121198	0.425988	0.597898
	H59	H	0.883844	0.412278	0.406570
	H60	H	0.122938	0.405214	0.584543
	H61	H	0.884714	0.610815	0.586940
	H62	H	0.119752	0.598532	0.403491
	H63	H	0.885362	0.418688	0.401528
	H64	H	0.394558	0.604590	0.117112
	H65	H	0.606519	0.600188	0.876523
	H66	H	0.590543	0.420083	0.112768
	H67	H	0.418269	0.421257	0.882883
	H68	H	0.604846	0.129083	0.407932
	H69	H	0.604409	0.891973	0.581202
	H70	H	0.412653	0.125508	0.598340
	H71	H	0.405657	0.891508	0.407892
	H72	H	0.907671	0.625526	0.090523
	H73	H	0.095165	0.388299	0.095511
	H74	H	0.083758	0.622883	0.906283
	H75	H	0.912106	0.391722	0.900177
	H76	H	0.094624	0.918079	0.614849
	H77	H	0.107040	0.093576	0.378561
	H78	H	0.908965	0.110399	0.615498
	H79	H	0.904955	0.915587	0.378118
	H80	H	0.622291	0.096362	0.899840
	H81	H	0.383663	0.107512	0.097936
	H82	H	0.619266	0.919706	0.084148
	H83	H	0.387891	0.920916	0.904632
	H84	H	0.620603	0.919660	0.087110
	H85	H	0.384740	0.109431	0.089876
	H86	H	0.622510	0.106624	0.908004
	H87	H	0.384808	0.914773	0.900822
	H88	H	0.907148	0.099826	0.614156
	H89	H	0.089195	0.093396	0.384918
	H90	H	0.096431	0.915858	0.614040
	H91	H	0.917854	0.924788	0.383908
	H92	H	0.099302	0.624929	0.915223
	H93	H	0.089060	0.395075	0.079629
	H94	H	0.907720	0.627076	0.094965
	H95	H	0.914139	0.393102	0.900925
	H96	H	0.409450	0.125018	0.588432
	H97	H	0.598706	0.889265	0.596280
	H98	H	0.592113	0.128333	0.398411
	H99	H	0.414911	0.890357	0.393481
	H100	H	0.595694	0.413292	0.116718
	H101	H	0.592415	0.586848	0.884999
	H102	H	0.415757	0.596077	0.109301
	H103	H	0.415527	0.405702	0.877265
	H104	H	0.118558	0.597379	0.405574
	H105	H	0.888282	0.598769	0.588232
	H106	H	0.114052	0.424909	0.575008
	H107	H	0.882798	0.411611	0.399464
	H108	H	0.910333	0.624718	0.093218
	H109	H	0.106377	0.390142	0.081443
	H110	H	0.097770	0.629227	0.897562
	H111	H	0.912167	0.392583	0.901920
	H112	H	0.096648	0.917909	0.614561
	H113	H	0.096905	0.109686	0.377072
	H114	H	0.917366	0.103718	0.611790
	H115	H	0.919776	0.908533	0.379301
	H116	H	0.617262	0.095276	0.911815
	H117	H	0.387045	0.101981	0.093428
	H118	H	0.620620	0.917031	0.085249
	H119	H	0.386657	0.914098	0.907305
	C120	C	0.380912	0.017696	0.621036
	C121	C	0.625484	1.000356	0.618382
	C122	C	0.626566	0.019035	0.375009
	C123	C	0.383699	1.001332	0.377242
	C124	C	0.625624	0.386699	0.006162
	C125	C	0.623973	0.629487	0.988924
	C126	C	0.379763	0.633448	0.005665
	C127	C	0.382355	0.388743	0.987712
	C128	C	0.010901	0.628210	0.375949
	C129	C	0.994164	0.633309	0.619245
	C130	C	0.011086	0.390037	0.615981
	C131	C	0.992916	0.384770	0.372642
	C132	C	0.880459	0.517331	0.119057
	C133	C	0.123892	0.499417	0.117175
	C134	C	0.124601	0.518364	0.874233
	C135	C	0.882098	0.500830	0.874998
	C136	C	0.126775	0.886389	0.506501
	C137	C	0.125440	0.130091	0.488548
	C138	C	0.882038	0.131875	0.505629
	C139	C	0.883808	0.888651	0.488473
	C140	C	0.511947	0.128950	0.878178
	C141	C	0.493619	0.134155	0.121562
	C142	C	0.511731	0.890885	0.116389
	C143	C	0.495053	0.885769	0.873925
	C144	C	0.384892	0.894366	0.673790
	C145	C	0.623237	0.123020	0.677182
	C146	C	0.626677	0.896380	0.315874
	C147	C	0.384018	0.124962	0.325087
	C148	C	0.682232	0.386424	0.882879
	C149	C	0.678037	0.629343	0.112572
	C150	C	0.325176	0.629488	0.882056
	C151	C	0.326386	0.394203	0.111494
	C152	C	0.888607	0.686965	0.377848
	C153	C	0.118234	0.686238	0.615926
	C154	C	0.887561	0.335541	0.614882
	C155	C	0.116787	0.329370	0.373798
	C156	C	0.887277	0.393570	0.671817
	C157	C	0.117204	0.631049	0.674870
	C158	C	0.886665	0.626099	0.323110
	C159	C	0.116134	0.385557	0.316116
	C160	C	0.383518	0.686389	0.881686
	C161	C	0.621896	0.688501	0.111594
	C162	C	0.625384	0.328227	0.883312
	C163	C	0.383967	0.337247	0.111938
	C164	C	0.683153	0.895614	0.374577
	C165	C	0.679855	0.123688	0.619092
	C166	C	0.326663	0.894533	0.617539
	C167	C	0.326705	0.124251	0.382086
	C168	C	0.882513	0.393437	0.171604
	C169	C	0.120541	0.621875	0.176364
	C170	C	0.125465	0.395706	0.814788
	C171	C	0.882032	0.624407	0.822368
	C172	C	0.184123	0.886202	0.383486
	C173	C	0.177938	0.129186	0.612889
	C174	C	0.825898	0.128944	0.382594
	C175	C	0.826718	0.892378	0.611596
	C176	C	0.388373	0.185351	0.880237
	C177	C	0.616985	0.188887	0.118805
	C178	C	0.388391	0.836532	0.116248
	C179	C	0.618050	0.828433	0.874248
	C180	C	0.388779	0.893997	0.173761
	C181	C	0.617383	0.131701	0.175861
	C182	C	0.388667	0.127634	0.823090
	C183	C	0.618260	0.886020	0.817415
	C184	C	0.884525	0.184665	0.381805
	C185	C	0.122948	0.189549	0.611123
	C186	C	0.127502	0.828029	0.383440
	C187	C	0.884449	0.834848	0.611655
	C188	C	0.182442	0.395473	0.873005
	C189	C	0.176690	0.623394	0.117606
	C190	C	0.825850	0.394069	0.114943
	C191	C	0.824158	0.623238	0.879274
	C192	C	0.402010	0.104093	0.600508
	C193	C	0.603923	0.914619	0.594087
	C194	C	0.603080	0.104497	0.399481
	C195	C	0.407341	0.915172	0.397197
	C196	C	0.602363	0.411165	0.092115
	C197	C	0.601882	0.605087	0.903064
	C198	C	0.401352	0.612519	0.091759
	C199	C	0.405489	0.408899	0.901375
	C200	C	0.096912	0.604212	0.397844
	C201	C	0.908011	0.611507	0.597361
	C202	C	0.097012	0.411932	0.592556
	C203	C	0.906287	0.407552	0.395542
	C204	C	0.902244	0.603378	0.099118
	C205	C	0.103034	0.413476	0.092785
	C206	C	0.100503	0.603555	0.899097
	C207	C	0.905755	0.414824	0.895258
	C208	C	0.103022	0.910281	0.592433
	C209	C	0.104057	0.105873	0.402474
	C210	C	0.904505	0.110735	0.591555
	C211	C	0.907300	0.910059	0.402561
	C212	C	0.598304	0.105934	0.900120
	C213	C	0.407455	0.112711	0.100123
	C214	C	0.597927	0.912556	0.092439
	C215	C	0.408806	0.909652	0.897297
	Zn216	Zn	0.504172	0.008896	0.747640
	Zn217	Zn	0.503615	0.010771	0.247188
	Zn218	Zn	0.753892	0.508193	-0.002098
	Zn219	Zn	0.253040	0.509839	-0.003683
	Zn220	Zn	0.004523	0.759061	0.496913
	Zn221	Zn	0.003362	0.259423	0.495769
	Zn222	Zn	0.002692	0.510711	0.745775
	Zn223	Zn	0.001125	0.506366	0.245857
	Zn224	Zn	0.503393	0.760038	-0.003294
	Zn225	Zn	0.502654	0.259683	-0.002142
	Zn226	Zn	0.754135	0.010278	0.497047
	Zn227	Zn	0.254440	0.008615	0.498171
	N228	N	0.417993	0.972060	0.676175
	N229	N	0.590236	0.045400	0.676909
	N230	N	0.592138	0.973957	0.316117
	N231	N	0.418928	0.047451	0.321966
	N232	N	0.682507	0.422110	0.960299
	N233	N	0.679720	0.593361	0.035309
	N234	N	0.322709	0.597368	0.960102
	N235	N	0.325492	0.425677	0.033314
	N236	N	0.967009	0.688297	0.409851
	N237	N	0.040654	0.687706	0.582180
	N238	N	0.965539	0.333332	0.580714
	N239	N	0.039030	0.328684	0.408227
	N240	N	0.965071	0.426765	0.672365
	N241	N	0.039092	0.598703	0.676977
	N242	N	0.963802	0.590167	0.321718
	N243	N	0.038024	0.419330	0.315347
	N244	N	0.416688	0.689231	0.959514
	N245	N	0.588739	0.688386	0.033719
	N246	N	0.590968	0.328210	0.961096
	N247	N	0.417839	0.333557	0.033958
	N248	N	0.683613	0.972994	0.410524
	N249	N	0.681159	0.046560	0.582992
	N250	N	0.324211	0.972291	0.585370
	N251	N	0.326352	0.046294	0.413755
	N252	N	0.915782	0.471030	0.174529
	N253	N	0.088189	0.543865	0.176217
	N254	N	0.090081	0.473087	0.815386
	N255	N	0.917414	0.547132	0.819688
	N256	N	0.183895	0.921658	0.461022
	N257	N	0.179693	0.093043	0.535636
	N258	N	0.824141	0.096879	0.460557
	N259	N	0.826019	0.925012	0.533839
	N260	N	0.466133	0.186155	0.913848
	N261	N	0.539095	0.190534	0.085559
	N262	N	0.466022	0.834598	0.081370
	N263	N	0.540202	0.828104	0.908531
	N264	N	0.466679	0.927145	0.173741
	N265	N	0.539756	0.098575	0.177937
	N266	N	0.466478	0.093170	0.821658
	N267	N	0.540601	0.921096	0.817061
	N268	N	0.918752	0.186598	0.459253
	N269	N	0.091121	0.190315	0.532755
	N270	N	0.092621	0.827952	0.461040
	N271	N	0.919025	0.832384	0.533969
	N272	N	0.182298	0.472648	0.909072
	N273	N	0.179009	0.546168	0.081720
	N274	N	0.824478	0.471901	0.083057
	N275	N	0.823938	0.545315	0.911248
	O276	O	0.460921	0.432990	0.440265
	H277	H	0.457195	0.429739	0.439631
	H278	H	0.463634	0.437445	0.436284
	O279	O	1.041569	0.117601	0.994054
	H280	H	1.043650	0.118825	0.990245
	H281	H	1.043675	0.123112	1.000100
	O282	O	1.115732	0.965676	-0.093840
	H283	H	1.126728	0.974190	-0.092458
	H284	H	1.113984	0.965614	-0.093940
	O285	O	1.011550	-0.048847	1.007898
	H286	H	1.003885	-0.049118	1.003436
	H287	H	0.995955	-0.053210	0.996593
	O288	O	0.412973	0.533542	0.516469
	H289	H	0.408901	0.527449	0.511442
	H290	H	0.410186	0.543482	0.526826
	O291	O	0.436247	0.439861	0.595304
	H292	H	0.428438	0.433410	0.597613
	H293	H	0.441229	0.436553	0.595250
	O294	O	0.532294	0.582694	0.482907
	H295	H	0.542501	0.576759	0.493735
	H296	H	0.517033	0.592460	0.494610
	O297	O	0.023139	0.027144	1.050590
	H298	H	0.014738	0.013174	1.048261
	H299	H	0.015337	0.023691	1.052695
	O300	O	0.538526	0.620934	0.451570
	H301	H	0.537886	0.642636	0.445623
	H302	H	0.541540	0.611436	0.446112
	O303	O	0.561180	0.590729	0.504746
	H304	H	0.569554	0.591036	0.511288
	H305	H	0.564463	0.605933	0.510582
	O306	O	-0.002807	1.060896	1.020934
	H307	H	0.005523	1.050271	1.007737
	H308	H	-0.008898	1.085119	1.030145
	O309	O	0.405486	0.440117	0.487434
	H310	H	0.399044	0.439912	0.480709
	H311	H	0.403710	0.436129	0.490271
	O312	O	-0.028121	-0.052800	0.068957
	H313	H	-0.033141	-0.071044	0.075431
	H314	H	-0.027735	-0.055940	0.065062
	O315	O	0.998677	0.108460	0.068013
	H316	H	0.989877	0.120610	0.061687
	H317	H	1.007530	0.112866	0.066359
	O318	O	1.046789	0.958037	1.022270
	H319	H	1.057712	0.949314	1.014654
	H320	H	1.044270	0.963077	1.003955
	O321	O	0.008195	-0.059796	0.912784
	H322	H	0.006313	-0.052216	0.913154
	H323	H	0.015127	-0.056503	0.918986
	O324	O	0.522848	0.432846	0.476352
	H325	H	0.528871	0.440058	0.468219
	H326	H	0.524275	0.424438	0.485639
	O327	O	-0.135125	0.059052	-0.007781
	H328	H	-0.134126	0.050812	-0.013313
	H329	H	-0.134521	0.051935	-0.008971
	O330	O	0.516930	0.455587	0.362386
	H331	H	0.523218	0.442246	0.352678
	H332	H	0.527918	0.454721	0.360727
	O333	O	-0.022367	0.992125	0.907245
	H334	H	-0.019755	0.996641	0.917555
	H335	H	-0.006895	0.986320	0.902064
	O336	O	-0.066991	0.096725	-0.040580
	H337	H	-0.067499	0.099159	-0.031780
	H338	H	-0.075011	0.098919	-0.045667
	O339	O	0.476707	0.595585	0.485771
	H340	H	0.466400	0.603534	0.489019
	H341	H	0.468360	0.603874	0.488614
	O342	O	0.995587	1.086981	1.120081
	H343	H	0.986606	1.083968	1.124606
	H344	H	0.994029	1.088548	1.115303
	O345	O	0.939992	0.977500	-0.026571
	H346	H	0.940062	0.976593	-0.029256
	H347	H	0.957566	0.979090	-0.028652
	O348	O	0.544595	0.552759	0.524594
	H349	H	0.533313	0.561516	0.524870
	H350	H	0.548831	0.554031	0.524021
	O351	O	0.471163	0.498839	0.532416
	H352	H	0.478415	0.487858	0.539608
	H353	H	0.470757	0.492787	0.525392
	O354	O	0.013585	-0.142349	-0.079760
	H355	H	0.019113	-0.131621	-0.072579
	H356	H	0.019622	-0.153652	-0.088285
	O357	O	1.045888	-0.063872	1.014885
	H358	H	1.053874	-0.067081	1.017627
	H359	H	1.047312	-0.057999	1.019821
	O360	O	0.502328	0.484749	0.439670
	H361	H	0.512561	0.482147	0.429739
	H362	H	0.496507	0.471002	0.436470
	O363	O	0.524042	0.565266	0.558169
	H364	H	0.516346	0.570848	0.544334
	H365	H	0.530800	0.557981	0.566294
	O366	O	0.984965	0.915614	0.983616
	H367	H	0.999215	0.910620	0.977455
	H368	H	0.980474	0.924209	0.986175
	O369	O	1.006916	-0.056074	1.164361
	H370	H	1.007445	-0.048578	1.164593
	H371	H	1.004212	-0.064661	1.166341
	O372	O	0.085365	0.027202	-0.100814
	H373	H	0.091005	0.030419	-0.095700
	H374	H	0.095171	0.021725	-0.105070
	O375	O	1.023677	0.066811	-0.023204
	H376	H	1.019277	0.048609	-0.022570
	H377	H	1.018642	0.071180	-0.010875
	O378	O	0.544268	0.403352	0.473383
	H379	H	0.560660	0.405984	0.454892
	H380	H	0.541170	0.398661	0.468209
	O381	O	0.558449	0.535164	0.578703
	H382	H	0.553053	0.543644	0.571013
	H383	H	0.560162	0.515848	0.582775
