data_Molecule from HDF5

_cell_length_a		16.304658
_cell_length_b		16.140215
_cell_length_c		16.254881
_cell_angle_alpha	89.957155
_cell_angle_beta	90.167805
_cell_angle_gamma	90.215679
_symmetry_space_group_name_H-M	'P 1'
_symmetry_Int_Tables_number		1

loop_
	_symmetry_equiv_pos_as_xyz
	x,y,z

loop_
	_atom_site_label
	_atom_site_type_symbol
	_atom_site_fract_x
	_atom_site_fract_y
	_atom_site_fract_z
	H0	H	0.397350	0.835027	0.710038
	H1	H	0.595692	0.165674	0.712367
	H2	H	0.591186	0.835279	0.285327
	H3	H	0.396915	0.165978	0.284555
	H4	H	0.709355	0.399492	0.834654
	H5	H	0.712049	0.601146	0.161142
	H6	H	0.279170	0.601415	0.834551
	H7	H	0.279197	0.400858	0.161559
	H8	H	0.830386	0.712158	0.400495
	H9	H	0.159207	0.715771	0.594358
	H10	H	0.831323	0.286140	0.594064
	H11	H	0.159831	0.288345	0.399164
	H12	H	0.831543	0.400526	0.711354
	H13	H	0.158159	0.601071	0.713359
	H14	H	0.831653	0.599451	0.281682
	H15	H	0.158916	0.403207	0.282024
	H16	H	0.397505	0.714824	0.833663
	H17	H	0.592085	0.712652	0.163043
	H18	H	0.591042	0.287970	0.833393
	H19	H	0.397262	0.287033	0.162552
	H20	H	0.706376	0.835260	0.400237
	H21	H	0.712136	0.164793	0.599246
	H22	H	0.280259	0.836124	0.596070
	H23	H	0.281421	0.165480	0.397639
	H24	H	0.897164	0.336305	0.210531
	H25	H	0.092329	0.666649	0.208367
	H26	H	0.092465	0.336213	0.784915
	H27	H	0.896434	0.665878	0.783353
	H28	H	0.208720	0.900790	0.333451
	H29	H	0.211218	0.101108	0.660732
	H30	H	0.778925	0.100537	0.333657
	H31	H	0.779386	0.900190	0.660974
	H32	H	0.331051	0.214227	0.899341
	H33	H	0.658878	0.214963	0.095527
	H34	H	0.330710	0.786978	0.093821
	H35	H	0.659373	0.786799	0.900818
	H36	H	0.331610	0.900169	0.212764
	H37	H	0.658605	0.100729	0.213289
	H38	H	0.331911	0.099932	0.781458
	H39	H	0.658587	0.900348	0.781501
	H40	H	0.898527	0.212889	0.331713
	H41	H	0.093612	0.214198	0.661457
	H42	H	0.089492	0.789627	0.332150
	H43	H	0.897346	0.786537	0.661710
	H44	H	0.208786	0.336874	0.898028
	H45	H	0.209037	0.665647	0.095801
	H46	H	0.781842	0.335352	0.094947
	H47	H	0.780238	0.664957	0.897653
	H48	H	0.400079	0.117346	0.585518
	H49	H	0.594918	0.882059	0.586695
	H50	H	0.592048	0.118966	0.409700
	H51	H	0.405996	0.883821	0.402082
	H52	H	0.587222	0.407536	0.114590
	H53	H	0.587458	0.590317	0.881677
	H54	H	0.399583	0.590504	0.114428
	H55	H	0.401302	0.412663	0.882565
	H56	H	0.115494	0.601145	0.395570
	H57	H	0.879213	0.581880	0.599608
	H58	H	0.112787	0.406218	0.594083
	H59	H	0.880561	0.408083	0.408325
	H60	H	0.110686	0.407959	0.588051
	H61	H	0.873486	0.605569	0.595250
	H62	H	0.111064	0.600143	0.411278
	H63	H	0.878977	0.411652	0.398707
	H64	H	0.404053	0.594062	0.114708
	H65	H	0.586157	0.595699	0.881086
	H66	H	0.589773	0.408033	0.115865
	H67	H	0.403671	0.406192	0.881140
	H68	H	0.588429	0.119983	0.400039
	H69	H	0.586616	0.881225	0.599383
	H70	H	0.400573	0.121452	0.594738
	H71	H	0.400068	0.883640	0.410341
	H72	H	0.901445	0.617852	0.084786
	H73	H	0.093807	0.380960	0.091251
	H74	H	0.088025	0.620253	0.902999
	H75	H	0.900319	0.385007	0.912935
	H76	H	0.100532	0.913764	0.616933
	H77	H	0.084844	0.105485	0.377900
	H78	H	0.912993	0.097871	0.611753
	H79	H	0.902542	0.906716	0.380990
	H80	H	0.610605	0.089503	0.904092
	H81	H	0.376970	0.094737	0.094577
	H82	H	0.611447	0.905787	0.089057
	H83	H	0.380482	0.910401	0.903919
	H84	H	0.611463	0.911938	0.094447
	H85	H	0.378169	0.095739	0.087989
	H86	H	0.612551	0.097025	0.902517
	H87	H	0.378712	0.906959	0.901519
	H88	H	0.894637	0.098454	0.618375
	H89	H	0.100398	0.091415	0.377170
	H90	H	0.078776	0.917117	0.608822
	H91	H	0.896849	0.902855	0.378373
	H92	H	0.085929	0.618428	0.905654
	H93	H	0.082513	0.383120	0.094544
	H94	H	0.898055	0.620108	0.091271
	H95	H	0.894185	0.378591	0.899948
	H96	H	0.408195	0.116979	0.589948
	H97	H	0.580706	0.887333	0.586351
	H98	H	0.581949	0.116434	0.408090
	H99	H	0.396310	0.880297	0.402254
	H100	H	0.588100	0.410272	0.114733
	H101	H	0.591464	0.594828	0.879731
	H102	H	0.398921	0.595256	0.116395
	H103	H	0.396784	0.407141	0.880126
	H104	H	0.109900	0.586650	0.401227
	H105	H	0.883236	0.591580	0.577194
	H106	H	0.111259	0.412712	0.592800
	H107	H	0.876552	0.401582	0.400805
	H108	H	0.906074	0.618943	0.091485
	H109	H	0.086252	0.384924	0.083735
	H110	H	0.089512	0.619345	0.906788
	H111	H	0.908307	0.384616	0.900472
	H112	H	0.085222	0.896575	0.616382
	H113	H	0.081529	0.086095	0.384609
	H114	H	0.901418	0.081763	0.610332
	H115	H	0.895778	0.910647	0.380293
	H116	H	0.610258	0.094928	0.909685
	H117	H	0.379919	0.089112	0.090877
	H118	H	0.613911	0.904381	0.096303
	H119	H	0.379407	0.906272	0.905641
	C120	C	0.374343	0.009230	0.618535
	C121	C	0.616905	0.992237	0.619784
	C122	C	0.615414	0.009258	0.377283
	C123	C	0.373031	0.992056	0.375916
	C124	C	0.616102	0.379428	0.006507
	C125	C	0.616679	0.622086	0.989467
	C126	C	0.372793	0.622499	0.006609
	C127	C	0.372348	0.379192	0.989663
	C128	C	0.003571	0.623172	0.374812
	C129	C	0.986564	0.622584	0.619071
	C130	C	0.003591	0.379227	0.619333
	C131	C	0.987435	0.379583	0.374877
	C132	C	0.873848	0.509637	0.117717
	C133	C	0.116371	0.492137	0.118179
	C134	C	0.115624	0.510112	0.876565
	C135	C	0.872758	0.491796	0.875514
	C136	C	0.115886	0.880181	0.505501
	C137	C	0.117787	0.123172	0.488581
	C138	C	0.873760	0.121773	0.505158
	C139	C	0.871736	0.878426	0.488741
	C140	C	0.503307	0.122832	0.875934
	C141	C	0.486726	0.122550	0.119838
	C142	C	0.503491	0.878765	0.120437
	C143	C	0.487049	0.879109	0.875646
	C144	C	0.376778	0.884769	0.672812
	C145	C	0.615671	0.116409	0.674842
	C146	C	0.611820	0.884505	0.322880
	C147	C	0.376204	0.116467	0.321497
	C148	C	0.671189	0.380326	0.883431
	C149	C	0.672929	0.620398	0.112689
	C150	C	0.317519	0.621141	0.883153
	C151	C	0.317126	0.380821	0.112720
	C152	C	0.879724	0.675883	0.378885
	C153	C	0.110079	0.678229	0.615817
	C154	C	0.880371	0.323570	0.615553
	C155	C	0.110786	0.325583	0.378446
	C156	C	0.880399	0.380745	0.673631
	C157	C	0.109662	0.621300	0.674729
	C158	C	0.880406	0.619833	0.319838
	C159	C	0.110419	0.382934	0.320248
	C160	C	0.376377	0.677495	0.882785
	C161	C	0.613391	0.676026	0.113602
	C162	C	0.612290	0.324798	0.882749
	C163	C	0.375889	0.324268	0.113240
	C164	C	0.669009	0.884643	0.380049
	C165	C	0.673329	0.115975	0.618337
	C166	C	0.318736	0.885195	0.616092
	C167	C	0.318469	0.116105	0.377744
	C168	C	0.876748	0.385120	0.172571
	C169	C	0.113534	0.616953	0.171966
	C170	C	0.112984	0.385728	0.821895
	C171	C	0.875731	0.616163	0.820418
	C172	C	0.170649	0.881553	0.382303
	C173	C	0.173251	0.121103	0.611616
	C174	C	0.817556	0.120291	0.382226
	C175	C	0.817628	0.880572	0.612368
	C176	C	0.380000	0.177099	0.878505
	C177	C	0.609867	0.177386	0.116612
	C178	C	0.379861	0.824457	0.115520
	C179	C	0.610588	0.824304	0.879451
	C180	C	0.380237	0.880902	0.174409
	C181	C	0.609831	0.120517	0.175043
	C182	C	0.380669	0.120626	0.819501
	C183	C	0.610268	0.880816	0.820387
	C184	C	0.876797	0.176195	0.381306
	C185	C	0.114863	0.177707	0.611943
	C186	C	0.111532	0.826054	0.381692
	C187	C	0.875787	0.823692	0.612561
	C188	C	0.170681	0.385966	0.878280
	C189	C	0.171544	0.616308	0.116025
	C190	C	0.819504	0.384756	0.115088
	C191	C	0.817974	0.615936	0.877064
	C192	C	0.396525	0.096126	0.596602
	C193	C	0.594024	0.905822	0.597356
	C194	C	0.593930	0.096004	0.399406
	C195	C	0.394372	0.905122	0.398219
	C196	C	0.594711	0.402045	0.092688
	C197	C	0.594749	0.600136	0.903279
	C198	C	0.394404	0.599943	0.092802
	C199	C	0.394190	0.401911	0.903605
	C200	C	0.089801	0.602166	0.396318
	C201	C	0.900903	0.599765	0.597106
	C202	C	0.089556	0.402093	0.597852
	C203	C	0.900961	0.400933	0.396255
	C204	C	0.895460	0.596529	0.095704
	C205	C	0.094190	0.405373	0.096265
	C206	C	0.094261	0.596954	0.898667
	C207	C	0.894494	0.405247	0.897928
	C208	C	0.094598	0.902594	0.591792
	C209	C	0.095474	0.100958	0.402187
	C210	C	0.896440	0.099385	0.591104
	C211	C	0.892473	0.900153	0.402330
	C212	C	0.589035	0.100458	0.898777
	C213	C	0.400438	0.099762	0.097690
	C214	C	0.589984	0.900764	0.099297
	C215	C	0.401687	0.901393	0.897265
	Zn216	Zn	0.495717	0.001035	0.747143
	Zn217	Zn	0.494823	0.001108	0.248807
	Zn218	Zn	0.744979	0.500642	-0.002457
	Zn219	Zn	0.243894	0.500953	-0.002568
	Zn220	Zn	-0.005392	0.751724	0.496756
	Zn221	Zn	-0.004425	0.250845	0.496796
	Zn222	Zn	-0.004893	0.500769	0.748544
	Zn223	Zn	-0.004700	0.501653	0.245720
	Zn224	Zn	0.495376	0.750644	-0.001745
	Zn225	Zn	0.494636	0.251322	-0.002035
	Zn226	Zn	0.744132	0.001005	0.497702
	Zn227	Zn	0.245631	0.000794	0.497120
	N228	N	0.410538	0.963086	0.674467
	N229	N	0.581297	0.038481	0.675791
	N230	N	0.579294	0.962925	0.320960
	N231	N	0.409357	0.038276	0.320328
	N232	N	0.673716	0.413727	0.961309
	N233	N	0.675108	0.587675	0.034409
	N234	N	0.315240	0.587640	0.960989
	N235	N	0.314736	0.414212	0.034664
	N236	N	0.957307	0.678277	0.412276
	N237	N	0.032572	0.679208	0.581831
	N238	N	0.957923	0.322618	0.582214
	N239	N	0.033333	0.323599	0.411804
	N240	N	0.957927	0.414542	0.676261
	N241	N	0.032073	0.587635	0.676979
	N242	N	0.958346	0.587697	0.317212
	N243	N	0.032543	0.415610	0.317822
	N244	N	0.410164	0.678364	0.960397
	N245	N	0.579211	0.677327	0.036127
	N246	N	0.578899	0.324070	0.960332
	N247	N	0.409307	0.323127	0.035697
	N248	N	0.671542	0.963179	0.413037
	N249	N	0.674251	0.037711	0.584829
	N250	N	0.316893	0.963723	0.583161
	N251	N	0.316334	0.037558	0.410836
	N252	N	0.909893	0.463537	0.174109
	N253	N	0.079925	0.538593	0.173482
	N254	N	0.079564	0.463987	0.820679
	N255	N	0.908888	0.537791	0.819099
	N256	N	0.173482	0.914565	0.460437
	N257	N	0.175217	0.087966	0.533710
	N258	N	0.815628	0.087170	0.460276
	N259	N	0.814651	0.913518	0.534364
	N260	N	0.457312	0.178762	0.912505
	N261	N	0.532290	0.178529	0.082953
	N262	N	0.457639	0.823126	0.082908
	N263	N	0.533260	0.822944	0.912923
	N264	N	0.458262	0.913946	0.177666
	N265	N	0.531993	0.086987	0.177019
	N266	N	0.458354	0.087416	0.817910
	N267	N	0.532608	0.913936	0.817610
	N268	N	0.911154	0.177252	0.458714
	N269	N	0.081198	0.178978	0.534222
	N270	N	0.077928	0.825402	0.459227
	N271	N	0.908564	0.822213	0.534692
	N272	N	0.172307	0.464189	0.911706
	N273	N	0.173340	0.537862	0.083155
	N274	N	0.817533	0.463269	0.081876
	N275	N	0.815860	0.537718	0.910652
	O276	O	0.480352	0.425723	0.507982
	H277	H	0.475183	0.414783	0.508113
	H278	H	0.484989	0.431546	0.505914
	O279	O	0.501689	0.515861	0.527489
	H280	H	0.507113	0.522770	0.534733
	H281	H	0.507469	0.522313	0.516419
	O282	O	0.474013	0.464112	0.483935
	H283	H	0.485282	0.465978	0.486913
	H284	H	0.474654	0.455436	0.482472
	O285	O	0.035491	0.992012	0.924934
	H286	H	0.034573	1.005460	0.942502
	H287	H	0.028993	0.986058	0.923161
	O288	O	0.418122	0.463019	0.601475
	H289	H	0.417590	0.454464	0.603397
	H290	H	0.408868	0.466882	0.598110
	O291	O	-0.005900	0.015179	0.981166
	H292	H	-0.009723	0.023448	0.975559
	H293	H	-0.003551	0.008391	0.981483
	O294	O	0.509071	0.501590	0.482798
	H295	H	0.511035	0.496579	0.483215
	H296	H	0.509006	0.497415	0.485808
	O297	O	0.454044	0.526098	0.535276
	H298	H	0.453742	0.531085	0.537631
	H299	H	0.457676	0.528358	0.518621
	O300	O	0.504773	0.524713	0.530260
	H301	H	0.515639	0.524745	0.532784
	H302	H	0.510303	0.516425	0.538203
	O303	O	0.514290	0.502065	0.538939
	H304	H	0.503376	0.496698	0.537931
	H305	H	0.525099	0.493379	0.545545
	O306	O	1.037167	0.078912	1.058954
	H307	H	1.039381	0.083425	1.060093
	H308	H	1.035059	0.076404	1.057044
	O309	O	0.573711	0.575811	0.523950
	H310	H	0.570608	0.582452	0.524513
	H311	H	0.567017	0.576830	0.519364
	O312	O	0.566339	0.448131	0.531067
	H313	H	0.566798	0.462704	0.535141
	H314	H	0.553221	0.449376	0.536763
	O315	O	1.069337	0.053305	0.956480
	H316	H	1.071545	0.047821	0.948382
	H317	H	1.067471	0.051796	0.953884
	O318	O	-0.011473	0.033448	-0.042354
	H319	H	-0.002790	0.027953	-0.054263
	H320	H	-0.007047	0.029315	-0.052321
	O321	O	0.527798	0.538364	0.524307
	H322	H	0.524876	0.531477	0.524511
	H323	H	0.520734	0.531005	0.527121
	O324	O	1.051904	-0.030212	-0.063101
	H325	H	1.057355	-0.031753	-0.077508
	H326	H	1.047721	-0.032705	-0.058884
	O327	O	1.020345	1.034357	-0.042579
	H328	H	1.026164	1.044047	-0.035659
	H329	H	1.020429	1.039739	-0.037877
	O330	O	0.579669	0.524358	0.570674
	H331	H	0.576451	0.533351	0.565721
	H332	H	0.588072	0.529281	0.570160
	O333	O	0.529035	0.551088	0.509778
	H334	H	0.526946	0.552491	0.509802
	H335	H	0.538067	0.550003	0.511957
