data_Molecule from HDF5

_cell_length_a		16.230765
_cell_length_b		16.184950
_cell_length_c		16.365390
_cell_angle_alpha	89.925636
_cell_angle_beta	89.883630
_cell_angle_gamma	90.061986
_symmetry_space_group_name_H-M	'P 1'
_symmetry_Int_Tables_number		1

loop_
	_symmetry_equiv_pos_as_xyz
	x,y,z

loop_
	_atom_site_label
	_atom_site_type_symbol
	_atom_site_fract_x
	_atom_site_fract_y
	_atom_site_fract_z
	H0	H	0.404009	0.841891	0.719779
	H1	H	0.604440	0.170474	0.717732
	H2	H	0.604160	0.842869	0.289490
	H3	H	0.403842	0.170095	0.287624
	H4	H	0.721207	0.407365	0.840633
	H5	H	0.720576	0.605727	0.166303
	H6	H	0.290046	0.604526	0.840049
	H7	H	0.289088	0.407431	0.167027
	H8	H	0.839222	0.719359	0.405718
	H9	H	0.168521	0.721103	0.599072
	H10	H	0.839031	0.295556	0.599720
	H11	H	0.168706	0.296053	0.407403
	H12	H	0.840706	0.407181	0.719080
	H13	H	0.168107	0.607801	0.717867
	H14	H	0.840869	0.606938	0.287346
	H15	H	0.167166	0.407535	0.288113
	H16	H	0.408267	0.720791	0.839676
	H17	H	0.602603	0.719992	0.166647
	H18	H	0.603119	0.292705	0.840260
	H19	H	0.406490	0.292108	0.167587
	H20	H	0.716467	0.842362	0.407314
	H21	H	0.716665	0.171501	0.599620
	H22	H	0.289735	0.842046	0.602261
	H23	H	0.292548	0.172343	0.406927
	H24	H	0.905693	0.343381	0.217537
	H25	H	0.104220	0.671629	0.216995
	H26	H	0.105170	0.342640	0.787356
	H27	H	0.905176	0.670392	0.788271
	H28	H	0.220881	0.908945	0.340821
	H29	H	0.220379	0.107213	0.667120
	H30	H	0.790203	0.105057	0.340469
	H31	H	0.790037	0.909050	0.667142
	H32	H	0.340841	0.220084	0.906358
	H33	H	0.669783	0.220053	0.099508
	H34	H	0.340678	0.792541	0.100605
	H35	H	0.670479	0.794207	0.906814
	H36	H	0.341042	0.905402	0.219678
	H37	H	0.668359	0.108253	0.218790
	H38	H	0.341358	0.105841	0.789098
	H39	H	0.669189	0.906651	0.788246
	H40	H	0.907180	0.220818	0.339846
	H41	H	0.101579	0.222350	0.666538
	H42	H	0.102156	0.794032	0.339122
	H43	H	0.904949	0.791572	0.666071
	H44	H	0.216147	0.340513	0.906959
	H45	H	0.217574	0.672234	0.099668
	H46	H	0.793121	0.342100	0.100167
	H47	H	0.793138	0.671364	0.905914
	H48	H	0.406430	0.124584	0.594939
	H49	H	0.591352	0.887450	0.607142
	H50	H	0.587533	0.121567	0.410225
	H51	H	0.416416	0.888882	0.405035
	H52	H	0.598182	0.413465	0.119495
	H53	H	0.602278	0.591940	0.889171
	H54	H	0.410766	0.599253	0.119371
	H55	H	0.409469	0.403752	0.884586
	H56	H	0.120259	0.600698	0.413891
	H57	H	0.884372	0.606065	0.596942
	H58	H	0.124978	0.418860	0.611349
	H59	H	0.889647	0.426007	0.410314
	H60	H	0.123611	0.400744	0.589833
	H61	H	0.890855	0.595344	0.591376
	H62	H	0.120977	0.597528	0.405954
	H63	H	0.881260	0.410773	0.398801
	H64	H	0.411253	0.598436	0.118429
	H65	H	0.591655	0.601328	0.889231
	H66	H	0.599539	0.411945	0.119873
	H67	H	0.403529	0.419697	0.888053
	H68	H	0.603150	0.124768	0.418011
	H69	H	0.592212	0.892297	0.588824
	H70	H	0.414554	0.124599	0.603445
	H71	H	0.415004	0.891740	0.417878
	H72	H	0.915077	0.626814	0.103959
	H73	H	0.085719	0.391226	0.101708
	H74	H	0.094554	0.619180	0.918267
	H75	H	0.904390	0.385390	0.907560
	H76	H	0.103549	0.913184	0.621411
	H77	H	0.103811	0.099330	0.387120
	H78	H	0.910662	0.101391	0.619655
	H79	H	0.912711	0.911897	0.386858
	H80	H	0.619820	0.093934	0.913948
	H81	H	0.391919	0.091274	0.091756
	H82	H	0.619193	0.920929	0.094227
	H83	H	0.388397	0.914681	0.910561
	H84	H	0.624160	0.914280	0.106154
	H85	H	0.386065	0.097220	0.106659
	H86	H	0.624490	0.098357	0.901711
	H87	H	0.388561	0.913888	0.911270
	H88	H	0.909777	0.101924	0.620522
	H89	H	0.095787	0.097914	0.389990
	H90	H	0.094719	0.921251	0.615946
	H91	H	0.906392	0.911614	0.386217
	H92	H	0.105998	0.625917	0.909087
	H93	H	0.098525	0.392659	0.085859
	H94	H	0.918786	0.621677	0.090539
	H95	H	0.919725	0.388902	0.904248
	H96	H	0.417311	0.120718	0.592964
	H97	H	0.607786	0.885795	0.597846
	H98	H	0.601075	0.128473	0.400825
	H99	H	0.405145	0.888345	0.411290
	H100	H	0.600069	0.414159	0.119874
	H101	H	0.604162	0.605195	0.884430
	H102	H	0.412114	0.600191	0.118765
	H103	H	0.420076	0.415455	0.891257
	H104	H	0.122918	0.605042	0.407290
	H105	H	0.886116	0.594302	0.603825
	H106	H	0.114702	0.427646	0.586376
	H107	H	0.887283	0.407380	0.418633
	H108	H	0.903908	0.626884	0.093126
	H109	H	0.105061	0.385289	0.103331
	H110	H	0.091721	0.624353	0.902500
	H111	H	0.914145	0.392288	0.918984
	H112	H	0.091361	0.908501	0.618402
	H113	H	0.098257	0.105821	0.386734
	H114	H	0.909371	0.100611	0.619958
	H115	H	0.909524	0.916693	0.388267
	H116	H	0.624073	0.106966	0.912439
	H117	H	0.386648	0.107540	0.093345
	H118	H	0.622957	0.907292	0.093366
	H119	H	0.390176	0.914343	0.911020
	C120	C	0.383208	0.014816	0.626089
	C121	C	0.625456	0.997604	0.625181
	C122	C	0.625816	0.016160	0.381978
	C123	C	0.383607	0.998538	0.382734
	C124	C	0.627151	0.385024	0.011812
	C125	C	0.627441	0.628059	0.995277
	C126	C	0.382956	0.627903	0.011193
	C127	C	0.382672	0.384513	0.995844
	C128	C	0.012587	0.628779	0.381087
	C129	C	0.995429	0.628229	0.625120
	C130	C	0.012633	0.386282	0.624570
	C131	C	0.994821	0.386130	0.381230
	C132	C	0.884082	0.516040	0.124399
	C133	C	0.125686	0.498488	0.124748
	C134	C	0.126399	0.514760	0.881458
	C135	C	0.884169	0.497835	0.881817
	C136	C	0.125787	0.885739	0.511116
	C137	C	0.127304	0.129733	0.495740
	C138	C	0.882209	0.129001	0.511471
	C139	C	0.881424	0.884804	0.495116
	C140	C	0.513827	0.127886	0.881831
	C141	C	0.496601	0.127883	0.125092
	C142	C	0.513527	0.884776	0.125998
	C143	C	0.497403	0.885513	0.882250
	C144	C	0.384445	0.891049	0.681532
	C145	C	0.624014	0.121512	0.679970
	C146	C	0.623996	0.892051	0.327382
	C147	C	0.384757	0.121707	0.326762
	C148	C	0.682833	0.387071	0.889223
	C149	C	0.682114	0.625428	0.117986
	C150	C	0.327819	0.625590	0.888688
	C151	C	0.327314	0.387100	0.118545
	C152	C	0.888557	0.682453	0.384650
	C153	C	0.119265	0.683413	0.620505
	C154	C	0.888482	0.332153	0.621239
	C155	C	0.119280	0.332652	0.385610
	C156	C	0.889562	0.387573	0.680598
	C157	C	0.119046	0.627242	0.679700
	C158	C	0.889390	0.626319	0.325864
	C159	C	0.118403	0.387832	0.326104
	C160	C	0.386245	0.683643	0.888701
	C161	C	0.623863	0.682745	0.117923
	C162	C	0.623815	0.330295	0.888988
	C163	C	0.385618	0.329675	0.118753
	C164	C	0.679683	0.891700	0.385997
	C165	C	0.679590	0.122185	0.621141
	C166	C	0.327591	0.891000	0.623316
	C167	C	0.329626	0.122800	0.386091
	C168	C	0.886191	0.392251	0.179395
	C169	C	0.123971	0.622643	0.178873
	C170	C	0.124442	0.391210	0.826107
	C171	C	0.885889	0.621601	0.826687
	C172	C	0.181946	0.888481	0.388988
	C173	C	0.182261	0.127261	0.618279
	C174	C	0.828182	0.125623	0.388902
	C175	C	0.827006	0.887738	0.618075
	C176	C	0.390105	0.182725	0.885405
	C177	C	0.620458	0.183131	0.121399
	C178	C	0.389754	0.829786	0.122154
	C179	C	0.621252	0.830987	0.885513
	C180	C	0.390014	0.886106	0.181132
	C181	C	0.619836	0.127035	0.180043
	C182	C	0.390268	0.126065	0.827093
	C183	C	0.620500	0.886676	0.826556
	C184	C	0.886302	0.183216	0.388658
	C185	C	0.123328	0.184476	0.618311
	C186	C	0.122989	0.831429	0.388059
	C187	C	0.884773	0.829850	0.617854
	C188	C	0.179905	0.390359	0.885218
	C189	C	0.180484	0.622753	0.120785
	C190	C	0.830195	0.391668	0.121201
	C191	C	0.829948	0.621997	0.884875
	C192	C	0.406080	0.101048	0.603732
	C193	C	0.603634	0.910956	0.604040
	C194	C	0.603765	0.102586	0.403411
	C195	C	0.405727	0.912140	0.404862
	C196	C	0.605609	0.406871	0.097467
	C197	C	0.605678	0.605853	0.909633
	C198	C	0.404798	0.605653	0.096761
	C199	C	0.404539	0.406446	0.910001
	C200	C	0.099209	0.607326	0.402665
	C201	C	0.909292	0.605373	0.603800
	C202	C	0.098957	0.408831	0.602263
	C203	C	0.908427	0.408308	0.402772
	C204	C	0.906149	0.602678	0.102466
	C205	C	0.103150	0.411961	0.103242
	C206	C	0.104009	0.601061	0.903472
	C207	C	0.906244	0.411316	0.903875
	C208	C	0.103096	0.907700	0.596398
	C209	C	0.105721	0.107603	0.410183
	C210	C	0.903738	0.107693	0.597723
	C211	C	0.903110	0.906818	0.409311
	C212	C	0.600316	0.106130	0.902952
	C213	C	0.410420	0.105235	0.103670
	C214	C	0.599838	0.907449	0.104348
	C215	C	0.411165	0.907760	0.904378
	Zn216	Zn	0.505079	0.006127	0.753870
	Zn217	Zn	0.504834	0.006818	0.254251
	Zn218	Zn	0.756556	0.506746	0.003298
	Zn219	Zn	0.253434	0.506123	0.003704
	Zn220	Zn	0.003520	0.756344	0.502654
	Zn221	Zn	0.004111	0.258475	0.503117
	Zn222	Zn	0.005068	0.506496	0.753439
	Zn223	Zn	0.004514	0.507635	0.252793
	Zn224	Zn	0.505499	0.757182	0.003383
	Zn225	Zn	0.505097	0.255913	0.004067
	Zn226	Zn	0.752914	0.007149	0.503742
	Zn227	Zn	0.255779	0.007074	0.503827
	N228	N	0.418147	0.969140	0.683373
	N229	N	0.590994	0.043099	0.682548
	N230	N	0.590788	0.970256	0.324984
	N231	N	0.417686	0.043592	0.324661
	N232	N	0.684906	0.420513	0.966475
	N233	N	0.684580	0.592283	0.040492
	N234	N	0.325658	0.591760	0.965857
	N235	N	0.325299	0.420230	0.041023
	N236	N	0.966138	0.684116	0.418264
	N237	N	0.041400	0.684227	0.587260
	N238	N	0.966042	0.331179	0.587259
	N239	N	0.041451	0.331288	0.419039
	N240	N	0.967740	0.420613	0.682610
	N241	N	0.041199	0.593547	0.682490
	N242	N	0.967629	0.593559	0.323952
	N243	N	0.040027	0.420147	0.323104
	N244	N	0.419865	0.684997	0.965784
	N245	N	0.590506	0.684240	0.040777
	N246	N	0.589896	0.328893	0.966194
	N247	N	0.419138	0.327894	0.041507
	N248	N	0.680928	0.969724	0.419282
	N249	N	0.680501	0.044288	0.587707
	N250	N	0.326572	0.968917	0.589665
	N251	N	0.328770	0.045005	0.420187
	N252	N	0.918897	0.470747	0.181440
	N253	N	0.090715	0.544506	0.181525
	N254	N	0.091920	0.469633	0.823649
	N255	N	0.918966	0.543410	0.824806
	N256	N	0.183854	0.921390	0.466410
	N257	N	0.184613	0.093903	0.541003
	N258	N	0.825625	0.092755	0.466408
	N259	N	0.825082	0.921419	0.540788
	N260	N	0.468047	0.184275	0.918671
	N261	N	0.542731	0.183617	0.087806
	N262	N	0.467526	0.828792	0.088709
	N263	N	0.543625	0.830307	0.919563
	N264	N	0.468103	0.919537	0.183697
	N265	N	0.541880	0.093459	0.182516
	N266	N	0.468098	0.092758	0.824896
	N267	N	0.542551	0.920140	0.824713
	N268	N	0.919486	0.185121	0.465995
	N269	N	0.089794	0.186147	0.541176
	N270	N	0.088750	0.829503	0.465028
	N271	N	0.917704	0.827924	0.540400
	N272	N	0.181349	0.468201	0.918743
	N273	N	0.181533	0.544484	0.087887
	N274	N	0.828871	0.469491	0.087511
	N275	N	0.828741	0.544076	0.918605
	O276	O	0.444155	0.474855	0.521461
	H277	H	0.448550	0.482572	0.523247
	H278	H	0.451758	0.475617	0.521731
	O279	O	0.095112	0.001765	-0.037713
	H280	H	0.095935	-0.003663	-0.034343
	H281	H	0.104113	0.006490	-0.038600
	O282	O	0.454496	0.502134	0.485023
	H283	H	0.447182	0.505869	0.479059
	H284	H	0.454105	0.503890	0.482948
	O285	O	0.432396	0.557127	0.495039
	H286	H	0.429969	0.554223	0.499637
	H287	H	0.428828	0.553923	0.489370
	O288	O	1.092150	-0.060836	-0.041568
	H289	H	1.089740	-0.057507	-0.030218
	H290	H	1.089204	-0.058011	-0.043771
	O291	O	-0.551962	0.476113	-0.453169
	H292	H	-0.554584	0.471258	-0.458091
	H293	H	-0.561259	0.473829	-0.453659
	O294	O	0.465337	0.517155	0.498052
	H295	H	0.460432	0.513534	0.500561
	H296	H	0.466307	0.523142	0.495270
	O297	O	0.135883	0.977835	-0.046738
	H298	H	0.132188	0.980819	-0.050480
	H299	H	0.133332	0.967262	-0.050297
	O300	O	1.099033	0.013373	0.958148
	H301	H	1.103565	0.014408	0.954408
	H302	H	1.102427	0.013384	0.956630
	O303	O	0.434693	0.477610	0.567840
	H304	H	0.440569	0.481908	0.577709
	H305	H	0.426380	0.473868	0.569388
	O306	O	0.131568	0.943462	0.981581
	H307	H	0.138044	0.945989	0.977848
	H308	H	0.139318	0.938251	0.979307
	O309	O	0.417432	0.452840	0.501737
	H310	H	0.423673	0.449617	0.499459
	H311	H	0.411294	0.442775	0.509437
