data_Molecule from HDF5

_cell_length_a		16.221981
_cell_length_b		16.156112
_cell_length_c		16.315163
_cell_angle_alpha	90.160174
_cell_angle_beta	89.394759
_cell_angle_gamma	89.491140
_symmetry_space_group_name_H-M	'P 1'
_symmetry_Int_Tables_number		1

loop_
	_symmetry_equiv_pos_as_xyz
	x,y,z

loop_
	_atom_site_label
	_atom_site_type_symbol
	_atom_site_fract_x
	_atom_site_fract_y
	_atom_site_fract_z
	H0	H	0.404937	0.836337	0.710201
	H1	H	0.601048	0.164392	0.709203
	H2	H	0.608739	0.836675	0.278083
	H3	H	0.406575	0.165970	0.282582
	H4	H	0.721751	0.400627	0.831289
	H5	H	0.716286	0.598949	0.157922
	H6	H	0.291184	0.601030	0.830273
	H7	H	0.286135	0.402770	0.156495
	H8	H	0.840610	0.718478	0.397837
	H9	H	0.170217	0.712788	0.588481
	H10	H	0.840582	0.290942	0.591731
	H11	H	0.168765	0.285446	0.391492
	H12	H	0.841325	0.403503	0.709747
	H13	H	0.167732	0.603200	0.708405
	H14	H	0.839803	0.601759	0.281238
	H15	H	0.167908	0.399288	0.274572
	H16	H	0.407860	0.715600	0.830308
	H17	H	0.600294	0.714530	0.157725
	H18	H	0.605631	0.285431	0.830956
	H19	H	0.405637	0.288990	0.158527
	H20	H	0.723454	0.836879	0.394435
	H21	H	0.714635	0.166840	0.593160
	H22	H	0.292806	0.835414	0.592828
	H23	H	0.291711	0.165369	0.397806
	H24	H	0.902770	0.337477	0.210548
	H25	H	0.101585	0.664904	0.208193
	H26	H	0.106673	0.337532	0.776956
	H27	H	0.905107	0.666607	0.781854
	H28	H	0.224356	0.899498	0.331920
	H29	H	0.216632	0.099984	0.658737
	H30	H	0.790413	0.103199	0.331799
	H31	H	0.789387	0.903780	0.657810
	H32	H	0.340518	0.215636	0.899714
	H33	H	0.669792	0.212850	0.090312
	H34	H	0.339176	0.790427	0.093774
	H35	H	0.668921	0.785428	0.895973
	H36	H	0.341471	0.902278	0.213239
	H37	H	0.668636	0.100483	0.208126
	H38	H	0.341015	0.101787	0.781539
	H39	H	0.667354	0.896710	0.776183
	H40	H	0.910080	0.215087	0.330630
	H41	H	0.101871	0.217203	0.657182
	H42	H	0.106199	0.785926	0.331200
	H43	H	0.906447	0.789566	0.658087
	H44	H	0.220945	0.336397	0.893331
	H45	H	0.213797	0.666383	0.090703
	H46	H	0.792857	0.335495	0.090757
	H47	H	0.790196	0.665643	0.896969
	H48	H	0.408968	0.120042	0.592357
	H49	H	0.597273	0.879957	0.597036
	H50	H	0.586700	0.116050	0.398109
	H51	H	0.425033	0.885058	0.400961
	H52	H	0.591691	0.412846	0.107672
	H53	H	0.604521	0.587202	0.877994
	H54	H	0.414738	0.592744	0.107963
	H55	H	0.410356	0.408503	0.877367
	H56	H	0.119722	0.586043	0.396000
	H57	H	0.887479	0.599822	0.582408
	H58	H	0.126071	0.405481	0.595566
	H59	H	0.884354	0.408536	0.390973
	H60	H	0.121420	0.401750	0.575203
	H61	H	0.889588	0.589594	0.588248
	H62	H	0.124081	0.596524	0.393974
	H63	H	0.887070	0.400405	0.408627
	H64	H	0.407634	0.603250	0.113064
	H65	H	0.591305	0.591073	0.880595
	H66	H	0.596573	0.397909	0.113091
	H67	H	0.416198	0.409759	0.879299
	H68	H	0.602062	0.116688	0.411566
	H69	H	0.588669	0.888512	0.578541
	H70	H	0.414682	0.116637	0.589474
	H71	H	0.410795	0.885318	0.411799
	H72	H	0.911736	0.617667	0.086622
	H73	H	0.103824	0.382270	0.080321
	H74	H	0.098585	0.619344	0.899148
	H75	H	0.903914	0.381330	0.903444
	H76	H	0.092152	0.906042	0.609343
	H77	H	0.097231	0.098422	0.377828
	H78	H	0.908848	0.087297	0.609210
	H79	H	0.914593	0.911268	0.378331
	H80	H	0.624641	0.097380	0.898140
	H81	H	0.386806	0.101250	0.085960
	H82	H	0.617911	0.910692	0.076444
	H83	H	0.386554	0.906614	0.902521
	H84	H	0.621893	0.913624	0.094357
	H85	H	0.390416	0.087947	0.088074
	H86	H	0.619834	0.089967	0.905289
	H87	H	0.387016	0.910908	0.903260
	H88	H	0.917491	0.101078	0.610792
	H89	H	0.106214	0.092948	0.376035
	H90	H	0.102669	0.903295	0.613933
	H91	H	0.915734	0.909984	0.378756
	H92	H	0.096241	0.620058	0.898095
	H93	H	0.093451	0.381237	0.091954
	H94	H	0.908201	0.619392	0.087398
	H95	H	0.916403	0.380272	0.889693
	H96	H	0.408595	0.117735	0.584892
	H97	H	0.609977	0.880737	0.580149
	H98	H	0.604290	0.123822	0.392798
	H99	H	0.410007	0.878738	0.395600
	H100	H	0.606591	0.409813	0.112598
	H101	H	0.600061	0.599775	0.875070
	H102	H	0.401652	0.591397	0.111438
	H103	H	0.414839	0.404711	0.877456
	H104	H	0.120553	0.595181	0.404035
	H105	H	0.885306	0.599287	0.595075
	H106	H	0.118068	0.420623	0.583587
	H107	H	0.891405	0.420188	0.405284
	H108	H	0.909907	0.619497	0.089379
	H109	H	0.089342	0.387631	0.079274
	H110	H	0.096184	0.618678	0.900920
	H111	H	0.921023	0.387934	0.905952
	H112	H	0.100920	0.913719	0.610797
	H113	H	0.098189	0.088143	0.379329
	H114	H	0.901811	0.101282	0.615298
	H115	H	0.913526	0.909818	0.377242
	H116	H	0.622418	0.087519	0.894432
	H117	H	0.384786	0.095719	0.097070
	H118	H	0.624622	0.896446	0.087113
	H119	H	0.386517	0.908863	0.899545
	C120	C	0.382817	0.009488	0.617114
	C121	C	0.625664	0.992013	0.614784
	C122	C	0.628290	0.010238	0.371466
	C123	C	0.385999	0.992352	0.374762
	C124	C	0.627694	0.377721	0.003168
	C125	C	0.625649	0.621492	0.985887
	C126	C	0.381038	0.624158	0.002552
	C127	C	0.383635	0.379780	0.985838
	C128	C	0.012946	0.623026	0.371160
	C129	C	0.995954	0.624157	0.615895
	C130	C	0.013666	0.381174	0.614535
	C131	C	0.996023	0.379832	0.371495
	C132	C	0.881970	0.509546	0.115797
	C133	C	0.123735	0.492620	0.113284
	C134	C	0.127363	0.510705	0.870154
	C135	C	0.884296	0.492304	0.872781
	C136	C	0.128382	0.878806	0.503239
	C137	C	0.127463	0.122586	0.485864
	C138	C	0.882602	0.124588	0.503317
	C139	C	0.884649	0.881547	0.486058
	C140	C	0.513506	0.121499	0.872811
	C141	C	0.496302	0.122824	0.117030
	C142	C	0.513061	0.879247	0.116332
	C143	C	0.495461	0.878758	0.872673
	C144	C	0.384920	0.885512	0.672373
	C145	C	0.621714	0.115641	0.670880
	C146	C	0.628287	0.886131	0.316025
	C147	C	0.387040	0.116538	0.320394
	C148	C	0.683415	0.380088	0.880112
	C149	C	0.679010	0.619114	0.109140
	C150	C	0.328278	0.621225	0.879299
	C151	C	0.325846	0.382667	0.108321
	C152	C	0.889509	0.679975	0.376075
	C153	C	0.120362	0.677120	0.610606
	C154	C	0.889824	0.327633	0.612386
	C155	C	0.119863	0.323913	0.372281
	C156	C	0.890192	0.383721	0.671019
	C157	C	0.119273	0.622164	0.669940
	C158	C	0.889007	0.621905	0.318303
	C159	C	0.119260	0.380337	0.313870
	C160	C	0.386119	0.678594	0.879298
	C161	C	0.621434	0.676805	0.109121
	C162	C	0.625524	0.322976	0.879951
	C163	C	0.385215	0.326186	0.109371
	C164	C	0.685297	0.886208	0.373576
	C165	C	0.677954	0.116952	0.612672
	C166	C	0.329122	0.884851	0.614129
	C167	C	0.329846	0.116300	0.377471
	C168	C	0.883388	0.386117	0.171607
	C169	C	0.121476	0.615909	0.169570
	C170	C	0.126827	0.386705	0.814530
	C171	C	0.885769	0.617186	0.819416
	C172	C	0.185310	0.879898	0.380488
	C173	C	0.180125	0.120380	0.609473
	C174	C	0.828347	0.122923	0.380368
	C175	C	0.828043	0.883717	0.609124
	C176	C	0.389662	0.177944	0.877579
	C177	C	0.620406	0.176270	0.111930
	C178	C	0.388801	0.826369	0.114752
	C179	C	0.619428	0.822564	0.874940
	C180	C	0.389994	0.882285	0.173885
	C181	C	0.619947	0.120018	0.170306
	C182	C	0.389793	0.121104	0.819066
	C183	C	0.618833	0.878453	0.815995
	C184	C	0.887844	0.178433	0.379816
	C185	C	0.122727	0.178481	0.608889
	C186	C	0.126353	0.823667	0.380003
	C187	C	0.886394	0.826953	0.609308
	C188	C	0.183374	0.386089	0.872651
	C189	C	0.177220	0.616681	0.111089
	C190	C	0.829132	0.384981	0.111848
	C191	C	0.828378	0.616667	0.876544
	C192	C	0.404250	0.095840	0.595265
	C193	C	0.604974	0.905390	0.591947
	C194	C	0.604595	0.096540	0.394142
	C195	C	0.408958	0.905596	0.396376
	C196	C	0.604938	0.400243	0.089022
	C197	C	0.604728	0.599262	0.900020
	C198	C	0.401770	0.602347	0.088753
	C199	C	0.406899	0.401471	0.900120
	C200	C	0.099298	0.599574	0.391832
	C201	C	0.909859	0.602593	0.595036
	C202	C	0.099819	0.402976	0.591504
	C203	C	0.909851	0.402948	0.394625
	C204	C	0.903460	0.596456	0.094281
	C205	C	0.101956	0.405910	0.090471
	C206	C	0.103969	0.597041	0.892732
	C207	C	0.907049	0.405721	0.893599
	C208	C	0.105331	0.901238	0.589226
	C209	C	0.106868	0.099773	0.399954
	C210	C	0.903188	0.103013	0.589354
	C211	C	0.907868	0.903840	0.400358
	C212	C	0.599796	0.098586	0.893211
	C213	C	0.409731	0.101318	0.096441
	C214	C	0.599188	0.900679	0.092966
	C215	C	0.408982	0.901732	0.895437
	Zn216	Zn	0.504418	0.000045	0.743839
	Zn217	Zn	0.505837	0.000769	0.244854
	Zn218	Zn	0.755506	0.500580	-0.005558
	Zn219	Zn	0.253355	0.501667	-0.006728
	Zn220	Zn	0.005271	0.751571	0.494052
	Zn221	Zn	0.005557	0.251910	0.494007
	Zn222	Zn	0.004858	0.502006	0.743595
	Zn223	Zn	0.003679	0.500654	0.242595
	Zn224	Zn	0.503934	0.751033	-0.005587
	Zn225	Zn	0.505494	0.250112	-0.005247
	Zn226	Zn	0.755090	0.002487	0.494421
	Zn227	Zn	0.256355	0.000639	0.495349
	N228	N	0.417716	0.963799	0.674196
	N229	N	0.589841	0.037144	0.672194
	N230	N	0.593755	0.964246	0.314481
	N231	N	0.421434	0.038468	0.318801
	N232	N	0.684897	0.413613	0.957662
	N233	N	0.681845	0.585565	0.031559
	N234	N	0.325016	0.588183	0.956909
	N235	N	0.324915	0.415449	0.030490
	N236	N	0.967593	0.680672	0.408204
	N237	N	0.042921	0.678266	0.577243
	N238	N	0.967537	0.326041	0.577716
	N239	N	0.042308	0.323433	0.407568
	N240	N	0.968243	0.416373	0.672351
	N241	N	0.041074	0.589799	0.673366
	N242	N	0.966775	0.587300	0.315185
	N243	N	0.041234	0.414481	0.313371
	N244	N	0.418335	0.680323	0.956952
	N245	N	0.588680	0.678303	0.031526
	N246	N	0.591618	0.321353	0.957448
	N247	N	0.420666	0.324471	0.032472
	N248	N	0.685619	0.964313	0.407441
	N249	N	0.680463	0.039016	0.578316
	N250	N	0.327530	0.962893	0.580421
	N251	N	0.328894	0.038083	0.410712
	N252	N	0.915607	0.464566	0.174135
	N253	N	0.088580	0.537621	0.170628
	N254	N	0.092644	0.465039	0.812875
	N255	N	0.919908	0.538894	0.816871
	N256	N	0.186456	0.913626	0.458091
	N257	N	0.183064	0.086450	0.532030
	N258	N	0.824720	0.090336	0.458231
	N259	N	0.826954	0.916959	0.531511
	N260	N	0.467572	0.178578	0.909952
	N261	N	0.542547	0.177852	0.079279
	N262	N	0.466257	0.824370	0.079520
	N263	N	0.541700	0.822893	0.909682
	N264	N	0.468273	0.914390	0.174987
	N265	N	0.541704	0.087650	0.173896
	N266	N	0.467789	0.086739	0.816026
	N267	N	0.540940	0.912774	0.814589
	N268	N	0.920711	0.179626	0.457156
	N269	N	0.091179	0.180433	0.530870
	N270	N	0.091761	0.822812	0.457317
	N271	N	0.920706	0.825250	0.531769
	N272	N	0.184115	0.464238	0.906239
	N273	N	0.178594	0.538866	0.076757
	N274	N	0.828163	0.463011	0.077962
	N275	N	0.827321	0.538268	0.909027
	O276	O	1.032266	0.933195	0.010872
	H277	H	1.034405	0.929605	0.005417
	H278	H	1.031781	0.932977	0.008370
	O279	O	-0.008179	-0.025152	1.013350
	H280	H	-0.019589	-0.021777	1.016699
	H281	H	-0.002926	-0.034067	1.026815
	O282	O	-0.017066	-0.018367	0.052114
	H283	H	-0.021312	-0.004470	0.054302
	H284	H	-0.020548	-0.021258	0.060575
	O285	O	0.535254	0.484900	0.475228
	H286	H	0.534490	0.483247	0.473224
	H287	H	0.535227	0.487198	0.477197
	O288	O	0.006131	0.034660	-0.079463
	H289	H	0.011810	0.031674	-0.073769
	H290	H	0.002737	0.035936	-0.080837
	O291	O	0.059600	0.968746	0.056297
	H292	H	0.046241	0.970609	0.052261
	H293	H	0.062023	0.956329	0.058809
	O294	O	-0.072517	1.065172	0.066766
	H295	H	-0.068626	1.066927	0.061099
	H296	H	-0.085817	1.068089	0.077109
	O297	O	0.472126	0.448028	0.482300
	H298	H	0.467284	0.447165	0.486324
	H299	H	0.472163	0.450384	0.483196
	O300	O	0.479339	0.485700	0.465787
	H301	H	0.476099	0.487225	0.462231
	H302	H	0.477019	0.490931	0.464558
	O303	O	0.944512	-0.009299	1.009447
	H304	H	0.943789	-0.009374	1.013535
	H305	H	0.948727	-0.016338	1.004041
	O306	O	0.018676	0.956968	0.933343
	H307	H	0.015464	0.956621	0.931491
	H308	H	0.015321	0.963127	0.926828
	O309	O	-0.036378	0.977447	0.996088
	H310	H	-0.035289	0.971916	0.992224
	H311	H	-0.028166	0.979506	0.999774
	O312	O	-0.021194	-0.072617	1.027957
	H313	H	-0.024202	-0.071015	1.020102
	H314	H	-0.008219	-0.064963	1.024778
	O315	O	0.487195	0.466291	0.514879
	H316	H	0.479236	0.463122	0.514960
	H317	H	0.491059	0.462595	0.514738
	O318	O	0.020653	0.039563	1.064526
	H319	H	0.018360	0.033132	1.074157
	H320	H	0.013896	0.037061	1.064336
	O321	O	0.477996	0.498258	0.471703
	H322	H	0.482841	0.499867	0.456101
	H323	H	0.474577	0.494533	0.470366
	O324	O	1.016198	0.002392	0.988360
	H325	H	1.021937	0.002340	0.992725
	H326	H	1.020945	0.000491	0.988927
	O327	O	0.969419	1.027831	0.996752
	H328	H	0.973211	1.030418	1.001897
	H329	H	0.966851	1.030715	0.994922
	O330	O	0.476156	0.454428	0.440489
	H331	H	0.472869	0.447946	0.443902
	H332	H	0.471403	0.458277	0.445423
	O333	O	0.482484	0.455691	0.571278
	H334	H	0.482787	0.452941	0.565685
	H335	H	0.484236	0.450864	0.579809
	O336	O	0.464170	0.450780	0.490288
	H337	H	0.462444	0.449324	0.492565
	H338	H	0.466475	0.451488	0.497613
	O339	O	0.496032	0.459115	0.471626
	H340	H	0.493875	0.459441	0.477735
	H341	H	0.493456	0.455339	0.467676
	O342	O	0.514172	0.412716	0.499555
	H343	H	0.505833	0.421747	0.508889
	H344	H	0.511238	0.415968	0.504142
	O345	O	0.486928	0.479075	0.466141
	H346	H	0.486615	0.479264	0.469939
	H347	H	0.483150	0.479603	0.465447
