data_Molecule from HDF5

_cell_length_a		16.232641
_cell_length_b		16.288476
_cell_length_c		16.296178
_cell_angle_alpha	90.010464
_cell_angle_beta	90.087191
_cell_angle_gamma	90.086659
_symmetry_space_group_name_H-M	'P 1'
_symmetry_Int_Tables_number		1

loop_
	_symmetry_equiv_pos_as_xyz
	x,y,z

loop_
	_atom_site_label
	_atom_site_type_symbol
	_atom_site_fract_x
	_atom_site_fract_y
	_atom_site_fract_z
	H0	H	0.406697	0.829552	0.707581
	H1	H	0.603120	0.156881	0.708332
	H2	H	0.603500	0.830325	0.278987
	H3	H	0.407067	0.157425	0.279953
	H4	H	0.717268	0.396866	0.829898
	H5	H	0.718948	0.591629	0.157529
	H6	H	0.292242	0.589675	0.829987
	H7	H	0.290577	0.395250	0.157626
	H8	H	0.841825	0.707125	0.395701
	H9	H	0.169302	0.707330	0.592384
	H10	H	0.840689	0.278617	0.591014
	H11	H	0.170653	0.281170	0.397833
	H12	H	0.840350	0.393857	0.707585
	H13	H	0.169448	0.591200	0.708456
	H14	H	0.841226	0.590377	0.280574
	H15	H	0.170634	0.397637	0.281565
	H16	H	0.407086	0.706935	0.830299
	H17	H	0.604873	0.709095	0.157463
	H18	H	0.602206	0.278985	0.830702
	H19	H	0.406179	0.278996	0.157593
	H20	H	0.718151	0.829042	0.397862
	H21	H	0.719871	0.156850	0.592045
	H22	H	0.292127	0.828672	0.590245
	H23	H	0.291731	0.157371	0.396906
	H24	H	0.906461	0.329793	0.208970
	H25	H	0.105639	0.657064	0.208929
	H26	H	0.102012	0.329886	0.780113
	H27	H	0.906794	0.657361	0.780203
	H28	H	0.219468	0.895591	0.329946
	H29	H	0.218762	0.090220	0.658389
	H30	H	0.790713	0.091882	0.330675
	H31	H	0.792146	0.895255	0.658076
	H32	H	0.340660	0.206403	0.896352
	H33	H	0.668764	0.207523	0.092406
	H34	H	0.341153	0.778017	0.092999
	H35	H	0.669395	0.781081	0.896785
	H36	H	0.340762	0.894484	0.209111
	H37	H	0.669333	0.091379	0.207416
	H38	H	0.340616	0.091183	0.779958
	H39	H	0.668702	0.895881	0.780371
	H40	H	0.906798	0.207492	0.330715
	H41	H	0.103996	0.208106	0.657960
	H42	H	0.103896	0.778430	0.330129
	H43	H	0.908179	0.779057	0.658075
	H44	H	0.217310	0.329112	0.896965
	H45	H	0.220027	0.657118	0.092137
	H46	H	0.791145	0.328863	0.091053
	H47	H	0.791394	0.657500	0.896978
	H48	H	0.412927	0.109505	0.588551
	H49	H	0.605462	0.874545	0.587082
	H50	H	0.600135	0.108493	0.407457
	H51	H	0.414021	0.876839	0.397659
	H52	H	0.604055	0.398555	0.113359
	H53	H	0.593502	0.599169	0.875185
	H54	H	0.411939	0.585907	0.110220
	H55	H	0.414769	0.407045	0.880769
	H56	H	0.123301	0.586731	0.400568
	H57	H	0.892138	0.578204	0.581221
	H58	H	0.123554	0.396673	0.591135
	H59	H	0.887589	0.399807	0.396867
	H60	H	0.120928	0.398848	0.583813
	H61	H	0.885115	0.585766	0.598841
	H62	H	0.122363	0.586706	0.402314
	H63	H	0.888770	0.396189	0.401578
	H64	H	0.413661	0.585501	0.109789
	H65	H	0.610757	0.586517	0.874076
	H66	H	0.596804	0.405659	0.108110
	H67	H	0.415672	0.391906	0.876570
	H68	H	0.602468	0.112627	0.396764
	H69	H	0.596269	0.875574	0.594536
	H70	H	0.411029	0.110299	0.586976
	H71	H	0.415792	0.878397	0.403393
	H72	H	0.919654	0.607744	0.088564
	H73	H	0.098172	0.374214	0.095269
	H74	H	0.092957	0.610591	0.893556
	H75	H	0.905976	0.377945	0.907520
	H76	H	0.109293	0.903566	0.612205
	H77	H	0.101214	0.080399	0.378429
	H78	H	0.916725	0.082812	0.608434
	H79	H	0.911898	0.902567	0.377864
	H80	H	0.620617	0.088150	0.906346
	H81	H	0.385862	0.092828	0.087227
	H82	H	0.620718	0.898162	0.083702
	H83	H	0.388110	0.902391	0.899225
	H84	H	0.620451	0.906154	0.086636
	H85	H	0.389642	0.083662	0.081886
	H86	H	0.620376	0.081740	0.899251
	H87	H	0.385653	0.897238	0.897499
	H88	H	0.914449	0.092276	0.611877
	H89	H	0.092197	0.089518	0.379285
	H90	H	0.090608	0.905908	0.605325
	H91	H	0.915111	0.899192	0.378117
	H92	H	0.095701	0.607332	0.907571
	H93	H	0.091172	0.379850	0.084941
	H94	H	0.909114	0.609012	0.081389
	H95	H	0.907394	0.373388	0.893137
	H96	H	0.410731	0.110905	0.589387
	H97	H	0.594841	0.878781	0.583716
	H98	H	0.591943	0.108326	0.400127
	H99	H	0.410241	0.876961	0.402394
	H100	H	0.593301	0.395021	0.110606
	H101	H	0.591704	0.578672	0.881724
	H102	H	0.412744	0.587395	0.111147
	H103	H	0.401948	0.399768	0.875050
	H104	H	0.122779	0.585535	0.400802
	H105	H	0.886609	0.597593	0.582480
	H106	H	0.121576	0.404640	0.589633
	H107	H	0.889810	0.401610	0.401952
	H108	H	0.908598	0.611828	0.093282
	H109	H	0.104290	0.376251	0.083346
	H110	H	0.106464	0.612568	0.899103
	H111	H	0.919759	0.379675	0.900490
	H112	H	0.096620	0.888440	0.613022
	H113	H	0.104003	0.092208	0.374829
	H114	H	0.907685	0.085324	0.611645
	H115	H	0.910706	0.898080	0.377279
	H116	H	0.624612	0.090821	0.897762
	H117	H	0.387044	0.083217	0.092492
	H118	H	0.623257	0.899536	0.092424
	H119	H	0.387590	0.898399	0.903120
	C120	C	0.383308	0.001465	0.615916
	C121	C	0.627183	0.984660	0.616410
	C122	C	0.626759	0.001792	0.372915
	C123	C	0.384050	0.985516	0.372690
	C124	C	0.625900	0.371868	0.002665
	C125	C	0.626938	0.615898	0.985600
	C126	C	0.383726	0.614686	0.002221
	C127	C	0.382554	0.371289	0.985557
	C128	C	0.014349	0.614388	0.372637
	C129	C	0.996580	0.614726	0.615667
	C130	C	0.012984	0.371878	0.615451
	C131	C	0.997473	0.371536	0.372379
	C132	C	0.883644	0.501495	0.115645
	C133	C	0.126960	0.485044	0.115922
	C134	C	0.126030	0.501673	0.872414
	C135	C	0.882749	0.485278	0.872237
	C136	C	0.127338	0.871215	0.501871
	C137	C	0.127154	0.115168	0.485972
	C138	C	0.884430	0.114558	0.502306
	C139	C	0.884275	0.871576	0.485839
	C140	C	0.513023	0.114810	0.872955
	C141	C	0.496425	0.115139	0.115722
	C142	C	0.512978	0.872465	0.115592
	C143	C	0.495909	0.871973	0.872585
	C144	C	0.386138	0.878367	0.669934
	C145	C	0.624004	0.108044	0.670750
	C146	C	0.624284	0.878910	0.317241
	C147	C	0.386389	0.108620	0.317801
	C148	C	0.680249	0.375365	0.878960
	C149	C	0.681147	0.612246	0.108842
	C150	C	0.329333	0.611038	0.879062
	C151	C	0.328239	0.374539	0.108887
	C152	C	0.890589	0.669019	0.375411
	C153	C	0.120529	0.669125	0.612770
	C154	C	0.889393	0.316769	0.611829
	C155	C	0.121445	0.317871	0.376093
	C156	C	0.889311	0.373990	0.669745
	C157	C	0.120413	0.611897	0.670711
	C158	C	0.890394	0.611341	0.318128
	C159	C	0.121313	0.375350	0.318173
	C160	C	0.386571	0.669052	0.879143
	C161	C	0.624390	0.670727	0.108789
	C162	C	0.622696	0.317484	0.879109
	C163	C	0.385552	0.316492	0.108700
	C164	C	0.680998	0.878081	0.376223
	C165	C	0.682058	0.108065	0.613212
	C166	C	0.329190	0.878043	0.611878
	C167	C	0.329339	0.108534	0.376021
	C168	C	0.886124	0.378316	0.170397
	C169	C	0.125178	0.608320	0.170730
	C170	C	0.122901	0.378508	0.817966
	C171	C	0.885601	0.608375	0.817541
	C172	C	0.181871	0.874543	0.378823
	C173	C	0.181204	0.111213	0.609504
	C174	C	0.828509	0.112450	0.379529
	C175	C	0.829605	0.874443	0.609225
	C176	C	0.389534	0.169038	0.875703
	C177	C	0.619783	0.170092	0.113131
	C178	C	0.389708	0.816522	0.113379
	C179	C	0.620084	0.818008	0.875760
	C180	C	0.389601	0.874120	0.171148
	C181	C	0.620121	0.112470	0.170345
	C182	C	0.389527	0.111735	0.817972
	C183	C	0.619830	0.875139	0.818156
	C184	C	0.887005	0.169162	0.379182
	C185	C	0.124451	0.170114	0.609089
	C186	C	0.124669	0.816266	0.378899
	C187	C	0.887331	0.816603	0.609151
	C188	C	0.179887	0.378125	0.876253
	C189	C	0.182356	0.608247	0.112968
	C190	C	0.828611	0.378055	0.112238
	C191	C	0.828583	0.608477	0.875675
	C192	C	0.405128	0.088015	0.594550
	C193	C	0.605517	0.898547	0.594765
	C194	C	0.604802	0.087662	0.394892
	C195	C	0.406701	0.899629	0.394651
	C196	C	0.604411	0.393421	0.088486
	C197	C	0.605032	0.594565	0.899271
	C198	C	0.406286	0.592954	0.088238
	C199	C	0.404499	0.393080	0.899661
	C200	C	0.100366	0.592604	0.394606
	C201	C	0.910183	0.593426	0.594019
	C202	C	0.099621	0.393677	0.594471
	C203	C	0.911061	0.392917	0.393733
	C204	C	0.905768	0.587430	0.094148
	C205	C	0.104413	0.398983	0.094421
	C206	C	0.104605	0.587986	0.893746
	C207	C	0.904721	0.399209	0.893844
	C208	C	0.105352	0.892839	0.588033
	C209	C	0.105480	0.093652	0.399651
	C210	C	0.906365	0.092907	0.588457
	C211	C	0.906064	0.893495	0.400015
	C212	C	0.599464	0.093192	0.894773
	C213	C	0.409934	0.092882	0.093711
	C214	C	0.599046	0.894779	0.093932
	C215	C	0.409609	0.893059	0.893788
	Zn216	Zn	0.504593	-0.006692	0.744382
	Zn217	Zn	0.505108	-0.006101	0.243966
	Zn218	Zn	0.754589	0.493483	-0.005878
	Zn219	Zn	0.254607	0.493164	-0.005830
	Zn220	Zn	0.005683	0.742661	0.493532
	Zn221	Zn	0.005482	0.243471	0.494163
	Zn222	Zn	0.004373	0.493628	0.743881
	Zn223	Zn	0.005655	0.493699	0.244418
	Zn224	Zn	0.505155	0.743854	-0.006274
	Zn225	Zn	0.504724	0.242953	-0.005941
	Zn226	Zn	0.755580	-0.007113	0.494118
	Zn227	Zn	0.255472	-0.006791	0.493944
	N228	N	0.419032	0.956218	0.672466
	N229	N	0.590859	0.030264	0.672972
	N230	N	0.591365	0.956605	0.315279
	N231	N	0.419745	0.031171	0.315872
	N232	N	0.682371	0.408573	0.956603
	N233	N	0.682973	0.579180	0.031198
	N234	N	0.327511	0.577785	0.956678
	N235	N	0.326013	0.407696	0.031274
	N236	N	0.968597	0.671115	0.408462
	N237	N	0.042688	0.671174	0.579284
	N238	N	0.967338	0.315405	0.578729
	N239	N	0.043568	0.315665	0.409180
	N240	N	0.967018	0.407741	0.671983
	N241	N	0.042499	0.578514	0.672232
	N242	N	0.968129	0.578000	0.316502
	N243	N	0.043156	0.407947	0.315620
	N244	N	0.419607	0.671462	0.956818
	N245	N	0.591533	0.673024	0.031021
	N246	N	0.589867	0.315099	0.956748
	N247	N	0.418808	0.314702	0.031155
	N248	N	0.682610	0.955490	0.410192
	N249	N	0.683926	0.030450	0.579980
	N250	N	0.327293	0.955903	0.579174
	N251	N	0.327978	0.031117	0.409571
	N252	N	0.919593	0.455897	0.172739
	N253	N	0.091631	0.530726	0.172832
	N254	N	0.090151	0.456151	0.815625
	N255	N	0.918646	0.530617	0.815372
	N256	N	0.183419	0.907969	0.456286
	N257	N	0.183019	0.077934	0.531961
	N258	N	0.827056	0.078997	0.456968
	N259	N	0.827762	0.908049	0.531715
	N260	N	0.467131	0.170585	0.909478
	N261	N	0.541753	0.171940	0.079961
	N262	N	0.467305	0.815133	0.079709
	N263	N	0.542256	0.815971	0.909041
	N264	N	0.467165	0.908309	0.172466
	N265	N	0.542398	0.078936	0.171890
	N266	N	0.467494	0.078739	0.816011
	N267	N	0.541899	0.907913	0.815911
	N268	N	0.920885	0.170737	0.456636
	N269	N	0.091513	0.172452	0.531237
	N270	N	0.091574	0.814101	0.456517
	N271	N	0.920484	0.814651	0.531469
	N272	N	0.182016	0.455901	0.909520
	N273	N	0.183442	0.530669	0.079534
	N274	N	0.827063	0.455708	0.078852
	N275	N	0.826795	0.530956	0.909118
	O276	O	0.934806	-0.005171	1.009972
	H277	H	0.937148	-0.002722	1.006155
	H278	H	0.934194	0.001936	1.013827
	O279	O	-0.070710	0.996923	0.996873
	H280	H	-0.066740	0.998594	0.999654
	H281	H	-0.073315	0.992484	0.993270
	O282	O	0.929207	0.972736	0.023714
	H283	H	0.917139	0.974489	0.030369
	H284	H	0.932859	0.972047	0.022108
	O285	O	-0.059018	0.996405	1.005666
	H286	H	-0.059689	0.991969	1.015064
	H287	H	-0.061585	0.997094	1.000545
