data_Molecule from HDF5

_cell_length_a		16.252660
_cell_length_b		16.344912
_cell_length_c		16.108007
_cell_angle_alpha	90.424554
_cell_angle_beta	89.646699
_cell_angle_gamma	89.714464
_symmetry_space_group_name_H-M	'P 1'
_symmetry_Int_Tables_number		1

loop_
	_symmetry_equiv_pos_as_xyz
	x,y,z

loop_
	_atom_site_label
	_atom_site_type_symbol
	_atom_site_fract_x
	_atom_site_fract_y
	_atom_site_fract_z
	H0	H	0.405223	0.845134	0.712342
	H1	H	0.598394	0.172943	0.713486
	H2	H	0.603317	0.846407	0.282065
	H3	H	0.406700	0.173990	0.288247
	H4	H	0.718312	0.407210	0.832940
	H5	H	0.716291	0.608882	0.162865
	H6	H	0.292120	0.603774	0.831989
	H7	H	0.290294	0.411187	0.162672
	H8	H	0.841537	0.726346	0.399672
	H9	H	0.167023	0.726877	0.600145
	H10	H	0.840476	0.295975	0.599791
	H11	H	0.165559	0.290241	0.394844
	H12	H	0.839605	0.415634	0.711330
	H13	H	0.170084	0.604674	0.709072
	H14	H	0.840761	0.608371	0.284821
	H15	H	0.168191	0.409157	0.283616
	H16	H	0.402136	0.723972	0.833732
	H17	H	0.602988	0.726521	0.161509
	H18	H	0.605866	0.290120	0.835184
	H19	H	0.403616	0.299649	0.163826
	H20	H	0.721740	0.846849	0.396706
	H21	H	0.717569	0.172307	0.598398
	H22	H	0.285485	0.847244	0.599703
	H23	H	0.286577	0.171474	0.399214
	H24	H	0.905203	0.345382	0.213733
	H25	H	0.101863	0.671723	0.214042
	H26	H	0.103330	0.345374	0.781241
	H27	H	0.908642	0.673611	0.790027
	H28	H	0.220582	0.907138	0.334306
	H29	H	0.216283	0.110292	0.663379
	H30	H	0.791389	0.107544	0.333092
	H31	H	0.789343	0.913032	0.663033
	H32	H	0.338852	0.224331	0.903340
	H33	H	0.666041	0.227050	0.101646
	H34	H	0.340069	0.793785	0.100520
	H35	H	0.664036	0.788771	0.890924
	H36	H	0.339544	0.912786	0.214403
	H37	H	0.669137	0.105205	0.210607
	H38	H	0.338138	0.108018	0.786801
	H39	H	0.666625	0.909821	0.782737
	H40	H	0.903623	0.223896	0.334024
	H41	H	0.101375	0.225959	0.662523
	H42	H	0.106997	0.790223	0.335041
	H43	H	0.902655	0.798470	0.663777
	H44	H	0.221610	0.344741	0.895801
	H45	H	0.220035	0.670442	0.099453
	H46	H	0.787120	0.346376	0.098412
	H47	H	0.785986	0.670345	0.897193
	H48	H	0.409099	0.125234	0.594079
	H49	H	0.598726	0.895490	0.581920
	H50	H	0.600905	0.126562	0.406154
	H51	H	0.414309	0.894459	0.408898
	H52	H	0.589055	0.426013	0.111542
	H53	H	0.605486	0.593869	0.878562
	H54	H	0.415669	0.598474	0.112753
	H55	H	0.414399	0.413018	0.879652
	H56	H	0.118901	0.603282	0.414386
	H57	H	0.884537	0.610898	0.597463
	H58	H	0.121026	0.418551	0.592575
	H59	H	0.887873	0.416148	0.410154
	H60	H	0.122491	0.411509	0.589816
	H61	H	0.888975	0.606636	0.588393
	H62	H	0.118484	0.593495	0.407730
	H63	H	0.887022	0.419842	0.404902
	H64	H	0.412868	0.608381	0.116020
	H65	H	0.586319	0.593274	0.885426
	H66	H	0.591301	0.407478	0.117916
	H67	H	0.412471	0.414109	0.879230
	H68	H	0.598066	0.126384	0.404325
	H69	H	0.604164	0.890179	0.593667
	H70	H	0.409617	0.124965	0.591792
	H71	H	0.410089	0.893940	0.405960
	H72	H	0.918889	0.623886	0.097826
	H73	H	0.097790	0.393686	0.086568
	H74	H	0.099507	0.628803	0.891105
	H75	H	0.913531	0.392861	0.900757
	H76	H	0.101338	0.919029	0.618151
	H77	H	0.100176	0.106038	0.377700
	H78	H	0.901393	0.103459	0.620017
	H79	H	0.912475	0.911658	0.378693
	H80	H	0.617099	0.095053	0.909292
	H81	H	0.383668	0.113455	0.094964
	H82	H	0.613837	0.928550	0.081437
	H83	H	0.385431	0.908450	0.912949
	H84	H	0.622847	0.917705	0.101593
	H85	H	0.389307	0.103326	0.088043
	H86	H	0.621008	0.102012	0.901497
	H87	H	0.389696	0.924889	0.911635
	H88	H	0.914928	0.096926	0.613112
	H89	H	0.098535	0.093690	0.381673
	H90	H	0.091698	0.925127	0.612504
	H91	H	0.911085	0.920312	0.380626
	H92	H	0.087222	0.617803	0.913484
	H93	H	0.101128	0.391555	0.089273
	H94	H	0.912217	0.620122	0.080983
	H95	H	0.912718	0.393881	0.907882
	H96	H	0.407810	0.125421	0.591648
	H97	H	0.590891	0.894508	0.593211
	H98	H	0.596833	0.124657	0.407434
	H99	H	0.414269	0.893371	0.403997
	H100	H	0.605836	0.420472	0.118489
	H101	H	0.592847	0.609870	0.877519
	H102	H	0.405953	0.599709	0.116493
	H103	H	0.413459	0.414397	0.879307
	H104	H	0.123004	0.603285	0.403169
	H105	H	0.887070	0.601021	0.597910
	H106	H	0.120148	0.416982	0.584726
	H107	H	0.885456	0.413451	0.404479
	H108	H	0.901200	0.627034	0.093900
	H109	H	0.096619	0.392488	0.091433
	H110	H	0.113138	0.626084	0.914489
	H111	H	0.907632	0.390746	0.903988
	H112	H	0.090021	0.913077	0.616494
	H113	H	0.088346	0.101744	0.382355
	H114	H	0.915390	0.113590	0.617356
	H115	H	0.919232	0.916339	0.382508
	H116	H	0.619366	0.105731	0.911835
	H117	H	0.385804	0.102107	0.100493
	H118	H	0.620707	0.904769	0.080729
	H119	H	0.383094	0.916932	0.898475
	C120	C	0.380057	0.017486	0.621319
	C121	C	0.625257	1.001077	0.619845
	C122	C	0.627651	0.018360	0.375669
	C123	C	0.383306	1.001204	0.377871
	C124	C	0.625636	0.386965	0.007235
	C125	C	0.624018	0.629542	0.989135
	C126	C	0.382417	0.629912	0.006354
	C127	C	0.383746	0.387534	0.988974
	C128	C	0.012509	0.629834	0.378998
	C129	C	0.995571	0.633222	0.622000
	C130	C	0.012480	0.388431	0.618797
	C131	C	0.994724	0.386877	0.376351
	C132	C	0.881656	0.516674	0.120338
	C133	C	0.126564	0.500021	0.119404
	C134	C	0.128063	0.516488	0.876152
	C135	C	0.882609	0.500211	0.876507
	C136	C	0.125190	0.887526	0.507265
	C137	C	0.124077	0.130509	0.489781
	C138	C	0.882176	0.131924	0.507504
	C139	C	0.883651	0.888552	0.489601
	C140	C	0.510856	0.130182	0.879281
	C141	C	0.494772	0.133337	0.122575
	C142	C	0.511523	0.888112	0.118964
	C143	C	0.494012	0.887142	0.876349
	C144	C	0.383562	0.894679	0.676064
	C145	C	0.620703	0.123936	0.675746
	C146	C	0.624703	0.895202	0.319639
	C147	C	0.385590	0.124468	0.324387
	C148	C	0.681454	0.386891	0.883018
	C149	C	0.679090	0.628873	0.113232
	C150	C	0.328270	0.625853	0.881792
	C151	C	0.327999	0.391127	0.113443
	C152	C	0.889922	0.687073	0.380082
	C153	C	0.118586	0.688233	0.619747
	C154	C	0.889143	0.334294	0.618638
	C155	C	0.117338	0.329572	0.376012
	C156	C	0.888830	0.393544	0.674322
	C157	C	0.120116	0.627736	0.674197
	C158	C	0.889602	0.628561	0.322916
	C159	C	0.118591	0.388667	0.320777
	C160	C	0.383224	0.685192	0.882457
	C161	C	0.622617	0.687469	0.112436
	C162	C	0.625100	0.328881	0.884188
	C163	C	0.384454	0.335468	0.114028
	C164	C	0.683445	0.895480	0.376623
	C165	C	0.679902	0.123700	0.618585
	C166	C	0.324489	0.895314	0.619273
	C167	C	0.325974	0.123341	0.379868
	C168	C	0.884508	0.394285	0.175945
	C169	C	0.122830	0.622785	0.175785
	C170	C	0.124723	0.394076	0.819221
	C171	C	0.886462	0.623875	0.824647
	C172	C	0.182080	0.887475	0.383560
	C173	C	0.178621	0.129459	0.613934
	C174	C	0.828151	0.128148	0.382790
	C175	C	0.827153	0.892319	0.613729
	C176	C	0.387733	0.186214	0.882328
	C177	C	0.617826	0.188361	0.120808
	C178	C	0.388827	0.832440	0.119226
	C179	C	0.615806	0.828876	0.873796
	C180	C	0.388425	0.891552	0.175949
	C181	C	0.619370	0.127924	0.175024
	C182	C	0.387350	0.128420	0.824413
	C183	C	0.617178	0.888776	0.819457
	C184	C	0.883925	0.186157	0.383104
	C185	C	0.121850	0.187432	0.613423
	C186	C	0.125552	0.829459	0.383986
	C187	C	0.883739	0.835202	0.613971
	C188	C	0.183198	0.393425	0.876355
	C189	C	0.181607	0.622107	0.118768
	C190	C	0.825868	0.394615	0.118490
	C191	C	0.825567	0.622207	0.878341
	C192	C	0.402170	0.103258	0.598971
	C193	C	0.604345	0.915557	0.596333
	C194	C	0.605357	0.103737	0.399067
	C195	C	0.406104	0.915861	0.399906
	C196	C	0.602404	0.411064	0.093886
	C197	C	0.601525	0.605798	0.902830
	C198	C	0.404658	0.608443	0.092586
	C199	C	0.406619	0.407881	0.901958
	C200	C	0.097846	0.606806	0.401798
	C201	C	0.909290	0.612449	0.600908
	C202	C	0.098764	0.409376	0.595723
	C203	C	0.908903	0.409899	0.399612
	C204	C	0.904157	0.601794	0.097642
	C205	C	0.104780	0.414624	0.095914
	C206	C	0.106248	0.601981	0.899520
	C207	C	0.904939	0.414601	0.897909
	C208	C	0.101507	0.912076	0.593415
	C209	C	0.102168	0.107363	0.403068
	C210	C	0.904090	0.110886	0.594119
	C211	C	0.907471	0.909838	0.403019
	C212	C	0.596733	0.107593	0.901152
	C213	C	0.408712	0.112660	0.100952
	C214	C	0.597064	0.910337	0.094914
	C215	C	0.408216	0.910144	0.900659
	Zn216	Zn	0.502703	0.008662	0.749323
	Zn217	Zn	0.504353	0.009836	0.248513
	Zn218	Zn	0.753114	0.508392	-0.002404
	Zn219	Zn	0.256775	0.507006	-0.002191
	Zn220	Zn	0.003853	0.760401	0.499594
	Zn221	Zn	0.002806	0.259406	0.497793
	Zn222	Zn	0.004664	0.509718	0.748292
	Zn223	Zn	0.004515	0.508379	0.249305
	Zn224	Zn	0.502385	0.758544	-0.002892
	Zn225	Zn	0.503085	0.260519	0.000357
	Zn226	Zn	0.756270	0.009802	0.497995
	Zn227	Zn	0.252537	0.009145	0.498410
	N228	N	0.417417	0.971737	0.677257
	N229	N	0.587514	0.046811	0.676503
	N230	N	0.590786	0.972391	0.319012
	N231	N	0.420618	0.047744	0.323033
	N232	N	0.682033	0.422203	0.960947
	N233	N	0.680345	0.593656	0.035319
	N234	N	0.327376	0.592442	0.959848
	N235	N	0.327238	0.422796	0.034665
	N236	N	0.967383	0.687959	0.414320
	N237	N	0.040044	0.691952	0.588318
	N238	N	0.967076	0.330978	0.584841
	N239	N	0.039274	0.328095	0.409512
	N240	N	0.966545	0.426670	0.674417
	N241	N	0.042670	0.594397	0.675983
	N242	N	0.966684	0.593718	0.322130
	N243	N	0.041307	0.423543	0.320832
	N244	N	0.416074	0.687981	0.960875
	N245	N	0.589420	0.688215	0.034080
	N246	N	0.591235	0.328813	0.962639
	N247	N	0.418594	0.333141	0.035780
	N248	N	0.685538	0.972974	0.410736
	N249	N	0.682833	0.046175	0.584492
	N250	N	0.322146	0.972823	0.586246
	N251	N	0.324329	0.045736	0.412471
	N252	N	0.918091	0.471319	0.177542
	N253	N	0.089375	0.545703	0.176337
	N254	N	0.091276	0.471485	0.818808
	N255	N	0.921613	0.547155	0.823652
	N256	N	0.181869	0.923068	0.461235
	N257	N	0.180035	0.094512	0.535868
	N258	N	0.826802	0.095177	0.461127
	N259	N	0.826923	0.924774	0.535377
	N260	N	0.465670	0.187734	0.915634
	N261	N	0.539451	0.192054	0.088937
	N262	N	0.466434	0.830286	0.084619
	N263	N	0.538120	0.827712	0.908337
	N264	N	0.465818	0.925423	0.176055
	N265	N	0.542004	0.094603	0.176367
	N266	N	0.464758	0.094101	0.822602
	N267	N	0.540279	0.924469	0.821048
	N268	N	0.916690	0.188876	0.461613
	N269	N	0.088861	0.188164	0.535212
	N270	N	0.091017	0.829416	0.462108
	N271	N	0.918095	0.832736	0.535616
	N272	N	0.185430	0.470491	0.911115
	N273	N	0.184138	0.544760	0.084429
	N274	N	0.823869	0.471690	0.084601
	N275	N	0.822943	0.544221	0.909975
	O276	O	0.519566	0.563950	0.465700
	H277	H	0.521964	0.567581	0.462453
	H278	H	0.511427	0.574809	0.460582
	O279	O	0.965435	0.083867	0.993975
	H280	H	0.974409	0.086096	0.985985
	H281	H	0.973459	0.075461	0.977024
	O282	O	0.986393	0.973654	0.094105
	H283	H	0.974692	0.971122	0.096801
	H284	H	0.990997	0.976665	0.093317
	O285	O	1.056778	-0.067228	0.983677
	H286	H	1.066775	-0.065869	0.969334
	H287	H	1.058706	-0.068758	0.968350
	O288	O	0.435267	0.531737	0.453927
	H289	H	0.436871	0.528209	0.452610
	H290	H	0.437090	0.538259	0.453822
	O291	O	0.468522	0.499865	0.443014
	H292	H	0.451237	0.492815	0.428433
	H293	H	0.476558	0.501840	0.457825
	O294	O	0.562282	0.495098	0.530188
	H295	H	0.564876	0.492505	0.540069
	H296	H	0.553018	0.500697	0.521197
	O297	O	0.031749	-0.054425	0.993074
	H298	H	0.026850	-0.050912	0.994878
	H299	H	0.026942	-0.059113	0.993628
	O300	O	0.597868	0.423321	0.518277
	H301	H	0.597297	0.428383	0.522035
	H302	H	0.595080	0.427690	0.529944
	O303	O	0.629377	0.414410	0.361182
	H304	H	0.635537	0.410664	0.354307
	H305	H	0.638074	0.411964	0.354719
	O306	O	-0.045548	1.159547	1.017063
	H307	H	-0.056481	1.172042	1.016371
	H308	H	-0.033249	1.153964	1.008177
	O309	O	0.462102	0.551809	0.450422
	H310	H	0.462434	0.555295	0.434914
	H311	H	0.457380	0.554514	0.446273
	O312	O	-0.059302	-0.003481	-0.088671
	H313	H	-0.066892	-0.014144	-0.083682
	H314	H	-0.059884	-0.004777	-0.090650
	O315	O	0.945875	0.064862	-0.117249
	H316	H	0.943713	0.049507	-0.122197
	H317	H	0.953266	0.068007	-0.115635
	O318	O	0.956313	0.973442	0.978595
	H319	H	0.951700	0.972454	0.993107
	H320	H	0.957046	0.983049	0.967343
	O321	O	-0.123464	-0.095356	1.031713
	H322	H	-0.126234	-0.099493	1.028119
	H323	H	-0.119025	-0.096723	1.046381
	O324	O	0.407527	0.506319	0.504625
	H325	H	0.416396	0.499273	0.503492
	H326	H	0.412796	0.502218	0.498436
	O327	O	-0.008424	-0.102663	-0.069247
	H328	H	-0.005641	-0.107392	-0.073049
	H329	H	-0.015224	-0.106652	-0.055857
	O330	O	0.624569	0.545003	0.423954
	H331	H	0.624688	0.553236	0.434057
	H332	H	0.635672	0.545822	0.402408
	O333	O	0.124232	1.039409	0.984223
	H334	H	0.113684	1.038778	0.992922
	H335	H	0.120985	1.046415	0.978945
	O336	O	-0.079154	0.004967	-0.043615
	H337	H	-0.085487	0.004531	-0.035959
	H338	H	-0.074124	0.004270	-0.031755
	O339	O	0.556705	0.537949	0.558156
	H340	H	0.558499	0.535323	0.550123
	H341	H	0.555184	0.545992	0.563229
	O342	O	0.954397	1.095521	1.098284
	H343	H	0.949865	1.096168	1.098456
	H344	H	0.977672	1.099686	1.101826
	O345	O	1.073121	1.035424	0.036590
	H346	H	1.077652	1.024744	0.036883
	H347	H	1.080916	1.044176	0.040664
	O348	O	0.386799	0.600431	0.458237
	H349	H	0.377341	0.590962	0.454829
	H350	H	0.386776	0.598201	0.457804
	O351	O	0.529301	0.485942	0.603581
	H352	H	0.529434	0.482175	0.611229
	H353	H	0.535895	0.489013	0.613789
	O354	O	0.066057	0.006147	-0.097337
	H355	H	0.058313	0.000679	-0.104908
	H356	H	0.063718	0.012334	-0.111437
	O357	O	0.929651	0.092144	0.815385
	H358	H	0.930925	0.080357	0.810954
	H359	H	0.905483	0.092837	0.814510
	O360	O	0.493444	0.525831	0.510661
	H361	H	0.509039	0.522644	0.500612
	H362	H	0.489299	0.543437	0.510839
	O363	O	0.473820	0.643052	0.429194
	H364	H	0.467436	0.644783	0.439143
	H365	H	0.463871	0.640886	0.428781
	O366	O	1.067264	0.921621	1.085684
	H367	H	1.058223	0.906254	1.077726
	H368	H	1.072321	0.930182	1.083773
	O369	O	0.882728	-0.091450	1.174834
	H370	H	0.885354	-0.076663	1.179522
	H371	H	0.880715	-0.089196	1.181923
	O372	O	0.164692	0.005673	0.053234
	H373	H	0.172163	0.009644	0.040948
	H374	H	0.169737	0.010869	0.055166
	O375	O	1.090444	-0.093386	0.060340
	H376	H	1.082220	-0.096263	0.057330
	H377	H	1.091641	-0.095935	0.064330
	O378	O	0.369452	0.480135	0.555337
	H379	H	0.363128	0.469470	0.555494
	H380	H	0.374728	0.473258	0.549731
	O381	O	0.522004	0.476510	0.389935
	H382	H	0.530019	0.473357	0.407877
	H383	H	0.526290	0.474488	0.374692
