data_Molecule from HDF5

_cell_length_a		16.395911
_cell_length_b		16.160072
_cell_length_c		16.097380
_cell_angle_alpha	89.126749
_cell_angle_beta	90.693842
_cell_angle_gamma	89.393923
_symmetry_space_group_name_H-M	'P 1'
_symmetry_Int_Tables_number		1

loop_
	_symmetry_equiv_pos_as_xyz
	x,y,z

loop_
	_atom_site_label
	_atom_site_type_symbol
	_atom_site_fract_x
	_atom_site_fract_y
	_atom_site_fract_z
	H0	H	0.405901	0.838192	0.716220
	H1	H	0.597828	0.167891	0.708217
	H2	H	0.597467	0.835459	0.293364
	H3	H	0.399613	0.166259	0.282078
	H4	H	0.717962	0.400101	0.835632
	H5	H	0.721776	0.599870	0.161577
	H6	H	0.281803	0.608852	0.835620
	H7	H	0.291957	0.399255	0.165161
	H8	H	0.839220	0.719739	0.393866
	H9	H	0.164397	0.713959	0.598843
	H10	H	0.838420	0.285453	0.598769
	H11	H	0.162566	0.280711	0.402411
	H12	H	0.839400	0.400596	0.715012
	H13	H	0.165334	0.595860	0.714150
	H14	H	0.840831	0.602894	0.278246
	H15	H	0.167056	0.402792	0.290909
	H16	H	0.401848	0.719096	0.833941
	H17	H	0.600556	0.708626	0.165763
	H18	H	0.600551	0.291099	0.834172
	H19	H	0.409260	0.286770	0.164523
	H20	H	0.717763	0.838801	0.402713
	H21	H	0.717679	0.164230	0.600708
	H22	H	0.286495	0.838423	0.603974
	H23	H	0.280722	0.165351	0.393575
	H24	H	0.910094	0.335462	0.213922
	H25	H	0.100297	0.665793	0.210028
	H26	H	0.101241	0.334439	0.791310
	H27	H	0.902090	0.664223	0.781035
	H28	H	0.217482	0.899609	0.335567
	H29	H	0.218077	0.100546	0.662401
	H30	H	0.779826	0.107256	0.336184
	H31	H	0.788789	0.897741	0.664371
	H32	H	0.340271	0.222168	0.897149
	H33	H	0.666545	0.212602	0.099155
	H34	H	0.339425	0.784176	0.100303
	H35	H	0.664803	0.786201	0.902547
	H36	H	0.337965	0.902779	0.213557
	H37	H	0.664766	0.096149	0.216370
	H38	H	0.339992	0.107024	0.780347
	H39	H	0.665702	0.906724	0.790149
	H40	H	0.898104	0.217974	0.334788
	H41	H	0.096907	0.206596	0.665378
	H42	H	0.096384	0.792226	0.331717
	H43	H	0.904381	0.783121	0.663489
	H44	H	0.221293	0.337436	0.901786
	H45	H	0.219670	0.663631	0.101733
	H46	H	0.789208	0.336240	0.104108
	H47	H	0.780831	0.662270	0.890183
	H48	H	0.403062	0.119062	0.580286
	H49	H	0.597115	0.879837	0.607134
	H50	H	0.577355	0.116444	0.406217
	H51	H	0.410574	0.888708	0.420489
	H52	H	0.593799	0.401401	0.118609
	H53	H	0.583493	0.592849	0.883824
	H54	H	0.403005	0.585529	0.117927
	H55	H	0.411108	0.418864	0.883938
	H56	H	0.117013	0.596661	0.409246
	H57	H	0.886377	0.596571	0.586023
	H58	H	0.118904	0.390230	0.587974
	H59	H	0.882539	0.400965	0.400909
	H60	H	0.112587	0.413895	0.588661
	H61	H	0.888477	0.589993	0.587489
	H62	H	0.118890	0.592665	0.404760
	H63	H	0.890095	0.410991	0.415315
	H64	H	0.418318	0.588652	0.113618
	H65	H	0.594454	0.603094	0.877733
	H66	H	0.605184	0.405842	0.120915
	H67	H	0.412544	0.410736	0.881344
	H68	H	0.596674	0.117293	0.418865
	H69	H	0.586153	0.888183	0.590717
	H70	H	0.402559	0.122442	0.592381
	H71	H	0.397090	0.879609	0.407950
	H72	H	0.910027	0.616838	0.086014
	H73	H	0.105965	0.379869	0.098276
	H74	H	0.086887	0.615476	0.908262
	H75	H	0.898950	0.378608	0.908989
	H76	H	0.097034	0.907560	0.617482
	H77	H	0.089202	0.091316	0.380651
	H78	H	0.901416	0.087332	0.619286
	H79	H	0.906403	0.903409	0.378130
	H80	H	0.622268	0.103532	0.902761
	H81	H	0.388168	0.092752	0.090836
	H82	H	0.620742	0.902283	0.106245
	H83	H	0.384421	0.914055	0.898159
	H84	H	0.617568	0.898205	0.089707
	H85	H	0.385436	0.099390	0.091040
	H86	H	0.616056	0.095785	0.911457
	H87	H	0.385644	0.904024	0.910183
	H88	H	0.912971	0.089740	0.615896
	H89	H	0.089628	0.092388	0.380760
	H90	H	0.095349	0.907744	0.615533
	H91	H	0.897002	0.917841	0.379708
	H92	H	0.096459	0.617317	0.910801
	H93	H	0.094207	0.382754	0.098338
	H94	H	0.909969	0.616487	0.084191
	H95	H	0.916260	0.382276	0.900015
	H96	H	0.413371	0.117674	0.588706
	H97	H	0.605815	0.882162	0.588214
	H98	H	0.597043	0.124667	0.396548
	H99	H	0.414696	0.884527	0.401341
	H100	H	0.596419	0.413498	0.115375
	H101	H	0.598585	0.587571	0.880681
	H102	H	0.409207	0.600731	0.120297
	H103	H	0.405702	0.414342	0.880146
	H104	H	0.120356	0.598968	0.404690
	H105	H	0.885716	0.593408	0.592155
	H106	H	0.121315	0.403266	0.608458
	H107	H	0.885941	0.419198	0.397776
	H108	H	0.908860	0.617696	0.084767
	H109	H	0.100371	0.384482	0.088171
	H110	H	0.093643	0.620587	0.900182
	H111	H	0.913752	0.386613	0.919649
	H112	H	0.095162	0.905655	0.616707
	H113	H	0.090256	0.091686	0.381072
	H114	H	0.906265	0.098740	0.620084
	H115	H	0.913562	0.917538	0.385443
	H116	H	0.618794	0.092168	0.900235
	H117	H	0.388309	0.096878	0.083638
	H118	H	0.614351	0.914067	0.096012
	H119	H	0.389614	0.918793	0.912363
	C120	C	0.379318	0.011086	0.619684
	C121	C	0.623634	0.992615	0.622093
	C122	C	0.620448	0.010631	0.380028
	C123	C	0.377268	0.992651	0.377411
	C124	C	0.625540	0.379400	0.008828
	C125	C	0.622661	0.621393	0.989882
	C126	C	0.379441	0.623728	0.008329
	C127	C	0.382508	0.382567	0.990984
	C128	C	0.010999	0.624804	0.375112
	C129	C	0.993884	0.621388	0.619302
	C130	C	0.009824	0.376077	0.622909
	C131	C	0.993636	0.379463	0.377873
	C132	C	0.882606	0.508798	0.118051
	C133	C	0.126744	0.491487	0.122054
	C134	C	0.122957	0.509138	0.879225
	C135	C	0.879457	0.490880	0.877094
	C136	C	0.123240	0.879216	0.507462
	C137	C	0.119928	0.120065	0.490014
	C138	C	0.877038	0.123016	0.508780
	C139	C	0.879653	0.881308	0.490471
	C140	C	0.511497	0.127438	0.874969
	C141	C	0.494564	0.122908	0.119338
	C142	C	0.509859	0.877140	0.124378
	C143	C	0.493796	0.882443	0.878958
	C144	C	0.384166	0.887483	0.677900
	C145	C	0.619468	0.117747	0.673389
	C146	C	0.618385	0.885545	0.328551
	C147	C	0.378652	0.116756	0.319735
	C148	C	0.680117	0.380923	0.884667
	C149	C	0.681499	0.618899	0.113353
	C150	C	0.321454	0.626028	0.884572
	C151	C	0.329369	0.381089	0.115467
	C152	C	0.888226	0.681169	0.374448
	C153	C	0.115910	0.676121	0.618373
	C154	C	0.887155	0.322795	0.619286
	C155	C	0.114920	0.320824	0.381815
	C156	C	0.887690	0.379973	0.677304
	C157	C	0.116213	0.617426	0.676234
	C158	C	0.889056	0.623351	0.316934
	C159	C	0.117052	0.381552	0.326436
	C160	C	0.381034	0.681212	0.883716
	C161	C	0.620973	0.673100	0.115383
	C162	C	0.621494	0.326963	0.883831
	C163	C	0.387379	0.324763	0.115194
	C164	C	0.678126	0.887207	0.382971
	C165	C	0.679116	0.115815	0.620003
	C166	C	0.324785	0.887613	0.622080
	C167	C	0.319661	0.116124	0.375257
	C168	C	0.887801	0.385070	0.176175
	C169	C	0.122103	0.616019	0.174570
	C170	C	0.121707	0.384226	0.827138
	C171	C	0.881318	0.614800	0.819084
	C172	C	0.178632	0.880737	0.384075
	C173	C	0.178224	0.118952	0.613517
	C174	C	0.819233	0.125004	0.385129
	C175	C	0.826295	0.879751	0.614891
	C176	C	0.388949	0.183968	0.876877
	C177	C	0.617402	0.175655	0.118629
	C178	C	0.387632	0.822362	0.120647
	C179	C	0.616192	0.825491	0.882710
	C180	C	0.387071	0.881107	0.177320
	C181	C	0.616472	0.117732	0.177417
	C182	C	0.388735	0.126570	0.818839
	C183	C	0.616771	0.885085	0.826212
	C184	C	0.877921	0.180264	0.384547
	C185	C	0.117930	0.171940	0.615076
	C186	C	0.118596	0.826950	0.382469
	C187	C	0.883757	0.822552	0.614432
	C188	C	0.181550	0.385934	0.881741
	C189	C	0.181359	0.614947	0.120313
	C190	C	0.827717	0.385311	0.121407
	C191	C	0.820936	0.613672	0.873530
	C192	C	0.400245	0.097519	0.594524
	C193	C	0.602467	0.905872	0.601401
	C194	C	0.597148	0.097000	0.401007
	C195	C	0.400793	0.906579	0.402554
	C196	C	0.604770	0.400699	0.095494
	C197	C	0.599092	0.600668	0.903196
	C198	C	0.402846	0.598822	0.094947
	C199	C	0.403611	0.407370	0.904165
	C200	C	0.096462	0.602574	0.399022
	C201	C	0.908825	0.599734	0.595537
	C202	C	0.095399	0.396425	0.601494
	C203	C	0.908189	0.403276	0.398512
	C204	C	0.903514	0.594788	0.092549
	C205	C	0.106068	0.404857	0.101201
	C206	C	0.099356	0.595266	0.900221
	C207	C	0.902838	0.404670	0.902252
	C208	C	0.102070	0.900766	0.594169
	C209	C	0.096463	0.098195	0.403252
	C210	C	0.900107	0.098976	0.595937
	C211	C	0.899737	0.905778	0.403772
	C212	C	0.596836	0.104106	0.897886
	C213	C	0.409090	0.102453	0.095399
	C214	C	0.595364	0.898461	0.103658
	C215	C	0.408713	0.905526	0.900502
	Zn216	Zn	0.502463	0.003695	0.747801
	Zn217	Zn	0.500234	0.001143	0.251167
	Zn218	Zn	0.751620	0.499479	-0.001176
	Zn219	Zn	0.252602	0.501511	-0.000175
	Zn220	Zn	0.001205	0.753091	0.497375
	Zn221	Zn	0.000196	0.248403	0.499956
	Zn222	Zn	0.002416	0.498811	0.749922
	Zn223	Zn	0.004111	0.501515	0.247710
	Zn224	Zn	0.501507	0.750605	0.000308
	Zn225	Zn	0.504155	0.254195	-0.001878
	Zn226	Zn	0.749887	0.001886	0.500522
	Zn227	Zn	0.249626	0.001158	0.498847
	N228	N	0.417439	0.965361	0.676413
	N229	N	0.585653	0.040135	0.674851
	N230	N	0.583129	0.963249	0.326618
	N231	N	0.413756	0.039028	0.320767
	N232	N	0.682835	0.412613	0.963443
	N233	N	0.682616	0.587537	0.034385
	N234	N	0.320208	0.591332	0.963282
	N235	N	0.326029	0.416173	0.036911
	N236	N	0.965028	0.682441	0.409863
	N237	N	0.038655	0.678944	0.583849
	N238	N	0.963984	0.320232	0.585997
	N239	N	0.037115	0.319532	0.413080
	N240	N	0.964991	0.412262	0.679668
	N241	N	0.039422	0.584169	0.676896
	N242	N	0.966297	0.588969	0.317278
	N243	N	0.040630	0.417393	0.323874
	N244	N	0.416461	0.679813	0.961552
	N245	N	0.585039	0.674934	0.037651
	N246	N	0.588363	0.325521	0.961934
	N247	N	0.419852	0.325787	0.036824
	N248	N	0.679567	0.965932	0.414188
	N249	N	0.682063	0.036999	0.589003
	N250	N	0.321855	0.965490	0.586518
	N251	N	0.318715	0.037842	0.410443
	N252	N	0.921206	0.462807	0.174320
	N253	N	0.088768	0.538197	0.176019
	N254	N	0.085869	0.461726	0.825428
	N255	N	0.916956	0.537444	0.821257
	N256	N	0.181679	0.912465	0.462876
	N257	N	0.179445	0.087260	0.534648
	N258	N	0.818729	0.090086	0.463621
	N259	N	0.823479	0.915709	0.536719
	N260	N	0.466310	0.184820	0.910804
	N261	N	0.540602	0.178709	0.083219
	N262	N	0.465048	0.819389	0.088752
	N263	N	0.538685	0.823630	0.914916
	N264	N	0.464038	0.914410	0.179810
	N265	N	0.539009	0.085682	0.178031
	N266	N	0.465770	0.092011	0.817429
	N267	N	0.539935	0.920140	0.824047
	N268	N	0.913247	0.179255	0.462580
	N269	N	0.082229	0.172852	0.537142
	N270	N	0.084607	0.826118	0.460206
	N271	N	0.916159	0.823386	0.536078
	N272	N	0.182363	0.464406	0.913580
	N273	N	0.184356	0.536525	0.088707
	N274	N	0.824407	0.463271	0.085784
	N275	N	0.819760	0.535554	0.909101
	O276	O	0.407335	0.461826	0.609706
	H277	H	0.403753	0.462737	0.609685
	H278	H	0.405451	0.484791	0.594519
	O279	O	0.467049	0.462821	0.576416
	H280	H	0.464215	0.464190	0.584683
	H281	H	0.469921	0.450689	0.579223
	O282	O	0.934346	1.041551	-0.014185
	H283	H	0.928900	1.040867	-0.027424
	H284	H	0.942472	1.035449	-0.017245
	O285	O	1.029043	-0.032422	0.996232
	H286	H	1.036854	-0.045390	0.995485
	H287	H	1.017972	-0.030073	0.998503
	O288	O	0.564614	0.515620	0.423345
	H289	H	0.564963	0.528608	0.415586
	H290	H	0.571653	0.515530	0.434314
	O291	O	0.527445	0.488629	0.441840
	H292	H	0.521142	0.480414	0.444163
	H293	H	0.527947	0.488697	0.434573
	O294	O	0.504907	0.485530	0.410871
	H295	H	0.522054	0.474171	0.413363
	H296	H	0.497303	0.473967	0.413237
	O297	O	-0.001091	-0.014526	1.026002
	H298	H	-0.009468	-0.020766	1.030202
	H299	H	0.005052	-0.013458	1.016022
	O300	O	0.542602	0.489976	0.566900
	H301	H	0.538580	0.484038	0.572148
	H302	H	0.553035	0.507155	0.578176
	O303	O	0.924801	1.065794	0.052698
	H304	H	0.930558	1.073500	0.052728
	H305	H	0.915964	1.056512	0.063353
	O306	O	0.038027	1.002224	1.000256
	H307	H	0.036700	0.986578	0.991025
	H308	H	0.030685	0.995868	1.009126
	O309	O	0.489763	0.506652	0.480096
	H310	H	0.488109	0.504460	0.485249
	H311	H	0.488240	0.508612	0.471112
	O312	O	0.094497	0.062801	0.047497
	H313	H	0.092878	0.063718	0.048121
	H314	H	0.091306	0.071531	0.040118
	O315	O	1.046012	0.076699	-0.052948
	H316	H	1.043950	0.079539	-0.043326
	H317	H	1.053068	0.071039	-0.057613
	O318	O	1.015470	1.019081	0.994163
	H319	H	1.026400	1.025976	0.994190
	H320	H	1.007061	1.022854	0.994029
	O321	O	-0.088354	-0.027791	0.938444
	H322	H	-0.070216	-0.035079	0.932986
	H323	H	-0.088233	-0.025677	0.934040
	O324	O	0.482717	0.605316	0.503376
	H325	H	0.477423	0.610035	0.504644
	H326	H	0.485796	0.602558	0.490312
	O327	O	0.060022	0.065751	0.151539
	H328	H	0.065972	0.072002	0.151772
	H329	H	0.063255	0.073404	0.159654
	O330	O	0.584898	0.469928	0.555945
	H331	H	0.576481	0.460626	0.552013
	H332	H	0.586349	0.477438	0.556064
	O333	O	0.105074	0.887592	0.875066
	H334	H	0.107265	0.891842	0.880722
	H335	H	0.113934	0.879545	0.887137
	O336	O	-0.067029	0.058320	-0.025674
	H337	H	-0.069985	0.077574	-0.031459
	H338	H	-0.069411	0.064882	-0.024496
	O339	O	0.497508	0.478185	0.490776
	H340	H	0.493050	0.490779	0.481149
	H341	H	0.499952	0.472820	0.500024
	O342	O	0.893051	1.017422	1.064732
	H343	H	0.889488	1.015841	1.059812
	H344	H	0.887878	1.015355	1.058193
	O345	O	1.098699	0.991513	-0.011879
	H346	H	1.094739	1.006633	-0.014013
	H347	H	1.100511	0.985143	-0.004165
	O348	O	0.483935	0.595659	0.511910
	H349	H	0.492482	0.600273	0.512530
	H350	H	0.486898	0.604951	0.509747
	O351	O	0.463751	0.600703	0.429325
	H352	H	0.459541	0.612118	0.427668
	H353	H	0.466220	0.604671	0.427669
	O354	O	0.448335	0.449279	0.547116
	H355	H	0.445764	0.444778	0.545031
	H356	H	0.443960	0.435477	0.563156
	O357	O	1.065593	-0.104801	0.992676
	H358	H	1.065039	-0.108885	0.995048
	H359	H	1.062455	-0.116152	0.996061
	O360	O	0.386835	0.563702	0.436355
	H361	H	0.390772	0.562180	0.435856
	H362	H	0.391066	0.571231	0.430310
	O363	O	0.456000	0.539546	0.468001
	H364	H	0.436629	0.551577	0.459301
	H365	H	0.456252	0.534238	0.466751
	O366	O	1.002992	0.960147	0.968765
	H367	H	1.012386	0.963851	0.974252
	H368	H	1.002209	0.964279	0.972536
	O369	O	0.916284	-0.089495	1.027046
	H370	H	0.919315	-0.087159	1.010251
	H371	H	0.908581	-0.086458	1.022647
	O372	O	0.022084	-0.103505	0.005008
	H373	H	0.024748	-0.104160	0.003833
	H374	H	0.011119	-0.103472	0.005563
	O375	O	0.982424	-0.105566	0.031088
	H376	H	0.982400	-0.123723	0.045987
	H377	H	0.968414	-0.097969	0.037187
	O378	O	0.546391	0.467629	0.493919
	H379	H	0.538299	0.474183	0.489018
	H380	H	0.552460	0.453725	0.507404
	O381	O	0.418712	0.484955	0.506266
	H382	H	0.413148	0.495895	0.501845
	H383	H	0.423780	0.478201	0.512958
