data_Molecule from HDF5

_cell_length_a		16.373832
_cell_length_b		16.336452
_cell_length_c		16.118302
_cell_angle_alpha	89.954082
_cell_angle_beta	89.828896
_cell_angle_gamma	89.773293
_symmetry_space_group_name_H-M	'P 1'
_symmetry_Int_Tables_number		1

loop_
	_symmetry_equiv_pos_as_xyz
	x,y,z

loop_
	_atom_site_label
	_atom_site_type_symbol
	_atom_site_fract_x
	_atom_site_fract_y
	_atom_site_fract_z
	H0	H	0.403096	0.823731	0.710785
	H1	H	0.599826	0.149128	0.706893
	H2	H	0.602617	0.823025	0.279993
	H3	H	0.403935	0.148130	0.277142
	H4	H	0.720090	0.385761	0.828733
	H5	H	0.718532	0.585879	0.157318
	H6	H	0.287227	0.589248	0.829046
	H7	H	0.285278	0.384909	0.156495
	H8	H	0.841977	0.705846	0.390953
	H9	H	0.163853	0.705410	0.596585
	H10	H	0.842552	0.269390	0.596405
	H11	H	0.163796	0.266668	0.386900
	H12	H	0.841285	0.388942	0.709536
	H13	H	0.165873	0.585817	0.707998
	H14	H	0.839951	0.586564	0.278543
	H15	H	0.165007	0.389284	0.276037
	H16	H	0.403400	0.702818	0.829632
	H17	H	0.603574	0.700446	0.156967
	H18	H	0.603618	0.271168	0.827667
	H19	H	0.403449	0.270726	0.157815
	H20	H	0.721963	0.825370	0.390820
	H21	H	0.721743	0.146582	0.599146
	H22	H	0.283566	0.824281	0.597841
	H23	H	0.282566	0.145926	0.387938
	H24	H	0.902735	0.325681	0.209782
	H25	H	0.100475	0.650626	0.206684
	H26	H	0.105637	0.325131	0.774777
	H27	H	0.906222	0.650587	0.778427
	H28	H	0.222075	0.881620	0.330122
	H29	H	0.219870	0.088456	0.655771
	H30	H	0.787528	0.086383	0.329729
	H31	H	0.785991	0.883619	0.656382
	H32	H	0.342920	0.206165	0.889023
	H33	H	0.665601	0.203069	0.095814
	H34	H	0.342759	0.767746	0.097547
	H35	H	0.664905	0.766738	0.890611
	H36	H	0.342320	0.886651	0.210843
	H37	H	0.667010	0.082663	0.207548
	H38	H	0.340698	0.086701	0.777055
	H39	H	0.665542	0.886075	0.776115
	H40	H	0.901311	0.203201	0.330097
	H41	H	0.105416	0.204741	0.655703
	H42	H	0.104794	0.770214	0.328953
	H43	H	0.901674	0.769489	0.656672
	H44	H	0.223812	0.326240	0.887221
	H45	H	0.221658	0.648036	0.095459
	H46	H	0.786635	0.325201	0.096156
	H47	H	0.783551	0.648068	0.889221
	H48	H	0.412307	0.100847	0.586823
	H49	H	0.591716	0.874290	0.578386
	H50	H	0.594695	0.102603	0.400101
	H51	H	0.406096	0.871798	0.413025
	H52	H	0.593623	0.400117	0.107770
	H53	H	0.594968	0.586139	0.872685
	H54	H	0.407413	0.570830	0.108469
	H55	H	0.417291	0.388556	0.875285
	H56	H	0.115202	0.581044	0.410613
	H57	H	0.886066	0.583675	0.586831
	H58	H	0.115168	0.394103	0.575476
	H59	H	0.886883	0.390313	0.403485
	H60	H	0.117615	0.400959	0.586011
	H61	H	0.890413	0.579623	0.577677
	H62	H	0.117424	0.569641	0.395495
	H63	H	0.890027	0.398178	0.406231
	H64	H	0.417956	0.575649	0.107808
	H65	H	0.602017	0.570628	0.874903
	H66	H	0.590073	0.389057	0.109816
	H67	H	0.405732	0.396771	0.874232
	H68	H	0.595515	0.101580	0.402630
	H69	H	0.603273	0.868729	0.582405
	H70	H	0.411752	0.098835	0.579042
	H71	H	0.406445	0.866624	0.394791
	H72	H	0.917015	0.599382	0.079199
	H73	H	0.092201	0.371264	0.088879
	H74	H	0.096710	0.601948	0.903259
	H75	H	0.912877	0.369608	0.893052
	H76	H	0.087439	0.895731	0.607511
	H77	H	0.095107	0.071077	0.377454
	H78	H	0.915351	0.080814	0.610618
	H79	H	0.911663	0.890237	0.374281
	H80	H	0.619441	0.087807	0.907481
	H81	H	0.388351	0.084223	0.082707
	H82	H	0.618880	0.886912	0.076770
	H83	H	0.392454	0.903627	0.906193
	H84	H	0.617252	0.898795	0.086822
	H85	H	0.392149	0.073916	0.078926
	H86	H	0.613955	0.068745	0.905801
	H87	H	0.385092	0.891973	0.893637
	H88	H	0.907623	0.078853	0.612295
	H89	H	0.087376	0.076258	0.377864
	H90	H	0.094330	0.891186	0.610952
	H91	H	0.906543	0.897545	0.375177
	H92	H	0.097256	0.603243	0.899633
	H93	H	0.090616	0.375542	0.077623
	H94	H	0.899578	0.603557	0.077986
	H95	H	0.916804	0.375139	0.907108
	H96	H	0.405467	0.101578	0.582467
	H97	H	0.592915	0.868863	0.591070
	H98	H	0.597662	0.102722	0.401878
	H99	H	0.422290	0.873284	0.402196
	H100	H	0.601245	0.392007	0.111505
	H101	H	0.585878	0.573089	0.880266
	H102	H	0.408808	0.581797	0.112981
	H103	H	0.418019	0.401869	0.880678
	H104	H	0.122548	0.588073	0.394167
	H105	H	0.889759	0.573247	0.586028
	H106	H	0.121345	0.388546	0.585108
	H107	H	0.887043	0.397401	0.397927
	H108	H	0.907726	0.606327	0.093571
	H109	H	0.101034	0.371183	0.079948
	H110	H	0.094387	0.601749	0.901148
	H111	H	0.903502	0.370344	0.904711
	H112	H	0.095242	0.899941	0.609505
	H113	H	0.095448	0.080269	0.374882
	H114	H	0.913057	0.072952	0.608655
	H115	H	0.915083	0.897123	0.377476
	H116	H	0.621599	0.077944	0.889169
	H117	H	0.388153	0.074944	0.089558
	H118	H	0.623651	0.886273	0.091693
	H119	H	0.388787	0.886365	0.910752
	C120	C	0.380254	-0.006175	0.614480
	C121	C	0.624697	0.977547	0.614621
	C122	C	0.625480	-0.005042	0.372035
	C123	C	0.381301	0.977099	0.371797
	C124	C	0.624860	0.364341	0.001300
	C125	C	0.623847	0.606055	0.984684
	C126	C	0.381915	0.606971	0.001865
	C127	C	0.382548	0.364881	0.984402
	C128	C	0.011546	0.609233	0.370594
	C129	C	0.995131	0.608537	0.614124
	C130	C	0.011717	0.365336	0.613764
	C131	C	0.994470	0.365075	0.370696
	C132	C	0.879699	0.496012	0.114369
	C133	C	0.124070	0.479266	0.113034
	C134	C	0.126286	0.495408	0.870114
	C135	C	0.881715	0.478766	0.871543
	C136	C	0.123382	0.865140	0.501393
	C137	C	0.123851	0.107150	0.484109
	C138	C	0.881745	0.107468	0.502491
	C139	C	0.881366	0.865093	0.484058
	C140	C	0.511479	0.108024	0.871140
	C141	C	0.495962	0.107190	0.114525
	C142	C	0.512927	0.862158	0.115957
	C143	C	0.495313	0.863815	0.871865
	C144	C	0.382407	0.872275	0.672363
	C145	C	0.621687	0.099982	0.670285
	C146	C	0.623395	0.872181	0.316891
	C147	C	0.383021	0.099162	0.314714
	C148	C	0.681349	0.365813	0.877608
	C149	C	0.680178	0.605324	0.108201
	C150	C	0.325989	0.607428	0.878188
	C151	C	0.324485	0.365349	0.107570
	C152	C	0.889872	0.666149	0.371815
	C153	C	0.115991	0.666093	0.614671
	C154	C	0.890547	0.308475	0.615107
	C155	C	0.115416	0.306443	0.368879
	C156	C	0.889926	0.367694	0.671401
	C157	C	0.117023	0.606637	0.670368
	C158	C	0.888961	0.607039	0.315646
	C159	C	0.116189	0.367145	0.313306
	C160	C	0.383224	0.664547	0.878639
	C161	C	0.623235	0.662423	0.107997
	C162	C	0.623659	0.308662	0.877294
	C163	C	0.383179	0.308469	0.108181
	C164	C	0.682659	0.873297	0.372272
	C165	C	0.682160	0.098623	0.616449
	C166	C	0.322958	0.872611	0.616064
	C167	C	0.322605	0.098210	0.369873
	C168	C	0.882417	0.374176	0.171486
	C169	C	0.121769	0.601628	0.169173
	C170	C	0.125473	0.373942	0.812874
	C171	C	0.884514	0.601562	0.815800
	C172	C	0.182281	0.863936	0.378726
	C173	C	0.181050	0.107397	0.606957
	C174	C	0.825068	0.106396	0.379025
	C175	C	0.824412	0.864779	0.607462
	C176	C	0.390676	0.166375	0.870601
	C177	C	0.617383	0.163832	0.114376
	C178	C	0.391125	0.806213	0.116511
	C179	C	0.616454	0.805814	0.871203
	C180	C	0.391039	0.865212	0.173019
	C181	C	0.618101	0.104224	0.170402
	C182	C	0.389444	0.106919	0.814916
	C183	C	0.617007	0.865408	0.814570
	C184	C	0.882034	0.164199	0.378903
	C185	C	0.124068	0.165336	0.606918
	C186	C	0.124075	0.808068	0.378220
	C187	C	0.882046	0.807923	0.607429
	C188	C	0.184552	0.374421	0.868624
	C189	C	0.182022	0.600235	0.113961
	C190	C	0.824763	0.373670	0.114500
	C191	C	0.823462	0.600178	0.870695
	C192	C	0.403154	0.078595	0.589783
	C193	C	0.602439	0.892593	0.590925
	C194	C	0.602772	0.080159	0.394870
	C195	C	0.404838	0.892558	0.396163
	C196	C	0.601801	0.387022	0.087472
	C197	C	0.601020	0.583060	0.898278
	C198	C	0.404848	0.583192	0.087618
	C199	C	0.406622	0.388794	0.898907
	C200	C	0.096511	0.586193	0.393318
	C201	C	0.910737	0.585579	0.590442
	C202	C	0.096020	0.387960	0.589358
	C203	C	0.909945	0.388457	0.395356
	C204	C	0.901829	0.581075	0.090700
	C205	C	0.101243	0.394602	0.089167
	C206	C	0.102845	0.580217	0.894415
	C207	C	0.904486	0.393790	0.894868
	C208	C	0.099430	0.888771	0.587222
	C209	C	0.099745	0.082703	0.398831
	C210	C	0.905096	0.084455	0.588314
	C211	C	0.904304	0.888133	0.397882
	C212	C	0.596325	0.084819	0.894087
	C213	C	0.411411	0.084451	0.090779
	C214	C	0.597834	0.884105	0.092059
	C215	C	0.410585	0.887053	0.896397
	Zn216	Zn	0.502661	-0.013631	0.742798
	Zn217	Zn	0.504256	-0.014190	0.243782
	Zn218	Zn	0.752261	0.486274	-0.006905
	Zn219	Zn	0.254154	0.486719	-0.007932
	Zn220	Zn	0.003304	0.737588	0.492911
	Zn221	Zn	0.002788	0.235435	0.492949
	Zn222	Zn	0.003720	0.487142	0.742603
	Zn223	Zn	0.002233	0.488165	0.241614
	Zn224	Zn	0.503654	0.734218	-0.006048
	Zn225	Zn	0.504237	0.236485	-0.006839
	Zn226	Zn	0.753358	-0.013530	0.493998
	Zn227	Zn	0.251239	-0.014878	0.492936
	N228	N	0.417358	0.948743	0.671455
	N229	N	0.586692	0.023578	0.669592
	N230	N	0.588382	0.948853	0.316632
	N231	N	0.418730	0.022824	0.315742
	N232	N	0.682460	0.399624	0.955747
	N233	N	0.680616	0.570965	0.030205
	N234	N	0.324980	0.572446	0.955815
	N235	N	0.323726	0.399521	0.029419
	N236	N	0.967051	0.667769	0.405028
	N237	N	0.039294	0.667263	0.580102
	N238	N	0.967198	0.306606	0.580317
	N239	N	0.038450	0.304738	0.403450
	N240	N	0.966372	0.402393	0.670685
	N241	N	0.040851	0.571693	0.670271
	N242	N	0.965714	0.572306	0.314807
	N243	N	0.040100	0.402898	0.314331
	N244	N	0.417493	0.664331	0.956529
	N245	N	0.588890	0.662945	0.030277
	N246	N	0.589381	0.307685	0.955330
	N247	N	0.418305	0.307907	0.030660
	N248	N	0.683962	0.950498	0.405945
	N249	N	0.684162	0.021454	0.582439
	N250	N	0.321451	0.949401	0.580968
	N251	N	0.321332	0.021279	0.404621
	N252	N	0.915796	0.451247	0.171634
	N253	N	0.086164	0.525596	0.168587
	N254	N	0.090193	0.450388	0.813535
	N255	N	0.919870	0.525048	0.816019
	N256	N	0.181906	0.898746	0.456338
	N257	N	0.180976	0.071883	0.529623
	N258	N	0.824664	0.072110	0.456996
	N259	N	0.823732	0.899455	0.529825
	N260	N	0.467487	0.167192	0.904784
	N261	N	0.540418	0.165738	0.080216
	N262	N	0.467904	0.804190	0.081816
	N263	N	0.539675	0.804603	0.905959
	N264	N	0.467700	0.899247	0.172959
	N265	N	0.541657	0.069708	0.170666
	N266	N	0.465665	0.071298	0.815007
	N267	N	0.540595	0.900826	0.814909
	N268	N	0.916594	0.165162	0.456561
	N269	N	0.089324	0.165438	0.529274
	N270	N	0.087944	0.808933	0.455362
	N271	N	0.916773	0.807755	0.529706
	N272	N	0.185140	0.451122	0.903512
	N273	N	0.183503	0.523095	0.079654
	N274	N	0.822880	0.450623	0.079868
	N275	N	0.821449	0.522791	0.904399
	O276	O	0.110421	0.053871	-0.046828
	H277	H	0.094891	0.052335	-0.040887
	H278	H	0.118833	0.057259	-0.040536
	O279	O	0.446362	0.438803	0.516362
	H280	H	0.442031	0.439193	0.514321
	H281	H	0.428651	0.435135	0.521925
	O282	O	0.877489	-0.116925	-0.008648
	H283	H	0.891290	-0.118950	-0.017248
	H284	H	0.868297	-0.120235	-0.001908
	O285	O	-0.158328	0.980928	-0.078752
	H286	H	-0.158280	0.977920	-0.081160
	H287	H	-0.163595	0.976284	-0.083934
	O288	O	-0.027395	-0.008371	1.129894
	H289	H	-0.026832	-0.017464	1.143346
	H290	H	-0.032150	-0.002043	1.119919
	O291	O	0.517475	0.599097	0.554775
	H292	H	0.530417	0.605568	0.560715
	H293	H	0.510518	0.586018	0.543989
	O294	O	1.144157	0.958206	0.846267
	H295	H	1.144862	0.953606	0.841136
	H296	H	1.151634	0.942193	0.858675
	O297	O	-0.113280	-0.060829	0.034676
	H298	H	-0.126707	-0.070540	0.037212
	H299	H	-0.103380	-0.056384	0.045750
	O300	O	0.490022	0.530922	0.373161
	H301	H	0.479378	0.535654	0.375875
	H302	H	0.496672	0.540269	0.370575
	O303	O	-0.069679	1.014938	1.049481
	H304	H	-0.056927	1.009627	1.053826
	H305	H	-0.066830	1.024186	1.054659
	O306	O	1.114936	0.960917	0.005896
	H307	H	1.105950	0.955526	0.014528
	H308	H	1.116680	0.955655	-0.007052
	O309	O	1.111658	-0.197225	-0.065508
	H310	H	1.104550	-0.223232	-0.073599
	H311	H	1.119064	-0.190384	-0.051685
	O312	O	0.081561	-0.064343	0.906335
	H313	H	0.072643	-0.056449	0.907274
	H314	H	0.067921	-0.071287	0.912688
	O315	O	0.560531	0.513608	0.498518
	H316	H	0.547503	0.531964	0.500731
	H317	H	0.557132	0.511874	0.499518
	O318	O	0.353959	0.579328	0.454367
	H319	H	0.355177	0.578433	0.448906
	H320	H	0.352470	0.579572	0.462397
	O321	O	0.544567	0.515251	0.604019
	H322	H	0.558685	0.521074	0.614960
	H323	H	0.534418	0.517871	0.612267
	O324	O	0.441929	0.494167	0.482295
	H325	H	0.439247	0.489633	0.472676
	H326	H	0.439048	0.485300	0.478799
	O327	O	0.100743	1.059826	1.173672
	H328	H	0.118681	1.035547	1.164262
	H329	H	0.108487	1.066966	1.182460
	O330	O	0.527332	0.428854	0.508573
	H331	H	0.530414	0.419373	0.508696
	H332	H	0.533610	0.432316	0.514345
	O333	O	-0.121710	1.029050	1.066266
	H334	H	-0.117775	1.032553	1.071046
	H335	H	-0.113499	1.032634	1.059782
	O336	O	0.974429	0.930154	1.035798
	H337	H	0.958343	0.938011	1.028612
	H338	H	0.974701	0.935525	1.035146
	O339	O	0.385891	0.520782	0.523944
	H340	H	0.393318	0.518230	0.529787
	H341	H	0.390831	0.511831	0.524448
	O342	O	1.071033	-0.038390	0.139366
	H343	H	1.070702	-0.040258	0.138870
	H344	H	1.071949	-0.031135	0.143031
	O345	O	0.661111	0.502215	0.560625
	H346	H	0.650663	0.493932	0.563240
	H347	H	0.668725	0.495194	0.570386
	O348	O	1.005698	1.165063	1.010789
	H349	H	1.010432	1.165266	1.008183
	H350	H	1.006596	1.169448	1.033029
	O351	O	0.608062	1.411081	-0.404336
	H352	H	0.623493	1.409525	-0.413086
	H353	H	0.591538	1.403319	-0.409089
	O354	O	0.590524	0.426701	0.540905
	H355	H	0.586733	0.420826	0.535509
	H356	H	0.597164	0.437357	0.525370
	O357	O	-0.139820	1.181235	0.934339
	H358	H	-0.136700	1.187906	0.936448
	H359	H	-0.133223	1.196664	0.948674
	O360	O	0.362719	0.410752	0.539308
	H361	H	0.361517	0.399219	0.534149
	H362	H	0.359725	0.412349	0.554429
	O363	O	0.481398	0.515465	0.508867
	H364	H	0.472588	0.519340	0.521833
	H365	H	0.501112	0.512988	0.513691
	O366	O	0.391102	0.403000	0.450576
	H367	H	0.391184	0.403013	0.441551
	H368	H	0.388296	0.403503	0.452801
	O369	O	0.632246	0.537901	0.451261
	H370	H	0.642064	0.545171	0.455265
	H371	H	0.634211	0.542513	0.455933
	O372	O	0.615769	0.548222	0.421954
	H373	H	0.625849	0.543517	0.437750
	H374	H	0.616856	0.550177	0.425236
	O375	O	0.399984	0.503009	0.453041
	H376	H	0.398598	0.515736	0.460651
	H377	H	0.400263	0.491792	0.444611
	O378	O	-0.056793	0.886740	1.019064
	H379	H	-0.049855	0.883800	1.020372
	H380	H	-0.054617	0.884500	1.019120
	O381	O	0.446273	0.432879	0.460785
	H382	H	0.466070	0.433225	0.460815
	H383	H	0.448098	0.430040	0.460476
	O384	O	0.132069	0.886132	-0.176278
	H385	H	0.144943	0.881162	-0.187994
	H386	H	0.130901	0.889560	-0.166901
	O387	O	1.054964	0.157904	0.939659
	H388	H	1.065143	0.148732	0.933822
	H389	H	1.056013	0.157197	0.924784
	O390	O	-0.032593	0.915627	-0.012910
	H391	H	-0.030225	0.918589	-0.009665
	H392	H	-0.018864	0.931317	-0.021274
	O393	O	1.180143	1.125757	0.126119
	H394	H	1.174179	1.110926	0.120322
	H395	H	1.179128	1.138866	0.128309
	O396	O	0.432368	0.546538	0.416398
	H397	H	0.427588	0.557234	0.413174
	H398	H	0.429308	0.539897	0.419031
	O399	O	0.082598	1.052263	0.983319
	H400	H	0.087159	1.042042	0.985930
	H401	H	0.072217	1.056019	0.972783
	O402	O	0.904542	1.100746	0.802601
	H403	H	0.898690	1.105270	0.810321
	H404	H	0.894813	1.125034	0.782443
	O405	O	0.653320	0.318388	0.438862
	H406	H	0.654221	0.311463	0.428650
	H407	H	0.647224	0.328372	0.427494
