data_Molecule from HDF5

_cell_length_a		16.272666
_cell_length_b		16.322108
_cell_length_c		16.243120
_cell_angle_alpha	89.936030
_cell_angle_beta	90.019630
_cell_angle_gamma	90.040879
_symmetry_space_group_name_H-M	'P 1'
_symmetry_Int_Tables_number		1

loop_
	_symmetry_equiv_pos_as_xyz
	x,y,z

loop_
	_atom_site_label
	_atom_site_type_symbol
	_atom_site_fract_x
	_atom_site_fract_y
	_atom_site_fract_z
	H0	H	0.401839	0.836727	0.714512
	H1	H	0.596246	0.164502	0.713385
	H2	H	0.597386	0.836283	0.286631
	H3	H	0.402987	0.163386	0.286110
	H4	H	0.714955	0.402113	0.836763
	H5	H	0.713357	0.596352	0.164341
	H6	H	0.285761	0.597347	0.835636
	H7	H	0.286750	0.402165	0.163842
	H8	H	0.836232	0.713796	0.402104
	H9	H	0.164026	0.715532	0.599576
	H10	H	0.836293	0.284801	0.598697
	H11	H	0.163661	0.285684	0.401775
	H12	H	0.835510	0.402567	0.713578
	H13	H	0.164820	0.595985	0.711884
	H14	H	0.835221	0.596501	0.287183
	H15	H	0.163704	0.403864	0.287841
	H16	H	0.401100	0.714440	0.835805
	H17	H	0.597966	0.713111	0.164557
	H18	H	0.598411	0.287033	0.835549
	H19	H	0.401796	0.285652	0.163751
	H20	H	0.713263	0.836386	0.403443
	H21	H	0.714744	0.163645	0.598724
	H22	H	0.285771	0.836890	0.598912
	H23	H	0.286093	0.163173	0.401637
	H24	H	0.903130	0.336357	0.213686
	H25	H	0.096782	0.663906	0.213584
	H26	H	0.098346	0.336553	0.785145
	H27	H	0.902060	0.663751	0.784800
	H28	H	0.213373	0.902323	0.335552
	H29	H	0.213175	0.095593	0.664534
	H30	H	0.786133	0.097452	0.336032
	H31	H	0.786446	0.902265	0.664084
	H32	H	0.336365	0.214800	0.901632
	H33	H	0.663434	0.214422	0.098171
	H34	H	0.336429	0.784776	0.099624
	H35	H	0.664255	0.786246	0.902009
	H36	H	0.336084	0.901709	0.213813
	H37	H	0.663956	0.097201	0.213122
	H38	H	0.335350	0.097543	0.786639
	H39	H	0.663884	0.904061	0.786494
	H40	H	0.901192	0.213629	0.336186
	H41	H	0.099033	0.214194	0.664132
	H42	H	0.097408	0.786712	0.335896
	H43	H	0.901955	0.786231	0.664042
	H44	H	0.214497	0.336500	0.902449
	H45	H	0.214137	0.663676	0.097828
	H46	H	0.786021	0.336207	0.098190
	H47	H	0.785084	0.663223	0.900879
	H48	H	0.399710	0.116881	0.588838
	H49	H	0.578525	0.890659	0.586711
	H50	H	0.598415	0.115895	0.413566
	H51	H	0.414322	0.887022	0.410224
	H52	H	0.594474	0.407985	0.117002
	H53	H	0.595712	0.592534	0.882235
	H54	H	0.402432	0.596429	0.119644
	H55	H	0.402065	0.401361	0.879392
	H56	H	0.114441	0.591960	0.412460
	H57	H	0.884934	0.600601	0.582026
	H58	H	0.116138	0.401910	0.586561
	H59	H	0.881718	0.404470	0.405863
	H60	H	0.114219	0.413183	0.591947
	H61	H	0.887112	0.581025	0.592541
	H62	H	0.117814	0.590925	0.399904
	H63	H	0.882933	0.405087	0.408500
	H64	H	0.405508	0.588037	0.115808
	H65	H	0.590555	0.592467	0.884073
	H66	H	0.590956	0.406329	0.116777
	H67	H	0.404677	0.412775	0.883854
	H68	H	0.595583	0.119413	0.399753
	H69	H	0.609130	0.882684	0.583435
	H70	H	0.405149	0.118997	0.600434
	H71	H	0.399362	0.882837	0.412486
	H72	H	0.907664	0.616791	0.094544
	H73	H	0.098906	0.384045	0.088133
	H74	H	0.102983	0.618642	0.907940
	H75	H	0.907969	0.385862	0.910649
	H76	H	0.088659	0.894344	0.618890
	H77	H	0.086667	0.096757	0.384217
	H78	H	0.912322	0.097887	0.617276
	H79	H	0.909942	0.905600	0.383223
	H80	H	0.623019	0.110840	0.901306
	H81	H	0.386272	0.093760	0.081146
	H82	H	0.614604	0.907248	0.086939
	H83	H	0.386879	0.917125	0.905716
	H84	H	0.616655	0.910309	0.097812
	H85	H	0.385026	0.084144	0.099078
	H86	H	0.610108	0.091807	0.923652
	H87	H	0.378253	0.900256	0.898253
	H88	H	0.901503	0.093373	0.618968
	H89	H	0.098884	0.098522	0.380900
	H90	H	0.105960	0.909711	0.620501
	H91	H	0.903575	0.903177	0.381731
	H92	H	0.089374	0.617878	0.897186
	H93	H	0.096208	0.380973	0.100498
	H94	H	0.905758	0.616041	0.091841
	H95	H	0.904318	0.383494	0.906870
	H96	H	0.412311	0.114113	0.590448
	H97	H	0.594611	0.878447	0.611764
	H98	H	0.585533	0.113517	0.408467
	H99	H	0.405906	0.880502	0.398395
	H100	H	0.594096	0.404307	0.117696
	H101	H	0.592551	0.597279	0.881745
	H102	H	0.411794	0.595913	0.115769
	H103	H	0.413289	0.404302	0.884015
	H104	H	0.119351	0.602581	0.405826
	H105	H	0.878631	0.598743	0.603492
	H106	H	0.118921	0.403634	0.598986
	H107	H	0.883665	0.407252	0.406450
	H108	H	0.904517	0.617392	0.094407
	H109	H	0.087004	0.385908	0.092568
	H110	H	0.088067	0.612746	0.914027
	H111	H	0.909516	0.384048	0.905436
	H112	H	0.085344	0.916309	0.611382
	H113	H	0.094866	0.086853	0.384584
	H114	H	0.909382	0.086811	0.614571
	H115	H	0.904278	0.910114	0.383086
	H116	H	0.615846	0.080426	0.894471
	H117	H	0.378669	0.103494	0.097135
	H118	H	0.618772	0.899759	0.094502
	H119	H	0.384530	0.901088	0.917248
	C120	C	0.378179	0.008235	0.621507
	C121	C	0.622278	0.992071	0.622249
	C122	C	0.621717	0.008379	0.378733
	C123	C	0.378384	0.991500	0.378380
	C124	C	0.621615	0.378338	0.008384
	C125	C	0.621020	0.621242	0.991646
	C126	C	0.378671	0.621541	0.008242
	C127	C	0.378769	0.378434	0.991348
	C128	C	0.008300	0.622124	0.378492
	C129	C	0.991939	0.621647	0.621258
	C130	C	0.008152	0.378056	0.621293
	C131	C	0.991480	0.378287	0.378958
	C132	C	0.877892	0.508554	0.121722
	C133	C	0.121921	0.491779	0.122053
	C134	C	0.121737	0.508485	0.878189
	C135	C	0.878451	0.491843	0.878318
	C136	C	0.121556	0.878583	0.508576
	C137	C	0.121606	0.121594	0.491629
	C138	C	0.879118	0.121001	0.508513
	C139	C	0.878056	0.878324	0.491416
	C140	C	0.508188	0.122107	0.878037
	C141	C	0.491544	0.121532	0.120752
	C142	C	0.508411	0.877725	0.121491
	C143	C	0.491499	0.878690	0.878700
	C144	C	0.381791	0.885252	0.676067
	C145	C	0.617852	0.115505	0.675804
	C146	C	0.618462	0.885131	0.324206
	C147	C	0.381778	0.114640	0.323772
	C148	C	0.676876	0.381420	0.885189
	C149	C	0.675568	0.617541	0.115458
	C150	C	0.323746	0.618141	0.884450
	C151	C	0.324198	0.381285	0.114834
	C152	C	0.884929	0.676277	0.381483
	C153	C	0.115151	0.677307	0.619491
	C154	C	0.884881	0.322740	0.619434
	C155	C	0.114792	0.324099	0.381951
	C156	C	0.884461	0.381706	0.675916
	C157	C	0.115691	0.618164	0.675645
	C158	C	0.884578	0.617971	0.324503
	C159	C	0.114918	0.382414	0.324918
	C160	C	0.380542	0.676560	0.884848
	C161	C	0.618383	0.675484	0.115419
	C162	C	0.618995	0.324197	0.884914
	C163	C	0.381102	0.323194	0.114561
	C164	C	0.676009	0.885187	0.382252
	C165	C	0.676844	0.115003	0.619051
	C166	C	0.323844	0.885328	0.618788
	C167	C	0.323767	0.114618	0.381131
	C168	C	0.881634	0.385272	0.176101
	C169	C	0.118030	0.615022	0.176417
	C170	C	0.119051	0.385207	0.823278
	C171	C	0.881361	0.615010	0.823081
	C172	C	0.176310	0.881195	0.384857
	C173	C	0.176077	0.117639	0.615472
	C174	C	0.824307	0.118097	0.384770
	C175	C	0.823923	0.881511	0.615138
	C176	C	0.385117	0.176983	0.880988
	C177	C	0.614842	0.176385	0.118387
	C178	C	0.385237	0.822545	0.119438
	C179	C	0.615324	0.824302	0.881568
	C180	C	0.385056	0.880773	0.176329
	C181	C	0.614960	0.118294	0.175696
	C182	C	0.384536	0.118759	0.823885
	C183	C	0.615237	0.882646	0.824295
	C184	C	0.881392	0.175878	0.385070
	C185	C	0.119051	0.176062	0.615202
	C186	C	0.118417	0.824144	0.384865
	C187	C	0.881286	0.824021	0.615102
	C188	C	0.176536	0.385059	0.881462
	C189	C	0.176208	0.614791	0.118880
	C190	C	0.823469	0.385329	0.118808
	C191	C	0.823461	0.614914	0.880666
	C192	C	0.399506	0.094645	0.599641
	C193	C	0.600619	0.905986	0.600372
	C194	C	0.599579	0.094210	0.400696
	C195	C	0.400140	0.905534	0.400430
	C196	C	0.599725	0.399836	0.094898
	C197	C	0.599399	0.600351	0.905051
	C198	C	0.400227	0.599843	0.094732
	C199	C	0.400179	0.399932	0.904651
	C200	C	0.094965	0.601325	0.399620
	C201	C	0.905586	0.600020	0.599166
	C202	C	0.094253	0.399830	0.599200
	C203	C	0.904936	0.399404	0.400552
	C204	C	0.899553	0.594642	0.099871
	C205	C	0.100307	0.405726	0.100221
	C206	C	0.099975	0.594309	0.899805
	C207	C	0.900774	0.406349	0.900990
	C208	C	0.099777	0.900472	0.594667
	C209	C	0.100028	0.100401	0.405362
	C210	C	0.901173	0.099097	0.594697
	C211	C	0.899651	0.899745	0.404970
	C212	C	0.594272	0.100620	0.899985
	C213	C	0.405293	0.099984	0.099005
	C214	C	0.594465	0.899459	0.099779
	C215	C	0.405486	0.899853	0.900558
	Zn216	Zn	0.499525	0.000385	0.750227
	Zn217	Zn	0.499997	-0.000217	0.249706
	Zn218	Zn	0.749639	0.500302	-0.000459
	Zn219	Zn	0.250639	0.500067	-0.000186
	Zn220	Zn	0.000159	0.750367	0.499981
	Zn221	Zn	-0.000341	0.249697	0.500329
	Zn222	Zn	-0.000012	0.499863	0.749357
	Zn223	Zn	-0.000206	0.499993	0.250606
	Zn224	Zn	0.499785	0.749646	-0.000109
	Zn225	Zn	0.500129	0.250634	-0.000401
	Zn226	Zn	0.750745	-0.000046	0.500309
	Zn227	Zn	0.249584	-0.000495	0.499891
	N228	N	0.414783	0.962865	0.677848
	N229	N	0.584534	0.038071	0.677737
	N230	N	0.585369	0.962647	0.321957
	N231	N	0.414905	0.037234	0.321937
	N232	N	0.678499	0.414513	0.962902
	N233	N	0.677163	0.584397	0.037597
	N234	N	0.322400	0.584675	0.962165
	N235	N	0.322685	0.414903	0.037063
	N236	N	0.962849	0.678896	0.414226
	N237	N	0.037129	0.679479	0.586438
	N238	N	0.962487	0.320768	0.586050
	N239	N	0.036795	0.321285	0.414441
	N240	N	0.962124	0.415313	0.677293
	N241	N	0.038254	0.584347	0.676769
	N242	N	0.962320	0.584801	0.322627
	N243	N	0.037306	0.415556	0.323267
	N244	N	0.414073	0.678415	0.962513
	N245	N	0.585245	0.677806	0.037438
	N246	N	0.585483	0.322382	0.962647
	N247	N	0.414408	0.321543	0.036774
	N248	N	0.678082	0.962812	0.415340
	N249	N	0.679566	0.037228	0.586596
	N250	N	0.321580	0.962842	0.585670
	N251	N	0.321728	0.037216	0.414579
	N252	N	0.914877	0.462723	0.177899
	N253	N	0.084990	0.537356	0.178433
	N254	N	0.085706	0.462570	0.821156
	N255	N	0.915137	0.537575	0.821694
	N256	N	0.178289	0.914438	0.462725
	N257	N	0.177717	0.084271	0.537749
	N258	N	0.822694	0.084723	0.462567
	N259	N	0.822164	0.914703	0.537353
	N260	N	0.462972	0.178888	0.913997
	N261	N	0.537247	0.178421	0.085013
	N262	N	0.462873	0.820483	0.086109
	N263	N	0.537640	0.821987	0.914989
	N264	N	0.462494	0.914601	0.177689
	N265	N	0.537386	0.084729	0.177020
	N266	N	0.462031	0.085172	0.822021
	N267	N	0.537391	0.915463	0.822228
	N268	N	0.914787	0.177663	0.462821
	N269	N	0.086070	0.178569	0.537313
	N270	N	0.085253	0.822181	0.462727
	N271	N	0.914249	0.821638	0.537132
	N272	N	0.178132	0.462374	0.915043
	N273	N	0.178902	0.537184	0.086057
	N274	N	0.821406	0.463021	0.085393
	N275	N	0.821529	0.537581	0.914044
