data_Molecule from HDF5

_cell_length_a		16.326940
_cell_length_b		16.140531
_cell_length_c		16.173823
_cell_angle_alpha	89.625585
_cell_angle_beta	90.195068
_cell_angle_gamma	90.132516
_symmetry_space_group_name_H-M	'P 1'
_symmetry_Int_Tables_number		1

loop_
	_symmetry_equiv_pos_as_xyz
	x,y,z

loop_
	_atom_site_label
	_atom_site_type_symbol
	_atom_site_fract_x
	_atom_site_fract_y
	_atom_site_fract_z
	H0	H	0.399392	0.834397	0.707069
	H1	H	0.596288	0.165019	0.705983
	H2	H	0.594218	0.833495	0.283772
	H3	H	0.398444	0.163811	0.276502
	H4	H	0.712221	0.399744	0.827815
	H5	H	0.715582	0.599040	0.156065
	H6	H	0.282625	0.600410	0.828686
	H7	H	0.282849	0.396298	0.156481
	H8	H	0.834379	0.716329	0.391032
	H9	H	0.161839	0.715534	0.588292
	H10	H	0.836268	0.284826	0.592065
	H11	H	0.162083	0.286486	0.393988
	H12	H	0.836714	0.399176	0.707545
	H13	H	0.162178	0.602129	0.708158
	H14	H	0.835303	0.600753	0.274761
	H15	H	0.163406	0.405053	0.280536
	H16	H	0.400958	0.714580	0.828546
	H17	H	0.596653	0.708539	0.158440
	H18	H	0.594888	0.287828	0.827521
	H19	H	0.402159	0.284925	0.158343
	H20	H	0.714090	0.837655	0.391572
	H21	H	0.713839	0.164713	0.593958
	H22	H	0.280270	0.836071	0.594316
	H23	H	0.283705	0.165210	0.391214
	H24	H	0.901715	0.335479	0.207226
	H25	H	0.096664	0.666586	0.201741
	H26	H	0.096153	0.335044	0.779462
	H27	H	0.901367	0.665091	0.777813
	H28	H	0.212108	0.901491	0.328819
	H29	H	0.213467	0.101513	0.656001
	H30	H	0.780321	0.103127	0.328378
	H31	H	0.783227	0.899851	0.657118
	H32	H	0.334497	0.214694	0.893355
	H33	H	0.662193	0.213262	0.092295
	H34	H	0.335206	0.780971	0.093690
	H35	H	0.662571	0.785103	0.895667
	H36	H	0.334764	0.898287	0.208723
	H37	H	0.661621	0.096964	0.208710
	H38	H	0.334158	0.098415	0.776739
	H39	H	0.661020	0.900434	0.777828
	H40	H	0.898978	0.216983	0.327362
	H41	H	0.095831	0.212635	0.657014
	H42	H	0.091718	0.792837	0.325940
	H43	H	0.899127	0.785053	0.656384
	H44	H	0.212762	0.335570	0.892548
	H45	H	0.215749	0.663765	0.092790
	H46	H	0.784798	0.334519	0.092303
	H47	H	0.782937	0.663336	0.889341
	H48	H	0.406074	0.116000	0.578293
	H49	H	0.592358	0.880841	0.589200
	H50	H	0.584477	0.116309	0.400320
	H51	H	0.398333	0.881575	0.405650
	H52	H	0.585006	0.408551	0.107189
	H53	H	0.588918	0.592141	0.875892
	H54	H	0.396875	0.587618	0.113061
	H55	H	0.402941	0.405528	0.874841
	H56	H	0.113605	0.595176	0.399418
	H57	H	0.885611	0.582297	0.584988
	H58	H	0.113083	0.414417	0.584497
	H59	H	0.883866	0.408869	0.402220
	H60	H	0.118110	0.405694	0.592519
	H61	H	0.878927	0.596629	0.592332
	H62	H	0.116381	0.597299	0.392310
	H63	H	0.883646	0.413089	0.399193
	H64	H	0.410576	0.580090	0.105949
	H65	H	0.592238	0.594706	0.873485
	H66	H	0.594588	0.398503	0.113814
	H67	H	0.402940	0.408244	0.875399
	H68	H	0.592529	0.118119	0.404831
	H69	H	0.584819	0.883915	0.584948
	H70	H	0.398531	0.119882	0.586250
	H71	H	0.402551	0.880498	0.398133
	H72	H	0.900829	0.615232	0.070613
	H73	H	0.083732	0.383961	0.088572
	H74	H	0.104151	0.621487	0.899927
	H75	H	0.888094	0.377534	0.901611
	H76	H	0.084412	0.915668	0.605341
	H77	H	0.091463	0.094859	0.374121
	H78	H	0.894006	0.088939	0.611024
	H79	H	0.899097	0.905030	0.371621
	H80	H	0.611948	0.084045	0.898573
	H81	H	0.381410	0.094540	0.086090
	H82	H	0.616426	0.898763	0.087766
	H83	H	0.382652	0.904797	0.901997
	H84	H	0.611806	0.907923	0.085299
	H85	H	0.383910	0.090245	0.081925
	H86	H	0.618370	0.098694	0.891067
	H87	H	0.383071	0.908151	0.903212
	H88	H	0.912370	0.085510	0.605792
	H89	H	0.092165	0.093642	0.374026
	H90	H	0.085648	0.900538	0.611831
	H91	H	0.899808	0.918112	0.376586
	H92	H	0.083909	0.618787	0.890242
	H93	H	0.092957	0.383708	0.078662
	H94	H	0.896834	0.623572	0.091658
	H95	H	0.912358	0.379065	0.884218
	H96	H	0.410028	0.117024	0.589046
	H97	H	0.593482	0.882709	0.581103
	H98	H	0.591119	0.119757	0.396228
	H99	H	0.406439	0.883724	0.405489
	H100	H	0.598248	0.412015	0.110010
	H101	H	0.592835	0.589748	0.875390
	H102	H	0.411338	0.596752	0.111157
	H103	H	0.405414	0.407174	0.875808
	H104	H	0.116291	0.601314	0.398367
	H105	H	0.883561	0.596904	0.575528
	H106	H	0.115550	0.402540	0.580755
	H107	H	0.881853	0.408215	0.397414
	H108	H	0.917236	0.615798	0.085531
	H109	H	0.095344	0.379145	0.092131
	H110	H	0.087369	0.612659	0.912062
	H111	H	0.913346	0.388095	0.912892
	H112	H	0.098798	0.910677	0.611890
	H113	H	0.090581	0.095415	0.374136
	H114	H	0.906640	0.103368	0.612073
	H115	H	0.910034	0.910281	0.377416
	H116	H	0.612824	0.098473	0.908364
	H117	H	0.381924	0.088109	0.087993
	H118	H	0.616430	0.906996	0.095083
	H119	H	0.382103	0.907318	0.898808
	C120	C	0.375598	0.008553	0.614394
	C121	C	0.619350	0.991489	0.614343
	C122	C	0.617985	0.009044	0.372511
	C123	C	0.375164	0.991124	0.372286
	C124	C	0.620052	0.378050	0.001449
	C125	C	0.620505	0.620437	0.983835
	C126	C	0.377178	0.619386	0.001427
	C127	C	0.375954	0.377366	0.984005
	C128	C	0.006945	0.625301	0.367979
	C129	C	0.990353	0.621980	0.613284
	C130	C	0.007932	0.378540	0.614621
	C131	C	0.990544	0.380437	0.370905
	C132	C	0.876952	0.509065	0.112690
	C133	C	0.120537	0.491298	0.114307
	C134	C	0.119866	0.508785	0.871541
	C135	C	0.876698	0.490685	0.869891
	C136	C	0.118087	0.880851	0.500955
	C137	C	0.119807	0.122845	0.483158
	C138	C	0.875628	0.122767	0.500874
	C139	C	0.874848	0.880021	0.483557
	C140	C	0.506269	0.122223	0.870591
	C141	C	0.490111	0.119983	0.114636
	C142	C	0.506800	0.875427	0.117305
	C143	C	0.490347	0.877863	0.872206
	C144	C	0.378113	0.884162	0.670108
	C145	C	0.616947	0.115556	0.669261
	C146	C	0.615082	0.883795	0.319778
	C147	C	0.378318	0.114830	0.315011
	C148	C	0.674560	0.379874	0.877155
	C149	C	0.676904	0.617928	0.107173
	C150	C	0.321431	0.619660	0.877798
	C151	C	0.321019	0.377520	0.107809
	C152	C	0.883527	0.678883	0.370890
	C153	C	0.113188	0.677735	0.609809
	C154	C	0.885080	0.322797	0.612067
	C155	C	0.113352	0.324533	0.373262
	C156	C	0.885365	0.379529	0.669883
	C157	C	0.113241	0.621078	0.669298
	C158	C	0.884087	0.621649	0.312720
	C159	C	0.113942	0.383579	0.316898
	C160	C	0.380161	0.676215	0.877656
	C161	C	0.617746	0.672885	0.108508
	C162	C	0.616183	0.324227	0.876856
	C163	C	0.380757	0.322486	0.108891
	C164	C	0.674631	0.885763	0.373509
	C165	C	0.675397	0.115268	0.613420
	C166	C	0.318899	0.885103	0.613948
	C167	C	0.320693	0.115423	0.371624
	C168	C	0.880756	0.384787	0.169390
	C169	C	0.118033	0.616453	0.166609
	C170	C	0.117123	0.384515	0.816491
	C171	C	0.880302	0.615230	0.814806
	C172	C	0.173482	0.882537	0.377418
	C173	C	0.175483	0.121144	0.607010
	C174	C	0.819295	0.122595	0.377234
	C175	C	0.820354	0.880152	0.607434
	C176	C	0.383284	0.177113	0.872811
	C177	C	0.613210	0.175277	0.112525
	C178	C	0.384249	0.818694	0.114800
	C179	C	0.613509	0.822752	0.874814
	C180	C	0.383900	0.877195	0.171729
	C181	C	0.613020	0.117479	0.170542
	C182	C	0.383031	0.119112	0.815002
	C183	C	0.612756	0.880124	0.816206
	C184	C	0.878202	0.179210	0.376797
	C185	C	0.116761	0.176107	0.607579
	C186	C	0.113712	0.828181	0.376040
	C187	C	0.878074	0.822925	0.607169
	C188	C	0.174946	0.384612	0.872787
	C189	C	0.177255	0.614914	0.111946
	C190	C	0.822665	0.384151	0.112050
	C191	C	0.821394	0.614373	0.870486
	C192	C	0.398228	0.095367	0.591238
	C193	C	0.596798	0.904815	0.591652
	C194	C	0.595869	0.095499	0.394089
	C195	C	0.396170	0.904522	0.396091
	C196	C	0.599025	0.399935	0.087925
	C197	C	0.597842	0.598802	0.897125
	C198	C	0.399667	0.595331	0.087913
	C199	C	0.397327	0.400201	0.897590
	C200	C	0.093268	0.604109	0.390172
	C201	C	0.904729	0.598765	0.590797
	C202	C	0.093563	0.400895	0.592466
	C203	C	0.905239	0.403201	0.393085
	C204	C	0.898607	0.595725	0.089391
	C205	C	0.097497	0.404588	0.092782
	C206	C	0.098278	0.595297	0.894089
	C207	C	0.898303	0.403941	0.892685
	C208	C	0.096069	0.902625	0.587354
	C209	C	0.097839	0.101148	0.396468
	C210	C	0.897840	0.099510	0.587076
	C211	C	0.896561	0.904009	0.397395
	C212	C	0.592090	0.100167	0.892783
	C213	C	0.404592	0.097720	0.091916
	C214	C	0.592648	0.897799	0.095650
	C215	C	0.404771	0.899985	0.894932
	Zn216	Zn	0.498021	-0.000494	0.741976
	Zn217	Zn	0.497599	-0.001508	0.245455
	Zn218	Zn	0.748256	0.498833	-0.008746
	Zn219	Zn	0.247392	0.498776	-0.007194
	Zn220	Zn	-0.002631	0.752256	0.491530
	Zn221	Zn	-0.001097	0.250402	0.492461
	Zn222	Zn	-0.000493	0.499678	0.743046
	Zn223	Zn	-0.000673	0.501847	0.241188
	Zn224	Zn	0.499025	0.748066	-0.006086
	Zn225	Zn	0.498653	0.250194	-0.006907
	Zn226	Zn	0.746392	0.001054	0.492559
	Zn227	Zn	0.246765	0.001165	0.492859
	N228	N	0.412550	0.962068	0.670305
	N229	N	0.582797	0.037367	0.669963
	N230	N	0.580698	0.961552	0.318702
	N231	N	0.411158	0.036399	0.314900
	N232	N	0.677105	0.412692	0.955461
	N233	N	0.678654	0.585992	0.028454
	N234	N	0.319504	0.585192	0.955841
	N235	N	0.318065	0.411008	0.029346
	N236	N	0.961044	0.681215	0.404477
	N237	N	0.035805	0.678442	0.575703
	N238	N	0.962343	0.322050	0.578298
	N239	N	0.035786	0.322527	0.406373
	N240	N	0.962638	0.413486	0.671537
	N241	N	0.035693	0.587199	0.671713
	N242	N	0.961945	0.589084	0.310936
	N243	N	0.036660	0.417609	0.315155
	N244	N	0.414164	0.676008	0.955733
	N245	N	0.583404	0.674555	0.030875
	N246	N	0.582964	0.322953	0.954999
	N247	N	0.414243	0.322046	0.031067
	N248	N	0.676550	0.964412	0.405707
	N249	N	0.676977	0.037118	0.580154
	N250	N	0.317456	0.963580	0.579962
	N251	N	0.318636	0.037664	0.406767
	N252	N	0.913545	0.463545	0.170231
	N253	N	0.083425	0.538576	0.168082
	N254	N	0.083379	0.462521	0.815645
	N255	N	0.913840	0.537211	0.814231
	N256	N	0.176316	0.914488	0.456135
	N257	N	0.177482	0.088766	0.528612
	N258	N	0.817532	0.088420	0.455327
	N259	N	0.818364	0.914924	0.529501
	N260	N	0.460789	0.179266	0.906414
	N261	N	0.535774	0.177021	0.078549
	N262	N	0.461794	0.817248	0.081831
	N263	N	0.536314	0.821307	0.908876
	N264	N	0.461043	0.911598	0.173604
	N265	N	0.535595	0.083786	0.172149
	N266	N	0.460548	0.085619	0.813499
	N267	N	0.535259	0.913572	0.814412
	N268	N	0.912540	0.179577	0.454706
	N269	N	0.082882	0.177391	0.529478
	N270	N	0.079936	0.826921	0.453820
	N271	N	0.911222	0.822593	0.529011
	N272	N	0.176783	0.462867	0.906285
	N273	N	0.179006	0.536046	0.080437
	N274	N	0.820304	0.462297	0.077627
	N275	N	0.818900	0.535777	0.903985
	O276	O	0.003394	-0.043341	-0.054741
	H277	H	0.010736	-0.033502	-0.054497
	H278	H	0.003226	-0.041934	-0.038541
	O279	O	0.396621	0.510215	0.443382
	H280	H	0.394232	0.506509	0.432486
	H281	H	0.385849	0.506891	0.449762
	O282	O	0.507117	0.449920	0.539981
	H283	H	0.516631	0.445520	0.552479
	H284	H	0.504321	0.436063	0.540933
	O285	O	0.085921	1.045792	1.031691
	H286	H	0.083936	1.050906	1.034051
	H287	H	0.084605	1.043949	1.041872
	O288	O	0.521897	0.547507	0.526397
	H289	H	0.526570	0.545404	0.524409
	H290	H	0.526135	0.554019	0.523521
	O291	O	1.005677	1.035495	1.019038
	H292	H	1.008433	1.032704	1.000496
	H293	H	1.006627	1.046006	1.029563
	O294	O	1.016694	1.001226	1.024693
	H295	H	1.021678	1.002152	1.034828
	H296	H	1.008941	1.003941	1.023597
	O297	O	0.879383	0.041868	0.976258
	H298	H	0.865968	0.036406	0.970341
	H299	H	0.876580	0.036188	0.975489
	O300	O	0.481574	0.457870	0.543766
	H301	H	0.481050	0.460103	0.543694
	H302	H	0.492862	0.470216	0.548236
	O303	O	0.907847	-0.004467	-0.015888
	H304	H	0.909095	-0.004003	-0.021148
	H305	H	0.901191	-0.009286	-0.014351
	O306	O	-0.076802	1.028939	0.914332
	H307	H	-0.076166	1.032266	0.909702
	H308	H	-0.063392	1.019306	0.912667
	O309	O	0.514696	0.463247	0.447722
	H310	H	0.520072	0.466622	0.452683
	H311	H	0.514101	0.473453	0.447518
	O312	O	0.988868	0.001734	1.066038
	H313	H	0.997647	0.010531	1.068641
	H314	H	0.990283	0.002233	1.059146
	O315	O	0.536227	0.538506	0.538653
	H316	H	0.528848	0.543151	0.541605
	H317	H	0.534542	0.531638	0.536047
	O318	O	0.505608	0.576452	0.482673
	H319	H	0.503337	0.583700	0.479297
	H320	H	0.503009	0.573925	0.481967
	O321	O	1.050921	0.923320	1.041588
	H322	H	1.046480	0.925538	1.037332
	H323	H	1.040852	0.927782	1.033868
	O324	O	0.430282	0.482942	0.470918
	H325	H	0.434468	0.480674	0.485544
	H326	H	0.418587	0.481367	0.467721
	O327	O	0.556733	0.482930	0.529421
	H328	H	0.552299	0.481830	0.522867
	H329	H	0.564796	0.463239	0.534040
	O330	O	0.916696	-0.015294	0.887287
	H331	H	0.917699	-0.031175	0.887087
	H332	H	0.922709	-0.015545	0.890444
	O333	O	0.989829	0.969410	0.022898
	H334	H	0.999142	0.975166	0.028674
	H335	H	0.991719	0.966112	0.023821
	O336	O	0.100232	0.972292	1.061263
	H337	H	0.097336	0.976248	1.062270
	H338	H	0.098899	0.968075	1.058129
	O339	O	0.564843	0.509013	0.449487
	H340	H	0.572165	0.506677	0.449019
	H341	H	0.562941	0.504869	0.449874
	O342	O	0.201937	0.877492	0.191258
	H343	H	0.202875	0.877681	0.191209
	H344	H	0.199991	0.875062	0.198283
	O345	O	-0.086191	-0.012559	0.007651
	H346	H	-0.087010	-0.011426	-0.002779
	H347	H	-0.083984	-0.019667	0.000324
	O348	O	0.487120	0.526643	0.526075
	H349	H	0.491503	0.519615	0.527542
	H350	H	0.480352	0.535738	0.516558
	O351	O	0.512064	0.437561	0.455585
	H352	H	0.513623	0.433387	0.459281
	H353	H	0.514493	0.444747	0.453648
	O354	O	0.503298	0.543255	0.523775
	H355	H	0.501088	0.547015	0.523499
	H356	H	0.495677	0.546216	0.520432
	O357	O	0.607371	0.451511	0.448492
	H358	H	0.615911	0.451108	0.439771
	H359	H	0.606502	0.455583	0.440180
	O360	O	0.005509	0.016470	-0.087645
	H361	H	-0.011752	0.016645	-0.082984
	H362	H	0.005449	0.019448	-0.086209
	O363	O	0.466928	0.482858	0.481828
	H364	H	0.468157	0.494951	0.490817
	H365	H	0.475957	0.475630	0.479159
	O366	O	0.093473	0.028661	1.002683
	H367	H	0.101558	0.040804	1.003799
	H368	H	0.089764	0.022515	1.006806
	O369	O	0.586135	0.495946	0.495405
	H370	H	0.580454	0.490182	0.492869
	H371	H	0.585324	0.495770	0.493221
