data_Molecule from HDF5

_cell_length_a		16.749422
_cell_length_b		16.548638
_cell_length_c		16.611093
_cell_angle_alpha	89.984180
_cell_angle_beta	89.951255
_cell_angle_gamma	89.815557
_symmetry_space_group_name_H-M	'P 1'
_symmetry_Int_Tables_number		1

loop_
	_symmetry_equiv_pos_as_xyz
	x,y,z

loop_
	_atom_site_label
	_atom_site_type_symbol
	_atom_site_fract_x
	_atom_site_fract_y
	_atom_site_fract_z
	H0	H	0.372406	0.843112	0.726091
	H1	H	0.578786	0.155357	0.728239
	H2	H	0.580033	0.846516	0.285590
	H3	H	0.369614	0.157089	0.286282
	H4	H	0.694380	0.398479	0.850202
	H5	H	0.694568	0.604749	0.163532
	H6	H	0.253070	0.608170	0.853164
	H7	H	0.247786	0.387483	0.158022
	H8	H	0.821565	0.725942	0.399389
	H9	H	0.130052	0.721395	0.612902
	H10	H	0.817762	0.283949	0.608447
	H11	H	0.129792	0.281014	0.404374
	H12	H	0.818130	0.401190	0.724685
	H13	H	0.128224	0.608079	0.731281
	H14	H	0.821156	0.609042	0.283889
	H15	H	0.128068	0.393824	0.284444
	H16	H	0.370649	0.721798	0.852023
	H17	H	0.578279	0.720580	0.163883
	H18	H	0.576797	0.284009	0.849073
	H19	H	0.367974	0.276109	0.160019
	H20	H	0.698166	0.847481	0.398773
	H21	H	0.697021	0.154621	0.614756
	H22	H	0.255469	0.843491	0.611153
	H23	H	0.252888	0.156736	0.401566
	H24	H	0.871930	0.343932	0.226642
	H25	H	0.082779	0.654617	0.231658
	H26	H	0.080789	0.343960	0.786529
	H27	H	0.875058	0.658560	0.791182
	H28	H	0.195463	0.894465	0.351135
	H29	H	0.191046	0.100836	0.664768
	H30	H	0.749532	0.111082	0.354410
	H31	H	0.752277	0.893665	0.661844
	H32	H	0.322728	0.225549	0.900869
	H33	H	0.630959	0.221621	0.111995
	H34	H	0.323752	0.775520	0.117231
	H35	H	0.629684	0.778521	0.901717
	H36	H	0.322731	0.892654	0.232528
	H37	H	0.626976	0.110163	0.232800
	H38	H	0.321345	0.108928	0.784385
	H39	H	0.628731	0.894233	0.784384
	H40	H	0.868147	0.222370	0.351928
	H41	H	0.073389	0.216314	0.665655
	H42	H	0.078304	0.779855	0.350896
	H43	H	0.870482	0.779564	0.662611
	H44	H	0.199999	0.346332	0.898766
	H45	H	0.199523	0.654178	0.116860
	H46	H	0.756002	0.343979	0.111910
	H47	H	0.756656	0.657711	0.905137
	H48	H	0.381323	0.114436	0.599158
	H49	H	0.566012	0.886406	0.598385
	H50	H	0.564699	0.112425	0.424447
	H51	H	0.382156	0.886665	0.416445
	H52	H	0.565030	0.413992	0.117968
	H53	H	0.564460	0.586488	0.895978
	H54	H	0.381244	0.591618	0.122203
	H55	H	0.390749	0.419475	0.899254
	H56	H	0.083886	0.585830	0.420365
	H57	H	0.866901	0.585135	0.597703
	H58	H	0.087594	0.411110	0.603192
	H59	H	0.864851	0.413320	0.418874
	H60	H	0.087966	0.404101	0.598836
	H61	H	0.862006	0.592757	0.603524
	H62	H	0.083635	0.587734	0.419790
	H63	H	0.862115	0.412367	0.412648
	H64	H	0.385133	0.580022	0.116772
	H65	H	0.564102	0.594253	0.895452
	H66	H	0.564886	0.406443	0.120370
	H67	H	0.391975	0.413900	0.897720
	H68	H	0.562750	0.114458	0.417169
	H69	H	0.558735	0.889882	0.594641
	H70	H	0.385099	0.112601	0.596506
	H71	H	0.388484	0.888740	0.416812
	H72	H	0.880613	0.614950	0.093478
	H73	H	0.060942	0.391849	0.091575
	H74	H	0.064003	0.609840	0.923320
	H75	H	0.883195	0.387155	0.917533
	H76	H	0.070048	0.914788	0.619028
	H77	H	0.065022	0.091671	0.393824
	H78	H	0.877034	0.089180	0.621549
	H79	H	0.890630	0.914687	0.397640
	H80	H	0.584277	0.089743	0.922402
	H81	H	0.364661	0.086941	0.100690
	H82	H	0.583557	0.915162	0.093122
	H83	H	0.363277	0.911238	0.914895
	H84	H	0.584717	0.914764	0.096995
	H85	H	0.364774	0.096276	0.093038
	H86	H	0.586754	0.084773	0.911895
	H87	H	0.364574	0.909530	0.920753
	H88	H	0.888451	0.083161	0.615435
	H89	H	0.067044	0.090035	0.394905
	H90	H	0.060480	0.911569	0.617092
	H91	H	0.885123	0.913596	0.396184
	H92	H	0.066270	0.613048	0.918165
	H93	H	0.062884	0.391281	0.092233
	H94	H	0.884443	0.613884	0.100534
	H95	H	0.883375	0.386445	0.916038
	H96	H	0.380596	0.113119	0.594326
	H97	H	0.565976	0.888829	0.589168
	H98	H	0.557225	0.110724	0.422022
	H99	H	0.384428	0.889418	0.422201
	H100	H	0.571503	0.410998	0.121888
	H101	H	0.570523	0.590708	0.893226
	H102	H	0.393485	0.590372	0.117324
	H103	H	0.386537	0.416574	0.896787
	H104	H	0.082909	0.586797	0.421050
	H105	H	0.864474	0.594645	0.593344
	H106	H	0.085060	0.410773	0.595199
	H107	H	0.861625	0.407579	0.417710
	H108	H	0.887063	0.610808	0.093732
	H109	H	0.061490	0.390341	0.093585
	H110	H	0.059944	0.611024	0.918378
	H111	H	0.885074	0.387215	0.916829
	H112	H	0.066876	0.905192	0.621860
	H113	H	0.064608	0.089441	0.395418
	H114	H	0.888570	0.096860	0.619441
	H115	H	0.886442	0.919413	0.398025
	H116	H	0.589039	0.096607	0.913567
	H117	H	0.369093	0.085542	0.089961
	H118	H	0.585471	0.912022	0.094671
	H119	H	0.365735	0.915908	0.918737
	C120	C	0.352672	0.008970	0.628130
	C121	C	0.595732	0.991162	0.627810
	C122	C	0.595022	0.010132	0.387404
	C123	C	0.353093	0.991629	0.385974
	C124	C	0.597031	0.379813	0.015750
	C125	C	0.596653	0.621844	0.998807
	C126	C	0.354140	0.621188	0.016224
	C127	C	0.355153	0.380770	0.998738
	C128	C	-0.017565	0.621443	0.386401
	C129	C	0.966631	0.622694	0.629831
	C130	C	-0.017117	0.379429	0.628832
	C131	C	0.965481	0.378773	0.385072
	C132	C	0.853328	0.509685	0.128093
	C133	C	0.095715	0.492639	0.127409
	C134	C	0.096444	0.508786	0.886245
	C135	C	0.853938	0.491636	0.886498
	C136	C	0.097092	0.878144	0.515976
	C137	C	0.095069	0.121010	0.498851
	C138	C	0.852289	0.122564	0.516231
	C139	C	0.854700	0.881648	0.499244
	C140	C	0.484400	0.123273	0.883940
	C141	C	0.467475	0.122527	0.128047
	C142	C	0.483424	0.880244	0.128548
	C143	C	0.466532	0.879221	0.885638
	C144	C	0.353158	0.890445	0.686547
	C145	C	0.597800	0.108461	0.688601
	C146	C	0.598178	0.893332	0.326113
	C147	C	0.350995	0.110052	0.326262
	C148	C	0.654935	0.379381	0.897210
	C149	C	0.655021	0.623344	0.116698
	C150	C	0.293431	0.625495	0.899690
	C151	C	0.290641	0.372565	0.112804
	C152	C	0.867600	0.684497	0.382164
	C153	C	0.082970	0.682185	0.631639
	C154	C	0.864706	0.323233	0.627705
	C155	C	0.082533	0.319728	0.384701
	C156	C	0.864740	0.381267	0.685495
	C157	C	0.082319	0.625722	0.690653
	C158	C	0.867299	0.626310	0.324642
	C159	C	0.081961	0.376139	0.325247
	C160	C	0.351893	0.682137	0.899215
	C161	C	0.596730	0.680529	0.116892
	C162	C	0.596786	0.322451	0.896804
	C163	C	0.350250	0.316959	0.113702
	C164	C	0.657206	0.893903	0.382076
	C165	C	0.656209	0.108200	0.631971
	C166	C	0.295058	0.890581	0.629413
	C167	C	0.292913	0.109633	0.383372
	C168	C	0.853209	0.391158	0.186843
	C169	C	0.099938	0.608458	0.190383
	C170	C	0.099424	0.391349	0.825874
	C171	C	0.855000	0.610937	0.829760
	C172	C	0.155990	0.875919	0.398272
	C173	C	0.151857	0.120211	0.617695
	C174	C	0.790931	0.127199	0.400339
	C175	C	0.793337	0.876859	0.615596
	C176	C	0.368563	0.184540	0.882353
	C177	C	0.583879	0.182448	0.130945
	C178	C	0.369188	0.817345	0.133704
	C179	C	0.582959	0.818626	0.883068
	C180	C	0.368833	0.875546	0.191242
	C181	C	0.582138	0.126730	0.190626
	C182	C	0.368079	0.126623	0.824311
	C183	C	0.582570	0.876130	0.824919
	C184	C	0.849853	0.183056	0.399230
	C185	C	0.093600	0.177705	0.618119
	C186	C	0.097647	0.819169	0.398022
	C187	C	0.852071	0.820148	0.615903
	C188	C	0.158513	0.392462	0.881815
	C189	C	0.157909	0.608318	0.133157
	C190	C	0.795208	0.391221	0.130028
	C191	C	0.796256	0.610573	0.886315
	C192	C	0.375883	0.091940	0.603668
	C193	C	0.570704	0.909664	0.601739
	C194	C	0.568894	0.091354	0.413801
	C195	C	0.377979	0.909772	0.411127
	C196	C	0.573780	0.403521	0.098367
	C197	C	0.573067	0.597460	0.916342
	C198	C	0.379546	0.594755	0.097620
	C199	C	0.382143	0.408884	0.918634
	C200	C	0.062452	0.594390	0.412841
	C201	C	0.885524	0.597731	0.605022
	C202	C	0.065217	0.402090	0.605770
	C203	C	0.884129	0.403811	0.409453
	C204	C	0.877235	0.591880	0.103139
	C205	C	0.069092	0.412053	0.100157
	C206	C	0.070695	0.590003	0.912484
	C207	C	0.877260	0.408638	0.910105
	C208	C	0.072841	0.903250	0.597999
	C209	C	0.072104	0.097432	0.416159
	C210	C	0.877463	0.097051	0.597687
	C211	C	0.880091	0.908424	0.418363
	C212	C	0.565638	0.097650	0.908834
	C213	C	0.387046	0.096927	0.101972
	C214	C	0.563820	0.906648	0.102262
	C215	C	0.385870	0.904834	0.911019
	Zn216	Zn	0.473881	0.000200	0.755777
	Zn217	Zn	0.474779	0.001863	0.257990
	Zn218	Zn	0.725143	0.500557	0.007569
	Zn219	Zn	0.225244	0.500412	0.007124
	Zn220	Zn	-0.025108	0.751092	0.507530
	Zn221	Zn	-0.025877	0.250027	0.507259
	Zn222	Zn	-0.024623	0.500739	0.757948
	Zn223	Zn	-0.025534	0.500881	0.256289
	Zn224	Zn	0.475354	0.750198	0.007415
	Zn225	Zn	0.476342	0.251537	0.006953
	Zn226	Zn	0.724339	0.001146	0.506906
	Zn227	Zn	0.224698	-0.000115	0.506675
	N228	N	0.388028	0.965426	0.686022
	N229	N	0.560836	0.034648	0.686233
	N230	N	0.560275	0.966883	0.328973
	N231	N	0.387608	0.035730	0.327638
	N232	N	0.655784	0.413958	0.972445
	N233	N	0.655174	0.587556	0.042104
	N234	N	0.294234	0.588621	0.973745
	N235	N	0.293754	0.411846	0.040244
	N236	N	0.940159	0.681559	0.420024
	N237	N	0.009798	0.680864	0.594809
	N238	N	0.939282	0.321713	0.593435
	N239	N	0.009019	0.320896	0.420907
	N240	N	0.939529	0.415056	0.686875
	N241	N	0.008743	0.589367	0.689729
	N242	N	0.939850	0.587728	0.326868
	N243	N	0.007902	0.411809	0.324910
	N244	N	0.388855	0.679867	0.972929
	N245	N	0.561472	0.679913	0.042329
	N246	N	0.561914	0.322215	0.971638
	N247	N	0.389891	0.321891	0.041702
	N248	N	0.655388	0.967594	0.419493
	N249	N	0.655120	0.034262	0.594876
	N250	N	0.294372	0.965523	0.594019
	N251	N	0.293669	0.034978	0.419612
	N252	N	0.888789	0.465793	0.185781
	N253	N	0.061854	0.535401	0.187044
	N254	N	0.061373	0.464920	0.828320
	N255	N	0.890082	0.535905	0.829545
	N256	N	0.155697	0.912056	0.472608
	N257	N	0.153415	0.086007	0.542231
	N258	N	0.792199	0.090202	0.474129
	N259	N	0.794714	0.914296	0.542020
	N260	N	0.441928	0.182349	0.918771
	N261	N	0.511451	0.180188	0.092525
	N262	N	0.441500	0.820348	0.095167
	N263	N	0.509649	0.820092	0.920080
	N264	N	0.441171	0.914168	0.188251
	N265	N	0.508693	0.090237	0.189114
	N266	N	0.441310	0.089059	0.825076
	N267	N	0.509234	0.913315	0.826411
	N268	N	0.887538	0.180438	0.472480
	N269	N	0.059234	0.178526	0.543135
	N270	N	0.061804	0.820281	0.472437
	N271	N	0.889717	0.822862	0.542507
	N272	N	0.156846	0.466510	0.918663
	N273	N	0.155600	0.535139	0.094670
	N274	N	0.794971	0.465976	0.094091
	N275	N	0.795180	0.535232	0.920719
	O276	O	0.415574	1.312200	0.300097
	H277	H	0.415183	1.325061	0.306138
	H278	H	0.431683	1.308678	0.300081
	O279	O	-0.040071	-0.201114	0.221065
	H280	H	-0.024427	-0.197493	0.198597
	H281	H	-0.034275	-0.216627	0.247905
	O282	O	1.218588	0.002977	1.005866
	H283	H	1.221908	0.006403	1.016969
	H284	H	1.217871	-0.007940	1.021972
	O285	O	0.453924	0.709724	0.296051
	H286	H	0.448209	0.715768	0.305801
	H287	H	0.441936	0.711493	0.283004
	O288	O	0.940610	0.896971	-0.217760
	H289	H	0.946984	0.903265	-0.200270
	H290	H	0.933804	0.903717	-0.228830
	O291	O	0.256471	0.519654	0.283966
	H292	H	0.249433	0.516604	0.289071
	H293	H	0.245875	0.515977	0.277570
	O294	O	1.575772	0.318430	0.363314
	H295	H	1.564799	0.333597	0.367007
	H296	H	1.570368	0.317126	0.374122
	O297	O	0.933300	0.029187	0.004673
	H298	H	0.933428	0.028469	0.006439
	H299	H	0.936256	0.042967	0.020842
	O300	O	0.185823	0.209082	1.143775
	H301	H	0.188848	0.192070	1.147596
	H302	H	0.184880	0.195440	1.126783
	O303	O	0.257786	0.527643	0.567228
	H304	H	0.256524	0.526572	0.573270
	H305	H	0.259259	0.507915	0.590930
	O306	O	0.692781	0.551912	0.726378
	H307	H	0.706895	0.543478	0.747821
	H308	H	0.695552	0.580725	0.728700
	O309	O	0.293445	0.516812	0.397811
	H310	H	0.299279	0.515971	0.410772
	H311	H	0.294023	0.499045	0.412437
	O312	O	0.265957	0.715744	0.461262
	H313	H	0.261737	0.708951	0.479016
	H314	H	0.254230	0.720781	0.471034
	O315	O	0.754213	1.041433	0.789858
	H316	H	0.745530	1.019818	0.799156
	H317	H	0.740901	1.025718	0.785936
	O318	O	0.483781	0.614466	0.548284
	H319	H	0.493756	0.624294	0.551551
	H320	H	0.471896	0.614623	0.558852
	O321	O	0.458230	0.500737	0.555639
	H322	H	0.446555	0.483474	0.561222
	H323	H	0.456988	0.509771	0.556668
	O324	O	1.188060	0.790753	-0.203852
	H325	H	1.151559	0.795047	-0.191026
	H326	H	1.192072	0.826399	-0.189498
	O327	O	0.243211	0.268812	1.271270
	H328	H	0.234474	0.247181	1.252520
	H329	H	0.242906	0.278766	1.273400
	O330	O	0.497447	0.634703	0.488650
	H331	H	0.502898	0.647203	0.494790
	H332	H	0.494142	0.627244	0.488678
	O333	O	0.751171	0.222844	-0.026591
	H334	H	0.732590	0.234879	-0.048263
	H335	H	0.743507	0.235478	-0.055749
	O336	O	0.442532	0.283938	0.720100
	H337	H	0.459523	0.272878	0.709100
	H338	H	0.454618	0.266839	0.719550
	O339	O	1.286953	-0.314029	0.695848
	H340	H	1.258764	-0.291047	0.719589
	H341	H	1.284676	-0.328624	0.689906
	O342	O	0.201449	-0.038427	-0.209457
	H343	H	0.190789	-0.027330	-0.221653
	H344	H	0.214347	-0.036714	-0.222267
	O345	O	-0.314201	0.214861	1.220056
	H346	H	-0.309865	0.200363	1.211932
	H347	H	-0.324848	0.215956	1.220893
	O348	O	-0.206991	0.185860	-0.167990
	H349	H	-0.239149	0.209152	-0.199005
	H350	H	-0.212267	0.138053	-0.179888
	O351	O	1.600479	0.573480	-0.606482
	H352	H	1.592349	0.583501	-0.596638
	H353	H	1.605011	0.571757	-0.613990
	O354	O	0.127332	0.146382	1.050065
	H355	H	0.113543	0.139796	1.054666
	H356	H	0.136736	0.150335	1.046513
	O357	O	1.010744	0.222326	0.230534
	H358	H	1.013199	0.258576	0.261652
	H359	H	1.025402	0.221399	0.208739
	O360	O	0.200593	0.032924	1.226982
	H361	H	0.212766	0.023613	1.239866
	H362	H	0.193289	0.025040	1.239882
	O363	O	-0.243719	0.108318	0.108062
	H364	H	-0.241421	0.111685	0.105839
	H365	H	-0.240305	0.107567	0.110782
	O366	O	0.666316	0.689624	0.321231
	H367	H	0.644877	0.680966	0.343822
	H368	H	0.651068	0.675337	0.323409
	O369	O	0.426065	0.433734	0.290446
	H370	H	0.413503	0.441890	0.299621
	H371	H	0.434327	0.419302	0.285676
	O372	O	0.833666	1.018571	-0.055972
	H373	H	0.821870	1.017084	-0.042943
	H374	H	0.832869	1.021708	-0.046426
	O375	O	0.914585	-0.016199	0.196951
	H376	H	0.906719	0.002057	0.185792
	H377	H	0.927438	-0.004004	0.191188
	O378	O	0.755834	0.791757	0.212551
	H379	H	0.732653	0.771401	0.244462
	H380	H	0.802204	0.796963	0.221183
	O381	O	0.199036	0.779504	0.982011
	H382	H	0.230620	0.746766	0.978226
	H383	H	0.178740	0.794017	0.977713
	O384	O	0.902721	0.227333	0.783810
	H385	H	0.863234	0.212090	0.790017
	H386	H	0.890685	0.261309	0.750350
	O387	O	1.027325	0.829105	0.112745
	H388	H	1.028685	0.842848	0.107186
	H389	H	1.029969	0.830067	0.110553
	O390	O	0.747796	0.783963	0.042799
	H391	H	0.724204	0.759007	0.061379
	H392	H	0.750131	0.783636	0.076974
	O393	O	0.546907	0.356717	0.482831
	H394	H	0.556647	0.362805	0.478466
	H395	H	0.546519	0.366928	0.468914
	O396	O	-0.251793	0.995794	0.987383
	H397	H	-0.249947	0.987573	0.996227
	H398	H	-0.255196	1.009549	1.002853
	O399	O	-0.093795	0.138842	0.960429
	H400	H	-0.084982	0.137919	0.966426
	H401	H	-0.111233	0.143619	0.951281
	O402	O	0.038640	0.039768	0.782585
	H403	H	0.024300	0.055160	0.782446
	H404	H	0.025028	0.039318	0.790215
	O405	O	1.296118	0.465309	0.681412
	H406	H	1.300120	0.438236	0.681418
	H407	H	1.288644	0.453790	0.699810
	O408	O	-0.015702	0.019611	0.045420
	H409	H	-0.012602	0.023337	0.034920
	H410	H	-0.028932	0.023057	0.042062
	O411	O	0.750819	0.979326	1.222747
	H412	H	0.742885	0.965032	1.237772
	H413	H	0.756006	0.957810	1.229416
	O414	O	0.268920	0.708681	0.295969
	H415	H	0.267808	0.676763	0.311837
	H416	H	0.287320	0.703895	0.322302
	O417	O	0.684133	0.286495	0.491569
	H418	H	0.698309	0.296491	0.485298
	H419	H	0.690638	0.280699	0.484133
	O420	O	0.244961	0.273244	0.544226
	H421	H	0.251309	0.281721	0.595648
	H422	H	0.208635	0.235727	0.545042
	O423	O	-0.044881	0.172886	1.014553
	H424	H	-0.055824	0.176939	1.031664
	H425	H	-0.052858	0.190949	1.014132
	O426	O	0.694089	0.717706	0.534700
	H427	H	0.696971	0.725608	0.547405
	H428	H	0.697130	0.731815	0.549210
	O429	O	0.918365	0.845173	1.053944
	H430	H	0.938190	0.851099	1.059179
	H431	H	0.925519	0.829129	1.070320
	O432	O	0.693640	0.404296	0.292388
	H433	H	0.686232	0.404522	0.281555
	H434	H	0.712647	0.394050	0.274968
	O435	O	0.430129	0.572335	0.738572
	H436	H	0.427100	0.574297	0.739960
	H437	H	0.419347	0.582786	0.742091
	O438	O	0.257494	-0.713203	0.712005
	H439	H	0.245395	-0.734869	0.744427
	H440	H	0.291277	-0.715604	0.728617
	O441	O	0.101265	-0.025398	0.136830
	H442	H	0.083535	-0.030595	0.144322
	H443	H	0.088647	-0.028620	0.124243
	O444	O	0.463633	0.433279	0.661066
	H445	H	0.469808	0.423614	0.655284
	H446	H	0.471092	0.440612	0.651318
	O447	O	0.047519	0.927150	1.077157
	H448	H	0.048448	0.940193	1.079600
	H449	H	0.052850	0.932356	1.070417
	O450	O	-0.213864	0.816105	0.818119
	H451	H	-0.200433	0.825660	0.846417
	H452	H	-0.194378	0.834736	0.834379
	O453	O	0.553775	0.339017	0.607745
	H454	H	0.536647	0.340969	0.591229
	H455	H	0.550440	0.342134	0.580138
	O456	O	-0.050879	-0.215236	0.965500
	H457	H	-0.056618	-0.206680	0.971688
	H458	H	-0.058407	-0.213927	0.977289
	O459	O	1.170442	1.189362	-0.176805
	H460	H	1.150762	1.169398	-0.159979
	H461	H	1.152613	1.176524	-0.153196
	O462	O	0.370866	0.704929	0.561004
	H463	H	0.379329	0.686854	0.571633
	H464	H	0.356145	0.710462	0.564451
	O465	O	1.166628	-0.185898	0.193116
	H466	H	1.169665	-0.196466	0.195938
	H467	H	1.187267	-0.192235	0.200284
	O468	O	0.327409	0.348326	0.459651
	H469	H	0.312665	0.343944	0.435531
	H470	H	0.312275	0.332477	0.466638
	O471	O	0.622466	0.530129	0.514041
	H472	H	0.612034	0.546723	0.506546
	H473	H	0.620151	0.544737	0.534104
	O474	O	0.691034	0.713884	0.717336
	H475	H	0.720730	0.746918	0.749286
	H476	H	0.670449	0.703843	0.702710
	O477	O	0.625798	0.481577	1.638834
	H478	H	0.611633	0.483768	1.640633
	H479	H	0.637687	0.495584	1.650761
	O480	O	0.685116	0.558314	0.429125
	H481	H	0.689918	0.553541	0.424543
	H482	H	0.689695	0.571332	0.438908
	O483	O	0.528948	0.539155	0.328175
	H484	H	0.516382	0.539807	0.319837
	H485	H	0.519840	0.536525	0.339022
	O486	O	0.667927	0.303250	0.699579
	H487	H	0.645620	0.317726	0.681831
	H488	H	0.651698	0.325459	0.678220
	O489	O	1.023502	0.829804	-0.166507
	H490	H	1.020157	0.828603	-0.165467
	H491	H	1.016093	0.837321	-0.168971
	O492	O	0.132968	0.021682	-0.034070
	H493	H	0.129034	0.021733	-0.039019
	H494	H	0.141614	0.005785	-0.033651
	O495	O	0.036977	1.217416	0.968986
	H496	H	0.029012	1.213955	0.969487
	H497	H	0.033175	1.225622	0.960792
	O498	O	1.432787	1.398932	1.463226
	H499	H	1.421961	1.411060	1.476035
	H500	H	1.441646	1.388151	1.452416
	O501	O	0.518451	0.715472	0.710564
	H502	H	0.522424	0.721368	0.708736
	H503	H	0.524724	0.714015	0.721356
