data_Molecule from HDF5

_cell_length_a		16.294802
_cell_length_b		16.211027
_cell_length_c		16.322308
_cell_angle_alpha	90.037072
_cell_angle_beta	90.033579
_cell_angle_gamma	90.006998
_symmetry_space_group_name_H-M	'P 1'
_symmetry_Int_Tables_number		1

loop_
	_symmetry_equiv_pos_as_xyz
	x,y,z

loop_
	_atom_site_label
	_atom_site_type_symbol
	_atom_site_fract_x
	_atom_site_fract_y
	_atom_site_fract_z
	H0	H	0.405630	0.830501	0.708314
	H1	H	0.601784	0.159057	0.708320
	H2	H	0.601271	0.830663	0.280676
	H3	H	0.406807	0.159950	0.281773
	H4	H	0.715979	0.397356	0.830556
	H5	H	0.718996	0.594266	0.157823
	H6	H	0.287837	0.594570	0.830966
	H7	H	0.288285	0.397043	0.157731
	H8	H	0.839667	0.708982	0.396598
	H9	H	0.167782	0.707576	0.590398
	H10	H	0.839275	0.281093	0.590933
	H11	H	0.167240	0.281731	0.397641
	H12	H	0.839159	0.396129	0.708442
	H13	H	0.166496	0.594384	0.709758
	H14	H	0.840058	0.595050	0.278670
	H15	H	0.166529	0.395409	0.279120
	H16	H	0.406773	0.708984	0.830683
	H17	H	0.600655	0.708891	0.158682
	H18	H	0.601484	0.279644	0.831686
	H19	H	0.405072	0.281327	0.158560
	H20	H	0.717904	0.830557	0.396130
	H21	H	0.716925	0.159363	0.592132
	H22	H	0.290076	0.830431	0.591863
	H23	H	0.289701	0.159273	0.396377
	H24	H	0.903590	0.330557	0.209003
	H25	H	0.101325	0.658484	0.208304
	H26	H	0.100737	0.330741	0.779906
	H27	H	0.904619	0.659026	0.780741
	H28	H	0.218230	0.895774	0.330997
	H29	H	0.217795	0.093761	0.658235
	H30	H	0.787875	0.094516	0.332105
	H31	H	0.789295	0.895713	0.657560
	H32	H	0.338686	0.208518	0.898281
	H33	H	0.667274	0.208448	0.091641
	H34	H	0.339443	0.781999	0.091442
	H35	H	0.667780	0.782188	0.897485
	H36	H	0.339601	0.896389	0.208890
	H37	H	0.666447	0.095051	0.210447
	H38	H	0.339224	0.093941	0.779850
	H39	H	0.666775	0.895406	0.779282
	H40	H	0.906770	0.207789	0.330591
	H41	H	0.101181	0.209562	0.657806
	H42	H	0.099805	0.781569	0.330001
	H43	H	0.906045	0.780177	0.657177
	H44	H	0.216836	0.330274	0.895307
	H45	H	0.216993	0.658685	0.093108
	H46	H	0.788391	0.329691	0.092723
	H47	H	0.789122	0.658486	0.896531
	H48	H	0.407490	0.113607	0.589063
	H49	H	0.597141	0.879785	0.581380
	H50	H	0.596593	0.114647	0.393757
	H51	H	0.411264	0.877797	0.400870
	H52	H	0.605717	0.399763	0.114575
	H53	H	0.597662	0.579589	0.880825
	H54	H	0.407168	0.580459	0.108693
	H55	H	0.404571	0.405503	0.878452
	H56	H	0.117956	0.585001	0.405107
	H57	H	0.889278	0.585037	0.581362
	H58	H	0.120617	0.398793	0.585608
	H59	H	0.889925	0.402506	0.410518
	H60	H	0.118230	0.405991	0.586286
	H61	H	0.885460	0.582332	0.594845
	H62	H	0.120247	0.584168	0.394519
	H63	H	0.887436	0.410735	0.394792
	H64	H	0.416456	0.590708	0.108459
	H65	H	0.589101	0.593217	0.879441
	H66	H	0.595208	0.410048	0.108932
	H67	H	0.414788	0.403280	0.880448
	H68	H	0.588030	0.108408	0.405606
	H69	H	0.602547	0.874667	0.591127
	H70	H	0.412839	0.112577	0.590551
	H71	H	0.410368	0.877697	0.402206
	H72	H	0.905409	0.611497	0.085012
	H73	H	0.103488	0.374029	0.091750
	H74	H	0.098812	0.612788	0.900179
	H75	H	0.912911	0.377326	0.899039
	H76	H	0.098668	0.902105	0.610741
	H77	H	0.086717	0.093879	0.379396
	H78	H	0.921575	0.089479	0.607856
	H79	H	0.922689	0.896620	0.380409
	H80	H	0.620838	0.097190	0.905098
	H81	H	0.382793	0.102950	0.085315
	H82	H	0.620035	0.901009	0.085887
	H83	H	0.387350	0.907832	0.894953
	H84	H	0.618616	0.905932	0.088177
	H85	H	0.392797	0.078202	0.078205
	H86	H	0.614804	0.079625	0.907675
	H87	H	0.384923	0.895531	0.900448
	H88	H	0.904324	0.097136	0.615299
	H89	H	0.106765	0.092554	0.373783
	H90	H	0.096833	0.900836	0.610279
	H91	H	0.899396	0.894600	0.372868
	H92	H	0.093764	0.611695	0.899277
	H93	H	0.087145	0.378893	0.091552
	H94	H	0.911476	0.612020	0.091642
	H95	H	0.907704	0.377685	0.903658
	H96	H	0.410683	0.111078	0.584984
	H97	H	0.590955	0.877849	0.591494
	H98	H	0.603076	0.112165	0.407130
	H99	H	0.409799	0.877464	0.400542
	H100	H	0.591098	0.395150	0.111175
	H101	H	0.604714	0.593083	0.875364
	H102	H	0.403758	0.592484	0.113043
	H103	H	0.408375	0.395510	0.875803
	H104	H	0.121723	0.593848	0.399472
	H105	H	0.884211	0.596158	0.589419
	H106	H	0.120714	0.402153	0.592482
	H107	H	0.882683	0.392832	0.396117
	H108	H	0.914009	0.608661	0.083592
	H109	H	0.096526	0.379993	0.077507
	H110	H	0.096067	0.611168	0.904303
	H111	H	0.906506	0.375905	0.897321
	H112	H	0.098483	0.900424	0.611180
	H113	H	0.097033	0.075971	0.381852
	H114	H	0.905203	0.077847	0.609631
	H115	H	0.907728	0.916251	0.381225
	H116	H	0.621564	0.084993	0.891047
	H117	H	0.384002	0.082833	0.103567
	H118	H	0.620797	0.902172	0.091332
	H119	H	0.390157	0.905191	0.907953
	C120	C	0.382223	0.003645	0.615955
	C121	C	0.624916	0.986291	0.615975
	C122	C	0.625006	0.003357	0.373388
	C123	C	0.382346	0.986524	0.373070
	C124	C	0.624764	0.373567	0.003099
	C125	C	0.625276	0.616950	0.986630
	C126	C	0.381226	0.616755	0.002234
	C127	C	0.381267	0.373233	0.986499
	C128	C	0.011392	0.616353	0.372026
	C129	C	0.994803	0.616201	0.616179
	C130	C	0.011592	0.373797	0.615931
	C131	C	0.994760	0.373187	0.372059
	C132	C	0.881331	0.502476	0.115378
	C133	C	0.124286	0.485897	0.115584
	C134	C	0.124450	0.503488	0.872977
	C135	C	0.881414	0.485799	0.872535
	C136	C	0.125709	0.872795	0.502512
	C137	C	0.125358	0.116550	0.486323
	C138	C	0.881739	0.116709	0.502939
	C139	C	0.881703	0.873471	0.485791
	C140	C	0.511078	0.116187	0.873142
	C141	C	0.494754	0.116791	0.116996
	C142	C	0.511546	0.874218	0.116563
	C143	C	0.495563	0.873881	0.872802
	C144	C	0.385056	0.879560	0.670681
	C145	C	0.622201	0.110237	0.670500
	C146	C	0.622498	0.879687	0.318285
	C147	C	0.385849	0.110617	0.319044
	C148	C	0.678706	0.376445	0.879497
	C149	C	0.680216	0.614145	0.109432
	C150	C	0.326449	0.614417	0.879469
	C151	C	0.326037	0.375993	0.109108
	C152	C	0.888444	0.671162	0.375821
	C153	C	0.118781	0.670193	0.611649
	C154	C	0.888122	0.318915	0.612251
	C155	C	0.118090	0.318668	0.375864
	C156	C	0.888073	0.376056	0.670304
	C157	C	0.118044	0.614205	0.671273
	C158	C	0.888639	0.614658	0.317040
	C159	C	0.117869	0.375521	0.317342
	C160	C	0.385122	0.671825	0.879508
	C161	C	0.621873	0.671402	0.109759
	C162	C	0.621811	0.317998	0.880204
	C163	C	0.384397	0.318835	0.109670
	C164	C	0.679896	0.879526	0.376016
	C165	C	0.679715	0.110227	0.613137
	C166	C	0.327781	0.879432	0.612843
	C167	C	0.327994	0.110342	0.376185
	C168	C	0.883032	0.379421	0.170959
	C169	C	0.121526	0.609682	0.170576
	C170	C	0.121739	0.379842	0.817667
	C171	C	0.883762	0.609667	0.818021
	C172	C	0.180526	0.875145	0.379801
	C173	C	0.180193	0.114217	0.609343
	C174	C	0.826431	0.114635	0.380398
	C175	C	0.826924	0.875286	0.608598
	C176	C	0.387611	0.170779	0.876975
	C177	C	0.618226	0.171271	0.112858
	C178	C	0.388375	0.819336	0.112915
	C179	C	0.618650	0.818991	0.875998
	C180	C	0.388419	0.876202	0.171178
	C181	C	0.617918	0.115127	0.172023
	C182	C	0.388040	0.114097	0.817993
	C183	C	0.618304	0.875631	0.817578
	C184	C	0.885453	0.170641	0.379607
	C185	C	0.122229	0.171814	0.609301
	C186	C	0.121599	0.818488	0.379251
	C187	C	0.885135	0.818100	0.608642
	C188	C	0.179340	0.379668	0.874986
	C189	C	0.178759	0.609863	0.113001
	C190	C	0.826445	0.378832	0.112573
	C191	C	0.826914	0.609634	0.875949
	C192	C	0.404090	0.090142	0.594603
	C193	C	0.603417	0.899844	0.594260
	C194	C	0.602596	0.089576	0.395772
	C195	C	0.404015	0.899786	0.394750
	C196	C	0.603633	0.395208	0.089220
	C197	C	0.603553	0.595176	0.900639
	C198	C	0.402767	0.594420	0.088042
	C199	C	0.402857	0.395001	0.900553
	C200	C	0.097861	0.594106	0.393429
	C201	C	0.908735	0.594431	0.594811
	C202	C	0.097543	0.395833	0.594409
	C203	C	0.908768	0.395637	0.393827
	C204	C	0.903777	0.588608	0.093116
	C205	C	0.102306	0.399838	0.093417
	C206	C	0.102715	0.589641	0.894879
	C207	C	0.902744	0.399244	0.893657
	C208	C	0.104366	0.894657	0.588660
	C209	C	0.103351	0.094013	0.400600
	C210	C	0.903788	0.094615	0.588843
	C211	C	0.903477	0.895850	0.400199
	C212	C	0.596948	0.093858	0.894864
	C213	C	0.408692	0.094493	0.095441
	C214	C	0.597739	0.896512	0.094953
	C215	C	0.409537	0.896253	0.894682
	Zn216	Zn	0.503377	-0.005093	0.743999
	Zn217	Zn	0.503307	-0.005284	0.245177
	Zn218	Zn	0.753514	0.494426	-0.005889
	Zn219	Zn	0.251949	0.494477	-0.005879
	Zn220	Zn	0.003418	0.744597	0.494325
	Zn221	Zn	0.003107	0.244998	0.494559
	Zn222	Zn	0.002913	0.494873	0.744735
	Zn223	Zn	0.002825	0.494574	0.243430
	Zn224	Zn	0.503522	0.746049	-0.005533
	Zn225	Zn	0.502923	0.244678	-0.004999
	Zn226	Zn	0.753048	-0.004914	0.494878
	Zn227	Zn	0.253991	-0.005104	0.494270
	N228	N	0.418276	0.957746	0.672613
	N229	N	0.588943	0.032262	0.672557
	N230	N	0.589258	0.957568	0.316431
	N231	N	0.418907	0.032527	0.317132
	N232	N	0.680529	0.410266	0.956812
	N233	N	0.682772	0.581365	0.031684
	N234	N	0.323870	0.581092	0.956874
	N235	N	0.324129	0.409133	0.031559
	N236	N	0.966006	0.672314	0.409179
	N237	N	0.041110	0.671895	0.578386
	N238	N	0.965672	0.317609	0.578856
	N239	N	0.040686	0.317096	0.409194
	N240	N	0.965794	0.409241	0.672920
	N241	N	0.040248	0.581304	0.674029
	N242	N	0.966226	0.581286	0.314693
	N243	N	0.040057	0.408636	0.314851
	N244	N	0.418423	0.673352	0.957000
	N245	N	0.588316	0.673104	0.032520
	N246	N	0.588895	0.316182	0.957908
	N247	N	0.417980	0.316979	0.032401
	N248	N	0.681486	0.957516	0.409479
	N249	N	0.681281	0.032281	0.579870
	N250	N	0.325816	0.957367	0.579827
	N251	N	0.325800	0.032187	0.409021
	N252	N	0.916592	0.457200	0.172684
	N253	N	0.088202	0.531699	0.172276
	N254	N	0.088036	0.457579	0.816591
	N255	N	0.917054	0.531778	0.815993
	N256	N	0.182892	0.908217	0.457440
	N257	N	0.182106	0.080586	0.531793
	N258	N	0.824221	0.081655	0.457912
	N259	N	0.824664	0.909053	0.531276
	N260	N	0.465155	0.172130	0.910595
	N261	N	0.540826	0.172151	0.079198
	N262	N	0.465926	0.818134	0.079423
	N263	N	0.541265	0.818205	0.909922
	N264	N	0.466080	0.909663	0.173357
	N265	N	0.540223	0.081694	0.174451
	N266	N	0.465591	0.080821	0.815708
	N267	N	0.540742	0.909135	0.815627
	N268	N	0.919083	0.172110	0.457094
	N269	N	0.089010	0.173599	0.531874
	N270	N	0.088177	0.816869	0.456612
	N271	N	0.918389	0.816794	0.531267
	N272	N	0.180973	0.457469	0.908767
	N273	N	0.180651	0.532058	0.079595
	N274	N	0.825434	0.456528	0.078726
	N275	N	0.825323	0.531666	0.909122
	O276	O	1.016985	-0.070670	1.020138
	H277	H	1.017507	-0.081586	1.019107
	H278	H	1.014192	-0.066934	1.012010
	O279	O	-0.005980	0.940618	0.994900
	H280	H	-0.001114	0.941584	0.995887
	H281	H	-0.010497	0.947424	0.992583
	O282	O	0.995162	0.928976	-0.015398
	H283	H	1.002304	0.924525	-0.009348
	H284	H	0.990346	0.924138	-0.019088
	O285	O	0.013264	0.924325	0.990733
	H286	H	0.014375	0.935076	1.000917
	H287	H	0.012974	0.913660	0.991661
