data_Molecule from HDF5

_cell_length_a		16.300463
_cell_length_b		16.280580
_cell_length_c		16.231680
_cell_angle_alpha	89.853543
_cell_angle_beta	90.191336
_cell_angle_gamma	90.054375
_symmetry_space_group_name_H-M	'P 1'
_symmetry_Int_Tables_number		1

loop_
	_symmetry_equiv_pos_as_xyz
	x,y,z

loop_
	_atom_site_label
	_atom_site_type_symbol
	_atom_site_fract_x
	_atom_site_fract_y
	_atom_site_fract_z
	H0	H	0.404416	0.839018	0.713524
	H1	H	0.600632	0.166922	0.714673
	H2	H	0.598934	0.838553	0.288055
	H3	H	0.404474	0.167031	0.286254
	H4	H	0.715221	0.404789	0.836016
	H5	H	0.717397	0.601161	0.163458
	H6	H	0.289243	0.601122	0.835623
	H7	H	0.289112	0.404111	0.164499
	H8	H	0.838582	0.718277	0.401974
	H9	H	0.165866	0.719317	0.599166
	H10	H	0.838854	0.288483	0.598220
	H11	H	0.165397	0.289611	0.401721
	H12	H	0.838522	0.405080	0.714696
	H13	H	0.166150	0.601886	0.714730
	H14	H	0.839075	0.602757	0.283954
	H15	H	0.166204	0.406603	0.287431
	H16	H	0.403412	0.717833	0.836882
	H17	H	0.602215	0.717038	0.164093
	H18	H	0.599673	0.289013	0.836307
	H19	H	0.404616	0.288955	0.164706
	H20	H	0.717390	0.839849	0.402227
	H21	H	0.716913	0.167457	0.598899
	H22	H	0.285828	0.840976	0.599531
	H23	H	0.287637	0.167456	0.400332
	H24	H	0.904128	0.340328	0.214398
	H25	H	0.100733	0.668048	0.213724
	H26	H	0.099723	0.339997	0.786543
	H27	H	0.904924	0.667698	0.785911
	H28	H	0.214586	0.907539	0.336382
	H29	H	0.216557	0.102012	0.664723
	H30	H	0.787423	0.102438	0.336418
	H31	H	0.788043	0.904366	0.664098
	H32	H	0.337731	0.217895	0.901262
	H33	H	0.665832	0.217311	0.099338
	H34	H	0.338685	0.787245	0.099299
	H35	H	0.665003	0.788812	0.903589
	H36	H	0.338077	0.904769	0.214425
	H37	H	0.666211	0.100172	0.215008
	H38	H	0.338086	0.100903	0.785287
	H39	H	0.666457	0.905916	0.788665
	H40	H	0.903073	0.218432	0.335883
	H41	H	0.100380	0.217638	0.664682
	H42	H	0.099445	0.791167	0.336131
	H43	H	0.903379	0.788610	0.664300
	H44	H	0.216305	0.339847	0.901997
	H45	H	0.218128	0.666976	0.099316
	H46	H	0.787761	0.340198	0.098872
	H47	H	0.785391	0.666462	0.897679
	H48	H	0.411020	0.118955	0.589762
	H49	H	0.589544	0.887497	0.598289
	H50	H	0.601138	0.123049	0.402398
	H51	H	0.405928	0.887557	0.413111
	H52	H	0.600072	0.413307	0.117126
	H53	H	0.589554	0.588824	0.886873
	H54	H	0.404866	0.589636	0.116793
	H55	H	0.407209	0.411803	0.883314
	H56	H	0.119019	0.590922	0.400242
	H57	H	0.886728	0.603930	0.582422
	H58	H	0.118738	0.405268	0.587967
	H59	H	0.887542	0.410802	0.411783
	H60	H	0.115820	0.418207	0.591401
	H61	H	0.890559	0.584752	0.592337
	H62	H	0.122052	0.606995	0.405145
	H63	H	0.885923	0.415367	0.404162
	H64	H	0.417553	0.594529	0.115107
	H65	H	0.588879	0.604816	0.882084
	H66	H	0.590772	0.412325	0.114977
	H67	H	0.410718	0.409551	0.883937
	H68	H	0.586595	0.117257	0.405547
	H69	H	0.596272	0.888708	0.586622
	H70	H	0.407007	0.120789	0.592867
	H71	H	0.403666	0.884958	0.404332
	H72	H	0.913528	0.617864	0.086863
	H73	H	0.097894	0.386007	0.097368
	H74	H	0.094805	0.621692	0.902077
	H75	H	0.911416	0.388475	0.906729
	H76	H	0.101872	0.917521	0.617320
	H77	H	0.103120	0.097354	0.380662
	H78	H	0.911148	0.091338	0.615751
	H79	H	0.905298	0.908661	0.381840
	H80	H	0.621248	0.098736	0.899293
	H81	H	0.388196	0.094900	0.087967
	H82	H	0.619141	0.904564	0.092618
	H83	H	0.381874	0.902813	0.901178
	H84	H	0.616031	0.915056	0.091021
	H85	H	0.385537	0.092651	0.098911
	H86	H	0.617751	0.103009	0.915309
	H87	H	0.387603	0.908166	0.915763
	H88	H	0.913390	0.100730	0.617020
	H89	H	0.090941	0.091614	0.387246
	H90	H	0.086636	0.912845	0.615080
	H91	H	0.907254	0.916256	0.383919
	H92	H	0.092134	0.618043	0.911151
	H93	H	0.093065	0.387902	0.094282
	H94	H	0.903226	0.621780	0.090041
	H95	H	0.907406	0.387586	0.909982
	H96	H	0.411795	0.119848	0.594623
	H97	H	0.602783	0.883967	0.597596
	H98	H	0.597365	0.117282	0.416302
	H99	H	0.413070	0.887114	0.406633
	H100	H	0.595101	0.404648	0.118706
	H101	H	0.603394	0.596166	0.880371
	H102	H	0.407504	0.602342	0.120818
	H103	H	0.407304	0.408514	0.881769
	H104	H	0.114742	0.596219	0.416569
	H105	H	0.880981	0.601289	0.603076
	H106	H	0.120944	0.409057	0.600877
	H107	H	0.884308	0.407052	0.404628
	H108	H	0.911283	0.621575	0.097482
	H109	H	0.098476	0.387475	0.091291
	H110	H	0.101804	0.620871	0.909896
	H111	H	0.906976	0.385868	0.905923
	H112	H	0.097504	0.902821	0.621168
	H113	H	0.091067	0.105368	0.382377
	H114	H	0.904228	0.097566	0.619063
	H115	H	0.912874	0.910901	0.383916
	H116	H	0.614521	0.086902	0.909974
	H117	H	0.383119	0.103216	0.094416
	H118	H	0.619535	0.911572	0.100651
	H119	H	0.386318	0.918149	0.903273
	C120	C	0.380900	0.012183	0.621537
	C121	C	0.624415	0.994764	0.622455
	C122	C	0.623544	0.011171	0.379405
	C123	C	0.380059	0.995125	0.378952
	C124	C	0.623303	0.381561	0.008623
	C125	C	0.623695	0.624962	0.991425
	C126	C	0.381061	0.624195	0.008861
	C127	C	0.380494	0.381348	0.991734
	C128	C	0.010697	0.626237	0.378269
	C129	C	0.994003	0.625578	0.621608
	C130	C	0.010661	0.382364	0.621793
	C131	C	0.993752	0.382510	0.378579
	C132	C	0.880949	0.512309	0.120845
	C133	C	0.124795	0.495428	0.122236
	C134	C	0.123998	0.511739	0.879252
	C135	C	0.880238	0.495398	0.878290
	C136	C	0.123363	0.883118	0.508915
	C137	C	0.123807	0.126040	0.492215
	C138	C	0.880439	0.125548	0.508960
	C139	C	0.880619	0.882865	0.491682
	C140	C	0.509689	0.124540	0.879071
	C141	C	0.493708	0.124771	0.122547
	C142	C	0.510342	0.881399	0.122806
	C143	C	0.493550	0.881521	0.879085
	C144	C	0.383639	0.888379	0.676346
	C145	C	0.621462	0.118214	0.677137
	C146	C	0.620116	0.887698	0.325350
	C147	C	0.383191	0.118072	0.323735
	C148	C	0.677584	0.384585	0.884951
	C149	C	0.679363	0.622136	0.114689
	C150	C	0.326236	0.621840	0.885047
	C151	C	0.326725	0.384058	0.115568
	C152	C	0.887432	0.680906	0.380643
	C153	C	0.117076	0.681010	0.619314
	C154	C	0.887479	0.326757	0.619137
	C155	C	0.116721	0.327453	0.381442
	C156	C	0.887538	0.384416	0.677124
	C157	C	0.117366	0.622812	0.676808
	C158	C	0.887741	0.623443	0.322312
	C159	C	0.117160	0.385570	0.324479
	C160	C	0.383443	0.679398	0.885494
	C161	C	0.622001	0.679698	0.114874
	C162	C	0.620356	0.326960	0.885145
	C163	C	0.383832	0.326570	0.115474
	C164	C	0.678679	0.888294	0.382176
	C165	C	0.679402	0.118495	0.619727
	C166	C	0.324781	0.889053	0.619745
	C167	C	0.325439	0.118315	0.380673
	C168	C	0.883895	0.389052	0.176266
	C169	C	0.121698	0.618922	0.176486
	C170	C	0.120697	0.388833	0.824252
	C171	C	0.883485	0.618493	0.822906
	C172	C	0.177276	0.886426	0.385362
	C173	C	0.178676	0.122440	0.615597
	C174	C	0.825322	0.123146	0.385258
	C175	C	0.826340	0.884598	0.615418
	C176	C	0.386736	0.179971	0.880865
	C177	C	0.617006	0.179462	0.119820
	C178	C	0.387369	0.825520	0.120182
	C179	C	0.616327	0.826466	0.882351
	C180	C	0.386953	0.883922	0.177096
	C181	C	0.617087	0.121358	0.177581
	C182	C	0.386824	0.121806	0.823358
	C183	C	0.616907	0.884518	0.825207
	C184	C	0.882862	0.180653	0.385267
	C185	C	0.121372	0.180278	0.615511
	C186	C	0.119727	0.829006	0.385282
	C187	C	0.883143	0.826739	0.615199
	C188	C	0.178876	0.388853	0.881497
	C189	C	0.180206	0.618356	0.119572
	C190	C	0.825986	0.389075	0.118951
	C191	C	0.824286	0.617994	0.878917
	C192	C	0.403344	0.097575	0.599204
	C193	C	0.602698	0.909048	0.600494
	C194	C	0.601565	0.097172	0.401456
	C195	C	0.401470	0.908892	0.401401
	C196	C	0.601712	0.403695	0.094744
	C197	C	0.600797	0.602999	0.905346
	C198	C	0.403372	0.601965	0.095227
	C199	C	0.402100	0.403399	0.905332
	C200	C	0.096541	0.604394	0.400606
	C201	C	0.908279	0.603208	0.599454
	C202	C	0.096295	0.404452	0.600006
	C203	C	0.908011	0.404509	0.400444
	C204	C	0.902829	0.598181	0.098157
	C205	C	0.102911	0.409226	0.100589
	C206	C	0.102336	0.598109	0.901153
	C207	C	0.902061	0.409447	0.901020
	C208	C	0.101690	0.904597	0.595578
	C209	C	0.101625	0.104459	0.405588
	C210	C	0.903089	0.103168	0.595122
	C211	C	0.902086	0.905276	0.405574
	C212	C	0.595683	0.102797	0.901614
	C213	C	0.407650	0.103167	0.100350
	C214	C	0.596036	0.903754	0.101213
	C215	C	0.407408	0.903264	0.900612
	Zn216	Zn	0.502249	0.002918	0.750434
	Zn217	Zn	0.501597	0.002736	0.251054
	Zn218	Zn	0.751455	0.503545	-0.000445
	Zn219	Zn	0.252925	0.502904	0.000400
	Zn220	Zn	0.001743	0.754943	0.500378
	Zn221	Zn	0.002217	0.253535	0.500069
	Zn222	Zn	0.002309	0.503956	0.750713
	Zn223	Zn	0.002416	0.503650	0.249975
	Zn224	Zn	0.501654	0.753090	0.000681
	Zn225	Zn	0.501968	0.253606	0.000519
	Zn226	Zn	0.752603	0.003698	0.500790
	Zn227	Zn	0.251687	0.004254	0.500367
	N228	N	0.417986	0.965666	0.677408
	N229	N	0.588071	0.040643	0.679052
	N230	N	0.586337	0.965046	0.323860
	N231	N	0.416481	0.040525	0.322756
	N232	N	0.679580	0.417923	0.962765
	N233	N	0.680192	0.588732	0.037114
	N234	N	0.324701	0.588090	0.962959
	N235	N	0.324575	0.417564	0.037589
	N236	N	0.964670	0.682676	0.414738
	N237	N	0.039571	0.682790	0.585721
	N238	N	0.964793	0.325394	0.585464
	N239	N	0.038893	0.325488	0.414524
	N240	N	0.964863	0.418378	0.678822
	N241	N	0.039992	0.588780	0.678161
	N242	N	0.965464	0.590491	0.320575
	N243	N	0.039893	0.419158	0.322760
	N244	N	0.416653	0.681001	0.963417
	N245	N	0.587760	0.681348	0.037161
	N246	N	0.587382	0.324846	0.962928
	N247	N	0.416539	0.324851	0.037574
	N248	N	0.680908	0.966096	0.415122
	N249	N	0.681521	0.040808	0.586566
	N250	N	0.322953	0.966719	0.586429
	N251	N	0.323179	0.040680	0.414310
	N252	N	0.917334	0.466740	0.177508
	N253	N	0.087943	0.541475	0.178167
	N254	N	0.087279	0.466332	0.822946
	N255	N	0.917402	0.541311	0.822411
	N256	N	0.179464	0.919361	0.463335
	N257	N	0.180375	0.089757	0.537513
	N258	N	0.823594	0.089657	0.463183
	N259	N	0.824658	0.918721	0.537766
	N260	N	0.464356	0.181658	0.914907
	N261	N	0.539430	0.181619	0.086374
	N262	N	0.464921	0.823880	0.086961
	N263	N	0.538817	0.824900	0.915413
	N264	N	0.464228	0.917767	0.178904
	N265	N	0.539450	0.088112	0.179329
	N266	N	0.464124	0.088018	0.822308
	N267	N	0.539456	0.918089	0.823142
	N268	N	0.916485	0.182110	0.463141
	N269	N	0.087878	0.182242	0.537829
	N270	N	0.086946	0.826970	0.463259
	N271	N	0.916151	0.825436	0.537263
	N272	N	0.180704	0.466419	0.915012
	N273	N	0.182337	0.540607	0.086718
	N274	N	0.823908	0.466607	0.085226
	N275	N	0.822187	0.540267	0.912734
	O276	O	-0.029417	0.008709	0.998431
	H277	H	-0.028329	0.011298	1.008709
	H278	H	-0.036013	0.007503	0.996385
	O279	O	0.485709	0.468752	0.480226
	H280	H	0.483866	0.472062	0.477102
	H281	H	0.483384	0.461790	0.483346
	O282	O	0.452157	0.474481	0.455236
	H283	H	0.456885	0.476600	0.443623
	H284	H	0.446406	0.474831	0.451872
	O285	O	0.417745	0.473490	0.470198
	H286	H	0.410059	0.474458	0.474979
	H287	H	0.405968	0.469291	0.467046
	O288	O	0.647571	0.310050	0.330177
	H289	H	0.650839	0.310757	0.334065
	H290	H	0.648213	0.303063	0.334395
	O291	O	-0.038218	1.047592	0.997238
	H292	H	-0.034187	1.052193	0.987218
	H293	H	-0.037819	1.047065	1.000621
	O294	O	0.440164	0.467959	0.510259
	H295	H	0.452684	0.469758	0.516469
	H296	H	0.441632	0.466010	0.509103
	O297	O	0.966690	0.018610	-0.004161
	H298	H	0.962648	0.022868	-0.006958
	H299	H	0.966077	0.020175	-0.006515
