data_Molecule from HDF5

_cell_length_a		16.332893
_cell_length_b		16.293765
_cell_length_c		16.435308
_cell_angle_alpha	89.941295
_cell_angle_beta	90.165013
_cell_angle_gamma	90.106724
_symmetry_space_group_name_H-M	'P 1'
_symmetry_Int_Tables_number		1

loop_
	_symmetry_equiv_pos_as_xyz
	x,y,z

loop_
	_atom_site_label
	_atom_site_type_symbol
	_atom_site_fract_x
	_atom_site_fract_y
	_atom_site_fract_z
	H0	H	0.393594	0.841575	0.717374
	H1	H	0.604096	0.162030	0.716972
	H2	H	0.606059	0.840371	0.275895
	H3	H	0.394167	0.160318	0.275237
	H4	H	0.717783	0.396418	0.836240
	H5	H	0.721165	0.604541	0.154733
	H6	H	0.277013	0.606146	0.838722
	H7	H	0.278251	0.394004	0.155457
	H8	H	0.838405	0.718855	0.392343
	H9	H	0.158956	0.721698	0.600156
	H10	H	0.836952	0.283239	0.594844
	H11	H	0.161241	0.281324	0.395412
	H12	H	0.837986	0.395330	0.713563
	H13	H	0.159073	0.604808	0.716398
	H14	H	0.839553	0.603566	0.275452
	H15	H	0.160985	0.395878	0.277500
	H16	H	0.395213	0.719168	0.836839
	H17	H	0.604474	0.719568	0.156043
	H18	H	0.602784	0.280760	0.837648
	H19	H	0.395704	0.280495	0.156248
	H20	H	0.716838	0.839607	0.396228
	H21	H	0.717350	0.162941	0.599062
	H22	H	0.278770	0.841570	0.601484
	H23	H	0.280981	0.161991	0.392964
	H24	H	0.897325	0.338964	0.214883
	H25	H	0.108730	0.659283	0.219871
	H26	H	0.104356	0.338746	0.775661
	H27	H	0.893381	0.659240	0.774123
	H28	H	0.221679	0.894555	0.338755
	H29	H	0.222125	0.108072	0.654586
	H30	H	0.778169	0.104843	0.337470
	H31	H	0.779384	0.897361	0.656116
	H32	H	0.338506	0.220344	0.893493
	H33	H	0.659398	0.219508	0.098962
	H34	H	0.339437	0.779833	0.099356
	H35	H	0.660037	0.783039	0.893864
	H36	H	0.340117	0.890887	0.218372
	H37	H	0.658321	0.105620	0.218308
	H38	H	0.339577	0.106991	0.774560
	H39	H	0.659583	0.898649	0.777941
	H40	H	0.898134	0.216213	0.335059
	H41	H	0.101678	0.218589	0.656712
	H42	H	0.103694	0.780796	0.337466
	H43	H	0.891970	0.778432	0.654044
	H44	H	0.218144	0.338343	0.894777
	H45	H	0.220339	0.660760	0.101446
	H46	H	0.782050	0.338973	0.096700
	H47	H	0.780439	0.660699	0.892142
	H48	H	0.414221	0.114514	0.585311
	H49	H	0.593280	0.883899	0.592215
	H50	H	0.590666	0.116570	0.403332
	H51	H	0.408640	0.885660	0.407769
	H52	H	0.590593	0.407976	0.110965
	H53	H	0.594400	0.585029	0.883347
	H54	H	0.408337	0.587230	0.110278
	H55	H	0.412345	0.411843	0.885076
	H56	H	0.110818	0.587813	0.412731
	H57	H	0.884638	0.590551	0.585862
	H58	H	0.113656	0.404929	0.581168
	H59	H	0.888106	0.415165	0.405043
	H60	H	0.111519	0.417107	0.585824
	H61	H	0.885304	0.588909	0.584484
	H62	H	0.113746	0.587100	0.403350
	H63	H	0.882763	0.407516	0.397553
	H64	H	0.413538	0.588646	0.108498
	H65	H	0.581624	0.592089	0.883867
	H66	H	0.593255	0.412630	0.110244
	H67	H	0.408850	0.406937	0.881164
	H68	H	0.581648	0.113483	0.405464
	H69	H	0.581636	0.887549	0.590445
	H70	H	0.408820	0.116104	0.583523
	H71	H	0.410762	0.886300	0.406475
	H72	H	0.910911	0.614445	0.085778
	H73	H	0.085277	0.387301	0.086302
	H74	H	0.076118	0.608746	0.907991
	H75	H	0.907368	0.383185	0.902826
	H76	H	0.080865	0.907773	0.608865
	H77	H	0.086307	0.090607	0.383794
	H78	H	0.906255	0.084430	0.609465
	H79	H	0.904096	0.910904	0.380642
	H80	H	0.611484	0.076689	0.898785
	H81	H	0.386335	0.086240	0.085426
	H82	H	0.612566	0.914967	0.089380
	H83	H	0.382096	0.902272	0.908762
	H84	H	0.615596	0.908720	0.087999
	H85	H	0.383475	0.089170	0.087769
	H86	H	0.619714	0.102968	0.899243
	H87	H	0.389233	0.916879	0.912551
	H88	H	0.914590	0.094967	0.609863
	H89	H	0.090551	0.093434	0.380894
	H90	H	0.094731	0.912025	0.612074
	H91	H	0.908236	0.916505	0.383935
	H92	H	0.094927	0.612425	0.915889
	H93	H	0.089950	0.386500	0.083767
	H94	H	0.910870	0.615795	0.085975
	H95	H	0.909829	0.384843	0.903534
	H96	H	0.410247	0.117360	0.588881
	H97	H	0.589829	0.888341	0.581399
	H98	H	0.588601	0.114061	0.411911
	H99	H	0.410781	0.886890	0.408728
	H100	H	0.588328	0.412646	0.109107
	H101	H	0.593127	0.599069	0.877947
	H102	H	0.410645	0.591878	0.111380
	H103	H	0.404794	0.413425	0.882876
	H104	H	0.115328	0.595678	0.407762
	H105	H	0.884545	0.588258	0.586538
	H106	H	0.116419	0.407552	0.593741
	H107	H	0.884708	0.404029	0.408495
	H108	H	0.910932	0.614280	0.086586
	H109	H	0.089373	0.384666	0.088934
	H110	H	0.090965	0.617700	0.896118
	H111	H	0.908505	0.384301	0.905656
	H112	H	0.085501	0.921112	0.605344
	H113	H	0.091829	0.088129	0.382717
	H114	H	0.901874	0.096547	0.614163
	H115	H	0.911448	0.909651	0.383112
	H116	H	0.608856	0.091881	0.921889
	H117	H	0.385055	0.090113	0.083287
	H118	H	0.612193	0.911930	0.082880
	H119	H	0.382738	0.914348	0.897388
	C120	C	0.378219	0.010042	0.617919
	C121	C	0.620321	0.992859	0.618865
	C122	C	0.619067	0.008950	0.375982
	C123	C	0.377922	0.992091	0.375235
	C124	C	0.621198	0.379116	0.004824
	C125	C	0.622103	0.623031	0.987220
	C126	C	0.378623	0.621190	0.004909
	C127	C	0.377258	0.378432	0.988127
	C128	C	0.007409	0.621539	0.375252
	C129	C	0.990599	0.621620	0.617490
	C130	C	0.007518	0.378435	0.616727
	C131	C	0.991406	0.377709	0.373943
	C132	C	0.879629	0.508460	0.116877
	C133	C	0.121549	0.491902	0.118500
	C134	C	0.119705	0.507250	0.875366
	C135	C	0.877496	0.490631	0.873419
	C136	C	0.119998	0.880464	0.504617
	C137	C	0.121027	0.122412	0.487891
	C138	C	0.876982	0.122531	0.504976
	C139	C	0.876284	0.879687	0.487464
	C140	C	0.507688	0.122499	0.874942
	C141	C	0.490311	0.121285	0.118031
	C142	C	0.507890	0.878522	0.118440
	C143	C	0.490739	0.879918	0.875327
	C144	C	0.375773	0.889625	0.677581
	C145	C	0.622228	0.113736	0.677597
	C146	C	0.622703	0.888326	0.316358
	C147	C	0.376056	0.112435	0.315215
	C148	C	0.678579	0.377875	0.884403
	C149	C	0.681743	0.623733	0.106950
	C150	C	0.318023	0.623589	0.885747
	C151	C	0.318106	0.376145	0.107852
	C152	C	0.886792	0.680201	0.373293
	C153	C	0.110741	0.681829	0.618916
	C154	C	0.885673	0.321215	0.615227
	C155	C	0.112703	0.319751	0.375005
	C156	C	0.886185	0.377260	0.674206
	C157	C	0.111155	0.623410	0.676603
	C158	C	0.887479	0.622650	0.315042
	C159	C	0.112810	0.377113	0.316819
	C160	C	0.376734	0.680150	0.885030
	C161	C	0.623607	0.681053	0.107513
	C162	C	0.620810	0.320534	0.884902
	C163	C	0.376418	0.319388	0.108211
	C164	C	0.678136	0.887874	0.376093
	C165	C	0.678792	0.114127	0.618946
	C166	C	0.318479	0.889611	0.619784
	C167	C	0.319742	0.113330	0.374049
	C168	C	0.878656	0.387155	0.175279
	C169	C	0.125443	0.611641	0.178931
	C170	C	0.122243	0.386719	0.815764
	C171	C	0.875133	0.611411	0.813961
	C172	C	0.181145	0.877176	0.385941
	C173	C	0.181377	0.125233	0.607410
	C174	C	0.818163	0.123293	0.384930
	C175	C	0.817976	0.878086	0.607836
	C176	C	0.386770	0.181350	0.874104
	C177	C	0.611208	0.180487	0.118649
	C178	C	0.387593	0.818650	0.118924
	C179	C	0.611718	0.821876	0.874740
	C180	C	0.388142	0.874088	0.178398
	C181	C	0.610534	0.123930	0.177916
	C182	C	0.387301	0.124996	0.815005
	C183	C	0.611527	0.879394	0.816976
	C184	C	0.877738	0.178856	0.383743
	C185	C	0.121634	0.180613	0.608283
	C186	C	0.122364	0.820344	0.385271
	C187	C	0.873900	0.818909	0.606841
	C188	C	0.179009	0.386621	0.875030
	C189	C	0.181533	0.612179	0.120079
	C190	C	0.821552	0.387050	0.116651
	C191	C	0.819017	0.611981	0.872828
	C192	C	0.403670	0.094052	0.593169
	C193	C	0.595451	0.908490	0.594854
	C194	C	0.594203	0.092882	0.400109
	C195	C	0.402662	0.908115	0.400463
	C196	C	0.597556	0.404085	0.088502
	C197	C	0.597148	0.598980	0.903548
	C198	C	0.403655	0.596527	0.088271
	C199	C	0.401452	0.403533	0.904849
	C200	C	0.091579	0.597265	0.400509
	C201	C	0.906597	0.596476	0.592713
	C202	C	0.091601	0.402852	0.593627
	C203	C	0.907209	0.401974	0.396977
	C204	C	0.903890	0.592822	0.093042
	C205	C	0.095623	0.407992	0.093505
	C206	C	0.094503	0.591112	0.899576
	C207	C	0.901721	0.406218	0.897239
	C208	C	0.094349	0.906128	0.587212
	C209	C	0.096833	0.097782	0.404252
	C210	C	0.900790	0.098881	0.589183
	C211	C	0.900809	0.904932	0.404312
	C212	C	0.591573	0.097822	0.899570
	C213	C	0.406668	0.095795	0.092894
	C214	C	0.591506	0.904431	0.093804
	C215	C	0.406538	0.904136	0.899331
	Zn216	Zn	0.499163	0.001487	0.746800
	Zn217	Zn	0.498834	-0.000272	0.246693
	Zn218	Zn	0.750037	0.499405	-0.004524
	Zn219	Zn	0.249410	0.500053	-0.003194
	Zn220	Zn	-0.001671	0.751695	0.495738
	Zn221	Zn	-0.000435	0.250031	0.496002
	Zn222	Zn	-0.000905	0.499097	0.745524
	Zn223	Zn	0.000450	0.500072	0.246050
	Zn224	Zn	0.499476	0.750898	-0.003709
	Zn225	Zn	0.499215	0.250990	-0.003164
	Zn226	Zn	0.748095	0.001099	0.496813
	Zn227	Zn	0.249642	0.001385	0.496610
	N228	N	0.412279	0.965686	0.676620
	N229	N	0.586477	0.037290	0.677550
	N230	N	0.586747	0.964561	0.316122
	N231	N	0.411238	0.035874	0.315650
	N232	N	0.678705	0.413627	0.960101
	N233	N	0.681300	0.588502	0.030978
	N234	N	0.319001	0.587503	0.961269
	N235	N	0.318348	0.412002	0.032182
	N236	N	0.962564	0.679770	0.409787
	N237	N	0.034463	0.680950	0.583086
	N238	N	0.961946	0.321781	0.580233
	N239	N	0.036317	0.319972	0.409684
	N240	N	0.962945	0.412064	0.675540
	N241	N	0.035289	0.586934	0.675951
	N242	N	0.963593	0.587034	0.316346
	N243	N	0.036413	0.412425	0.315960
	N244	N	0.413752	0.678793	0.960259
	N245	N	0.587379	0.680874	0.031900
	N246	N	0.585932	0.320979	0.960902
	N247	N	0.412560	0.320609	0.032770
	N248	N	0.676099	0.963736	0.412413
	N249	N	0.677760	0.037930	0.583056
	N250	N	0.320048	0.965376	0.583318
	N251	N	0.320859	0.037530	0.410759
	N252	N	0.913951	0.463722	0.175584
	N253	N	0.089136	0.535639	0.178250
	N254	N	0.086269	0.462962	0.815700
	N255	N	0.910562	0.534992	0.813807
	N256	N	0.179744	0.913896	0.461142
	N257	N	0.181321	0.090040	0.531575
	N258	N	0.817353	0.089260	0.461496
	N259	N	0.819157	0.915114	0.532661
	N260	N	0.462706	0.180077	0.910543
	N261	N	0.535393	0.178996	0.082130
	N262	N	0.463045	0.821236	0.082227
	N263	N	0.535519	0.821939	0.910198
	N264	N	0.464019	0.910683	0.178200
	N265	N	0.534455	0.087811	0.177440
	N266	N	0.463323	0.089054	0.815530
	N267	N	0.535301	0.914723	0.817270
	N268	N	0.913429	0.178579	0.459549
	N269	N	0.084785	0.179025	0.532911
	N270	N	0.085025	0.822385	0.459998
	N271	N	0.909388	0.819606	0.531082
	N272	N	0.177733	0.462585	0.911102
	N273	N	0.179200	0.536429	0.083140
	N274	N	0.821916	0.463425	0.081020
	N275	N	0.820145	0.535876	0.908876
	O276	O	0.518308	0.650523	0.387920
	H277	H	0.522925	0.660022	0.381975
	H278	H	0.524134	0.666177	0.396439
	O279	O	0.586181	0.588667	0.438553
	H280	H	0.581058	0.582904	0.432601
	H281	H	0.594798	0.595281	0.443487
	O282	O	0.466957	0.492516	0.494849
	H283	H	0.455855	0.504904	0.489634
	H284	H	0.462361	0.482081	0.504601
	O285	O	0.981047	0.051357	0.180408
	H286	H	0.980792	0.045614	0.183744
	H287	H	0.981936	0.049834	0.179036
	O288	O	-0.165394	0.176721	0.849575
	H289	H	-0.172969	0.168024	0.865158
	H290	H	-0.168162	0.160857	0.868691
	O291	O	0.574556	0.575343	0.583605
	H292	H	0.577662	0.571114	0.578088
	H293	H	0.556226	0.574365	0.592289
	O294	O	0.554338	0.481508	0.341680
	H295	H	0.541052	0.481041	0.342829
	H296	H	0.545358	0.488920	0.342595
	O297	O	0.937961	1.190825	0.801061
	H298	H	0.927505	1.200592	0.798636
	H299	H	0.909810	1.194049	0.796056
	O300	O	0.099463	0.187902	0.076587
	H301	H	0.081655	0.178986	0.093387
	H302	H	0.110769	0.192856	0.078287
	O303	O	0.548553	0.488483	0.613945
	H304	H	0.543175	0.494670	0.621266
	H305	H	0.560498	0.494015	0.615612
	O306	O	0.804614	0.040681	0.077482
	H307	H	0.805607	0.038116	0.073383
	H308	H	0.813480	0.040573	0.071412
	O309	O	0.626664	0.365441	0.351601
	H310	H	0.608945	0.369352	0.363027
	H311	H	0.626346	0.383313	0.340347
	O312	O	0.851621	0.872994	-0.021413
	H313	H	0.863409	0.878208	-0.041998
	H314	H	0.853139	0.869175	-0.015226
	O315	O	0.501688	0.412822	0.569931
	H316	H	0.511072	0.420153	0.574347
	H317	H	0.511846	0.405514	0.579286
	O318	O	0.320930	0.425846	0.679346
	H319	H	0.310817	0.416496	0.661376
	H320	H	0.346477	0.408413	0.690525
	O321	O	1.038174	0.172204	0.893406
	H322	H	1.022447	0.169691	0.898240
	H323	H	1.038546	0.172821	0.883205
	O324	O	-0.202777	-0.002210	1.109109
	H325	H	-0.212950	0.002488	1.115654
	H326	H	-0.205096	0.002268	1.097996
	O327	O	0.401417	0.436890	0.549669
	H328	H	0.421652	0.432992	0.555422
	H329	H	0.397234	0.432200	0.556460
	O330	O	0.307019	0.485015	0.641410
	H331	H	0.308880	0.454102	0.638790
	H332	H	0.291143	0.480835	0.648240
	O333	O	1.100115	0.891584	1.123533
	H334	H	1.088190	0.873580	1.121790
	H335	H	1.093151	0.893254	1.119916
	O336	O	0.348756	0.469651	0.376682
	H337	H	0.347108	0.460845	0.387402
	H338	H	0.346426	0.484198	0.375497
	O339	O	0.821416	0.019784	0.825835
	H340	H	0.825993	0.012819	0.823132
	H341	H	0.826911	0.017767	0.827833
	O342	O	0.182815	0.822023	0.812213
	H343	H	0.196461	0.813500	0.845650
	H344	H	0.190317	0.867614	0.810318
	O345	O	0.089374	0.787186	0.845018
	H346	H	0.102693	0.756465	0.823949
	H347	H	0.114500	0.798009	0.849589
	O348	O	0.652699	0.501245	0.697365
	H349	H	0.675831	0.500238	0.717229
	H350	H	0.648651	0.501282	0.693028
	O351	O	0.186593	0.062947	-0.011703
	H352	H	0.184800	0.076900	-0.004488
	H353	H	0.183670	0.056661	-0.000994
	O354	O	1.208393	1.009974	0.135324
	H355	H	1.221760	1.014840	0.151297
	H356	H	1.201785	1.001838	0.134492
	O357	O	0.115517	1.165993	0.197465
	H358	H	0.110415	1.176284	0.218780
	H359	H	0.132250	1.153207	0.183265
	O360	O	0.587928	0.374460	0.323839
	H361	H	0.568570	0.378331	0.312070
	H362	H	0.587478	0.379845	0.313319
	O363	O	0.356084	0.560071	0.349430
	H364	H	0.339317	0.558535	0.341744
	H365	H	0.340055	0.567885	0.357044
	O366	O	0.591447	0.595759	0.577045
	H367	H	0.597738	0.585663	0.566965
	H368	H	0.593758	0.602123	0.587410
	O369	O	0.443665	0.626688	0.363305
	H370	H	0.435789	0.634701	0.393672
	H371	H	0.449466	0.626185	0.355033
	O372	O	0.518629	0.364739	0.526377
	H373	H	0.528428	0.377218	0.510092
	H374	H	0.531905	0.365262	0.531728
	O375	O	0.404303	0.322636	0.508939
	H376	H	0.409402	0.302746	0.503248
	H377	H	0.413826	0.325379	0.495763
	O378	O	0.635846	0.487297	0.362853
	H379	H	0.630165	0.488013	0.365410
	H380	H	0.622690	0.474360	0.354468
	O381	O	0.639843	0.685585	0.627759
	H382	H	0.639137	0.688127	0.617543
	H383	H	0.639796	0.676320	0.648229
	O384	O	0.037259	0.895710	0.995152
	H385	H	0.017088	0.888894	0.986400
	H386	H	0.025910	0.895453	1.018125
	O387	O	0.841891	0.832624	0.188187
	H388	H	0.828802	0.844357	0.180274
	H389	H	0.835497	0.841279	0.173604
	O390	O	0.570756	0.331188	0.489123
	H391	H	0.577159	0.336259	0.473213
	H392	H	0.569692	0.324990	0.482810
	O393	O	0.939850	-0.033914	0.841252
	H394	H	0.952453	-0.051962	0.842623
	H395	H	0.955681	-0.035974	0.831880
	O396	O	-0.001442	0.789553	1.139988
	H397	H	-0.004956	0.766511	1.164238
	H398	H	-0.034905	0.801070	1.128237
	O399	O	0.342098	0.656853	0.537846
	H400	H	0.346294	0.661277	0.543755
	H401	H	0.336600	0.660109	0.543803
	O402	O	0.989233	-0.144514	0.898074
	H403	H	0.990025	-0.160130	0.870839
	H404	H	1.013650	-0.133930	0.895148
	O405	O	0.189498	-0.109045	-0.075998
	H406	H	0.178185	-0.102133	-0.062932
	H407	H	0.183145	-0.119533	-0.072946
	O408	O	0.980218	0.965488	0.991512
	H409	H	0.986007	0.958916	0.992338
	H410	H	0.984921	0.972866	0.989839
	O411	O	0.837723	1.059091	-0.050701
	H412	H	0.824582	1.053751	-0.053469
	H413	H	0.862973	1.073888	-0.052674
	O414	O	0.091775	0.099354	0.874465
	H415	H	0.096805	0.102081	0.868964
	H416	H	0.083969	0.112040	0.873409
	O417	O	0.430631	0.490829	0.462660
	H418	H	0.434375	0.496278	0.470804
	H419	H	0.435090	0.476081	0.465173
	O420	O	-0.039946	1.132879	0.104317
	H421	H	-0.025773	1.126711	0.114775
	H422	H	-0.037674	1.140688	0.114864
	O423	O	0.844639	-0.170731	0.074668
	H424	H	0.841231	-0.182276	0.065368
	H425	H	0.850990	-0.186795	0.062550
	O426	O	0.190527	0.079107	0.947528
	H427	H	0.202975	0.064757	0.932594
	H428	H	0.195991	0.088892	0.950241
	O429	O	0.590890	0.616850	0.624915
	H430	H	0.606466	0.619294	0.632915
	H431	H	0.590768	0.616899	0.621871
