data_Molecule from HDF5

_cell_length_a		16.237357
_cell_length_b		16.195396
_cell_length_c		16.346975
_cell_angle_alpha	89.886602
_cell_angle_beta	89.792387
_cell_angle_gamma	89.751700
_symmetry_space_group_name_H-M	'P 1'
_symmetry_Int_Tables_number		1

loop_
	_symmetry_equiv_pos_as_xyz
	x,y,z

loop_
	_atom_site_label
	_atom_site_type_symbol
	_atom_site_fract_x
	_atom_site_fract_y
	_atom_site_fract_z
	H0	H	0.403948	0.834150	0.715685
	H1	H	0.600949	0.163166	0.714933
	H2	H	0.604168	0.834793	0.286802
	H3	H	0.403771	0.162314	0.287164
	H4	H	0.717201	0.400046	0.836614
	H5	H	0.715707	0.596002	0.163331
	H6	H	0.286693	0.599868	0.836861
	H7	H	0.285337	0.398509	0.162629
	H8	H	0.837744	0.714074	0.402099
	H9	H	0.166296	0.709850	0.595716
	H10	H	0.836781	0.286905	0.597451
	H11	H	0.165876	0.285645	0.401793
	H12	H	0.837323	0.399892	0.715261
	H13	H	0.164212	0.599533	0.715273
	H14	H	0.837674	0.599693	0.285190
	H15	H	0.164100	0.396418	0.282433
	H16	H	0.402357	0.716517	0.838053
	H17	H	0.599127	0.712652	0.163947
	H18	H	0.601459	0.283854	0.837188
	H19	H	0.403964	0.283761	0.163700
	H20	H	0.718016	0.835228	0.402385
	H21	H	0.713935	0.164488	0.597056
	H22	H	0.288010	0.834751	0.600501
	H23	H	0.289399	0.163864	0.403847
	H24	H	0.901717	0.334517	0.215065
	H25	H	0.101449	0.661850	0.214837
	H26	H	0.102039	0.334981	0.784403
	H27	H	0.900850	0.663310	0.785211
	H28	H	0.218508	0.901249	0.337989
	H29	H	0.215318	0.097682	0.664579
	H30	H	0.787002	0.100440	0.336815
	H31	H	0.787845	0.901079	0.663514
	H32	H	0.338219	0.212519	0.902972
	H33	H	0.666812	0.210054	0.096162
	H34	H	0.336761	0.787976	0.099057
	H35	H	0.666163	0.784960	0.904651
	H36	H	0.338528	0.898784	0.218402
	H37	H	0.666131	0.096891	0.214998
	H38	H	0.339647	0.099992	0.785225
	H39	H	0.665513	0.896207	0.784406
	H40	H	0.905301	0.214231	0.336226
	H41	H	0.098245	0.214023	0.663772
	H42	H	0.102998	0.784890	0.336690
	H43	H	0.903992	0.784408	0.663000
	H44	H	0.217488	0.335224	0.899869
	H45	H	0.212320	0.663641	0.095857
	H46	H	0.790090	0.333336	0.096797
	H47	H	0.786761	0.663629	0.902076
	H48	H	0.419782	0.112130	0.591779
	H49	H	0.601420	0.879802	0.595801
	H50	H	0.595149	0.117158	0.406604
	H51	H	0.413478	0.881360	0.406640
	H52	H	0.599007	0.407032	0.116863
	H53	H	0.595465	0.596790	0.882437
	H54	H	0.409489	0.585354	0.112980
	H55	H	0.417952	0.411002	0.888541
	H56	H	0.116388	0.590323	0.410845
	H57	H	0.880899	0.589799	0.606568
	H58	H	0.118111	0.401762	0.588585
	H59	H	0.882910	0.402619	0.404185
	H60	H	0.115113	0.413194	0.589570
	H61	H	0.881092	0.605148	0.589637
	H62	H	0.119318	0.586697	0.401508
	H63	H	0.886320	0.407566	0.412828
	H64	H	0.410624	0.599729	0.116966
	H65	H	0.597995	0.588787	0.884178
	H66	H	0.591804	0.405522	0.114744
	H67	H	0.410350	0.395766	0.881622
	H68	H	0.593388	0.116723	0.405647
	H69	H	0.591218	0.882171	0.598403
	H70	H	0.401372	0.116517	0.586710
	H71	H	0.412870	0.883409	0.413176
	H72	H	0.901546	0.616152	0.088617
	H73	H	0.108435	0.378041	0.090063
	H74	H	0.096717	0.616648	0.905683
	H75	H	0.909853	0.381842	0.907888
	H76	H	0.098432	0.915104	0.614765
	H77	H	0.099410	0.089946	0.384642
	H78	H	0.912948	0.106724	0.618192
	H79	H	0.908276	0.914570	0.385297
	H80	H	0.617117	0.087444	0.910994
	H81	H	0.383919	0.090768	0.099900
	H82	H	0.618759	0.911395	0.101074
	H83	H	0.383847	0.909047	0.902914
	H84	H	0.622323	0.896897	0.096070
	H85	H	0.384611	0.095483	0.092629
	H86	H	0.621444	0.087906	0.900519
	H87	H	0.384893	0.903873	0.910642
	H88	H	0.893783	0.089870	0.619099
	H89	H	0.093682	0.091395	0.386395
	H90	H	0.085331	0.900850	0.614788
	H91	H	0.917246	0.906590	0.385872
	H92	H	0.090867	0.615995	0.904240
	H93	H	0.087306	0.379319	0.105630
	H94	H	0.908181	0.617533	0.099675
	H95	H	0.908220	0.380866	0.905435
	H96	H	0.407994	0.119273	0.604601
	H97	H	0.595141	0.883540	0.588289
	H98	H	0.593514	0.116058	0.408197
	H99	H	0.407779	0.880334	0.410176
	H100	H	0.596218	0.400241	0.117967
	H101	H	0.590120	0.590599	0.886321
	H102	H	0.397953	0.592215	0.118656
	H103	H	0.400776	0.410353	0.883124
	H104	H	0.120862	0.596813	0.402989
	H105	H	0.889279	0.583625	0.585377
	H106	H	0.119127	0.407546	0.598831
	H107	H	0.884897	0.412982	0.404108
	H108	H	0.913959	0.613311	0.089106
	H109	H	0.085617	0.386350	0.080489
	H110	H	0.092380	0.615216	0.909671
	H111	H	0.910966	0.382204	0.904595
	H112	H	0.103036	0.897368	0.620726
	H113	H	0.097437	0.096028	0.383599
	H114	H	0.916608	0.082568	0.610993
	H115	H	0.905603	0.902823	0.381701
	H116	H	0.621290	0.096910	0.907808
	H117	H	0.387521	0.086667	0.092611
	H118	H	0.615329	0.907587	0.085900
	H119	H	0.387947	0.913214	0.910474
	C120	C	0.381215	0.007448	0.622931
	C121	C	0.623627	0.990725	0.622000
	C122	C	0.624107	0.007675	0.378796
	C123	C	0.381757	0.990203	0.380733
	C124	C	0.624526	0.376049	0.008601
	C125	C	0.622689	0.619910	0.992397
	C126	C	0.378203	0.621462	0.008643
	C127	C	0.380442	0.376818	0.991992
	C128	C	0.010040	0.620450	0.377655
	C129	C	0.992656	0.620716	0.621554
	C130	C	0.009634	0.378192	0.621468
	C131	C	0.992858	0.378015	0.378174
	C132	C	0.879824	0.506921	0.121397
	C133	C	0.122065	0.489864	0.120356
	C134	C	0.122663	0.507546	0.877698
	C135	C	0.880263	0.490741	0.878299
	C136	C	0.124528	0.876750	0.509006
	C137	C	0.123981	0.120806	0.492695
	C138	C	0.879840	0.121846	0.508144
	C139	C	0.881220	0.878524	0.491773
	C140	C	0.511369	0.119889	0.878857
	C141	C	0.493810	0.119282	0.122238
	C142	C	0.510523	0.876899	0.123421
	C143	C	0.493693	0.878044	0.879557
	C144	C	0.383273	0.883503	0.678303
	C145	C	0.620821	0.114449	0.676640
	C146	C	0.623683	0.884169	0.324249
	C147	C	0.383380	0.113538	0.325113
	C148	C	0.679307	0.379517	0.885502
	C149	C	0.677681	0.616691	0.114882
	C150	C	0.324069	0.619850	0.885799
	C151	C	0.324049	0.378695	0.114361
	C152	C	0.886548	0.676047	0.381178
	C153	C	0.116558	0.674007	0.617625
	C154	C	0.886010	0.323734	0.618711
	C155	C	0.116628	0.323034	0.381010
	C156	C	0.886229	0.380253	0.676995
	C157	C	0.115565	0.618646	0.676774
	C158	C	0.886725	0.619145	0.322979
	C159	C	0.115761	0.378382	0.321960
	C160	C	0.381469	0.678030	0.886306
	C161	C	0.619463	0.674424	0.115359
	C162	C	0.622212	0.321322	0.885851
	C163	C	0.382941	0.321598	0.114815
	C164	C	0.680096	0.884258	0.382038
	C165	C	0.677112	0.115027	0.618403
	C166	C	0.326030	0.883581	0.620829
	C167	C	0.326906	0.114343	0.383564
	C168	C	0.881829	0.383520	0.177078
	C169	C	0.120600	0.613064	0.176281
	C170	C	0.121545	0.383945	0.822300
	C171	C	0.881236	0.614306	0.823301
	C172	C	0.180406	0.880067	0.386401
	C173	C	0.177932	0.118220	0.615636
	C174	C	0.824802	0.120455	0.385722
	C175	C	0.825735	0.880508	0.614692
	C176	C	0.387742	0.175397	0.882071
	C177	C	0.617586	0.173393	0.118263
	C178	C	0.386374	0.823880	0.120630
	C179	C	0.617196	0.822227	0.883147
	C180	C	0.387239	0.879194	0.179804
	C181	C	0.617290	0.117346	0.177156
	C182	C	0.388110	0.119228	0.823686
	C183	C	0.616852	0.877695	0.823583
	C184	C	0.883569	0.177113	0.385364
	C185	C	0.119641	0.175861	0.615385
	C186	C	0.122495	0.822604	0.385750
	C187	C	0.883832	0.822733	0.614464
	C188	C	0.178883	0.384032	0.879844
	C189	C	0.176258	0.613840	0.117528
	C190	C	0.826206	0.382824	0.118261
	C191	C	0.824451	0.614404	0.881417
	C192	C	0.403201	0.093599	0.600887
	C193	C	0.602253	0.904203	0.600450
	C194	C	0.600859	0.094427	0.400606
	C195	C	0.404709	0.904076	0.403424
	C196	C	0.602322	0.397839	0.094525
	C197	C	0.600992	0.598441	0.906550
	C198	C	0.399517	0.598929	0.094138
	C199	C	0.402981	0.399263	0.906610
	C200	C	0.096491	0.597915	0.398801
	C201	C	0.906149	0.599320	0.600227
	C202	C	0.095495	0.400620	0.598932
	C203	C	0.906726	0.401093	0.400495
	C204	C	0.901558	0.593451	0.099085
	C205	C	0.100213	0.403601	0.098444
	C206	C	0.099972	0.593673	0.900022
	C207	C	0.902799	0.403975	0.899765
	C208	C	0.102268	0.898190	0.594524
	C209	C	0.103139	0.098938	0.407020
	C210	C	0.901356	0.099530	0.593973
	C211	C	0.903733	0.901297	0.406174
	C212	C	0.597591	0.097225	0.900089
	C213	C	0.407816	0.097362	0.101307
	C214	C	0.596525	0.898758	0.100890
	C215	C	0.407799	0.901731	0.901639
	Zn216	Zn	0.503060	-0.001039	0.750664
	Zn217	Zn	0.502341	-0.001988	0.251328
	Zn218	Zn	0.752472	0.498198	-0.000079
	Zn219	Zn	0.250885	0.498776	-0.000535
	Zn220	Zn	0.002135	0.748421	0.499258
	Zn221	Zn	0.001743	0.250473	0.500095
	Zn222	Zn	0.000998	0.499376	0.749650
	Zn223	Zn	0.001092	0.498755	0.249251
	Zn224	Zn	0.500936	0.749577	0.001088
	Zn225	Zn	0.502727	0.247694	0.000388
	Zn226	Zn	0.751781	-0.000263	0.500077
	Zn227	Zn	0.253480	-0.001240	0.501708
	N228	N	0.416943	0.961404	0.679889
	N229	N	0.588342	0.036174	0.678907
	N230	N	0.589507	0.962002	0.322174
	N231	N	0.416999	0.035378	0.323434
	N232	N	0.680811	0.412840	0.962830
	N233	N	0.679629	0.583430	0.037524
	N234	N	0.322097	0.585314	0.962724
	N235	N	0.322475	0.412301	0.036973
	N236	N	0.964449	0.677230	0.414076
	N237	N	0.039249	0.675181	0.583598
	N238	N	0.963673	0.322377	0.584763
	N239	N	0.039103	0.322647	0.415209
	N240	N	0.964092	0.413443	0.678726
	N241	N	0.037325	0.586414	0.679273
	N242	N	0.964510	0.585395	0.320591
	N243	N	0.037898	0.412090	0.320271
	N244	N	0.414638	0.679070	0.963711
	N245	N	0.586109	0.676575	0.038048
	N246	N	0.588691	0.319259	0.963300
	N247	N	0.417551	0.320662	0.037871
	N248	N	0.680466	0.962424	0.415137
	N249	N	0.679011	0.037090	0.585013
	N250	N	0.324620	0.961412	0.587314
	N251	N	0.326068	0.036663	0.417608
	N252	N	0.914537	0.461848	0.179145
	N253	N	0.087886	0.534891	0.178514
	N254	N	0.087246	0.461826	0.820874
	N255	N	0.915366	0.536458	0.821485
	N256	N	0.181965	0.912980	0.463886
	N257	N	0.180628	0.084616	0.538340
	N258	N	0.822548	0.086686	0.463011
	N259	N	0.824422	0.914700	0.537547
	N260	N	0.465317	0.176076	0.915504
	N261	N	0.539981	0.174776	0.084965
	N262	N	0.463802	0.822078	0.086459
	N263	N	0.539626	0.822492	0.917275
	N264	N	0.465663	0.911403	0.181751
	N265	N	0.539318	0.084361	0.180014
	N266	N	0.465944	0.085496	0.821333
	N267	N	0.539073	0.911809	0.821376
	N268	N	0.916964	0.178105	0.462561
	N269	N	0.086975	0.177766	0.538045
	N270	N	0.088545	0.820224	0.462937
	N271	N	0.917513	0.821424	0.537042
	N272	N	0.179809	0.461697	0.913411
	N273	N	0.177276	0.536228	0.083311
	N274	N	0.824921	0.460534	0.084420
	N275	N	0.823943	0.536409	0.914847
	O276	O	1.067801	0.936131	-0.006113
	H277	H	1.066614	0.934031	-0.005054
	H278	H	1.075815	0.939343	-0.011681
	O279	O	-0.003929	-0.010981	-0.021624
	H280	H	-0.005301	-0.009702	-0.018969
	H281	H	-0.001651	-0.007109	-0.026890
	O282	O	0.022461	-0.008519	1.010269
	H283	H	0.028776	-0.012570	1.008490
	H284	H	0.022049	-0.004326	1.008803
	O285	O	0.538453	0.509462	0.531168
	H286	H	0.535966	0.505821	0.530970
	H287	H	0.539809	0.512600	0.527125
	O288	O	0.466727	0.449253	0.499516
	H289	H	0.473680	0.449648	0.504601
	H290	H	0.468987	0.441458	0.494091
	O291	O	0.421061	0.486324	0.472554
	H292	H	0.422868	0.484699	0.465364
	H293	H	0.403499	0.477766	0.480495
	O294	O	0.015793	-0.068028	0.039349
	H295	H	0.017267	-0.078374	0.043607
	H296	H	0.015594	-0.072551	0.040357
	O297	O	0.475561	0.480455	0.477133
	H298	H	0.477107	0.479779	0.474548
	H299	H	0.476724	0.488459	0.473460
	O300	O	0.000674	0.964167	1.024667
	H301	H	-0.007577	0.957867	1.022259
	H302	H	-0.008991	0.963741	1.024766
	O303	O	0.472437	0.528241	0.455178
	H304	H	0.465795	0.538387	0.448882
	H305	H	0.465283	0.531448	0.464759
	O306	O	-0.020301	0.016447	0.962054
	H307	H	-0.023798	0.021476	0.964846
	H308	H	-0.023520	0.021302	0.955159
	O309	O	0.991807	1.003177	0.998197
	H310	H	1.000337	1.002478	0.992606
	H311	H	0.986718	1.003556	1.000176
	O312	O	0.384010	0.510065	0.479954
	H313	H	0.379151	0.499253	0.487848
	H314	H	0.380481	0.502923	0.480016
	O315	O	0.489387	0.440261	0.487532
	H316	H	0.487293	0.439301	0.479850
	H317	H	0.484780	0.439629	0.487594
	O318	O	0.044209	1.010233	-0.004266
	H319	H	0.036318	1.010313	-0.001257
	H320	H	0.045795	1.004658	-0.006559
	O321	O	1.004326	1.055289	-0.002936
	H322	H	1.002524	1.049784	0.000152
	H323	H	1.017826	1.061019	0.008294
