data_Molecule from HDF5

_cell_length_a		16.270623
_cell_length_b		16.309937
_cell_length_c		16.254067
_cell_angle_alpha	89.966546
_cell_angle_beta	89.789905
_cell_angle_gamma	90.061492
_symmetry_space_group_name_H-M	'P 1'
_symmetry_Int_Tables_number		1

loop_
	_symmetry_equiv_pos_as_xyz
	x,y,z

loop_
	_atom_site_label
	_atom_site_type_symbol
	_atom_site_fract_x
	_atom_site_fract_y
	_atom_site_fract_z
	H0	H	0.398449	0.843602	0.716466
	H1	H	0.594908	0.171143	0.715907
	H2	H	0.594791	0.843599	0.288471
	H3	H	0.400846	0.170962	0.287938
	H4	H	0.712170	0.408807	0.838495
	H5	H	0.711495	0.605795	0.166146
	H6	H	0.285628	0.603291	0.837754
	H7	H	0.282179	0.408210	0.166687
	H8	H	0.832606	0.722484	0.403775
	H9	H	0.160757	0.723478	0.599983
	H10	H	0.833056	0.294136	0.601356
	H11	H	0.160023	0.294134	0.402717
	H12	H	0.833732	0.410239	0.717012
	H13	H	0.161496	0.605785	0.714928
	H14	H	0.833642	0.606980	0.287542
	H15	H	0.161059	0.411348	0.288697
	H16	H	0.400392	0.720685	0.837883
	H17	H	0.595618	0.722076	0.166503
	H18	H	0.596778	0.292690	0.838606
	H19	H	0.397506	0.291771	0.165693
	H20	H	0.712272	0.844312	0.402841
	H21	H	0.710625	0.171387	0.599524
	H22	H	0.281965	0.844368	0.600432
	H23	H	0.285154	0.171843	0.404418
	H24	H	0.898946	0.344834	0.217862
	H25	H	0.094578	0.671288	0.214905
	H26	H	0.095671	0.344126	0.787379
	H27	H	0.899864	0.671681	0.789785
	H28	H	0.210456	0.911979	0.337653
	H29	H	0.210376	0.106472	0.666347
	H30	H	0.783613	0.106335	0.337927
	H31	H	0.781998	0.909793	0.665398
	H32	H	0.333325	0.222604	0.903451
	H33	H	0.660858	0.221952	0.099424
	H34	H	0.333990	0.792711	0.100980
	H35	H	0.661607	0.793712	0.903826
	H36	H	0.333572	0.909032	0.216013
	H37	H	0.661781	0.104998	0.214490
	H38	H	0.332838	0.105671	0.788316
	H39	H	0.661391	0.910260	0.787927
	H40	H	0.900756	0.221742	0.337648
	H41	H	0.094111	0.222879	0.665721
	H42	H	0.095539	0.794940	0.338172
	H43	H	0.897462	0.793653	0.665333
	H44	H	0.212208	0.343819	0.903071
	H45	H	0.211856	0.670571	0.100161
	H46	H	0.782370	0.344089	0.102622
	H47	H	0.783466	0.670328	0.904797
	H48	H	0.405891	0.123267	0.596644
	H49	H	0.601553	0.889331	0.589432
	H50	H	0.593344	0.126720	0.401274
	H51	H	0.395450	0.888606	0.408381
	H52	H	0.582510	0.414424	0.116400
	H53	H	0.587414	0.598971	0.886942
	H54	H	0.402664	0.609414	0.122726
	H55	H	0.406727	0.420833	0.888876
	H56	H	0.111744	0.600146	0.410476
	H57	H	0.879822	0.602335	0.597160
	H58	H	0.113900	0.416320	0.596770
	H59	H	0.884503	0.419985	0.419866
	H60	H	0.114336	0.412808	0.593651
	H61	H	0.881391	0.602133	0.595370
	H62	H	0.114472	0.601476	0.405627
	H63	H	0.878639	0.421487	0.399622
	H64	H	0.396606	0.594947	0.119106
	H65	H	0.591103	0.604585	0.884332
	H66	H	0.592345	0.408410	0.121906
	H67	H	0.409498	0.408968	0.885475
	H68	H	0.583707	0.121481	0.408550
	H69	H	0.588606	0.888426	0.607970
	H70	H	0.403053	0.123661	0.593813
	H71	H	0.407557	0.890038	0.402322
	H72	H	0.892776	0.625332	0.089903
	H73	H	0.100271	0.387284	0.097593
	H74	H	0.091422	0.624664	0.906996
	H75	H	0.911287	0.391542	0.904674
	H76	H	0.096498	0.918861	0.619748
	H77	H	0.092888	0.113182	0.382068
	H78	H	0.890846	0.097021	0.621232
	H79	H	0.912739	0.917681	0.387937
	H80	H	0.614712	0.101162	0.903125
	H81	H	0.381308	0.094270	0.100772
	H82	H	0.612957	0.912058	0.086752
	H83	H	0.382569	0.915266	0.911984
	H84	H	0.612726	0.920847	0.097673
	H85	H	0.377773	0.107470	0.098227
	H86	H	0.613580	0.104980	0.913547
	H87	H	0.380105	0.914839	0.905572
	H88	H	0.912192	0.094650	0.614254
	H89	H	0.099872	0.095138	0.384491
	H90	H	0.082677	0.921511	0.615196
	H91	H	0.903356	0.905829	0.381591
	H92	H	0.091707	0.623862	0.909659
	H93	H	0.081891	0.391380	0.103537
	H94	H	0.905363	0.626793	0.106463
	H95	H	0.905169	0.393560	0.917304
	H96	H	0.402196	0.125094	0.598050
	H97	H	0.580107	0.896054	0.588379
	H98	H	0.596040	0.124285	0.414040
	H99	H	0.406039	0.893887	0.415608
	H100	H	0.593090	0.420174	0.117674
	H101	H	0.595014	0.597941	0.885947
	H102	H	0.411615	0.597969	0.116082
	H103	H	0.398435	0.413692	0.883445
	H104	H	0.114003	0.605313	0.409755
	H105	H	0.879970	0.600404	0.596796
	H106	H	0.113084	0.416910	0.591908
	H107	H	0.876723	0.403039	0.408915
	H108	H	0.912624	0.619500	0.088623
	H109	H	0.087156	0.394685	0.085243
	H110	H	0.093899	0.624763	0.908041
	H111	H	0.897570	0.387650	0.906359
	H112	H	0.086751	0.907525	0.620102
	H113	H	0.081257	0.099154	0.388708
	H114	H	0.904866	0.114612	0.622021
	H115	H	0.897147	0.920781	0.384174
	H116	H	0.611369	0.094454	0.910634
	H117	H	0.382940	0.098474	0.088528
	H118	H	0.617346	0.907893	0.099823
	H119	H	0.379199	0.909897	0.909926
	C120	C	0.375269	0.016150	0.624426
	C121	C	0.618586	0.999108	0.623615
	C122	C	0.619272	0.015988	0.379945
	C123	C	0.375624	0.999027	0.380312
	C124	C	0.618580	0.385596	0.010661
	C125	C	0.618883	0.628775	0.994358
	C126	C	0.376038	0.628745	0.010510
	C127	C	0.375712	0.385442	0.994024
	C128	C	0.005249	0.630626	0.380087
	C129	C	0.988718	0.629918	0.623990
	C130	C	0.005622	0.386904	0.623337
	C131	C	0.988231	0.387077	0.380742
	C132	C	0.874908	0.516031	0.124396
	C133	C	0.118417	0.498984	0.123411
	C134	C	0.119970	0.515919	0.880034
	C135	C	0.876259	0.499271	0.881151
	C136	C	0.117878	0.887389	0.510201
	C137	C	0.119009	0.130570	0.493681
	C138	C	0.875155	0.130041	0.510203
	C139	C	0.875542	0.886633	0.493115
	C140	C	0.505161	0.129021	0.880677
	C141	C	0.489082	0.128635	0.123883
	C142	C	0.506008	0.885402	0.123562
	C143	C	0.488980	0.885474	0.880739
	C144	C	0.377916	0.892700	0.678891
	C145	C	0.615710	0.122299	0.678464
	C146	C	0.615983	0.892532	0.325725
	C147	C	0.379650	0.122177	0.325474
	C148	C	0.674281	0.388364	0.887570
	C149	C	0.673694	0.626387	0.117364
	C150	C	0.322442	0.624932	0.886809
	C151	C	0.320091	0.387674	0.117493
	C152	C	0.881956	0.685134	0.383152
	C153	C	0.111798	0.685271	0.620784
	C154	C	0.882294	0.331414	0.621720
	C155	C	0.111639	0.332354	0.382812
	C156	C	0.882422	0.389632	0.678818
	C157	C	0.112258	0.626714	0.677695
	C158	C	0.882169	0.627686	0.325463
	C159	C	0.111922	0.390376	0.325979
	C160	C	0.379301	0.683274	0.887031
	C161	C	0.616025	0.683977	0.117532
	C162	C	0.616791	0.330866	0.887259
	C163	C	0.377329	0.330022	0.117217
	C164	C	0.674484	0.893037	0.382596
	C165	C	0.673272	0.122334	0.620667
	C166	C	0.319544	0.893168	0.621772
	C167	C	0.322207	0.122569	0.383463
	C168	C	0.877479	0.393401	0.180223
	C169	C	0.115750	0.622303	0.177849
	C170	C	0.116887	0.393006	0.824754
	C171	C	0.879028	0.622452	0.826961
	C172	C	0.172904	0.890813	0.386708
	C173	C	0.173052	0.127373	0.617129
	C174	C	0.821381	0.127087	0.386840
	C175	C	0.820267	0.889397	0.616691
	C176	C	0.382155	0.184799	0.882968
	C177	C	0.612350	0.183497	0.120175
	C178	C	0.382744	0.830540	0.121310
	C179	C	0.612386	0.830902	0.883132
	C180	C	0.382536	0.888876	0.178123
	C181	C	0.612495	0.125832	0.177866
	C182	C	0.381683	0.126434	0.826073
	C183	C	0.612440	0.888863	0.825805
	C184	C	0.879279	0.184619	0.386826
	C185	C	0.115372	0.185102	0.616979
	C186	C	0.115841	0.832624	0.387112
	C187	C	0.877299	0.831518	0.616448
	C188	C	0.174391	0.392750	0.882575
	C189	C	0.173859	0.621854	0.120597
	C190	C	0.819708	0.393147	0.122881
	C191	C	0.821227	0.621798	0.884244
	C192	C	0.397223	0.101796	0.602451
	C193	C	0.596608	0.913319	0.601833
	C194	C	0.597610	0.101837	0.401652
	C195	C	0.396666	0.913145	0.402387
	C196	C	0.595892	0.407755	0.096535
	C197	C	0.597347	0.607083	0.907907
	C198	C	0.397409	0.607212	0.096944
	C199	C	0.398249	0.407798	0.908201
	C200	C	0.091197	0.608673	0.401945
	C201	C	0.902443	0.608151	0.602762
	C202	C	0.091477	0.408790	0.600558
	C203	C	0.902246	0.408630	0.402920
	C204	C	0.897035	0.601853	0.101593
	C205	C	0.096243	0.413285	0.101815
	C206	C	0.098670	0.602026	0.901869
	C207	C	0.898257	0.413214	0.902803
	C208	C	0.095154	0.909570	0.596226
	C209	C	0.097599	0.109105	0.407227
	C210	C	0.896386	0.108420	0.596939
	C211	C	0.897700	0.908450	0.406912
	C212	C	0.590854	0.106893	0.902678
	C213	C	0.402821	0.106612	0.102307
	C214	C	0.592325	0.907222	0.101345
	C215	C	0.402903	0.907011	0.902631
	Zn216	Zn	0.497155	0.007406	0.752632
	Zn217	Zn	0.497634	0.006935	0.251950
	Zn218	Zn	0.747494	0.507213	0.002916
	Zn219	Zn	0.247796	0.507083	0.002437
	Zn220	Zn	-0.003328	0.758556	0.501850
	Zn221	Zn	-0.003059	0.258687	0.501771
	Zn222	Zn	-0.002401	0.507954	0.752390
	Zn223	Zn	-0.002908	0.508142	0.252267
	Zn224	Zn	0.497661	0.757208	0.002409
	Zn225	Zn	0.497193	0.257301	0.002454
	Zn226	Zn	0.747421	0.007615	0.501566
	Zn227	Zn	0.246923	0.008135	0.502406
	N228	N	0.411720	0.970012	0.680838
	N229	N	0.582143	0.044810	0.680236
	N230	N	0.582280	0.969797	0.323988
	N231	N	0.411967	0.044434	0.323225
	N232	N	0.675441	0.421880	0.965305
	N233	N	0.675484	0.592694	0.039818
	N234	N	0.320258	0.591759	0.964638
	N235	N	0.319048	0.421574	0.039893
	N236	N	0.959534	0.686897	0.416367
	N237	N	0.034036	0.687158	0.587892
	N238	N	0.959952	0.329811	0.587745
	N239	N	0.033918	0.330113	0.416120
	N240	N	0.959931	0.423238	0.679979
	N241	N	0.034725	0.593017	0.679795
	N242	N	0.959851	0.594320	0.323493
	N243	N	0.034293	0.423790	0.324630
	N244	N	0.411665	0.685910	0.965106
	N245	N	0.582981	0.685618	0.039780
	N246	N	0.582822	0.328990	0.964816
	N247	N	0.411100	0.328383	0.039615
	N248	N	0.676409	0.970709	0.415636
	N249	N	0.675106	0.044919	0.587261
	N250	N	0.317542	0.970847	0.588839
	N251	N	0.319554	0.045108	0.416939
	N252	N	0.911154	0.470817	0.181336
	N253	N	0.081952	0.545010	0.179685
	N254	N	0.083855	0.470704	0.823071
	N255	N	0.912635	0.545209	0.824932
	N256	N	0.174235	0.924160	0.464347
	N257	N	0.175241	0.094054	0.539362
	N258	N	0.818794	0.093906	0.464542
	N259	N	0.819050	0.922832	0.538933
	N260	N	0.459835	0.186221	0.916359
	N261	N	0.534562	0.185230	0.087461
	N262	N	0.460557	0.828626	0.088020
	N263	N	0.534563	0.828766	0.916541
	N264	N	0.460315	0.922233	0.179634
	N265	N	0.534837	0.092367	0.180150
	N266	N	0.459103	0.092611	0.824230
	N267	N	0.534714	0.922177	0.824182
	N268	N	0.912168	0.186301	0.464782
	N269	N	0.082640	0.187091	0.539168
	N270	N	0.082394	0.830493	0.464915
	N271	N	0.911097	0.829883	0.538738
	N272	N	0.176503	0.470142	0.916236
	N273	N	0.175447	0.544292	0.087136
	N274	N	0.818178	0.470405	0.089033
	N275	N	0.819383	0.544087	0.917250
	O276	O	0.007012	-0.040836	0.959226
	H277	H	0.008905	-0.049827	0.946400
	H278	H	0.009391	-0.032912	0.959939
	O279	O	0.471381	0.395142	0.519685
	H280	H	0.462783	0.393283	0.523989
	H281	H	0.469006	0.398361	0.518975
	O282	O	0.516680	0.417616	0.520885
	H283	H	0.502329	0.414688	0.509562
	H284	H	0.518529	0.399763	0.532608
	O285	O	0.477101	0.435993	0.536665
	H286	H	0.479406	0.443657	0.531407
	H287	H	0.485168	0.441664	0.548005
	O288	O	1.032027	-0.031269	-0.040166
	H289	H	1.035779	-0.025963	-0.034007
	H290	H	1.032307	-0.026822	-0.038029
	O291	O	0.043558	1.025238	0.959506
	H292	H	0.049002	1.033130	0.955334
	H293	H	0.039796	1.017470	0.964781
	O294	O	0.520922	0.461691	0.531064
	H295	H	0.528182	0.453425	0.526399
	H296	H	0.523968	0.464942	0.530133
	O297	O	1.016903	-0.027391	-0.018054
	H298	H	1.012105	-0.036251	-0.020164
	H299	H	1.015296	-0.033441	-0.018038
