data_Molecule from HDF5

_cell_length_a		16.268690
_cell_length_b		16.302713
_cell_length_c		16.164240
_cell_angle_alpha	89.415398
_cell_angle_beta	89.979708
_cell_angle_gamma	89.832367
_symmetry_space_group_name_H-M	'P 1'
_symmetry_Int_Tables_number		1

loop_
	_symmetry_equiv_pos_as_xyz
	x,y,z

loop_
	_atom_site_label
	_atom_site_type_symbol
	_atom_site_fract_x
	_atom_site_fract_y
	_atom_site_fract_z
	H0	H	0.377040	0.833313	0.718750
	H1	H	0.577594	0.158634	0.713710
	H2	H	0.578334	0.831212	0.288529
	H3	H	0.380407	0.158192	0.284905
	H4	H	0.692307	0.397330	0.837535
	H5	H	0.689463	0.590320	0.166624
	H6	H	0.257953	0.597639	0.839120
	H7	H	0.261656	0.391885	0.166557
	H8	H	0.815063	0.714425	0.399619
	H9	H	0.141376	0.708674	0.603254
	H10	H	0.814970	0.274370	0.606448
	H11	H	0.139977	0.279274	0.401113
	H12	H	0.812697	0.392937	0.718973
	H13	H	0.139366	0.591235	0.719431
	H14	H	0.812686	0.594779	0.287495
	H15	H	0.139409	0.395799	0.287367
	H16	H	0.373092	0.713377	0.838617
	H17	H	0.576323	0.707601	0.166078
	H18	H	0.577625	0.281353	0.836167
	H19	H	0.376641	0.275375	0.164963
	H20	H	0.696805	0.833331	0.398995
	H21	H	0.695079	0.158167	0.598667
	H22	H	0.261342	0.833151	0.605377
	H23	H	0.261455	0.157201	0.396396
	H24	H	0.875942	0.331164	0.220138
	H25	H	0.073693	0.656982	0.215124
	H26	H	0.075662	0.330213	0.789266
	H27	H	0.873008	0.654661	0.783767
	H28	H	0.193130	0.898522	0.336518
	H29	H	0.194524	0.093690	0.665042
	H30	H	0.763706	0.097382	0.336909
	H31	H	0.761670	0.892590	0.664143
	H32	H	0.314052	0.213968	0.897259
	H33	H	0.641026	0.208258	0.098911
	H34	H	0.315123	0.777140	0.105087
	H35	H	0.638646	0.777117	0.900209
	H36	H	0.314896	0.894627	0.219357
	H37	H	0.642471	0.090931	0.212509
	H38	H	0.313379	0.095993	0.783687
	H39	H	0.640988	0.898114	0.788318
	H40	H	0.876505	0.213857	0.338214
	H41	H	0.078039	0.208073	0.666279
	H42	H	0.079395	0.780931	0.337526
	H43	H	0.879884	0.778798	0.666020
	H44	H	0.193650	0.332371	0.903151
	H45	H	0.193057	0.655256	0.105125
	H46	H	0.760669	0.330710	0.105078
	H47	H	0.761145	0.656526	0.900076
	H48	H	0.381023	0.112515	0.588988
	H49	H	0.570854	0.879074	0.593593
	H50	H	0.567909	0.109052	0.410563
	H51	H	0.389996	0.884567	0.422774
	H52	H	0.568723	0.401415	0.118526
	H53	H	0.566456	0.586206	0.885930
	H54	H	0.385220	0.583526	0.118418
	H55	H	0.384397	0.406380	0.885895
	H56	H	0.091034	0.579925	0.409006
	H57	H	0.859505	0.587951	0.597194
	H58	H	0.094070	0.401188	0.601686
	H59	H	0.858767	0.400375	0.411010
	H60	H	0.092957	0.396296	0.592136
	H61	H	0.861907	0.591692	0.587131
	H62	H	0.096962	0.590241	0.401743
	H63	H	0.861406	0.403104	0.415786
	H64	H	0.384915	0.586535	0.118801
	H65	H	0.568154	0.589324	0.884184
	H66	H	0.567247	0.398682	0.118245
	H67	H	0.385383	0.405326	0.885335
	H68	H	0.577706	0.113181	0.407098
	H69	H	0.570277	0.879707	0.593326
	H70	H	0.387750	0.111524	0.594166
	H71	H	0.372761	0.874612	0.409940
	H72	H	0.883596	0.608357	0.091294
	H73	H	0.075166	0.375243	0.094646
	H74	H	0.069576	0.610085	0.912915
	H75	H	0.885406	0.380669	0.921040
	H76	H	0.071330	0.903622	0.618115
	H77	H	0.061874	0.090578	0.386668
	H78	H	0.890400	0.087948	0.617777
	H79	H	0.886788	0.905079	0.383577
	H80	H	0.596874	0.101253	0.909851
	H81	H	0.362717	0.089151	0.083837
	H82	H	0.595318	0.898706	0.097014
	H83	H	0.358888	0.901409	0.908306
	H84	H	0.593867	0.897373	0.091045
	H85	H	0.363394	0.077934	0.093997
	H86	H	0.588746	0.081882	0.916837
	H87	H	0.362086	0.903486	0.915316
	H88	H	0.881609	0.085366	0.620114
	H89	H	0.075967	0.094123	0.380859
	H90	H	0.068438	0.899781	0.618111
	H91	H	0.888927	0.905032	0.385801
	H92	H	0.065380	0.609962	0.906369
	H93	H	0.065122	0.376436	0.101521
	H94	H	0.877803	0.611256	0.092867
	H95	H	0.872718	0.373086	0.910658
	H96	H	0.388547	0.108710	0.585558
	H97	H	0.570179	0.879882	0.593225
	H98	H	0.569450	0.112402	0.400357
	H99	H	0.394757	0.877592	0.400182
	H100	H	0.569424	0.398633	0.119278
	H101	H	0.570390	0.586092	0.884488
	H102	H	0.382581	0.584412	0.119005
	H103	H	0.384267	0.405346	0.885683
	H104	H	0.092030	0.592252	0.415769
	H105	H	0.864448	0.580800	0.589551
	H106	H	0.089621	0.406461	0.593042
	H107	H	0.861041	0.405863	0.411294
	H108	H	0.883011	0.611031	0.097138
	H109	H	0.064401	0.380183	0.089897
	H110	H	0.062637	0.607711	0.913376
	H111	H	0.889287	0.376331	0.903421
	H112	H	0.073115	0.899377	0.619752
	H113	H	0.072248	0.079952	0.386573
	H114	H	0.887634	0.079093	0.616187
	H115	H	0.888927	0.903648	0.383787
	H116	H	0.595793	0.084219	0.895855
	H117	H	0.358151	0.091192	0.098341
	H118	H	0.593670	0.903034	0.092713
	H119	H	0.361842	0.909298	0.909406
	C120	C	0.355950	0.003843	0.621807
	C121	C	0.600114	0.987052	0.621820
	C122	C	0.601233	0.003667	0.377852
	C123	C	0.356726	0.986542	0.379491
	C124	C	0.598435	0.371944	0.010095
	C125	C	0.597337	0.615141	0.993252
	C126	C	0.353338	0.616642	0.011087
	C127	C	0.355454	0.373636	0.993444
	C128	C	-0.014407	0.617514	0.379113
	C129	C	0.969177	0.615419	0.622684
	C130	C	-0.015004	0.371287	0.625428
	C131	C	0.968020	0.373790	0.382258
	C132	C	0.853241	0.502221	0.124251
	C133	C	0.097314	0.484981	0.124155
	C134	C	0.096348	0.502239	0.881722
	C135	C	0.853260	0.484144	0.880755
	C136	C	0.100644	0.873158	0.510215
	C137	C	0.099581	0.116440	0.493054
	C138	C	0.856949	0.115675	0.509865
	C139	C	0.857944	0.873803	0.492715
	C140	C	0.485863	0.118654	0.877402
	C141	C	0.469537	0.114814	0.121120
	C142	C	0.486303	0.871165	0.124199
	C143	C	0.468341	0.874640	0.880791
	C144	C	0.356927	0.881980	0.680209
	C145	C	0.598109	0.109695	0.676299
	C146	C	0.599234	0.880743	0.324498
	C147	C	0.359273	0.109168	0.322348
	C148	C	0.654371	0.375987	0.886341
	C149	C	0.652380	0.611544	0.117228
	C150	C	0.296151	0.617041	0.888154
	C151	C	0.299501	0.372775	0.117245
	C152	C	0.863301	0.674902	0.380426
	C153	C	0.092202	0.670606	0.622628
	C154	C	0.863343	0.313360	0.625607
	C155	C	0.090931	0.317913	0.382494
	C156	C	0.861948	0.372484	0.681438
	C157	C	0.091072	0.612392	0.680815
	C158	C	0.862157	0.615388	0.324545
	C159	C	0.090693	0.375894	0.325771
	C160	C	0.353593	0.674691	0.887816
	C161	C	0.595819	0.669748	0.116900
	C162	C	0.597140	0.318530	0.885861
	C163	C	0.356859	0.315086	0.116548
	C164	C	0.658013	0.881722	0.379823
	C165	C	0.656671	0.109442	0.619264
	C166	C	0.299514	0.881771	0.623596
	C167	C	0.300493	0.108848	0.378595
	C168	C	0.855622	0.379647	0.181639
	C169	C	0.094483	0.607839	0.178459
	C170	C	0.095654	0.379248	0.826895
	C171	C	0.853813	0.606324	0.822694
	C172	C	0.155552	0.877579	0.385895
	C173	C	0.155842	0.113510	0.616233
	C174	C	0.801633	0.116243	0.386086
	C175	C	0.800515	0.873247	0.615532
	C176	C	0.363051	0.175549	0.877519
	C177	C	0.592462	0.170103	0.118852
	C178	C	0.363738	0.815307	0.124687
	C179	C	0.590407	0.816785	0.880877
	C180	C	0.363866	0.873683	0.181513
	C181	C	0.593078	0.112009	0.175790
	C182	C	0.362910	0.117120	0.820716
	C183	C	0.591603	0.876722	0.825197
	C184	C	0.857345	0.174551	0.386903
	C185	C	0.098001	0.170604	0.616772
	C186	C	0.099130	0.819143	0.386268
	C187	C	0.859349	0.816802	0.616465
	C188	C	0.154539	0.380317	0.883306
	C189	C	0.153599	0.607165	0.123254
	C190	C	0.797978	0.379638	0.124548
	C191	C	0.798081	0.607220	0.880613
	C192	C	0.378987	0.088823	0.596885
	C193	C	0.577283	0.901807	0.599706
	C194	C	0.578424	0.089330	0.399554
	C195	C	0.379290	0.900967	0.403880
	C196	C	0.575199	0.393192	0.096433
	C197	C	0.574695	0.593558	0.907036
	C198	C	0.377204	0.592164	0.096526
	C199	C	0.378230	0.398480	0.907859
	C200	C	0.071112	0.594192	0.401955
	C201	C	0.883990	0.593290	0.598504
	C202	C	0.070241	0.394702	0.602486
	C203	C	0.882374	0.396578	0.405779
	C204	C	0.875021	0.587931	0.100784
	C205	C	0.074797	0.399511	0.101828
	C206	C	0.072704	0.587085	0.904115
	C207	C	0.875834	0.398726	0.904753
	C208	C	0.077779	0.894613	0.596390
	C209	C	0.076657	0.094818	0.407235
	C210	C	0.879822	0.091107	0.595678
	C211	C	0.881411	0.897711	0.406601
	C212	C	0.571516	0.095917	0.900574
	C213	C	0.383781	0.092562	0.098593
	C214	C	0.572070	0.893076	0.100494
	C215	C	0.383230	0.897998	0.904182
	Zn216	Zn	0.477260	-0.004503	0.750229
	Zn217	Zn	0.478745	-0.005855	0.251021
	Zn218	Zn	0.725338	0.494066	0.002133
	Zn219	Zn	0.226019	0.494122	0.003173
	Zn220	Zn	-0.020846	0.745462	0.500933
	Zn221	Zn	-0.023065	0.244100	0.502283
	Zn222	Zn	-0.025035	0.493041	0.753013
	Zn223	Zn	-0.024672	0.493963	0.251934
	Zn224	Zn	0.476170	0.743690	0.001683
	Zn225	Zn	0.476851	0.244872	0.000411
	Zn226	Zn	0.728991	-0.004964	0.500019
	Zn227	Zn	0.228210	-0.004807	0.501166
	N228	N	0.391604	0.958832	0.679064
	N229	N	0.563799	0.032619	0.678252
	N230	N	0.564490	0.957577	0.323171
	N231	N	0.393573	0.032124	0.322952
	N232	N	0.655293	0.408520	0.964607
	N233	N	0.653400	0.578340	0.039379
	N234	N	0.295865	0.581769	0.965757
	N235	N	0.298314	0.408417	0.039646
	N236	N	0.941202	0.676489	0.413528
	N237	N	0.015345	0.672473	0.587221
	N238	N	0.940697	0.312419	0.591567
	N239	N	0.013697	0.316762	0.417235
	N240	N	0.938723	0.407771	0.681629
	N241	N	0.013706	0.578814	0.680929
	N242	N	0.939186	0.580305	0.323736
	N243	N	0.013111	0.409978	0.325386
	N244	N	0.388468	0.674606	0.965382
	N245	N	0.562193	0.672152	0.038813
	N246	N	0.563320	0.315853	0.963854
	N247	N	0.390897	0.315620	0.038702
	N248	N	0.659614	0.959515	0.412128
	N249	N	0.658020	0.032077	0.586163
	N250	N	0.298780	0.958654	0.587974
	N251	N	0.298727	0.031464	0.413451
	N252	N	0.889413	0.456806	0.181487
	N253	N	0.060132	0.530868	0.179162
	N254	N	0.060203	0.455831	0.825729
	N255	N	0.887586	0.528938	0.822752
	N256	N	0.156781	0.910199	0.464013
	N257	N	0.157327	0.080991	0.538191
	N258	N	0.800986	0.080694	0.463474
	N259	N	0.799597	0.907914	0.537609
	N260	N	0.440587	0.176988	0.911555
	N261	N	0.514633	0.172072	0.085621
	N262	N	0.440796	0.813539	0.089817
	N263	N	0.512764	0.815304	0.914661
	N264	N	0.441265	0.907558	0.181312
	N265	N	0.515732	0.077965	0.177092
	N266	N	0.440320	0.082606	0.820211
	N267	N	0.514694	0.911956	0.824988
	N268	N	0.891133	0.174383	0.464908
	N269	N	0.063572	0.172457	0.539106
	N270	N	0.066059	0.815972	0.464536
	N271	N	0.894283	0.817140	0.538832
	N272	N	0.155163	0.457673	0.916643
	N273	N	0.155379	0.529744	0.090151
	N274	N	0.796480	0.456861	0.089508
	N275	N	0.797296	0.530156	0.915896
	O276	O	0.481303	-0.516075	1.464175
	H277	H	0.477369	-0.518074	1.470521
	H278	H	0.488795	-0.512500	1.464321
	O279	O	0.513904	0.548480	0.521649
	H280	H	0.517290	0.556403	0.517830
	H281	H	0.514978	0.534191	0.522796
	O282	O	1.069760	0.996799	0.034086
	H283	H	1.065051	1.000990	0.026159
	H284	H	1.069044	0.994775	0.033911
	O285	O	0.420688	0.493576	0.630812
	H286	H	0.418453	0.503942	0.616819
	H287	H	0.416609	0.488332	0.637838
	O288	O	0.500708	0.577980	0.581672
	H289	H	0.504222	0.575491	0.583408
	H290	H	0.503525	0.571740	0.574416
	O291	O	0.439488	-0.609439	1.502067
	H292	H	0.448234	-0.608735	1.502602
	H293	H	0.437230	-0.612875	1.498529
	O294	O	0.962679	0.941331	0.082106
	H295	H	0.951436	0.934798	0.083782
	H296	H	0.968177	0.930641	0.086456
	O297	O	1.046238	1.108639	0.102971
	H298	H	1.052145	1.101444	0.098908
	H299	H	1.039424	1.111593	0.092748
	O300	O	0.631579	0.570248	0.682768
	H301	H	0.640044	0.563337	0.683589
	H302	H	0.637555	0.565569	0.689175
	O303	O	0.409013	0.339709	0.596270
	H304	H	0.402313	0.322805	0.601127
	H305	H	0.395445	0.343990	0.605912
	O306	O	0.516466	0.523454	0.397352
	H307	H	0.519705	0.519294	0.409576
	H308	H	0.516866	0.542645	0.390990
	O309	O	0.389332	0.556087	0.431503
	H310	H	0.392019	0.563470	0.425703
	H311	H	0.386099	0.559916	0.435681
	O312	O	1.500420	0.459987	1.487149
	H313	H	1.490696	0.466077	1.496997
	H314	H	1.517054	0.469865	1.491508
	O315	O	0.975436	1.116066	0.021817
	H316	H	0.973753	1.114270	0.028777
	H317	H	0.978917	1.119478	0.018947
	O318	O	0.982542	-0.097701	-0.038720
	H319	H	0.983795	-0.096319	-0.025375
	H320	H	0.973188	-0.094265	-0.038773
	O321	O	0.399691	0.518821	0.558433
	H322	H	0.390209	0.524641	0.559770
	H323	H	0.409860	0.524935	0.570867
	O324	O	0.063694	0.958310	0.962855
	H325	H	0.072591	0.944893	0.969203
	H326	H	0.057735	0.965004	0.948650
	O327	O	-0.065339	1.083899	0.893203
	H328	H	-0.074834	1.092995	0.902360
	H329	H	-0.073688	1.084019	0.888573
	O330	O	-0.541955	0.562013	0.416216
	H331	H	-0.550559	0.563767	0.412881
	H332	H	-0.543798	0.559746	0.435990
	O333	O	0.442714	0.447811	0.479131
	H334	H	0.435397	0.455906	0.477324
	H335	H	0.441788	0.440589	0.483115
	O336	O	-0.018977	-0.001040	-0.099261
	H337	H	-0.020881	0.005636	-0.095400
	H338	H	-0.021255	0.002669	-0.098920
	O339	O	-0.009279	0.051694	-0.040911
	H340	H	-0.010807	0.042942	-0.041823
	H341	H	-0.001157	0.059966	-0.028535
	O342	O	0.561147	0.478642	0.506568
	H343	H	0.556146	0.469997	0.494006
	H344	H	0.556971	0.468177	0.501444
	O345	O	0.069376	0.975085	0.964027
	H346	H	0.086112	0.974287	0.967208
	H347	H	0.064128	0.984432	0.964254
	O348	O	0.924307	0.929633	0.943610
	H349	H	0.938297	0.929316	0.937214
	H350	H	0.924208	0.935758	0.942823
	O351	O	0.357697	0.473397	0.490353
	H352	H	0.352367	0.474795	0.494029
	H353	H	0.360068	0.470402	0.500444
	O354	O	0.877794	1.024915	-0.948893
	H355	H	0.874063	1.010879	-0.952476
	H356	H	0.868460	1.024526	-0.952490
	O357	O	1.109660	1.085445	1.084851
	H358	H	1.112540	1.086186	1.097148
	H359	H	1.112001	1.092795	1.085202
	O360	O	1.073729	-0.126553	0.912676
	H361	H	1.076043	-0.126874	0.906979
	H362	H	1.075897	-0.125456	0.909792
	O363	O	-0.065120	0.945107	0.086108
	H364	H	-0.069681	0.941743	0.079669
	H365	H	-0.068882	0.948963	0.087789
	O366	O	0.404279	0.503718	0.528229
	H367	H	0.405947	0.505505	0.528991
	H368	H	0.414921	0.508828	0.547419
	O369	O	0.919267	-0.042425	0.120761
	H370	H	0.922497	-0.042058	0.118666
	H371	H	0.919771	-0.050003	0.136863
	O372	O	0.445150	0.475722	0.414659
	H373	H	0.439547	0.469617	0.416295
	H374	H	0.443894	0.468136	0.415585
	O375	O	0.965580	0.105220	0.995398
	H376	H	0.960985	0.106193	0.996972
	H377	H	0.957627	0.106519	0.988709
	O378	O	-0.469826	1.461402	-0.587549
	H379	H	-0.487823	1.464306	-0.580500
	H380	H	-0.474563	1.465504	-0.582751
	O381	O	0.463489	0.634577	0.523295
	H382	H	0.476214	0.637174	0.522504
	H383	H	0.462527	0.647886	0.516943
	O384	O	1.446262	1.486357	-0.402045
	H385	H	1.441927	1.485008	-0.405744
	H386	H	1.454561	1.478536	-0.407048
	O387	O	0.930199	-0.119333	0.889607
	H388	H	0.933306	-0.125896	0.883776
	H389	H	0.932660	-0.125315	0.901971
	O390	O	1.565454	0.417207	0.542915
	H391	H	1.550175	0.419000	0.542445
	H392	H	1.565972	0.399802	0.533678
	O393	O	0.946372	0.889554	0.066484
	H394	H	0.955712	0.883630	0.062892
	H395	H	0.948685	0.897153	0.068953
