data_Molecule from HDF5

_cell_length_a		16.150842
_cell_length_b		16.232714
_cell_length_c		16.255025
_cell_angle_alpha	90.117145
_cell_angle_beta	90.730808
_cell_angle_gamma	89.764594
_symmetry_space_group_name_H-M	'P 1'
_symmetry_Int_Tables_number		1

loop_
	_symmetry_equiv_pos_as_xyz
	x,y,z

loop_
	_atom_site_label
	_atom_site_type_symbol
	_atom_site_fract_x
	_atom_site_fract_y
	_atom_site_fract_z
	H0	H	0.407089	0.841664	0.713703
	H1	H	0.606085	0.169172	0.717923
	H2	H	0.602959	0.841200	0.286273
	H3	H	0.400324	0.169173	0.282655
	H4	H	0.714050	0.406422	0.835969
	H5	H	0.722236	0.604185	0.163850
	H6	H	0.286260	0.604799	0.836645
	H7	H	0.293021	0.408137	0.165527
	H8	H	0.839034	0.720275	0.398779
	H9	H	0.169099	0.718415	0.601149
	H10	H	0.838101	0.292707	0.594472
	H11	H	0.167173	0.288656	0.400160
	H12	H	0.837809	0.406783	0.710261
	H13	H	0.167546	0.603919	0.717491
	H14	H	0.839531	0.605269	0.282642
	H15	H	0.167938	0.404916	0.286889
	H16	H	0.402252	0.720267	0.836725
	H17	H	0.606186	0.721619	0.164242
	H18	H	0.601876	0.288523	0.837383
	H19	H	0.406142	0.290180	0.163756
	H20	H	0.716608	0.840631	0.404414
	H21	H	0.720110	0.169600	0.600918
	H22	H	0.292734	0.841335	0.596106
	H23	H	0.286844	0.169304	0.399809
	H24	H	0.904563	0.342386	0.214012
	H25	H	0.104914	0.669008	0.217297
	H26	H	0.102833	0.341542	0.784665
	H27	H	0.900803	0.669334	0.783858
	H28	H	0.216633	0.905948	0.335337
	H29	H	0.221353	0.104954	0.663488
	H30	H	0.784503	0.104470	0.336726
	H31	H	0.794120	0.908617	0.664473
	H32	H	0.340110	0.219627	0.900142
	H33	H	0.669204	0.219091	0.103057
	H34	H	0.339610	0.792455	0.097094
	H35	H	0.668236	0.788992	0.903604
	H36	H	0.338715	0.907498	0.211821
	H37	H	0.668369	0.104849	0.218824
	H38	H	0.340616	0.105992	0.782824
	H39	H	0.669632	0.904868	0.789109
	H40	H	0.898984	0.221686	0.336279
	H41	H	0.106279	0.222431	0.663096
	H42	H	0.102984	0.789237	0.336439
	H43	H	0.907182	0.791892	0.663138
	H44	H	0.218592	0.341117	0.902056
	H45	H	0.218125	0.670133	0.100590
	H46	H	0.794079	0.340492	0.094290
	H47	H	0.785018	0.668937	0.899890
	H48	H	0.417418	0.119724	0.585441
	H49	H	0.592600	0.891951	0.586951
	H50	H	0.589751	0.120126	0.412132
	H51	H	0.409922	0.887312	0.402364
	H52	H	0.601076	0.418708	0.115381
	H53	H	0.593013	0.595066	0.885184
	H54	H	0.401129	0.614592	0.124954
	H55	H	0.414498	0.414389	0.886042
	H56	H	0.122248	0.610095	0.419282
	H57	H	0.886019	0.600655	0.590629
	H58	H	0.119196	0.417663	0.594751
	H59	H	0.887414	0.415881	0.406681
	H60	H	0.122567	0.411572	0.596493
	H61	H	0.885459	0.600471	0.590692
	H62	H	0.116366	0.583211	0.414901
	H63	H	0.885218	0.415701	0.402897
	H64	H	0.404187	0.584414	0.115749
	H65	H	0.589947	0.598569	0.884778
	H66	H	0.592797	0.408045	0.118329
	H67	H	0.410261	0.409090	0.882972
	H68	H	0.597942	0.123181	0.411350
	H69	H	0.609661	0.885919	0.593202
	H70	H	0.403644	0.125526	0.591532
	H71	H	0.414559	0.889504	0.405757
	H72	H	0.907649	0.624409	0.091485
	H73	H	0.098270	0.387559	0.096222
	H74	H	0.089302	0.619850	0.910091
	H75	H	0.907558	0.386402	0.900551
	H76	H	0.100198	0.905820	0.619174
	H77	H	0.093536	0.094543	0.384026
	H78	H	0.896404	0.101900	0.622310
	H79	H	0.907961	0.916897	0.383108
	H80	H	0.624969	0.098845	0.902041
	H81	H	0.385972	0.093435	0.096217
	H82	H	0.623592	0.911695	0.099779
	H83	H	0.391722	0.922428	0.915150
	H84	H	0.621524	0.909225	0.091261
	H85	H	0.384889	0.104788	0.091215
	H86	H	0.623585	0.103160	0.914820
	H87	H	0.385095	0.919170	0.892561
	H88	H	0.918846	0.084011	0.608884
	H89	H	0.091169	0.099254	0.383385
	H90	H	0.105633	0.916421	0.617346
	H91	H	0.913420	0.908660	0.382356
	H92	H	0.096908	0.621814	0.911226
	H93	H	0.096517	0.388689	0.092853
	H94	H	0.914739	0.623907	0.094511
	H95	H	0.912672	0.389085	0.903399
	H96	H	0.416285	0.123225	0.600573
	H97	H	0.595618	0.886764	0.604798
	H98	H	0.592859	0.123216	0.404657
	H99	H	0.408576	0.888717	0.407840
	H100	H	0.605927	0.408152	0.120547
	H101	H	0.595095	0.598621	0.883004
	H102	H	0.428623	0.603862	0.113598
	H103	H	0.407546	0.416095	0.883831
	H104	H	0.126794	0.599439	0.393742
	H105	H	0.885171	0.599567	0.590539
	H106	H	0.120061	0.413082	0.589279
	H107	H	0.885667	0.412694	0.405405
	H108	H	0.913039	0.620421	0.088006
	H109	H	0.100744	0.388181	0.092867
	H110	H	0.093133	0.623431	0.904613
	H111	H	0.907292	0.388037	0.906187
	H112	H	0.093870	0.914704	0.613159
	H113	H	0.096238	0.098520	0.382249
	H114	H	0.925449	0.114281	0.617631
	H115	H	0.903796	0.908410	0.379608
	H116	H	0.619639	0.090543	0.911187
	H117	H	0.389769	0.096407	0.084999
	H118	H	0.619982	0.917733	0.094305
	H119	H	0.383726	0.900991	0.907517
	C120	C	0.384420	0.014017	0.620777
	C121	C	0.627866	0.996744	0.623887
	C122	C	0.623469	0.013753	0.380534
	C123	C	0.380835	0.996840	0.376452
	C124	C	0.626346	0.382662	0.009589
	C125	C	0.624662	0.626797	0.992060
	C126	C	0.381038	0.628979	0.009311
	C127	C	0.382482	0.384251	0.992362
	C128	C	0.012788	0.627200	0.378553
	C129	C	0.994522	0.628189	0.621571
	C130	C	0.011692	0.384890	0.620429
	C131	C	0.994587	0.384261	0.377449
	C132	C	0.883599	0.514070	0.119619
	C133	C	0.126746	0.496851	0.122711
	C134	C	0.123779	0.513925	0.878820
	C135	C	0.879739	0.496429	0.875793
	C136	C	0.127180	0.883080	0.508357
	C137	C	0.125049	0.127424	0.491379
	C138	C	0.881733	0.128372	0.508564
	C139	C	0.882369	0.884025	0.490752
	C140	C	0.513785	0.126768	0.879278
	C141	C	0.495492	0.127016	0.122143
	C142	C	0.512655	0.884857	0.121972
	C143	C	0.495686	0.884310	0.878402
	C144	C	0.387039	0.890611	0.675567
	C145	C	0.625857	0.120181	0.679587
	C146	C	0.622446	0.890190	0.324798
	C147	C	0.381422	0.120176	0.320985
	C148	C	0.678290	0.385205	0.885329
	C149	C	0.683090	0.624782	0.115345
	C150	C	0.324473	0.625441	0.885991
	C151	C	0.329139	0.387234	0.115718
	C152	C	0.888613	0.682808	0.379019
	C153	C	0.119332	0.681523	0.620738
	C154	C	0.887370	0.329986	0.615802
	C155	C	0.118224	0.327010	0.380184
	C156	C	0.887153	0.387168	0.673101
	C157	C	0.118541	0.624763	0.678768
	C158	C	0.888809	0.625439	0.321301
	C159	C	0.118722	0.384804	0.323721
	C160	C	0.382190	0.682855	0.885748
	C161	C	0.625536	0.683043	0.115363
	C162	C	0.622168	0.327009	0.886016
	C163	C	0.385635	0.328563	0.115024
	C164	C	0.678862	0.889806	0.383614
	C165	C	0.683022	0.120264	0.621835
	C166	C	0.330114	0.890337	0.617137
	C167	C	0.324717	0.120278	0.379150
	C168	C	0.885473	0.390945	0.175264
	C169	C	0.124920	0.620086	0.178991
	C170	C	0.122573	0.390517	0.823126
	C171	C	0.880375	0.619974	0.820856
	C172	C	0.179981	0.885662	0.384763
	C173	C	0.182699	0.125538	0.614324
	C174	C	0.823180	0.125647	0.385367
	C175	C	0.830542	0.887755	0.615096
	C176	C	0.389390	0.182311	0.880076
	C177	C	0.619759	0.181701	0.122068
	C178	C	0.388495	0.830210	0.117769
	C179	C	0.619336	0.827379	0.882482
	C180	C	0.388259	0.887209	0.174960
	C181	C	0.619282	0.124987	0.179859
	C182	C	0.389823	0.125773	0.821593
	C183	C	0.620042	0.885166	0.825807
	C184	C	0.880045	0.184010	0.385351
	C185	C	0.125486	0.183967	0.614239
	C186	C	0.123454	0.827388	0.385276
	C187	C	0.886583	0.829638	0.614295
	C188	C	0.180521	0.390513	0.881074
	C189	C	0.181226	0.620642	0.120815
	C190	C	0.830226	0.389968	0.115913
	C191	C	0.823358	0.620001	0.878898
	C192	C	0.405985	0.100601	0.598980
	C193	C	0.605790	0.910551	0.601692
	C194	C	0.600325	0.099916	0.402738
	C195	C	0.404253	0.910594	0.398899
	C196	C	0.605915	0.404971	0.095697
	C197	C	0.599911	0.604028	0.906691
	C198	C	0.404465	0.607349	0.095767
	C199	C	0.404242	0.406673	0.906473
	C200	C	0.099458	0.604378	0.402483
	C201	C	0.907954	0.606699	0.597737
	C202	C	0.098236	0.407493	0.599659
	C203	C	0.908514	0.407717	0.398772
	C204	C	0.905283	0.600583	0.097778
	C205	C	0.104891	0.410499	0.100385
	C206	C	0.100237	0.599542	0.901767
	C207	C	0.902483	0.410177	0.897063
	C208	C	0.106043	0.905636	0.594269
	C209	C	0.100803	0.104327	0.405428
	C210	C	0.906283	0.106570	0.593999
	C211	C	0.902321	0.905155	0.404329
	C212	C	0.600303	0.104330	0.902625
	C213	C	0.409277	0.104887	0.098043
	C214	C	0.599417	0.906500	0.101315
	C215	C	0.409034	0.907467	0.898992
	Zn216	Zn	0.505482	0.005524	0.750577
	Zn217	Zn	0.503531	0.005886	0.249942
	Zn218	Zn	0.753388	0.504840	-0.000451
	Zn219	Zn	0.253375	0.505829	0.000744
	Zn220	Zn	0.004316	0.755953	0.499710
	Zn221	Zn	0.003511	0.256768	0.498906
	Zn222	Zn	0.001935	0.505500	0.749118
	Zn223	Zn	0.004404	0.505562	0.249472
	Zn224	Zn	0.503566	0.756383	0.000529
	Zn225	Zn	0.504843	0.255063	0.001027
	Zn226	Zn	0.754059	0.005263	0.500718
	Zn227	Zn	0.254473	0.005541	0.499344
	N228	N	0.419793	0.968741	0.678040
	N229	N	0.592755	0.042078	0.681382
	N230	N	0.588456	0.968084	0.323030
	N231	N	0.415401	0.042310	0.319249
	N232	N	0.681123	0.419500	0.962913
	N233	N	0.682695	0.590433	0.037837
	N234	N	0.323610	0.592863	0.964027
	N235	N	0.327246	0.421423	0.038243
	N236	N	0.966690	0.683701	0.414183
	N237	N	0.041101	0.684018	0.586002
	N238	N	0.965881	0.328326	0.583869
	N239	N	0.040130	0.326728	0.412857
	N240	N	0.965394	0.420467	0.676355
	N241	N	0.040049	0.592485	0.679438
	N242	N	0.967138	0.591787	0.320731
	N243	N	0.041000	0.419807	0.321785
	N244	N	0.416522	0.685290	0.963591
	N245	N	0.589816	0.684342	0.037954
	N246	N	0.590859	0.325087	0.964187
	N247	N	0.418155	0.326629	0.037260
	N248	N	0.679688	0.967663	0.417459
	N249	N	0.684472	0.042531	0.588023
	N250	N	0.328120	0.968264	0.583951
	N251	N	0.324257	0.042534	0.413081
	N252	N	0.917854	0.469136	0.177622
	N253	N	0.091532	0.542152	0.180177
	N254	N	0.087738	0.468193	0.821809
	N255	N	0.914637	0.542223	0.818887
	N256	N	0.182671	0.919530	0.462455
	N257	N	0.182621	0.091133	0.536776
	N258	N	0.823805	0.091924	0.462960
	N259	N	0.827545	0.920897	0.537230
	N260	N	0.467281	0.183040	0.915218
	N261	N	0.541733	0.183170	0.086849
	N262	N	0.466936	0.828328	0.085577
	N263	N	0.540816	0.826590	0.914393
	N264	N	0.466343	0.920432	0.177718
	N265	N	0.541203	0.091657	0.179958
	N266	N	0.468198	0.092153	0.820809
	N267	N	0.542166	0.919903	0.823087
	N268	N	0.916148	0.185645	0.462430
	N269	N	0.090310	0.185070	0.536695
	N270	N	0.091292	0.825583	0.463213
	N271	N	0.918095	0.827038	0.536146
	N272	N	0.181384	0.468175	0.914874
	N273	N	0.182545	0.543008	0.086629
	N274	N	0.829142	0.467615	0.081802
	N275	N	0.822359	0.542063	0.911939
	O276	O	0.399588	0.412488	0.509836
	H277	H	0.396688	0.415913	0.517677
	H278	H	0.399665	0.401506	0.504409
	O279	O	0.518846	0.403430	0.506025
	H280	H	0.528677	0.407276	0.499170
	H281	H	0.526360	0.394727	0.485544
	O282	O	0.958651	1.099366	-0.092749
	H283	H	0.950638	1.094744	-0.100012
	H284	H	0.955660	1.093898	-0.091112
	O285	O	0.954200	-0.017307	1.101461
	H286	H	0.955544	-0.002175	1.106252
	H287	H	0.935054	-0.003258	1.095964
	O288	O	0.533747	0.451837	0.388932
	H289	H	0.548054	0.462683	0.380389
	H290	H	0.538272	0.454774	0.379040
	O291	O	0.492218	0.594937	0.526249
	H292	H	0.496834	0.602252	0.517717
	H293	H	0.490047	0.596559	0.520497
	O294	O	0.487081	0.476317	0.546662
	H295	H	0.487217	0.469578	0.550725
	H296	H	0.484596	0.468751	0.554717
	O297	O	0.023981	-0.070221	1.048068
	H298	H	0.025676	-0.074564	1.041742
	H299	H	0.029212	-0.063938	1.058634
	O300	O	0.525755	0.559593	0.506648
	H301	H	0.511184	0.548695	0.500848
	H302	H	0.524935	0.571159	0.507016
	O303	O	0.589029	0.518663	0.588701
	H304	H	0.607263	0.519526	0.588856
	H305	H	0.577961	0.514312	0.586371
	O306	O	-0.034305	1.041034	0.977271
	H307	H	-0.037576	1.039282	0.977304
	H308	H	-0.044470	1.057307	0.976854
	O309	O	0.508805	0.537060	0.425634
	H310	H	0.504935	0.551591	0.426629
	H311	H	0.509833	0.547947	0.423954
	O312	O	0.022168	0.000847	0.069721
	H313	H	0.022651	0.000288	0.067176
	H314	H	0.024307	-0.000005	0.071999
	O315	O	1.002135	0.094070	-0.024523
	H316	H	1.001346	0.103838	-0.027471
	H317	H	1.005232	0.073970	-0.022032
	O318	O	1.065558	0.941054	1.037487
	H319	H	1.064260	0.947276	1.045562
	H320	H	1.067368	0.931039	1.035909
	O321	O	0.023684	0.030379	1.033626
	H322	H	0.032559	0.042592	1.032780
	H323	H	0.030878	0.025286	1.031214
	O324	O	0.569322	0.547988	0.540005
	H325	H	0.571407	0.551980	0.547095
	H326	H	0.562105	0.542786	0.536194
	O327	O	0.075107	0.030181	-0.065338
	H328	H	0.081844	0.046551	-0.066387
	H329	H	0.079225	0.027794	-0.060595
	O330	O	0.605361	0.529162	0.495981
	H331	H	0.599325	0.517896	0.495099
	H332	H	0.588682	0.539146	0.497098
	O333	O	0.100011	0.927919	0.918379
	H334	H	0.101995	0.918842	0.924353
	H335	H	0.103776	0.937324	0.931794
	O336	O	-0.082682	-0.062313	0.012442
	H337	H	-0.081321	-0.059152	0.006986
	H338	H	-0.093163	-0.068750	0.005298
	O339	O	0.495502	0.575245	0.578555
	H340	H	0.494093	0.580976	0.583498
	H341	H	0.497894	0.593158	0.570567
	O342	O	1.006185	0.926715	1.022584
	H343	H	1.012022	0.927120	1.028065
	H344	H	1.005755	0.927678	1.013232
	O345	O	1.093778	1.020534	0.096710
	H346	H	1.090184	1.032321	0.089490
	H347	H	1.080998	1.015497	0.095529
	O348	O	0.539172	0.494886	0.440944
	H349	H	0.535497	0.488584	0.442351
	H350	H	0.552833	0.494942	0.443941
	O351	O	0.532423	0.575868	0.498997
	H352	H	0.534270	0.577233	0.499551
	H353	H	0.524059	0.587492	0.503579
	O354	O	0.095595	0.090767	0.122992
	H355	H	0.088589	0.084667	0.117851
	H356	H	0.106437	0.100428	0.126341
	O357	O	1.012325	0.094345	0.972779
	H358	H	1.019412	0.092625	0.957880
	H359	H	1.008719	0.110072	0.971494
	O360	O	0.453308	0.473514	0.514762
	H361	H	0.459683	0.476452	0.525599
	H362	H	0.447976	0.464084	0.515769
	O363	O	0.439201	0.548767	0.394296
	H364	H	0.431421	0.543012	0.403194
	H365	H	0.444612	0.543707	0.384539
	O366	O	0.927961	1.036843	0.891667
	H367	H	0.930733	1.030113	0.885654
	H368	H	0.926703	1.037814	0.883326
	O369	O	1.116824	0.021864	0.961141
	H370	H	1.118576	0.006223	0.963035
	H371	H	1.120328	0.008907	0.957879
	O372	O	-0.008594	-0.011156	-0.085898
	H373	H	0.002277	-0.004312	-0.090282
	H374	H	0.010784	-0.016491	-0.087351
	O375	O	1.085715	-0.117677	-0.102453
	H376	H	1.088817	-0.122623	-0.103630
	H377	H	1.106124	-0.120228	-0.095726
	O378	O	0.393425	0.498257	0.480201
	H379	H	0.397625	0.484938	0.492967
	H380	H	0.385188	0.493493	0.481401
	O381	O	0.493257	0.491715	0.582437
	H382	H	0.491398	0.499315	0.578722
	H383	H	0.499916	0.503628	0.581732
