data_Molecule from HDF5

_cell_length_a		16.185439
_cell_length_b		16.139048
_cell_length_c		16.385095
_cell_angle_alpha	90.079401
_cell_angle_beta	90.335656
_cell_angle_gamma	90.031629
_symmetry_space_group_name_H-M	'P 1'
_symmetry_Int_Tables_number		1

loop_
	_symmetry_equiv_pos_as_xyz
	x,y,z

loop_
	_atom_site_label
	_atom_site_type_symbol
	_atom_site_fract_x
	_atom_site_fract_y
	_atom_site_fract_z
	H0	H	0.394671	0.837349	0.711518
	H1	H	0.597259	0.165757	0.713572
	H2	H	0.595328	0.837909	0.283483
	H3	H	0.394524	0.165941	0.280366
	H4	H	0.711246	0.401455	0.835206
	H5	H	0.714616	0.601447	0.160561
	H6	H	0.278860	0.600545	0.835687
	H7	H	0.282792	0.401958	0.160917
	H8	H	0.830847	0.712433	0.400044
	H9	H	0.161298	0.715852	0.596103
	H10	H	0.830700	0.290503	0.592420
	H11	H	0.161510	0.289628	0.402499
	H12	H	0.832614	0.401388	0.712057
	H13	H	0.160065	0.604416	0.715339
	H14	H	0.834124	0.602965	0.280689
	H15	H	0.161307	0.401439	0.283662
	H16	H	0.395522	0.716538	0.834708
	H17	H	0.595469	0.716291	0.161732
	H18	H	0.594847	0.286170	0.835276
	H19	H	0.400194	0.287532	0.161130
	H20	H	0.706732	0.837053	0.401070
	H21	H	0.708760	0.167640	0.595544
	H22	H	0.282330	0.836706	0.592903
	H23	H	0.283042	0.167950	0.399624
	H24	H	0.897332	0.337936	0.213171
	H25	H	0.100335	0.665393	0.214786
	H26	H	0.096321	0.337487	0.782394
	H27	H	0.895037	0.666342	0.781446
	H28	H	0.208883	0.903372	0.333449
	H29	H	0.213098	0.103213	0.659082
	H30	H	0.779337	0.100390	0.334676
	H31	H	0.781535	0.903021	0.660403
	H32	H	0.331614	0.214558	0.899968
	H33	H	0.662087	0.212029	0.094492
	H34	H	0.331248	0.789915	0.092440
	H35	H	0.662484	0.789955	0.902715
	H36	H	0.331802	0.900678	0.211463
	H37	H	0.659821	0.102174	0.214958
	H38	H	0.332770	0.102652	0.780845
	H39	H	0.660260	0.901006	0.781975
	H40	H	0.895790	0.216563	0.334658
	H41	H	0.093317	0.215559	0.660779
	H42	H	0.093253	0.787416	0.333960
	H43	H	0.899227	0.787324	0.660510
	H44	H	0.208314	0.335919	0.901180
	H45	H	0.210764	0.666721	0.095895
	H46	H	0.786170	0.336019	0.092529
	H47	H	0.782803	0.667125	0.899046
	H48	H	0.397751	0.119322	0.582944
	H49	H	0.580480	0.884372	0.594825
	H50	H	0.579234	0.118004	0.405079
	H51	H	0.394186	0.881123	0.398675
	H52	H	0.599754	0.405813	0.116900
	H53	H	0.586030	0.598995	0.882369
	H54	H	0.402846	0.594693	0.113680
	H55	H	0.403311	0.396390	0.878911
	H56	H	0.117614	0.602893	0.403660
	H57	H	0.878988	0.591139	0.594650
	H58	H	0.114399	0.411388	0.594089
	H59	H	0.876544	0.405544	0.400428
	H60	H	0.115286	0.408979	0.591183
	H61	H	0.878215	0.598996	0.589470
	H62	H	0.112171	0.592444	0.413344
	H63	H	0.881663	0.411394	0.408808
	H64	H	0.405461	0.594794	0.113449
	H65	H	0.594770	0.595092	0.880991
	H66	H	0.590802	0.414899	0.112776
	H67	H	0.392197	0.413508	0.881094
	H68	H	0.592219	0.120068	0.411217
	H69	H	0.588113	0.887497	0.581739
	H70	H	0.401998	0.122361	0.598753
	H71	H	0.410503	0.884681	0.397871
	H72	H	0.903070	0.621280	0.091718
	H73	H	0.090498	0.382984	0.093269
	H74	H	0.094454	0.620444	0.908314
	H75	H	0.914401	0.389203	0.909818
	H76	H	0.085651	0.912134	0.610213
	H77	H	0.088471	0.101739	0.379109
	H78	H	0.909928	0.107641	0.614891
	H79	H	0.901764	0.896180	0.378786
	H80	H	0.606379	0.076808	0.912193
	H81	H	0.380601	0.098058	0.078652
	H82	H	0.613213	0.905669	0.087241
	H83	H	0.378764	0.914926	0.897272
	H84	H	0.612302	0.915764	0.091965
	H85	H	0.381441	0.082165	0.094094
	H86	H	0.618863	0.092616	0.886781
	H87	H	0.376784	0.902558	0.900404
	H88	H	0.888214	0.096545	0.617422
	H89	H	0.093681	0.094069	0.380315
	H90	H	0.089625	0.905256	0.614072
	H91	H	0.889969	0.912514	0.378838
	H92	H	0.086441	0.620926	0.899085
	H93	H	0.087651	0.383576	0.091934
	H94	H	0.909875	0.619205	0.092166
	H95	H	0.893978	0.382866	0.908767
	H96	H	0.413241	0.116180	0.588042
	H97	H	0.595743	0.880194	0.595040
	H98	H	0.589514	0.123688	0.397198
	H99	H	0.402507	0.886932	0.412368
	H100	H	0.587554	0.402346	0.114311
	H101	H	0.587678	0.589793	0.884701
	H102	H	0.404679	0.596205	0.114344
	H103	H	0.411841	0.413814	0.886459
	H104	H	0.114353	0.588082	0.398777
	H105	H	0.881308	0.590664	0.586314
	H106	H	0.112307	0.410968	0.590136
	H107	H	0.879452	0.416519	0.398678
	H108	H	0.906805	0.618063	0.086161
	H109	H	0.090361	0.384159	0.090077
	H110	H	0.082905	0.616421	0.909859
	H111	H	0.905307	0.381176	0.892032
	H112	H	0.093507	0.912777	0.613276
	H113	H	0.084814	0.093730	0.382634
	H114	H	0.906925	0.084120	0.609183
	H115	H	0.909323	0.913734	0.385580
	H116	H	0.615873	0.108287	0.915274
	H117	H	0.373123	0.102703	0.099682
	H118	H	0.616486	0.907295	0.098244
	H119	H	0.380974	0.911017	0.909606
	C120	C	0.375077	0.010320	0.617848
	C121	C	0.617543	0.993159	0.619332
	C122	C	0.615700	0.011154	0.376762
	C123	C	0.373735	0.993214	0.374270
	C124	C	0.619580	0.379301	0.006448
	C125	C	0.618937	0.623947	0.989774
	C126	C	0.374791	0.623468	0.006240
	C127	C	0.374856	0.379340	0.990019
	C128	C	0.005829	0.623156	0.376194
	C129	C	0.988275	0.623074	0.619312
	C130	C	0.005149	0.381432	0.619101
	C131	C	0.988044	0.381333	0.375472
	C132	C	0.877427	0.510646	0.117879
	C133	C	0.119042	0.492649	0.120529
	C134	C	0.117246	0.510126	0.877034
	C135	C	0.875003	0.493410	0.875144
	C136	C	0.117547	0.880856	0.504689
	C137	C	0.117667	0.124830	0.488627
	C138	C	0.873183	0.124354	0.506166
	C139	C	0.872474	0.879154	0.488699
	C140	C	0.505111	0.122531	0.875985
	C141	C	0.487444	0.122763	0.119549
	C142	C	0.505042	0.880623	0.119197
	C143	C	0.487815	0.879923	0.875188
	C144	C	0.375831	0.886361	0.672922
	C145	C	0.616048	0.117014	0.674987
	C146	C	0.614411	0.886992	0.321784
	C147	C	0.375401	0.117172	0.319068
	C148	C	0.673611	0.381625	0.883959
	C149	C	0.675520	0.621965	0.112235
	C150	C	0.317929	0.620844	0.883815
	C151	C	0.320434	0.381765	0.112342
	C152	C	0.881211	0.676736	0.379109
	C153	C	0.111977	0.678819	0.617003
	C154	C	0.880378	0.327274	0.614470
	C155	C	0.112299	0.326622	0.380424
	C156	C	0.881326	0.382455	0.673782
	C157	C	0.111506	0.623254	0.676270
	C158	C	0.882690	0.621926	0.319809
	C159	C	0.112114	0.382190	0.321439
	C160	C	0.375703	0.678802	0.883608
	C161	C	0.616618	0.679156	0.112737
	C162	C	0.615853	0.323882	0.883946
	C163	C	0.378866	0.324908	0.112572
	C164	C	0.669881	0.886511	0.380119
	C165	C	0.671617	0.118008	0.616380
	C166	C	0.319832	0.886051	0.614164
	C167	C	0.320001	0.118123	0.378329
	C168	C	0.878039	0.386667	0.173913
	C169	C	0.118759	0.616473	0.175997
	C170	C	0.115693	0.386412	0.821186
	C171	C	0.875752	0.617100	0.819698
	C172	C	0.171550	0.883104	0.382253
	C173	C	0.174379	0.123034	0.610731
	C174	C	0.817776	0.121045	0.383226
	C175	C	0.818757	0.882304	0.611606
	C176	C	0.380980	0.177237	0.879333
	C177	C	0.612236	0.176070	0.116365
	C178	C	0.380540	0.826311	0.114658
	C179	C	0.612754	0.826439	0.880791
	C180	C	0.381087	0.881297	0.173916
	C181	C	0.610898	0.121507	0.176158
	C182	C	0.381548	0.121639	0.819948
	C183	C	0.611780	0.881377	0.820663
	C184	C	0.875587	0.178975	0.383312
	C185	C	0.114966	0.179245	0.611529
	C186	C	0.113848	0.825373	0.382420
	C187	C	0.877148	0.824770	0.611642
	C188	C	0.171588	0.385582	0.880022
	C189	C	0.174022	0.616983	0.117331
	C190	C	0.823069	0.385689	0.114024
	C191	C	0.819894	0.617534	0.878055
	C192	C	0.397760	0.096782	0.596377
	C193	C	0.594929	0.906492	0.597083
	C194	C	0.593462	0.098116	0.398271
	C195	C	0.395931	0.906545	0.396339
	C196	C	0.598816	0.401288	0.092350
	C197	C	0.596183	0.601316	0.904900
	C198	C	0.397485	0.601574	0.091417
	C199	C	0.396116	0.401356	0.904187
	C200	C	0.092429	0.600984	0.398643
	C201	C	0.901921	0.600085	0.596910
	C202	C	0.091458	0.403850	0.598027
	C203	C	0.901644	0.404312	0.396332
	C204	C	0.899995	0.597086	0.096353
	C205	C	0.096116	0.405961	0.098376
	C206	C	0.094472	0.597051	0.899392
	C207	C	0.897780	0.406791	0.897167
	C208	C	0.096029	0.903422	0.590523
	C209	C	0.095500	0.102838	0.402757
	C210	C	0.895261	0.102505	0.591721
	C211	C	0.893789	0.901115	0.403298
	C212	C	0.591449	0.099477	0.898190
	C213	C	0.400833	0.100818	0.097241
	C214	C	0.591529	0.903019	0.098610
	C215	C	0.401265	0.902715	0.896180
	Zn216	Zn	0.496110	0.001237	0.747016
	Zn217	Zn	0.495473	0.001485	0.247277
	Zn218	Zn	0.748627	0.501940	-0.002709
	Zn219	Zn	0.245475	0.500919	-0.001752
	Zn220	Zn	-0.003685	0.750603	0.497427
	Zn221	Zn	-0.004252	0.253667	0.497297
	Zn222	Zn	-0.003432	0.502235	0.747808
	Zn223	Zn	-0.002118	0.502381	0.247452
	Zn224	Zn	0.496580	0.753027	-0.002204
	Zn225	Zn	0.497162	0.250713	-0.001840
	Zn226	Zn	0.743815	0.002356	0.497638
	Zn227	Zn	0.246325	0.002382	0.496244
	N228	N	0.409591	0.964591	0.675253
	N229	N	0.583063	0.038445	0.676855
	N230	N	0.581400	0.965480	0.319449
	N231	N	0.408031	0.038390	0.316640
	N232	N	0.676211	0.415135	0.961234
	N233	N	0.677260	0.588355	0.035011
	N234	N	0.317068	0.587052	0.960967
	N235	N	0.317911	0.414955	0.034983
	N236	N	0.958902	0.677305	0.413744
	N237	N	0.034418	0.678589	0.582285
	N238	N	0.958312	0.326460	0.581269
	N239	N	0.034339	0.326117	0.413441
	N240	N	0.959755	0.415217	0.677077
	N241	N	0.033539	0.589446	0.677806
	N242	N	0.961107	0.589322	0.317668
	N243	N	0.034010	0.415691	0.318451
	N244	N	0.410254	0.680729	0.960511
	N245	N	0.582286	0.680578	0.035688
	N246	N	0.582919	0.322465	0.961162
	N247	N	0.412107	0.323409	0.035501
	N248	N	0.670843	0.964796	0.413676
	N249	N	0.672637	0.039906	0.582454
	N250	N	0.319250	0.964055	0.580561
	N251	N	0.319016	0.040114	0.412130
	N252	N	0.911216	0.465181	0.176564
	N253	N	0.085364	0.538106	0.178050
	N254	N	0.082517	0.464995	0.819380
	N255	N	0.909419	0.538831	0.817750
	N256	N	0.173636	0.916921	0.459382
	N257	N	0.176210	0.090013	0.533177
	N258	N	0.815972	0.087882	0.460529
	N259	N	0.815645	0.915510	0.534187
	N260	N	0.458946	0.177901	0.913483
	N261	N	0.534490	0.177027	0.081864
	N262	N	0.458348	0.825721	0.081429
	N263	N	0.534567	0.825400	0.913628
	N264	N	0.459477	0.914456	0.176800
	N265	N	0.532235	0.088975	0.178233
	N266	N	0.459649	0.088357	0.817726
	N267	N	0.533019	0.913517	0.816815
	N268	N	0.909225	0.181224	0.460721
	N269	N	0.080262	0.180237	0.534699
	N270	N	0.081064	0.823758	0.459818
	N271	N	0.909880	0.822507	0.534472
	N272	N	0.172778	0.463689	0.913867
	N273	N	0.174348	0.538980	0.083415
	N274	N	0.822697	0.463546	0.079756
	N275	N	0.819323	0.539608	0.911698
	O276	O	0.473728	0.480362	0.555054
	H277	H	0.469854	0.492529	0.553867
	H278	H	0.471608	0.485157	0.559145
	O279	O	0.549165	0.513944	0.473910
	H280	H	0.549763	0.506161	0.482180
	H281	H	0.545537	0.511068	0.476656
	O282	O	0.426443	0.526517	0.479250
	H283	H	0.422810	0.522670	0.473418
	H284	H	0.425005	0.514656	0.477639
	O285	O	-0.005685	0.979587	1.007253
	H286	H	-0.013012	0.986749	1.004036
	H287	H	-0.011078	0.987295	1.006623
	O288	O	0.469802	0.487127	0.453505
	H289	H	0.473774	0.494282	0.448747
	H290	H	0.472692	0.490041	0.448255
	O291	O	0.021441	-0.020520	0.984695
	H292	H	0.016350	-0.025912	0.984858
	H293	H	0.018452	-0.021308	0.984741
	O294	O	0.531035	0.505032	0.490185
	H295	H	0.534852	0.513373	0.495767
	H296	H	0.537976	0.516429	0.495227
	O297	O	0.561855	0.533160	0.476964
	H298	H	0.566669	0.547478	0.478187
	H299	H	0.566214	0.537100	0.476706
	O300	O	0.572316	0.478948	0.579629
	H301	H	0.571427	0.468425	0.581798
	H302	H	0.573925	0.475351	0.574829
	O303	O	0.489177	0.528813	0.480021
	H304	H	0.477200	0.535191	0.483161
	H305	H	0.494734	0.532078	0.480714
	O306	O	0.973629	-0.035839	0.997613
	H307	H	0.971908	-0.038640	1.002231
	H308	H	0.968374	-0.029576	0.994831
	O309	O	0.519872	0.576005	0.554613
	H310	H	0.518882	0.579193	0.565249
	H311	H	0.519087	0.582520	0.553279
	O312	O	0.587911	0.576905	0.589876
	H313	H	0.585905	0.577057	0.581806
	H314	H	0.586254	0.561516	0.594970
	O315	O	1.025199	-0.012069	0.987541
	H316	H	1.028440	-0.018102	0.988787
	H317	H	1.034075	-0.019355	0.983286
	O318	O	-0.053830	0.033931	-0.026847
	H319	H	-0.048821	0.033364	-0.026073
	H320	H	-0.062902	0.037432	-0.029800
	O321	O	0.523146	0.518545	0.492301
	H322	H	0.525875	0.512293	0.493450
	H323	H	0.524729	0.512220	0.492590
	O324	O	0.969902	-0.008487	0.014389
	H325	H	0.975858	-0.010906	0.020983
	H326	H	0.973621	-0.004441	0.011583
	O327	O	0.989763	0.963593	-0.020296
	H328	H	0.994943	0.963878	-0.015600
	H329	H	0.989360	0.961964	-0.019230
	O330	O	0.467670	0.500755	0.530539
	H331	H	0.463018	0.492030	0.547056
	H332	H	0.459233	0.502960	0.528399
	O333	O	0.523635	0.460676	0.528333
	H334	H	0.521406	0.462837	0.522751
	H335	H	0.535533	0.458717	0.524247
