data_Molecule from HDF5

_cell_length_a		16.490192
_cell_length_b		16.409583
_cell_length_c		16.412019
_cell_angle_alpha	89.979314
_cell_angle_beta	89.942458
_cell_angle_gamma	90.042825
_symmetry_space_group_name_H-M	'P 1'
_symmetry_Int_Tables_number		1

loop_
	_symmetry_equiv_pos_as_xyz
	x,y,z

loop_
	_atom_site_label
	_atom_site_type_symbol
	_atom_site_fract_x
	_atom_site_fract_y
	_atom_site_fract_z
	H0	H	0.396018	0.847078	0.729213
	H1	H	0.611478	0.161181	0.730888
	H2	H	0.607622	0.844906	0.284290
	H3	H	0.393494	0.160911	0.282006
	H4	H	0.725920	0.396800	0.847740
	H5	H	0.727523	0.612975	0.162213
	H6	H	0.277751	0.614493	0.849395
	H7	H	0.276962	0.393971	0.161678
	H8	H	0.845675	0.724636	0.399328
	H9	H	0.158599	0.726091	0.614121
	H10	H	0.845708	0.277517	0.614153
	H11	H	0.158234	0.276965	0.396775
	H12	H	0.846008	0.392654	0.731159
	H13	H	0.160456	0.607523	0.727289
	H14	H	0.846958	0.610631	0.281156
	H15	H	0.158439	0.392206	0.279602
	H16	H	0.396022	0.727108	0.848733
	H17	H	0.608540	0.724816	0.163638
	H18	H	0.611833	0.279470	0.848314
	H19	H	0.397196	0.282012	0.164488
	H20	H	0.724928	0.845562	0.398374
	H21	H	0.729862	0.158531	0.617774
	H22	H	0.281057	0.846124	0.613215
	H23	H	0.277676	0.160211	0.398268
	H24	H	0.897137	0.343116	0.226685
	H25	H	0.112069	0.658139	0.230337
	H26	H	0.112011	0.344051	0.781090
	H27	H	0.898648	0.659658	0.783349
	H28	H	0.226265	0.895128	0.350048
	H29	H	0.225407	0.111959	0.663802
	H30	H	0.776500	0.112256	0.349339
	H31	H	0.778602	0.895079	0.663660
	H32	H	0.346297	0.228545	0.900371
	H33	H	0.660728	0.226474	0.114325
	H34	H	0.345691	0.780097	0.112592
	H35	H	0.660880	0.782511	0.899669
	H36	H	0.344552	0.897493	0.228021
	H37	H	0.659618	0.111326	0.231168
	H38	H	0.345309	0.113067	0.782662
	H39	H	0.659535	0.898456	0.782767
	H40	H	0.895122	0.225080	0.348309
	H41	H	0.109956	0.227263	0.663439
	H42	H	0.109399	0.779859	0.349294
	H43	H	0.894970	0.779066	0.664317
	H44	H	0.231248	0.347372	0.894009
	H45	H	0.226474	0.659162	0.113306
	H46	H	0.778093	0.345959	0.114240
	H47	H	0.784511	0.661381	0.900220
	H48	H	0.409826	0.117172	0.590163
	H49	H	0.584516	0.893858	0.592879
	H50	H	0.590247	0.116173	0.417802
	H51	H	0.417721	0.891427	0.416278
	H52	H	0.597350	0.412554	0.122097
	H53	H	0.598041	0.591374	0.890220
	H54	H	0.413515	0.578050	0.114070
	H55	H	0.418379	0.414765	0.892888
	H56	H	0.112532	0.589705	0.423681
	H57	H	0.889605	0.594300	0.592995
	H58	H	0.114767	0.411222	0.591014
	H59	H	0.889233	0.409779	0.417946
	H60	H	0.112442	0.416905	0.591788
	H61	H	0.891558	0.585911	0.591561
	H62	H	0.114144	0.585304	0.415095
	H63	H	0.892818	0.416961	0.421472
	H64	H	0.426147	0.596941	0.117005
	H65	H	0.590238	0.589472	0.893897
	H66	H	0.592996	0.423771	0.115867
	H67	H	0.413813	0.418892	0.893672
	H68	H	0.588165	0.114334	0.419509
	H69	H	0.593238	0.891559	0.590214
	H70	H	0.413334	0.118871	0.597776
	H71	H	0.414003	0.892063	0.422655
	H72	H	0.909274	0.616150	0.090607
	H73	H	0.086331	0.388507	0.098258
	H74	H	0.086566	0.615249	0.907660
	H75	H	0.912956	0.390952	0.925228
	H76	H	0.090364	0.914830	0.619888
	H77	H	0.089686	0.092323	0.393761
	H78	H	0.914138	0.084519	0.616616
	H79	H	0.919229	0.918932	0.397684
	H80	H	0.615977	0.090577	0.913100
	H81	H	0.388719	0.094431	0.096968
	H82	H	0.618829	0.911068	0.101200
	H83	H	0.391456	0.919959	0.915825
	H84	H	0.613760	0.911522	0.088759
	H85	H	0.392138	0.093742	0.089799
	H86	H	0.615647	0.095648	0.919743
	H87	H	0.388668	0.911628	0.917153
	H88	H	0.919565	0.090935	0.616932
	H89	H	0.092450	0.086939	0.394072
	H90	H	0.091284	0.914136	0.620053
	H91	H	0.916697	0.906457	0.392556
	H92	H	0.085843	0.610049	0.924506
	H93	H	0.084520	0.394153	0.084849
	H94	H	0.916655	0.616943	0.100368
	H95	H	0.910544	0.385702	0.914582
	H96	H	0.418030	0.115210	0.591797
	H97	H	0.590372	0.889480	0.598692
	H98	H	0.591224	0.115553	0.420821
	H99	H	0.410421	0.890037	0.416812
	H100	H	0.585113	0.412147	0.116417
	H101	H	0.591767	0.597295	0.890859
	H102	H	0.404294	0.596991	0.123780
	H103	H	0.418908	0.419401	0.896047
	H104	H	0.117695	0.594697	0.416758
	H105	H	0.888855	0.588446	0.599947
	H106	H	0.115394	0.413684	0.596223
	H107	H	0.890155	0.417200	0.413138
	H108	H	0.920405	0.611872	0.090366
	H109	H	0.097155	0.388379	0.088627
	H110	H	0.100576	0.617608	0.917979
	H111	H	0.921101	0.390314	0.916569
	H112	H	0.091105	0.914780	0.619647
	H113	H	0.087175	0.087638	0.396022
	H114	H	0.911763	0.091229	0.619859
	H115	H	0.907643	0.916458	0.391584
	H116	H	0.612520	0.087466	0.920708
	H117	H	0.393181	0.087876	0.095116
	H118	H	0.613029	0.922161	0.096379
	H119	H	0.392828	0.916248	0.923789
	C120	C	0.380646	0.013005	0.627895
	C121	C	0.623128	0.995580	0.627079
	C122	C	0.622982	0.011357	0.385775
	C123	C	0.380223	0.994987	0.384748
	C124	C	0.625047	0.382294	0.014361
	C125	C	0.625360	0.625195	0.996317
	C126	C	0.381036	0.624852	0.014507
	C127	C	0.382539	0.382993	0.997683
	C128	C	0.011411	0.623644	0.384669
	C129	C	0.993906	0.622895	0.627773
	C130	C	0.010939	0.379623	0.627337
	C131	C	0.993919	0.380523	0.383725
	C132	C	0.881314	0.511149	0.127554
	C133	C	0.123587	0.494142	0.125227
	C134	C	0.125323	0.510854	0.882687
	C135	C	0.882778	0.493381	0.885232
	C136	C	0.123659	0.881708	0.515583
	C137	C	0.123284	0.123482	0.498258
	C138	C	0.880957	0.123374	0.514271
	C139	C	0.880894	0.880759	0.498303
	C140	C	0.511092	0.125279	0.884962
	C141	C	0.494816	0.125109	0.128179
	C142	C	0.511045	0.881691	0.127914
	C143	C	0.494469	0.882967	0.885007
	C144	C	0.377781	0.894641	0.689782
	C145	C	0.628416	0.113783	0.689562
	C146	C	0.625945	0.892379	0.324600
	C147	C	0.376140	0.113291	0.322681
	C148	C	0.686042	0.378708	0.895284
	C149	C	0.686383	0.629307	0.115120
	C150	C	0.318807	0.630568	0.896563
	C151	C	0.318993	0.377707	0.115145
	C152	C	0.893388	0.684859	0.381123
	C153	C	0.111880	0.684812	0.631327
	C154	C	0.893024	0.317550	0.632015
	C155	C	0.111488	0.318025	0.379286
	C156	C	0.893306	0.375096	0.690112
	C157	C	0.112818	0.625613	0.687648
	C158	C	0.894024	0.627863	0.322240
	C159	C	0.111418	0.375140	0.320654
	C160	C	0.377818	0.686861	0.896285
	C161	C	0.627035	0.685211	0.115811
	C162	C	0.628943	0.320398	0.895686
	C163	C	0.378736	0.321793	0.116541
	C164	C	0.684441	0.892888	0.381391
	C165	C	0.687623	0.112419	0.633197
	C166	C	0.320608	0.893989	0.631791
	C167	C	0.317953	0.112958	0.380240
	C168	C	0.878691	0.391611	0.187675
	C169	C	0.128629	0.611441	0.188451
	C170	C	0.129395	0.391886	0.821458
	C171	C	0.880566	0.612479	0.824005
	C172	C	0.185279	0.877889	0.397056
	C173	C	0.185094	0.128897	0.616352
	C174	C	0.817918	0.128764	0.396479
	C175	C	0.819201	0.877397	0.616439
	C176	C	0.393113	0.187555	0.881850
	C177	C	0.613387	0.185977	0.131600
	C178	C	0.392939	0.820695	0.130528
	C179	C	0.613069	0.822126	0.881487
	C180	C	0.392156	0.879415	0.187900
	C181	C	0.612550	0.128985	0.190334
	C182	C	0.392569	0.129921	0.823524
	C183	C	0.612728	0.880503	0.823772
	C184	C	0.877025	0.185086	0.395684
	C185	C	0.127147	0.186167	0.616338
	C186	C	0.127035	0.820457	0.396843
	C187	C	0.877171	0.819531	0.616787
	C188	C	0.189081	0.393426	0.877487
	C189	C	0.185785	0.611943	0.130197
	C190	C	0.819515	0.392791	0.131332
	C191	C	0.823814	0.613303	0.882362
	C192	C	0.406306	0.095627	0.600928
	C193	C	0.596800	0.913245	0.601107
	C194	C	0.597177	0.093704	0.411672
	C195	C	0.406359	0.912466	0.411134
	C196	C	0.599250	0.408446	0.096699
	C197	C	0.600483	0.599936	0.913510
	C198	C	0.407019	0.598158	0.096900
	C199	C	0.409402	0.409864	0.915588
	C200	C	0.093530	0.597327	0.410999
	C201	C	0.911532	0.596919	0.602324
	C202	C	0.092783	0.406054	0.600559
	C203	C	0.912168	0.406884	0.410105
	C204	C	0.907865	0.593578	0.101403
	C205	C	0.096991	0.411847	0.098130
	C206	C	0.098776	0.592865	0.909077
	C207	C	0.907833	0.410542	0.911329
	C208	C	0.098138	0.907487	0.598318
	C209	C	0.097255	0.096652	0.416083
	C210	C	0.907543	0.096738	0.596366
	C211	C	0.906967	0.906746	0.415385
	C212	C	0.592947	0.098817	0.910643
	C213	C	0.412611	0.099404	0.101780
	C214	C	0.593893	0.907500	0.102694
	C215	C	0.412523	0.908676	0.911181
	Zn216	Zn	0.502281	0.004442	0.755287
	Zn217	Zn	0.502675	0.003567	0.256908
	Zn218	Zn	0.753424	0.503510	0.005201
	Zn219	Zn	0.253171	0.503077	0.004779
	Zn220	Zn	0.002249	0.752501	0.507040
	Zn221	Zn	0.001946	0.251594	0.505488
	Zn222	Zn	0.002450	0.500991	0.755765
	Zn223	Zn	0.003034	0.502040	0.255313
	Zn224	Zn	0.503103	0.752538	0.005661
	Zn225	Zn	0.504034	0.254082	0.006608
	Zn226	Zn	0.752582	0.002506	0.505951
	Zn227	Zn	0.252361	0.003572	0.507117
	N228	N	0.413981	0.969967	0.687554
	N229	N	0.588879	0.040240	0.685800
	N230	N	0.588592	0.967195	0.326954
	N231	N	0.413851	0.038748	0.325091
	N232	N	0.684010	0.416381	0.970123
	N233	N	0.685511	0.592435	0.039882
	N234	N	0.320844	0.592513	0.971170
	N235	N	0.321102	0.414807	0.040061
	N236	N	0.967548	0.682463	0.419068
	N237	N	0.036971	0.683113	0.594523
	N238	N	0.967226	0.320199	0.593687
	N239	N	0.037563	0.321221	0.417846
	N240	N	0.967603	0.412688	0.687427
	N241	N	0.038654	0.587774	0.685370
	N242	N	0.968364	0.590202	0.324452
	N243	N	0.037227	0.413190	0.323213
	N244	N	0.415748	0.683412	0.970722
	N245	N	0.589879	0.682671	0.041041
	N246	N	0.591863	0.322482	0.970629
	N247	N	0.417698	0.325189	0.042499
	N248	N	0.682834	0.967819	0.418538
	N249	N	0.684530	0.037853	0.594951
	N250	N	0.322140	0.968771	0.594131
	N251	N	0.320370	0.038164	0.418102
	N252	N	0.916255	0.466446	0.185481
	N253	N	0.090340	0.537178	0.185227
	N254	N	0.090539	0.465831	0.824543
	N255	N	0.916646	0.536987	0.825755
	N256	N	0.183573	0.915075	0.472042
	N257	N	0.182748	0.090628	0.542053
	N258	N	0.819979	0.091352	0.471392
	N259	N	0.821422	0.914461	0.541570
	N260	N	0.467601	0.185114	0.918851
	N261	N	0.539017	0.183843	0.093698
	N262	N	0.467930	0.822001	0.094136
	N263	N	0.538415	0.823381	0.918931
	N264	N	0.466782	0.916849	0.186324
	N265	N	0.537988	0.091621	0.188087
	N266	N	0.466922	0.092083	0.825073
	N267	N	0.537963	0.917314	0.825538
	N268	N	0.915639	0.181653	0.469847
	N269	N	0.089500	0.183227	0.541650
	N270	N	0.089166	0.822793	0.471406
	N271	N	0.914714	0.821568	0.541934
	N272	N	0.186843	0.468420	0.914718
	N273	N	0.182498	0.537825	0.091433
	N274	N	0.820879	0.468202	0.094850
	N275	N	0.825074	0.538325	0.919740
	O276	O	-0.183646	0.174487	-0.174311
	H277	H	-0.139475	0.182877	-0.185966
	H278	H	-0.189533	0.131465	-0.174567
	O279	O	1.212747	0.064768	0.929912
	H280	H	1.180309	0.088788	0.936550
	H281	H	1.225491	0.065358	0.948922
	O282	O	0.530730	0.639581	0.697757
	H283	H	0.542329	0.658034	0.699699
	H284	H	0.556241	0.631580	0.697876
	O285	O	0.684965	0.688202	0.694018
	H286	H	0.695291	0.681569	0.685401
	H287	H	0.675241	0.674043	0.688397
	O288	O	1.186551	1.120316	0.018069
	H289	H	1.176316	1.132147	0.020204
	H290	H	1.180751	1.131354	0.012373
	O291	O	-0.136992	0.025130	0.029020
	H292	H	-0.127160	0.041626	0.036720
	H293	H	-0.157045	0.023748	0.034394
	O294	O	0.194582	0.160461	1.192824
	H295	H	0.210146	0.150222	1.172102
	H296	H	0.185928	0.129489	1.194105
	O297	O	0.293367	0.553083	0.383464
	H298	H	0.284714	0.558912	0.401485
	H299	H	0.314041	0.564956	0.376179
	O300	O	0.434140	0.505617	0.297066
	H301	H	0.452121	0.512191	0.296835
	H302	H	0.433700	0.506115	0.291323
	O303	O	0.448021	0.546593	0.724223
	H304	H	0.461090	0.522782	0.725811
	H305	H	0.461276	0.580351	0.718171
	O306	O	0.294804	0.480421	0.719434
	H307	H	0.320957	0.508249	0.715838
	H308	H	0.267231	0.482231	0.754192
	O309	O	0.525645	0.299767	0.302228
	H310	H	0.512684	0.284865	0.296098
	H311	H	0.506083	0.294409	0.317653
	O312	O	-0.110936	0.811838	1.118752
	H313	H	-0.123341	0.796556	1.088028
	H314	H	-0.115911	0.842034	1.118168
	O315	O	0.650079	0.354802	0.567902
	H316	H	0.634404	0.342490	0.585294
	H317	H	0.669832	0.331932	0.563581
	O318	O	0.473150	0.620701	0.521805
	H319	H	0.480587	0.624552	0.498986
	H320	H	0.493931	0.620340	0.528678
	O321	O	0.053826	-0.172833	0.044201
	H322	H	0.045462	-0.171914	0.045988
	H323	H	0.056805	-0.168019	0.029302
	O324	O	0.557711	0.582951	0.297336
	H325	H	0.575717	0.572307	0.304025
	H326	H	0.562259	0.581975	0.299458
	O327	O	0.707520	0.524129	0.710780
	H328	H	0.718820	0.519113	0.723396
	H329	H	0.714547	0.511473	0.693715
	O330	O	0.212907	0.957739	-0.203648
	H331	H	0.231954	0.979429	-0.197590
	H332	H	0.231564	0.968766	-0.200676
	O333	O	0.987790	-0.013880	0.794304
	H334	H	0.998708	-0.026086	0.807524
	H335	H	0.987360	-0.004977	0.786014
	O336	O	-0.131603	-0.169893	0.074797
	H337	H	-0.139108	-0.169628	0.057411
	H338	H	-0.124009	-0.189950	0.071255
	O339	O	0.079130	0.807160	0.835495
	H340	H	0.095182	0.797744	0.861432
	H341	H	0.085722	0.834478	0.818697
	O342	O	0.142837	1.211896	0.970267
	H343	H	0.115764	1.204994	1.006813
	H344	H	0.142575	1.233710	0.951679
	O345	O	0.802919	0.957181	-0.141581
	H346	H	0.807659	0.945547	-0.141417
	H347	H	0.811526	0.961374	-0.142731
	O348	O	0.308470	0.703255	0.443685
	H349	H	0.301273	0.716714	0.443659
	H350	H	0.329548	0.698715	0.438759
	O351	O	0.108193	0.997469	1.172746
	H352	H	0.108558	0.990707	1.175880
	H353	H	0.118035	0.994669	1.179413
	O354	O	-0.014678	1.162632	0.195525
	H355	H	-0.005995	1.169660	0.199276
	H356	H	-0.006808	1.177393	0.199287
	O357	O	-0.099411	0.186991	1.040443
	H358	H	-0.117058	0.203848	1.043238
	H359	H	-0.117541	0.185048	1.033532
	O360	O	0.724404	0.481356	0.281795
	H361	H	0.762463	0.474781	0.242005
	H362	H	0.709824	0.429722	0.295910
	O363	O	-0.043586	0.027255	0.919042
	H364	H	-0.043403	0.036015	0.921315
	H365	H	-0.041515	0.029013	0.908745
	O366	O	0.934931	0.795036	0.028750
	H367	H	0.947384	0.787409	0.043393
	H368	H	0.931685	0.813502	0.018234
	O369	O	0.713683	0.714345	0.531210
	H370	H	0.711481	0.698892	0.530631
	H371	H	0.744403	0.732208	0.527154
	O372	O	0.981862	0.209100	0.800375
	H373	H	1.006948	0.187561	0.813819
	H374	H	0.977292	0.237868	0.766665
	O375	O	0.692954	0.563713	0.428983
	H376	H	0.701033	0.548749	0.404108
	H377	H	0.687159	0.551025	0.435086
	O378	O	0.385712	0.426596	0.517991
	H379	H	0.393603	0.453992	0.520566
	H380	H	0.360673	0.424362	0.510349
	O381	O	1.326646	0.319859	0.686864
	H382	H	1.317457	0.312321	0.633569
	H383	H	1.315461	0.372834	0.697138
	O384	O	0.387727	0.704809	0.373302
	H385	H	0.382507	0.715743	0.369513
	H386	H	0.399099	0.703407	0.364952
	O387	O	0.010316	0.153824	1.149232
	H388	H	0.013733	0.160466	1.160151
	H389	H	0.009213	0.153608	1.150389
	O390	O	-0.351494	-0.593145	-0.367008
	H391	H	-0.361350	-0.577180	-0.386777
	H392	H	-0.364099	-0.621240	-0.362590
	O393	O	0.808796	1.056936	1.073871
	H394	H	0.802013	1.045625	1.102398
	H395	H	0.799860	1.058690	1.075788
	O396	O	1.070301	0.007669	0.130300
	H397	H	1.059394	-0.009311	0.136002
	H398	H	1.072992	0.000610	0.138893
	O399	O	0.860812	-0.066761	1.205728
	H400	H	0.874412	-0.056031	1.203054
	H401	H	0.849523	-0.068687	1.215869
	O402	O	0.932161	0.861883	0.857721
	H403	H	0.961500	0.866090	0.857008
	H404	H	0.932442	0.853654	0.854596
	O405	O	1.076969	1.098300	-0.134101
	H406	H	1.083298	1.086845	-0.122326
	H407	H	1.092060	1.080629	-0.126734
	O408	O	0.791564	0.135918	0.059634
	H409	H	0.783982	0.120151	0.044228
	H410	H	0.771215	0.143419	0.047040
	O411	O	0.721239	1.401505	0.518725
	H412	H	0.699450	1.399376	0.525531
	H413	H	0.731148	1.375634	0.515541
	O414	O	0.394315	0.622934	0.527384
	H415	H	0.388658	0.621735	0.536603
	H416	H	0.394049	0.640440	0.518878
	O417	O	0.550884	0.331698	0.556347
	H418	H	0.535210	0.339926	0.585247
	H419	H	0.532631	0.336508	0.560552
	O420	O	0.173582	-0.069567	0.109144
	H421	H	0.171248	-0.074212	0.099532
	H422	H	0.175769	-0.078343	0.127184
	O423	O	0.533393	0.639682	0.358510
	H424	H	0.547714	0.641866	0.354002
	H425	H	0.542399	0.628823	0.354234
	O426	O	0.686043	0.325392	0.324795
	H427	H	0.672388	0.314115	0.351857
	H428	H	0.657520	0.314382	0.338993
	O429	O	0.381908	0.362300	0.470024
	H430	H	0.391681	0.378047	0.486789
	H431	H	0.362473	0.379736	0.482789
	O432	O	0.423349	0.545767	0.509572
	H433	H	0.413872	0.547121	0.527329
	H434	H	0.436102	0.550167	0.520284
	O435	O	0.508800	0.528929	0.550898
	H436	H	0.503750	0.531552	0.555238
	H437	H	0.498314	0.530995	0.555012
	O438	O	0.481637	0.282210	-0.273679
	H439	H	0.448385	0.274016	-0.266215
	H440	H	0.457087	0.265956	-0.256030
	O441	O	1.046726	-0.184615	0.200958
	H442	H	1.051542	-0.213383	0.220167
	H443	H	1.016332	-0.172731	0.198932
	O444	O	0.204253	0.800372	0.943466
	H445	H	0.223958	0.784132	0.948296
	H446	H	0.192341	0.816578	0.951826
	O447	O	0.328689	0.544615	0.342666
	H448	H	0.348995	0.535292	0.341369
	H449	H	0.310163	0.558393	0.331017
	O450	O	0.293488	0.663718	0.656178
	H451	H	0.307075	0.680581	0.669006
	H452	H	0.289364	0.654923	0.652630
	O453	O	0.357868	0.354798	0.430886
	H454	H	0.354625	0.362926	0.418649
	H455	H	0.350182	0.362182	0.422119
