data_Molecule from HDF5

_cell_length_a		16.520980
_cell_length_b		16.498785
_cell_length_c		16.583490
_cell_angle_alpha	89.989342
_cell_angle_beta	89.966868
_cell_angle_gamma	89.992510
_symmetry_space_group_name_H-M	'P 1'
_symmetry_Int_Tables_number		1

loop_
	_symmetry_equiv_pos_as_xyz
	x,y,z

loop_
	_atom_site_label
	_atom_site_type_symbol
	_atom_site_fract_x
	_atom_site_fract_y
	_atom_site_fract_z
	H0	H	0.402066	0.849864	0.722192
	H1	H	0.613345	0.162828	0.724533
	H2	H	0.610820	0.849985	0.281117
	H3	H	0.398309	0.163455	0.277726
	H4	H	0.728477	0.401834	0.845590
	H5	H	0.727510	0.611533	0.157560
	H6	H	0.289354	0.608461	0.842776
	H7	H	0.283593	0.400498	0.156996
	H8	H	0.849867	0.726543	0.397080
	H9	H	0.163235	0.728922	0.607532
	H10	H	0.849338	0.284574	0.606653
	H11	H	0.163241	0.284287	0.396152
	H12	H	0.850174	0.398556	0.725347
	H13	H	0.162991	0.613004	0.723701
	H14	H	0.851751	0.612726	0.278547
	H15	H	0.163646	0.399737	0.278585
	H16	H	0.406548	0.725085	0.843281
	H17	H	0.608664	0.725513	0.159295
	H18	H	0.612382	0.284894	0.845810
	H19	H	0.398895	0.283206	0.157504
	H20	H	0.728496	0.849890	0.396361
	H21	H	0.729873	0.162862	0.608271
	H22	H	0.287115	0.849320	0.604924
	H23	H	0.283657	0.164203	0.395831
	H24	H	0.898665	0.349848	0.225074
	H25	H	0.111089	0.664473	0.221504
	H26	H	0.113555	0.349954	0.779063
	H27	H	0.902999	0.663347	0.780979
	H28	H	0.229672	0.901078	0.345281
	H29	H	0.227671	0.112317	0.657161
	H30	H	0.782502	0.114267	0.345343
	H31	H	0.786856	0.903378	0.658262
	H32	H	0.350281	0.227211	0.898434
	H33	H	0.664288	0.229545	0.106981
	H34	H	0.348064	0.788454	0.104547
	H35	H	0.664917	0.787937	0.899370
	H36	H	0.349464	0.902217	0.222937
	H37	H	0.663668	0.114338	0.224941
	H38	H	0.350303	0.111185	0.781364
	H39	H	0.664405	0.902986	0.781819
	H40	H	0.898276	0.230390	0.344659
	H41	H	0.110930	0.229331	0.656767
	H42	H	0.113162	0.784563	0.345007
	H43	H	0.903082	0.786201	0.658122
	H44	H	0.228579	0.350009	0.895539
	H45	H	0.225255	0.665719	0.103750
	H46	H	0.782145	0.350068	0.109977
	H47	H	0.787342	0.664011	0.898391
	H48	H	0.415169	0.120463	0.590557
	H49	H	0.592923	0.895784	0.589207
	H50	H	0.593042	0.117136	0.418349
	H51	H	0.422988	0.898599	0.415579
	H52	H	0.595848	0.422115	0.112658
	H53	H	0.595820	0.592626	0.890767
	H54	H	0.415441	0.597899	0.114735
	H55	H	0.420013	0.418621	0.890703
	H56	H	0.118400	0.592497	0.412455
	H57	H	0.894140	0.593813	0.592148
	H58	H	0.116368	0.421847	0.590882
	H59	H	0.895964	0.428663	0.405862
	H60	H	0.118995	0.416357	0.591197
	H61	H	0.892838	0.597460	0.592314
	H62	H	0.120902	0.595756	0.408444
	H63	H	0.890434	0.410638	0.409294
	H64	H	0.415395	0.597487	0.114349
	H65	H	0.593828	0.602314	0.888623
	H66	H	0.590751	0.419335	0.111017
	H67	H	0.418990	0.416047	0.889435
	H68	H	0.599556	0.120785	0.414108
	H69	H	0.597962	0.894459	0.588851
	H70	H	0.417812	0.121625	0.593996
	H71	H	0.414215	0.894876	0.415228
	H72	H	0.913804	0.620055	0.091654
	H73	H	0.099081	0.395585	0.082688
	H74	H	0.093273	0.619292	0.908568
	H75	H	0.917510	0.394146	0.915140
	H76	H	0.086314	0.920698	0.609349
	H77	H	0.096727	0.097840	0.387301
	H78	H	0.916703	0.097088	0.613629
	H79	H	0.921652	0.915818	0.389286
	H80	H	0.621244	0.100699	0.915464
	H81	H	0.397233	0.095623	0.085591
	H82	H	0.619455	0.921956	0.096194
	H83	H	0.394007	0.916265	0.912227
	H84	H	0.621544	0.911585	0.093071
	H85	H	0.396690	0.090048	0.091156
	H86	H	0.616381	0.090098	0.916418
	H87	H	0.394250	0.917911	0.909908
	H88	H	0.918267	0.091951	0.611236
	H89	H	0.096082	0.091704	0.390404
	H90	H	0.098159	0.906891	0.616843
	H91	H	0.913108	0.914819	0.387032
	H92	H	0.096226	0.618245	0.915304
	H93	H	0.099373	0.391039	0.095023
	H94	H	0.922548	0.617648	0.093636
	H95	H	0.917516	0.393122	0.911714
	H96	H	0.419427	0.119355	0.590580
	H97	H	0.595308	0.893451	0.593283
	H98	H	0.591534	0.119501	0.409840
	H99	H	0.419952	0.894247	0.407878
	H100	H	0.595415	0.416780	0.115182
	H101	H	0.602841	0.598221	0.886182
	H102	H	0.414868	0.598312	0.114226
	H103	H	0.417322	0.418576	0.889927
	H104	H	0.120670	0.597851	0.413829
	H105	H	0.895016	0.596514	0.589482
	H106	H	0.117086	0.418183	0.585891
	H107	H	0.899856	0.420476	0.422684
	H108	H	0.918916	0.615687	0.085469
	H109	H	0.088603	0.396894	0.090069
	H110	H	0.099653	0.621877	0.909907
	H111	H	0.920515	0.394039	0.913454
	H112	H	0.104863	0.925525	0.613910
	H113	H	0.091346	0.095523	0.390474
	H114	H	0.921332	0.096320	0.610740
	H115	H	0.916673	0.922934	0.389715
	H116	H	0.621800	0.093318	0.906206
	H117	H	0.393736	0.097487	0.092954
	H118	H	0.616954	0.919001	0.086090
	H119	H	0.392154	0.915382	0.910172
	C120	C	0.385611	0.015945	0.622914
	C121	C	0.628280	0.997983	0.623159
	C122	C	0.627436	0.015683	0.381114
	C123	C	0.385566	0.999457	0.380033
	C124	C	0.627652	0.386340	0.010222
	C125	C	0.628175	0.628660	0.992727
	C126	C	0.384988	0.628813	0.010004
	C127	C	0.385540	0.385226	0.993379
	C128	C	0.015836	0.627204	0.379995
	C129	C	0.998069	0.627883	0.622973
	C130	C	0.014176	0.385747	0.622171
	C131	C	0.998642	0.385847	0.379611
	C132	C	0.884976	0.514541	0.123479
	C133	C	0.127748	0.498503	0.121649
	C134	C	0.128638	0.515664	0.879296
	C135	C	0.886202	0.497799	0.881509
	C136	C	0.129061	0.884979	0.510006
	C137	C	0.127081	0.127849	0.492393
	C138	C	0.884651	0.128715	0.509206
	C139	C	0.885575	0.885801	0.492472
	C140	C	0.515962	0.127350	0.880807
	C141	C	0.498817	0.128179	0.123052
	C142	C	0.515063	0.885722	0.123428
	C143	C	0.497935	0.885299	0.879960
	C144	C	0.383665	0.897221	0.682267
	C145	C	0.631715	0.115735	0.684329
	C146	C	0.629421	0.897106	0.321250
	C147	C	0.381456	0.116882	0.318941
	C148	C	0.688319	0.383472	0.892443
	C149	C	0.687579	0.630250	0.110807
	C150	C	0.328236	0.628466	0.890299
	C151	C	0.324073	0.382307	0.110277
	C152	C	0.897611	0.687111	0.378384
	C153	C	0.115991	0.688522	0.625418
	C154	C	0.896204	0.324946	0.624823
	C155	C	0.116432	0.324613	0.377322
	C156	C	0.896870	0.381705	0.683892
	C157	C	0.115962	0.630717	0.683251
	C158	C	0.898234	0.630222	0.319537
	C159	C	0.116575	0.381960	0.319051
	C160	C	0.385990	0.686533	0.890664
	C161	C	0.628550	0.687024	0.111470
	C162	C	0.630514	0.325394	0.892618
	C163	C	0.381651	0.323972	0.110507
	C164	C	0.687570	0.896990	0.378801
	C165	C	0.689403	0.115895	0.626473
	C166	C	0.326568	0.897014	0.623902
	C167	C	0.324238	0.117185	0.377356
	C168	C	0.881149	0.396960	0.184744
	C169	C	0.129467	0.617280	0.181398
	C170	C	0.131457	0.397307	0.819350
	C171	C	0.884396	0.616442	0.821488
	C172	C	0.189444	0.882618	0.392108
	C173	C	0.187505	0.130696	0.610114
	C174	C	0.822753	0.132256	0.392264
	C175	C	0.826551	0.884273	0.611151
	C176	C	0.397375	0.187346	0.879299
	C177	C	0.617023	0.189548	0.126050
	C178	C	0.395930	0.827362	0.123879
	C179	C	0.617307	0.827079	0.879949
	C180	C	0.396576	0.884058	0.182820
	C181	C	0.616709	0.132005	0.184370
	C182	C	0.397557	0.129832	0.821116
	C183	C	0.617129	0.884372	0.821633
	C184	C	0.880513	0.190109	0.391912
	C185	C	0.129299	0.188587	0.610142
	C186	C	0.131475	0.824757	0.392131
	C187	C	0.884114	0.826038	0.610957
	C188	C	0.188838	0.397286	0.877309
	C189	C	0.186283	0.617837	0.122711
	C190	C	0.823053	0.397173	0.127394
	C191	C	0.826971	0.616730	0.879630
	C192	C	0.410376	0.098831	0.598662
	C193	C	0.602599	0.915929	0.597676
	C194	C	0.601980	0.097893	0.406783
	C195	C	0.411553	0.917181	0.405692
	C196	C	0.601613	0.412105	0.091821
	C197	C	0.604399	0.604528	0.910076
	C198	C	0.408518	0.604833	0.092624
	C199	C	0.411305	0.410638	0.911358
	C200	C	0.098598	0.602302	0.404491
	C201	C	0.915610	0.603017	0.598255
	C202	C	0.096190	0.411514	0.596564
	C203	C	0.916590	0.412338	0.405211
	C204	C	0.911172	0.596673	0.097489
	C205	C	0.102822	0.416021	0.096607
	C206	C	0.103560	0.598214	0.904141
	C207	C	0.911218	0.415321	0.906513
	C208	C	0.103693	0.910309	0.591892
	C209	C	0.101968	0.102459	0.410557
	C210	C	0.911226	0.102595	0.590659
	C211	C	0.910202	0.910726	0.410096
	C212	C	0.598270	0.102052	0.905662
	C213	C	0.417131	0.101937	0.097258
	C214	C	0.597747	0.910523	0.098937
	C215	C	0.414912	0.909505	0.903826
	Zn216	Zn	0.506717	0.006603	0.751551
	Zn217	Zn	0.506827	0.007502	0.251704
	Zn218	Zn	0.756885	0.506681	0.002009
	Zn219	Zn	0.256619	0.507233	0.000504
	Zn220	Zn	0.006612	0.756937	0.501286
	Zn221	Zn	0.006004	0.257193	0.500521
	Zn222	Zn	0.006513	0.506047	0.752112
	Zn223	Zn	0.007175	0.506113	0.250746
	Zn224	Zn	0.506666	0.757270	0.001715
	Zn225	Zn	0.507171	0.256490	0.002038
	Zn226	Zn	0.756467	0.007382	0.501655
	Zn227	Zn	0.257197	0.007344	0.501242
	N228	N	0.419563	0.972428	0.681997
	N229	N	0.594333	0.041478	0.682411
	N230	N	0.592790	0.971980	0.322490
	N231	N	0.418601	0.042487	0.320409
	N232	N	0.686645	0.420561	0.966596
	N233	N	0.687583	0.594885	0.035977
	N234	N	0.327264	0.593583	0.965473
	N235	N	0.326449	0.419737	0.036284
	N236	N	0.971852	0.685531	0.415252
	N237	N	0.041613	0.686893	0.588494
	N238	N	0.970074	0.327373	0.586969
	N239	N	0.042027	0.327058	0.414265
	N240	N	0.971214	0.418924	0.682221
	N241	N	0.041492	0.593789	0.682082
	N242	N	0.973011	0.593891	0.320277
	N243	N	0.042186	0.419129	0.320313
	N244	N	0.420100	0.687246	0.966161
	N245	N	0.592309	0.686198	0.036993
	N246	N	0.593665	0.326855	0.966856
	N247	N	0.419172	0.325699	0.036593
	N248	N	0.686550	0.971743	0.415223
	N249	N	0.687320	0.041664	0.589148
	N250	N	0.327483	0.971918	0.587838
	N251	N	0.326788	0.042902	0.414595
	N252	N	0.918987	0.471013	0.182414
	N253	N	0.094003	0.541982	0.180963
	N254	N	0.094770	0.471872	0.820511
	N255	N	0.920359	0.541470	0.822289
	N256	N	0.188099	0.919333	0.466333
	N257	N	0.186046	0.093451	0.536121
	N258	N	0.825289	0.094733	0.466222
	N259	N	0.826978	0.920423	0.536506
	N260	N	0.472158	0.186138	0.915417
	N261	N	0.542902	0.187304	0.088718
	N262	N	0.470622	0.828164	0.087577
	N263	N	0.542238	0.827616	0.915698
	N264	N	0.471873	0.919397	0.182764
	N265	N	0.542270	0.094719	0.182733
	N266	N	0.472348	0.093397	0.821747
	N267	N	0.541807	0.919588	0.821355
	N268	N	0.918101	0.188242	0.465853
	N269	N	0.092550	0.186970	0.535916
	N270	N	0.094917	0.825733	0.466692
	N271	N	0.919799	0.826706	0.536050
	N272	N	0.187390	0.472045	0.913727
	N273	N	0.185701	0.542982	0.086389
	N274	N	0.825368	0.471370	0.089879
	N275	N	0.827913	0.542029	0.916175
	O276	O	1.192814	1.170278	0.022184
	H277	H	1.203487	1.184354	0.036009
	H278	H	1.178798	1.163552	0.035881
	O279	O	0.099805	-0.095808	1.210398
	H280	H	0.081319	-0.101262	1.215583
	H281	H	0.102713	-0.115052	1.218479
	O282	O	0.423980	0.382732	0.323964
	H283	H	0.420288	0.391840	0.343176
	H284	H	0.424150	0.400144	0.323830
	O285	O	0.460846	0.420297	0.583808
	H286	H	0.468293	0.414852	0.587792
	H287	H	0.480799	0.424873	0.587433
	O288	O	0.971937	0.211196	0.865088
	H289	H	0.978405	0.216951	0.851795
	H290	H	0.978956	0.206668	0.867112
	O291	O	0.543271	0.723960	0.479214
	H292	H	0.550062	0.727818	0.499532
	H293	H	0.533769	0.722631	0.493756
	O294	O	0.219677	0.976101	-1.214502
	H295	H	0.237375	0.975738	-1.232728
	H296	H	0.230149	0.977424	-1.198962
	O297	O	0.352765	-0.708230	-0.496732
	H298	H	0.345657	-0.717342	-0.507567
	H299	H	0.349390	-0.703726	-0.512347
	O300	O	-0.126144	-0.012876	0.064588
	H301	H	-0.116845	-0.012798	0.069084
	H302	H	-0.135416	-0.017828	0.071338
	O303	O	-0.162407	0.073225	0.166775
	H304	H	-0.152863	0.071346	0.162642
	H305	H	-0.174180	0.063219	0.160090
	O306	O	1.140804	-0.181869	0.114720
	H307	H	1.154620	-0.172093	0.110136
	H308	H	1.144582	-0.207066	0.120069
	O309	O	0.614343	0.450238	0.705302
	H310	H	0.622574	0.457074	0.698348
	H311	H	0.609349	0.461001	0.706967
	O312	O	0.208652	-0.194105	-0.192912
	H313	H	0.165902	-0.201280	-0.185767
	H314	H	0.226977	-0.180080	-0.207280
	O315	O	0.431407	0.386702	0.503945
	H316	H	0.428552	0.383488	0.503377
	H317	H	0.430529	0.384386	0.497437
	O318	O	0.292932	0.722300	0.469767
	H319	H	0.292313	0.720431	0.485433
	H320	H	0.269825	0.726542	0.479875
	O321	O	0.223182	0.788978	0.969703
	H322	H	0.238030	0.776903	0.951431
	H323	H	0.231535	0.784372	0.959253
	O324	O	1.085291	0.083712	0.806344
	H325	H	1.097851	0.069119	0.802857
	H326	H	1.083461	0.074714	0.802793
	O327	O	1.330861	-0.291304	0.302668
	H328	H	1.350227	-0.289001	0.318379
	H329	H	1.348914	-0.279890	0.322882
	O330	O	0.466722	0.422670	0.462043
	H331	H	0.459190	0.429623	0.469659
	H332	H	0.466043	0.422989	0.452123
	O333	O	0.335992	0.697702	0.669638
	H334	H	0.341691	0.677705	0.661709
	H335	H	0.336551	0.700381	0.662790
	O336	O	0.693610	0.427776	0.614329
	H337	H	0.692502	0.416343	0.629931
	H338	H	0.699734	0.410757	0.595683
	O339	O	0.725981	0.724691	0.535863
	H340	H	0.739131	0.736035	0.546381
	H341	H	0.744572	0.725003	0.537671
	O342	O	-0.012478	1.054544	0.179893
	H343	H	-0.007984	1.057240	0.163376
	H344	H	-0.006683	1.060822	0.177969
	O345	O	0.539620	0.721195	0.713653
	H346	H	0.544862	0.722063	0.711907
	H347	H	0.531278	0.724778	0.730949
	O348	O	-0.156909	0.831410	0.811421
	H349	H	-0.143842	0.848574	0.824455
	H350	H	-0.139773	0.834253	0.836814
	O351	O	-0.187470	0.196788	0.807242
	H352	H	-0.153917	0.184758	0.797327
	H353	H	-0.195298	0.208174	0.832840
	O354	O	1.521002	-0.441922	1.451770
	H355	H	1.527760	-0.444263	1.471273
	H356	H	1.518164	-0.422738	1.446242
	O357	O	0.710998	0.497179	0.305283
	H358	H	0.704324	0.490430	0.292201
	H359	H	0.705218	0.494955	0.319604
	O360	O	0.448539	0.619647	0.662301
	H361	H	0.442150	0.625116	0.659820
	H362	H	0.437553	0.592242	0.655457
	O363	O	0.553789	0.616559	0.324121
	H364	H	0.537191	0.605555	0.343059
	H365	H	0.558254	0.616326	0.332848
	O366	O	1.026482	0.223826	1.112771
	H367	H	1.025471	0.216228	1.117167
	H368	H	1.026338	0.234112	1.130986
	O369	O	-0.049446	-0.098424	1.133438
	H370	H	-0.042637	-0.101134	1.138107
	H371	H	-0.046736	-0.091861	1.143786
	O372	O	0.538325	1.578703	0.530854
	H373	H	0.538528	1.549009	0.545091
	H374	H	0.549785	1.575724	0.544141
	O375	O	0.977324	-0.039377	-0.220387
	H376	H	0.966839	-0.033713	-0.212557
	H377	H	0.985139	-0.031814	-0.223071
	O378	O	0.708964	0.709523	0.703664
	H379	H	0.685032	0.718835	0.684505
	H380	H	0.736527	0.727593	0.732968
	O381	O	0.160904	0.965384	0.060512
	H382	H	0.165232	0.949490	0.063793
	H383	H	0.152917	0.963103	0.068314
	O384	O	0.291817	0.462238	0.447090
	H385	H	0.293991	0.450232	0.443480
	H386	H	0.287530	0.469131	0.435157
	O387	O	-0.039311	0.962484	0.981556
	H388	H	-0.032054	0.961283	0.991331
	H389	H	-0.022754	0.972289	0.971011
	O390	O	0.201846	1.005154	0.989505
	H391	H	0.205458	1.001308	1.010383
	H392	H	0.198142	1.029896	1.001320
	O393	O	0.794199	0.219582	-0.026448
	H394	H	0.782138	0.233630	-0.018341
	H395	H	0.793975	0.216800	-0.027709
	O396	O	1.004131	0.078434	0.107772
	H397	H	1.006879	0.071053	0.110734
	H398	H	1.021546	0.072947	0.092775
	O399	O	0.307228	0.309369	0.685692
	H400	H	0.346376	0.304963	0.681892
	H401	H	0.304193	0.298703	0.682558
	O402	O	0.799043	-0.196901	1.209658
	H403	H	0.776815	-0.211380	1.206351
	H404	H	0.784083	-0.187084	1.223752
	O405	O	0.502964	0.474339	0.364268
	H406	H	0.490060	0.467560	0.373298
	H407	H	0.492431	0.477840	0.360930
	O408	O	0.820244	1.035509	0.798520
	H409	H	0.811926	1.040248	0.809309
	H410	H	0.811564	1.046766	0.792331
	O411	O	1.202948	1.206293	0.196923
	H412	H	1.201019	1.191239	0.208658
	H413	H	1.184817	1.196256	0.189533
	O414	O	-0.023712	-0.207097	0.219461
	H415	H	-0.053893	-0.214535	0.219566
	H416	H	-0.031808	-0.230228	0.225734
	O417	O	0.209086	0.205111	0.801151
	H418	H	0.224908	0.211386	0.814764
	H419	H	0.199840	0.202667	0.812762
	O420	O	0.964495	-0.190680	0.953994
	H421	H	0.975164	-0.190195	0.958093
	H422	H	0.974434	-0.183547	0.969736
	O423	O	1.013811	1.219920	0.096981
	H424	H	1.021291	1.207454	0.102816
	H425	H	1.016162	1.226072	0.098768
	O426	O	0.464736	0.692120	0.318901
	H427	H	0.470868	0.701235	0.313038
	H428	H	0.486520	0.696202	0.336900
	O429	O	0.692019	0.693510	0.312741
	H430	H	0.680275	0.667312	0.326797
	H431	H	0.670690	0.679620	0.336293
	O432	O	1.224520	0.026605	1.132020
	H433	H	1.215953	0.022305	1.126799
	H434	H	1.230498	0.013180	1.144535
	O435	O	-0.209068	0.793676	1.035355
	H436	H	-0.228548	0.764981	1.033941
	H437	H	-0.190526	0.798046	1.052332
	O438	O	0.294681	0.478324	0.531888
	H439	H	0.302858	0.463724	0.534427
	H440	H	0.293578	0.462329	0.560976
	O441	O	0.345937	0.543351	0.281693
	H442	H	0.321414	0.545435	0.260987
	H443	H	0.346119	0.577499	0.292499
	O444	O	0.599618	0.384573	0.618972
	H445	H	0.604608	0.390894	0.608144
	H446	H	0.604742	0.403299	0.615302
	O447	O	0.535235	0.286951	0.286093
	H448	H	0.548909	0.279365	0.267324
	H449	H	0.522303	0.292263	0.276228
	O450	O	0.291363	0.479954	-0.288598
	H451	H	0.293613	0.459469	-0.278924
	H452	H	0.278716	0.458880	-0.275245
	O453	O	0.049616	0.799390	0.791771
	H454	H	0.043567	0.797180	0.795337
	H455	H	0.039558	0.798328	0.780919
	O456	O	-0.155584	1.047821	1.083329
	H457	H	-0.167818	1.034214	1.081305
	H458	H	-0.148773	1.032659	1.089836
	O459	O	0.718879	0.510165	0.694709
	H460	H	0.716690	0.522668	0.684518
	H461	H	0.747545	0.510371	0.721365
	O462	O	0.701481	0.324958	0.310783
	H463	H	0.711503	0.346342	0.312051
	H464	H	0.677984	0.317915	0.303378
	O465	O	0.559584	0.375882	0.522093
	H466	H	0.548166	0.375202	0.517636
	H467	H	0.579090	0.375678	0.509402
	O468	O	-0.193514	0.997471	0.018421
	H469	H	-0.187687	0.995221	0.022481
	H470	H	-0.192663	0.988221	0.023471
	O471	O	0.560722	0.344899	0.667526
	H472	H	0.567865	0.338812	0.671716
	H473	H	0.565172	0.335225	0.669413
	O474	O	1.084142	1.205550	-0.078913
	H475	H	1.079842	1.190327	-0.075440
	H476	H	1.105400	1.219996	-0.067463
	O477	O	0.716378	0.296311	0.477219
	H478	H	0.710680	0.312780	0.459930
	H479	H	0.734086	0.268286	0.475095
