data_Molecule from HDF5

_cell_length_a		16.590732
_cell_length_b		16.695192
_cell_length_c		16.452773
_cell_angle_alpha	90.089322
_cell_angle_beta	89.921878
_cell_angle_gamma	90.214427
_symmetry_space_group_name_H-M	'P 1'
_symmetry_Int_Tables_number		1

loop_
	_symmetry_equiv_pos_as_xyz
	x,y,z

loop_
	_atom_site_label
	_atom_site_type_symbol
	_atom_site_fract_x
	_atom_site_fract_y
	_atom_site_fract_z
	H0	H	0.370333	0.813834	0.719518
	H1	H	0.580978	0.125715	0.720492
	H2	H	0.577417	0.814508	0.277354
	H3	H	0.373747	0.128202	0.280980
	H4	H	0.696856	0.366800	0.840997
	H5	H	0.692696	0.573219	0.158619
	H6	H	0.255698	0.576322	0.839284
	H7	H	0.248013	0.362399	0.151063
	H8	H	0.822127	0.696051	0.387464
	H9	H	0.131403	0.693540	0.604892
	H10	H	0.819079	0.248680	0.604546
	H11	H	0.130410	0.249134	0.391826
	H12	H	0.816707	0.369626	0.716192
	H13	H	0.132603	0.574166	0.716607
	H14	H	0.819957	0.576462	0.275305
	H15	H	0.132041	0.368301	0.278521
	H16	H	0.373183	0.690630	0.838932
	H17	H	0.576188	0.688108	0.159127
	H18	H	0.583898	0.248220	0.842302
	H19	H	0.360565	0.244328	0.149573
	H20	H	0.697171	0.815928	0.390172
	H21	H	0.699055	0.124744	0.604545
	H22	H	0.252663	0.815146	0.605045
	H23	H	0.258050	0.128169	0.399331
	H24	H	0.872228	0.314505	0.216760
	H25	H	0.081249	0.625764	0.222024
	H26	H	0.075579	0.315505	0.778308
	H27	H	0.869477	0.627468	0.775663
	H28	H	0.195901	0.867467	0.341808
	H29	H	0.194681	0.075868	0.657314
	H30	H	0.755814	0.074633	0.340776
	H31	H	0.750212	0.862708	0.652491
	H32	H	0.326154	0.199793	0.882252
	H33	H	0.628041	0.196607	0.105026
	H34	H	0.318174	0.750450	0.102563
	H35	H	0.633466	0.750703	0.893935
	H36	H	0.315984	0.869357	0.216013
	H37	H	0.630438	0.076352	0.217444
	H38	H	0.320536	0.075416	0.776015
	H39	H	0.633400	0.866758	0.777931
	H40	H	0.869798	0.191819	0.342685
	H41	H	0.081957	0.193465	0.655396
	H42	H	0.079943	0.750628	0.342372
	H43	H	0.867368	0.749098	0.654090
	H44	H	0.197300	0.318903	0.888919
	H45	H	0.199008	0.625399	0.106017
	H46	H	0.753308	0.316164	0.102143
	H47	H	0.755841	0.628879	0.894996
	H48	H	0.392364	0.080329	0.589875
	H49	H	0.563451	0.861227	0.583856
	H50	H	0.562805	0.078898	0.415669
	H51	H	0.384869	0.859337	0.406800
	H52	H	0.562164	0.390097	0.108013
	H53	H	0.573737	0.563932	0.883031
	H54	H	0.389984	0.560508	0.108367
	H55	H	0.381113	0.383659	0.882676
	H56	H	0.088065	0.566113	0.412169
	H57	H	0.863597	0.560552	0.583037
	H58	H	0.088280	0.375056	0.585699
	H59	H	0.862509	0.376713	0.410877
	H60	H	0.084870	0.384277	0.583203
	H61	H	0.862961	0.559283	0.589699
	H62	H	0.081954	0.557081	0.419888
	H63	H	0.864542	0.381940	0.412115
	H64	H	0.385218	0.564250	0.112713
	H65	H	0.564712	0.557596	0.887197
	H66	H	0.555490	0.382582	0.108471
	H67	H	0.390512	0.396155	0.890598
	H68	H	0.574300	0.084319	0.408532
	H69	H	0.564001	0.859208	0.586119
	H70	H	0.382687	0.080636	0.583269
	H71	H	0.385210	0.859334	0.410246
	H72	H	0.886576	0.580761	0.081376
	H73	H	0.057313	0.365749	0.077985
	H74	H	0.062152	0.584153	0.903765
	H75	H	0.881699	0.359803	0.905886
	H76	H	0.072539	0.886352	0.614574
	H77	H	0.069991	0.060716	0.384560
	H78	H	0.891650	0.061241	0.610730
	H79	H	0.885979	0.880349	0.383729
	H80	H	0.589948	0.064821	0.911144
	H81	H	0.359995	0.064771	0.087998
	H82	H	0.588016	0.881350	0.089042
	H83	H	0.365942	0.882045	0.909746
	H84	H	0.588320	0.879202	0.089141
	H85	H	0.364091	0.059531	0.080276
	H86	H	0.584584	0.058500	0.918736
	H87	H	0.362723	0.877954	0.906409
	H88	H	0.882652	0.061179	0.613928
	H89	H	0.063337	0.055977	0.388083
	H90	H	0.057021	0.887958	0.608010
	H91	H	0.887879	0.886602	0.387136
	H92	H	0.062639	0.581412	0.911541
	H93	H	0.071157	0.358347	0.082735
	H94	H	0.879529	0.585350	0.090058
	H95	H	0.886855	0.361219	0.907619
	H96	H	0.382455	0.084269	0.593957
	H97	H	0.561150	0.860349	0.585989
	H98	H	0.561718	0.083124	0.401830
	H99	H	0.382222	0.859113	0.408916
	H100	H	0.565043	0.381186	0.111291
	H101	H	0.563642	0.568300	0.883657
	H102	H	0.383433	0.557796	0.110305
	H103	H	0.398024	0.380548	0.886773
	H104	H	0.085249	0.553760	0.407484
	H105	H	0.862147	0.565793	0.587348
	H106	H	0.088274	0.382461	0.592717
	H107	H	0.862113	0.380731	0.406778
	H108	H	0.891054	0.582318	0.092433
	H109	H	0.058407	0.359965	0.093547
	H110	H	0.069292	0.585784	0.907722
	H111	H	0.882089	0.362033	0.911723
	H112	H	0.061518	0.873355	0.614893
	H113	H	0.061583	0.064270	0.385711
	H114	H	0.886448	0.053486	0.609496
	H115	H	0.892722	0.881376	0.386621
	H116	H	0.586734	0.054706	0.908305
	H117	H	0.362908	0.055528	0.089163
	H118	H	0.587566	0.880202	0.087151
	H119	H	0.364256	0.876798	0.912054
	C120	C	0.353613	-0.021282	0.621191
	C121	C	0.595922	0.962599	0.618130
	C122	C	0.597308	-0.020534	0.375775
	C123	C	0.353759	0.962993	0.378226
	C124	C	0.594750	0.351780	0.006080
	C125	C	0.596889	0.592788	0.990619
	C126	C	0.354652	0.592575	0.005886
	C127	C	0.353998	0.351313	0.988319
	C128	C	-0.016708	0.591966	0.378189
	C129	C	0.966774	0.592942	0.618686
	C130	C	-0.016756	0.349682	0.619078
	C131	C	0.966241	0.348491	0.377252
	C132	C	0.853441	0.479840	0.120006
	C133	C	0.096363	0.462949	0.119241
	C134	C	0.095503	0.480835	0.875730
	C135	C	0.852506	0.464035	0.876481
	C136	C	0.096215	0.850748	0.508021
	C137	C	0.096597	0.092475	0.490385
	C138	C	0.854721	0.090902	0.507455
	C139	C	0.854153	0.849250	0.488581
	C140	C	0.485306	0.091990	0.877195
	C141	C	0.465306	0.093296	0.118787
	C142	C	0.483511	0.849545	0.119801
	C143	C	0.468006	0.848166	0.877212
	C144	C	0.352030	0.861076	0.679839
	C145	C	0.598985	0.079366	0.679562
	C146	C	0.597044	0.861886	0.316486
	C147	C	0.354386	0.081172	0.320572
	C148	C	0.656364	0.348954	0.888232
	C149	C	0.653683	0.592418	0.110922
	C150	C	0.295484	0.594521	0.886800
	C151	C	0.289408	0.345494	0.104335
	C152	C	0.867818	0.654362	0.371741
	C153	C	0.084257	0.653191	0.622233
	C154	C	0.865516	0.289817	0.621939
	C155	C	0.083780	0.289329	0.374186
	C156	C	0.864421	0.349745	0.677533
	C157	C	0.085030	0.593584	0.677796
	C158	C	0.866842	0.594718	0.315932
	C159	C	0.084454	0.348458	0.317755
	C160	C	0.354030	0.651421	0.886806
	C161	C	0.595774	0.649502	0.111182
	C162	C	0.599928	0.290031	0.888813
	C163	C	0.345461	0.286698	0.103628
	C164	C	0.656762	0.862479	0.372511
	C165	C	0.657549	0.078894	0.621822
	C166	C	0.293128	0.861737	0.622966
	C167	C	0.296784	0.081080	0.379240
	C168	C	0.852573	0.361757	0.177948
	C169	C	0.099749	0.579094	0.181236
	C170	C	0.095488	0.362802	0.817183
	C171	C	0.850817	0.580805	0.815887
	C172	C	0.156023	0.848804	0.389069
	C173	C	0.155763	0.094536	0.609271
	C174	C	0.795387	0.092982	0.388444
	C175	C	0.791247	0.845272	0.605662
	C176	C	0.370727	0.156013	0.868404
	C177	C	0.581794	0.155275	0.122774
	C178	C	0.364974	0.790403	0.120941
	C179	C	0.586229	0.790009	0.875345
	C180	C	0.363977	0.849815	0.177099
	C181	C	0.582934	0.095748	0.178745
	C182	C	0.368209	0.094316	0.815228
	C183	C	0.586352	0.847644	0.817520
	C184	C	0.852000	0.151430	0.389601
	C185	C	0.099139	0.152677	0.608597
	C186	C	0.098728	0.790722	0.389327
	C187	C	0.849532	0.788749	0.606613
	C188	C	0.155827	0.364344	0.872166
	C189	C	0.158305	0.578908	0.123671
	C190	C	0.793675	0.362522	0.121001
	C191	C	0.794379	0.581520	0.875385
	C192	C	0.378428	0.060658	0.596278
	C193	C	0.570339	0.881426	0.592433
	C194	C	0.573061	0.060967	0.401440
	C195	C	0.377256	0.880516	0.401830
	C196	C	0.568184	0.377358	0.087852
	C197	C	0.573900	0.569916	0.906828
	C198	C	0.379015	0.567831	0.088769
	C199	C	0.382257	0.378905	0.907596
	C200	C	0.064174	0.566129	0.405609
	C201	C	0.884248	0.568820	0.593721
	C202	C	0.065589	0.373841	0.594345
	C203	C	0.884275	0.372772	0.402744
	C204	C	0.878418	0.561569	0.095170
	C205	C	0.069844	0.382258	0.092597
	C206	C	0.071412	0.562492	0.900784
	C207	C	0.876692	0.382367	0.901113
	C208	C	0.070767	0.875529	0.590699
	C209	C	0.071952	0.067429	0.407768
	C210	C	0.879670	0.065730	0.589979
	C211	C	0.881311	0.875332	0.407046
	C212	C	0.565929	0.066499	0.904682
	C213	C	0.383677	0.067359	0.093146
	C214	C	0.566196	0.873376	0.095545
	C215	C	0.385822	0.872119	0.902087
	Zn216	Zn	0.476691	-0.030254	0.749297
	Zn217	Zn	0.474539	-0.028337	0.247588
	Zn218	Zn	0.724382	0.472148	-0.001190
	Zn219	Zn	0.225113	0.471777	-0.003858
	Zn220	Zn	-0.024584	0.722089	0.498432
	Zn221	Zn	-0.024519	0.219985	0.499262
	Zn222	Zn	-0.025568	0.471824	0.747145
	Zn223	Zn	-0.025102	0.470677	0.249228
	Zn224	Zn	0.475946	0.720550	-0.001014
	Zn225	Zn	0.474503	0.221958	-0.002884
	Zn226	Zn	0.726548	-0.029842	0.497314
	Zn227	Zn	0.224305	-0.028806	0.499630
	N228	N	0.388522	0.935040	0.679223
	N229	N	0.561293	0.006036	0.677370
	N230	N	0.560802	0.935714	0.318132
	N231	N	0.388872	0.006550	0.319637
	N232	N	0.653239	0.386992	0.962121
	N233	N	0.654789	0.558367	0.034848
	N234	N	0.295452	0.558919	0.962162
	N235	N	0.294408	0.385034	0.031403
	N236	N	0.941225	0.652667	0.410002
	N237	N	0.009507	0.653174	0.586527
	N238	N	0.940347	0.289548	0.586490
	N239	N	0.009089	0.288971	0.410294
	N240	N	0.938760	0.386275	0.676038
	N241	N	0.010656	0.557041	0.676060
	N242	N	0.939675	0.556346	0.319812
	N243	N	0.010232	0.384350	0.319240
	N244	N	0.389768	0.650718	0.962064
	N245	N	0.561406	0.650261	0.035154
	N246	N	0.562218	0.291676	0.963089
	N247	N	0.385231	0.290261	0.030422
	N248	N	0.657118	0.936639	0.408670
	N249	N	0.655762	0.005379	0.584457
	N250	N	0.294087	0.936027	0.586990
	N251	N	0.296120	0.006422	0.414033
	N252	N	0.888922	0.435751	0.177729
	N253	N	0.062006	0.505779	0.178841
	N254	N	0.058890	0.436386	0.819002
	N255	N	0.886141	0.506610	0.816113
	N256	N	0.154991	0.884971	0.464049
	N257	N	0.154486	0.057673	0.534670
	N258	N	0.796643	0.056232	0.462948
	N259	N	0.793888	0.882053	0.531182
	N260	N	0.444260	0.154736	0.906431
	N261	N	0.507176	0.154374	0.086794
	N262	N	0.440306	0.790128	0.085949
	N263	N	0.511586	0.789893	0.911558
	N264	N	0.438749	0.885575	0.176924
	N265	N	0.509257	0.058066	0.176733
	N266	N	0.440594	0.055136	0.820269
	N267	N	0.511698	0.882858	0.818308
	N268	N	0.888160	0.150329	0.464623
	N269	N	0.063094	0.151575	0.533594
	N270	N	0.062621	0.791586	0.464390
	N271	N	0.888023	0.790968	0.532820
	N272	N	0.156068	0.438680	0.907838
	N273	N	0.156428	0.505552	0.085849
	N274	N	0.793818	0.437250	0.086179
	N275	N	0.795142	0.507849	0.912250
	O276	O	0.023549	1.081205	-0.209488
	H277	H	0.054923	1.098252	-0.215772
	H278	H	0.030805	1.058152	-0.214292
	O279	O	0.525628	0.641486	0.415954
	H280	H	0.512563	0.634894	0.413595
	H281	H	0.497498	0.652398	0.412853
	O282	O	1.256402	0.426533	0.451034
	H283	H	1.252016	0.432790	0.447378
	H284	H	1.253110	0.440268	0.460330
	O285	O	0.532685	0.426887	0.718172
	H286	H	0.538648	0.435590	0.725308
	H287	H	0.517554	0.439893	0.713007
	O288	O	0.288547	0.287579	0.314225
	H289	H	0.308923	0.319986	0.319270
	H290	H	0.306560	0.291232	0.343516
	O291	O	0.571229	0.340583	0.386190
	H292	H	0.588288	0.347608	0.366659
	H293	H	0.572464	0.343036	0.373351
	O294	O	1.258546	0.438515	1.700724
	H295	H	1.247742	0.444670	1.708522
	H296	H	1.254027	0.421078	1.701149
	O297	O	0.518858	0.419544	0.643109
	H298	H	0.523342	0.409433	0.616629
	H299	H	0.511480	0.427461	0.644551
	O300	O	-0.105675	0.156383	0.989974
	H301	H	-0.106660	0.156037	0.972332
	H302	H	-0.119330	0.143757	0.981933
	O303	O	0.490823	0.240900	0.510137
	H304	H	0.494549	0.230758	0.501503
	H305	H	0.493113	0.247866	0.486088
	O306	O	0.689037	0.509871	0.709962
	H307	H	0.703920	0.510170	0.713887
	H308	H	0.698318	0.504838	0.711606
	O309	O	0.381024	0.538369	0.688537
	H310	H	0.364729	0.546465	0.690138
	H311	H	0.393497	0.538260	0.675444
	O312	O	0.500393	0.343234	0.458918
	H313	H	0.496986	0.346134	0.458880
	H314	H	0.504753	0.340146	0.450508
	O315	O	1.012721	1.154347	1.116795
	H316	H	1.014470	1.122433	1.109858
	H317	H	0.988469	1.156819	1.115446
	O318	O	-0.239796	0.177767	0.795042
	H319	H	-0.196493	0.178054	0.790806
	H320	H	-0.260381	0.203621	0.783873
	O321	O	0.674967	0.674944	0.699091
	H322	H	0.683890	0.659026	0.673306
	H323	H	0.668617	0.668883	0.701279
	O324	O	0.759568	1.008596	-0.213637
	H325	H	0.751991	1.029826	-0.217490
	H326	H	0.741071	1.024512	-0.221099
	O327	O	0.196896	-0.256054	0.970150
	H328	H	0.200204	-0.261926	0.942557
	H329	H	0.209003	-0.275816	0.962584
	O330	O	0.171547	0.773395	-0.196193
	H331	H	0.152046	0.791579	-0.201297
	H332	H	0.163411	0.803422	-0.188934
	O333	O	0.784705	0.163232	1.181407
	H334	H	0.776665	0.156655	1.166619
	H335	H	0.804656	0.155397	1.164768
	O336	O	0.621832	0.278708	0.654210
	H337	H	0.605066	0.279573	0.629858
	H338	H	0.605222	0.298983	0.645494
	O339	O	0.748548	-0.057716	0.985089
	H340	H	0.747162	-0.065549	0.965077
	H341	H	0.754991	-0.078370	0.984768
	O342	O	0.440183	0.500075	0.538228
	H343	H	0.433011	0.494957	0.554618
	H344	H	0.437008	0.502677	0.534140
	O345	O	-0.060508	0.807948	0.995505
	H346	H	-0.044271	0.813437	0.986470
	H347	H	-0.069856	0.811978	0.975131
	O348	O	0.533223	0.376116	0.474537
	H349	H	0.531482	0.378853	0.471314
	H350	H	0.534798	0.378429	0.475146
	O351	O	0.112384	0.989565	0.060571
	H352	H	0.107390	0.970434	0.060677
	H353	H	0.104693	0.985934	0.071847
	O354	O	0.199516	0.181648	0.998899
	H355	H	0.206345	0.201952	1.026497
	H356	H	0.180770	0.194162	1.022817
	O357	O	0.269855	0.679467	0.293061
	H358	H	0.246865	0.670102	0.273015
	H359	H	0.249284	0.685165	0.296157
	O360	O	0.697574	0.482170	0.509198
	H361	H	0.697996	0.474902	0.508031
	H362	H	0.689303	0.477478	0.520149
	O363	O	0.303768	0.661071	-0.387107
	H364	H	0.308621	0.663580	-0.388366
	H365	H	0.290360	0.667704	-0.391493
	O366	O	0.313001	0.618893	0.485549
	H367	H	0.299094	0.631746	0.493691
	H368	H	0.318781	0.622480	0.485479
	O369	O	1.027283	-0.195656	-0.167943
	H370	H	1.026197	-0.199567	-0.190213
	H371	H	1.015862	-0.185177	-0.172658
	O372	O	1.199988	1.007719	0.224990
	H373	H	1.212530	1.036679	0.232019
	H374	H	1.221104	1.029185	0.240088
	O375	O	0.969992	-0.249862	-0.003833
	H376	H	0.952294	-0.252365	0.012497
	H377	H	0.992637	-0.254657	-0.014095
	O378	O	0.379613	0.587098	0.510088
	H379	H	0.363078	0.596436	0.509207
	H380	H	0.382577	0.583309	0.523337
	O381	O	-0.173875	0.973180	1.056717
	H382	H	-0.170661	0.967102	1.043190
	H383	H	-0.177428	0.956593	1.052136
	O384	O	1.210628	0.019860	0.929588
	H385	H	1.200457	0.004525	0.962182
	H386	H	1.218798	0.056472	0.946842
	O387	O	0.781350	0.772609	0.201859
	H388	H	0.805387	0.773445	0.186110
	H389	H	0.757966	0.756451	0.212307
	O390	O	0.758436	0.943868	0.218086
	H391	H	0.754576	0.920464	0.221015
	H392	H	0.737985	0.941152	0.230956
	O393	O	0.680336	0.265965	0.293018
	H394	H	0.682886	0.307397	0.291522
	H395	H	0.684523	0.244596	0.273618
	O396	O	0.165899	1.163707	0.810967
	H397	H	0.177742	1.171117	0.843388
	H398	H	0.187927	1.176030	0.801091
	O399	O	0.191902	0.178900	1.214411
	H400	H	0.205029	0.211931	1.241015
	H401	H	0.158871	0.195368	1.209855
	O402	O	0.371430	-0.323508	0.546811
	H403	H	0.367410	-0.326731	0.553999
	H404	H	0.371636	-0.321270	0.554085
	O405	O	1.749297	0.748133	0.038221
	H406	H	1.737563	0.724285	0.030619
	H407	H	1.750446	0.737650	0.048271
	O408	O	-0.046012	0.042472	-0.104886
	H409	H	-0.034368	0.040903	-0.101581
	H410	H	-0.051782	0.047659	-0.124767
	O411	O	0.987492	0.934500	0.945861
	H412	H	0.986608	0.922123	0.957600
	H413	H	0.986981	0.938353	0.949928
	O414	O	0.438043	0.690853	0.281653
	H415	H	0.390695	0.684765	0.292787
	H416	H	0.433753	0.719761	0.249694
	O417	O	0.958900	1.088410	0.193888
	H418	H	0.932317	1.085084	0.184575
	H419	H	0.955379	1.089004	0.205452
	O420	O	0.805752	0.798053	0.811830
	H421	H	0.800049	0.786310	0.794967
	H422	H	0.817746	0.824002	0.816605
	O423	O	-0.054280	-0.077601	1.160525
	H424	H	-0.058794	-0.078985	1.149868
	H425	H	-0.058527	-0.084693	1.160187
	O426	O	0.511757	0.689178	0.707465
	H427	H	0.523577	0.683750	0.711589
	H428	H	0.525506	0.704800	0.726988
	O429	O	0.950359	1.138199	1.163761
	H430	H	0.943515	1.127154	1.140681
	H431	H	0.950985	1.148727	1.182143
	O432	O	0.680188	0.604118	0.356849
	H433	H	0.678619	0.602702	0.382567
	H434	H	0.659388	0.601021	0.377227
	O435	O	-0.837612	0.776048	-0.811407
	H436	H	-0.857404	0.789368	-0.833483
	H437	H	-0.861639	0.797898	-0.820599
	O438	O	-0.120819	-0.135040	-0.176025
	H439	H	-0.110861	-0.118451	-0.179071
	H440	H	-0.117774	-0.125847	-0.180751
	O441	O	0.197579	-0.065500	-0.220696
	H442	H	0.204282	-0.037231	-0.183370
	H443	H	0.235851	-0.058138	-0.248595
	O444	O	0.263724	0.265465	0.518298
	H445	H	0.250865	0.259977	0.524797
	H446	H	0.265613	0.267974	0.525325
	O447	O	0.278216	1.280605	0.689866
	H448	H	0.329316	1.276077	0.693308
	H449	H	0.273481	1.297868	0.668845
	O450	O	-0.306060	1.320343	1.501614
	H451	H	-0.295622	1.312938	1.484718
	H452	H	-0.309052	1.303057	1.496018
	O453	O	1.062914	0.887850	1.165814
	H454	H	1.042503	0.907410	1.165782
	H455	H	1.086614	0.908073	1.173498
	O456	O	0.522789	0.517612	1.316135
	H457	H	0.528858	0.524950	1.311906
	H458	H	0.522018	0.526537	1.322828
	O459	O	0.952223	0.761533	0.202274
	H460	H	0.944071	0.766608	0.196176
	H461	H	0.955546	0.764198	0.211234
	O462	O	0.692659	0.685422	0.521541
	H463	H	0.684599	0.700109	0.511066
	H464	H	0.688648	0.705516	0.520307
	O465	O	1.361228	0.440532	0.271793
	H466	H	1.373283	0.440417	0.272619
	H467	H	1.365649	0.460120	0.265248
	O468	O	0.692335	0.439363	0.283855
	H469	H	0.715189	0.442445	0.269376
	H470	H	0.703153	0.457659	0.302953
	O471	O	0.415486	0.259606	0.708368
	H472	H	0.443029	0.260966	0.702724
	H473	H	0.421346	0.243286	0.725236
	O474	O	0.307061	0.516246	0.333434
	H475	H	0.318952	0.499334	0.329509
	H476	H	0.286000	0.510405	0.317130
	O477	O	0.922112	0.189025	1.804168
	H478	H	0.933978	0.204203	1.782272
	H479	H	0.940020	0.168435	1.809069
	O480	O	0.142659	0.959885	0.033885
	H481	H	0.138063	0.940107	0.032305
	H482	H	0.141925	0.960111	0.045762
	O483	O	-0.210964	1.187104	-0.033565
	H484	H	-0.209968	1.177322	-0.043289
	H485	H	-0.220535	1.197467	-0.049558
	O486	O	0.993721	-0.114764	0.838441
	H487	H	1.007750	-0.108144	0.843830
	H488	H	1.011009	-0.119617	0.839469
	O489	O	1.498313	0.254754	0.277020
	H490	H	1.502412	0.250335	0.258473
	H491	H	1.516681	0.254482	0.263098
