data_Molecule from HDF5

_cell_length_a		16.529405
_cell_length_b		16.539002
_cell_length_c		16.523063
_cell_angle_alpha	89.865436
_cell_angle_beta	90.066366
_cell_angle_gamma	90.013940
_symmetry_space_group_name_H-M	'P 1'
_symmetry_Int_Tables_number		1

loop_
	_symmetry_equiv_pos_as_xyz
	x,y,z

loop_
	_atom_site_label
	_atom_site_type_symbol
	_atom_site_fract_x
	_atom_site_fract_y
	_atom_site_fract_z
	H0	H	0.400160	0.854784	0.730781
	H1	H	0.617312	0.165763	0.730370
	H2	H	0.612593	0.852530	0.284936
	H3	H	0.401365	0.167057	0.285557
	H4	H	0.728885	0.405860	0.848721
	H5	H	0.727657	0.613809	0.162954
	H6	H	0.287458	0.613543	0.847895
	H7	H	0.287138	0.404140	0.162033
	H8	H	0.851232	0.731539	0.399500
	H9	H	0.162593	0.731614	0.612950
	H10	H	0.848520	0.291516	0.607891
	H11	H	0.166165	0.290216	0.404539
	H12	H	0.849868	0.404541	0.727212
	H13	H	0.164101	0.612902	0.727031
	H14	H	0.851122	0.613570	0.284254
	H15	H	0.166363	0.406508	0.286615
	H16	H	0.403033	0.731044	0.847924
	H17	H	0.612568	0.730845	0.162617
	H18	H	0.613270	0.288851	0.848829
	H19	H	0.403721	0.288593	0.163140
	H20	H	0.730649	0.853597	0.399910
	H21	H	0.729434	0.167391	0.611021
	H22	H	0.280531	0.856879	0.619001
	H23	H	0.286344	0.166615	0.402523
	H24	H	0.905459	0.352896	0.225179
	H25	H	0.111726	0.668213	0.224808
	H26	H	0.110026	0.350060	0.787667
	H27	H	0.902352	0.665520	0.782085
	H28	H	0.229928	0.902830	0.350595
	H29	H	0.228552	0.114390	0.664181
	H30	H	0.790577	0.110417	0.348234
	H31	H	0.785739	0.902868	0.663754
	H32	H	0.351446	0.233567	0.898724
	H33	H	0.665519	0.226853	0.107370
	H34	H	0.349771	0.789231	0.108902
	H35	H	0.664270	0.787621	0.898982
	H36	H	0.348927	0.906019	0.225260
	H37	H	0.665236	0.109429	0.223133
	H38	H	0.351779	0.117576	0.781786
	H39	H	0.663866	0.903647	0.782266
	H40	H	0.905137	0.229241	0.348919
	H41	H	0.110932	0.228800	0.664945
	H42	H	0.113937	0.786486	0.350905
	H43	H	0.900832	0.785356	0.662631
	H44	H	0.228045	0.351203	0.902206
	H45	H	0.228757	0.668007	0.108082
	H46	H	0.788074	0.353347	0.109176
	H47	H	0.786573	0.667217	0.898924
	H48	H	0.411995	0.124234	0.592658
	H49	H	0.599459	0.899569	0.588740
	H50	H	0.595937	0.121787	0.413219
	H51	H	0.422510	0.898919	0.417701
	H52	H	0.592276	0.420712	0.116329
	H53	H	0.594407	0.607571	0.890622
	H54	H	0.414112	0.597541	0.119713
	H55	H	0.422359	0.416627	0.892679
	H56	H	0.118046	0.601950	0.427246
	H57	H	0.892858	0.598283	0.599978
	H58	H	0.119416	0.419621	0.594941
	H59	H	0.892456	0.415503	0.410534
	H60	H	0.121261	0.420131	0.599720
	H61	H	0.896263	0.600129	0.587863
	H62	H	0.117817	0.588676	0.415441
	H63	H	0.896023	0.416759	0.420413
	H64	H	0.421117	0.595049	0.115310
	H65	H	0.604520	0.597167	0.891236
	H66	H	0.600026	0.413466	0.121001
	H67	H	0.413703	0.422336	0.891569
	H68	H	0.596199	0.121097	0.417999
	H69	H	0.597740	0.896100	0.599970
	H70	H	0.424076	0.122424	0.599525
	H71	H	0.415052	0.898078	0.422157
	H72	H	0.916063	0.621955	0.089485
	H73	H	0.103052	0.395482	0.097100
	H74	H	0.103642	0.623972	0.913383
	H75	H	0.916601	0.398980	0.921185
	H76	H	0.088572	0.921723	0.615827
	H77	H	0.096364	0.106742	0.392589
	H78	H	0.918181	0.103674	0.621294
	H79	H	0.921684	0.920040	0.395576
	H80	H	0.622598	0.102937	0.912780
	H81	H	0.393267	0.105265	0.090880
	H82	H	0.618481	0.922965	0.095619
	H83	H	0.396335	0.924739	0.916304
	H84	H	0.620919	0.919540	0.098881
	H85	H	0.395164	0.094165	0.095166
	H86	H	0.616795	0.101139	0.925877
	H87	H	0.395588	0.919934	0.918259
	H88	H	0.913450	0.100252	0.621320
	H89	H	0.103159	0.094924	0.393701
	H90	H	0.095799	0.917136	0.619376
	H91	H	0.917032	0.919890	0.393640
	H92	H	0.090618	0.620659	0.911605
	H93	H	0.094515	0.397617	0.100017
	H94	H	0.914420	0.626283	0.099187
	H95	H	0.914876	0.396056	0.915274
	H96	H	0.422447	0.117644	0.586746
	H97	H	0.588712	0.900634	0.594087
	H98	H	0.600085	0.122696	0.416289
	H99	H	0.416244	0.894576	0.413851
	H100	H	0.602860	0.424457	0.118699
	H101	H	0.590850	0.594380	0.895967
	H102	H	0.421325	0.602927	0.118143
	H103	H	0.422183	0.426693	0.896117
	H104	H	0.123781	0.604373	0.410744
	H105	H	0.898050	0.588654	0.593235
	H106	H	0.121067	0.415856	0.597498
	H107	H	0.896602	0.424796	0.413567
	H108	H	0.924427	0.621920	0.096649
	H109	H	0.097128	0.399780	0.091434
	H110	H	0.096598	0.618519	0.923528
	H111	H	0.921445	0.398204	0.915901
	H112	H	0.096297	0.925758	0.617568
	H113	H	0.090351	0.095839	0.397717
	H114	H	0.918451	0.098575	0.619477
	H115	H	0.918813	0.924208	0.395974
	H116	H	0.617349	0.090165	0.916439
	H117	H	0.390548	0.102297	0.102655
	H118	H	0.620177	0.918531	0.093596
	H119	H	0.398018	0.923568	0.921337
	C120	C	0.386338	0.018578	0.627400
	C121	C	0.628790	1.002044	0.626913
	C122	C	0.629185	0.017868	0.384398
	C123	C	0.385268	1.000947	0.385291
	C124	C	0.629395	0.388635	0.014328
	C125	C	0.628494	0.631501	0.996880
	C126	C	0.386544	0.631004	0.013668
	C127	C	0.387012	0.388990	0.997222
	C128	C	0.016194	0.630629	0.384688
	C129	C	0.999003	0.628617	0.626766
	C130	C	0.015755	0.387738	0.628056
	C131	C	0.999637	0.388157	0.384422
	C132	C	0.886934	0.519370	0.126964
	C133	C	0.129866	0.501780	0.126974
	C134	C	0.128840	0.517110	0.884811
	C135	C	0.885539	0.501416	0.884000
	C136	C	0.127864	0.888358	0.515028
	C137	C	0.128314	0.130645	0.498725
	C138	C	0.885909	0.131676	0.515791
	C139	C	0.886049	0.888103	0.498438
	C140	C	0.515948	0.131517	0.884504
	C141	C	0.497856	0.130819	0.126959
	C142	C	0.515441	0.888490	0.127345
	C143	C	0.499491	0.889333	0.884878
	C144	C	0.382393	0.901974	0.690300
	C145	C	0.633593	0.119053	0.688884
	C146	C	0.630928	0.899780	0.324868
	C147	C	0.383507	0.119669	0.325801
	C148	C	0.689094	0.386949	0.895958
	C149	C	0.688331	0.632901	0.115421
	C150	C	0.327012	0.632702	0.895090
	C151	C	0.327067	0.386206	0.115266
	C152	C	0.898098	0.690880	0.381667
	C153	C	0.116091	0.690369	0.630250
	C154	C	0.896283	0.329968	0.628126
	C155	C	0.118727	0.329766	0.384721
	C156	C	0.896808	0.386453	0.686978
	C157	C	0.116779	0.631614	0.687262
	C158	C	0.898058	0.632460	0.324416
	C159	C	0.118936	0.387604	0.326385
	C160	C	0.384410	0.691039	0.895310
	C161	C	0.630710	0.690699	0.115418
	C162	C	0.631476	0.328898	0.895966
	C163	C	0.385099	0.328750	0.115619
	C164	C	0.689689	0.900337	0.382169
	C165	C	0.689879	0.119885	0.629604
	C166	C	0.322951	0.902674	0.634273
	C167	C	0.326015	0.119611	0.383968
	C168	C	0.886081	0.400446	0.185796
	C169	C	0.131210	0.620833	0.185689
	C170	C	0.129343	0.397727	0.826751
	C171	C	0.883921	0.619141	0.822859
	C172	C	0.189562	0.884902	0.397810
	C173	C	0.188043	0.132491	0.617361
	C174	C	0.829004	0.130758	0.395802
	C175	C	0.825992	0.885100	0.616529
	C176	C	0.398347	0.192992	0.880745
	C177	C	0.617617	0.187883	0.126838
	C178	C	0.396804	0.829079	0.127984
	C179	C	0.617200	0.828191	0.881109
	C180	C	0.396259	0.887285	0.185574
	C181	C	0.617629	0.129786	0.184580
	C182	C	0.398583	0.135399	0.822601
	C183	C	0.617160	0.885915	0.823117
	C184	C	0.885932	0.189528	0.396293
	C185	C	0.129729	0.189562	0.617573
	C186	C	0.132120	0.826795	0.397778
	C187	C	0.882977	0.826501	0.615916
	C188	C	0.188123	0.398377	0.883553
	C189	C	0.188910	0.620657	0.127477
	C190	C	0.827739	0.400677	0.128183
	C191	C	0.825967	0.619603	0.880602
	C192	C	0.412388	0.100272	0.600567
	C193	C	0.602681	0.920214	0.601470
	C194	C	0.604283	0.100415	0.408929
	C195	C	0.410642	0.918590	0.410584
	C196	C	0.605152	0.412695	0.097124
	C197	C	0.603555	0.606867	0.914097
	C198	C	0.411705	0.605598	0.096242
	C199	C	0.412269	0.414507	0.914869
	C200	C	0.098618	0.605475	0.410355
	C201	C	0.916903	0.602995	0.600920
	C202	C	0.098877	0.411652	0.604272
	C203	C	0.916687	0.412185	0.407905
	C204	C	0.911319	0.601785	0.102270
	C205	C	0.105347	0.419321	0.103019
	C206	C	0.104152	0.599442	0.909151
	C207	C	0.910529	0.419201	0.909976
	C208	C	0.101288	0.914329	0.596455
	C209	C	0.103728	0.106076	0.416179
	C210	C	0.909786	0.107925	0.599001
	C211	C	0.911750	0.914109	0.416359
	C212	C	0.597522	0.105620	0.910724
	C213	C	0.414503	0.107279	0.103253
	C214	C	0.598134	0.913081	0.103173
	C215	C	0.417891	0.915329	0.911122
	Zn216	Zn	0.507703	0.010606	0.756104
	Zn217	Zn	0.506469	0.009460	0.256319
	Zn218	Zn	0.757538	0.510873	0.005352
	Zn219	Zn	0.257919	0.509375	0.004726
	Zn220	Zn	0.006649	0.758917	0.506271
	Zn221	Zn	0.007819	0.259558	0.507070
	Zn222	Zn	0.007159	0.508223	0.756742
	Zn223	Zn	0.008892	0.510189	0.255641
	Zn224	Zn	0.507702	0.760173	0.005601
	Zn225	Zn	0.507839	0.260136	0.005541
	Zn226	Zn	0.758172	0.009446	0.506552
	Zn227	Zn	0.256895	0.009768	0.507207
	N228	N	0.421310	0.975203	0.686050
	N229	N	0.596507	0.044736	0.687549
	N230	N	0.593828	0.973982	0.326148
	N231	N	0.419416	0.044724	0.326291
	N232	N	0.688013	0.423354	0.970498
	N233	N	0.687232	0.596981	0.040476
	N234	N	0.328235	0.596165	0.969766
	N235	N	0.328280	0.423080	0.040728
	N236	N	0.972732	0.689976	0.418432
	N237	N	0.041698	0.688555	0.593187
	N238	N	0.971248	0.330570	0.592323
	N239	N	0.043464	0.329793	0.419858
	N240	N	0.972184	0.421311	0.687278
	N241	N	0.042852	0.593837	0.685181
	N242	N	0.972542	0.595951	0.326193
	N243	N	0.043815	0.423035	0.325888
	N244	N	0.420593	0.690264	0.970243
	N245	N	0.594530	0.690056	0.040644
	N246	N	0.595291	0.329523	0.970813
	N247	N	0.421384	0.330057	0.040960
	N248	N	0.688415	0.974676	0.418848
	N249	N	0.687247	0.045941	0.591845
	N250	N	0.325297	0.976368	0.595909
	N251	N	0.326790	0.044635	0.420179
	N252	N	0.922065	0.475165	0.185295
	N253	N	0.095348	0.545914	0.185558
	N254	N	0.093155	0.472584	0.827221
	N255	N	0.920246	0.544486	0.825066
	N256	N	0.187175	0.922453	0.471869
	N257	N	0.187256	0.096367	0.542649
	N258	N	0.828665	0.095709	0.471313
	N259	N	0.827750	0.922608	0.542226
	N260	N	0.472275	0.190585	0.918601
	N261	N	0.541998	0.188993	0.092057
	N262	N	0.472152	0.829450	0.092854
	N263	N	0.543144	0.830245	0.918812
	N264	N	0.471125	0.923201	0.185603
	N265	N	0.541965	0.095388	0.185005
	N266	N	0.472699	0.097977	0.824869
	N267	N	0.542960	0.923317	0.825384
	N268	N	0.920152	0.190410	0.471958
	N269	N	0.093156	0.188308	0.542932
	N270	N	0.094312	0.828770	0.471547
	N271	N	0.919478	0.828235	0.541396
	N272	N	0.187859	0.473371	0.918946
	N273	N	0.188673	0.545499	0.092166
	N274	N	0.827941	0.475651	0.092317
	N275	N	0.827029	0.545393	0.918083
	O276	O	0.998235	0.876486	0.135624
	H277	H	1.011637	0.873171	0.137807
	H278	H	1.007422	0.873059	0.133072
	O279	O	0.038838	-0.104012	1.229641
	H280	H	0.023208	-0.100243	1.238510
	H281	H	0.033451	-0.104910	1.227716
	O282	O	0.606795	0.505763	0.309404
	H283	H	0.616337	0.503382	0.303835
	H284	H	0.603183	0.503064	0.317738
	O285	O	0.593797	0.419564	0.493275
	H286	H	0.584065	0.441388	0.481723
	H287	H	0.599578	0.415830	0.480603
	O288	O	0.891402	-0.061734	0.906049
	H289	H	0.890802	-0.071814	0.905105
	H290	H	0.905280	-0.049980	0.896686
	O291	O	0.425905	0.320558	0.473629
	H292	H	0.442649	0.311044	0.460455
	H293	H	0.427738	0.330040	0.447858
	O294	O	0.145032	0.166119	-0.210133
	H295	H	0.131862	0.172758	-0.214890
	H296	H	0.141355	0.156023	-0.219246
	O297	O	0.522251	-0.300069	-0.283142
	H298	H	0.516963	-0.288306	-0.263697
	H299	H	0.503032	-0.298209	-0.314288
	O300	O	-0.203309	0.018709	-0.132331
	H301	H	-0.205524	0.013284	-0.130409
	H302	H	-0.216254	-0.007168	-0.135786
	O303	O	0.067360	0.040881	0.089993
	H304	H	0.047025	0.039053	0.084676
	H305	H	0.068825	0.068115	0.081028
	O306	O	0.917000	0.218009	-0.199964
	H307	H	0.905652	0.208287	-0.208494
	H308	H	0.909099	0.233277	-0.220930
	O309	O	0.403402	0.406604	0.481334
	H310	H	0.400741	0.390773	0.493938
	H311	H	0.398196	0.396383	0.491807
	O312	O	-0.138741	0.068963	0.114135
	H313	H	-0.127600	0.092913	0.101851
	H314	H	-0.122172	0.059180	0.116297
	O315	O	0.299107	0.419101	0.428319
	H316	H	0.304341	0.407396	0.422673
	H317	H	0.291614	0.426001	0.435254
	O318	O	0.791675	0.793580	0.063587
	H319	H	0.768467	0.777998	0.069643
	H320	H	0.790039	0.790284	0.097393
	O321	O	0.211806	0.978254	0.803058
	H322	H	0.222259	0.965734	0.791416
	H323	H	0.194780	0.975478	0.799112
	O324	O	1.007973	-0.099637	1.023983
	H325	H	1.004729	-0.086680	1.025549
	H326	H	1.001470	-0.102686	1.027511
	O327	O	0.782184	0.237684	0.231711
	H328	H	0.797819	0.229216	0.232031
	H329	H	0.806712	0.215036	0.207975
	O330	O	0.291181	0.553446	0.311044
	H331	H	0.307612	0.558650	0.312543
	H332	H	0.263968	0.546138	0.287492
	O333	O	0.411703	0.457510	0.284357
	H334	H	0.409242	0.429326	0.276531
	H335	H	0.419313	0.453837	0.281782
	O336	O	0.294055	0.532848	0.684917
	H337	H	0.277115	0.543772	0.695469
	H338	H	0.302941	0.524688	0.681287
	O339	O	0.328535	0.624538	0.489122
	H340	H	0.314200	0.607289	0.491969
	H341	H	0.324866	0.616928	0.482690
	O342	O	0.132509	0.880918	0.173659
	H343	H	0.132082	0.895041	0.165412
	H344	H	0.116087	0.881917	0.153999
	O345	O	0.713526	0.489199	0.711532
	H346	H	0.720893	0.497720	0.716864
	H347	H	0.706867	0.494672	0.700957
	O348	O	0.207597	0.806181	0.801084
	H349	H	0.209220	0.816970	0.789222
	H350	H	0.194641	0.790687	0.804608
	O351	O	0.173423	0.067160	1.004949
	H352	H	0.188160	0.070850	0.996120
	H353	H	0.165316	0.054289	0.995485
	O354	O	1.193585	0.195718	0.966647
	H355	H	1.204197	0.196608	0.955758
	H356	H	1.206438	0.185637	0.954966
	O357	O	0.470673	0.490648	0.592286
	H358	H	0.469943	0.501671	0.594539
	H359	H	0.479142	0.494524	0.590254
	O360	O	0.292538	0.659293	0.533228
	H361	H	0.286377	0.650111	0.522858
	H362	H	0.286017	0.655368	0.520428
	O363	O	0.725351	0.287324	0.466321
	H364	H	0.745738	0.267999	0.474423
	H365	H	0.731546	0.298478	0.467468
	O366	O	0.806616	0.141953	0.801958
	H367	H	0.800585	0.125896	0.794663
	H368	H	0.786355	0.136977	0.796404
	O369	O	0.062610	-0.099717	0.933161
	H370	H	0.039195	-0.104812	0.928989
	H371	H	0.051510	-0.098273	0.928024
	O372	O	0.034697	0.799195	0.796898
	H373	H	0.033519	0.802284	0.804341
	H374	H	0.026740	0.793496	0.791850
	O375	O	1.220328	0.044435	0.221285
	H376	H	1.245641	0.038665	0.234245
	H377	H	1.214680	0.019583	0.206952
	O378	O	0.479865	0.295142	0.719126
	H379	H	0.484495	0.264361	0.738643
	H380	H	0.499795	0.306143	0.698988
	O381	O	-0.009658	1.168108	0.160030
	H382	H	-0.002959	1.167213	0.170067
	H383	H	0.017163	1.172061	0.151861
	O384	O	0.420822	0.307042	0.422730
	H385	H	0.421907	0.305405	0.430371
	H386	H	0.407973	0.300104	0.408631
	O387	O	0.037345	1.228159	1.226797
	H388	H	0.039447	1.255006	1.258129
	H389	H	0.060719	1.225273	1.198993
	O390	O	-0.049590	1.124438	0.972087
	H391	H	-0.030422	1.127742	0.948900
	H392	H	-0.034047	1.124687	0.988517
	O393	O	1.205809	0.209304	0.204260
	H394	H	1.195193	0.200218	0.207199
	H395	H	1.211952	0.179300	0.189848
	O396	O	0.663465	0.443622	0.535253
	H397	H	0.664345	0.453818	0.531508
	H398	H	0.664898	0.451932	0.516055
	O399	O	0.609694	0.316728	0.573258
	H400	H	0.613205	0.327220	0.561763
	H401	H	0.604585	0.322041	0.557658
	O402	O	0.955433	-0.034271	0.826655
	H403	H	0.944944	-0.040891	0.836074
	H404	H	0.964194	-0.027352	0.836728
	O405	O	0.694650	0.485377	0.377111
	H406	H	0.700112	0.478666	0.363723
	H407	H	0.694754	0.465754	0.376898
	O408	O	0.789941	1.223746	0.971882
	H409	H	0.778490	1.239373	0.949750
	H410	H	0.793773	1.239843	0.958702
	O411	O	0.799188	0.835106	0.210543
	H412	H	0.813330	0.841640	0.208740
	H413	H	0.789532	0.827971	0.235467
	O414	O	0.035438	0.218036	0.008611
	H415	H	0.019634	0.214135	-0.003008
	H416	H	0.067277	0.225324	-0.007215
	O417	O	0.539356	0.464585	0.722803
	H418	H	0.541241	0.465711	0.718880
	H419	H	0.533654	0.455397	0.714616
	O420	O	0.695506	-0.301516	0.697291
	H421	H	0.696359	-0.327320	0.683684
	H422	H	0.657776	-0.292429	0.709315
	O423	O	0.813362	1.000666	-0.032261
	H424	H	0.810583	1.000997	-0.018150
	H425	H	0.811091	0.992217	-0.036086
	O426	O	0.691641	0.672241	0.317823
	H427	H	0.686480	0.661065	0.341806
	H428	H	0.674548	0.653188	0.321070
	O429	O	0.546971	0.709708	0.432683
	H430	H	0.541789	0.706505	0.431867
	H431	H	0.534095	0.713023	0.426710
	O432	O	0.867973	-0.016254	1.191740
	H433	H	0.857635	-0.024003	1.196918
	H434	H	0.866665	-0.026551	1.179624
	O435	O	0.359387	0.709659	0.656205
	H436	H	0.379573	0.698829	0.645334
	H437	H	0.356639	0.707639	0.627414
	O438	O	0.593293	0.368698	0.359886
	H439	H	0.596219	0.370646	0.393991
	H440	H	0.618223	0.341456	0.339140
	O441	O	0.720290	0.721260	0.527144
	H442	H	0.721297	0.725960	0.536351
	H443	H	0.729366	0.737009	0.541472
	O444	O	0.570633	0.558160	0.563020
	H445	H	0.563400	0.554243	0.560971
	H446	H	0.559615	0.566623	0.560462
	O447	O	0.985496	-0.166390	0.972378
	H448	H	0.985343	-0.167215	0.986006
	H449	H	0.980403	-0.162484	0.984068
	O450	O	0.661067	0.470148	-0.448349
	H451	H	0.650995	0.471347	-0.452580
	H452	H	0.663744	0.481379	-0.472145
	O453	O	0.515780	0.705803	0.506586
	H454	H	0.496046	0.712233	0.494463
	H455	H	0.522443	0.695114	0.487040
	O456	O	0.223739	0.793276	0.969562
	H457	H	0.225127	0.785742	0.954258
	H458	H	0.238735	0.784625	0.962598
	O459	O	0.442075	0.560291	0.613268
	H460	H	0.450023	0.564390	0.602559
	H461	H	0.440044	0.566503	0.610182
	O462	O	0.560580	0.286302	0.282369
	H463	H	0.595599	0.280728	0.271492
	H464	H	0.577636	0.270521	0.261891
	O465	O	0.311997	0.708880	0.310546
	H466	H	0.318223	0.683357	0.316440
	H467	H	0.294264	0.724249	0.303320
	O468	O	0.087704	0.870153	0.058416
	H469	H	0.105076	0.874807	0.046731
	H470	H	0.074453	0.877667	0.049756
	O471	O	0.471234	0.732633	0.285993
	H472	H	0.454252	0.730701	0.297387
	H473	H	0.461104	0.763516	0.253208
	O474	O	1.141278	1.155314	-0.130252
	H475	H	1.146200	1.148672	-0.144510
	H476	H	1.145767	1.158203	-0.148837
	O477	O	0.366666	0.397189	0.653434
	H478	H	0.374382	0.423335	0.661174
	H479	H	0.389496	0.394605	0.656775
