data_Molecule from HDF5

_cell_length_a		16.281293
_cell_length_b		16.281869
_cell_length_c		16.257773
_cell_angle_alpha	90.031315
_cell_angle_beta	89.926000
_cell_angle_gamma	90.048634
_symmetry_space_group_name_H-M	'P 1'
_symmetry_Int_Tables_number		1

loop_
	_symmetry_equiv_pos_as_xyz
	x,y,z

loop_
	_atom_site_label
	_atom_site_type_symbol
	_atom_site_fract_x
	_atom_site_fract_y
	_atom_site_fract_z
	H0	H	0.404826	0.829896	0.706233
	H1	H	0.598826	0.157269	0.705375
	H2	H	0.599586	0.829225	0.279635
	H3	H	0.405989	0.157394	0.279712
	H4	H	0.716936	0.395507	0.829587
	H5	H	0.715127	0.590627	0.158013
	H6	H	0.288374	0.590899	0.829622
	H7	H	0.287890	0.395820	0.157360
	H8	H	0.838942	0.707964	0.394736
	H9	H	0.165788	0.708873	0.592193
	H10	H	0.837901	0.280243	0.590584
	H11	H	0.165715	0.279669	0.395247
	H12	H	0.838896	0.395179	0.707414
	H13	H	0.166418	0.591030	0.707021
	H14	H	0.838585	0.590925	0.279557
	H15	H	0.166270	0.396117	0.279721
	H16	H	0.405774	0.705759	0.828609
	H17	H	0.598994	0.706910	0.157983
	H18	H	0.600565	0.280083	0.828921
	H19	H	0.403453	0.278845	0.156764
	H20	H	0.716337	0.829826	0.395251
	H21	H	0.716796	0.156744	0.592046
	H22	H	0.287816	0.829644	0.591214
	H23	H	0.288415	0.157321	0.394858
	H24	H	0.904564	0.329289	0.206967
	H25	H	0.100968	0.657360	0.207463
	H26	H	0.099004	0.329476	0.780700
	H27	H	0.904028	0.656407	0.778927
	H28	H	0.216593	0.895958	0.329090
	H29	H	0.215840	0.091359	0.656983
	H30	H	0.787838	0.092103	0.329973
	H31	H	0.788182	0.895883	0.656771
	H32	H	0.338544	0.207365	0.894600
	H33	H	0.665745	0.209450	0.091655
	H34	H	0.337682	0.779838	0.091612
	H35	H	0.665487	0.779034	0.895526
	H36	H	0.338692	0.895644	0.207767
	H37	H	0.667095	0.091193	0.206346
	H38	H	0.338316	0.089713	0.779969
	H39	H	0.666230	0.895059	0.779157
	H40	H	0.905403	0.206099	0.328504
	H41	H	0.100959	0.207726	0.656635
	H42	H	0.101010	0.779411	0.328683
	H43	H	0.904121	0.779327	0.657232
	H44	H	0.217061	0.330348	0.894385
	H45	H	0.217043	0.657230	0.091649
	H46	H	0.788314	0.329631	0.091350
	H47	H	0.788587	0.657737	0.895553
	H48	H	0.397730	0.112530	0.585206
	H49	H	0.597828	0.876430	0.585845
	H50	H	0.595247	0.110823	0.397031
	H51	H	0.409957	0.878217	0.404041
	H52	H	0.595104	0.395618	0.111903
	H53	H	0.597268	0.579653	0.878513
	H54	H	0.400095	0.580276	0.111276
	H55	H	0.417958	0.400249	0.878815
	H56	H	0.119433	0.586751	0.396558
	H57	H	0.882188	0.594883	0.589998
	H58	H	0.121040	0.400079	0.590835
	H59	H	0.885860	0.408155	0.393494
	H60	H	0.119697	0.395690	0.585160
	H61	H	0.888815	0.585784	0.578051
	H62	H	0.119424	0.589904	0.401887
	H63	H	0.882020	0.390731	0.395140
	H64	H	0.418754	0.581865	0.105466
	H65	H	0.589385	0.590904	0.877443
	H66	H	0.598912	0.404293	0.110160
	H67	H	0.405270	0.393013	0.873207
	H68	H	0.593318	0.109028	0.402135
	H69	H	0.594887	0.876097	0.587928
	H70	H	0.415255	0.111313	0.595688
	H71	H	0.403435	0.874883	0.399745
	H72	H	0.913012	0.606429	0.078609
	H73	H	0.097069	0.375477	0.090271
	H74	H	0.088679	0.609068	0.899012
	H75	H	0.903325	0.374264	0.895859
	H76	H	0.096269	0.904906	0.608808
	H77	H	0.095269	0.096231	0.372760
	H78	H	0.905172	0.086718	0.611212
	H79	H	0.917350	0.903200	0.380186
	H80	H	0.619147	0.095220	0.908782
	H81	H	0.382621	0.094857	0.090575
	H82	H	0.616121	0.905540	0.083113
	H83	H	0.387918	0.907721	0.900434
	H84	H	0.621055	0.899941	0.092892
	H85	H	0.388979	0.086345	0.077482
	H86	H	0.615602	0.075657	0.900927
	H87	H	0.382115	0.896244	0.892419
	H88	H	0.911600	0.084613	0.609389
	H89	H	0.104354	0.081701	0.375369
	H90	H	0.091286	0.899068	0.608734
	H91	H	0.908566	0.892018	0.373576
	H92	H	0.097966	0.609042	0.906295
	H93	H	0.090790	0.377816	0.086471
	H94	H	0.899251	0.612784	0.087170
	H95	H	0.915652	0.377763	0.896678
	H96	H	0.414451	0.106230	0.576224
	H97	H	0.594606	0.876768	0.584273
	H98	H	0.598856	0.110507	0.401204
	H99	H	0.410936	0.876151	0.395567
	H100	H	0.589973	0.403063	0.107854
	H101	H	0.602842	0.591436	0.873437
	H102	H	0.409182	0.597968	0.113855
	H103	H	0.405021	0.407755	0.876905
	H104	H	0.117576	0.583721	0.401899
	H105	H	0.886458	0.579656	0.592399
	H106	H	0.118000	0.402662	0.584371
	H107	H	0.887922	0.399436	0.409450
	H108	H	0.914464	0.611054	0.095064
	H109	H	0.097333	0.376903	0.082943
	H110	H	0.098871	0.612939	0.895143
	H111	H	0.907956	0.377865	0.907045
	H112	H	0.098667	0.898546	0.611457
	H113	H	0.087533	0.082446	0.379843
	H114	H	0.910734	0.091332	0.610535
	H115	H	0.902942	0.906391	0.375580
	H116	H	0.623293	0.090064	0.888028
	H117	H	0.386474	0.078810	0.092408
	H118	H	0.619733	0.893933	0.082929
	H119	H	0.385981	0.894096	0.906707
	C120	C	0.380596	0.002080	0.614384
	C121	C	0.624134	0.984618	0.614496
	C122	C	0.624127	0.002009	0.371389
	C123	C	0.380630	0.984960	0.371452
	C124	C	0.623504	0.372299	0.001704
	C125	C	0.624141	0.615253	0.985216
	C126	C	0.381022	0.614812	0.001679
	C127	C	0.380550	0.371705	0.984677
	C128	C	0.010537	0.614647	0.371793
	C129	C	0.994235	0.615040	0.614896
	C130	C	0.010848	0.371444	0.614731
	C131	C	0.993630	0.371809	0.371296
	C132	C	0.880709	0.501767	0.115220
	C133	C	0.123349	0.485041	0.114578
	C134	C	0.123847	0.502235	0.871881
	C135	C	0.880858	0.485080	0.872043
	C136	C	0.124231	0.871884	0.501506
	C137	C	0.123844	0.114946	0.484482
	C138	C	0.881104	0.115449	0.501579
	C139	C	0.881043	0.871814	0.484507
	C140	C	0.510772	0.114984	0.871287
	C141	C	0.494275	0.115241	0.114606
	C142	C	0.510791	0.871504	0.114941
	C143	C	0.493727	0.871555	0.871547
	C144	C	0.383474	0.878777	0.669157
	C145	C	0.620683	0.108165	0.668787
	C146	C	0.620887	0.878471	0.316875
	C147	C	0.384324	0.108494	0.316875
	C148	C	0.679076	0.374608	0.878548
	C149	C	0.678183	0.611986	0.108838
	C150	C	0.326225	0.611691	0.878459
	C151	C	0.325700	0.374931	0.108284
	C152	C	0.887576	0.669819	0.374464
	C153	C	0.117238	0.670278	0.612326
	C154	C	0.887326	0.317002	0.611866
	C155	C	0.117247	0.317563	0.374647
	C156	C	0.887573	0.374752	0.669409
	C157	C	0.117516	0.611964	0.669542
	C158	C	0.887279	0.611819	0.317294
	C159	C	0.117513	0.375463	0.317294
	C160	C	0.384331	0.668909	0.878058
	C161	C	0.620888	0.669978	0.108727
	C162	C	0.621464	0.317150	0.878359
	C163	C	0.383151	0.317124	0.108054
	C164	C	0.678735	0.878627	0.374208
	C165	C	0.678727	0.108019	0.611913
	C166	C	0.325905	0.878473	0.611584
	C167	C	0.326453	0.108537	0.374417
	C168	C	0.883842	0.378271	0.169496
	C169	C	0.121505	0.608406	0.169692
	C170	C	0.120658	0.378684	0.817270
	C171	C	0.883623	0.608093	0.817249
	C172	C	0.178994	0.874866	0.377879
	C173	C	0.178493	0.112031	0.607931
	C174	C	0.826288	0.112246	0.378263
	C175	C	0.825883	0.874489	0.607944
	C176	C	0.387570	0.169701	0.874274
	C177	C	0.617325	0.170771	0.112269
	C178	C	0.387047	0.816820	0.112543
	C179	C	0.616942	0.816904	0.874399
	C180	C	0.387588	0.874232	0.170148
	C181	C	0.617744	0.112360	0.169255
	C182	C	0.387320	0.111451	0.817075
	C183	C	0.617094	0.874689	0.816658
	C184	C	0.884476	0.169267	0.377843
	C185	C	0.121377	0.169799	0.607804
	C186	C	0.121485	0.817096	0.377824
	C187	C	0.883711	0.817081	0.608079
	C188	C	0.178683	0.378927	0.874281
	C189	C	0.179179	0.608353	0.112348
	C190	C	0.825724	0.378549	0.112570
	C191	C	0.826202	0.608377	0.875148
	C192	C	0.402533	0.088065	0.592327
	C193	C	0.602246	0.898576	0.592506
	C194	C	0.602205	0.087991	0.393501
	C195	C	0.401927	0.898714	0.393214
	C196	C	0.601153	0.394485	0.087791
	C197	C	0.602801	0.593572	0.898744
	C198	C	0.402871	0.593211	0.088090
	C199	C	0.402698	0.393952	0.898368
	C200	C	0.096582	0.593049	0.393718
	C201	C	0.908069	0.593249	0.593219
	C202	C	0.097401	0.392969	0.593162
	C203	C	0.907510	0.393179	0.393142
	C204	C	0.902567	0.587987	0.093459
	C205	C	0.101531	0.399018	0.092874
	C206	C	0.101861	0.588104	0.893712
	C207	C	0.902583	0.398827	0.893569
	C208	C	0.101980	0.894258	0.587399
	C209	C	0.102220	0.093074	0.398244
	C210	C	0.902675	0.093899	0.588120
	C211	C	0.903101	0.893997	0.398575
	C212	C	0.597096	0.093334	0.892922
	C213	C	0.408239	0.093280	0.092978
	C214	C	0.596779	0.893292	0.092686
	C215	C	0.407635	0.893146	0.893330
	Zn216	Zn	0.502476	-0.006688	0.742610
	Zn217	Zn	0.502834	-0.006608	0.242894
	Zn218	Zn	0.752401	0.493341	-0.006163
	Zn219	Zn	0.251969	0.493520	-0.006613
	Zn220	Zn	0.002541	0.743627	0.493028
	Zn221	Zn	0.002365	0.243211	0.493347
	Zn222	Zn	0.002451	0.493381	0.743300
	Zn223	Zn	0.002485	0.493693	0.242945
	Zn224	Zn	0.502015	0.743280	-0.006416
	Zn225	Zn	0.502750	0.243660	-0.006863
	Zn226	Zn	0.752828	-0.006298	0.493077
	Zn227	Zn	0.252157	-0.006473	0.493102
	N228	N	0.416790	0.956481	0.670940
	N229	N	0.587315	0.030519	0.670325
	N230	N	0.587675	0.956141	0.315018
	N231	N	0.417404	0.030721	0.315124
	N232	N	0.680489	0.408263	0.956278
	N233	N	0.680400	0.578790	0.031024
	N234	N	0.323982	0.578916	0.956316
	N235	N	0.323953	0.408249	0.030371
	N236	N	0.965151	0.671722	0.407697
	N237	N	0.039684	0.672093	0.578971
	N238	N	0.964904	0.315361	0.578237
	N239	N	0.039302	0.315065	0.407435
	N240	N	0.965387	0.408004	0.671147
	N241	N	0.039924	0.578181	0.671082
	N242	N	0.964947	0.578371	0.315494
	N243	N	0.039740	0.408436	0.315014
	N244	N	0.417784	0.670617	0.955810
	N245	N	0.587892	0.672006	0.030829
	N246	N	0.587365	0.315951	0.955846
	N247	N	0.416357	0.314933	0.030314
	N248	N	0.680999	0.956458	0.407305
	N249	N	0.681125	0.030164	0.578982
	N250	N	0.324284	0.956141	0.578097
	N251	N	0.323822	0.030778	0.407516
	N252	N	0.917111	0.456000	0.171295
	N253	N	0.087589	0.531022	0.171241
	N254	N	0.087124	0.456258	0.815668
	N255	N	0.916791	0.530498	0.815157
	N256	N	0.180780	0.908268	0.455571
	N257	N	0.180326	0.078640	0.530100
	N258	N	0.824064	0.079656	0.456286
	N259	N	0.824479	0.908190	0.530309
	N260	N	0.465290	0.171720	0.907453
	N261	N	0.539686	0.172552	0.079110
	N262	N	0.464813	0.814889	0.078921
	N263	N	0.539471	0.814796	0.907745
	N264	N	0.465217	0.907587	0.171736
	N265	N	0.540226	0.078366	0.170670
	N266	N	0.465002	0.078297	0.815050
	N267	N	0.539337	0.908114	0.814885
	N268	N	0.917876	0.171178	0.455572
	N269	N	0.087938	0.171610	0.530139
	N270	N	0.088290	0.815096	0.455749
	N271	N	0.917448	0.815494	0.530399
	N272	N	0.180986	0.456657	0.907239
	N273	N	0.180403	0.530735	0.078584
	N274	N	0.823710	0.456236	0.079447
	N275	N	0.824466	0.530727	0.908577
	O276	O	1.031748	-0.008509	1.064282
	H277	H	1.028346	-0.008037	1.063441
	H278	H	1.030690	-0.011035	1.072494
	O279	O	0.051907	0.991715	1.029573
	H280	H	0.051400	0.998275	1.029947
	H281	H	0.048217	0.990383	1.033691
	O282	O	1.032468	0.973831	0.059684
	H283	H	1.038394	0.965598	0.063672
	H284	H	1.037728	0.979263	0.057774
	O285	O	0.030767	0.986630	1.024780
	H286	H	0.035756	0.990297	1.022028
	H287	H	0.026000	0.980290	1.019443
