data_Molecule from HDF5

_cell_length_a		16.556455
_cell_length_b		16.643372
_cell_length_c		16.542616
_cell_angle_alpha	89.899680
_cell_angle_beta	90.013239
_cell_angle_gamma	90.055750
_symmetry_space_group_name_H-M	'P 1'
_symmetry_Int_Tables_number		1

loop_
	_symmetry_equiv_pos_as_xyz
	x,y,z

loop_
	_atom_site_label
	_atom_site_type_symbol
	_atom_site_fract_x
	_atom_site_fract_y
	_atom_site_fract_z
	H0	H	0.389103	0.839642	0.714761
	H1	H	0.597027	0.150997	0.715093
	H2	H	0.599066	0.839133	0.271368
	H3	H	0.390095	0.150635	0.274519
	H4	H	0.713936	0.388932	0.839128
	H5	H	0.711541	0.598881	0.152171
	H6	H	0.273861	0.594230	0.836953
	H7	H	0.274195	0.393997	0.153352
	H8	H	0.834631	0.715816	0.390332
	H9	H	0.148429	0.714845	0.599962
	H10	H	0.835993	0.273396	0.599030
	H11	H	0.147178	0.273919	0.387825
	H12	H	0.835124	0.388868	0.715222
	H13	H	0.148839	0.597157	0.715048
	H14	H	0.833624	0.599427	0.275400
	H15	H	0.148075	0.393850	0.275142
	H16	H	0.390648	0.710878	0.836532
	H17	H	0.597446	0.716404	0.150604
	H18	H	0.599093	0.271260	0.840157
	H19	H	0.389451	0.275456	0.152321
	H20	H	0.713716	0.838380	0.389636
	H21	H	0.713357	0.150813	0.598156
	H22	H	0.269914	0.840658	0.600106
	H23	H	0.272011	0.150586	0.390221
	H24	H	0.884753	0.340061	0.218373
	H25	H	0.096179	0.650187	0.216076
	H26	H	0.095903	0.338659	0.773713
	H27	H	0.885862	0.648932	0.771632
	H28	H	0.212514	0.891334	0.338603
	H29	H	0.215721	0.103050	0.650001
	H30	H	0.771623	0.098574	0.337873
	H31	H	0.769834	0.888540	0.650836
	H32	H	0.334450	0.215357	0.889459
	H33	H	0.646062	0.219490	0.101948
	H34	H	0.334960	0.772559	0.101203
	H35	H	0.647306	0.773606	0.889417
	H36	H	0.335616	0.889378	0.216696
	H37	H	0.647415	0.100189	0.216443
	H38	H	0.334861	0.098361	0.774799
	H39	H	0.648508	0.892176	0.775022
	H40	H	0.887109	0.216380	0.338441
	H41	H	0.100072	0.218437	0.649722
	H42	H	0.097197	0.773985	0.338688
	H43	H	0.886791	0.772501	0.650833
	H44	H	0.212922	0.338460	0.890843
	H45	H	0.213944	0.649657	0.100807
	H46	H	0.768413	0.339900	0.101552
	H47	H	0.769877	0.649637	0.889412
	H48	H	0.402692	0.107684	0.586173
	H49	H	0.580534	0.884566	0.580529
	H50	H	0.579027	0.103451	0.408338
	H51	H	0.405401	0.884679	0.408332
	H52	H	0.582767	0.406014	0.107850
	H53	H	0.576322	0.582411	0.884773
	H54	H	0.406388	0.587586	0.107383
	H55	H	0.398995	0.401918	0.879952
	H56	H	0.102143	0.578991	0.404328
	H57	H	0.880252	0.586785	0.577344
	H58	H	0.106989	0.396841	0.582133
	H59	H	0.879133	0.402268	0.409621
	H60	H	0.099901	0.411100	0.575618
	H61	H	0.881629	0.577710	0.583146
	H62	H	0.106107	0.588045	0.401125
	H63	H	0.881124	0.409030	0.408445
	H64	H	0.397328	0.587303	0.110695
	H65	H	0.579855	0.588395	0.881454
	H66	H	0.577105	0.413506	0.103822
	H67	H	0.399948	0.407683	0.882512
	H68	H	0.584448	0.105762	0.406450
	H69	H	0.584493	0.882374	0.585729
	H70	H	0.404296	0.107289	0.583669
	H71	H	0.398988	0.882701	0.407693
	H72	H	0.903429	0.606420	0.084875
	H73	H	0.085704	0.380416	0.087751
	H74	H	0.082639	0.605154	0.906931
	H75	H	0.903446	0.382494	0.904271
	H76	H	0.079103	0.909376	0.605339
	H77	H	0.086151	0.084495	0.380673
	H78	H	0.906945	0.082266	0.605052
	H79	H	0.906877	0.909642	0.384135
	H80	H	0.602865	0.081129	0.906370
	H81	H	0.378030	0.087100	0.085169
	H82	H	0.599862	0.907705	0.075060
	H83	H	0.381826	0.912675	0.905507
	H84	H	0.603465	0.910615	0.088429
	H85	H	0.380857	0.085022	0.079806
	H86	H	0.604449	0.086949	0.904525
	H87	H	0.375578	0.901498	0.896064
	H88	H	0.903390	0.087576	0.607990
	H89	H	0.078770	0.080421	0.384301
	H90	H	0.077472	0.902905	0.607319
	H91	H	0.905161	0.900284	0.382203
	H92	H	0.082408	0.607260	0.903816
	H93	H	0.075155	0.383774	0.089431
	H94	H	0.900779	0.605357	0.082175
	H95	H	0.902367	0.383622	0.907383
	H96	H	0.401294	0.107682	0.583289
	H97	H	0.578372	0.883947	0.587103
	H98	H	0.579837	0.105433	0.402476
	H99	H	0.403974	0.881845	0.402520
	H100	H	0.573330	0.404240	0.105354
	H101	H	0.583199	0.581394	0.881953
	H102	H	0.401449	0.579910	0.107037
	H103	H	0.404826	0.403687	0.882566
	H104	H	0.103362	0.587295	0.410673
	H105	H	0.877089	0.586345	0.587929
	H106	H	0.105803	0.410486	0.591490
	H107	H	0.877669	0.405432	0.403591
	H108	H	0.899916	0.607949	0.085446
	H109	H	0.079788	0.384819	0.078920
	H110	H	0.079042	0.605240	0.905582
	H111	H	0.900293	0.381198	0.905744
	H112	H	0.084001	0.905249	0.608260
	H113	H	0.078408	0.088848	0.382023
	H114	H	0.900350	0.081653	0.607191
	H115	H	0.897814	0.906626	0.381685
	H116	H	0.602417	0.085953	0.910539
	H117	H	0.379986	0.081098	0.084481
	H118	H	0.605952	0.898540	0.083184
	H119	H	0.378498	0.898394	0.911566
	C120	C	0.370503	0.004668	0.616290
	C121	C	0.613556	0.986655	0.616213
	C122	C	0.613692	0.002381	0.372998
	C123	C	0.371144	0.986030	0.373619
	C124	C	0.611895	0.373979	0.003329
	C125	C	0.612723	0.616330	0.986233
	C126	C	0.370268	0.615224	0.003743
	C127	C	0.370340	0.373601	0.986173
	C128	C	-0.000339	0.616327	0.374015
	C129	C	0.983403	0.615009	0.615376
	C130	C	0.000849	0.373579	0.615358
	C131	C	0.982847	0.374835	0.374425
	C132	C	0.869297	0.503459	0.116993
	C133	C	0.112492	0.486056	0.116826
	C134	C	0.112857	0.502609	0.873677
	C135	C	0.869816	0.485485	0.873300
	C136	C	0.113066	0.873996	0.503622
	C137	C	0.113717	0.117074	0.485711
	C138	C	0.871433	0.116019	0.503055
	C139	C	0.870525	0.873047	0.486068
	C140	C	0.499910	0.116913	0.873890
	C141	C	0.482930	0.116789	0.116021
	C142	C	0.499673	0.873287	0.115261
	C143	C	0.482631	0.873107	0.872547
	C144	C	0.369510	0.886674	0.675491
	C145	C	0.615090	0.104311	0.674953
	C146	C	0.616679	0.885555	0.312283
	C147	C	0.370764	0.103867	0.314326
	C148	C	0.673549	0.370654	0.886149
	C149	C	0.672407	0.618106	0.104371
	C150	C	0.312515	0.614864	0.884579
	C151	C	0.312993	0.373838	0.105784
	C152	C	0.881654	0.675815	0.372321
	C153	C	0.101537	0.674503	0.617718
	C154	C	0.882918	0.313161	0.617724
	C155	C	0.100684	0.315136	0.371029
	C156	C	0.882492	0.370887	0.675235
	C157	C	0.101720	0.616101	0.674981
	C158	C	0.881152	0.617833	0.315034
	C159	C	0.100919	0.374297	0.314709
	C160	C	0.370553	0.672488	0.884391
	C161	C	0.615337	0.676453	0.103850
	C162	C	0.616266	0.312394	0.886504
	C163	C	0.370031	0.315330	0.105340
	C164	C	0.673849	0.885239	0.370970
	C165	C	0.673296	0.104001	0.617248
	C166	C	0.310519	0.887104	0.618524
	C167	C	0.312440	0.103854	0.371942
	C168	C	0.866367	0.386683	0.178051
	C169	C	0.114490	0.603691	0.176110
	C170	C	0.114560	0.385089	0.814061
	C171	C	0.867579	0.602636	0.812577
	C172	C	0.172659	0.872468	0.385531
	C173	C	0.174830	0.120478	0.603005
	C174	C	0.811576	0.117724	0.385030
	C175	C	0.810010	0.870119	0.603925
	C176	C	0.381843	0.176073	0.871281
	C177	C	0.599947	0.178234	0.119608
	C178	C	0.382007	0.812936	0.118902
	C179	C	0.600493	0.813668	0.870846
	C180	C	0.382365	0.870801	0.176563
	C181	C	0.600481	0.119339	0.176541
	C182	C	0.382042	0.117772	0.814171
	C183	C	0.601213	0.872407	0.814010
	C184	C	0.868845	0.176135	0.385283
	C185	C	0.117254	0.178073	0.603004
	C186	C	0.115586	0.814058	0.385779
	C187	C	0.867922	0.812584	0.603969
	C188	C	0.172715	0.385114	0.871899
	C189	C	0.173242	0.602975	0.119026
	C190	C	0.808784	0.386515	0.119792
	C191	C	0.809863	0.602903	0.870830
	C192	C	0.395360	0.086359	0.591447
	C193	C	0.588408	0.904786	0.591666
	C194	C	0.588225	0.083958	0.398403
	C195	C	0.395700	0.904367	0.398785
	C196	C	0.585373	0.400333	0.084559
	C197	C	0.587149	0.591087	0.904071
	C198	C	0.394658	0.591611	0.086767
	C199	C	0.394360	0.397464	0.903366
	C200	C	0.082434	0.591879	0.398196
	C201	C	0.901012	0.590553	0.590262
	C202	C	0.082723	0.398839	0.590414
	C203	C	0.900781	0.398887	0.399831
	C204	C	0.894292	0.585276	0.091515
	C205	C	0.087173	0.404407	0.092425
	C206	C	0.088321	0.584548	0.898606
	C207	C	0.894541	0.403723	0.898581
	C208	C	0.087574	0.898913	0.585639
	C209	C	0.088270	0.091892	0.403658
	C210	C	0.896631	0.091043	0.585215
	C211	C	0.895860	0.898330	0.404130
	C212	C	0.581930	0.091740	0.899610
	C213	C	0.400832	0.091718	0.090485
	C214	C	0.581712	0.898360	0.089521
	C215	C	0.400305	0.897367	0.897234
	Zn216	Zn	0.492125	-0.004078	0.745519
	Zn217	Zn	0.492463	-0.005875	0.243801
	Zn218	Zn	0.740889	0.494600	-0.005081
	Zn219	Zn	0.241303	0.494416	-0.004802
	Zn220	Zn	-0.007898	0.744995	0.494970
	Zn221	Zn	-0.007489	0.244949	0.494577
	Zn222	Zn	-0.008308	0.493913	0.744659
	Zn223	Zn	-0.009247	0.495688	0.245328
	Zn224	Zn	0.491312	0.744779	-0.005281
	Zn225	Zn	0.491139	0.245098	-0.005361
	Zn226	Zn	0.742489	-0.005520	0.494701
	Zn227	Zn	0.241223	-0.004705	0.494830
	N228	N	0.405820	0.960796	0.674531
	N229	N	0.578688	0.030295	0.674367
	N230	N	0.579911	0.959527	0.313410
	N231	N	0.406496	0.029599	0.315137
	N232	N	0.670975	0.408296	0.959760
	N233	N	0.671069	0.581590	0.030015
	N234	N	0.311924	0.580556	0.960096
	N235	N	0.312681	0.408962	0.030608
	N236	N	0.956392	0.675048	0.408194
	N237	N	0.026856	0.674033	0.581352
	N238	N	0.957487	0.314514	0.581405
	N239	N	0.026099	0.315018	0.407335
	N240	N	0.956748	0.407818	0.674029
	N241	N	0.027202	0.579893	0.673729
	N242	N	0.955762	0.581672	0.315897
	N243	N	0.026675	0.410544	0.316720
	N244	N	0.405632	0.673033	0.959699
	N245	N	0.579143	0.675735	0.029121
	N246	N	0.578806	0.314303	0.960418
	N247	N	0.404589	0.314801	0.029876
	N248	N	0.672025	0.958948	0.408075
	N249	N	0.672630	0.029726	0.581556
	N250	N	0.310799	0.961494	0.582776
	N251	N	0.312398	0.029557	0.408013
	N252	N	0.903097	0.460682	0.176459
	N253	N	0.077179	0.530018	0.174746
	N254	N	0.078139	0.459066	0.815026
	N255	N	0.903759	0.528431	0.813657
	N256	N	0.171158	0.908961	0.459887
	N257	N	0.172858	0.083329	0.529026
	N258	N	0.812978	0.080989	0.459295
	N259	N	0.811449	0.906890	0.529601
	N260	N	0.456423	0.175809	0.907583
	N261	N	0.525603	0.176886	0.082974
	N262	N	0.456111	0.814250	0.081700
	N263	N	0.525815	0.813856	0.906473
	N264	N	0.456728	0.907572	0.174491
	N265	N	0.526613	0.081882	0.174375
	N266	N	0.456723	0.082030	0.815416
	N267	N	0.526643	0.908423	0.814646
	N268	N	0.905252	0.175128	0.459817
	N269	N	0.079935	0.176125	0.528948
	N270	N	0.079139	0.814807	0.460311
	N271	N	0.904824	0.814143	0.529746
	N272	N	0.171655	0.459268	0.908363
	N273	N	0.172046	0.528981	0.082754
	N274	N	0.810433	0.460181	0.082481
	N275	N	0.810938	0.528860	0.907586
	O276	O	0.214496	0.771350	-0.041614
	H277	H	0.200140	0.769027	-0.031532
	H278	H	0.229812	0.745889	-0.035232
	O279	O	0.606565	0.554853	0.487369
	H280	H	0.627627	0.546011	0.489773
	H281	H	0.599882	0.566540	0.493371
	O282	O	0.829051	-0.043885	1.143011
	H283	H	0.834782	-0.036859	1.139459
	H284	H	0.825925	-0.033065	1.136482
	O285	O	0.437777	0.574452	0.442779
	H286	H	0.439511	0.569360	0.436015
	H287	H	0.438755	0.575535	0.432501
	O288	O	0.502617	0.335448	0.715327
	H289	H	0.508640	0.334581	0.712080
	H290	H	0.499199	0.334122	0.720884
	O291	O	0.364235	0.407972	0.597253
	H292	H	0.355430	0.424322	0.588500
	H293	H	0.352209	0.406809	0.617941
	O294	O	0.957949	-0.223417	1.203659
	H295	H	0.942869	-0.223710	1.209694
	H296	H	0.950184	-0.235652	1.211916
	O297	O	0.272791	0.539593	0.564494
	H298	H	0.270452	0.548641	0.568252
	H299	H	0.276539	0.522711	0.568619
	O300	O	0.022809	0.084797	0.771386
	H301	H	0.023393	0.081600	0.778655
	H302	H	0.038780	0.063325	0.767667
	O303	O	0.712945	0.453406	0.543147
	H304	H	0.722783	0.463552	0.556409
	H305	H	0.713799	0.457514	0.526197
	O306	O	0.704316	0.283971	0.460962
	H307	H	0.696805	0.283501	0.445496
	H308	H	0.722266	0.282383	0.468938
	O309	O	0.710896	0.528222	0.711424
	H310	H	0.732325	0.527040	0.721753
	H311	H	0.718420	0.542521	0.713482
	O312	O	0.594707	0.438051	0.393509
	H313	H	0.619503	0.441944	0.386651
	H314	H	0.589719	0.421418	0.405358
	O315	O	1.135097	1.116759	0.809060
	H316	H	1.117654	1.099953	0.814261
	H317	H	1.131783	1.096697	0.835130
	O318	O	0.297335	0.418825	0.685299
	H319	H	0.293151	0.408413	0.689237
	H320	H	0.321705	0.417316	0.688425
	O321	O	0.301106	0.686815	0.684700
	H322	H	0.312770	0.660339	0.667875
	H323	H	0.324998	0.676941	0.662879
	O324	O	0.786651	0.788581	0.200953
	H325	H	0.786232	0.804917	0.174565
	H326	H	0.799666	0.814288	0.193765
	O327	O	0.212835	0.034792	1.214162
	H328	H	0.240694	0.042899	1.240965
	H329	H	0.207764	0.059131	1.212271
	O330	O	0.340874	0.629246	0.376316
	H331	H	0.343832	0.598493	0.381468
	H332	H	0.339639	0.636024	0.383633
	O333	O	0.705525	0.303975	0.694792
	H334	H	0.710246	0.312006	0.679766
	H335	H	0.707516	0.297062	0.690072
	O336	O	0.696295	0.293036	0.293272
	H337	H	0.723018	0.268633	0.264946
	H338	H	0.676267	0.293374	0.314146
	O339	O	0.773299	0.208497	0.970615
	H340	H	0.770024	0.220704	0.962620
	H341	H	0.766747	0.209641	0.959721
	O342	O	0.114784	-0.100316	0.194979
	H343	H	0.124579	-0.092901	0.206895
	H344	H	0.086974	-0.097936	0.195742
	O345	O	0.073318	1.085372	1.141135
	H346	H	0.077647	1.071110	1.140629
	H347	H	0.087005	1.093117	1.143888
	O348	O	0.279040	0.501333	0.337293
	H349	H	0.268421	0.490508	0.336830
	H350	H	0.289614	0.479381	0.329582
	O351	O	0.166944	0.714642	0.158535
	H352	H	0.166708	0.702880	0.168565
	H353	H	0.179914	0.724023	0.176341
	O354	O	0.201004	0.207793	1.205967
	H355	H	0.216925	0.215017	1.192271
	H356	H	0.214609	0.232386	1.215036
	O357	O	0.274266	0.279485	0.514499
	H358	H	0.290129	0.277444	0.531598
	H359	H	0.247518	0.257671	0.530806
	O360	O	0.528439	0.283951	0.283651
	H361	H	0.534921	0.267970	0.279927
	H362	H	0.532938	0.270842	0.287919
	O363	O	0.199497	-0.214861	-0.214200
	H364	H	0.233646	-0.247389	-0.244697
	H365	H	0.205573	-0.211931	-0.174527
	O366	O	0.298024	0.347704	0.301486
	H367	H	0.325445	0.365300	0.309711
	H368	H	0.300935	0.364803	0.320579
	O369	O	0.863204	-0.172815	0.083382
	H370	H	0.852675	-0.185170	0.091214
	H371	H	0.848229	-0.173507	0.074728
	O372	O	0.939402	0.916736	-0.206427
	H373	H	0.941653	0.903788	-0.215549
	H374	H	0.937018	0.912457	-0.208739
	O375	O	0.996668	0.161224	-0.057836
	H376	H	0.994567	0.163114	-0.051159
	H377	H	0.994134	0.164394	-0.054253
	O378	O	0.705716	0.501749	0.355323
	H379	H	0.717960	0.497828	0.331546
	H380	H	0.712575	0.491569	0.360072
	O381	O	0.155894	1.064085	0.995114
	H382	H	0.165411	1.046076	0.989157
	H383	H	0.150007	1.063836	1.012315
	O384	O	0.822798	0.083739	1.199651
	H385	H	0.846883	0.091702	1.186080
	H386	H	0.816306	0.072034	1.189931
	O387	O	0.767614	0.865346	-0.029521
	H388	H	0.768213	0.851361	-0.030422
	H389	H	0.775028	0.863031	-0.050783
	O390	O	0.484573	0.407888	0.399335
	H391	H	0.500495	0.415486	0.395680
	H392	H	0.488039	0.392908	0.401258
	O393	O	0.633302	0.637791	0.311000
	H394	H	0.632114	0.638624	0.316266
	H395	H	0.651291	0.638419	0.291509
	O396	O	-0.069656	1.215303	0.777609
	H397	H	-0.045428	1.208157	0.765988
	H398	H	-0.066020	1.218916	0.774597
	O399	O	0.038875	-0.001338	0.991112
	H400	H	0.035324	-0.005214	1.003323
	H401	H	0.037797	0.004897	0.990946
	O402	O	0.763151	0.172352	0.768042
	H403	H	0.773209	0.177493	0.754834
	H404	H	0.773827	0.173512	0.791426
	O405	O	1.307088	0.257677	0.746097
	H406	H	1.283802	0.229133	0.773753
	H407	H	1.326516	0.269766	0.753059
	O408	O	0.156080	0.220468	0.002251
	H409	H	0.174983	0.216802	-0.007165
	H410	H	0.164706	0.225478	0.001695
	O411	O	0.842969	1.021417	1.055351
	H412	H	0.836959	1.034879	1.026469
	H413	H	0.847747	1.014800	1.046600
	O414	O	0.481661	0.510945	0.268560
	H415	H	0.488831	0.525269	0.278295
	H416	H	0.506226	0.497117	0.267136
	O417	O	0.683014	0.700457	0.515386
	H418	H	0.677307	0.701015	0.523947
	H419	H	0.700056	0.708991	0.503987
	O420	O	0.540111	0.704679	0.700104
	H421	H	0.530355	0.727394	0.695305
	H422	H	0.554024	0.717206	0.700380
	O423	O	-0.005771	-0.201533	0.866019
	H424	H	0.010580	-0.193221	0.873998
	H425	H	0.010195	-0.217225	0.842827
	O426	O	0.597551	0.699859	0.563819
	H427	H	0.563718	0.691740	0.563359
	H428	H	0.595091	0.675942	0.550063
	O429	O	1.204833	0.994793	0.971799
	H430	H	1.209244	0.987222	0.986588
	H431	H	1.207599	0.966616	0.979417
	O432	O	0.498555	0.697135	0.508263
	H433	H	0.518911	0.688905	0.501132
	H434	H	0.502131	0.698111	0.490763
	O435	O	-0.116231	0.785114	-0.116208
	H436	H	-0.134847	0.789165	-0.111674
	H437	H	-0.093258	0.795558	-0.104576
	O438	O	0.054360	-0.154262	-0.153441
	H439	H	0.067679	-0.173376	-0.168320
	H440	H	0.081684	-0.156781	-0.135033
	O441	O	-0.261884	-0.260666	-0.283330
	H442	H	-0.267005	-0.259372	-0.288940
	H443	H	-0.250405	-0.248271	-0.312309
	O444	O	0.286338	0.711206	0.470300
	H445	H	0.273128	0.711854	0.471305
	H446	H	0.289349	0.709167	0.459517
	O447	O	-0.171488	1.006691	0.989948
	H448	H	-0.160392	0.997748	0.985447
	H449	H	-0.166208	1.001997	0.968513
	O450	O	-0.191739	0.995643	0.805132
	H451	H	-0.170745	1.007446	0.801046
	H452	H	-0.207915	0.996994	0.783772
	O453	O	0.465833	0.714095	0.281400
	H454	H	0.459900	0.696992	0.284203
	H455	H	0.456384	0.738457	0.252645
	O456	O	0.440326	0.276468	1.448498
	H457	H	0.435291	0.279403	1.464707
	H458	H	0.432025	0.287542	1.455873
	O459	O	1.210301	0.962105	-0.232466
	H460	H	1.222759	0.949566	-0.242857
	H461	H	1.224438	0.940679	-0.244500
	O462	O	0.411321	0.533594	0.662447
	H463	H	0.436784	0.506330	0.677973
	H464	H	0.427449	0.551548	0.671264
	O465	O	1.025104	0.212725	0.209697
	H466	H	1.043426	0.215543	0.201862
	H467	H	1.038018	0.235075	0.227169
	O468	O	0.365657	0.416321	0.446885
	H469	H	0.372610	0.414528	0.455824
	H470	H	0.369484	0.422140	0.458093
	O471	O	0.573130	0.281786	0.555809
	H472	H	0.570225	0.284346	0.556016
	H473	H	0.570117	0.294600	0.547551
	O474	O	0.199593	0.855500	0.120564
	H475	H	0.195936	0.869746	0.119554
	H476	H	0.204098	0.851615	0.130488
	O477	O	0.911324	0.184268	2.005260
	H478	H	0.905094	0.181107	1.992647
	H479	H	0.925548	0.178925	2.005076
	O480	O	0.513825	0.487478	0.718024
	H481	H	0.530526	0.480317	0.721789
	H482	H	0.525977	0.481518	0.715426
	O483	O	0.040692	0.759044	0.046766
	H484	H	0.050040	0.755013	0.050187
	H485	H	0.051548	0.757982	0.054787
	O486	O	0.852704	0.121087	1.201951
	H487	H	0.870684	0.115172	1.195115
	H488	H	0.853573	0.116126	1.188129
	O489	O	0.953080	1.103518	0.036759
	H490	H	0.964735	1.107538	0.052436
	H491	H	0.951999	1.100136	0.054101
