data_Molecule from HDF5

_cell_length_a		16.136886
_cell_length_b		16.260310
_cell_length_c		16.291210
_cell_angle_alpha	90.346537
_cell_angle_beta	90.871915
_cell_angle_gamma	89.642919
_symmetry_space_group_name_H-M	'P 1'
_symmetry_Int_Tables_number		1

loop_
	_symmetry_equiv_pos_as_xyz
	x,y,z

loop_
	_atom_site_label
	_atom_site_type_symbol
	_atom_site_fract_x
	_atom_site_fract_y
	_atom_site_fract_z
	H0	H	0.393725	0.842929	0.705284
	H1	H	0.591615	0.169829	0.713305
	H2	H	0.589391	0.843468	0.279053
	H3	H	0.384787	0.169521	0.274668
	H4	H	0.704353	0.404022	0.827410
	H5	H	0.708722	0.602836	0.156110
	H6	H	0.275034	0.603804	0.829510
	H7	H	0.283405	0.411061	0.157312
	H8	H	0.825818	0.722933	0.390871
	H9	H	0.155966	0.722341	0.594681
	H10	H	0.826433	0.296437	0.588489
	H11	H	0.153822	0.290539	0.393911
	H12	H	0.826184	0.409643	0.704279
	H13	H	0.154466	0.608548	0.711177
	H14	H	0.828050	0.610566	0.272525
	H15	H	0.157234	0.408065	0.283922
	H16	H	0.389620	0.720611	0.829873
	H17	H	0.596303	0.723816	0.155527
	H18	H	0.590488	0.287086	0.829888
	H19	H	0.395963	0.292919	0.155959
	H20	H	0.704374	0.843380	0.397329
	H21	H	0.704770	0.171922	0.596117
	H22	H	0.278534	0.842991	0.587744
	H23	H	0.272387	0.170707	0.393330
	H24	H	0.896249	0.343587	0.204965
	H25	H	0.093711	0.670492	0.211665
	H26	H	0.091922	0.344693	0.776734
	H27	H	0.889357	0.672203	0.778653
	H28	H	0.201361	0.908008	0.328619
	H29	H	0.207614	0.106846	0.655847
	H30	H	0.770141	0.107615	0.330341
	H31	H	0.782498	0.913673	0.657951
	H32	H	0.327423	0.220979	0.891361
	H33	H	0.657760	0.218761	0.095149
	H34	H	0.326392	0.793507	0.087964
	H35	H	0.656094	0.790948	0.896039
	H36	H	0.324644	0.910868	0.201515
	H37	H	0.654788	0.104758	0.212468
	H38	H	0.327073	0.105142	0.777862
	H39	H	0.656687	0.905478	0.780641
	H40	H	0.886533	0.223553	0.329257
	H41	H	0.092957	0.224775	0.654995
	H42	H	0.087847	0.790995	0.329525
	H43	H	0.891592	0.793035	0.655160
	H44	H	0.204133	0.342243	0.898094
	H45	H	0.206962	0.671532	0.093253
	H46	H	0.783528	0.341615	0.085958
	H47	H	0.773540	0.670296	0.893094
	H48	H	0.408527	0.118819	0.579344
	H49	H	0.578076	0.894691	0.579990
	H50	H	0.580133	0.124071	0.401431
	H51	H	0.394627	0.890450	0.400908
	H52	H	0.592170	0.413156	0.109583
	H53	H	0.577704	0.592727	0.878931
	H54	H	0.405317	0.593281	0.105919
	H55	H	0.405671	0.411102	0.878227
	H56	H	0.107383	0.603821	0.409494
	H57	H	0.875709	0.596749	0.580688
	H58	H	0.105495	0.419295	0.578226
	H59	H	0.868333	0.407608	0.393239
	H60	H	0.108434	0.422915	0.592697
	H61	H	0.871400	0.601438	0.589633
	H62	H	0.106830	0.592550	0.403142
	H63	H	0.876120	0.418514	0.405551
	H64	H	0.407126	0.609237	0.110715
	H65	H	0.577931	0.606596	0.874373
	H66	H	0.587624	0.415188	0.107360
	H67	H	0.393588	0.406734	0.872636
	H68	H	0.577716	0.123746	0.403043
	H69	H	0.598540	0.888269	0.583830
	H70	H	0.388936	0.125462	0.581426
	H71	H	0.394176	0.888561	0.392530
	H72	H	0.904107	0.623729	0.089337
	H73	H	0.102178	0.384914	0.091336
	H74	H	0.087818	0.624851	0.903867
	H75	H	0.895156	0.388098	0.893400
	H76	H	0.092268	0.919985	0.610194
	H77	H	0.077192	0.100819	0.376741
	H78	H	0.903017	0.097060	0.606054
	H79	H	0.904138	0.908445	0.376045
	H80	H	0.615009	0.104416	0.895806
	H81	H	0.374728	0.095417	0.084690
	H82	H	0.607978	0.911702	0.081616
	H83	H	0.372014	0.915936	0.890841
	H84	H	0.607491	0.921138	0.088634
	H85	H	0.371310	0.105447	0.087561
	H86	H	0.607469	0.100258	0.914429
	H87	H	0.372068	0.908860	0.899682
	H88	H	0.904379	0.111221	0.609782
	H89	H	0.081278	0.102735	0.375094
	H90	H	0.077884	0.917920	0.606606
	H91	H	0.886673	0.913765	0.373045
	H92	H	0.082443	0.625835	0.896296
	H93	H	0.079169	0.389316	0.099838
	H94	H	0.903469	0.621775	0.078582
	H95	H	0.905749	0.391252	0.893404
	H96	H	0.401715	0.125499	0.597464
	H97	H	0.583829	0.887759	0.599318
	H98	H	0.581004	0.123225	0.404246
	H99	H	0.400982	0.890615	0.395955
	H100	H	0.587714	0.410592	0.109351
	H101	H	0.588882	0.597919	0.874221
	H102	H	0.392507	0.602172	0.112159
	H103	H	0.395262	0.420115	0.876754
	H104	H	0.111209	0.604089	0.397229
	H105	H	0.872392	0.607498	0.580877
	H106	H	0.112077	0.407524	0.587466
	H107	H	0.873383	0.424262	0.389465
	H108	H	0.894535	0.625519	0.083419
	H109	H	0.083994	0.394654	0.076665
	H110	H	0.079940	0.622668	0.905401
	H111	H	0.899555	0.392087	0.901997
	H112	H	0.086510	0.906763	0.611295
	H113	H	0.081541	0.097230	0.376451
	H114	H	0.891520	0.104821	0.611871
	H115	H	0.898815	0.925840	0.380895
	H116	H	0.607099	0.085349	0.900342
	H117	H	0.375062	0.104155	0.077661
	H118	H	0.610869	0.911100	0.093043
	H119	H	0.376238	0.918354	0.901607
	C120	C	0.371141	0.015016	0.613223
	C121	C	0.614698	0.998704	0.617535
	C122	C	0.609399	0.015461	0.374128
	C123	C	0.366490	0.998486	0.368648
	C124	C	0.615218	0.383329	0.000547
	C125	C	0.613021	0.628118	0.983796
	C126	C	0.370429	0.629329	0.001868
	C127	C	0.371433	0.385110	0.984123
	C128	C	-0.000172	0.629654	0.371608
	C129	C	0.982071	0.630717	0.614315
	C130	C	-0.000228	0.388380	0.613373
	C131	C	0.981748	0.386792	0.370138
	C132	C	0.872909	0.515186	0.112050
	C133	C	0.116236	0.498533	0.117416
	C134	C	0.112427	0.516168	0.872928
	C135	C	0.869011	0.498641	0.868218
	C136	C	0.112413	0.885666	0.501135
	C137	C	0.111422	0.129285	0.483846
	C138	C	0.867995	0.132077	0.501491
	C139	C	0.869478	0.887730	0.484563
	C140	C	0.500613	0.126107	0.873042
	C141	C	0.482757	0.129306	0.114610
	C142	C	0.499311	0.886286	0.113752
	C143	C	0.482924	0.884697	0.870488
	C144	C	0.373593	0.891797	0.667423
	C145	C	0.611779	0.121374	0.674480
	C146	C	0.609171	0.892321	0.317614
	C147	C	0.366533	0.121058	0.313431
	C148	C	0.667754	0.384448	0.876853
	C149	C	0.670699	0.624782	0.107076
	C150	C	0.312808	0.625358	0.878533
	C151	C	0.319553	0.389501	0.108129
	C152	C	0.875326	0.685451	0.370996
	C153	C	0.106123	0.685245	0.614118
	C154	C	0.875617	0.333779	0.609367
	C155	C	0.105239	0.329276	0.373864
	C156	C	0.875700	0.390574	0.666920
	C157	C	0.105806	0.628310	0.671785
	C158	C	0.876693	0.629365	0.312222
	C159	C	0.106756	0.387850	0.318857
	C160	C	0.369777	0.683434	0.878688
	C161	C	0.614739	0.684839	0.106778
	C162	C	0.611334	0.326034	0.877932
	C163	C	0.375430	0.330601	0.107157
	C164	C	0.666081	0.892274	0.376695
	C165	C	0.667918	0.122389	0.615957
	C166	C	0.316311	0.891756	0.608840
	C167	C	0.310491	0.121603	0.372390
	C168	C	0.876229	0.392204	0.166804
	C169	C	0.113648	0.621824	0.172864
	C170	C	0.111423	0.393200	0.815942
	C171	C	0.869341	0.622519	0.814974
	C172	C	0.164805	0.887676	0.377705
	C173	C	0.168801	0.127058	0.606884
	C174	C	0.809407	0.128187	0.378929
	C175	C	0.817758	0.891730	0.608356
	C176	C	0.376629	0.182725	0.872429
	C177	C	0.607589	0.182270	0.114773
	C178	C	0.375310	0.831333	0.109078
	C179	C	0.606927	0.828872	0.874943
	C180	C	0.374588	0.889243	0.165614
	C181	C	0.606092	0.125998	0.173734
	C182	C	0.376424	0.124919	0.816113
	C183	C	0.607117	0.885873	0.817573
	C184	C	0.867305	0.185934	0.378290
	C185	C	0.111824	0.185762	0.606579
	C186	C	0.108362	0.829475	0.378135
	C187	C	0.871934	0.831594	0.606857
	C188	C	0.166988	0.391764	0.876391
	C189	C	0.170267	0.622104	0.114278
	C190	C	0.819896	0.391301	0.107648
	C191	C	0.811560	0.621564	0.871829
	C192	C	0.393205	0.101008	0.592229
	C193	C	0.593265	0.912604	0.594397
	C194	C	0.586198	0.101447	0.396372
	C195	C	0.389806	0.912200	0.390267
	C196	C	0.595091	0.406167	0.086347
	C197	C	0.588617	0.605772	0.898125
	C198	C	0.394711	0.607922	0.087491
	C199	C	0.392041	0.406451	0.898222
	C200	C	0.086022	0.606767	0.396235
	C201	C	0.895626	0.608445	0.590612
	C202	C	0.086442	0.410142	0.592260
	C203	C	0.895089	0.410037	0.390155
	C204	C	0.894275	0.601480	0.090213
	C205	C	0.094901	0.412117	0.095686
	C206	C	0.089915	0.602005	0.895199
	C207	C	0.892950	0.412702	0.889694
	C208	C	0.091688	0.908091	0.587073
	C209	C	0.087151	0.106786	0.398178
	C210	C	0.892589	0.110821	0.587031
	C211	C	0.890422	0.909613	0.398751
	C212	C	0.587320	0.103474	0.896759
	C213	C	0.396052	0.107901	0.090308
	C214	C	0.586317	0.908339	0.093618
	C215	C	0.396028	0.907513	0.891324
	Zn216	Zn	0.492065	0.006369	0.743958
	Zn217	Zn	0.489299	0.007266	0.242129
	Zn218	Zn	0.742732	0.505946	-0.008875
	Zn219	Zn	0.242931	0.506773	-0.006070
	Zn220	Zn	-0.010138	0.758318	0.492705
	Zn221	Zn	-0.009798	0.260216	0.491985
	Zn222	Zn	-0.009097	0.508664	0.741861
	Zn223	Zn	-0.007445	0.507593	0.243647
	Zn224	Zn	0.491297	0.757879	-0.007546
	Zn225	Zn	0.492600	0.255756	-0.007614
	Zn226	Zn	0.740753	0.008391	0.494487
	Zn227	Zn	0.240294	0.007178	0.492116
	N228	N	0.406538	0.969510	0.670471
	N229	N	0.579622	0.043283	0.675757
	N230	N	0.574443	0.969947	0.316064
	N231	N	0.400736	0.043250	0.311050
	N232	N	0.670305	0.419565	0.954013
	N233	N	0.669961	0.590470	0.029699
	N234	N	0.312932	0.592478	0.956189
	N235	N	0.316670	0.422405	0.030533
	N236	N	0.952859	0.685851	0.407131
	N237	N	0.028130	0.686793	0.579047
	N238	N	0.953743	0.332252	0.576563
	N239	N	0.026535	0.328399	0.405145
	N240	N	0.953907	0.423918	0.669321
	N241	N	0.027602	0.595204	0.672180
	N242	N	0.955019	0.595492	0.312477
	N243	N	0.029071	0.422893	0.316509
	N244	N	0.404774	0.686074	0.956125
	N245	N	0.579401	0.686767	0.029267
	N246	N	0.579535	0.324949	0.955710
	N247	N	0.406758	0.327559	0.029089
	N248	N	0.666336	0.969724	0.411108
	N249	N	0.669988	0.045066	0.581216
	N250	N	0.314578	0.969517	0.575963
	N251	N	0.310333	0.044228	0.405819
	N252	N	0.908244	0.470413	0.169573
	N253	N	0.081149	0.543983	0.175115
	N254	N	0.078049	0.471423	0.813739
	N255	N	0.904128	0.544956	0.812412
	N256	N	0.167371	0.921835	0.454985
	N257	N	0.168538	0.092773	0.529593
	N258	N	0.809669	0.095539	0.456551
	N259	N	0.816058	0.926028	0.531240
	N260	N	0.454787	0.183184	0.907468
	N261	N	0.529685	0.184629	0.079272
	N262	N	0.454051	0.829402	0.077692
	N263	N	0.528392	0.828076	0.906981
	N264	N	0.452674	0.922829	0.168527
	N265	N	0.527255	0.094084	0.173838
	N266	N	0.454608	0.090621	0.816196
	N267	N	0.528857	0.919639	0.814592
	N268	N	0.902937	0.188609	0.455433
	N269	N	0.076445	0.187182	0.529112
	N270	N	0.076643	0.827920	0.456144
	N271	N	0.903195	0.828947	0.528944
	N272	N	0.167666	0.468988	0.911141
	N273	N	0.172204	0.544242	0.080714
	N274	N	0.817814	0.468917	0.074305
	N275	N	0.811080	0.543579	0.903986
	O276	O	-0.006686	-0.013129	0.043495
	H277	H	-0.013897	-0.010378	0.041132
	H278	H	-0.000999	-0.023180	0.044548
	O279	O	0.389605	0.503690	0.621931
	H280	H	0.378613	0.500441	0.622690
	H281	H	0.379565	0.513137	0.609883
	O282	O	0.539503	0.502439	0.511475
	H283	H	0.524868	0.505056	0.503780
	H284	H	0.532355	0.490307	0.508311
	O285	O	0.001699	1.002015	0.952471
	H286	H	0.002088	1.005966	0.955785
	H287	H	-0.000700	1.004617	0.949283
	O288	O	0.530349	0.601336	0.399367
	H289	H	0.532029	0.594735	0.411702
	H290	H	0.530825	0.618450	0.398228
	O291	O	0.976738	1.001616	0.951886
	H292	H	0.965062	1.006349	0.944075
	H293	H	0.981621	1.007152	0.959082
	O294	O	0.988525	0.972484	0.978718
	H295	H	0.978435	0.977329	0.977247
	H296	H	0.990898	0.976943	0.980563
	O297	O	0.967721	0.039201	0.989174
	H298	H	0.980680	0.044966	0.995965
	H299	H	0.968432	0.045922	0.986358
	O300	O	0.501685	0.383219	0.533154
	H301	H	0.509007	0.377633	0.553285
	H302	H	0.517415	0.377126	0.533891
	O303	O	1.019549	-0.017500	-0.005271
	H304	H	1.027677	-0.019730	0.009265
	H305	H	1.020158	-0.024908	-0.002131
	O306	O	0.014535	0.988958	0.940302
	H307	H	0.011056	0.980450	0.937064
	H308	H	0.024514	0.989135	0.931253
	O309	O	0.494301	0.545069	0.487978
	H310	H	0.472911	0.556488	0.488341
	H311	H	0.511771	0.537459	0.487292
	O312	O	0.971163	0.028832	0.985182
	H313	H	0.970436	0.015043	0.992664
	H314	H	0.977766	0.036433	0.984713
	O315	O	0.564274	0.447838	0.579507
	H316	H	0.566576	0.455571	0.580846
	H317	H	0.548893	0.450873	0.581063
	O318	O	0.593145	0.555816	0.554245
	H319	H	0.595729	0.551993	0.543212
	H320	H	0.598729	0.563974	0.557898
	O321	O	1.104819	1.005077	1.010969
	H322	H	1.091489	1.009313	0.995160
	H323	H	1.111586	1.015160	1.009177
	O324	O	0.516131	0.548371	0.459749
	H325	H	0.517444	0.554979	0.456349
	H326	H	0.509176	0.539943	0.473860
	O327	O	0.463966	0.475597	0.537003
	H328	H	0.457015	0.467944	0.544627
	H329	H	0.467803	0.474847	0.533811
	O330	O	0.924047	0.009148	1.008656
	H331	H	0.924722	0.005067	1.009672
	H332	H	0.924741	0.013696	1.005663
	O333	O	1.041522	1.086706	-0.066110
	H334	H	1.047339	1.081358	-0.059764
	H335	H	1.041012	1.078554	-0.069894
	O336	O	0.506664	0.550689	0.370470
	H337	H	0.513692	0.563034	0.375054
	H338	H	0.510696	0.553588	0.375305
	O339	O	0.487245	0.456267	0.470292
	H340	H	0.484773	0.445300	0.454424
	H341	H	0.505947	0.446291	0.463477
	O342	O	0.607872	0.404490	0.409699
	H343	H	0.613094	0.400390	0.407193
	H344	H	0.612890	0.395223	0.405544
	O345	O	-0.028237	0.089139	-0.019662
	H346	H	-0.031121	0.087020	-0.021109
	H347	H	-0.025697	0.090992	-0.018039
	O348	O	0.374777	0.491097	0.491619
	H349	H	0.372572	0.499562	0.485322
	H350	H	0.375697	0.487169	0.488676
	O351	O	0.320915	0.462413	0.485054
	H352	H	0.319546	0.459438	0.461356
	H353	H	0.319631	0.470388	0.484893
	O354	O	0.440191	0.600003	0.409086
	H355	H	0.432104	0.603152	0.409721
	H356	H	0.443661	0.594932	0.406170
	O357	O	0.452858	0.514718	0.429655
	H358	H	0.464594	0.501418	0.426881
	H359	H	0.451144	0.515961	0.423613
	O360	O	0.478761	-0.534919	0.458112
	H361	H	0.486231	-0.530245	0.462954
	H362	H	0.464097	-0.537465	0.466540
	O363	O	0.529220	0.530274	0.448414
	H364	H	0.528138	0.535601	0.453226
	H365	H	0.537509	0.538402	0.447713
	O366	O	-0.042151	-0.010945	1.022417
	H367	H	-0.042519	0.000964	1.024798
	H368	H	-0.043611	-0.009910	1.022994
	O369	O	0.566165	0.488607	0.520936
	H370	H	0.574629	0.491525	0.522530
	H371	H	0.556327	0.481490	0.530820
