data_Molecule from HDF5

_cell_length_a		16.449911
_cell_length_b		16.076078
_cell_length_c		16.241389
_cell_angle_alpha	90.737689
_cell_angle_beta	90.369512
_cell_angle_gamma	90.493610
_symmetry_space_group_name_H-M	'P 1'
_symmetry_Int_Tables_number		1

loop_
	_symmetry_equiv_pos_as_xyz
	x,y,z

loop_
	_atom_site_label
	_atom_site_type_symbol
	_atom_site_fract_x
	_atom_site_fract_y
	_atom_site_fract_z
	H0	H	0.389709	0.832129	0.711477
	H1	H	0.590618	0.162512	0.718823
	H2	H	0.583853	0.832651	0.285814
	H3	H	0.391305	0.164332	0.291388
	H4	H	0.705620	0.392465	0.838340
	H5	H	0.710909	0.606341	0.161894
	H6	H	0.270440	0.600078	0.839197
	H7	H	0.272158	0.396182	0.162400
	H8	H	0.827259	0.708947	0.402124
	H9	H	0.151124	0.716140	0.602012
	H10	H	0.826988	0.281922	0.596299
	H11	H	0.152175	0.280714	0.400613
	H12	H	0.827669	0.394834	0.715288
	H13	H	0.150412	0.602352	0.720469
	H14	H	0.829982	0.597532	0.280591
	H15	H	0.152410	0.395116	0.282615
	H16	H	0.391882	0.708926	0.836697
	H17	H	0.588803	0.714791	0.164834
	H18	H	0.587416	0.280194	0.838549
	H19	H	0.394076	0.288730	0.166445
	H20	H	0.701432	0.832825	0.397670
	H21	H	0.709214	0.160678	0.607610
	H22	H	0.268042	0.835672	0.602632
	H23	H	0.272484	0.161858	0.400693
	H24	H	0.893618	0.331085	0.208005
	H25	H	0.091559	0.662733	0.216814
	H26	H	0.085194	0.333318	0.784028
	H27	H	0.891811	0.664085	0.788926
	H28	H	0.204569	0.893529	0.338651
	H29	H	0.208347	0.106536	0.663139
	H30	H	0.771365	0.095486	0.337926
	H31	H	0.772031	0.895297	0.664157
	H32	H	0.327221	0.210654	0.904783
	H33	H	0.651852	0.215965	0.102615
	H34	H	0.327478	0.782245	0.097110
	H35	H	0.651882	0.783249	0.902103
	H36	H	0.325869	0.899124	0.214234
	H37	H	0.650581	0.101665	0.222386
	H38	H	0.328397	0.098225	0.783665
	H39	H	0.650219	0.896148	0.783386
	H40	H	0.893096	0.205414	0.334774
	H41	H	0.086979	0.214708	0.664394
	H42	H	0.084979	0.782168	0.336554
	H43	H	0.892928	0.786217	0.666247
	H44	H	0.204476	0.333768	0.895786
	H45	H	0.208769	0.661851	0.104772
	H46	H	0.771811	0.334913	0.098911
	H47	H	0.774616	0.662933	0.899980
	H48	H	0.400967	0.112662	0.585453
	H49	H	0.584111	0.878204	0.593409
	H50	H	0.592770	0.116353	0.421331
	H51	H	0.399021	0.880917	0.404752
	H52	H	0.589340	0.413953	0.117885
	H53	H	0.583386	0.588245	0.883755
	H54	H	0.396597	0.582755	0.115451
	H55	H	0.393706	0.406231	0.884003
	H56	H	0.103383	0.582370	0.408447
	H57	H	0.873045	0.600661	0.586803
	H58	H	0.104782	0.412155	0.598777
	H59	H	0.875737	0.402141	0.403872
	H60	H	0.105314	0.402272	0.593428
	H61	H	0.878306	0.578445	0.590511
	H62	H	0.108288	0.593281	0.402966
	H63	H	0.875675	0.404113	0.403622
	H64	H	0.405648	0.591240	0.115513
	H65	H	0.583417	0.587859	0.883744
	H66	H	0.579029	0.413809	0.115187
	H67	H	0.398325	0.405678	0.885745
	H68	H	0.581196	0.119089	0.402180
	H69	H	0.576787	0.880274	0.593544
	H70	H	0.389245	0.119168	0.594659
	H71	H	0.395561	0.882845	0.414520
	H72	H	0.905683	0.614610	0.094460
	H73	H	0.096403	0.375462	0.089189
	H74	H	0.077263	0.616918	0.904765
	H75	H	0.881981	0.376080	0.905868
	H76	H	0.071801	0.915204	0.613077
	H77	H	0.086005	0.081573	0.384533
	H78	H	0.899591	0.092511	0.617945
	H79	H	0.897750	0.902365	0.385749
	H80	H	0.605090	0.090055	0.906733
	H81	H	0.372279	0.096045	0.100045
	H82	H	0.601903	0.915620	0.094179
	H83	H	0.371302	0.894043	0.905179
	H84	H	0.605537	0.908166	0.099986
	H85	H	0.373897	0.093920	0.093927
	H86	H	0.603873	0.091987	0.915164
	H87	H	0.378764	0.907015	0.915864
	H88	H	0.894155	0.089878	0.617639
	H89	H	0.076900	0.085979	0.385866
	H90	H	0.079747	0.900184	0.619886
	H91	H	0.890224	0.898718	0.383158
	H92	H	0.079631	0.612634	0.919858
	H93	H	0.074998	0.378547	0.100893
	H94	H	0.899648	0.614369	0.086251
	H95	H	0.905159	0.380235	0.896156
	H96	H	0.403630	0.115920	0.600940
	H97	H	0.580460	0.881229	0.586741
	H98	H	0.572059	0.109816	0.420548
	H99	H	0.388627	0.878183	0.407075
	H100	H	0.583554	0.405656	0.118828
	H101	H	0.582306	0.588799	0.884533
	H102	H	0.394241	0.594467	0.119554
	H103	H	0.395644	0.402459	0.882914
	H104	H	0.104432	0.593868	0.416055
	H105	H	0.870519	0.591593	0.608014
	H106	H	0.101709	0.411456	0.587479
	H107	H	0.875536	0.402519	0.402545
	H108	H	0.895996	0.619016	0.095074
	H109	H	0.077174	0.385645	0.078041
	H110	H	0.091347	0.617515	0.911828
	H111	H	0.900643	0.386406	0.920518
	H112	H	0.089396	0.916113	0.616603
	H113	H	0.084720	0.091771	0.382577
	H114	H	0.898728	0.085997	0.615265
	H115	H	0.890797	0.907653	0.384419
	H116	H	0.602402	0.084220	0.911953
	H117	H	0.373692	0.089802	0.098484
	H118	H	0.603239	0.906431	0.090630
	H119	H	0.373710	0.911130	0.898139
	C120	C	0.367385	0.007190	0.621984
	C121	C	0.611233	0.988506	0.623150
	C122	C	0.609419	0.006335	0.381893
	C123	C	0.366810	0.989677	0.380722
	C124	C	0.611744	0.378181	0.009739
	C125	C	0.612850	0.620247	0.991758
	C126	C	0.368867	0.618571	0.009526
	C127	C	0.367879	0.376498	0.992201
	C128	C	-0.001371	0.618346	0.379064
	C129	C	0.980894	0.620984	0.624664
	C130	C	-0.002696	0.377387	0.621249
	C131	C	0.982158	0.373629	0.375260
	C132	C	0.870253	0.507261	0.120202
	C133	C	0.112872	0.488879	0.121130
	C134	C	0.110626	0.506676	0.880285
	C135	C	0.867509	0.489734	0.878937
	C136	C	0.109319	0.878284	0.508964
	C137	C	0.112035	0.119768	0.491910
	C138	C	0.867987	0.117640	0.508846
	C139	C	0.865691	0.874587	0.492614
	C140	C	0.497229	0.118525	0.881326
	C141	C	0.480817	0.122714	0.126508
	C142	C	0.496901	0.878710	0.122680
	C143	C	0.481221	0.874788	0.877494
	C144	C	0.368918	0.882111	0.675299
	C145	C	0.610934	0.112716	0.681152
	C146	C	0.605309	0.882187	0.323983
	C147	C	0.370301	0.114349	0.327335
	C148	C	0.666773	0.375352	0.887013
	C149	C	0.670970	0.623511	0.113764
	C150	C	0.310681	0.618214	0.887211
	C151	C	0.311359	0.377634	0.114406
	C152	C	0.876243	0.672108	0.381113
	C153	C	0.102498	0.678370	0.622675
	C154	C	0.875586	0.320070	0.617365
	C155	C	0.103782	0.318176	0.379302
	C156	C	0.875942	0.376507	0.676775
	C157	C	0.102095	0.621906	0.681992
	C158	C	0.877680	0.616574	0.320702
	C159	C	0.103901	0.375265	0.320560
	C160	C	0.370989	0.672389	0.885756
	C161	C	0.610542	0.677687	0.115047
	C162	C	0.608094	0.319326	0.887267
	C163	C	0.372173	0.324117	0.116496
	C164	C	0.663716	0.882195	0.379713
	C165	C	0.669762	0.111883	0.625459
	C166	C	0.308415	0.883978	0.621387
	C167	C	0.311172	0.113198	0.381974
	C168	C	0.872377	0.381516	0.172530
	C169	C	0.111851	0.613042	0.179084
	C170	C	0.106758	0.382663	0.822361
	C171	C	0.870977	0.614265	0.825212
	C172	C	0.165513	0.876003	0.386944
	C173	C	0.169095	0.123315	0.614305
	C174	C	0.810924	0.115205	0.386277
	C175	C	0.810600	0.876031	0.615584
	C176	C	0.375590	0.173241	0.883844
	C177	C	0.603274	0.178279	0.123607
	C178	C	0.375502	0.821019	0.118581
	C179	C	0.602913	0.820175	0.880697
	C180	C	0.374690	0.879326	0.176707
	C181	C	0.602367	0.121756	0.183374
	C182	C	0.376109	0.117250	0.823686
	C183	C	0.602239	0.876677	0.821721
	C184	C	0.871352	0.169971	0.384523
	C185	C	0.109144	0.177521	0.615004
	C186	C	0.106024	0.820425	0.385836
	C187	C	0.870442	0.821351	0.616517
	C188	C	0.165912	0.383010	0.878050
	C189	C	0.169740	0.612720	0.122752
	C190	C	0.811754	0.383599	0.118524
	C191	C	0.812498	0.613699	0.880679
	C192	C	0.390952	0.093438	0.600258
	C193	C	0.587378	0.902329	0.598565
	C194	C	0.588219	0.092679	0.407221
	C195	C	0.388170	0.903013	0.402486
	C196	C	0.590221	0.403792	0.095326
	C197	C	0.589738	0.595438	0.905969
	C198	C	0.392030	0.596045	0.094702
	C199	C	0.389576	0.398195	0.906565
	C200	C	0.083312	0.596398	0.402569
	C201	C	0.895882	0.597204	0.601849
	C202	C	0.082027	0.401509	0.599653
	C203	C	0.897450	0.396324	0.396760
	C204	C	0.893613	0.593539	0.098352
	C205	C	0.089582	0.402268	0.096635
	C206	C	0.089009	0.593284	0.905140
	C207	C	0.889385	0.403127	0.901046
	C208	C	0.086789	0.903250	0.594410
	C209	C	0.089117	0.093996	0.406337
	C210	C	0.890809	0.095974	0.594633
	C211	C	0.886621	0.896519	0.406744
	C212	C	0.581831	0.095626	0.904527
	C213	C	0.395577	0.100076	0.104039
	C214	C	0.581647	0.902980	0.101322
	C215	C	0.396374	0.897527	0.899694
	Zn216	Zn	0.488693	-0.002487	0.749681
	Zn217	Zn	0.488412	-0.001072	0.254479
	Zn218	Zn	0.740736	0.499098	-0.000243
	Zn219	Zn	0.239967	0.497554	0.000482
	Zn220	Zn	-0.010986	0.748548	0.501085
	Zn221	Zn	-0.010093	0.246295	0.499668
	Zn222	Zn	-0.011122	0.498671	0.752409
	Zn223	Zn	-0.008657	0.497236	0.247873
	Zn224	Zn	0.490251	0.747301	0.000480
	Zn225	Zn	0.489423	0.249480	0.002241
	Zn226	Zn	0.738159	-0.003631	0.501653
	Zn227	Zn	0.239136	-0.001507	0.501483
	N228	N	0.405034	0.959666	0.675729
	N229	N	0.575078	0.035035	0.679761
	N230	N	0.572431	0.960438	0.325181
	N231	N	0.404264	0.036597	0.326422
	N232	N	0.669209	0.411240	0.964349
	N233	N	0.672622	0.588752	0.035958
	N234	N	0.309128	0.585583	0.965125
	N235	N	0.308459	0.409496	0.036240
	N236	N	0.952381	0.673479	0.416650
	N237	N	0.025900	0.678260	0.588108
	N238	N	0.952005	0.320487	0.583472
	N239	N	0.027103	0.316911	0.412792
	N240	N	0.952644	0.411507	0.679411
	N241	N	0.025481	0.587206	0.683327
	N242	N	0.954651	0.583697	0.319472
	N243	N	0.027292	0.408839	0.317977
	N244	N	0.406560	0.672805	0.962515
	N245	N	0.575057	0.675865	0.038137
	N246	N	0.574639	0.320775	0.964630
	N247	N	0.406487	0.323175	0.039611
	N248	N	0.666407	0.960470	0.415269
	N249	N	0.669804	0.033748	0.589742
	N250	N	0.307341	0.962683	0.589163
	N251	N	0.308691	0.034734	0.414666
	N252	N	0.908072	0.459330	0.174005
	N253	N	0.077009	0.534934	0.177994
	N254	N	0.073165	0.460789	0.823449
	N255	N	0.904407	0.536095	0.823918
	N256	N	0.167441	0.911460	0.464521
	N257	N	0.171068	0.088336	0.536498
	N258	N	0.808745	0.083497	0.464557
	N259	N	0.807401	0.908190	0.537609
	N260	N	0.451896	0.173931	0.918948
	N261	N	0.526599	0.179218	0.089290
	N262	N	0.452335	0.820404	0.085726
	N263	N	0.526556	0.819015	0.914806
	N264	N	0.451134	0.914634	0.179093
	N265	N	0.525133	0.088395	0.185666
	N266	N	0.452870	0.084123	0.821779
	N267	N	0.525403	0.909610	0.819478
	N268	N	0.906161	0.171597	0.461739
	N269	N	0.074396	0.175502	0.537859
	N270	N	0.071618	0.821844	0.462759
	N271	N	0.904195	0.820266	0.539167
	N272	N	0.168294	0.461218	0.913376
	N273	N	0.170500	0.534522	0.087554
	N274	N	0.810141	0.462561	0.087054
	N275	N	0.810193	0.535163	0.913307
	O276	O	0.454251	-0.550357	1.613492
	H277	H	0.455137	-0.546304	1.593418
	H278	H	0.464159	-0.540988	1.608950
	O279	O	0.601023	0.359271	0.336655
	H280	H	0.589819	0.356447	0.332171
	H281	H	0.609030	0.346718	0.324198
	O282	O	0.490976	0.420952	0.551041
	H283	H	0.503764	0.431926	0.552805
	H284	H	0.473293	0.419213	0.567150
	O285	O	0.506169	0.543260	0.354866
	H286	H	0.503550	0.531129	0.345901
	H287	H	0.519716	0.553539	0.357918
	O288	O	0.579242	0.569769	0.563854
	H289	H	0.573411	0.561916	0.561354
	H290	H	0.583306	0.555283	0.573575
	O291	O	0.541639	-0.324572	1.473649
	H292	H	0.549047	-0.321730	1.483286
	H293	H	0.548836	-0.325064	1.491350
	O294	O	1.085199	1.063231	-0.042971
	H295	H	1.086321	1.064226	-0.031948
	H296	H	1.076881	1.066566	-0.043774
	O297	O	1.022170	0.960787	0.002174
	H298	H	1.025424	0.960287	-0.005426
	H299	H	1.027115	0.957685	0.002029
	O300	O	0.624893	0.559879	0.520026
	H301	H	0.623572	0.546240	0.526760
	H302	H	0.636426	0.561790	0.513596
	O303	O	0.321783	0.430428	0.614229
	H304	H	0.308877	0.429497	0.614394
	H305	H	0.328051	0.436496	0.617267
	O306	O	0.419738	0.398853	0.568420
	H307	H	0.417230	0.413162	0.565813
	H308	H	0.411506	0.388678	0.563758
	O309	O	0.447048	0.502684	0.336688
	H310	H	0.463590	0.515553	0.332133
	H311	H	0.432773	0.509008	0.339811
	O312	O	0.893913	1.117886	1.013045
	H313	H	0.889707	1.107234	1.008077
	H314	H	0.897851	1.121807	1.014939
	O315	O	0.961249	0.927619	-0.065841
	H316	H	0.959348	0.919359	-0.063823
	H317	H	0.973497	0.924201	-0.066632
	O318	O	0.596089	0.299131	0.385775
	H319	H	0.594049	0.307223	0.380434
	H320	H	0.579555	0.298604	0.395565
	O321	O	0.329164	0.460691	0.522286
	H322	H	0.322340	0.457041	0.529678
	H323	H	0.320330	0.457985	0.517410
	O324	O	0.026066	1.016914	0.889962
	H325	H	0.027483	1.013611	0.889115
	H326	H	0.026925	1.019130	0.893927
	O327	O	-0.045819	1.021481	0.960070
	H328	H	-0.042851	1.015880	0.959002
	H329	H	-0.056568	1.016865	0.938795
	O330	O	-0.586457	0.421272	0.491654
	H331	H	-0.594683	0.427811	0.506828
	H332	H	-0.589205	0.421024	0.497323
	O333	O	0.602431	0.387004	0.511879
	H334	H	0.609734	0.380000	0.492620
	H335	H	0.584162	0.379395	0.499456
	O336	O	-0.036392	-0.016201	0.049719
	H337	H	-0.044961	-0.021116	0.052494
	H338	H	-0.020625	-0.006476	0.057766
	O339	O	-0.079237	-0.006421	0.123499
	H340	H	-0.080532	-0.012658	0.126060
	H341	H	-0.086712	0.006114	0.124036
	O342	O	0.548853	0.370466	0.366537
	H343	H	0.530200	0.364066	0.351279
	H344	H	0.549035	0.364798	0.362557
	O345	O	0.044130	0.986463	1.096861
	H346	H	0.050393	0.987488	1.098575
	H347	H	0.043933	0.980185	1.093079
	O348	O	0.480657	0.453993	0.672493
	H349	H	0.483861	0.449783	0.664256
	H350	H	0.480854	0.451977	0.673633
	O351	O	0.513902	0.601495	0.465133
	H352	H	0.523155	0.596653	0.461362
	H353	H	0.513588	0.598246	0.472689
	O354	O	0.974289	0.972558	-0.916144
	H355	H	0.978354	0.970673	-0.915937
	H356	H	0.964115	0.964274	-0.913531
	O357	O	0.921753	0.990111	1.059403
	H358	H	0.933441	0.996616	1.061126
	H359	H	0.923782	0.985501	1.062140
	O360	O	1.048613	0.023074	1.054016
	H361	H	1.050688	0.017990	1.055381
	H362	H	1.045282	0.022108	1.055519
	O363	O	0.459402	0.487635	0.558676
	H364	H	0.463961	0.488085	0.557958
	H365	H	0.462234	0.479581	0.569576
	O366	O	0.585257	0.623358	0.500324
	H367	H	0.590490	0.611621	0.512348
	H368	H	0.593926	0.614974	0.506833
	O369	O	1.007405	-0.056688	-0.030413
	H370	H	0.986207	-0.059313	-0.028082
	H371	H	1.017503	-0.058800	-0.023629
	O372	O	0.406661	0.644909	0.411554
	H373	H	0.421049	0.640620	0.406203
	H374	H	0.417496	0.661215	0.400307
	O375	O	1.007182	0.032652	0.957186
	H376	H	1.010632	0.035120	0.957882
	H377	H	1.018395	0.025163	0.949721
	O378	O	-0.494205	1.526935	-0.456351
	H379	H	-0.492656	1.519258	-0.456244
	H380	H	-0.484707	1.533126	-0.466298
	O381	O	0.548419	0.591527	0.527881
	H382	H	0.547737	0.577695	0.518672
	H383	H	0.566143	0.594883	0.533424
	O384	O	0.960731	0.959633	-0.062601
	H385	H	0.956873	0.956299	-0.066558
	H386	H	0.979011	0.979434	-0.073745
	O387	O	1.052724	-0.091951	1.010053
	H388	H	1.045087	-0.103078	1.006798
	H389	H	1.049226	-0.087522	1.002298
	O390	O	0.990911	1.028277	0.013000
	H391	H	0.983283	1.020542	0.010227
	H392	H	0.982040	1.024268	0.027480
	O393	O	0.944536	0.993745	-0.093908
	H394	H	0.943933	1.002087	-0.102850
	H395	H	0.951447	0.990414	-0.092465
