data_Molecule from HDF5

_cell_length_a		16.356462
_cell_length_b		16.388300
_cell_length_c		16.550548
_cell_angle_alpha	90.160298
_cell_angle_beta	90.191931
_cell_angle_gamma	89.886171
_symmetry_space_group_name_H-M	'P 1'
_symmetry_Int_Tables_number		1

loop_
	_symmetry_equiv_pos_as_xyz
	x,y,z

loop_
	_atom_site_label
	_atom_site_type_symbol
	_atom_site_fract_x
	_atom_site_fract_y
	_atom_site_fract_z
	H0	H	0.398864	0.840796	0.732115
	H1	H	0.616872	0.153965	0.732685
	H2	H	0.620650	0.841706	0.280902
	H3	H	0.397724	0.156046	0.283989
	H4	H	0.729055	0.391913	0.850951
	H5	H	0.732290	0.606235	0.165476
	H6	H	0.286228	0.601996	0.851710
	H7	H	0.285139	0.390553	0.165763
	H8	H	0.850212	0.719910	0.400417
	H9	H	0.167060	0.717908	0.614417
	H10	H	0.848742	0.278657	0.611735
	H11	H	0.167498	0.275755	0.404503
	H12	H	0.850521	0.388579	0.732077
	H13	H	0.165839	0.605070	0.732308
	H14	H	0.852740	0.607512	0.281898
	H15	H	0.166653	0.386945	0.284571
	H16	H	0.399894	0.720928	0.852710
	H17	H	0.615809	0.722457	0.165568
	H18	H	0.615352	0.272826	0.852777
	H19	H	0.399551	0.272841	0.164984
	H20	H	0.731153	0.839324	0.402162
	H21	H	0.727545	0.156725	0.613497
	H22	H	0.284227	0.840786	0.614327
	H23	H	0.284653	0.157153	0.401971
	H24	H	0.897154	0.341807	0.232956
	H25	H	0.120295	0.652157	0.235288
	H26	H	0.115415	0.340037	0.785611
	H27	H	0.897859	0.655484	0.783545
	H28	H	0.233228	0.888186	0.352151
	H29	H	0.231175	0.105502	0.664813
	H30	H	0.784591	0.102444	0.351638
	H31	H	0.784887	0.889686	0.665108
	H32	H	0.350596	0.218875	0.902915
	H33	H	0.667116	0.219717	0.115612
	H34	H	0.349643	0.777228	0.115182
	H35	H	0.666754	0.775562	0.903472
	H36	H	0.351280	0.890014	0.232877
	H37	H	0.664611	0.108324	0.234623
	H38	H	0.352213	0.106163	0.784104
	H39	H	0.665332	0.885698	0.784141
	H40	H	0.898975	0.220269	0.351309
	H41	H	0.112510	0.219645	0.665239
	H42	H	0.118612	0.769895	0.352754
	H43	H	0.899161	0.771283	0.663522
	H44	H	0.230162	0.339208	0.902958
	H45	H	0.231860	0.654577	0.116775
	H46	H	0.785084	0.340519	0.113149
	H47	H	0.784678	0.656618	0.900489
	H48	H	0.423448	0.109206	0.595721
	H49	H	0.597739	0.881928	0.600362
	H50	H	0.593574	0.109023	0.421188
	H51	H	0.422801	0.889727	0.426071
	H52	H	0.597996	0.411785	0.120753
	H53	H	0.590131	0.585170	0.899444
	H54	H	0.420389	0.587983	0.121717
	H55	H	0.417514	0.408989	0.896295
	H56	H	0.121680	0.583317	0.420889
	H57	H	0.895421	0.579983	0.599082
	H58	H	0.122830	0.408572	0.600764
	H59	H	0.895437	0.411277	0.417169
	H60	H	0.121075	0.408657	0.596197
	H61	H	0.892700	0.589125	0.597777
	H62	H	0.121293	0.582858	0.421990
	H63	H	0.895384	0.409716	0.418903
	H64	H	0.419410	0.586537	0.121541
	H65	H	0.596569	0.591231	0.894764
	H66	H	0.595381	0.409587	0.119566
	H67	H	0.421295	0.410682	0.898813
	H68	H	0.596547	0.109797	0.422133
	H69	H	0.593213	0.885633	0.597315
	H70	H	0.419616	0.110136	0.596165
	H71	H	0.417881	0.885066	0.419018
	H72	H	0.926891	0.607419	0.091433
	H73	H	0.100582	0.381059	0.099515
	H74	H	0.098084	0.613135	0.915726
	H75	H	0.914934	0.385268	0.922490
	H76	H	0.094140	0.908811	0.619134
	H77	H	0.096297	0.088410	0.394760
	H78	H	0.912980	0.092500	0.624797
	H79	H	0.923502	0.909535	0.398068
	H80	H	0.621925	0.084386	0.923198
	H81	H	0.397090	0.084522	0.092007
	H82	H	0.619726	0.909639	0.091457
	H83	H	0.394312	0.910838	0.916062
	H84	H	0.617953	0.917019	0.095332
	H85	H	0.395531	0.080871	0.099625
	H86	H	0.621755	0.081997	0.919742
	H87	H	0.394306	0.907906	0.920764
	H88	H	0.917649	0.082127	0.619062
	H89	H	0.096626	0.085301	0.395015
	H90	H	0.097263	0.909342	0.619223
	H91	H	0.919989	0.909283	0.397707
	H92	H	0.088910	0.608320	0.919496
	H93	H	0.089405	0.385975	0.098849
	H94	H	0.918894	0.610476	0.092809
	H95	H	0.920365	0.382947	0.912244
	H96	H	0.422309	0.111221	0.599310
	H97	H	0.598782	0.883582	0.593812
	H98	H	0.595518	0.110520	0.419502
	H99	H	0.427431	0.887569	0.417523
	H100	H	0.597472	0.408564	0.121329
	H101	H	0.598530	0.582539	0.897960
	H102	H	0.420995	0.587174	0.120703
	H103	H	0.421716	0.406438	0.897131
	H104	H	0.121016	0.582192	0.421088
	H105	H	0.897352	0.584324	0.590576
	H106	H	0.120942	0.412647	0.598578
	H107	H	0.896318	0.411760	0.418888
	H108	H	0.925071	0.610644	0.099489
	H109	H	0.096718	0.386615	0.089562
	H110	H	0.098403	0.610044	0.926185
	H111	H	0.925977	0.387879	0.921058
	H112	H	0.095398	0.911086	0.618518
	H113	H	0.093861	0.086296	0.396302
	H114	H	0.925417	0.091957	0.620256
	H115	H	0.921238	0.912134	0.398388
	H116	H	0.623568	0.086058	0.920141
	H117	H	0.393428	0.088740	0.098191
	H118	H	0.623106	0.911047	0.099766
	H119	H	0.396311	0.913128	0.920536
	C120	C	0.387117	0.006612	0.629959
	C121	C	0.629782	0.988306	0.630244
	C122	C	0.629706	0.005962	0.386934
	C123	C	0.387703	0.991024	0.387116
	C124	C	0.629866	0.376284	0.017019
	C125	C	0.629502	0.620212	1.000581
	C126	C	0.386359	0.619880	0.017689
	C127	C	0.387031	0.375430	1.001026
	C128	C	0.017474	0.617884	0.386761
	C129	C	0.999682	0.617990	0.629447
	C130	C	0.016629	0.376705	0.630321
	C131	C	1.000123	0.376573	0.386156
	C132	C	0.888516	0.506169	0.128222
	C133	C	0.130334	0.487978	0.130328
	C134	C	0.128513	0.505990	0.887766
	C135	C	0.886299	0.489708	0.885574
	C136	C	0.130115	0.875498	0.516330
	C137	C	0.128853	0.119599	0.499269
	C138	C	0.885445	0.120687	0.517156
	C139	C	0.887389	0.876234	0.500643
	C140	C	0.517684	0.117405	0.888055
	C141	C	0.499540	0.119226	0.130448
	C142	C	0.516356	0.878331	0.129686
	C143	C	0.499337	0.875976	0.886427
	C144	C	0.381850	0.888053	0.691196
	C145	C	0.633600	0.106880	0.691529
	C146	C	0.635782	0.888454	0.323402
	C147	C	0.381939	0.109020	0.325151
	C148	C	0.689524	0.373382	0.898547
	C149	C	0.691713	0.623562	0.118367
	C150	C	0.325489	0.621630	0.899438
	C151	C	0.325499	0.372142	0.118474
	C152	C	0.898475	0.680017	0.382665
	C153	C	0.119051	0.678514	0.632805
	C154	C	0.896849	0.317400	0.630989
	C155	C	0.119868	0.315543	0.385424
	C156	C	0.897996	0.372073	0.691256
	C157	C	0.118465	0.621971	0.691350
	C158	C	0.899902	0.624448	0.323130
	C159	C	0.119595	0.371210	0.325926
	C160	C	0.382192	0.680814	0.899919
	C161	C	0.633590	0.681590	0.118354
	C162	C	0.632741	0.314088	0.899468
	C163	C	0.382680	0.313420	0.118108
	C164	C	0.691514	0.887119	0.383420
	C165	C	0.689053	0.108239	0.632156
	C166	C	0.324531	0.888189	0.632553
	C167	C	0.324900	0.109435	0.383549
	C168	C	0.881712	0.388494	0.191079
	C169	C	0.136060	0.605757	0.193468
	C170	C	0.132660	0.387307	0.826269
	C171	C	0.880949	0.607880	0.823846
	C172	C	0.192406	0.870838	0.399100
	C173	C	0.190360	0.122833	0.617556
	C174	C	0.824500	0.121632	0.398927
	C175	C	0.825288	0.871836	0.617867
	C176	C	0.398558	0.179233	0.884545
	C177	C	0.619033	0.180177	0.133910
	C178	C	0.397347	0.817160	0.133213
	C179	C	0.618640	0.814710	0.884610
	C180	C	0.398139	0.873307	0.191953
	C181	C	0.617933	0.124733	0.193220
	C182	C	0.399126	0.122437	0.825730
	C183	C	0.617838	0.869746	0.825020
	C184	C	0.881755	0.180277	0.398789
	C185	C	0.131250	0.179753	0.617919
	C186	C	0.135381	0.811562	0.399536
	C187	C	0.882468	0.812890	0.617097
	C188	C	0.189899	0.386922	0.884732
	C189	C	0.191876	0.606764	0.134421
	C190	C	0.825674	0.387874	0.131489
	C191	C	0.824405	0.608543	0.882352
	C192	C	0.414095	0.088676	0.604397
	C193	C	0.604036	0.905291	0.604524
	C194	C	0.602731	0.088265	0.413455
	C195	C	0.414915	0.909051	0.413159
	C196	C	0.604391	0.402548	0.099112
	C197	C	0.602828	0.593957	0.918804
	C198	C	0.412658	0.594616	0.099733
	C199	C	0.412877	0.401403	0.918877
	C200	C	0.099730	0.590523	0.413747
	C201	C	0.916804	0.591921	0.603291
	C202	C	0.099960	0.402508	0.605526
	C203	C	0.917449	0.403310	0.411019
	C204	C	0.915780	0.587897	0.102009
	C205	C	0.103264	0.406023	0.103527
	C206	C	0.102560	0.588814	0.913256
	C207	C	0.912754	0.406823	0.911269
	C208	C	0.103325	0.902188	0.597711
	C209	C	0.102931	0.094067	0.416922
	C210	C	0.911302	0.096038	0.599751
	C211	C	0.914040	0.902901	0.419283
	C212	C	0.600766	0.091463	0.913594
	C213	C	0.416958	0.092480	0.104161
	C214	C	0.598698	0.905013	0.103164
	C215	C	0.416743	0.902846	0.911856
	Zn216	Zn	0.509143	-0.003162	0.758896
	Zn217	Zn	0.508538	-0.001360	0.258235
	Zn218	Zn	0.758895	0.498541	0.007693
	Zn219	Zn	0.257855	0.497082	0.008912
	Zn220	Zn	0.008231	0.746010	0.508169
	Zn221	Zn	0.007610	0.249371	0.508180
	Zn222	Zn	0.007747	0.497858	0.758106
	Zn223	Zn	0.009320	0.496857	0.257794
	Zn224	Zn	0.507674	0.749755	0.009196
	Zn225	Zn	0.508841	0.246596	0.009251
	Zn226	Zn	0.758000	-0.002761	0.509217
	Zn227	Zn	0.258522	-0.001288	0.507461
	N228	N	0.420086	0.962544	0.689659
	N229	N	0.597716	0.031100	0.690593
	N230	N	0.598123	0.963594	0.325408
	N231	N	0.420297	0.034297	0.327296
	N232	N	0.687936	0.411331	0.972580
	N233	N	0.689572	0.586343	0.043802
	N234	N	0.327553	0.584806	0.973844
	N235	N	0.328137	0.409984	0.044495
	N236	N	0.972825	0.676158	0.421495
	N237	N	0.044166	0.676076	0.594938
	N238	N	0.971785	0.320225	0.593692
	N239	N	0.044585	0.318549	0.421933
	N240	N	0.973558	0.408260	0.690839
	N241	N	0.042985	0.585403	0.689550
	N242	N	0.974856	0.586570	0.325502
	N243	N	0.044044	0.408191	0.326056
	N244	N	0.419196	0.679946	0.974564
	N245	N	0.595881	0.679823	0.044137
	N246	N	0.596543	0.315725	0.974315
	N247	N	0.420396	0.315502	0.043970
	N248	N	0.687632	0.961028	0.422390
	N249	N	0.686773	0.033334	0.594670
	N250	N	0.327453	0.962978	0.595170
	N251	N	0.328190	0.035114	0.421436
	N252	N	0.920185	0.462890	0.189207
	N253	N	0.098464	0.530893	0.190929
	N254	N	0.095396	0.462442	0.827827
	N255	N	0.918679	0.532823	0.825591
	N256	N	0.189503	0.909683	0.472766
	N257	N	0.189218	0.086502	0.542608
	N258	N	0.826336	0.085662	0.473705
	N259	N	0.828354	0.910609	0.544511
	N260	N	0.473188	0.176242	0.922689
	N261	N	0.544273	0.176959	0.095738
	N262	N	0.471823	0.820174	0.095188
	N263	N	0.543856	0.818322	0.922275
	N264	N	0.473451	0.910282	0.190084
	N265	N	0.542682	0.087647	0.191090
	N266	N	0.474303	0.084814	0.827834
	N267	N	0.542526	0.906752	0.825657
	N268	N	0.918921	0.179927	0.473441
	N269	N	0.094134	0.178191	0.543303
	N270	N	0.097515	0.814067	0.473544
	N271	N	0.920428	0.815468	0.543169
	N272	N	0.187521	0.461721	0.922300
	N273	N	0.188451	0.532588	0.095781
	N274	N	0.829714	0.461948	0.093105
	N275	N	0.827519	0.533946	0.919954
	O276	O	-0.194928	0.059029	-0.200853
	H277	H	-0.170359	0.091336	-0.195643
	H278	H	-0.224153	0.071782	-0.210422
	O279	O	0.790336	-0.221686	1.032403
	H280	H	0.751848	-0.258422	1.037283
	H281	H	0.803883	-0.208833	1.085116
	O282	O	0.331896	0.541222	0.604408
	H283	H	0.334975	0.531183	0.612079
	H284	H	0.337007	0.525132	0.599328
	O285	O	0.563698	0.505161	0.722147
	H286	H	0.582317	0.519140	0.723404
	H287	H	0.580212	0.504589	0.721913
	O288	O	1.162763	1.022944	-0.131382
	H289	H	1.153238	1.026947	-0.124922
	H290	H	1.157243	1.005600	-0.147786
	O291	O	-0.001674	-0.218952	0.201749
	H292	H	0.004419	-0.230519	0.200825
	H293	H	0.011127	-0.237566	0.204682
	O294	O	0.026481	0.219661	1.228124
	H295	H	0.062451	0.218466	1.229599
	H296	H	0.049359	0.241576	1.249372
	O297	O	0.325891	0.682230	0.322634
	H298	H	0.328360	0.688197	0.348478
	H299	H	0.319310	0.649721	0.330221
	O300	O	0.487854	0.715362	0.293823
	H301	H	0.475425	0.722334	0.311833
	H302	H	0.472509	0.740976	0.270692
	O303	O	0.420816	0.475139	0.692672
	H304	H	0.437031	0.458841	0.692021
	H305	H	0.424547	0.493179	0.696983
	O306	O	0.383283	0.459926	0.383273
	H307	H	0.403726	0.457033	0.382551
	H308	H	0.381795	0.482881	0.377049
	O309	O	0.428409	0.299961	0.658354
	H310	H	0.442168	0.292636	0.669532
	H311	H	0.409555	0.329340	0.669666
	O312	O	0.223100	0.777649	0.989842
	H313	H	0.242574	0.750627	0.990815
	H314	H	0.217079	0.774451	0.957017
	O315	O	0.706613	0.481605	0.344127
	H316	H	0.696969	0.473476	0.334461
	H317	H	0.708984	0.489658	0.327353
	O318	O	0.534328	0.532513	0.490888
	H319	H	0.546576	0.525906	0.503308
	H320	H	0.543583	0.541179	0.476904
	O321	O	-0.045500	0.085324	0.195309
	H322	H	-0.037927	0.117882	0.210442
	H323	H	-0.049053	0.076908	0.174681
	O324	O	0.580701	0.715714	0.520183
	H325	H	0.592286	0.707001	0.504486
	H326	H	0.595644	0.721636	0.514865
	O327	O	0.692367	0.499554	0.647506
	H328	H	0.694344	0.480461	0.640390
	H329	H	0.707358	0.499310	0.657635
	O330	O	0.155809	0.804681	-0.185876
	H331	H	0.151474	0.820817	-0.185266
	H332	H	0.132115	0.807099	-0.184935
	O333	O	0.842954	-0.052564	0.989811
	H334	H	0.844855	-0.070534	0.972434
	H335	H	0.834222	-0.061493	0.987061
	O336	O	-0.029065	-0.194512	-0.048727
	H337	H	-0.057037	-0.198381	-0.024503
	H338	H	-0.042137	-0.177298	-0.061837
	O339	O	0.183648	0.925382	1.081230
	H340	H	0.175382	0.923430	1.086945
	H341	H	0.188693	0.906121	1.093427
	O342	O	0.005194	1.195526	1.005931
	H343	H	0.024000	1.195650	1.010851
	H344	H	0.006342	1.193110	1.028333
	O345	O	0.801602	0.980923	0.216488
	H346	H	0.789028	0.994380	0.229319
	H347	H	0.789210	0.999923	0.194241
	O348	O	0.689918	0.593457	0.688557
	H349	H	0.676092	0.620807	0.672831
	H350	H	0.707818	0.597842	0.715160
	O351	O	-0.034703	0.951358	0.793559
	H352	H	-0.043270	0.937519	0.794069
	H353	H	-0.055124	0.943257	0.789635
	O354	O	0.149442	1.122632	-0.184234
	H355	H	0.126035	1.138473	-0.179561
	H356	H	0.130779	1.102020	-0.181695
	O357	O	-0.003810	-0.084987	1.029320
	H358	H	-0.018916	-0.089872	1.016649
	H359	H	0.000487	-0.077707	1.029234
	O360	O	0.524459	0.296199	0.293134
	H361	H	0.521650	0.275718	0.273510
	H362	H	0.507178	0.286073	0.315676
	O363	O	-0.023836	-0.160940	0.842258
	H364	H	-0.019138	-0.170903	0.832624
	H365	H	-0.037181	-0.158799	0.847625
	O366	O	0.929087	1.009070	-0.073440
	H367	H	0.917486	1.004222	-0.093019
	H368	H	0.926658	1.009124	-0.075653
	O369	O	0.718039	0.560351	0.478584
	H370	H	0.729008	0.536955	0.472043
	H371	H	0.712029	0.541787	0.471957
	O372	O	0.681403	0.257681	0.701490
	H373	H	0.690090	0.271047	0.692889
	H374	H	0.690024	0.258879	0.708167
	O375	O	0.503694	0.282545	0.430542
	H376	H	0.499650	0.281229	0.436284
	H377	H	0.493310	0.276623	0.456729
	O378	O	0.297864	0.669069	0.510919
	H379	H	0.297244	0.655721	0.526103
	H380	H	0.288964	0.689162	0.518383
	O381	O	1.304606	0.383627	0.709324
	H382	H	1.295582	0.393766	0.709036
	H383	H	1.292055	0.385625	0.703416
	O384	O	0.509663	0.676029	0.692197
	H385	H	0.507965	0.708916	0.719057
	H386	H	0.487557	0.665748	0.674012
	O387	O	-0.006428	0.194479	0.824482
	H388	H	-0.013577	0.221180	0.821756
	H389	H	0.006943	0.196285	0.845302
	O390	O	-0.438474	-0.368791	-0.610115
	H391	H	-0.437153	-0.345658	-0.624129
	H392	H	-0.434332	-0.383516	-0.616228
	O393	O	0.877408	1.112799	1.058872
	H394	H	0.878872	1.083445	1.054595
	H395	H	0.901682	1.121517	1.054143
	O396	O	1.031941	0.109722	0.026046
	H397	H	1.030150	0.096825	0.027032
	H398	H	1.041457	0.103658	0.036500
	O399	O	0.828208	-0.181378	1.187484
	H400	H	0.818211	-0.129121	1.201749
	H401	H	0.881117	-0.193275	1.201075
	O402	O	1.213567	1.189026	1.015768
	H403	H	1.227353	1.177513	0.996097
	H404	H	1.232428	1.180054	1.022947
	O405	O	1.137087	1.002477	0.213907
	H406	H	1.123687	1.001890	0.211534
	H407	H	1.137954	0.984378	0.217269
	O408	O	0.805785	0.206127	-0.022599
	H409	H	0.794254	0.220076	-0.008911
	H410	H	0.821323	0.213179	0.001510
	O411	O	0.700433	1.346677	0.317042
	H412	H	0.664114	1.338563	0.301562
	H413	H	0.704477	1.362412	0.329169
	O414	O	0.431855	0.676262	0.617924
	H415	H	0.422802	0.679062	0.608628
	H416	H	0.439903	0.668118	0.608965
	O417	O	0.580415	0.512467	0.537507
	H418	H	0.585925	0.495469	0.545245
	H419	H	0.567087	0.520308	0.526904
	O420	O	0.178649	0.176820	0.183867
	H421	H	0.193411	0.127152	0.196461
	H422	H	0.182547	0.177944	0.133787
	O423	O	-0.004271	1.053615	-0.075030
	H424	H	-0.004987	1.043104	-0.066770
	H425	H	-0.010491	1.058644	-0.077413
	O426	O	0.723466	0.292054	0.486653
	H427	H	0.736623	0.267180	0.491441
	H428	H	0.720438	0.294940	0.470591
	O429	O	0.639234	0.684218	0.585844
	H430	H	0.650172	0.685783	0.567453
	H431	H	0.614435	0.694960	0.599927
	O432	O	0.514697	0.501538	0.295288
	H433	H	0.517974	0.506312	0.304867
	H434	H	0.490301	0.501762	0.287423
	O435	O	0.561500	0.298423	0.637792
	H436	H	0.560747	0.308844	0.644436
	H437	H	0.567682	0.304235	0.641960
	O438	O	0.393888	0.409871	-0.503667
	H439	H	0.386521	0.398880	-0.506450
	H440	H	0.406243	0.412352	-0.487872
	O441	O	1.120307	-0.045358	0.220705
	H442	H	1.132298	-0.038202	0.224909
	H443	H	1.091185	-0.050296	0.226668
	O444	O	0.045407	0.846444	1.069230
	H445	H	0.080834	0.845796	1.050215
	H446	H	0.025165	0.858692	1.062769
	O447	O	0.299278	0.515311	0.304127
	H448	H	0.320972	0.508717	0.309318
	H449	H	0.275500	0.509305	0.287176
	O450	O	0.215997	0.947851	0.798834
	H451	H	0.208913	0.948118	0.776485
	H452	H	0.205760	0.969730	0.779930
	O453	O	0.301271	0.294092	0.523016
	H454	H	0.286850	0.281832	0.510286
	H455	H	0.297699	0.298091	0.551518
