data_Molecule from HDF5

_cell_length_a		16.237428
_cell_length_b		16.299898
_cell_length_c		16.295096
_cell_angle_alpha	90.026033
_cell_angle_beta	90.016699
_cell_angle_gamma	89.955637
_symmetry_space_group_name_H-M	'P 1'
_symmetry_Int_Tables_number		1

loop_
	_symmetry_equiv_pos_as_xyz
	x,y,z

loop_
	_atom_site_label
	_atom_site_type_symbol
	_atom_site_fract_x
	_atom_site_fract_y
	_atom_site_fract_z
	H0	H	0.403058	0.836199	0.713891
	H1	H	0.598904	0.163412	0.715103
	H2	H	0.598852	0.836385	0.285181
	H3	H	0.401760	0.163436	0.286196
	H4	H	0.712999	0.402509	0.836230
	H5	H	0.713326	0.597078	0.163513
	H6	H	0.286236	0.596944	0.836591
	H7	H	0.285146	0.401878	0.163414
	H8	H	0.835567	0.715167	0.402470
	H9	H	0.164551	0.715064	0.598349
	H10	H	0.835827	0.287146	0.597335
	H11	H	0.163690	0.285022	0.400809
	H12	H	0.835941	0.404175	0.712161
	H13	H	0.164460	0.598768	0.714312
	H14	H	0.836415	0.600478	0.284471
	H15	H	0.164196	0.402143	0.285721
	H16	H	0.400618	0.714907	0.837171
	H17	H	0.598278	0.714603	0.163837
	H18	H	0.598717	0.284548	0.836852
	H19	H	0.401213	0.285513	0.163630
	H20	H	0.714354	0.836386	0.402270
	H21	H	0.713284	0.163454	0.597560
	H22	H	0.287095	0.835302	0.597516
	H23	H	0.286793	0.163792	0.402888
	H24	H	0.902447	0.337019	0.214357
	H25	H	0.099346	0.663179	0.215098
	H26	H	0.098062	0.336384	0.785007
	H27	H	0.901486	0.663270	0.784218
	H28	H	0.213984	0.902582	0.335780
	H29	H	0.213730	0.097030	0.664266
	H30	H	0.785581	0.096971	0.335883
	H31	H	0.786377	0.902194	0.663497
	H32	H	0.335609	0.214147	0.901931
	H33	H	0.664413	0.212135	0.098108
	H34	H	0.336152	0.785898	0.099221
	H35	H	0.664006	0.786087	0.902868
	H36	H	0.336007	0.901609	0.214153
	H37	H	0.663590	0.096815	0.213909
	H38	H	0.335887	0.097785	0.785890
	H39	H	0.664086	0.901554	0.787022
	H40	H	0.901840	0.213523	0.335769
	H41	H	0.099143	0.215315	0.663252
	H42	H	0.099672	0.785203	0.336382
	H43	H	0.902786	0.786920	0.664099
	H44	H	0.213289	0.336011	0.902108
	H45	H	0.214713	0.663982	0.097943
	H46	H	0.786875	0.336357	0.097442
	H47	H	0.786477	0.663711	0.902539
	H48	H	0.404288	0.115483	0.590337
	H49	H	0.596454	0.882848	0.592837
	H50	H	0.593237	0.115651	0.407036
	H51	H	0.410573	0.885206	0.408832
	H52	H	0.588003	0.412351	0.113144
	H53	H	0.587165	0.597789	0.884072
	H54	H	0.399511	0.591395	0.118834
	H55	H	0.414665	0.411499	0.887397
	H56	H	0.119574	0.597796	0.401214
	H57	H	0.879896	0.603783	0.595477
	H58	H	0.118389	0.404500	0.593456
	H59	H	0.879975	0.405113	0.398111
	H60	H	0.116953	0.407541	0.590162
	H61	H	0.887020	0.592577	0.583355
	H62	H	0.115389	0.596405	0.415603
	H63	H	0.883410	0.401150	0.412505
	H64	H	0.411237	0.586215	0.112889
	H65	H	0.598654	0.596871	0.880285
	H66	H	0.589993	0.395299	0.118729
	H67	H	0.408818	0.397279	0.881013
	H68	H	0.593392	0.116553	0.406197
	H69	H	0.593683	0.882667	0.597217
	H70	H	0.404720	0.117905	0.597072
	H71	H	0.402154	0.883075	0.409029
	H72	H	0.909967	0.619177	0.104063
	H73	H	0.089279	0.383732	0.096805
	H74	H	0.089662	0.613898	0.911229
	H75	H	0.913334	0.385101	0.906014
	H76	H	0.089731	0.914308	0.613961
	H77	H	0.098430	0.088782	0.383693
	H78	H	0.902892	0.092336	0.616762
	H79	H	0.913511	0.905351	0.384577
	H80	H	0.617469	0.091837	0.904209
	H81	H	0.380535	0.099433	0.093266
	H82	H	0.617116	0.908157	0.094772
	H83	H	0.382023	0.904717	0.908468
	H84	H	0.618517	0.904476	0.096017
	H85	H	0.384492	0.090698	0.088393
	H86	H	0.617527	0.095527	0.908163
	H87	H	0.383912	0.908823	0.908521
	H88	H	0.910060	0.092113	0.614578
	H89	H	0.086493	0.090581	0.386159
	H90	H	0.088983	0.898449	0.617295
	H91	H	0.902240	0.902153	0.381004
	H92	H	0.098755	0.617896	0.907246
	H93	H	0.091402	0.385938	0.088883
	H94	H	0.914349	0.612345	0.085398
	H95	H	0.902340	0.383474	0.910606
	H96	H	0.410240	0.115083	0.593455
	H97	H	0.591528	0.883943	0.593078
	H98	H	0.592239	0.115683	0.406211
	H99	H	0.406756	0.881357	0.401412
	H100	H	0.603985	0.406533	0.119161
	H101	H	0.592728	0.587149	0.885012
	H102	H	0.410972	0.599914	0.117709
	H103	H	0.399245	0.410276	0.882661
	H104	H	0.114081	0.584254	0.406505
	H105	H	0.884188	0.586808	0.600284
	H106	H	0.116920	0.409106	0.594728
	H107	H	0.885449	0.415368	0.408090
	H108	H	0.895404	0.618752	0.089670
	H109	H	0.097425	0.381822	0.094265
	H110	H	0.089924	0.617268	0.901203
	H111	H	0.904862	0.380516	0.899040
	H112	H	0.102925	0.906311	0.618877
	H113	H	0.093669	0.100337	0.381794
	H114	H	0.907108	0.098409	0.617594
	H115	H	0.904235	0.913179	0.384570
	H116	H	0.615630	0.090159	0.908899
	H117	H	0.382386	0.090271	0.099076
	H118	H	0.616230	0.905236	0.091140
	H119	H	0.382396	0.907317	0.905141
	C120	C	0.378256	0.007986	0.621899
	C121	C	0.621755	0.991482	0.621847
	C122	C	0.621360	0.008094	0.378477
	C123	C	0.377959	0.991475	0.378351
	C124	C	0.621964	0.377082	0.008659
	C125	C	0.621284	0.621677	0.991565
	C126	C	0.378533	0.621046	0.008450
	C127	C	0.378474	0.377911	0.991763
	C128	C	0.008030	0.622122	0.378806
	C129	C	0.991951	0.622387	0.621495
	C130	C	0.008447	0.379523	0.620680
	C131	C	0.991783	0.378757	0.378413
	C132	C	0.878455	0.508913	0.121451
	C133	C	0.121708	0.491683	0.121755
	C134	C	0.121272	0.508212	0.878184
	C135	C	0.878451	0.491354	0.877527
	C136	C	0.121801	0.878563	0.508137
	C137	C	0.121316	0.121616	0.492111
	C138	C	0.878052	0.121750	0.507919
	C139	C	0.878761	0.878937	0.491510
	C140	C	0.508394	0.121020	0.878688
	C141	C	0.491126	0.121391	0.121547
	C142	C	0.508540	0.878380	0.121654
	C143	C	0.491457	0.878650	0.879086
	C144	C	0.381818	0.884759	0.676261
	C145	C	0.618864	0.114733	0.676467
	C146	C	0.618853	0.884837	0.323678
	C147	C	0.381006	0.114474	0.323907
	C148	C	0.675567	0.381597	0.885134
	C149	C	0.675973	0.617959	0.114824
	C150	C	0.323581	0.618113	0.885381
	C151	C	0.323130	0.381059	0.114791
	C152	C	0.884615	0.677311	0.381636
	C153	C	0.115671	0.677096	0.618843
	C154	C	0.884822	0.325098	0.617634
	C155	C	0.114949	0.323369	0.380809
	C156	C	0.884940	0.382896	0.674878
	C157	C	0.115490	0.619710	0.676631
	C158	C	0.884852	0.620173	0.323199
	C159	C	0.115240	0.381604	0.323857
	C160	C	0.380547	0.676614	0.885763
	C161	C	0.618750	0.676357	0.114866
	C162	C	0.618990	0.322792	0.885462
	C163	C	0.380963	0.323348	0.114823
	C164	C	0.676208	0.884899	0.381768
	C165	C	0.676023	0.114796	0.618350
	C166	C	0.324496	0.884544	0.618349
	C167	C	0.323661	0.114801	0.381723
	C168	C	0.881882	0.385602	0.176277
	C169	C	0.119853	0.614647	0.177084
	C170	C	0.118533	0.385244	0.823048
	C171	C	0.881316	0.614778	0.822938
	C172	C	0.176357	0.881636	0.384721
	C173	C	0.175933	0.118254	0.615168
	C174	C	0.823484	0.117890	0.384613
	C175	C	0.824251	0.882044	0.614975
	C176	C	0.384783	0.176404	0.881215
	C177	C	0.615131	0.175280	0.118793
	C178	C	0.384802	0.824002	0.119071
	C179	C	0.614953	0.823816	0.882327
	C180	C	0.384826	0.881583	0.176064
	C181	C	0.614918	0.117818	0.176117
	C182	C	0.384661	0.118750	0.823704
	C183	C	0.615123	0.881153	0.824584
	C184	C	0.880914	0.175978	0.384599
	C185	C	0.118981	0.176902	0.614874
	C186	C	0.119715	0.823296	0.385096
	C187	C	0.881731	0.824473	0.615044
	C188	C	0.175724	0.384924	0.881043
	C189	C	0.176811	0.614894	0.118738
	C190	C	0.824510	0.385226	0.118291
	C191	C	0.823747	0.614784	0.881064
	C192	C	0.399979	0.094204	0.600053
	C193	C	0.600316	0.905152	0.600682
	C194	C	0.599240	0.093794	0.400082
	C195	C	0.399923	0.905332	0.399975
	C196	C	0.600370	0.398330	0.094801
	C197	C	0.599454	0.600218	0.905514
	C198	C	0.400652	0.599025	0.094339
	C199	C	0.400771	0.399872	0.905729
	C200	C	0.094174	0.599649	0.401208
	C201	C	0.905869	0.600903	0.599487
	C202	C	0.095181	0.400802	0.599098
	C203	C	0.905082	0.400753	0.399899
	C204	C	0.900035	0.594666	0.099583
	C205	C	0.099398	0.405971	0.099747
	C206	C	0.099240	0.594055	0.900158
	C207	C	0.900319	0.405254	0.898897
	C208	C	0.100270	0.899992	0.594375
	C209	C	0.099271	0.099706	0.405843
	C210	C	0.900134	0.100456	0.594108
	C211	C	0.900366	0.900387	0.405569
	C212	C	0.594582	0.098934	0.900611
	C213	C	0.404903	0.099981	0.100027
	C214	C	0.594939	0.899708	0.100333
	C215	C	0.404989	0.900595	0.900755
	Zn216	Zn	0.500143	-0.000084	0.750275
	Zn217	Zn	0.499793	-0.000369	0.249588
	Zn218	Zn	0.749888	0.499387	-0.000131
	Zn219	Zn	0.249791	0.499930	-0.000147
	Zn220	Zn	0.000145	0.750640	0.500147
	Zn221	Zn	-0.000214	0.250639	0.499728
	Zn222	Zn	0.000597	0.500353	0.748896
	Zn223	Zn	-0.000134	0.500663	0.250470
	Zn224	Zn	0.499710	0.750368	0.000592
	Zn225	Zn	0.500063	0.249058	0.000436
	Zn226	Zn	0.750009	-0.000105	0.500294
	Zn227	Zn	0.249929	-0.000321	0.500051
	N228	N	0.414698	0.962456	0.678443
	N229	N	0.585688	0.037098	0.678566
	N230	N	0.585497	0.962272	0.321502
	N231	N	0.414123	0.036814	0.321544
	N232	N	0.677346	0.414792	0.962675
	N233	N	0.677574	0.584658	0.037274
	N234	N	0.322669	0.584039	0.962470
	N235	N	0.321554	0.414216	0.037193
	N236	N	0.962215	0.678618	0.415208
	N237	N	0.038010	0.678882	0.585336
	N238	N	0.962837	0.322784	0.584702
	N239	N	0.037056	0.321766	0.414097
	N240	N	0.962772	0.415812	0.676652
	N241	N	0.037774	0.586133	0.678103
	N242	N	0.962551	0.586532	0.321501
	N243	N	0.037554	0.415345	0.322341
	N244	N	0.413746	0.678675	0.963415
	N245	N	0.585260	0.678595	0.037384
	N246	N	0.586313	0.320053	0.963126
	N247	N	0.414760	0.321554	0.037416
	N248	N	0.678016	0.962400	0.414994
	N249	N	0.677999	0.037237	0.585374
	N250	N	0.322092	0.962209	0.585408
	N251	N	0.321940	0.037324	0.414989
	N252	N	0.914741	0.463437	0.178348
	N253	N	0.086348	0.537176	0.179076
	N254	N	0.085429	0.462869	0.821079
	N255	N	0.914238	0.536989	0.820306
	N256	N	0.177821	0.915170	0.462217
	N257	N	0.177371	0.084685	0.537766
	N258	N	0.821397	0.085215	0.462455
	N259	N	0.822055	0.914945	0.537299
	N260	N	0.462516	0.177702	0.914823
	N261	N	0.537328	0.177528	0.085633
	N262	N	0.462702	0.821783	0.086139
	N263	N	0.537113	0.822075	0.915387
	N264	N	0.462715	0.914651	0.177831
	N265	N	0.536943	0.084951	0.178062
	N266	N	0.462411	0.085213	0.821860
	N267	N	0.537340	0.914576	0.822479
	N268	N	0.914496	0.178159	0.462120
	N269	N	0.085755	0.178993	0.537142
	N270	N	0.086608	0.821166	0.462795
	N271	N	0.915132	0.822643	0.537630
	N272	N	0.177518	0.462298	0.914638
	N273	N	0.178074	0.537519	0.085096
	N274	N	0.822111	0.462633	0.085163
	N275	N	0.822084	0.537162	0.914390
