data_Molecule from HDF5

_cell_length_a		16.343814
_cell_length_b		16.307241
_cell_length_c		16.178530
_cell_angle_alpha	90.089873
_cell_angle_beta	89.772056
_cell_angle_gamma	90.002232
_symmetry_space_group_name_H-M	'P 1'
_symmetry_Int_Tables_number		1

loop_
	_symmetry_equiv_pos_as_xyz
	x,y,z

loop_
	_atom_site_label
	_atom_site_type_symbol
	_atom_site_fract_x
	_atom_site_fract_y
	_atom_site_fract_z
	H0	H	0.407975	0.825763	0.708325
	H1	H	0.606358	0.151581	0.710804
	H2	H	0.605971	0.825836	0.277991
	H3	H	0.407616	0.151229	0.276540
	H4	H	0.725228	0.387735	0.830544
	H5	H	0.721434	0.589779	0.157516
	H6	H	0.289822	0.590800	0.830934
	H7	H	0.289672	0.387214	0.156608
	H8	H	0.843684	0.705834	0.394906
	H9	H	0.166022	0.710927	0.599792
	H10	H	0.844371	0.273410	0.596859
	H11	H	0.166969	0.270244	0.390456
	H12	H	0.846094	0.387436	0.712958
	H13	H	0.170103	0.590053	0.708756
	H14	H	0.844312	0.588869	0.279542
	H15	H	0.168635	0.389044	0.278173
	H16	H	0.407591	0.703212	0.829188
	H17	H	0.607160	0.706165	0.156362
	H18	H	0.609943	0.273006	0.830066
	H19	H	0.405755	0.272094	0.156861
	H20	H	0.725272	0.828340	0.391069
	H21	H	0.721705	0.153722	0.595392
	H22	H	0.284782	0.828648	0.600242
	H23	H	0.287123	0.151076	0.390032
	H24	H	0.907590	0.326517	0.210314
	H25	H	0.105709	0.652056	0.210358
	H26	H	0.109367	0.327158	0.776629
	H27	H	0.908157	0.651717	0.778096
	H28	H	0.223540	0.886343	0.332365
	H29	H	0.223097	0.092650	0.656986
	H30	H	0.792657	0.089418	0.329927
	H31	H	0.787324	0.889504	0.657587
	H32	H	0.346414	0.208037	0.890735
	H33	H	0.668785	0.207529	0.096631
	H34	H	0.345842	0.772832	0.093192
	H35	H	0.668924	0.771659	0.889558
	H36	H	0.345860	0.887546	0.209717
	H37	H	0.670012	0.088809	0.208238
	H38	H	0.344095	0.088049	0.778615
	H39	H	0.669455	0.888792	0.775666
	H40	H	0.905437	0.206008	0.331184
	H41	H	0.104585	0.205170	0.658122
	H42	H	0.104313	0.774695	0.331485
	H43	H	0.900921	0.772489	0.659185
	H44	H	0.227168	0.327328	0.890330
	H45	H	0.225720	0.650787	0.097760
	H46	H	0.788297	0.327779	0.098497
	H47	H	0.789347	0.650686	0.891868
	H48	H	0.416517	0.105040	0.588448
	H49	H	0.599064	0.874945	0.580926
	H50	H	0.591032	0.102823	0.401039
	H51	H	0.404497	0.871669	0.403324
	H52	H	0.599134	0.396021	0.111317
	H53	H	0.596497	0.583004	0.877429
	H54	H	0.415922	0.581305	0.110992
	H55	H	0.424044	0.403634	0.880763
	H56	H	0.121501	0.582403	0.404106
	H57	H	0.889264	0.587956	0.585775
	H58	H	0.122408	0.403187	0.590376
	H59	H	0.892785	0.399631	0.406362
	H60	H	0.125311	0.388466	0.586960
	H61	H	0.895266	0.575872	0.580651
	H62	H	0.121610	0.580817	0.403822
	H63	H	0.889612	0.399634	0.399726
	H64	H	0.416279	0.580493	0.109750
	H65	H	0.603783	0.581270	0.874673
	H66	H	0.599501	0.399541	0.109954
	H67	H	0.419742	0.391553	0.876177
	H68	H	0.603898	0.104594	0.407863
	H69	H	0.598724	0.874787	0.583913
	H70	H	0.417148	0.101672	0.580584
	H71	H	0.417769	0.872357	0.394292
	H72	H	0.913050	0.604488	0.084187
	H73	H	0.095068	0.373796	0.088555
	H74	H	0.096885	0.603524	0.903837
	H75	H	0.910752	0.371840	0.904893
	H76	H	0.088712	0.901703	0.608703
	H77	H	0.101613	0.073817	0.378477
	H78	H	0.912156	0.091195	0.613956
	H79	H	0.915016	0.892425	0.377563
	H80	H	0.621419	0.075447	0.899929
	H81	H	0.394944	0.073993	0.083154
	H82	H	0.622259	0.898683	0.080484
	H83	H	0.387937	0.893073	0.892060
	H84	H	0.623381	0.898940	0.086970
	H85	H	0.390065	0.082675	0.090925
	H86	H	0.623519	0.083954	0.899211
	H87	H	0.391784	0.888125	0.906582
	H88	H	0.905782	0.077115	0.612320
	H89	H	0.089565	0.079524	0.380634
	H90	H	0.096018	0.894811	0.613364
	H91	H	0.911642	0.900814	0.378103
	H92	H	0.101096	0.603793	0.906048
	H93	H	0.099529	0.376135	0.079593
	H94	H	0.912393	0.606039	0.087970
	H95	H	0.918464	0.374547	0.899198
	H96	H	0.409997	0.105519	0.583512
	H97	H	0.595822	0.874940	0.583073
	H98	H	0.602805	0.109021	0.393729
	H99	H	0.417668	0.877682	0.410062
	H100	H	0.595918	0.397300	0.109382
	H101	H	0.599696	0.576304	0.878328
	H102	H	0.416682	0.581079	0.109393
	H103	H	0.411930	0.401667	0.877774
	H104	H	0.121826	0.582442	0.402008
	H105	H	0.890404	0.576766	0.594833
	H106	H	0.119529	0.397775	0.575335
	H107	H	0.890344	0.393414	0.403574
	H108	H	0.915853	0.604423	0.086798
	H109	H	0.105022	0.370708	0.086927
	H110	H	0.101393	0.605277	0.901041
	H111	H	0.918744	0.376241	0.909314
	H112	H	0.098812	0.905386	0.611284
	H113	H	0.099884	0.086538	0.375232
	H114	H	0.920142	0.079330	0.608499
	H115	H	0.919359	0.899457	0.380653
	H116	H	0.621072	0.080943	0.906963
	H117	H	0.392807	0.085213	0.079169
	H118	H	0.624747	0.893749	0.083375
	H119	H	0.394149	0.903029	0.903502
	C120	C	0.384109	-0.002613	0.615557
	C121	C	0.627760	0.981955	0.614333
	C122	C	0.628851	-0.001852	0.371257
	C123	C	0.384259	0.981007	0.372053
	C124	C	0.629067	0.367545	0.002485
	C125	C	0.628872	0.610072	0.984684
	C126	C	0.386455	0.610397	0.002038
	C127	C	0.387260	0.368214	0.985781
	C128	C	0.014616	0.611102	0.373946
	C129	C	0.998278	0.611057	0.616936
	C130	C	0.015505	0.367295	0.615839
	C131	C	0.997444	0.367151	0.372480
	C132	C	0.884845	0.497845	0.116335
	C133	C	0.128974	0.480637	0.115877
	C134	C	0.129962	0.497333	0.872737
	C135	C	0.886113	0.480945	0.873530
	C136	C	0.125502	0.869125	0.503693
	C137	C	0.127132	0.110800	0.485702
	C138	C	0.884307	0.111529	0.503198
	C139	C	0.884148	0.868288	0.486867
	C140	C	0.515266	0.110269	0.872026
	C141	C	0.499322	0.110576	0.114515
	C142	C	0.516411	0.867130	0.114049
	C143	C	0.498747	0.865967	0.869994
	C144	C	0.386580	0.875036	0.671564
	C145	C	0.626536	0.103615	0.672078
	C146	C	0.626604	0.875035	0.315570
	C147	C	0.386743	0.103043	0.315205
	C148	C	0.686546	0.368263	0.879547
	C149	C	0.683855	0.609667	0.108403
	C150	C	0.328910	0.609922	0.879467
	C151	C	0.328591	0.367791	0.107830
	C152	C	0.892306	0.667165	0.375327
	C153	C	0.118779	0.670304	0.617811
	C154	C	0.893270	0.311656	0.615717
	C155	C	0.118875	0.309528	0.371879
	C156	C	0.894174	0.368339	0.673844
	C157	C	0.120686	0.610027	0.672081
	C158	C	0.892705	0.609283	0.317781
	C159	C	0.119660	0.368811	0.315980
	C160	C	0.387904	0.665583	0.878558
	C161	C	0.627378	0.667670	0.107580
	C162	C	0.628860	0.311179	0.879189
	C163	C	0.386422	0.310447	0.107943
	C164	C	0.685884	0.876163	0.371878
	C165	C	0.683940	0.104414	0.614576
	C166	C	0.325427	0.876395	0.617474
	C167	C	0.326748	0.102760	0.371554
	C168	C	0.886764	0.375332	0.172662
	C169	C	0.126404	0.603317	0.172149
	C170	C	0.129344	0.375576	0.815156
	C171	C	0.887945	0.603051	0.816893
	C172	C	0.184153	0.867833	0.381202
	C173	C	0.183874	0.111206	0.608526
	C174	C	0.829787	0.109616	0.379421
	C175	C	0.826080	0.869526	0.609229
	C176	C	0.394158	0.168124	0.872053
	C177	C	0.620642	0.168305	0.115148
	C178	C	0.394477	0.810830	0.113111
	C179	C	0.620525	0.809918	0.869892
	C180	C	0.394306	0.868072	0.170878
	C181	C	0.621141	0.109261	0.170938
	C182	C	0.392979	0.108610	0.816154
	C183	C	0.620814	0.868586	0.813575
	C184	C	0.885722	0.167740	0.379985
	C185	C	0.125285	0.167473	0.608867
	C186	C	0.125062	0.811826	0.380952
	C187	C	0.882570	0.811193	0.609695
	C188	C	0.188016	0.375697	0.871598
	C189	C	0.186235	0.602677	0.116188
	C190	C	0.827754	0.376000	0.116789
	C191	C	0.828572	0.602606	0.873361
	C192	C	0.407705	0.082069	0.591256
	C193	C	0.604528	0.896847	0.589714
	C194	C	0.606106	0.083251	0.394151
	C195	C	0.406855	0.896150	0.395472
	C196	C	0.605189	0.390736	0.088138
	C197	C	0.606696	0.586954	0.899080
	C198	C	0.409496	0.587660	0.087730
	C199	C	0.411509	0.392071	0.900302
	C200	C	0.099654	0.588441	0.396842
	C201	C	0.913601	0.587249	0.593721
	C202	C	0.100538	0.389995	0.591490
	C203	C	0.912728	0.390777	0.396228
	C204	C	0.907149	0.582937	0.093004
	C205	C	0.106296	0.395542	0.091941
	C206	C	0.106650	0.582247	0.896866
	C207	C	0.909271	0.396265	0.897477
	C208	C	0.101551	0.893490	0.589130
	C209	C	0.103907	0.087011	0.400316
	C210	C	0.906355	0.089144	0.589247
	C211	C	0.908424	0.891149	0.401102
	C212	C	0.600017	0.086971	0.895205
	C213	C	0.414570	0.087435	0.091093
	C214	C	0.601458	0.890288	0.090599
	C215	C	0.413444	0.888181	0.893721
	Zn216	Zn	0.507003	-0.010799	0.743084
	Zn217	Zn	0.506994	-0.011398	0.242732
	Zn218	Zn	0.756599	0.488955	-0.005263
	Zn219	Zn	0.258372	0.489211	-0.006004
	Zn220	Zn	0.005083	0.739872	0.496163
	Zn221	Zn	0.005313	0.239025	0.494395
	Zn222	Zn	0.008365	0.488938	0.744412
	Zn223	Zn	0.006569	0.489513	0.244293
	Zn224	Zn	0.507710	0.738333	-0.007132
	Zn225	Zn	0.507869	0.239676	-0.006504
	Zn226	Zn	0.757075	-0.009273	0.494100
	Zn227	Zn	0.254784	-0.010316	0.494617
	N228	N	0.422113	0.951461	0.670837
	N229	N	0.592160	0.026651	0.671643
	N230	N	0.592028	0.951912	0.314886
	N231	N	0.421692	0.026392	0.315297
	N232	N	0.686861	0.402486	0.957342
	N233	N	0.684983	0.574623	0.031101
	N234	N	0.327889	0.576243	0.957264
	N235	N	0.329036	0.402955	0.030743
	N236	N	0.969182	0.668605	0.409431
	N237	N	0.041732	0.671081	0.584191
	N238	N	0.969833	0.310733	0.580438
	N239	N	0.041854	0.308317	0.406113
	N240	N	0.971358	0.402222	0.674058
	N241	N	0.044646	0.573944	0.671719
	N242	N	0.969684	0.574931	0.316904
	N243	N	0.043112	0.403884	0.316173
	N244	N	0.422836	0.666300	0.955768
	N245	N	0.593874	0.668242	0.029781
	N246	N	0.593890	0.310464	0.956658
	N247	N	0.422305	0.310930	0.031048
	N248	N	0.687540	0.953510	0.405696
	N249	N	0.684938	0.027436	0.579505
	N250	N	0.323770	0.953549	0.583280
	N251	N	0.325115	0.025947	0.406328
	N252	N	0.921564	0.452188	0.172650
	N253	N	0.091861	0.526356	0.172223
	N254	N	0.094198	0.452000	0.815612
	N255	N	0.922919	0.526538	0.816858
	N256	N	0.184666	0.902671	0.458765
	N257	N	0.185179	0.076886	0.530875
	N258	N	0.828808	0.075295	0.456971
	N259	N	0.826832	0.904247	0.531832
	N260	N	0.471154	0.169503	0.905894
	N261	N	0.543879	0.169224	0.080947
	N262	N	0.471420	0.810181	0.078462
	N263	N	0.543633	0.808115	0.904319
	N264	N	0.471031	0.902538	0.171337
	N265	N	0.544688	0.073950	0.170866
	N266	N	0.469386	0.073244	0.816081
	N267	N	0.543917	0.902713	0.813588
	N268	N	0.918952	0.168944	0.457965
	N269	N	0.090686	0.167477	0.531459
	N270	N	0.089747	0.812306	0.458130
	N271	N	0.917829	0.810181	0.532380
	N272	N	0.188625	0.452641	0.906557
	N273	N	0.187792	0.525495	0.081866
	N274	N	0.826133	0.453135	0.082761
	N275	N	0.827397	0.525625	0.908042
	O276	O	0.042730	0.044590	0.079921
	H277	H	0.040496	0.045000	0.086713
	H278	H	0.036057	0.028073	0.078436
	O279	O	0.560738	0.637314	0.536146
	H280	H	0.575712	0.642944	0.556683
	H281	H	0.555242	0.640880	0.525450
	O282	O	1.066283	0.014094	-0.088158
	H283	H	1.072845	0.011553	-0.085721
	H284	H	1.063892	0.024472	-0.099527
	O285	O	0.041238	1.090948	-0.075229
	H286	H	0.022085	1.105200	-0.074721
	H287	H	0.035601	1.083560	-0.088118
	O288	O	-0.090854	0.025608	1.002956
	H289	H	-0.083806	0.020942	0.999490
	H290	H	-0.082200	0.021981	0.997018
	O291	O	0.404672	0.550494	0.404158
	H292	H	0.412398	0.564197	0.411155
	H293	H	0.399996	0.537780	0.403875
	O294	O	1.117713	1.127385	0.984544
	H295	H	1.114364	1.124333	0.979440
	H296	H	1.124068	1.131568	0.986774
	O297	O	-0.136980	0.056843	-0.092304
	H298	H	-0.140212	0.062815	-0.090479
	H299	H	-0.138187	0.059732	-0.086157
	O300	O	0.518589	0.453256	0.569872
	H301	H	0.532412	0.446859	0.574340
	H302	H	0.515266	0.444468	0.570877
	O303	O	-0.092164	0.826976	1.043238
	H304	H	-0.070243	0.820647	1.049846
	H305	H	-0.103088	0.817030	1.034246
	O306	O	1.086260	0.957254	0.145472
	H307	H	1.084305	0.978402	0.133709
	H308	H	1.095846	0.960186	0.149878
	O309	O	0.905900	-0.054404	-0.072540
	H310	H	0.898156	-0.062078	-0.060625
	H311	H	0.924462	-0.054617	-0.064090
	O312	O	0.162819	-0.009463	1.051104
	H313	H	0.161477	-0.013936	1.052051
	H314	H	0.151614	-0.001345	1.060363
	O315	O	0.360249	0.580910	0.348446
	H316	H	0.366505	0.579250	0.358782
	H317	H	0.355320	0.579603	0.346849
	O318	O	0.413817	0.409068	0.529938
	H319	H	0.413298	0.425450	0.539854
	H320	H	0.389610	0.393898	0.530064
	O321	O	0.457742	0.484665	0.356493
	H322	H	0.455096	0.476564	0.354176
	H323	H	0.467954	0.480854	0.346025
	O324	O	0.466554	0.393987	0.557057
	H325	H	0.462941	0.390504	0.534595
	H326	H	0.467190	0.410274	0.556681
	O327	O	0.015361	0.871815	1.013200
	H328	H	0.015213	0.866968	1.015021
	H329	H	0.025188	0.893716	1.011552
	O330	O	0.526523	0.532194	0.387284
	H331	H	0.537710	0.539094	0.392744
	H332	H	0.513653	0.541873	0.396223
	O333	O	-0.306471	0.696065	0.653193
	H334	H	-0.292585	0.696818	0.659836
	H335	H	-0.312219	0.702311	0.662719
	O336	O	0.939390	1.063516	1.032937
	H337	H	0.934490	1.068383	1.025353
	H338	H	0.955944	1.071352	1.030404
	O339	O	0.471460	0.575832	0.448039
	H340	H	0.472161	0.556912	0.437405
	H341	H	0.472800	0.592107	0.445937
	O342	O	0.888743	0.031740	-0.050595
	H343	H	0.893810	0.021102	-0.053892
	H344	H	0.883425	0.039309	-0.050319
	O345	O	0.338543	0.548656	0.528126
	H346	H	0.347818	0.558337	0.535107
	H347	H	0.329586	0.568011	0.524398
	O348	O	1.019924	1.122840	1.054330
	H349	H	1.023116	1.121027	1.050959
	H350	H	1.024235	1.111837	1.066004
	O351	O	0.679475	1.359060	-0.557014
	H352	H	0.676526	1.349567	-0.569629
	H353	H	0.680321	1.361775	-0.578881
	O354	O	0.453678	0.593891	0.581463
	H355	H	0.461023	0.591660	0.578457
	H356	H	0.460520	0.584065	0.590904
	O357	O	-0.115588	0.866783	1.132296
	H358	H	-0.116395	0.869084	1.137487
	H359	H	-0.127105	0.868485	1.145240
	O360	O	0.496240	0.433137	0.631380
	H361	H	0.494183	0.432460	0.629089
	H362	H	0.492500	0.428871	0.648922
	O363	O	0.624662	0.419440	0.434304
	H364	H	0.627756	0.428215	0.427555
	H365	H	0.625806	0.412148	0.428594
	O366	O	0.557268	0.533164	0.538039
	H367	H	0.560440	0.514124	0.531196
	H368	H	0.554851	0.538287	0.551717
	O369	O	0.445920	0.420924	0.493841
	H370	H	0.454337	0.427484	0.486654
	H371	H	0.434011	0.409799	0.493939
	O372	O	0.569567	0.432816	0.605854
	H373	H	0.580932	0.432023	0.595300
	H374	H	0.559477	0.435210	0.619235
	O375	O	0.427124	0.571531	0.615536
	H376	H	0.415485	0.567026	0.603387
	H377	H	0.414154	0.569757	0.619043
	O378	O	0.139983	0.936410	0.974933
	H379	H	0.143476	0.949283	0.979168
	H380	H	0.141280	0.926487	0.954934
	O381	O	0.514261	0.444934	0.426934
	H382	H	0.518666	0.445604	0.416077
	H383	H	0.525720	0.436730	0.425949
	O384	O	0.120932	1.020968	-0.079549
	H385	H	0.133012	1.023588	-0.093047
	H386	H	0.111085	1.028563	-0.086665
	O387	O	1.076840	-0.007398	1.069288
	H388	H	1.072552	-0.011939	1.076434
	H389	H	1.087951	-0.013432	1.066916
	O390	O	-0.060692	1.033892	-0.173517
	H391	H	-0.073408	1.024220	-0.165354
	H392	H	-0.067818	1.036544	-0.186901
	O393	O	1.169434	0.854855	-0.066256
	H394	H	1.168087	0.861706	-0.058822
	H395	H	1.185029	0.861142	-0.055015
	O396	O	0.615915	0.460341	0.525564
	H397	H	0.602848	0.458050	0.529159
	H398	H	0.637240	0.465082	0.529255
	O399	O	-0.122049	0.918678	1.146537
	H400	H	-0.134427	0.917551	1.162991
	H401	H	-0.113196	0.913795	1.134825
	O402	O	0.969237	0.987177	0.905692
	H403	H	0.979864	0.987334	0.900246
	H404	H	0.963276	0.977243	0.899424
	O405	O	0.483890	0.378632	0.450759
	H406	H	0.486767	0.391430	0.460011
	H407	H	0.490954	0.388975	0.451031
