data_Molecule from HDF5

_cell_length_a		16.032659
_cell_length_b		16.173993
_cell_length_c		16.436316
_cell_angle_alpha	90.004596
_cell_angle_beta	89.905766
_cell_angle_gamma	89.310191
_symmetry_space_group_name_H-M	'P 1'
_symmetry_Int_Tables_number		1

loop_
	_symmetry_equiv_pos_as_xyz
	x,y,z

loop_
	_atom_site_label
	_atom_site_type_symbol
	_atom_site_fract_x
	_atom_site_fract_y
	_atom_site_fract_z
	H0	H	0.400455	0.840180	0.714205
	H1	H	0.605303	0.165061	0.715632
	H2	H	0.606666	0.838442	0.281925
	H3	H	0.396441	0.165135	0.277633
	H4	H	0.721175	0.402123	0.834361
	H5	H	0.717220	0.598855	0.159565
	H6	H	0.287755	0.601820	0.833831
	H7	H	0.289381	0.405082	0.158651
	H8	H	0.837958	0.718239	0.401809
	H9	H	0.170418	0.712497	0.594332
	H10	H	0.836268	0.297115	0.591915
	H11	H	0.169582	0.288408	0.400101
	H12	H	0.839405	0.404245	0.713675
	H13	H	0.167869	0.605064	0.714312
	H14	H	0.839208	0.607425	0.282282
	H15	H	0.168647	0.397450	0.280116
	H16	H	0.400378	0.720862	0.834441
	H17	H	0.602497	0.717185	0.158904
	H18	H	0.607291	0.283700	0.835004
	H19	H	0.404874	0.285980	0.158409
	H20	H	0.719668	0.839375	0.400050
	H21	H	0.707439	0.170459	0.590182
	H22	H	0.293304	0.838017	0.593137
	H23	H	0.289672	0.168599	0.401445
	H24	H	0.902625	0.340783	0.216203
	H25	H	0.106864	0.666619	0.214415
	H26	H	0.108918	0.340853	0.779821
	H27	H	0.897882	0.665958	0.781122
	H28	H	0.220251	0.904490	0.335440
	H29	H	0.215925	0.100911	0.659936
	H30	H	0.787155	0.104055	0.333582
	H31	H	0.789904	0.910017	0.660958
	H32	H	0.339379	0.218019	0.897312
	H33	H	0.671419	0.210494	0.093019
	H34	H	0.335513	0.793256	0.091834
	H35	H	0.669456	0.787679	0.899786
	H36	H	0.338360	0.900365	0.213005
	H37	H	0.668287	0.100197	0.212289
	H38	H	0.338750	0.105230	0.781690
	H39	H	0.666901	0.895006	0.777665
	H40	H	0.901941	0.222690	0.334266
	H41	H	0.101201	0.218695	0.659542
	H42	H	0.107561	0.784191	0.336507
	H43	H	0.903587	0.788753	0.660458
	H44	H	0.217593	0.338105	0.900691
	H45	H	0.214569	0.668837	0.093100
	H46	H	0.796072	0.336317	0.093331
	H47	H	0.788771	0.666617	0.901313
	H48	H	0.407373	0.119048	0.581339
	H49	H	0.589076	0.889474	0.582007
	H50	H	0.584724	0.120971	0.395228
	H51	H	0.408217	0.885290	0.409080
	H52	H	0.607535	0.407114	0.115160
	H53	H	0.600764	0.595708	0.880365
	H54	H	0.415762	0.597590	0.110442
	H55	H	0.413972	0.416535	0.883923
	H56	H	0.125016	0.593684	0.397705
	H57	H	0.887675	0.587392	0.590191
	H58	H	0.121451	0.418162	0.594897
	H59	H	0.882394	0.405576	0.405671
	H60	H	0.126471	0.403375	0.593134
	H61	H	0.881359	0.599667	0.599597
	H62	H	0.122712	0.597815	0.409759
	H63	H	0.889880	0.420610	0.411638
	H64	H	0.406332	0.601224	0.114266
	H65	H	0.593976	0.589438	0.882452
	H66	H	0.594108	0.411970	0.109237
	H67	H	0.417966	0.402655	0.881094
	H68	H	0.589695	0.116932	0.409062
	H69	H	0.606018	0.883654	0.586881
	H70	H	0.402912	0.124382	0.598124
	H71	H	0.412264	0.883236	0.396435
	H72	H	0.909000	0.621380	0.093581
	H73	H	0.092889	0.389961	0.078636
	H74	H	0.101449	0.625201	0.898903
	H75	H	0.905584	0.381633	0.904703
	H76	H	0.076881	0.911680	0.607011
	H77	H	0.088778	0.085549	0.386719
	H78	H	0.902906	0.100941	0.612882
	H79	H	0.919247	0.919446	0.387456
	H80	H	0.625351	0.098263	0.902538
	H81	H	0.386770	0.087532	0.091257
	H82	H	0.623878	0.906129	0.094586
	H83	H	0.384335	0.914822	0.897426
	H84	H	0.620603	0.905671	0.084012
	H85	H	0.382886	0.098514	0.092426
	H86	H	0.618481	0.086654	0.909585
	H87	H	0.382272	0.906569	0.904592
	H88	H	0.908029	0.100478	0.611339
	H89	H	0.087915	0.105862	0.382347
	H90	H	0.104277	0.886481	0.621307
	H91	H	0.917724	0.901585	0.381330
	H92	H	0.085614	0.620314	0.898279
	H93	H	0.107138	0.382104	0.094469
	H94	H	0.914226	0.619624	0.091554
	H95	H	0.917489	0.382549	0.893497
	H96	H	0.420202	0.118662	0.593335
	H97	H	0.592294	0.882707	0.598827
	H98	H	0.600078	0.124112	0.399757
	H99	H	0.420478	0.887576	0.404967
	H100	H	0.595189	0.397613	0.113979
	H101	H	0.592134	0.598865	0.881775
	H102	H	0.406818	0.591748	0.110260
	H103	H	0.404042	0.406994	0.877622
	H104	H	0.119517	0.584962	0.406518
	H105	H	0.885138	0.602778	0.583692
	H106	H	0.120556	0.411549	0.581560
	H107	H	0.884891	0.419956	0.395404
	H108	H	0.909803	0.620141	0.088228
	H109	H	0.085897	0.386561	0.099345
	H110	H	0.093626	0.619155	0.913034
	H111	H	0.920804	0.388484	0.908682
	H112	H	0.113423	0.923461	0.613085
	H113	H	0.106178	0.095477	0.378648
	H114	H	0.906500	0.104761	0.613759
	H115	H	0.902190	0.912653	0.380533
	H116	H	0.623364	0.085494	0.896764
	H117	H	0.387038	0.095209	0.081193
	H118	H	0.619660	0.914622	0.090289
	H119	H	0.387111	0.915912	0.907896
	C120	C	0.382134	0.011989	0.619039
	C121	C	0.623393	0.994333	0.617870
	C122	C	0.623624	0.011897	0.373956
	C123	C	0.381693	0.993944	0.374569
	C124	C	0.628600	0.377150	0.005389
	C125	C	0.624531	0.623272	0.988572
	C126	C	0.380058	0.625818	0.004407
	C127	C	0.382994	0.380371	0.988086
	C128	C	0.012885	0.624010	0.376710
	C129	C	0.994461	0.624443	0.619486
	C130	C	0.012925	0.383562	0.618383
	C131	C	0.994885	0.383188	0.375319
	C132	C	0.882807	0.511791	0.119596
	C133	C	0.125226	0.494690	0.118936
	C134	C	0.124665	0.512568	0.875170
	C135	C	0.882997	0.493165	0.875221
	C136	C	0.127610	0.879138	0.506440
	C137	C	0.123570	0.124476	0.489352
	C138	C	0.877993	0.129690	0.505098
	C139	C	0.882842	0.883159	0.490111
	C140	C	0.513262	0.121932	0.874546
	C141	C	0.495301	0.122138	0.117339
	C142	C	0.511548	0.880566	0.117955
	C143	C	0.493964	0.880922	0.874396
	C144	C	0.382631	0.888565	0.674899
	C145	C	0.622848	0.116926	0.675432
	C146	C	0.625220	0.887833	0.319827
	C147	C	0.379230	0.116823	0.317657
	C148	C	0.683865	0.381094	0.883028
	C149	C	0.679337	0.619582	0.111061
	C150	C	0.324990	0.622736	0.882347
	C151	C	0.327548	0.384150	0.110327
	C152	C	0.887805	0.680835	0.380296
	C153	C	0.120044	0.677099	0.615796
	C154	C	0.886823	0.331719	0.614099
	C155	C	0.119911	0.326057	0.378669
	C156	C	0.888367	0.385343	0.674403
	C157	C	0.118805	0.623557	0.675626
	C158	C	0.888548	0.625645	0.321000
	C159	C	0.119236	0.380197	0.318993
	C160	C	0.381056	0.681983	0.882777
	C161	C	0.622447	0.678804	0.110564
	C162	C	0.627335	0.321779	0.883539
	C163	C	0.384838	0.324639	0.109934
	C164	C	0.681413	0.888205	0.378350
	C165	C	0.673701	0.119901	0.612966
	C166	C	0.329142	0.887386	0.614936
	C167	C	0.325663	0.118498	0.378838
	C168	C	0.884582	0.388857	0.176365
	C169	C	0.125181	0.617835	0.175228
	C170	C	0.126505	0.389478	0.818807
	C171	C	0.880441	0.616918	0.819777
	C172	C	0.183241	0.882717	0.384255
	C173	C	0.178733	0.121816	0.611321
	C174	C	0.823995	0.125581	0.382517
	C175	C	0.827203	0.887760	0.612275
	C176	C	0.388592	0.179552	0.877185
	C177	C	0.621032	0.174500	0.114261
	C178	C	0.386188	0.827848	0.114023
	C179	C	0.619050	0.824309	0.877806
	C180	C	0.387385	0.881569	0.173943
	C181	C	0.619283	0.120102	0.173870
	C182	C	0.388272	0.123282	0.819761
	C183	C	0.617988	0.878290	0.817596
	C184	C	0.881124	0.184643	0.382812
	C185	C	0.121335	0.180288	0.611178
	C186	C	0.126725	0.823177	0.384804
	C187	C	0.883933	0.827726	0.612086
	C188	C	0.180312	0.387931	0.879077
	C189	C	0.178848	0.618938	0.114762
	C190	C	0.831072	0.386601	0.115243
	C191	C	0.825990	0.617280	0.879513
	C192	C	0.403813	0.098149	0.597362
	C193	C	0.602071	0.907804	0.595952
	C194	C	0.598791	0.098320	0.395014
	C195	C	0.406199	0.907672	0.396950
	C196	C	0.605627	0.398958	0.090809
	C197	C	0.602141	0.601196	0.903513
	C198	C	0.402906	0.603411	0.089509
	C199	C	0.405421	0.402253	0.902883
	C200	C	0.099940	0.599471	0.398205
	C201	C	0.907133	0.602822	0.597683
	C202	C	0.100268	0.404511	0.596391
	C203	C	0.908132	0.407899	0.397437
	C204	C	0.904467	0.598084	0.097525
	C205	C	0.102173	0.408451	0.097257
	C206	C	0.100583	0.599065	0.897131
	C207	C	0.907431	0.406695	0.896210
	C208	C	0.104937	0.900811	0.591727
	C209	C	0.100966	0.102162	0.404571
	C210	C	0.899496	0.108496	0.590490
	C211	C	0.906013	0.904885	0.405173
	C212	C	0.599955	0.097219	0.896385
	C213	C	0.408132	0.100372	0.094850
	C214	C	0.598708	0.902458	0.096065
	C215	C	0.407133	0.905378	0.896651
	Zn216	Zn	0.502799	0.002062	0.746699
	Zn217	Zn	0.502414	0.001622	0.245628
	Zn218	Zn	0.755555	0.501356	-0.002865
	Zn219	Zn	0.252094	0.503301	-0.003558
	Zn220	Zn	0.004281	0.750791	0.498776
	Zn221	Zn	0.002837	0.256573	0.497201
	Zn222	Zn	0.004065	0.504099	0.747084
	Zn223	Zn	0.004719	0.504242	0.247780
	Zn224	Zn	0.502465	0.753881	-0.003560
	Zn225	Zn	0.505175	0.249033	-0.003802
	Zn226	Zn	0.750573	0.004982	0.496775
	Zn227	Zn	0.254758	0.003364	0.498085
	N228	N	0.414659	0.966956	0.677707
	N229	N	0.591960	0.037929	0.678460
	N230	N	0.590076	0.965835	0.316935
	N231	N	0.413328	0.038447	0.315047
	N232	N	0.684835	0.414894	0.959941
	N233	N	0.680924	0.585780	0.034206
	N234	N	0.324223	0.588538	0.958985
	N235	N	0.326078	0.418057	0.033554
	N236	N	0.966245	0.680011	0.414096
	N237	N	0.041735	0.677695	0.581633
	N238	N	0.965203	0.330480	0.579931
	N239	N	0.041558	0.327899	0.413085
	N240	N	0.967589	0.417083	0.676996
	N241	N	0.039657	0.591549	0.677871
	N242	N	0.967476	0.591067	0.318724
	N243	N	0.040502	0.415212	0.316850
	N244	N	0.414846	0.683897	0.959641
	N245	N	0.589077	0.681074	0.033517
	N246	N	0.593951	0.319218	0.960638
	N247	N	0.418556	0.322205	0.032870
	N248	N	0.680627	0.966421	0.411067
	N249	N	0.674462	0.042680	0.577796
	N250	N	0.328595	0.965090	0.580623
	N251	N	0.326916	0.040956	0.413394
	N252	N	0.915949	0.467731	0.179211
	N253	N	0.092565	0.539620	0.177949
	N254	N	0.092604	0.467919	0.816422
	N255	N	0.914974	0.538725	0.816890
	N256	N	0.184023	0.916678	0.460859
	N257	N	0.180302	0.087785	0.534512
	N258	N	0.821810	0.092269	0.459411
	N259	N	0.826353	0.921617	0.535404
	N260	N	0.467211	0.178821	0.910827
	N261	N	0.542904	0.175744	0.079780
	N262	N	0.464701	0.826957	0.079905
	N263	N	0.540949	0.825935	0.912818
	N264	N	0.466351	0.913742	0.176477
	N265	N	0.539975	0.088191	0.175808
	N266	N	0.466656	0.088069	0.818118
	N267	N	0.539179	0.912578	0.815288
	N268	N	0.913671	0.187651	0.460165
	N269	N	0.087667	0.181982	0.534427
	N270	N	0.093046	0.820655	0.461878
	N271	N	0.917935	0.824758	0.535153
	N272	N	0.179381	0.465554	0.913527
	N273	N	0.179083	0.541178	0.080416
	N274	N	0.829894	0.464003	0.080583
	N275	N	0.827409	0.539456	0.913274
	O276	O	0.491790	0.502126	0.498365
	H277	H	0.496181	0.495645	0.505122
	H278	H	0.501046	0.495585	0.512614
	O279	O	0.413587	0.502778	0.569444
	H280	H	0.414648	0.513409	0.566069
	H281	H	0.405285	0.504948	0.559494
	O282	O	1.026875	1.041646	-0.009926
	H283	H	1.026101	1.045029	-0.012736
	H284	H	1.030526	1.043395	-0.016968
	O285	O	0.974143	-0.011900	1.040097
	H286	H	0.970755	-0.005313	1.042409
	H287	H	0.978019	-0.007246	1.049769
	O288	O	0.603319	0.432817	0.440050
	H289	H	0.603758	0.432233	0.425730
	H290	H	0.613485	0.421948	0.440888
	O291	O	0.543904	0.476388	0.387815
	H292	H	0.553072	0.469112	0.382296
	H293	H	0.544269	0.480493	0.392276
	O294	O	0.487882	0.578835	0.486539
	H295	H	0.477253	0.583220	0.467722
	H296	H	0.485603	0.579148	0.488571
	O297	O	-0.056673	-0.126349	1.040181
	H298	H	-0.053706	-0.132388	1.055814
	H299	H	-0.063227	-0.136338	1.041327
	O300	O	0.482420	0.433956	0.600153
	H301	H	0.480205	0.428941	0.602414
	H302	H	0.468278	0.429806	0.593312
	O303	O	0.461874	0.604567	0.377081
	H304	H	0.455168	0.580271	0.369230
	H305	H	0.459321	0.613482	0.378899
	O306	O	-0.022068	1.014252	1.094748
	H307	H	-0.016807	1.022101	1.096528
	H308	H	-0.024474	1.004717	1.098916
	O309	O	0.576888	0.637128	0.633851
	H310	H	0.589482	0.646828	0.638842
	H311	H	0.574043	0.628064	0.624516
	O312	O	-0.044407	-0.001832	0.075298
	H313	H	-0.043138	0.005082	0.062630
	H314	H	-0.036004	-0.001483	0.076237
	O315	O	1.079903	-0.068416	0.036693
	H316	H	1.087134	-0.074248	0.046931
	H317	H	1.068489	-0.070742	0.022730
	O318	O	1.086981	1.026285	1.032051
	H319	H	1.088147	1.009567	1.021429
	H320	H	1.092879	1.031290	1.031145
	O321	O	-0.101986	0.053728	0.818265
	H322	H	-0.098353	0.039671	0.820035
	H323	H	-0.111405	0.053633	0.820150
	O324	O	0.627861	0.489415	0.575897
	H325	H	0.628707	0.482358	0.579949
	H326	H	0.627973	0.478180	0.579925
	O327	O	-0.035145	-0.057717	-0.034090
	H328	H	-0.044080	-0.055578	-0.029522
	H329	H	-0.036570	-0.056309	-0.028901
	O330	O	0.483671	0.541530	0.396798
	H331	H	0.475977	0.543509	0.407001
	H332	H	0.475171	0.527163	0.392750
	O333	O	-0.087525	0.996473	1.022216
	H334	H	-0.098264	0.990176	1.026641
	H335	H	-0.096542	1.001247	1.022389
	O336	O	0.071579	0.077981	0.023192
	H337	H	0.076003	0.084681	0.029448
	H338	H	0.077334	0.082335	0.033385
	O339	O	0.470234	0.548907	0.503652
	H340	H	0.470586	0.548082	0.512443
	H341	H	0.468934	0.550542	0.517232
	O342	O	1.118924	1.012488	1.011205
	H343	H	1.117528	1.007342	1.025630
	H344	H	1.117198	1.001564	1.009478
	O345	O	1.049309	1.041925	0.014580
	H346	H	1.038707	1.017957	0.013098
	H347	H	1.038773	1.055426	0.013403
	O348	O	0.594304	0.485603	0.433117
	H349	H	0.600033	0.481598	0.435460
	H350	H	0.594564	0.487616	0.437737
	O351	O	0.513598	0.484953	0.505485
	H352	H	0.506646	0.498078	0.501183
	H353	H	0.514515	0.501957	0.512512
	O354	O	0.529696	0.501179	0.654426
	H355	H	0.535994	0.503078	0.653480
	H356	H	0.531811	0.489746	0.665132
	O357	O	0.918532	0.079303	0.944541
	H358	H	0.899058	0.097690	0.942000
	H359	H	0.919711	0.063118	0.934737
	O360	O	0.529061	0.518368	0.398391
	H361	H	0.531584	0.524642	0.394262
	H362	H	0.522744	0.528280	0.408370
	O363	O	0.462555	0.442160	0.466664
	H364	H	0.481136	0.433343	0.473560
	H365	H	0.463972	0.434200	0.459245
	O366	O	1.047692	1.026929	0.935465
	H367	H	1.048825	1.022160	0.935913
	H368	H	1.056485	1.022901	0.940214
	O369	O	1.007687	-0.059332	0.977998
	H370	H	1.006451	-0.057071	0.984196
	H371	H	1.006754	-0.067627	0.982996
	O372	O	-0.028384	0.082149	-0.002403
	H373	H	-0.029255	0.095038	0.000193
	H374	H	-0.013492	0.081303	-0.012252
	O375	O	0.879214	-0.070621	0.078194
	H376	H	0.879210	-0.051872	0.077763
	H377	H	0.875919	-0.060535	0.087449
	O378	O	0.446252	0.486111	0.443990
	H379	H	0.447101	0.511552	0.430290
	H380	H	0.457530	0.476637	0.435575
	O381	O	0.473042	0.467456	0.405311
	H382	H	0.471868	0.473785	0.403229
	H383	H	0.465193	0.475916	0.405683
