data_Molecule from HDF5

_cell_length_a		16.223659
_cell_length_b		16.235869
_cell_length_c		16.300906
_cell_angle_alpha	89.626196
_cell_angle_beta	89.897945
_cell_angle_gamma	89.856770
_symmetry_space_group_name_H-M	'P 1'
_symmetry_Int_Tables_number		1

loop_
	_symmetry_equiv_pos_as_xyz
	x,y,z

loop_
	_atom_site_label
	_atom_site_type_symbol
	_atom_site_fract_x
	_atom_site_fract_y
	_atom_site_fract_z
	H0	H	0.381567	0.832147	0.724071
	H1	H	0.583639	0.158453	0.721810
	H2	H	0.585138	0.831590	0.291298
	H3	H	0.379928	0.156785	0.286514
	H4	H	0.698936	0.393054	0.844812
	H5	H	0.697843	0.593701	0.169893
	H6	H	0.264844	0.596347	0.844161
	H7	H	0.266842	0.393872	0.168937
	H8	H	0.819483	0.710341	0.408483
	H9	H	0.146576	0.709322	0.608336
	H10	H	0.818639	0.276686	0.608707
	H11	H	0.145990	0.281497	0.409380
	H12	H	0.818671	0.391616	0.725568
	H13	H	0.145632	0.592894	0.724181
	H14	H	0.819486	0.597019	0.290866
	H15	H	0.144646	0.392658	0.291497
	H16	H	0.380981	0.711859	0.843490
	H17	H	0.583180	0.711279	0.168974
	H18	H	0.582072	0.280679	0.843185
	H19	H	0.378117	0.274926	0.166828
	H20	H	0.701219	0.832041	0.406335
	H21	H	0.697995	0.158446	0.605449
	H22	H	0.267939	0.831556	0.609357
	H23	H	0.266748	0.158299	0.405486
	H24	H	0.881430	0.330801	0.225713
	H25	H	0.082729	0.656914	0.221392
	H26	H	0.081299	0.329763	0.793886
	H27	H	0.880510	0.656808	0.790697
	H28	H	0.200493	0.893423	0.344899
	H29	H	0.197856	0.093336	0.670611
	H30	H	0.767991	0.096829	0.344350
	H31	H	0.767146	0.895514	0.670441
	H32	H	0.318531	0.210601	0.905359
	H33	H	0.645687	0.208876	0.104389
	H34	H	0.318538	0.779781	0.105645
	H35	H	0.645336	0.778431	0.905201
	H36	H	0.320432	0.891319	0.225132
	H37	H	0.645890	0.095279	0.221567
	H38	H	0.319431	0.099416	0.786701
	H39	H	0.645542	0.895525	0.790444
	H40	H	0.883311	0.211966	0.344443
	H41	H	0.082375	0.209421	0.670165
	H42	H	0.085696	0.777896	0.345083
	H43	H	0.882973	0.777964	0.670893
	H44	H	0.198953	0.330354	0.907137
	H45	H	0.197665	0.657402	0.105695
	H46	H	0.766244	0.330011	0.108923
	H47	H	0.766728	0.657789	0.908937
	H48	H	0.380152	0.116535	0.602820
	H49	H	0.582121	0.877988	0.596110
	H50	H	0.574646	0.112162	0.411011
	H51	H	0.396845	0.878499	0.407922
	H52	H	0.571099	0.407574	0.120695
	H53	H	0.570038	0.587181	0.892006
	H54	H	0.386707	0.584763	0.122467
	H55	H	0.391944	0.400195	0.889010
	H56	H	0.098606	0.585991	0.417843
	H57	H	0.868241	0.584202	0.597204
	H58	H	0.100716	0.399921	0.606512
	H59	H	0.864744	0.401108	0.419466
	H60	H	0.097811	0.398161	0.595033
	H61	H	0.865422	0.585366	0.602099
	H62	H	0.098734	0.582322	0.412615
	H63	H	0.867050	0.407562	0.417044
	H64	H	0.391707	0.584652	0.120606
	H65	H	0.575231	0.586511	0.891018
	H66	H	0.567334	0.394978	0.122773
	H67	H	0.386288	0.403378	0.888317
	H68	H	0.574275	0.111534	0.412420
	H69	H	0.573741	0.877427	0.607035
	H70	H	0.402597	0.109630	0.603836
	H71	H	0.397587	0.882875	0.423169
	H72	H	0.884292	0.611553	0.099709
	H73	H	0.075208	0.379475	0.092469
	H74	H	0.068516	0.611983	0.905474
	H75	H	0.884660	0.377548	0.922994
	H76	H	0.070258	0.882669	0.626988
	H77	H	0.066592	0.091276	0.393309
	H78	H	0.890458	0.083371	0.622637
	H79	H	0.890159	0.911214	0.393225
	H80	H	0.594660	0.084001	0.922178
	H81	H	0.364887	0.084241	0.102915
	H82	H	0.603262	0.896904	0.105884
	H83	H	0.364338	0.907320	0.906552
	H84	H	0.597628	0.896501	0.088071
	H85	H	0.365143	0.089436	0.094003
	H86	H	0.599252	0.080233	0.904622
	H87	H	0.363565	0.895747	0.916157
	H88	H	0.893290	0.087620	0.622917
	H89	H	0.082025	0.093805	0.387192
	H90	H	0.093735	0.907056	0.626913
	H91	H	0.900228	0.899915	0.392976
	H92	H	0.065995	0.605404	0.922618
	H93	H	0.079980	0.373888	0.104341
	H94	H	0.892113	0.610390	0.102925
	H95	H	0.885961	0.373360	0.909175
	H96	H	0.390967	0.107252	0.583907
	H97	H	0.569092	0.882112	0.594029
	H98	H	0.575209	0.111768	0.412415
	H99	H	0.383502	0.876367	0.417186
	H100	H	0.580229	0.398520	0.125523
	H101	H	0.572028	0.582934	0.892866
	H102	H	0.389375	0.588540	0.123092
	H103	H	0.391496	0.405734	0.891257
	H104	H	0.100384	0.588982	0.412108
	H105	H	0.866031	0.589121	0.597975
	H106	H	0.094972	0.408924	0.599999
	H107	H	0.862539	0.402587	0.412117
	H108	H	0.890298	0.608054	0.094359
	H109	H	0.066561	0.379158	0.103299
	H110	H	0.082401	0.611414	0.917440
	H111	H	0.897734	0.379422	0.916449
	H112	H	0.061980	0.913794	0.615515
	H113	H	0.077905	0.079633	0.393249
	H114	H	0.888333	0.087808	0.625131
	H115	H	0.886842	0.897880	0.387990
	H116	H	0.602268	0.097497	0.911168
	H117	H	0.369264	0.079201	0.094111
	H118	H	0.595714	0.912236	0.098575
	H119	H	0.368620	0.909881	0.920525
	C120	C	0.361047	0.003639	0.628313
	C121	C	0.603989	0.987145	0.627607
	C122	C	0.604835	0.003495	0.384070
	C123	C	0.361646	0.986409	0.385064
	C124	C	0.603281	0.371547	0.015484
	C125	C	0.602496	0.615406	0.999026
	C126	C	0.359615	0.616748	0.014905
	C127	C	0.360104	0.372688	0.997059
	C128	C	-0.008587	0.616456	0.385337
	C129	C	0.974473	0.615236	0.629204
	C130	C	-0.009956	0.372177	0.629705
	C131	C	0.973010	0.374063	0.386848
	C132	C	0.859596	0.502055	0.129541
	C133	C	0.103377	0.485357	0.128431
	C134	C	0.102870	0.502047	0.886326
	C135	C	0.859319	0.484836	0.886188
	C136	C	0.105788	0.871585	0.515958
	C137	C	0.104487	0.116673	0.499055
	C138	C	0.861355	0.116763	0.516016
	C139	C	0.862197	0.873293	0.499145
	C140	C	0.490722	0.116982	0.883297
	C141	C	0.474181	0.114505	0.126578
	C142	C	0.491513	0.872117	0.128247
	C143	C	0.473414	0.874259	0.884853
	C144	C	0.362068	0.880852	0.685650
	C145	C	0.603152	0.109562	0.683668
	C146	C	0.604551	0.880418	0.329373
	C147	C	0.361222	0.108418	0.326212
	C148	C	0.660092	0.373797	0.893142
	C149	C	0.659182	0.613935	0.121250
	C150	C	0.302994	0.616125	0.892671
	C151	C	0.304286	0.373895	0.119883
	C152	C	0.868491	0.672691	0.387793
	C153	C	0.097673	0.671116	0.628486
	C154	C	0.867326	0.315226	0.628459
	C155	C	0.096524	0.318389	0.388779
	C156	C	0.867363	0.372591	0.686487
	C157	C	0.096967	0.613387	0.686115
	C158	C	0.868496	0.616191	0.329150
	C159	C	0.095919	0.374187	0.330240
	C160	C	0.360549	0.673896	0.892379
	C161	C	0.602106	0.672346	0.120819
	C162	C	0.602347	0.317055	0.892796
	C163	C	0.359557	0.314550	0.118712
	C164	C	0.662499	0.881000	0.386403
	C165	C	0.659952	0.109768	0.625526
	C166	C	0.305776	0.880568	0.628005
	C167	C	0.304398	0.108946	0.385177
	C168	C	0.861258	0.379564	0.187000
	C169	C	0.102141	0.608252	0.183425
	C170	C	0.101795	0.378956	0.830938
	C171	C	0.860607	0.608218	0.829658
	C172	C	0.162152	0.873572	0.393721
	C173	C	0.160180	0.113622	0.621558
	C174	C	0.805872	0.116603	0.393207
	C175	C	0.805760	0.875132	0.621797
	C176	C	0.367514	0.172937	0.885063
	C177	C	0.596938	0.171021	0.124586
	C178	C	0.367766	0.816817	0.126825
	C179	C	0.596462	0.817304	0.885696
	C180	C	0.368882	0.872373	0.186131
	C181	C	0.597014	0.114259	0.182832
	C182	C	0.368097	0.117601	0.825922
	C183	C	0.596775	0.875425	0.828678
	C184	C	0.863127	0.173833	0.393221
	C185	C	0.102683	0.171705	0.621554
	C186	C	0.104977	0.815827	0.393764
	C187	C	0.863073	0.816645	0.621883
	C188	C	0.159965	0.379125	0.887673
	C189	C	0.159534	0.608325	0.125749
	C190	C	0.803983	0.379176	0.128845
	C191	C	0.803814	0.608537	0.888021
	C192	C	0.384354	0.089204	0.604047
	C193	C	0.581526	0.901413	0.605472
	C194	C	0.581611	0.089527	0.405730
	C195	C	0.385671	0.901074	0.409107
	C196	C	0.579818	0.393754	0.100861
	C197	C	0.579292	0.592435	0.914008
	C198	C	0.382862	0.593144	0.099979
	C199	C	0.383246	0.396111	0.911563
	C200	C	0.077096	0.592679	0.407547
	C201	C	0.888831	0.592820	0.605916
	C202	C	0.075793	0.395489	0.606957
	C203	C	0.887031	0.397047	0.409672
	C204	C	0.882169	0.587859	0.105854
	C205	C	0.080441	0.399859	0.106642
	C206	C	0.079227	0.587400	0.908590
	C207	C	0.882543	0.399069	0.909367
	C208	C	0.082249	0.894488	0.601078
	C209	C	0.081863	0.094798	0.413271
	C210	C	0.883931	0.093105	0.601349
	C211	C	0.885374	0.896280	0.413591
	C212	C	0.576491	0.093822	0.906060
	C213	C	0.388604	0.091031	0.103755
	C214	C	0.576641	0.895178	0.104625
	C215	C	0.387910	0.897352	0.907805
	Zn216	Zn	0.482082	-0.004469	0.756080
	Zn217	Zn	0.483529	-0.006209	0.255896
	Zn218	Zn	0.731127	0.493422	0.007561
	Zn219	Zn	0.231933	0.493987	0.006839
	Zn220	Zn	-0.016171	0.743664	0.507399
	Zn221	Zn	-0.017986	0.245147	0.507201
	Zn222	Zn	-0.018597	0.493650	0.758163
	Zn223	Zn	-0.018018	0.494143	0.257528
	Zn224	Zn	0.481682	0.744978	0.006072
	Zn225	Zn	0.481505	0.243890	0.005739
	Zn226	Zn	0.733178	-0.004455	0.506437
	Zn227	Zn	0.233361	-0.005653	0.507530
	N228	N	0.395912	0.958478	0.685894
	N229	N	0.569081	0.032219	0.685025
	N230	N	0.569287	0.957530	0.328015
	N231	N	0.395888	0.030942	0.325766
	N232	N	0.660954	0.406959	0.970548
	N233	N	0.659656	0.579269	0.044603
	N234	N	0.302240	0.581426	0.969789
	N235	N	0.304468	0.409104	0.043071
	N236	N	0.946051	0.673044	0.421803
	N237	N	0.020451	0.672288	0.593836
	N238	N	0.944768	0.314887	0.593885
	N239	N	0.019127	0.318272	0.423371
	N240	N	0.944638	0.407273	0.687201
	N241	N	0.019406	0.579334	0.686624
	N242	N	0.946181	0.582146	0.327270
	N243	N	0.018162	0.408085	0.328968
	N244	N	0.394857	0.674695	0.969420
	N245	N	0.567675	0.673335	0.043721
	N246	N	0.567517	0.315618	0.969874
	N247	N	0.393685	0.313734	0.041410
	N248	N	0.662715	0.958679	0.419675
	N249	N	0.660703	0.032611	0.591305
	N250	N	0.305036	0.958004	0.593204
	N251	N	0.304750	0.032054	0.420995
	N252	N	0.895092	0.457105	0.187412
	N253	N	0.068016	0.530849	0.185380
	N254	N	0.066932	0.456235	0.829978
	N255	N	0.894199	0.530392	0.828347
	N256	N	0.162851	0.907351	0.470805
	N257	N	0.161419	0.080238	0.544245
	N258	N	0.804652	0.082008	0.470345
	N259	N	0.804968	0.909436	0.544426
	N260	N	0.444709	0.172850	0.919803
	N261	N	0.519517	0.171482	0.090437
	N262	N	0.444870	0.816331	0.091759
	N263	N	0.518780	0.816388	0.919836
	N264	N	0.446721	0.905924	0.187219
	N265	N	0.519469	0.079767	0.184218
	N266	N	0.445663	0.083371	0.824906
	N267	N	0.519383	0.910092	0.828008
	N268	N	0.897071	0.174089	0.470546
	N269	N	0.068754	0.173563	0.544333
	N270	N	0.070626	0.814474	0.470926
	N271	N	0.897341	0.815364	0.544554
	N272	N	0.161125	0.456734	0.920941
	N273	N	0.160507	0.530928	0.092224
	N274	N	0.802732	0.456560	0.094074
	N275	N	0.802979	0.530856	0.922272
	O276	O	0.324681	-0.434344	1.420112
	H277	H	0.321195	-0.441997	1.420250
	H278	H	0.330894	-0.446237	1.416741
	O279	O	0.516339	0.439284	0.474958
	H280	H	0.522167	0.434144	0.475099
	H281	H	0.524813	0.433131	0.469428
	O282	O	1.015451	0.968204	0.049226
	H283	H	1.020443	0.970893	0.047979
	H284	H	1.029113	0.972348	0.053273
	O285	O	0.515009	0.619328	0.586199
	H286	H	0.517754	0.626721	0.583750
	H287	H	0.519288	0.629558	0.572626
	O288	O	0.335682	0.412613	0.440426
	H289	H	0.323412	0.407496	0.442968
	H290	H	0.337009	0.411676	0.441323
	O291	O	0.550738	-0.550746	1.401381
	H292	H	0.542519	-0.554836	1.406087
	H293	H	0.551589	-0.549056	1.401841
	O294	O	1.032732	1.105773	0.066428
	H295	H	1.028999	1.110312	0.072468
	H296	H	1.023568	1.117373	0.053109
	O297	O	1.018914	1.031852	-0.077625
	H298	H	1.014271	1.018102	-0.065977
	H299	H	1.024968	1.018364	-0.077641
	O300	O	0.433514	0.448187	0.573586
	H301	H	0.430620	0.443460	0.573855
	H302	H	0.438971	0.449907	0.570805
	O303	O	0.436156	0.552458	0.410468
	H304	H	0.437682	0.550439	0.405361
	H305	H	0.426034	0.555630	0.401753
	O306	O	0.558292	0.495906	0.509708
	H307	H	0.550126	0.501146	0.512968
	H308	H	0.564220	0.492377	0.503272
	O309	O	0.609780	0.480681	0.378613
	H310	H	0.615646	0.478581	0.388161
	H311	H	0.612343	0.482018	0.376524
	O312	O	0.915308	0.818049	1.161107
	H313	H	0.917644	0.823035	1.168152
	H314	H	0.917504	0.814862	1.170252
	O315	O	1.034924	1.008769	0.005074
	H316	H	1.035021	1.018942	-0.001413
	H317	H	1.043330	1.002476	0.011743
	O318	O	0.963002	0.081752	0.115833
	H319	H	0.946325	0.077397	0.112569
	H320	H	0.970001	0.094152	0.117064
	O321	O	0.585698	0.567895	0.579467
	H322	H	0.571484	0.577926	0.590314
	H323	H	0.578927	0.568529	0.565847
	O324	O	-0.025763	1.010287	0.928282
	H325	H	-0.027300	1.008199	0.929877
	H326	H	-0.017593	1.010218	0.912172
	O327	O	-0.015031	0.902004	0.901467
	H328	H	-0.018529	0.909138	0.904785
	H329	H	-0.010101	0.891266	0.913251
	O330	O	-0.576231	0.472363	0.616160
	H331	H	-0.568254	0.473162	0.626720
	H332	H	-0.574342	0.483448	0.611207
	O333	O	0.332046	0.448932	0.522979
	H334	H	0.332806	0.452060	0.529436
	H335	H	0.334695	0.455730	0.526487
	O336	O	-0.035509	-0.011219	0.036433
	H337	H	-0.049434	-0.005262	0.030404
	H338	H	-0.027861	0.000732	0.032639
	O339	O	-0.137198	-0.091956	0.105963
	H340	H	-0.134664	-0.095550	0.104150
	H341	H	-0.143092	-0.094934	0.116584
	O342	O	0.458331	0.555918	0.539896
	H343	H	0.462789	0.557353	0.540029
	H344	H	0.458039	0.557276	0.527625
	O345	O	0.034283	1.004258	1.071080
	H346	H	0.030301	1.002635	1.071553
	H347	H	0.047676	0.994454	1.085081
	O348	O	0.599737	0.431009	0.469291
	H349	H	0.609450	0.428335	0.466051
	H350	H	0.591676	0.429175	0.465298
	O351	O	0.522729	0.574019	0.541139
	H352	H	0.540280	0.576348	0.546314
	H353	H	0.521530	0.572110	0.551872
	O354	O	0.992168	1.022894	-1.089653
	H355	H	0.992973	1.024166	-1.095296
	H356	H	0.985228	1.014126	-1.093852
	O357	O	1.016607	0.955777	0.947086
	H358	H	1.010481	0.944982	0.961155
	H359	H	1.016793	0.958975	0.950194
	O360	O	1.099000	0.017727	1.108850
	H361	H	1.109331	0.028186	1.118644
	H362	H	1.099999	0.034793	1.111290
	O363	O	-0.014910	0.913751	-0.062258
	H364	H	-0.009795	0.906397	-0.064153
	H365	H	-0.007525	0.911312	-0.068948
	O366	O	0.496569	0.469451	0.639304
	H367	H	0.492650	0.473989	0.646586
	H368	H	0.505870	0.463584	0.638151
	O369	O	1.000461	0.098606	-0.001213
	H370	H	0.981965	0.094159	0.005416
	H371	H	0.997012	0.088573	-0.017390
	O372	O	0.423323	0.427423	0.485728
	H373	H	0.431005	0.425308	0.500604
	H374	H	0.402972	0.418583	0.487456
	O375	O	0.896067	-0.072226	1.095486
	H376	H	0.896180	-0.084939	1.089928
	H377	H	0.888612	-0.079012	1.094567
	O378	O	-0.682010	1.561539	-0.470449
	H379	H	-0.689660	1.557187	-0.468624
	H380	H	-0.694336	1.565807	-0.469779
	O381	O	0.538353	0.370133	0.392083
	H382	H	0.548380	0.382526	0.392742
	H383	H	0.545016	0.368003	0.385116
	O384	O	1.573027	1.456033	-0.510591
	H385	H	1.567128	1.460888	-0.499410
	H386	H	1.572855	1.455277	-0.508965
	O387	O	1.039996	-0.010819	0.970008
	H388	H	1.048253	-0.014217	0.966933
	H389	H	1.057051	-0.006953	0.971135
	O390	O	1.567241	0.642991	0.613750
	H391	H	1.574432	0.638973	0.620286
	H392	H	1.566483	0.643890	0.611999
	O393	O	0.891686	1.049873	0.050699
	H394	H	0.892713	1.052021	0.042570
	H395	H	0.878019	1.047094	0.048970
