data_Molecule from HDF5

_cell_length_a		16.678455
_cell_length_b		16.641656
_cell_length_c		16.589583
_cell_angle_alpha	89.822243
_cell_angle_beta	90.077748
_cell_angle_gamma	90.083088
_symmetry_space_group_name_H-M	'P 1'
_symmetry_Int_Tables_number		1

loop_
	_symmetry_equiv_pos_as_xyz
	x,y,z

loop_
	_atom_site_label
	_atom_site_type_symbol
	_atom_site_fract_x
	_atom_site_fract_y
	_atom_site_fract_z
	H0	H	0.363550	0.842905	0.729921
	H1	H	0.576368	0.152406	0.727310
	H2	H	0.574468	0.841922	0.286267
	H3	H	0.365409	0.152335	0.285396
	H4	H	0.691076	0.391606	0.851277
	H5	H	0.694408	0.604078	0.161136
	H6	H	0.250460	0.601070	0.850597
	H7	H	0.248759	0.389569	0.161883
	H8	H	0.815701	0.717856	0.401172
	H9	H	0.126247	0.717420	0.612275
	H10	H	0.814688	0.276032	0.611642
	H11	H	0.125596	0.276244	0.402650
	H12	H	0.813288	0.392700	0.726420
	H13	H	0.126533	0.599487	0.727079
	H14	H	0.816389	0.603639	0.284632
	H15	H	0.125114	0.392049	0.285750
	H16	H	0.366026	0.717964	0.851456
	H17	H	0.578386	0.719772	0.160494
	H18	H	0.574411	0.276867	0.851109
	H19	H	0.366192	0.275998	0.163175
	H20	H	0.693294	0.842877	0.399708
	H21	H	0.694340	0.150339	0.614538
	H22	H	0.248384	0.842348	0.612325
	H23	H	0.250010	0.153590	0.401948
	H24	H	0.868240	0.340817	0.226692
	H25	H	0.076319	0.650839	0.227449
	H26	H	0.074936	0.340620	0.786425
	H27	H	0.866467	0.653001	0.786422
	H28	H	0.190909	0.892787	0.351434
	H29	H	0.188801	0.100089	0.664684
	H30	H	0.750027	0.101179	0.350746
	H31	H	0.747768	0.889715	0.661483
	H32	H	0.316792	0.219829	0.900276
	H33	H	0.623714	0.218846	0.113686
	H34	H	0.316577	0.772604	0.114864
	H35	H	0.622352	0.771007	0.897770
	H36	H	0.315689	0.889230	0.229410
	H37	H	0.624027	0.101212	0.229366
	H38	H	0.315615	0.101987	0.785302
	H39	H	0.623790	0.888724	0.782862
	H40	H	0.867456	0.216316	0.350053
	H41	H	0.072596	0.216208	0.664694
	H42	H	0.077678	0.773658	0.353154
	H43	H	0.865163	0.774895	0.662367
	H44	H	0.193127	0.342480	0.899879
	H45	H	0.192067	0.651588	0.111225
	H46	H	0.750231	0.341245	0.111682
	H47	H	0.748383	0.651347	0.899496
	H48	H	0.378611	0.109030	0.596202
	H49	H	0.555010	0.885328	0.599296
	H50	H	0.560487	0.108921	0.419355
	H51	H	0.373907	0.883842	0.420448
	H52	H	0.560214	0.403202	0.120219
	H53	H	0.557157	0.582199	0.897658
	H54	H	0.385914	0.581175	0.116013
	H55	H	0.386021	0.407208	0.896598
	H56	H	0.078693	0.580520	0.419392
	H57	H	0.860130	0.589257	0.589912
	H58	H	0.081483	0.402223	0.594873
	H59	H	0.860042	0.413395	0.416390
	H60	H	0.078917	0.411995	0.593732
	H61	H	0.860709	0.579648	0.598329
	H62	H	0.083440	0.587040	0.414357
	H63	H	0.856970	0.404376	0.413587
	H64	H	0.383272	0.590467	0.120183
	H65	H	0.556790	0.585029	0.896359
	H66	H	0.564329	0.409197	0.119999
	H67	H	0.379136	0.404821	0.893541
	H68	H	0.557849	0.107769	0.418611
	H69	H	0.554346	0.888542	0.589762
	H70	H	0.380788	0.109370	0.598218
	H71	H	0.382780	0.885296	0.413377
	H72	H	0.886623	0.607197	0.096165
	H73	H	0.065951	0.384095	0.091995
	H74	H	0.059363	0.608119	0.914071
	H75	H	0.878641	0.385866	0.920808
	H76	H	0.055842	0.911226	0.615710
	H77	H	0.060937	0.088082	0.395135
	H78	H	0.885392	0.083522	0.616073
	H79	H	0.890737	0.906778	0.398061
	H80	H	0.582236	0.092587	0.922541
	H81	H	0.357495	0.083631	0.100263
	H82	H	0.579656	0.914165	0.098897
	H83	H	0.359346	0.907380	0.918901
	H84	H	0.583516	0.903626	0.097565
	H85	H	0.357872	0.089838	0.092878
	H86	H	0.578525	0.079609	0.920465
	H87	H	0.361135	0.909137	0.921121
	H88	H	0.881736	0.088700	0.620063
	H89	H	0.060056	0.086347	0.395663
	H90	H	0.057475	0.903149	0.620276
	H91	H	0.876542	0.900569	0.391365
	H92	H	0.056237	0.605424	0.918725
	H93	H	0.058507	0.382750	0.101961
	H94	H	0.879493	0.606899	0.090105
	H95	H	0.878027	0.383830	0.915621
	H96	H	0.380718	0.108710	0.595320
	H97	H	0.562756	0.885409	0.593575
	H98	H	0.558660	0.107509	0.420985
	H99	H	0.383258	0.889132	0.424106
	H100	H	0.557265	0.409407	0.117680
	H101	H	0.559181	0.583695	0.895560
	H102	H	0.375642	0.582532	0.119272
	H103	H	0.379893	0.412545	0.895829
	H104	H	0.081372	0.588546	0.423161
	H105	H	0.855537	0.591034	0.601410
	H106	H	0.082214	0.408605	0.602639
	H107	H	0.860522	0.405316	0.422615
	H108	H	0.878865	0.610855	0.098553
	H109	H	0.054562	0.388244	0.091995
	H110	H	0.062478	0.607144	0.919328
	H111	H	0.883311	0.385469	0.917698
	H112	H	0.063843	0.909750	0.619174
	H113	H	0.059198	0.088388	0.395550
	H114	H	0.878233	0.082107	0.619259
	H115	H	0.877424	0.916299	0.396178
	H116	H	0.584465	0.086875	0.910650
	H117	H	0.361475	0.081293	0.092069
	H118	H	0.577967	0.908112	0.089218
	H119	H	0.360280	0.910396	0.918062
	C120	C	0.347942	0.006166	0.628776
	C121	C	0.591025	0.988395	0.627685
	C122	C	0.591023	0.005407	0.386375
	C123	C	0.348421	0.989210	0.386399
	C124	C	0.592029	0.375310	0.016017
	C125	C	0.591655	0.617283	0.998390
	C126	C	0.349606	0.617294	0.015222
	C127	C	0.349148	0.375424	0.998101
	C128	C	-0.020856	0.618509	0.385407
	C129	C	0.961910	0.618320	0.628537
	C130	C	-0.021900	0.375555	0.628764
	C131	C	0.961841	0.375663	0.385563
	C132	C	0.849781	0.505263	0.127337
	C133	C	0.091733	0.487733	0.127317
	C134	C	0.091225	0.504342	0.885477
	C135	C	0.848835	0.488300	0.885938
	C136	C	0.091117	0.876358	0.515202
	C137	C	0.091174	0.118986	0.499131
	C138	C	0.849991	0.117094	0.515060
	C139	C	0.849588	0.875521	0.498298
	C140	C	0.479311	0.118591	0.885371
	C141	C	0.460963	0.117806	0.128510
	C142	C	0.478848	0.874721	0.128584
	C143	C	0.461816	0.875628	0.885756
	C144	C	0.345452	0.889275	0.689312
	C145	C	0.594746	0.104987	0.688264
	C146	C	0.593349	0.888573	0.325915
	C147	C	0.347122	0.105995	0.325993
	C148	C	0.651131	0.373430	0.898354
	C149	C	0.653818	0.621733	0.114478
	C150	C	0.290183	0.619559	0.897659
	C151	C	0.288916	0.372166	0.115113
	C152	C	0.862510	0.678124	0.383079
	C153	C	0.079217	0.677514	0.630539
	C154	C	0.861204	0.316175	0.630091
	C155	C	0.078909	0.316301	0.384137
	C156	C	0.860545	0.374240	0.687284
	C157	C	0.079444	0.618786	0.687556
	C158	C	0.863060	0.621622	0.324579
	C159	C	0.078771	0.373759	0.325998
	C160	C	0.347344	0.677809	0.898139
	C161	C	0.595950	0.678924	0.114533
	C162	C	0.592927	0.316354	0.898215
	C163	C	0.347226	0.315319	0.115714
	C164	C	0.652362	0.889166	0.382258
	C165	C	0.653159	0.104206	0.631589
	C166	C	0.288261	0.889081	0.630990
	C167	C	0.289616	0.106577	0.383895
	C168	C	0.848723	0.387781	0.186945
	C169	C	0.094392	0.604388	0.187315
	C170	C	0.093211	0.387518	0.826015
	C171	C	0.847799	0.605788	0.826112
	C172	C	0.150983	0.874094	0.398253
	C173	C	0.149438	0.119198	0.617448
	C174	C	0.790539	0.119173	0.397421
	C175	C	0.788676	0.872201	0.615165
	C176	C	0.362715	0.178854	0.882543
	C177	C	0.577469	0.178417	0.131939
	C178	C	0.362842	0.813433	0.131819
	C179	C	0.577069	0.813088	0.881029
	C180	C	0.362369	0.871428	0.189049
	C181	C	0.577510	0.120115	0.189326
	C182	C	0.362382	0.120540	0.825379
	C183	C	0.577477	0.871446	0.823733
	C184	C	0.848668	0.176565	0.397299
	C185	C	0.091682	0.176771	0.617640
	C186	C	0.094637	0.815139	0.398896
	C187	C	0.846850	0.814998	0.615489
	C188	C	0.151932	0.388300	0.882641
	C189	C	0.151888	0.604687	0.129482
	C190	C	0.790359	0.387963	0.129636
	C191	C	0.789003	0.605035	0.882440
	C192	C	0.372883	0.087668	0.603634
	C193	C	0.564889	0.907450	0.601574
	C194	C	0.565947	0.086750	0.412129
	C195	C	0.372990	0.907555	0.412039
	C196	C	0.567586	0.400251	0.098017
	C197	C	0.565120	0.590987	0.917617
	C198	C	0.374576	0.592024	0.097263
	C199	C	0.374544	0.400992	0.916617
	C200	C	0.060061	0.592935	0.411484
	C201	C	0.880016	0.593873	0.603628
	C202	C	0.059663	0.400509	0.604219
	C203	C	0.880463	0.400491	0.410458
	C204	C	0.874661	0.586917	0.102214
	C205	C	0.066864	0.406255	0.102397
	C206	C	0.066399	0.585766	0.910469
	C207	C	0.873048	0.406314	0.910946
	C208	C	0.066034	0.901099	0.597096
	C209	C	0.066802	0.094560	0.416815
	C210	C	0.874637	0.091931	0.597178
	C211	C	0.874545	0.900725	0.416525
	C212	C	0.560601	0.093654	0.910868
	C213	C	0.379934	0.092123	0.102377
	C214	C	0.559570	0.901173	0.102701
	C215	C	0.381256	0.901615	0.912014
	Zn216	Zn	0.470544	-0.002858	0.756841
	Zn217	Zn	0.469705	-0.003569	0.257405
	Zn218	Zn	0.720077	0.497018	0.006795
	Zn219	Zn	0.220390	0.496392	0.006213
	Zn220	Zn	-0.029575	0.746979	0.506672
	Zn221	Zn	-0.029869	0.247296	0.507257
	Zn222	Zn	-0.030097	0.496419	0.757008
	Zn223	Zn	-0.029370	0.497333	0.256979
	Zn224	Zn	0.470720	0.745928	0.007272
	Zn225	Zn	0.470182	0.247151	0.007108
	Zn226	Zn	0.720419	-0.003532	0.506750
	Zn227	Zn	0.219589	-0.002175	0.507028
	N228	N	0.381959	0.963156	0.688188
	N229	N	0.556611	0.031975	0.686102
	N230	N	0.555923	0.961923	0.328100
	N231	N	0.382889	0.031856	0.327343
	N232	N	0.651026	0.409161	0.972832
	N233	N	0.651275	0.584183	0.041166
	N234	N	0.291337	0.582788	0.971787
	N235	N	0.289856	0.408782	0.040990
	N236	N	0.935933	0.676450	0.420280
	N237	N	0.005009	0.677324	0.594560
	N238	N	0.935294	0.316782	0.594435
	N239	N	0.005167	0.317221	0.420512
	N240	N	0.934495	0.410349	0.686781
	N241	N	0.005199	0.582952	0.686765
	N242	N	0.936771	0.585193	0.325823
	N243	N	0.005014	0.410113	0.326755
	N244	N	0.383472	0.676664	0.972507
	N245	N	0.558020	0.676553	0.041276
	N246	N	0.557074	0.317024	0.972619
	N247	N	0.383966	0.316968	0.041806
	N248	N	0.651009	0.962872	0.419173
	N249	N	0.651241	0.030559	0.594693
	N250	N	0.289529	0.962878	0.594077
	N251	N	0.290050	0.032698	0.420627
	N252	N	0.884951	0.461877	0.185743
	N253	N	0.057774	0.530581	0.186430
	N254	N	0.055996	0.460815	0.827617
	N255	N	0.884272	0.531996	0.827760
	N256	N	0.149024	0.911373	0.471731
	N257	N	0.149544	0.084192	0.542534
	N258	N	0.791115	0.083024	0.471924
	N259	N	0.789925	0.909004	0.541124
	N260	N	0.436471	0.177858	0.919165
	N261	N	0.503974	0.177215	0.094731
	N262	N	0.436462	0.815282	0.094899
	N263	N	0.504239	0.815572	0.919240
	N264	N	0.435480	0.909280	0.187051
	N265	N	0.504019	0.083115	0.187193
	N266	N	0.436005	0.083759	0.826968
	N267	N	0.504777	0.909647	0.826554
	N268	N	0.884815	0.175576	0.471715
	N269	N	0.056414	0.176989	0.542870
	N270	N	0.058260	0.816160	0.472889
	N271	N	0.883805	0.816787	0.541735
	N272	N	0.150934	0.461994	0.918889
	N273	N	0.150465	0.530997	0.093008
	N274	N	0.790761	0.462131	0.093394
	N275	N	0.789262	0.530787	0.918599
	O276	O	0.513942	1.499022	0.352619
	H277	H	0.527100	1.496106	0.347353
	H278	H	0.517758	1.513138	0.362848
	O279	O	0.158942	-0.194205	0.194571
	H280	H	0.140525	-0.171271	0.187563
	H281	H	0.165553	-0.201898	0.208862
	O282	O	0.997035	0.223801	0.992210
	H283	H	1.011114	0.220105	1.004580
	H284	H	0.999273	0.222122	0.985037
	O285	O	0.260656	0.712634	0.297926
	H286	H	0.251984	0.695897	0.331670
	H287	H	0.272685	0.721891	0.280685
	O288	O	1.012702	1.034031	-0.092097
	H289	H	1.024573	1.022414	-0.101752
	H290	H	1.016564	1.038430	-0.090601
	O291	O	0.247231	0.524876	0.288331
	H292	H	0.227964	0.534409	0.262734
	H293	H	0.264553	0.538156	0.289613
	O294	O	1.675335	0.336750	0.299352
	H295	H	1.696437	0.316779	0.282865
	H296	H	1.644244	0.339355	0.300649
	O297	O	0.871267	0.096038	0.221635
	H298	H	0.875673	0.087171	0.210219
	H299	H	0.888595	0.082503	0.219673
	O300	O	0.177330	0.188309	1.199183
	H301	H	0.139459	0.196917	1.207034
	H302	H	0.183754	0.218746	1.227769
	O303	O	0.452190	0.550094	0.501217
	H304	H	0.454377	0.556243	0.506911
	H305	H	0.456622	0.546677	0.510530
	O306	O	0.690750	0.530177	0.731751
	H307	H	0.693630	0.540884	0.736798
	H308	H	0.707518	0.554251	0.750646
	O309	O	0.563431	0.494583	0.346714
	H310	H	0.572527	0.482564	0.350717
	H311	H	0.572574	0.497772	0.334445
	O312	O	0.398492	0.602430	0.427264
	H313	H	0.407637	0.596329	0.421438
	H314	H	0.402766	0.617719	0.438993
	O315	O	0.753694	1.033649	0.806231
	H316	H	0.763593	1.029337	0.801893
	H317	H	0.746368	1.039678	0.794758
	O318	O	0.680315	0.703992	0.712824
	H319	H	0.704548	0.735624	0.744735
	H320	H	0.655441	0.702408	0.701229
	O321	O	0.245068	0.674184	0.498185
	H322	H	0.232001	0.689656	0.497442
	H323	H	0.232284	0.652125	0.506232
	O324	O	1.177008	0.788852	-0.203678
	H325	H	1.183309	0.799333	-0.191050
	H326	H	1.205550	0.764312	-0.212074
	O327	O	0.253407	0.290787	1.303339
	H328	H	0.267731	0.307009	1.326705
	H329	H	0.267667	0.311685	1.313418
	O330	O	0.694007	0.279381	0.474674
	H331	H	0.702979	0.271835	0.452410
	H332	H	0.700864	0.278424	0.452970
	O333	O	0.744358	0.218434	-0.020939
	H334	H	0.730221	0.229934	-0.033700
	H335	H	0.741941	0.228641	-0.031332
	O336	O	0.429111	0.280512	0.726687
	H337	H	0.439972	0.271131	0.739772
	H338	H	0.450642	0.280524	0.728451
	O339	O	1.345738	-0.470590	0.715384
	H340	H	1.337021	-0.496246	0.709458
	H341	H	1.337855	-0.483389	0.721294
	O342	O	0.189449	-0.038331	-0.210653
	H343	H	0.201300	-0.040598	-0.215889
	H344	H	0.204447	-0.054229	-0.211962
	O345	O	-0.245323	0.209144	1.220761
	H346	H	-0.240192	0.196930	1.199871
	H347	H	-0.242308	0.192750	1.209988
	O348	O	0.005299	-0.226404	-0.216162
	H349	H	0.029357	-0.240562	-0.231767
	H350	H	0.025003	-0.231517	-0.227738
	O351	O	1.512380	0.730145	-0.551121
	H352	H	1.521373	0.733251	-0.553088
	H353	H	1.527265	0.726849	-0.550055
	O354	O	0.194824	0.218057	1.027942
	H355	H	0.198616	0.226224	1.059128
	H356	H	0.206611	0.233789	1.047327
	O357	O	1.010109	0.203364	0.202896
	H358	H	0.990973	0.212530	0.214544
	H359	H	0.993523	0.189817	0.180294
	O360	O	0.195665	0.026097	1.229209
	H361	H	0.212252	0.053244	1.239981
	H362	H	0.201671	0.048666	1.243376
	O363	O	-0.064541	0.012382	0.125669
	H364	H	-0.067268	0.007326	0.126667
	H365	H	-0.061456	0.010677	0.126218
	O366	O	0.671906	0.629755	0.473452
	H367	H	0.685068	0.631948	0.476145
	H368	H	0.685770	0.633155	0.468025
	O369	O	0.656995	0.686327	0.319488
	H370	H	0.653882	0.690417	0.324410
	H371	H	0.662801	0.679093	0.314372
	O372	O	0.920953	1.078702	-0.116056
	H373	H	0.923484	1.076859	-0.116625
	H374	H	0.915668	1.069786	-0.120583
	O375	O	0.852061	-0.079159	-0.165993
	H376	H	0.862850	-0.076871	-0.152942
	H377	H	0.871578	-0.077171	-0.177448
	O378	O	0.966948	0.859167	0.008146
	H379	H	0.976080	0.855321	0.012661
	H380	H	0.959149	0.862260	0.001589
	O381	O	-0.013985	0.864060	0.979315
	H382	H	-0.010972	0.863001	0.971823
	H383	H	-0.003453	0.857008	0.970051
	O384	O	0.759657	0.201516	0.803170
	H385	H	0.777409	0.207505	0.807878
	H386	H	0.743691	0.189278	0.789805
	O387	O	0.737311	1.052451	0.082092
	H388	H	0.736456	1.049859	0.066321
	H389	H	0.732936	1.051347	0.063670
	O390	O	0.755599	0.788809	0.216180
	H391	H	0.763353	0.793644	0.222335
	H392	H	0.749141	0.820888	0.204766
	O393	O	0.540384	0.432170	0.710965
	H394	H	0.541822	0.444110	0.706640
	H395	H	0.552596	0.441197	0.699464
	O396	O	-0.080017	1.128542	1.083571
	H397	H	-0.081316	1.108057	1.078381
	H398	H	-0.083376	1.131506	1.066636
	O399	O	-0.060287	0.217747	0.786378
	H400	H	-0.070743	0.240191	0.775238
	H401	H	-0.070745	0.218536	0.784474
	O402	O	0.042618	-0.084101	1.092802
	H403	H	0.053998	-0.091165	1.111705
	H404	H	0.049917	-0.092295	1.093183
	O405	O	1.282581	0.690177	0.697607
	H406	H	1.297821	0.666812	0.681371
	H407	H	1.301268	0.676181	0.686335
	O408	O	0.139308	0.155006	-0.120241
	H409	H	0.117123	0.140310	-0.112090
	H410	H	0.136407	0.145438	-0.095285
	O411	O	0.899753	0.960925	1.186499
	H412	H	0.888048	0.976133	1.178148
	H413	H	0.910336	0.976922	1.198377
	O414	O	0.355902	0.524038	0.518406
	H415	H	0.350366	0.524598	0.523860
	H416	H	0.352634	0.528646	0.499934
	O417	O	0.478363	0.559525	0.659258
	H418	H	0.469328	0.552038	0.657737
	H419	H	0.478524	0.567623	0.655406
	O420	O	0.237782	0.432769	0.465788
	H421	H	0.236136	0.432361	0.442850
	H422	H	0.238297	0.415423	0.471769
	O423	O	-0.075922	-0.163040	0.977203
	H424	H	-0.050515	-0.163389	0.963231
	H425	H	-0.074552	-0.158444	0.988783
	O426	O	0.641439	0.667836	0.551528
	H427	H	0.652750	0.682629	0.569255
	H428	H	0.647489	0.664798	0.569457
	O429	O	1.043304	0.910242	0.916050
	H430	H	1.058614	0.906004	0.897304
	H431	H	1.051214	0.910342	0.917985
	O432	O	0.615857	0.409364	0.352903
	H433	H	0.623499	0.396314	0.350102
	H434	H	0.620929	0.399620	0.343116
	O435	O	0.244395	0.276879	0.539836
	H436	H	0.244247	0.274561	0.568278
	H437	H	0.220586	0.257523	0.550531
	O438	O	0.428694	-0.538897	0.444800
	H439	H	0.438217	-0.533493	0.454144
	H440	H	0.439307	-0.537223	0.455841
	O441	O	0.204645	0.043512	-0.033830
	H442	H	0.211608	0.055424	-0.013178
	H443	H	0.203113	0.049481	-0.020286
	O444	O	0.255993	0.418813	0.716206
	H445	H	0.232276	0.412344	0.718161
	H446	H	0.256646	0.382021	0.718260
	O447	O	-0.100151	0.952925	1.226880
	H448	H	-0.103153	0.952202	1.225511
	H449	H	-0.089174	0.952363	1.226533
	O450	O	-0.253870	0.780665	1.023103
	H451	H	-0.259478	0.764594	1.040064
	H452	H	-0.247462	0.766753	1.024921
	O453	O	0.449117	0.297574	0.506453
	H454	H	0.464935	0.303203	0.506142
	H455	H	0.443564	0.289895	0.516218
	O456	O	-0.045128	-0.221556	1.230111
	H457	H	-0.063792	-0.247520	1.246667
	H458	H	-0.061015	-0.218061	1.220915
	O459	O	1.234745	1.264585	-0.257910
	H460	H	1.209459	1.236359	-0.228149
	H461	H	1.273198	1.256119	-0.243111
	O462	O	0.443718	0.717474	0.634258
	H463	H	0.446049	0.706706	0.610384
	H464	H	0.452209	0.728298	0.636568
	O465	O	1.163070	-0.220739	-0.015265
	H466	H	1.165337	-0.227867	-0.019094
	H467	H	1.177702	-0.222552	-0.008149
	O468	O	0.292199	0.489141	0.513170
	H469	H	0.282975	0.473169	0.523984
	H470	H	0.304308	0.473920	0.519483
	O471	O	0.707011	0.457035	0.543029
	H472	H	0.697984	0.436878	0.546144
	H473	H	0.709370	0.468019	0.555587
	O474	O	0.776557	0.809465	0.820680
	H475	H	0.796420	0.845320	0.818019
	H476	H	0.793186	0.810723	0.856193
	O477	O	0.547335	0.318651	1.581228
	H478	H	0.556449	0.331884	1.569023
	H479	H	0.556597	0.329512	1.592578
	O480	O	0.522945	0.310449	0.307996
	H481	H	0.503994	0.318212	0.304047
	H482	H	0.507567	0.308331	0.298419
	O483	O	0.444149	0.712960	0.290219
	H484	H	0.450268	0.735359	0.276028
	H485	H	0.433740	0.709638	0.299114
	O486	O	0.650949	0.313481	0.672276
	H487	H	0.647050	0.325449	0.656291
	H488	H	0.642724	0.318469	0.652580
	O489	O	0.759459	0.958415	-0.044518
	H490	H	0.761731	0.934771	-0.049091
	H491	H	0.757476	0.951832	-0.052234
	O492	O	-0.005133	0.086496	-0.151455
	H493	H	0.001760	0.077930	-0.153171
	H494	H	-0.005890	0.092006	-0.159550
	O495	O	0.180161	0.929428	1.038534
	H496	H	0.179880	0.929044	1.053563
	H497	H	0.185258	0.929631	1.043990
	O498	O	1.398045	1.382875	1.305603
	H499	H	1.391399	1.400301	1.294199
	H500	H	1.413635	1.396208	1.325533
	O501	O	0.570251	0.657691	0.636818
	H502	H	0.560857	0.666942	0.635956
	H503	H	0.566127	0.650502	0.639147
