data_Molecule from HDF5

_cell_length_a		16.570131
_cell_length_b		16.466716
_cell_length_c		16.434376
_cell_angle_alpha	90.017524
_cell_angle_beta	89.976896
_cell_angle_gamma	89.914558
_symmetry_space_group_name_H-M	'P 1'
_symmetry_Int_Tables_number		1

loop_
	_symmetry_equiv_pos_as_xyz
	x,y,z

loop_
	_atom_site_label
	_atom_site_type_symbol
	_atom_site_fract_x
	_atom_site_fract_y
	_atom_site_fract_z
	H0	H	0.395749	0.838549	0.708874
	H1	H	0.602863	0.156825	0.711747
	H2	H	0.603350	0.840836	0.272748
	H3	H	0.396481	0.157483	0.271919
	H4	H	0.722017	0.386995	0.833502
	H5	H	0.718176	0.601429	0.146497
	H6	H	0.276043	0.603978	0.832188
	H7	H	0.280650	0.396925	0.150915
	H8	H	0.839940	0.717252	0.390482
	H9	H	0.156831	0.718706	0.594970
	H10	H	0.841508	0.276497	0.595905
	H11	H	0.157032	0.277657	0.384839
	H12	H	0.840987	0.393251	0.712270
	H13	H	0.155866	0.604637	0.713576
	H14	H	0.839623	0.600097	0.272528
	H15	H	0.156105	0.394460	0.268172
	H16	H	0.391230	0.719602	0.831745
	H17	H	0.599810	0.716487	0.147732
	H18	H	0.603272	0.274597	0.832247
	H19	H	0.395920	0.279577	0.150672
	H20	H	0.720629	0.842186	0.386943
	H21	H	0.721919	0.156189	0.598902
	H22	H	0.277136	0.840372	0.595712
	H23	H	0.275734	0.155459	0.383765
	H24	H	0.892506	0.340474	0.212308
	H25	H	0.100525	0.656743	0.210092
	H26	H	0.102612	0.340164	0.769087
	H27	H	0.888854	0.654603	0.766907
	H28	H	0.220533	0.892413	0.332813
	H29	H	0.223324	0.107338	0.646497
	H30	H	0.776812	0.106165	0.333597
	H31	H	0.775540	0.891883	0.647197
	H32	H	0.341205	0.220827	0.884205
	H33	H	0.654189	0.222533	0.098557
	H34	H	0.341374	0.777217	0.096564
	H35	H	0.653544	0.773984	0.883937
	H36	H	0.342258	0.893617	0.214050
	H37	H	0.655550	0.103738	0.212696
	H38	H	0.342609	0.106224	0.764463
	H39	H	0.655258	0.891024	0.767628
	H40	H	0.894825	0.219484	0.331887
	H41	H	0.107763	0.223444	0.646436
	H42	H	0.104307	0.776292	0.332629
	H43	H	0.891106	0.775271	0.647637
	H44	H	0.219940	0.340291	0.884169
	H45	H	0.218589	0.655907	0.095737
	H46	H	0.774175	0.340966	0.099138
	H47	H	0.769304	0.651224	0.879271
	H48	H	0.409650	0.110552	0.578737
	H49	H	0.588373	0.886845	0.577642
	H50	H	0.593536	0.114755	0.401820
	H51	H	0.410434	0.886384	0.402579
	H52	H	0.581967	0.403367	0.103163
	H53	H	0.583759	0.581852	0.877731
	H54	H	0.400860	0.586650	0.105732
	H55	H	0.410222	0.412279	0.879672
	H56	H	0.111366	0.585299	0.394904
	H57	H	0.888912	0.583676	0.576326
	H58	H	0.110883	0.409613	0.580988
	H59	H	0.887424	0.406296	0.403883
	H60	H	0.108966	0.409263	0.574932
	H61	H	0.885362	0.586974	0.583998
	H62	H	0.112614	0.594396	0.400146
	H63	H	0.888148	0.412096	0.400698
	H64	H	0.410396	0.583444	0.101647
	H65	H	0.582929	0.584557	0.877216
	H66	H	0.592935	0.410027	0.104687
	H67	H	0.410970	0.404699	0.877053
	H68	H	0.585075	0.113507	0.398889
	H69	H	0.589255	0.886774	0.577166
	H70	H	0.412176	0.109243	0.577614
	H71	H	0.407892	0.885016	0.403452
	H72	H	0.908923	0.610886	0.082524
	H73	H	0.094658	0.383758	0.077358
	H74	H	0.087196	0.608589	0.909278
	H75	H	0.907208	0.386671	0.908843
	H76	H	0.088863	0.909409	0.603496
	H77	H	0.083168	0.084363	0.379846
	H78	H	0.911016	0.085074	0.602304
	H79	H	0.913070	0.907535	0.378017
	H80	H	0.608345	0.083188	0.900531
	H81	H	0.384809	0.086140	0.086027
	H82	H	0.612938	0.904684	0.083816
	H83	H	0.386802	0.908810	0.900589
	H84	H	0.610139	0.904363	0.076405
	H85	H	0.385821	0.091726	0.078804
	H86	H	0.609444	0.087942	0.901742
	H87	H	0.387923	0.910401	0.902899
	H88	H	0.913302	0.088492	0.603112
	H89	H	0.086826	0.090919	0.376435
	H90	H	0.088544	0.911563	0.602800
	H91	H	0.906870	0.909249	0.376677
	H92	H	0.092254	0.613254	0.899429
	H93	H	0.089334	0.382856	0.085123
	H94	H	0.912162	0.608308	0.074844
	H95	H	0.909549	0.383836	0.898302
	H96	H	0.409385	0.109990	0.575864
	H97	H	0.589161	0.886030	0.578054
	H98	H	0.587170	0.111236	0.407519
	H99	H	0.409257	0.885057	0.400612
	H100	H	0.582834	0.415625	0.099783
	H101	H	0.585260	0.583533	0.876557
	H102	H	0.409517	0.593869	0.104117
	H103	H	0.403512	0.408703	0.875638
	H104	H	0.109341	0.585532	0.405318
	H105	H	0.887135	0.592149	0.577306
	H106	H	0.108493	0.414742	0.578471
	H107	H	0.884755	0.406807	0.397281
	H108	H	0.903831	0.610189	0.075450
	H109	H	0.085751	0.386718	0.077463
	H110	H	0.080884	0.609654	0.899339
	H111	H	0.917285	0.389666	0.904259
	H112	H	0.086406	0.910276	0.603169
	H113	H	0.091597	0.083471	0.377716
	H114	H	0.910164	0.088749	0.604158
	H115	H	0.910676	0.914013	0.379715
	H116	H	0.607140	0.084787	0.905144
	H117	H	0.388941	0.083730	0.078686
	H118	H	0.609516	0.910907	0.080362
	H119	H	0.386662	0.911694	0.900211
	C120	C	0.377905	0.006002	0.610350
	C121	C	0.620874	0.990654	0.611402
	C122	C	0.620889	0.008547	0.370557
	C123	C	0.377055	0.990136	0.369430
	C124	C	0.619102	0.375300	-0.001258
	C125	C	0.616898	0.616627	0.981138
	C126	C	0.375043	0.620425	-0.001037
	C127	C	0.377168	0.377389	0.982757
	C128	C	0.006613	0.619466	0.369601
	C129	C	0.990758	0.620290	0.612554
	C130	C	0.006059	0.377938	0.611058
	C131	C	0.990647	0.376652	0.367941
	C132	C	0.876442	0.505634	0.110807
	C133	C	0.119758	0.489543	0.111680
	C134	C	0.119394	0.506489	0.869464
	C135	C	0.876792	0.489322	0.869266
	C136	C	0.120147	0.877347	0.498820
	C137	C	0.120348	0.119647	0.481866
	C138	C	0.878370	0.120393	0.498965
	C139	C	0.877546	0.877785	0.482322
	C140	C	0.505722	0.119299	0.868738
	C141	C	0.490224	0.120012	0.113119
	C142	C	0.507163	0.875554	0.112757
	C143	C	0.489851	0.876424	0.868172
	C144	C	0.376677	0.886631	0.669640
	C145	C	0.621987	0.109332	0.672015
	C146	C	0.622300	0.888700	0.311809
	C147	C	0.376757	0.109586	0.310833
	C148	C	0.681039	0.370314	0.880694
	C149	C	0.677519	0.619755	0.099523
	C150	C	0.315677	0.622481	0.879699
	C151	C	0.319361	0.377331	0.102833
	C152	C	0.887327	0.678003	0.370032
	C153	C	0.108958	0.679923	0.614388
	C154	C	0.888564	0.316845	0.613848
	C155	C	0.109437	0.317361	0.365885
	C156	C	0.888208	0.375057	0.671778
	C157	C	0.108646	0.622477	0.673055
	C158	C	0.887127	0.619985	0.311654
	C159	C	0.109023	0.375405	0.307802
	C160	C	0.373156	0.680023	0.879675
	C161	C	0.618922	0.676772	0.100321
	C162	C	0.621893	0.314203	0.879992
	C163	C	0.376660	0.319011	0.102828
	C164	C	0.680774	0.889570	0.368374
	C165	C	0.681299	0.109175	0.615782
	C166	C	0.317699	0.887438	0.613094
	C167	C	0.316727	0.108557	0.366393
	C168	C	0.874298	0.387744	0.172356
	C169	C	0.119906	0.609202	0.170432
	C170	C	0.121543	0.387541	0.808933
	C171	C	0.871460	0.606990	0.807062
	C172	C	0.180229	0.874288	0.380022
	C173	C	0.182180	0.124089	0.599792
	C174	C	0.817427	0.123585	0.380735
	C175	C	0.816284	0.874526	0.600368
	C176	C	0.388226	0.180628	0.865540
	C177	C	0.607546	0.181438	0.115996
	C178	C	0.388724	0.816607	0.115021
	C179	C	0.607146	0.814865	0.865612
	C180	C	0.389340	0.874682	0.173451
	C181	C	0.608455	0.122321	0.172953
	C182	C	0.388944	0.123539	0.806190
	C183	C	0.608059	0.873310	0.807992
	C184	C	0.876292	0.179931	0.379763
	C185	C	0.124775	0.182100	0.599602
	C186	C	0.122417	0.816649	0.379979
	C187	C	0.873778	0.816367	0.600457
	C188	C	0.179697	0.387704	0.866193
	C189	C	0.178593	0.608846	0.113719
	C190	C	0.815444	0.388086	0.115627
	C191	C	0.811923	0.605442	0.863103
	C192	C	0.402785	0.088506	0.584754
	C193	C	0.596112	0.908091	0.585125
	C194	C	0.595856	0.091467	0.395529
	C195	C	0.401783	0.907078	0.394905
	C196	C	0.593236	0.401904	0.081110
	C197	C	0.591323	0.590752	0.898673
	C198	C	0.399808	0.595363	0.082013
	C199	C	0.401165	0.401650	0.899309
	C200	C	0.089483	0.595353	0.393214
	C201	C	0.908578	0.594848	0.586676
	C202	C	0.087991	0.403873	0.585495
	C203	C	0.908369	0.401115	0.393343
	C204	C	0.901367	0.588322	0.084865
	C205	C	0.096503	0.406239	0.087141
	C206	C	0.094088	0.588813	0.895245
	C207	C	0.903843	0.408031	0.896109
	C208	C	0.094940	0.902954	0.581363
	C209	C	0.094565	0.093668	0.399626
	C210	C	0.904014	0.094897	0.581678
	C211	C	0.903012	0.903271	0.399531
	C212	C	0.587159	0.092875	0.895203
	C213	C	0.408122	0.094696	0.088039
	C214	C	0.589451	0.899868	0.087431
	C215	C	0.408353	0.902769	0.893799
	Zn216	Zn	0.498646	-0.002292	0.739023
	Zn217	Zn	0.499794	-0.001650	0.242151
	Zn218	Zn	0.747100	0.496608	-0.010156
	Zn219	Zn	0.248269	0.497928	-0.009790
	Zn220	Zn	-0.001250	0.749394	0.490702
	Zn221	Zn	-0.000321	0.248494	0.490269
	Zn222	Zn	-0.001724	0.498291	0.740794
	Zn223	Zn	-0.002241	0.498435	0.239389
	Zn224	Zn	0.497260	0.746848	-0.010239
	Zn225	Zn	0.497497	0.248151	-0.009333
	Zn226	Zn	0.749457	-0.000060	0.490956
	Zn227	Zn	0.248202	-0.001574	0.490420
	N228	N	0.413251	0.961401	0.668124
	N229	N	0.585420	0.034558	0.669578
	N230	N	0.585929	0.963766	0.312809
	N231	N	0.413363	0.034736	0.312392
	N232	N	0.679497	0.407461	0.955663
	N233	N	0.676418	0.583264	0.024546
	N234	N	0.316531	0.586173	0.954983
	N235	N	0.319401	0.412619	0.027013
	N236	N	0.962743	0.678298	0.404619
	N237	N	0.034385	0.678766	0.577690
	N238	N	0.962929	0.318519	0.576852
	N239	N	0.034818	0.317878	0.402345
	N240	N	0.962327	0.412185	0.670131
	N241	N	0.033688	0.586753	0.672507
	N242	N	0.962288	0.584495	0.311165
	N243	N	0.034063	0.411290	0.308690
	N244	N	0.409067	0.679060	0.954989
	N245	N	0.582170	0.675093	0.025535
	N246	N	0.584349	0.317016	0.954629
	N247	N	0.411779	0.318833	0.027051
	N248	N	0.680287	0.965164	0.403835
	N249	N	0.680817	0.034213	0.578915
	N250	N	0.318063	0.962870	0.577224
	N251	N	0.316902	0.033032	0.402001
	N252	N	0.911727	0.462076	0.169221
	N253	N	0.084287	0.533977	0.169616
	N254	N	0.084780	0.462432	0.810593
	N255	N	0.911190	0.533832	0.810755
	N256	N	0.178977	0.911320	0.454866
	N257	N	0.179473	0.085964	0.525528
	N258	N	0.818507	0.087448	0.456020
	N259	N	0.818512	0.912081	0.525770
	N260	N	0.461929	0.178078	0.903620
	N261	N	0.532994	0.180026	0.079338
	N262	N	0.463046	0.817063	0.077903
	N263	N	0.532668	0.816465	0.902163
	N264	N	0.464031	0.910692	0.172202
	N265	N	0.534516	0.085073	0.171409
	N266	N	0.462959	0.086188	0.807973
	N267	N	0.534185	0.910938	0.809528
	N268	N	0.913182	0.178303	0.454541
	N269	N	0.087125	0.179459	0.525253
	N270	N	0.085695	0.818584	0.454904
	N271	N	0.911287	0.818408	0.525966
	N272	N	0.178830	0.462755	0.902670
	N273	N	0.178684	0.533411	0.077848
	N274	N	0.816614	0.462538	0.078131
	N275	N	0.814980	0.531280	0.901140
	O276	O	0.455049	0.286535	0.593877
	H277	H	0.456962	0.289012	0.575234
	H278	H	0.465665	0.275627	0.595749
	O279	O	0.691138	0.631824	0.533774
	H280	H	0.704359	0.608109	0.531404
	H281	H	0.676666	0.624717	0.509097
	O282	O	0.788457	0.787356	0.177147
	H283	H	0.780575	0.793747	0.187998
	H284	H	0.777532	0.791511	0.176133
	O285	O	0.814530	0.185888	0.803139
	H286	H	0.807928	0.163331	0.821048
	H287	H	0.826548	0.176026	0.807199
	O288	O	0.140861	0.149493	-0.191973
	H289	H	0.118517	0.133478	-0.186498
	H290	H	0.141080	0.142004	-0.176674
	O291	O	0.858346	0.962022	0.058996
	H292	H	0.863305	0.958712	0.060249
	H293	H	0.850629	0.954134	0.061446
	O294	O	0.184703	0.818829	-0.200111
	H295	H	0.132619	0.803858	-0.211486
	H296	H	0.197500	0.801252	-0.155291
	O297	O	0.526791	0.293358	0.285134
	H298	H	0.529295	0.284145	0.284717
	H299	H	0.510182	0.298612	0.272850
	O300	O	0.530561	0.572648	0.497579
	H301	H	0.538533	0.574920	0.514798
	H302	H	0.524654	0.550666	0.496378
	O303	O	0.302338	0.308085	0.684429
	H304	H	0.314260	0.284071	0.704141
	H305	H	0.312540	0.297248	0.653336
	O306	O	-0.197274	0.974664	1.112880
	H307	H	-0.184975	0.973828	1.112632
	H308	H	-0.194455	0.966918	1.123661
	O309	O	1.218146	0.938393	1.060178
	H310	H	1.225466	0.963898	1.082101
	H311	H	1.219045	0.963986	1.034134
	O312	O	0.712761	0.290319	0.466153
	H313	H	0.717257	0.296212	0.459267
	H314	H	0.720994	0.271013	0.465148
	O315	O	-0.090046	0.061612	1.110717
	H316	H	-0.084268	0.058566	1.106621
	H317	H	-0.071586	0.060152	1.113438
	O318	O	-0.302814	0.549865	0.513078
	H319	H	-0.299919	0.547544	0.518312
	H320	H	-0.312999	0.546839	0.506765
	O321	O	0.649484	0.428715	0.636300
	H322	H	0.639480	0.441130	0.649584
	H323	H	0.668266	0.426454	0.642510
	O324	O	0.828463	-0.174367	1.010249
	H325	H	0.810238	-0.172801	1.013598
	H326	H	0.825327	-0.161131	1.029664
	O327	O	1.290642	0.529415	0.290501
	H328	H	1.287294	0.525689	0.298660
	H329	H	1.288069	0.528212	0.289012
	O330	O	1.014450	-0.063828	-0.010283
	H331	H	1.012606	-0.070489	-0.009081
	H332	H	1.033330	-0.061704	-0.015790
	O333	O	1.215347	0.782138	0.959640
	H334	H	1.239841	0.773390	0.972648
	H335	H	1.228061	0.788547	0.974619
	O336	O	0.780895	0.023859	0.773864
	H337	H	0.766701	0.018382	0.750484
	H338	H	0.793804	0.008637	0.765445
	O339	O	0.473309	0.664162	0.282488
	H340	H	0.450639	0.667641	0.270077
	H341	H	0.454936	0.668995	0.285082
	O342	O	0.620863	0.550051	0.290749
	H343	H	0.606811	0.528650	0.307203
	H344	H	0.623659	0.551284	0.267775
	O345	O	0.025295	0.212246	0.203454
	H346	H	0.021913	0.227284	0.195128
	H347	H	0.015901	0.229011	0.204546
	O348	O	1.208264	0.181258	1.103474
	H349	H	1.234216	0.197558	1.100254
	H350	H	1.187719	0.184418	1.121119
	O351	O	1.048092	0.991869	0.070854
	H352	H	1.051257	0.978693	0.072300
	H353	H	1.044890	0.994652	0.080768
	O354	O	0.558947	0.658934	0.682378
	H355	H	0.581135	0.689153	0.693537
	H356	H	0.568082	0.667064	0.667451
	O357	O	0.968414	1.064571	0.808809
	H358	H	0.978086	1.061461	0.793976
	H359	H	0.976423	1.055668	0.812526
	O360	O	0.311974	0.691103	0.297406
	H361	H	0.299003	0.660754	0.297885
	H362	H	0.300156	0.701691	0.299992
	O363	O	-0.059578	0.786553	0.210525
	H364	H	-0.077249	0.787147	0.197560
	H365	H	-0.079588	0.762233	0.234859
	O366	O	1.026301	-0.222007	0.768867
	H367	H	1.003200	-0.231400	0.794401
	H368	H	1.019687	-0.257323	0.746711
	O369	O	0.481866	0.692642	0.476487
	H370	H	0.461123	0.695838	0.469332
	H371	H	0.472913	0.701062	0.472475
	O372	O	0.626362	0.298509	0.432910
	H373	H	0.597705	0.296486	0.418549
	H374	H	0.636014	0.306771	0.437010
	O375	O	0.569591	0.587199	0.366935
	H376	H	0.560402	0.574284	0.372453
	H377	H	0.574339	0.594841	0.361977
	O378	O	0.290072	0.428989	0.631806
	H379	H	0.297420	0.410586	0.628128
	H380	H	0.261395	0.415656	0.656871
	O381	O	1.006558	0.041922	-0.105520
	H382	H	1.010857	0.039144	-0.102742
	H383	H	1.007671	0.029616	-0.109585
	O384	O	0.025621	-0.082255	0.918668
	H385	H	0.038841	-0.072181	0.923810
	H386	H	0.029510	-0.079644	0.918742
	O387	O	-0.183218	1.003599	0.983316
	H388	H	-0.187629	1.008830	0.978876
	H389	H	-0.171091	1.016173	0.974801
	O390	O	0.137086	0.195606	1.006765
	H391	H	0.135422	0.201391	1.012412
	H392	H	0.137858	0.200195	1.001169
	O393	O	1.151263	0.809710	0.141535
	H394	H	1.146774	0.827110	0.132026
	H395	H	1.137654	0.824963	0.137216
	O396	O	0.539020	0.414502	0.571025
	H397	H	0.548687	0.422524	0.568158
	H398	H	0.528800	0.424121	0.580417
	O399	O	0.469414	0.623558	0.603904
	H400	H	0.478379	0.626226	0.620139
	H401	H	0.482446	0.633323	0.610880
	O402	O	0.114222	-0.033378	1.205572
	H403	H	0.119648	-0.027818	1.213937
	H404	H	0.105674	-0.041868	1.212633
	O405	O	-0.121837	-0.035528	-0.072131
	H406	H	-0.127572	-0.046523	-0.072928
	H407	H	-0.115745	-0.039408	-0.059821
	O408	O	0.328741	0.295798	0.504643
	H409	H	0.314818	0.289107	0.507814
	H410	H	0.350867	0.293382	0.509118
	O411	O	0.698737	0.637298	0.633522
	H412	H	0.712567	0.636765	0.621810
	H413	H	0.689628	0.621237	0.632565
	O414	O	0.394422	0.426132	0.590336
	H415	H	0.399376	0.424497	0.613838
	H416	H	0.407036	0.444272	0.597320
	O417	O	0.358311	0.470873	0.469094
	H418	H	0.357247	0.471102	0.484369
	H419	H	0.378698	0.467986	0.466664
	O420	O	0.484164	0.496900	0.328240
	H421	H	0.504925	0.503367	0.338345
	H422	H	0.495934	0.501121	0.335368
	O423	O	-0.069024	1.203040	-0.078652
	H424	H	-0.081790	1.225007	-0.107069
	H425	H	-0.090561	1.182562	-0.078630
	O426	O	0.973874	1.202275	1.055391
	H427	H	0.986469	1.191880	1.053350
	H428	H	0.955418	1.196823	1.035090
	O429	O	0.218659	-0.022864	0.769990
	H430	H	0.224644	-0.053053	0.770972
	H431	H	0.236992	-0.047640	0.748880
	O432	O	0.375862	0.344541	0.333727
	H433	H	0.370058	0.368050	0.334572
	H434	H	0.390122	0.359060	0.348880
	O435	O	-0.127665	0.005056	0.191918
	H436	H	-0.104273	0.002297	0.196420
	H437	H	-0.120925	0.021443	0.201067
	O438	O	0.781323	0.217311	-0.035774
	H439	H	0.756972	0.231273	-0.032934
	H440	H	0.773046	0.206959	-0.031250
	O441	O	0.607179	0.685604	0.464073
	H442	H	0.613828	0.678697	0.479333
	H443	H	0.596682	0.687511	0.466125
	O444	O	-0.053103	0.930348	0.864668
	H445	H	-0.041473	0.917083	0.869840
	H446	H	-0.042306	0.939972	0.870147
	O447	O	0.891122	0.792972	0.870505
	H448	H	0.905970	0.809160	0.886001
	H449	H	0.893065	0.798574	0.892021
	O450	O	0.541789	0.503276	0.704019
	H451	H	0.539063	0.499367	0.713855
	H452	H	0.542916	0.517766	0.716684
	O453	O	0.300887	0.679319	0.474641
	H454	H	0.284604	0.678780	0.479859
	H455	H	0.302582	0.670735	0.463960
	O456	O	0.698055	0.387940	0.292893
	H457	H	0.701196	0.383762	0.294517
	H458	H	0.689903	0.370955	0.295360
	O459	O	0.453962	0.490755	0.648640
	H460	H	0.438152	0.503518	0.642442
	H461	H	0.439461	0.463205	0.659821
	O462	O	0.182404	1.108905	1.203275
	H463	H	0.188482	1.119572	1.213633
	H464	H	0.169343	1.113522	1.220052
	O465	O	1.228503	0.039249	-0.063360
	H466	H	1.231419	0.041062	-0.089323
	H467	H	1.224113	0.061006	-0.072143
