data_Molecule from HDF5

_cell_length_a		16.342049
_cell_length_b		16.248317
_cell_length_c		16.179321
_cell_angle_alpha	91.011171
_cell_angle_beta	90.475241
_cell_angle_gamma	90.881968
_symmetry_space_group_name_H-M	'P 1'
_symmetry_Int_Tables_number		1

loop_
	_symmetry_equiv_pos_as_xyz
	x,y,z

loop_
	_atom_site_label
	_atom_site_type_symbol
	_atom_site_fract_x
	_atom_site_fract_y
	_atom_site_fract_z
	H0	H	0.375218	0.829207	0.707199
	H1	H	0.578520	0.158006	0.717976
	H2	H	0.568466	0.831971	0.279733
	H3	H	0.377650	0.160222	0.287918
	H4	H	0.688188	0.393025	0.834846
	H5	H	0.695904	0.602736	0.161595
	H6	H	0.259176	0.593789	0.836379
	H7	H	0.260761	0.396341	0.161941
	H8	H	0.812406	0.704994	0.398104
	H9	H	0.136813	0.717820	0.604157
	H10	H	0.813903	0.276254	0.597124
	H11	H	0.137572	0.278380	0.397101
	H12	H	0.813067	0.394757	0.711861
	H13	H	0.138778	0.599062	0.717218
	H14	H	0.814014	0.589205	0.281997
	H15	H	0.138796	0.394358	0.282094
	H16	H	0.377885	0.702567	0.832936
	H17	H	0.579069	0.716982	0.161348
	H18	H	0.573435	0.276383	0.836054
	H19	H	0.376079	0.284009	0.163075
	H20	H	0.686861	0.830768	0.393547
	H21	H	0.697075	0.155884	0.605109
	H22	H	0.255402	0.832202	0.593949
	H23	H	0.258048	0.158054	0.397025
	H24	H	0.878796	0.329837	0.204936
	H25	H	0.079813	0.658118	0.219374
	H26	H	0.071170	0.331869	0.781910
	H27	H	0.880654	0.659546	0.786773
	H28	H	0.185149	0.892761	0.333487
	H29	H	0.193260	0.098791	0.661697
	H30	H	0.758557	0.090066	0.335234
	H31	H	0.758013	0.894104	0.662045
	H32	H	0.311812	0.207056	0.899809
	H33	H	0.636240	0.216571	0.103877
	H34	H	0.312666	0.778835	0.092652
	H35	H	0.638353	0.780393	0.896663
	H36	H	0.310180	0.897849	0.206745
	H37	H	0.636358	0.100568	0.218790
	H38	H	0.311700	0.090000	0.783220
	H39	H	0.638316	0.897913	0.783041
	H40	H	0.875265	0.204092	0.333913
	H41	H	0.079384	0.215144	0.661743
	H42	H	0.070206	0.777331	0.335179
	H43	H	0.875748	0.782560	0.663595
	H44	H	0.187688	0.331748	0.898150
	H45	H	0.196640	0.658371	0.104175
	H46	H	0.755548	0.334309	0.097445
	H47	H	0.762672	0.659114	0.898640
	H48	H	0.381263	0.110919	0.589623
	H49	H	0.571511	0.876033	0.587147
	H50	H	0.565388	0.109578	0.411621
	H51	H	0.374976	0.878769	0.404652
	H52	H	0.564776	0.402444	0.116786
	H53	H	0.564813	0.588128	0.881372
	H54	H	0.387544	0.590223	0.115951
	H55	H	0.389820	0.400436	0.883475
	H56	H	0.091520	0.582421	0.404527
	H57	H	0.858731	0.596771	0.585060
	H58	H	0.092577	0.408536	0.596823
	H59	H	0.860847	0.393525	0.406400
	H60	H	0.092120	0.400110	0.586653
	H61	H	0.865009	0.576702	0.586989
	H62	H	0.093339	0.595844	0.409084
	H63	H	0.861847	0.404455	0.403868
	H64	H	0.386435	0.588781	0.116060
	H65	H	0.573562	0.589984	0.878924
	H66	H	0.574605	0.412332	0.116351
	H67	H	0.378054	0.392024	0.877986
	H68	H	0.570604	0.110607	0.413843
	H69	H	0.562505	0.877354	0.593811
	H70	H	0.386389	0.112118	0.595523
	H71	H	0.375666	0.876661	0.397186
	H72	H	0.881788	0.615459	0.095242
	H73	H	0.076708	0.380148	0.078168
	H74	H	0.069293	0.611910	0.908862
	H75	H	0.875519	0.380111	0.912638
	H76	H	0.066066	0.904736	0.616117
	H77	H	0.071906	0.081956	0.380710
	H78	H	0.888441	0.086934	0.613952
	H79	H	0.882348	0.899618	0.382756
	H80	H	0.590322	0.084740	0.907394
	H81	H	0.358358	0.089414	0.091384
	H82	H	0.592848	0.905990	0.096117
	H83	H	0.355850	0.892367	0.895747
	H84	H	0.590513	0.903557	0.084557
	H85	H	0.357917	0.088791	0.093745
	H86	H	0.591139	0.091302	0.909051
	H87	H	0.359476	0.893556	0.909135
	H88	H	0.884167	0.089280	0.615990
	H89	H	0.061751	0.082769	0.383023
	H90	H	0.070505	0.908034	0.616238
	H91	H	0.879463	0.895311	0.380677
	H92	H	0.071844	0.611645	0.911828
	H93	H	0.074921	0.372655	0.100018
	H94	H	0.894711	0.611014	0.095832
	H95	H	0.876831	0.375137	0.896410
	H96	H	0.388519	0.109291	0.588814
	H97	H	0.562566	0.881325	0.584028
	H98	H	0.569084	0.111032	0.408877
	H99	H	0.381265	0.879729	0.401846
	H100	H	0.561623	0.414406	0.111867
	H101	H	0.571242	0.581913	0.881931
	H102	H	0.387944	0.588423	0.115063
	H103	H	0.376415	0.406848	0.882102
	H104	H	0.087774	0.586045	0.418105
	H105	H	0.856004	0.587032	0.604028
	H106	H	0.087643	0.411576	0.584991
	H107	H	0.857702	0.396280	0.396565
	H108	H	0.887408	0.609397	0.084495
	H109	H	0.057553	0.382716	0.089579
	H110	H	0.072964	0.613810	0.908960
	H111	H	0.890011	0.381688	0.904760
	H112	H	0.065261	0.909344	0.614454
	H113	H	0.066722	0.091144	0.379658
	H114	H	0.884409	0.084259	0.615473
	H115	H	0.876520	0.900166	0.380808
	H116	H	0.588840	0.087286	0.913546
	H117	H	0.357453	0.091036	0.092565
	H118	H	0.587256	0.914775	0.089390
	H119	H	0.360880	0.904800	0.901204
	C120	C	0.354194	0.002846	0.618453
	C121	C	0.597142	0.985468	0.620674
	C122	C	0.595161	0.002942	0.378395
	C123	C	0.350935	0.987119	0.375153
	C124	C	0.595787	0.376680	0.007548
	C125	C	0.599741	0.619061	0.989013
	C126	C	0.356970	0.615620	0.007261
	C127	C	0.353330	0.372961	0.989967
	C128	C	-0.016251	0.614784	0.379202
	C129	C	0.967065	0.618371	0.622764
	C130	C	-0.015703	0.375141	0.618679
	C131	C	0.967341	0.370113	0.374025
	C132	C	0.856409	0.503923	0.118997
	C133	C	0.100144	0.486598	0.121322
	C134	C	0.097723	0.504231	0.878735
	C135	C	0.853809	0.487419	0.876799
	C136	C	0.094474	0.875510	0.507016
	C137	C	0.097934	0.117471	0.489181
	C138	C	0.854736	0.114354	0.507107
	C139	C	0.851767	0.871428	0.490293
	C140	C	0.482565	0.115430	0.879261
	C141	C	0.465346	0.120306	0.123001
	C142	C	0.482951	0.876652	0.117524
	C143	C	0.466647	0.870445	0.874198
	C144	C	0.355031	0.878824	0.670840
	C145	C	0.598094	0.108727	0.679372
	C146	C	0.590202	0.880466	0.318962
	C147	C	0.355949	0.110707	0.323307
	C148	C	0.650758	0.374488	0.884051
	C149	C	0.657319	0.621504	0.112414
	C150	C	0.298901	0.612961	0.884560
	C151	C	0.298551	0.376485	0.113158
	C152	C	0.861455	0.668068	0.378817
	C153	C	0.088732	0.677953	0.623123
	C154	C	0.862085	0.316223	0.617037
	C155	C	0.089351	0.315886	0.376924
	C156	C	0.861544	0.375140	0.673864
	C157	C	0.089476	0.619086	0.679646
	C158	C	0.862104	0.610665	0.320902
	C159	C	0.089807	0.373514	0.319422
	C160	C	0.358278	0.667222	0.882903
	C161	C	0.599269	0.678292	0.112112
	C162	C	0.593687	0.316276	0.884803
	C163	C	0.355718	0.320222	0.113730
	C164	C	0.648764	0.879780	0.375949
	C165	C	0.656769	0.107781	0.622889
	C166	C	0.295240	0.880342	0.614703
	C167	C	0.296509	0.109526	0.377842
	C168	C	0.857600	0.379956	0.170085
	C169	C	0.099651	0.609347	0.180169
	C170	C	0.092655	0.380751	0.820744
	C171	C	0.858913	0.610387	0.823407
	C172	C	0.148066	0.874214	0.382892
	C173	C	0.155324	0.118628	0.612473
	C174	C	0.797214	0.110711	0.384083
	C175	C	0.796384	0.874186	0.613289
	C176	C	0.360229	0.169120	0.880460
	C177	C	0.587599	0.178003	0.123452
	C178	C	0.360766	0.818250	0.113675
	C179	C	0.589519	0.817553	0.876570
	C180	C	0.359542	0.877516	0.170245
	C181	C	0.587562	0.119968	0.180307
	C182	C	0.360305	0.111234	0.822132
	C183	C	0.589545	0.875825	0.819881
	C184	C	0.855695	0.167262	0.383290
	C185	C	0.098156	0.175937	0.612661
	C186	C	0.090972	0.816749	0.383701
	C187	C	0.855017	0.818747	0.614046
	C188	C	0.150701	0.380884	0.878242
	C189	C	0.157663	0.609513	0.122979
	C190	C	0.796081	0.382242	0.116702
	C191	C	0.800179	0.610168	0.879038
	C192	C	0.378424	0.088421	0.597410
	C193	C	0.572577	0.900284	0.595828
	C194	C	0.574496	0.088352	0.404033
	C195	C	0.371286	0.900698	0.395375
	C196	C	0.573592	0.402341	0.092950
	C197	C	0.576608	0.593908	0.903160
	C198	C	0.380419	0.595162	0.093420
	C199	C	0.375058	0.393702	0.903575
	C200	C	0.069008	0.594099	0.403452
	C201	C	0.881996	0.594060	0.598770
	C202	C	0.068894	0.399521	0.596120
	C203	C	0.882261	0.391875	0.395743
	C204	C	0.880890	0.589812	0.097969
	C205	C	0.076682	0.400759	0.096464
	C206	C	0.077440	0.590207	0.902891
	C207	C	0.874570	0.401365	0.898314
	C208	C	0.073523	0.900209	0.593247
	C209	C	0.073941	0.092483	0.403553
	C210	C	0.878700	0.093160	0.593108
	C211	C	0.873266	0.892189	0.403816
	C212	C	0.568063	0.094009	0.902984
	C213	C	0.380017	0.096601	0.099262
	C214	C	0.568001	0.901008	0.096254
	C215	C	0.380827	0.890854	0.895591
	Zn216	Zn	0.475091	-0.006195	0.748318
	Zn217	Zn	0.473298	-0.003424	0.249096
	Zn218	Zn	0.726178	0.496909	-0.001665
	Zn219	Zn	0.227707	0.495817	-0.000756
	Zn220	Zn	-0.025735	0.745436	0.499846
	Zn221	Zn	-0.024393	0.243830	0.497891
	Zn222	Zn	-0.024238	0.495570	0.749602
	Zn223	Zn	-0.022959	0.494287	0.247891
	Zn224	Zn	0.476530	0.744560	-0.002748
	Zn225	Zn	0.474309	0.246886	-0.000078
	Zn226	Zn	0.724992	-0.007017	0.498952
	Zn227	Zn	0.224122	-0.004031	0.496522
	N228	N	0.390911	0.956031	0.673470
	N229	N	0.561793	0.031791	0.678278
	N230	N	0.557818	0.958128	0.320150
	N231	N	0.388893	0.033378	0.321339
	N232	N	0.652320	0.411408	0.961283
	N233	N	0.657946	0.585491	0.034760
	N234	N	0.298137	0.581308	0.962798
	N235	N	0.296924	0.408665	0.035179
	N236	N	0.938122	0.670561	0.414625
	N237	N	0.011504	0.677869	0.588583
	N238	N	0.939271	0.315938	0.583447
	N239	N	0.012334	0.313472	0.410131
	N240	N	0.938270	0.411111	0.674960
	N241	N	0.012927	0.582799	0.679576
	N242	N	0.939377	0.578390	0.320895
	N243	N	0.012876	0.406738	0.317448
	N244	N	0.393821	0.668940	0.960248
	N245	N	0.564537	0.677154	0.034372
	N246	N	0.560035	0.317555	0.962356
	N247	N	0.389192	0.317871	0.036017
	N248	N	0.652131	0.956973	0.412159
	N249	N	0.656470	0.030325	0.587136
	N250	N	0.294811	0.958255	0.582695
	N251	N	0.293253	0.031516	0.409315
	N252	N	0.894396	0.456743	0.171710
	N253	N	0.064852	0.531840	0.179445
	N254	N	0.060609	0.458619	0.820762
	N255	N	0.891409	0.532870	0.821762
	N256	N	0.150494	0.910108	0.460572
	N257	N	0.155306	0.082941	0.534691
	N258	N	0.796582	0.078567	0.462206
	N259	N	0.794249	0.905980	0.535301
	N260	N	0.437491	0.171902	0.915088
	N261	N	0.510699	0.178413	0.088486
	N262	N	0.438438	0.817568	0.081679
	N263	N	0.512260	0.814017	0.909242
	N264	N	0.436552	0.913002	0.172922
	N265	N	0.510550	0.084680	0.180260
	N266	N	0.437474	0.078658	0.821355
	N267	N	0.511944	0.907817	0.818032
	N268	N	0.890773	0.169649	0.460899
	N269	N	0.063384	0.175415	0.534981
	N270	N	0.058441	0.817503	0.461839
	N271	N	0.888672	0.816689	0.536262
	N272	N	0.153812	0.458491	0.913528
	N273	N	0.158036	0.532149	0.087113
	N274	N	0.795303	0.460578	0.085575
	N275	N	0.796630	0.532439	0.911399
	O276	O	0.532321	-0.321787	1.537425
	H277	H	0.543554	-0.324316	1.563751
	H278	H	0.549579	-0.322662	1.538086
	O279	O	0.626221	0.395544	0.433425
	H280	H	0.631503	0.398325	0.434538
	H281	H	0.630791	0.408013	0.432312
	O282	O	0.689975	1.187852	0.328691
	H283	H	0.689239	1.184742	0.345545
	H284	H	0.690421	1.193361	0.332211
	O285	O	0.525686	0.646808	0.486104
	H286	H	0.538464	0.643943	0.499628
	H287	H	0.531727	0.629865	0.496292
	O288	O	0.590844	0.454796	0.469511
	H289	H	0.592449	0.446858	0.469204
	H290	H	0.579495	0.440125	0.466244
	O291	O	0.493934	-0.681135	1.522043
	H292	H	0.507009	-0.683882	1.527747
	H293	H	0.484749	-0.683756	1.520900
	O294	O	0.921209	0.936844	0.060186
	H295	H	0.928366	0.941510	0.067696
	H296	H	0.923042	0.935991	0.069765
	O297	O	1.022752	1.000752	-0.023509
	H298	H	1.021182	0.994408	-0.014318
	H299	H	1.015810	1.000763	-0.021043
	O300	O	0.607471	0.543948	0.430588
	H301	H	0.609661	0.539472	0.426945
	H302	H	0.608225	0.543235	0.437156
	O303	O	0.497219	0.549587	0.543997
	H304	H	0.489367	0.545237	0.539399
	H305	H	0.509385	0.553875	0.545246
	O306	O	0.476574	0.457862	0.345646
	H307	H	0.474095	0.469538	0.358924
	H308	H	0.464171	0.459001	0.342054
	O309	O	0.442403	0.603041	0.549752
	H310	H	0.442831	0.596380	0.540229
	H311	H	0.435543	0.605417	0.570086
	O312	O	1.349393	0.463359	1.579425
	H313	H	1.346815	0.464358	1.598084
	H314	H	1.338146	0.464461	1.573536
	O315	O	0.974791	0.920209	-0.040022
	H316	H	0.978353	0.912905	-0.024547
	H317	H	0.970626	0.911667	-0.039669
	O318	O	1.041939	0.050902	0.035091
	H319	H	1.039993	0.062421	0.023292
	H320	H	1.048586	0.046119	0.042841
	O321	O	0.329374	0.528947	0.469727
	H322	H	0.323498	0.531557	0.473698
	H323	H	0.340310	0.546957	0.470782
	O324	O	0.026388	1.029026	0.981345
	H325	H	0.041270	1.034036	0.974771
	H326	H	0.024527	1.031543	0.985117
	O327	O	-0.121606	0.969277	0.941379
	H328	H	-0.122553	0.967007	0.946199
	H329	H	-0.120204	0.973017	0.948891
	O330	O	-0.586498	0.520674	0.436030
	H331	H	-0.602437	0.523095	0.431549
	H332	H	-0.574747	0.525042	0.433808
	O333	O	0.433571	0.418787	0.653458
	H334	H	0.435625	0.416191	0.658584
	H335	H	0.429253	0.429509	0.649251
	O336	O	0.024900	-0.030695	0.033090
	H337	H	0.021174	-0.015330	0.033056
	H338	H	0.030035	-0.024491	0.038672
	O339	O	-0.035514	-0.035725	0.035338
	H340	H	-0.035476	-0.038078	0.040359
	H341	H	-0.039567	-0.042158	0.044209
	O342	O	0.638330	0.647629	0.609390
	H343	H	0.635116	0.644769	0.603396
	H344	H	0.638098	0.650583	0.612818
	O345	O	0.354036	0.530445	1.431106
	H346	H	0.346776	0.541570	1.421161
	H347	H	0.365140	0.524311	1.429185
	O348	O	0.987714	1.019779	0.955328
	H349	H	0.986989	1.015333	0.952571
	H350	H	0.987412	1.013484	0.958846
	O351	O	0.598322	0.525798	0.589912
	H352	H	0.606753	0.522218	0.591811
	H353	H	0.588442	0.540428	0.594029
	O354	O	0.964030	1.028963	-0.971320
	H355	H	0.965581	1.033879	-0.972096
	H356	H	0.960172	1.019381	-0.974974
	O357	O	0.980570	1.033743	0.916162
	H358	H	0.971512	1.031415	0.907238
	H359	H	0.986014	1.023578	0.909817
	O360	O	1.056813	-0.006728	0.984526
	H361	H	1.052781	-0.007420	0.989603
	H362	H	1.053819	-0.000607	0.978620
	O363	O	0.023704	1.104398	0.084274
	H364	H	0.034869	1.110106	0.084373
	H365	H	0.033803	1.104441	0.086112
	O366	O	0.501967	0.406225	0.488920
	H367	H	0.489764	0.398086	0.498270
	H368	H	0.505583	0.400941	0.490178
	O369	O	0.909239	-0.035192	-0.030041
	H370	H	0.906214	-0.029346	-0.028195
	H371	H	0.904712	-0.036232	-0.033911
	O372	O	0.315110	0.453618	0.445860
	H373	H	0.308796	0.463488	0.437450
	H374	H	0.310630	0.454811	0.445615
	O375	O	0.881105	0.019066	0.909667
	H376	H	0.880336	0.014162	0.911339
	H377	H	0.879053	0.024645	0.908325
	O378	O	-0.489985	1.392369	-0.505111
	H379	H	-0.487486	1.392076	-0.507824
	H380	H	-0.510427	1.375492	-0.503085
	O381	O	0.483865	0.588472	0.451863
	H382	H	0.503400	0.596177	0.454926
	H383	H	0.487078	0.591056	0.453467
	O384	O	1.544100	1.337571	-0.446702
	H385	H	1.536890	1.344270	-0.449069
	H386	H	1.545444	1.327538	-0.461062
	O387	O	0.943430	-0.054255	1.024906
	H388	H	0.940343	-0.059969	1.037333
	H389	H	0.929692	-0.060010	1.022650
	O390	O	1.382679	0.465811	0.433913
	H391	H	1.389196	0.475297	0.434262
	H392	H	1.390481	0.465190	0.435029
	O393	O	0.949849	1.055492	0.083517
	H394	H	0.941530	1.068771	0.078699
	H395	H	0.947524	1.054967	0.075224
