data_Molecule from HDF5

_cell_length_a		16.203284
_cell_length_b		16.310584
_cell_length_c		16.174001
_cell_angle_alpha	89.782076
_cell_angle_beta	90.153668
_cell_angle_gamma	90.636566
_symmetry_space_group_name_H-M	'P 1'
_symmetry_Int_Tables_number		1

loop_
	_symmetry_equiv_pos_as_xyz
	x,y,z

loop_
	_atom_site_label
	_atom_site_type_symbol
	_atom_site_fract_x
	_atom_site_fract_y
	_atom_site_fract_z
	H0	H	0.400939	0.848420	0.713727
	H1	H	0.605742	0.173261	0.710770
	H2	H	0.600329	0.847872	0.282292
	H3	H	0.405104	0.173462	0.278864
	H4	H	0.716095	0.415008	0.832065
	H5	H	0.720361	0.611101	0.161353
	H6	H	0.289140	0.608680	0.833529
	H7	H	0.292197	0.412240	0.163504
	H8	H	0.840217	0.723840	0.395376
	H9	H	0.167205	0.729337	0.598663
	H10	H	0.841010	0.290076	0.599764
	H11	H	0.167094	0.295803	0.396697
	H12	H	0.839068	0.410372	0.710859
	H13	H	0.168638	0.609669	0.711212
	H14	H	0.841015	0.607905	0.281500
	H15	H	0.168863	0.413612	0.285257
	H16	H	0.405020	0.724916	0.832680
	H17	H	0.607498	0.728106	0.160529
	H18	H	0.604841	0.295876	0.833580
	H19	H	0.401660	0.291746	0.160766
	H20	H	0.715626	0.847259	0.396996
	H21	H	0.723985	0.172045	0.596976
	H22	H	0.285904	0.847553	0.596579
	H23	H	0.289122	0.173534	0.393990
	H24	H	0.903981	0.346397	0.213157
	H25	H	0.105263	0.673810	0.212350
	H26	H	0.101126	0.346801	0.784266
	H27	H	0.904557	0.672940	0.778840
	H28	H	0.216526	0.912380	0.332132
	H29	H	0.221540	0.111259	0.659507
	H30	H	0.791006	0.107764	0.331142
	H31	H	0.787344	0.908430	0.659901
	H32	H	0.339950	0.225219	0.895457
	H33	H	0.666312	0.229182	0.099197
	H34	H	0.341993	0.791208	0.098546
	H35	H	0.667405	0.797585	0.894753
	H36	H	0.339460	0.909924	0.210216
	H37	H	0.666813	0.112778	0.212619
	H38	H	0.339992	0.109920	0.779550
	H39	H	0.667584	0.913901	0.781984
	H40	H	0.902858	0.227027	0.332820
	H41	H	0.105841	0.225736	0.660492
	H42	H	0.103649	0.795515	0.333553
	H43	H	0.899660	0.790698	0.659363
	H44	H	0.215936	0.346255	0.901568
	H45	H	0.224729	0.672205	0.100970
	H46	H	0.784123	0.348402	0.098674
	H47	H	0.790867	0.674686	0.895666
	H48	H	0.414986	0.124331	0.581476
	H49	H	0.594307	0.892288	0.594987
	H50	H	0.591730	0.127821	0.395831
	H51	H	0.411947	0.899068	0.415902
	H52	H	0.588679	0.420046	0.111676
	H53	H	0.605607	0.607430	0.877195
	H54	H	0.414342	0.601799	0.115613
	H55	H	0.409374	0.420069	0.880125
	H56	H	0.121449	0.606277	0.407736
	H57	H	0.887585	0.595604	0.589924
	H58	H	0.122023	0.417789	0.593039
	H59	H	0.891938	0.421793	0.418694
	H60	H	0.121047	0.416605	0.589586
	H61	H	0.885419	0.604709	0.590729
	H62	H	0.120832	0.604812	0.405931
	H63	H	0.885798	0.425925	0.394683
	H64	H	0.415509	0.601923	0.113283
	H65	H	0.594719	0.597444	0.882491
	H66	H	0.595374	0.416442	0.116012
	H67	H	0.412225	0.417346	0.880106
	H68	H	0.593088	0.123495	0.413209
	H69	H	0.589270	0.896590	0.587028
	H70	H	0.408117	0.128238	0.587569
	H71	H	0.396141	0.889728	0.400632
	H72	H	0.918086	0.627646	0.097739
	H73	H	0.106154	0.390937	0.093739
	H74	H	0.097202	0.625800	0.907670
	H75	H	0.903941	0.393978	0.908665
	H76	H	0.088391	0.920154	0.611253
	H77	H	0.098483	0.100085	0.379554
	H78	H	0.906515	0.104897	0.616566
	H79	H	0.907525	0.917845	0.377841
	H80	H	0.622007	0.102118	0.899240
	H81	H	0.387004	0.100907	0.088060
	H82	H	0.621289	0.918391	0.086652
	H83	H	0.390032	0.927665	0.906672
	H84	H	0.620237	0.924020	0.090252
	H85	H	0.385927	0.102113	0.086901
	H86	H	0.621714	0.111307	0.905860
	H87	H	0.383468	0.914022	0.896610
	H88	H	0.912558	0.091343	0.610127
	H89	H	0.089595	0.104099	0.380614
	H90	H	0.095896	0.912389	0.615861
	H91	H	0.912756	0.918284	0.380665
	H92	H	0.097865	0.626720	0.905073
	H93	H	0.090447	0.393300	0.099970
	H94	H	0.918135	0.622358	0.082877
	H95	H	0.908980	0.393332	0.901294
	H96	H	0.416500	0.126335	0.591425
	H97	H	0.599353	0.893483	0.586519
	H98	H	0.608045	0.129421	0.404408
	H99	H	0.418702	0.893453	0.394075
	H100	H	0.596437	0.423443	0.112980
	H101	H	0.590299	0.613290	0.878740
	H102	H	0.415192	0.603421	0.114934
	H103	H	0.408436	0.416901	0.880497
	H104	H	0.122195	0.607096	0.405057
	H105	H	0.889262	0.601521	0.583131
	H106	H	0.120569	0.419049	0.590792
	H107	H	0.882576	0.403091	0.405226
	H108	H	0.905729	0.628273	0.088658
	H109	H	0.093770	0.397360	0.084032
	H110	H	0.096101	0.625600	0.905082
	H111	H	0.912284	0.396532	0.907908
	H112	H	0.099670	0.924102	0.614387
	H113	H	0.097812	0.109811	0.377081
	H114	H	0.921785	0.104355	0.611736
	H115	H	0.911364	0.913728	0.378412
	H116	H	0.618139	0.102349	0.910394
	H117	H	0.386858	0.100554	0.087166
	H118	H	0.622370	0.918536	0.093002
	H119	H	0.387633	0.911505	0.914516
	C120	C	0.381974	0.018813	0.617329
	C121	C	0.625693	1.001601	0.618333
	C122	C	0.625028	0.019273	0.375039
	C123	C	0.380807	1.001853	0.373504
	C124	C	0.623461	0.391145	0.005302
	C125	C	0.626830	0.634485	0.987907
	C126	C	0.384135	0.631831	0.006154
	C127	C	0.381629	0.388553	0.988973
	C128	C	0.013126	0.633080	0.375981
	C129	C	0.995547	0.631710	0.618260
	C130	C	0.012715	0.387753	0.619579
	C131	C	0.995321	0.389276	0.377080
	C132	C	0.882632	0.518641	0.119502
	C133	C	0.126781	0.501499	0.121206
	C134	C	0.125062	0.518256	0.877412
	C135	C	0.881309	0.502600	0.875429
	C136	C	0.123482	0.890303	0.505196
	C137	C	0.126076	0.133268	0.487160
	C138	C	0.883594	0.130530	0.504703
	C139	C	0.880629	0.886865	0.487342
	C140	C	0.512293	0.133192	0.874669
	C141	C	0.494333	0.131971	0.117792
	C142	C	0.513122	0.889499	0.118843
	C143	C	0.495393	0.890048	0.875769
	C144	C	0.381708	0.896843	0.674648
	C145	C	0.625667	0.124231	0.673160
	C146	C	0.621526	0.896691	0.319636
	C147	C	0.384166	0.124715	0.317250
	C148	C	0.679253	0.393556	0.881596
	C149	C	0.682996	0.631988	0.111854
	C150	C	0.327227	0.629466	0.882723
	C151	C	0.328090	0.390766	0.113571
	C152	C	0.889520	0.686414	0.376206
	C153	C	0.118413	0.689824	0.617825
	C154	C	0.889532	0.329658	0.618758
	C155	C	0.118460	0.334267	0.377764
	C156	C	0.888583	0.389192	0.674187
	C157	C	0.119151	0.630410	0.673980
	C158	C	0.889791	0.628840	0.319580
	C159	C	0.119235	0.392783	0.322127
	C160	C	0.385126	0.687031	0.882108
	C161	C	0.626921	0.690239	0.111446
	C162	C	0.623484	0.334749	0.882194
	C163	C	0.383015	0.331356	0.112236
	C164	C	0.678705	0.896211	0.376865
	C165	C	0.684505	0.123561	0.616674
	C166	C	0.324181	0.896564	0.616637
	C167	C	0.326592	0.124675	0.374680
	C168	C	0.883384	0.395837	0.175714
	C169	C	0.125882	0.624654	0.175712
	C170	C	0.121667	0.395507	0.822208
	C171	C	0.884473	0.624518	0.817990
	C172	C	0.178692	0.892349	0.381317
	C173	C	0.182917	0.131084	0.610781
	C174	C	0.828152	0.128653	0.380839
	C175	C	0.824772	0.888061	0.610597
	C176	C	0.388958	0.187630	0.875687
	C177	C	0.617604	0.190157	0.117884
	C178	C	0.390505	0.830741	0.118032
	C179	C	0.618449	0.835250	0.875833
	C180	C	0.389319	0.889898	0.173648
	C181	C	0.617736	0.132402	0.174735
	C182	C	0.389058	0.130318	0.817922
	C183	C	0.618564	0.893242	0.819859
	C184	C	0.883830	0.188077	0.381736
	C185	C	0.125688	0.188317	0.611129
	C186	C	0.122585	0.834294	0.381864
	C187	C	0.880818	0.829594	0.610249
	C188	C	0.178935	0.395257	0.880329
	C189	C	0.184897	0.623917	0.119779
	C190	C	0.823978	0.396669	0.118557
	C191	C	0.828027	0.625537	0.876336
	C192	C	0.406169	0.104253	0.593710
	C193	C	0.601265	0.916224	0.596272
	C194	C	0.603856	0.104764	0.397886
	C195	C	0.402360	0.916244	0.396697
	C196	C	0.600169	0.413433	0.091183
	C197	C	0.603583	0.612383	0.901816
	C198	C	0.408033	0.609127	0.092301
	C199	C	0.403594	0.411436	0.902655
	C200	C	0.099188	0.612138	0.399364
	C201	C	0.909578	0.607519	0.594915
	C202	C	0.098878	0.410921	0.597709
	C203	C	0.909204	0.410672	0.399563
	C204	C	0.906903	0.603978	0.096527
	C205	C	0.103448	0.415856	0.099097
	C206	C	0.103456	0.603931	0.899517
	C207	C	0.902270	0.416696	0.899061
	C208	C	0.101061	0.912399	0.591415
	C209	C	0.102472	0.111041	0.401347
	C210	C	0.906888	0.107214	0.590635
	C211	C	0.903772	0.909995	0.401152
	C212	C	0.598265	0.111696	0.898372
	C213	C	0.408829	0.108148	0.094285
	C214	C	0.598930	0.913327	0.096599
	C215	C	0.409239	0.911388	0.899078
	Zn216	Zn	0.503313	0.010666	0.747184
	Zn217	Zn	0.503468	0.011164	0.246539
	Zn218	Zn	0.752679	0.511928	-0.003432
	Zn219	Zn	0.254776	0.510187	-0.001370
	Zn220	Zn	0.003517	0.760743	0.496554
	Zn221	Zn	0.004015	0.260267	0.497260
	Zn222	Zn	0.003566	0.509851	0.747583
	Zn223	Zn	0.004937	0.510529	0.249480
	Zn224	Zn	0.505374	0.761908	-0.003043
	Zn225	Zn	0.503317	0.260917	-0.003094
	Zn226	Zn	0.753825	0.009428	0.495692
	Zn227	Zn	0.252606	0.010500	0.495720
	N228	N	0.416859	0.973960	0.675190
	N229	N	0.589694	0.047541	0.674316
	N230	N	0.588834	0.974224	0.318363
	N231	N	0.416982	0.047256	0.316266
	N232	N	0.679476	0.427802	0.959164
	N233	N	0.683250	0.598194	0.034099
	N234	N	0.326462	0.596150	0.960879
	N235	N	0.327132	0.425756	0.035996
	N236	N	0.967330	0.689219	0.410333
	N237	N	0.040306	0.690916	0.584266
	N238	N	0.967735	0.328638	0.585641
	N239	N	0.040411	0.331810	0.411148
	N240	N	0.965954	0.424560	0.675042
	N241	N	0.041695	0.594946	0.674365
	N242	N	0.967690	0.596435	0.319247
	N243	N	0.041632	0.426236	0.321484
	N244	N	0.419676	0.688778	0.960006
	N245	N	0.592662	0.691948	0.033482
	N246	N	0.589474	0.332991	0.960068
	N247	N	0.415620	0.329797	0.033785
	N248	N	0.681220	0.973469	0.410474
	N249	N	0.684615	0.046091	0.583210
	N250	N	0.324250	0.973746	0.581730
	N251	N	0.324349	0.047311	0.408869
	N252	N	0.919073	0.472901	0.176568
	N253	N	0.090389	0.547650	0.176669
	N254	N	0.088823	0.473072	0.820361
	N255	N	0.916820	0.546946	0.817344
	N256	N	0.179410	0.926401	0.459033
	N257	N	0.183573	0.097819	0.532749
	N258	N	0.827937	0.093375	0.458196
	N259	N	0.824486	0.923013	0.533066
	N260	N	0.466749	0.189668	0.909865
	N261	N	0.539977	0.190116	0.083242
	N262	N	0.468374	0.830431	0.084450
	N263	N	0.540734	0.833203	0.909933
	N264	N	0.466579	0.925798	0.174307
	N265	N	0.540374	0.096761	0.174797
	N266	N	0.466935	0.097272	0.817008
	N267	N	0.540848	0.926608	0.819559
	N268	N	0.917715	0.189132	0.459841
	N269	N	0.091116	0.189906	0.533405
	N270	N	0.088951	0.832823	0.459964
	N271	N	0.914893	0.828882	0.532409
	N272	N	0.181023	0.472551	0.914007
	N273	N	0.185791	0.546320	0.086799
	N274	N	0.823232	0.473984	0.084423
	N275	N	0.825914	0.548519	0.911412
	O276	O	0.611769	0.495067	0.509737
	H277	H	0.615263	0.482775	0.503194
	H278	H	0.613526	0.508597	0.499806
	O279	O	1.002579	-0.130074	0.933648
	H280	H	1.015395	-0.127463	0.941073
	H281	H	1.002985	-0.122856	0.928439
	O282	O	0.987551	1.135952	-0.094452
	H283	H	0.987294	1.130508	-0.090997
	H284	H	0.989257	1.137093	-0.077629
	O285	O	0.950799	0.040724	0.933466
	H286	H	0.947496	0.044057	0.928532
	H287	H	0.951211	0.046423	0.928323
	O288	O	0.512764	0.601807	0.395705
	H289	H	0.509850	0.601692	0.391233
	H290	H	0.510695	0.604445	0.402463
	O291	O	0.439773	0.431593	0.514322
	H292	H	0.435269	0.430205	0.500438
	H293	H	0.445401	0.429101	0.523842
	O294	O	0.484121	0.477111	0.427884
	H295	H	0.486117	0.473506	0.427372
	H296	H	0.477492	0.465132	0.426614
	O297	O	0.025827	-0.085987	1.044408
	H298	H	0.025195	-0.101112	1.049823
	H299	H	0.023545	-0.090458	1.051456
	O300	O	0.513615	0.529183	0.469399
	H301	H	0.517236	0.528560	0.468950
	H302	H	0.513726	0.532488	0.473712
	O303	O	0.525045	0.624746	0.510897
	H304	H	0.535906	0.620256	0.500627
	H305	H	0.526907	0.616504	0.508813
	O306	O	-0.080406	1.071701	0.848900
	H307	H	-0.077928	1.079670	0.843864
	H308	H	-0.076959	1.076717	0.845987
	O309	O	0.464874	0.415709	0.550435
	H310	H	0.460807	0.406308	0.566512
	H311	H	0.458048	0.415125	0.545435
	O312	O	-0.053339	-0.007744	0.118522
	H313	H	-0.058384	-0.010406	0.113277
	H314	H	-0.065328	-0.005833	0.123585
	O315	O	1.053204	-0.027909	-0.060741
	H316	H	1.067450	-0.023592	-0.056686
	H317	H	1.052292	-0.025038	-0.071152
	O318	O	1.119590	0.911477	1.056645
	H319	H	1.117672	0.906881	1.042559
	H320	H	1.113760	0.909428	1.056360
	O321	O	-0.045705	0.065575	1.108672
	H322	H	-0.051330	0.064551	1.120405
	H323	H	-0.056457	0.069452	1.093560
	O324	O	0.465769	0.425713	0.532215
	H325	H	0.470485	0.408123	0.527660
	H326	H	0.465800	0.425794	0.519778
	O327	O	0.083692	-0.114330	-0.145083
	H328	H	0.079070	-0.104670	-0.147294
	H329	H	0.085744	-0.105569	-0.148059
	O330	O	0.553742	0.519650	0.479604
	H331	H	0.565401	0.518544	0.480822
	H332	H	0.533891	0.505860	0.481377
	O333	O	0.004298	1.072215	0.981446
	H334	H	0.011290	1.068962	0.991948
	H335	H	-0.000627	1.067896	0.990909
	O336	O	0.102013	0.100852	0.045499
	H337	H	0.097350	0.097856	0.050620
	H338	H	0.107668	0.102450	0.054178
	O339	O	0.467650	0.491730	0.577643
	H340	H	0.470970	0.485468	0.586797
	H341	H	0.469272	0.488714	0.578991
	O342	O	1.071914	0.965973	0.993390
	H343	H	1.072828	0.961427	0.987492
	H344	H	1.075244	0.953042	0.993789
	O345	O	1.007828	0.924679	0.052243
	H346	H	0.991993	0.919994	0.063291
	H347	H	1.019866	0.933077	0.054301
	O348	O	0.484014	0.394248	0.559127
	H349	H	0.489379	0.402628	0.562759
	H350	H	0.483308	0.389366	0.568926
	O351	O	0.513353	0.461760	0.500126
	H352	H	0.505794	0.469215	0.522858
	H353	H	0.513524	0.471761	0.496639
	O354	O	0.033205	0.022682	0.074497
	H355	H	0.036741	0.025894	0.078858
	H356	H	0.025275	0.013728	0.074770
	O357	O	0.892126	0.053640	1.032784
	H358	H	0.890428	0.057061	1.027095
	H359	H	0.885568	0.058544	1.030606
	O360	O	0.536156	0.448333	0.550872
	H361	H	0.536376	0.443722	0.553603
	H362	H	0.537182	0.455293	0.541231
	O363	O	0.461704	0.620349	0.522997
	H364	H	0.467086	0.611855	0.525710
	H365	H	0.460713	0.622884	0.528669
	O366	O	1.083064	0.890269	0.943914
	H367	H	1.094941	0.897553	0.940063
	H368	H	1.075871	0.878906	0.937805
	O369	O	0.881424	0.045905	1.007326
	H370	H	0.871209	0.033648	1.005839
	H371	H	0.886528	0.047743	0.997321
	O372	O	-0.005097	0.167908	-0.087476
	H373	H	-0.002462	0.171332	-0.096240
	H374	H	0.010784	0.169351	-0.074099
	O375	O	0.907783	0.004934	0.042348
	H376	H	0.907720	-0.006983	0.052672
	H377	H	0.903395	0.000980	0.040418
	O378	O	0.470435	0.474512	0.477230
	H379	H	0.463703	0.484414	0.483696
	H380	H	0.473503	0.476117	0.471193
	O381	O	0.499338	0.495887	0.453536
	H382	H	0.493701	0.501198	0.453850
	H383	H	0.494687	0.500512	0.459229
