data_Molecule from HDF5

_cell_length_a		16.385749
_cell_length_b		16.267775
_cell_length_c		16.416327
_cell_angle_alpha	89.924569
_cell_angle_beta	90.251426
_cell_angle_gamma	90.192083
_symmetry_space_group_name_H-M	'P 1'
_symmetry_Int_Tables_number		1

loop_
	_symmetry_equiv_pos_as_xyz
	x,y,z

loop_
	_atom_site_label
	_atom_site_type_symbol
	_atom_site_fract_x
	_atom_site_fract_y
	_atom_site_fract_z
	H0	H	0.392638	0.834743	0.717981
	H1	H	0.598561	0.156954	0.719613
	H2	H	0.597710	0.834361	0.281380
	H3	H	0.386702	0.155371	0.277345
	H4	H	0.711608	0.393195	0.840549
	H5	H	0.716495	0.603695	0.158894
	H6	H	0.271861	0.600545	0.841059
	H7	H	0.268486	0.387422	0.157727
	H8	H	0.833770	0.714944	0.397654
	H9	H	0.154172	0.713660	0.602541
	H10	H	0.832937	0.276626	0.600939
	H11	H	0.154724	0.278429	0.397068
	H12	H	0.832811	0.390692	0.717578
	H13	H	0.152587	0.598224	0.720425
	H14	H	0.835530	0.603920	0.277604
	H15	H	0.152565	0.390727	0.279113
	H16	H	0.393754	0.712130	0.838577
	H17	H	0.596567	0.715385	0.160378
	H18	H	0.593877	0.278095	0.839789
	H19	H	0.388089	0.274680	0.159908
	H20	H	0.711593	0.834233	0.399731
	H21	H	0.711582	0.158736	0.602552
	H22	H	0.276936	0.835012	0.603108
	H23	H	0.274580	0.156873	0.395945
	H24	H	0.888438	0.335793	0.220797
	H25	H	0.101291	0.655015	0.221198
	H26	H	0.092751	0.333463	0.783078
	H27	H	0.886810	0.654293	0.777964
	H28	H	0.215102	0.890787	0.342964
	H29	H	0.217168	0.102438	0.660465
	H30	H	0.768097	0.107604	0.343450
	H31	H	0.776815	0.894877	0.660670
	H32	H	0.333125	0.215475	0.894728
	H33	H	0.652470	0.216882	0.103454
	H34	H	0.333748	0.776345	0.102196
	H35	H	0.652939	0.777730	0.896905
	H36	H	0.335292	0.888489	0.220762
	H37	H	0.650919	0.105605	0.224073
	H38	H	0.335689	0.102213	0.776518
	H39	H	0.654186	0.894046	0.784627
	H40	H	0.891304	0.216757	0.340300
	H41	H	0.097700	0.215717	0.661353
	H42	H	0.100054	0.774444	0.342615
	H43	H	0.891217	0.777553	0.660405
	H44	H	0.212110	0.335308	0.893749
	H45	H	0.212327	0.656677	0.100590
	H46	H	0.773466	0.335436	0.103045
	H47	H	0.774321	0.656989	0.894884
	H48	H	0.412596	0.111128	0.598479
	H49	H	0.599130	0.875930	0.595292
	H50	H	0.583164	0.110808	0.409425
	H51	H	0.408109	0.882417	0.410106
	H52	H	0.575451	0.404951	0.112433
	H53	H	0.576544	0.585400	0.888888
	H54	H	0.399906	0.587354	0.115536
	H55	H	0.403023	0.402364	0.885318
	H56	H	0.107222	0.583580	0.412034
	H57	H	0.877138	0.585322	0.592135
	H58	H	0.108147	0.404065	0.590146
	H59	H	0.878382	0.406167	0.406165
	H60	H	0.106800	0.410653	0.591527
	H61	H	0.877958	0.588458	0.589681
	H62	H	0.108404	0.586158	0.409344
	H63	H	0.880705	0.404293	0.415145
	H64	H	0.401350	0.580308	0.112200
	H65	H	0.586667	0.594369	0.883007
	H66	H	0.589642	0.403257	0.116904
	H67	H	0.397068	0.407843	0.885832
	H68	H	0.577521	0.108842	0.410625
	H69	H	0.576476	0.879491	0.603706
	H70	H	0.410164	0.107190	0.581057
	H71	H	0.404210	0.882313	0.415621
	H72	H	0.906886	0.609669	0.087533
	H73	H	0.085271	0.377849	0.093338
	H74	H	0.076860	0.610328	0.903641
	H75	H	0.898127	0.380044	0.912863
	H76	H	0.089706	0.910660	0.615555
	H77	H	0.089068	0.086607	0.386594
	H78	H	0.904150	0.088838	0.613897
	H79	H	0.905373	0.902147	0.385039
	H80	H	0.606900	0.085672	0.909943
	H81	H	0.379442	0.082527	0.090485
	H82	H	0.608851	0.904262	0.089817
	H83	H	0.377950	0.909832	0.901590
	H84	H	0.606685	0.908993	0.089306
	H85	H	0.379521	0.085200	0.088317
	H86	H	0.608137	0.087554	0.910597
	H87	H	0.376069	0.897819	0.906598
	H88	H	0.902547	0.085176	0.614018
	H89	H	0.083740	0.083176	0.389574
	H90	H	0.080150	0.908910	0.612016
	H91	H	0.897796	0.909830	0.385238
	H92	H	0.079255	0.607661	0.917065
	H93	H	0.073635	0.382485	0.092227
	H94	H	0.903164	0.611440	0.088188
	H95	H	0.900601	0.378546	0.906267
	H96	H	0.396542	0.114628	0.589907
	H97	H	0.581832	0.885659	0.580719
	H98	H	0.582359	0.109163	0.415655
	H99	H	0.402370	0.880662	0.409370
	H100	H	0.584863	0.416240	0.110983
	H101	H	0.589702	0.580828	0.886027
	H102	H	0.407562	0.586053	0.113227
	H103	H	0.404759	0.409586	0.889222
	H104	H	0.107569	0.587144	0.413342
	H105	H	0.880058	0.585005	0.588544
	H106	H	0.108993	0.406282	0.596295
	H107	H	0.882519	0.412828	0.411971
	H108	H	0.905888	0.611543	0.091728
	H109	H	0.081202	0.383255	0.081990
	H110	H	0.088948	0.612630	0.909206
	H111	H	0.905359	0.382126	0.911851
	H112	H	0.085027	0.901388	0.616975
	H113	H	0.082639	0.089303	0.386510
	H114	H	0.906125	0.085647	0.613618
	H115	H	0.907703	0.911923	0.389361
	H116	H	0.607046	0.086481	0.912616
	H117	H	0.380202	0.082064	0.087416
	H118	H	0.608404	0.907546	0.093878
	H119	H	0.381399	0.907566	0.914207
	C120	C	0.374464	0.004859	0.621682
	C121	C	0.616408	0.987318	0.623242
	C122	C	0.614020	0.003743	0.380303
	C123	C	0.372484	0.987655	0.379172
	C124	C	0.613457	0.376459	0.007848
	C125	C	0.616374	0.619210	0.991263
	C126	C	0.372126	0.616224	0.008099
	C127	C	0.369266	0.373028	0.991371
	C128	C	0.002542	0.618048	0.378945
	C129	C	0.984344	0.617337	0.621960
	C130	C	0.001685	0.374979	0.621912
	C131	C	0.985744	0.375645	0.379291
	C132	C	0.872153	0.505127	0.121694
	C133	C	0.113895	0.486713	0.120711
	C134	C	0.113057	0.503916	0.878382
	C135	C	0.870876	0.486543	0.878574
	C136	C	0.116276	0.874544	0.509930
	C137	C	0.116918	0.118745	0.492663
	C138	C	0.872177	0.118786	0.508936
	C139	C	0.872850	0.876153	0.491969
	C140	C	0.502152	0.118001	0.878396
	C141	C	0.484352	0.117184	0.121692
	C142	C	0.502319	0.874134	0.122001
	C143	C	0.484760	0.874929	0.878385
	C144	C	0.373651	0.883296	0.679146
	C145	C	0.617199	0.108873	0.680885
	C146	C	0.616013	0.882632	0.321043
	C147	C	0.369588	0.107669	0.318231
	C148	C	0.671875	0.374705	0.888075
	C149	C	0.676225	0.621359	0.111201
	C150	C	0.312669	0.618199	0.888079
	C151	C	0.308802	0.369839	0.110472
	C152	C	0.882116	0.676430	0.377868
	C153	C	0.105630	0.674694	0.622105
	C154	C	0.881079	0.315692	0.620982
	C155	C	0.106312	0.316973	0.378014
	C156	C	0.880773	0.372842	0.678517
	C157	C	0.104744	0.617552	0.680926
	C158	C	0.883098	0.621140	0.318108
	C159	C	0.105252	0.373043	0.319368
	C160	C	0.372995	0.673988	0.887242
	C161	C	0.616791	0.677538	0.111670
	C162	C	0.613160	0.317675	0.887778
	C163	C	0.368543	0.313609	0.111534
	C164	C	0.672787	0.882607	0.379762
	C165	C	0.673478	0.109723	0.622354
	C166	C	0.316075	0.883308	0.621899
	C167	C	0.313997	0.108677	0.377756
	C168	C	0.870273	0.383900	0.181143
	C169	C	0.118571	0.607333	0.180628
	C170	C	0.112757	0.382369	0.820581
	C171	C	0.868910	0.606896	0.818379
	C172	C	0.175564	0.872643	0.390501
	C173	C	0.176694	0.120412	0.612797
	C174	C	0.810210	0.123397	0.390090
	C175	C	0.815406	0.875611	0.612495
	C176	C	0.381647	0.176724	0.876204
	C177	C	0.604236	0.178163	0.123638
	C178	C	0.382134	0.815009	0.121863
	C179	C	0.605081	0.816815	0.878326
	C180	C	0.382848	0.871039	0.180959
	C181	C	0.603504	0.122281	0.183057
	C182	C	0.383024	0.120577	0.817057
	C183	C	0.605614	0.874695	0.822105
	C184	C	0.871442	0.178161	0.388442
	C185	C	0.117378	0.177116	0.613231
	C186	C	0.117942	0.814617	0.390343
	C187	C	0.872430	0.817067	0.612415
	C188	C	0.171889	0.383138	0.876145
	C189	C	0.173544	0.608154	0.120712
	C190	C	0.812933	0.383702	0.122798
	C191	C	0.812836	0.608009	0.876594
	C192	C	0.399147	0.089260	0.597095
	C193	C	0.592792	0.902553	0.599991
	C194	C	0.588654	0.087733	0.404842
	C195	C	0.397575	0.903558	0.404424
	C196	C	0.589832	0.401020	0.091595
	C197	C	0.591677	0.594158	0.907605
	C198	C	0.396040	0.591644	0.091920
	C199	C	0.394484	0.398996	0.908381
	C200	C	0.085882	0.592970	0.404128
	C201	C	0.900079	0.593457	0.597351
	C202	C	0.086100	0.399911	0.599308
	C203	C	0.902294	0.400498	0.403985
	C204	C	0.897808	0.588742	0.096560
	C205	C	0.087698	0.403082	0.096251
	C206	C	0.088661	0.588221	0.902847
	C207	C	0.894640	0.402321	0.903136
	C208	C	0.091862	0.899701	0.593232
	C209	C	0.092205	0.093715	0.409419
	C210	C	0.897057	0.093831	0.592213
	C211	C	0.896886	0.900640	0.408279
	C212	C	0.585627	0.093668	0.903823
	C213	C	0.401411	0.090878	0.096064
	C214	C	0.586251	0.899741	0.097922
	C215	C	0.400264	0.898334	0.901021
	Zn216	Zn	0.494809	-0.004199	0.750463
	Zn217	Zn	0.493299	-0.004229	0.250672
	Zn218	Zn	0.744133	0.496509	0.000030
	Zn219	Zn	0.241310	0.495325	-0.000770
	Zn220	Zn	-0.006396	0.746789	0.500067
	Zn221	Zn	-0.005483	0.247464	0.500129
	Zn222	Zn	-0.008165	0.494988	0.750969
	Zn223	Zn	-0.005995	0.496269	0.250448
	Zn224	Zn	0.493328	0.746606	-0.000320
	Zn225	Zn	0.492697	0.245882	0.000184
	Zn226	Zn	0.743193	-0.003090	0.500453
	Zn227	Zn	0.245396	-0.003766	0.501341
	N228	N	0.409054	0.960054	0.679279
	N229	N	0.582458	0.031903	0.681588
	N230	N	0.580357	0.959176	0.320920
	N231	N	0.405186	0.031212	0.318811
	N232	N	0.671990	0.410638	0.963721
	N233	N	0.676368	0.586154	0.035086
	N234	N	0.311809	0.583100	0.964295
	N235	N	0.309050	0.405843	0.034640
	N236	N	0.957432	0.674701	0.414940
	N237	N	0.029572	0.674884	0.586438
	N238	N	0.957269	0.317044	0.586396
	N239	N	0.030997	0.318455	0.414687
	N240	N	0.956841	0.408790	0.679381
	N241	N	0.028131	0.582795	0.681060
	N242	N	0.959196	0.585755	0.318350
	N243	N	0.029350	0.408603	0.320025
	N244	N	0.409307	0.672700	0.962793
	N245	N	0.580599	0.676549	0.035987
	N246	N	0.577512	0.318565	0.963304
	N247	N	0.405289	0.315419	0.036439
	N248	N	0.671791	0.959012	0.415378
	N249	N	0.673143	0.033160	0.587086
	N250	N	0.316342	0.960015	0.587203
	N251	N	0.315689	0.032785	0.414795
	N252	N	0.906290	0.460434	0.180702
	N253	N	0.082200	0.531015	0.180995
	N254	N	0.076681	0.458647	0.821918
	N255	N	0.904154	0.530462	0.819200
	N256	N	0.174499	0.909419	0.465858
	N257	N	0.176787	0.084901	0.536806
	N258	N	0.810379	0.087433	0.465892
	N259	N	0.815352	0.911676	0.536672
	N260	N	0.456757	0.175453	0.913589
	N261	N	0.529072	0.175329	0.086154
	N262	N	0.457797	0.816607	0.086203
	N263	N	0.529082	0.816887	0.912783
	N264	N	0.458802	0.906991	0.181070
	N265	N	0.528014	0.085350	0.182207
	N266	N	0.458842	0.084781	0.818304
	N267	N	0.529565	0.910300	0.822012
	N268	N	0.909413	0.175282	0.463143
	N269	N	0.080857	0.176179	0.537766
	N270	N	0.081816	0.815680	0.465692
	N271	N	0.907518	0.817329	0.536483
	N272	N	0.172335	0.459788	0.910892
	N273	N	0.170916	0.532149	0.084391
	N274	N	0.813590	0.460067	0.087000
	N275	N	0.813932	0.532161	0.913363
	O276	O	0.660482	0.420155	0.435228
	H277	H	0.668619	0.411306	0.427855
	H278	H	0.666413	0.400717	0.455556
	O279	O	0.687227	0.538949	0.636462
	H280	H	0.689968	0.554300	0.653636
	H281	H	0.694993	0.553841	0.635983
	O282	O	0.673241	0.374038	0.373034
	H283	H	0.660982	0.353057	0.383727
	H284	H	0.681125	0.376417	0.396559
	O285	O	1.049490	0.142974	-0.034986
	H286	H	1.047179	0.145645	-0.039000
	H287	H	1.037138	0.133675	-0.029525
	O288	O	-0.613832	0.549728	0.557425
	H289	H	-0.604708	0.542738	0.556404
	H290	H	-0.619119	0.562891	0.552360
	O291	O	0.559013	0.455455	0.420462
	H292	H	0.565410	0.445752	0.414614
	H293	H	0.568022	0.462486	0.421627
	O294	O	0.496251	0.672905	0.450511
	H295	H	0.504375	0.669451	0.435317
	H296	H	0.500003	0.668114	0.436896
	O297	O	1.196896	1.005079	1.197710
	H298	H	1.209765	1.015070	1.190327
	H299	H	1.207560	1.004138	1.207733
	O300	O	-0.010233	0.054926	0.141805
	H301	H	-0.016641	0.058990	0.140699
	H302	H	-0.010233	0.055028	0.155470
	O303	O	0.648244	0.627938	0.627503
	H304	H	0.621674	0.625396	0.622882
	H305	H	0.645345	0.623379	0.608687
	O306	O	1.126335	-0.084727	-0.188306
	H307	H	1.138049	-0.057214	-0.182706
	H308	H	1.132077	-0.072800	-0.171749
	O309	O	0.380330	0.321431	0.667885
	H310	H	0.361669	0.331737	0.669604
	H311	H	0.372826	0.315875	0.664961
	O312	O	0.833300	0.941228	0.083542
	H313	H	0.815290	0.916215	0.074291
	H314	H	0.844088	0.945853	0.073247
	O315	O	0.614484	0.532816	0.400301
	H316	H	0.624198	0.520967	0.391918
	H317	H	0.611843	0.513838	0.417939
	O318	O	1.077452	0.783037	-0.174857
	H319	H	1.104622	0.773937	-0.176555
	H320	H	1.077002	0.779716	-0.185307
	O321	O	1.598023	-0.360583	1.571306
	H322	H	1.611825	-0.369802	1.553067
	H323	H	1.588394	-0.354198	1.567525
	O324	O	-0.147065	0.076111	0.942516
	H325	H	-0.142604	0.072919	0.936923
	H326	H	-0.135874	0.084171	0.930268
	O327	O	0.432191	0.639380	0.677763
	H328	H	0.422353	0.645983	0.650563
	H329	H	0.433552	0.635596	0.684388
	O330	O	0.392406	0.512216	0.396018
	H331	H	0.404487	0.504326	0.393795
	H332	H	0.396007	0.499950	0.391543
	O333	O	1.167138	0.915472	1.056896
	H334	H	1.147032	0.919817	1.049640
	H335	H	1.177920	0.909265	1.030020
	O336	O	0.684814	0.413350	0.635321
	H337	H	0.686088	0.415021	0.641768
	H338	H	0.680704	0.419920	0.640132
	O339	O	0.873090	0.169852	1.061930
	H340	H	0.876461	0.154036	1.065931
	H341	H	0.858129	0.172111	1.041583
	O342	O	0.049106	1.136025	0.872083
	H343	H	0.033172	1.117323	0.879074
	H344	H	0.046493	1.155957	0.882641
	O345	O	0.188600	1.188237	1.092485
	H346	H	0.155921	1.197379	1.097535
	H347	H	0.196163	1.191246	1.094282
	O348	O	1.004218	1.156356	0.190942
	H349	H	0.985713	1.165082	0.203657
	H350	H	0.990325	1.142990	0.190738
	O351	O	-0.077323	-0.051974	-0.128219
	H352	H	-0.079800	-0.065844	-0.145690
	H353	H	-0.062642	-0.063342	-0.126569
	O354	O	1.196380	1.119724	-0.024700
	H355	H	1.194186	1.137330	-0.009332
	H356	H	1.193919	1.137615	-0.011995
	O357	O	-0.224299	0.979889	0.221919
	H358	H	-0.235614	0.945741	0.235085
	H359	H	-0.230032	0.953443	0.228631
	O360	O	0.390700	0.316937	0.570167
	H361	H	0.390566	0.321344	0.551178
	H362	H	0.395902	0.323642	0.555352
	O363	O	0.404561	0.642567	0.432342
	H364	H	0.404535	0.630403	0.433765
	H365	H	0.398189	0.651914	0.415828
	O366	O	0.298248	0.648593	0.406401
	H367	H	0.303772	0.651254	0.411170
	H368	H	0.296256	0.627233	0.398446
	O369	O	0.426069	0.392644	0.554567
	H370	H	0.431257	0.389510	0.553559
	H371	H	0.423011	0.382758	0.567365
	O372	O	-0.117027	0.797332	-0.055938
	H373	H	-0.085228	0.792432	-0.059776
	H374	H	-0.125189	0.779441	-0.072051
	O375	O	0.346632	0.511447	0.594002
	H376	H	0.347418	0.514301	0.594380
	H377	H	0.351832	0.521334	0.590018
	O378	O	0.588062	0.443925	0.506166
	H379	H	0.587092	0.444087	0.503833
	H380	H	0.565225	0.431778	0.515231
	O381	O	0.595423	0.332677	0.317076
	H382	H	0.597238	0.309686	0.308106
	H383	H	0.600682	0.333142	0.321078
	O384	O	0.048762	0.873985	0.988174
	H385	H	0.050126	0.874566	1.003612
	H386	H	0.047340	0.878612	0.996501
	O387	O	1.443594	0.540260	0.297503
	H388	H	1.449767	0.543404	0.294801
	H389	H	1.439259	0.541102	0.297690
	O390	O	0.562206	0.352148	0.511928
	H391	H	0.561297	0.364768	0.525905
	H392	H	0.563427	0.355289	0.525346
	O393	O	0.901902	0.101289	0.898831
	H394	H	0.891591	0.107597	0.885074
	H395	H	0.922191	0.080424	0.899526
	O396	O	0.187357	0.913745	0.804551
	H397	H	0.190149	0.922141	0.814239
	H398	H	0.197543	0.926542	0.788028
	O399	O	0.438822	0.479206	0.617811
	H400	H	0.449466	0.477653	0.618570
	H401	H	0.441533	0.480260	0.610735
	O402	O	0.918406	0.123455	0.837771
	H403	H	0.916839	0.139248	0.832481
	H404	H	0.933178	0.115749	0.831727
	O405	O	-0.179934	-0.109251	-0.144899
	H406	H	-0.169767	-0.097856	-0.143797
	H407	H	-0.159397	-0.128842	-0.162173
	O408	O	0.800445	0.803006	1.113391
	H409	H	0.814096	0.780773	1.116285
	H410	H	0.801362	0.798905	1.067294
	O411	O	0.982152	0.791469	0.207375
	H412	H	0.978997	0.764738	0.234904
	H413	H	0.978904	0.812091	0.201607
	O414	O	-0.141433	0.040896	0.920967
	H415	H	-0.144610	0.040267	0.933791
	H416	H	-0.145064	0.037339	0.918984
	O417	O	0.302001	0.539196	0.306425
	H418	H	0.300111	0.539129	0.298001
	H419	H	0.300848	0.538269	0.297520
	O420	O	0.165313	0.928654	0.012666
	H421	H	0.174828	0.945303	0.006037
	H422	H	0.145334	0.926409	0.010572
	O423	O	1.138527	-0.142302	0.176618
	H424	H	1.152854	-0.130426	0.183193
	H425	H	1.122438	-0.153788	0.159589
	O426	O	-0.097858	0.072895	1.105022
	H427	H	-0.096782	0.053218	1.100590
	H428	H	-0.113573	0.056955	1.109076
	O429	O	0.421664	0.354185	0.579093
	H430	H	0.407372	0.359330	0.569348
	H431	H	0.421553	0.340661	0.585029
