data_Molecule from HDF5

_cell_length_a		16.544217
_cell_length_b		16.372666
_cell_length_c		16.261464
_cell_angle_alpha	89.819606
_cell_angle_beta	90.001027
_cell_angle_gamma	90.072429
_symmetry_space_group_name_H-M	'P 1'
_symmetry_Int_Tables_number		1

loop_
	_symmetry_equiv_pos_as_xyz
	x,y,z

loop_
	_atom_site_label
	_atom_site_type_symbol
	_atom_site_fract_x
	_atom_site_fract_y
	_atom_site_fract_z
	H0	H	0.401686	0.844837	0.714033
	H1	H	0.609506	0.163883	0.712470
	H2	H	0.611053	0.847051	0.269530
	H3	H	0.398863	0.163574	0.271428
	H4	H	0.726950	0.398652	0.832988
	H5	H	0.729782	0.614760	0.150085
	H6	H	0.283962	0.613698	0.832158
	H7	H	0.283487	0.397779	0.149777
	H8	H	0.847463	0.726397	0.383440
	H9	H	0.161792	0.727818	0.597619
	H10	H	0.848034	0.282099	0.597626
	H11	H	0.160613	0.277742	0.381055
	H12	H	0.848198	0.398474	0.714430
	H13	H	0.163442	0.609784	0.712726
	H14	H	0.847452	0.609824	0.267788
	H15	H	0.163351	0.399284	0.270097
	H16	H	0.399963	0.728463	0.832417
	H17	H	0.612186	0.727591	0.151265
	H18	H	0.610207	0.285481	0.832753
	H19	H	0.399600	0.284306	0.151244
	H20	H	0.728749	0.847719	0.383048
	H21	H	0.730662	0.160679	0.603660
	H22	H	0.280999	0.846035	0.602333
	H23	H	0.278898	0.160722	0.383278
	H24	H	0.900774	0.344859	0.211767
	H25	H	0.112068	0.662173	0.213106
	H26	H	0.110386	0.345668	0.770420
	H27	H	0.900700	0.663464	0.768857
	H28	H	0.229946	0.893915	0.335805
	H29	H	0.224577	0.110117	0.651849
	H30	H	0.778869	0.115477	0.335316
	H31	H	0.780996	0.893132	0.649583
	H32	H	0.348380	0.227962	0.885123
	H33	H	0.660529	0.230900	0.101604
	H34	H	0.349243	0.780954	0.101319
	H35	H	0.660209	0.779031	0.881563
	H36	H	0.348426	0.898617	0.216453
	H37	H	0.660698	0.115392	0.219166
	H38	H	0.347318	0.109718	0.770588
	H39	H	0.660816	0.896708	0.767026
	H40	H	0.897315	0.227006	0.333031
	H41	H	0.109372	0.223983	0.651794
	H42	H	0.110783	0.784737	0.331615
	H43	H	0.897376	0.779209	0.649472
	H44	H	0.231956	0.349023	0.879373
	H45	H	0.231408	0.659814	0.101803
	H46	H	0.778493	0.348655	0.103796
	H47	H	0.780422	0.661864	0.880872
	H48	H	0.421344	0.116776	0.583828
	H49	H	0.591710	0.893677	0.577311
	H50	H	0.597844	0.118206	0.409265
	H51	H	0.409197	0.889141	0.407412
	H52	H	0.595968	0.420226	0.106480
	H53	H	0.590879	0.593054	0.879342
	H54	H	0.419237	0.594645	0.105190
	H55	H	0.418378	0.416081	0.875483
	H56	H	0.117911	0.597980	0.402939
	H57	H	0.896343	0.583348	0.580378
	H58	H	0.116160	0.420771	0.583854
	H59	H	0.895139	0.413093	0.409346
	H60	H	0.121381	0.409080	0.584384
	H61	H	0.889718	0.596541	0.585079
	H62	H	0.114996	0.591991	0.404489
	H63	H	0.895259	0.422429	0.401821
	H64	H	0.414144	0.591619	0.106443
	H65	H	0.593375	0.594327	0.877497
	H66	H	0.591222	0.420476	0.104505
	H67	H	0.414963	0.418339	0.876232
	H68	H	0.591619	0.119130	0.403392
	H69	H	0.594544	0.890275	0.578007
	H70	H	0.411692	0.115744	0.571544
	H71	H	0.420245	0.890172	0.399961
	H72	H	0.911123	0.620275	0.078634
	H73	H	0.094833	0.390438	0.077837
	H74	H	0.091090	0.618631	0.897198
	H75	H	0.916208	0.390356	0.901020
	H76	H	0.094879	0.914268	0.607534
	H77	H	0.093651	0.091009	0.377108
	H78	H	0.917664	0.094797	0.607320
	H79	H	0.915678	0.918116	0.376994
	H80	H	0.617800	0.095139	0.901622
	H81	H	0.394370	0.094346	0.077767
	H82	H	0.614888	0.920799	0.077918
	H83	H	0.394962	0.920069	0.908662
	H84	H	0.618297	0.918457	0.084858
	H85	H	0.392671	0.091140	0.083228
	H86	H	0.618085	0.096114	0.904416
	H87	H	0.394191	0.919665	0.900687
	H88	H	0.913616	0.088834	0.606794
	H89	H	0.092626	0.088758	0.377820
	H90	H	0.092727	0.918937	0.605764
	H91	H	0.916162	0.918538	0.378383
	H92	H	0.092404	0.615414	0.909194
	H93	H	0.094642	0.389975	0.077642
	H94	H	0.920999	0.617678	0.082605
	H95	H	0.918014	0.393231	0.907423
	H96	H	0.407566	0.121533	0.584641
	H97	H	0.592053	0.892224	0.581144
	H98	H	0.589895	0.114835	0.410835
	H99	H	0.420161	0.894778	0.412417
	H100	H	0.592645	0.415800	0.107025
	H101	H	0.593665	0.590731	0.879284
	H102	H	0.418994	0.589070	0.103638
	H103	H	0.417976	0.419903	0.878540
	H104	H	0.118013	0.593059	0.398136
	H105	H	0.895211	0.595515	0.570755
	H106	H	0.116157	0.412469	0.573177
	H107	H	0.890301	0.411918	0.398269
	H108	H	0.918089	0.614470	0.072172
	H109	H	0.094545	0.390811	0.077606
	H110	H	0.102002	0.620416	0.902983
	H111	H	0.911095	0.390715	0.906507
	H112	H	0.089292	0.913847	0.605455
	H113	H	0.091154	0.091394	0.378181
	H114	H	0.920152	0.088639	0.603574
	H115	H	0.916082	0.917532	0.377583
	H116	H	0.616965	0.093675	0.903781
	H117	H	0.391438	0.096979	0.082651
	H118	H	0.617706	0.913523	0.078344
	H119	H	0.392713	0.913514	0.905611
	C120	C	0.382380	0.012536	0.613509
	C121	C	0.626480	0.995761	0.613611
	C122	C	0.626315	0.013556	0.372215
	C123	C	0.382967	0.995936	0.372577
	C124	C	0.626156	0.385232	0.001220
	C125	C	0.626728	0.626852	0.983518
	C126	C	0.384408	0.626314	0.000218
	C127	C	0.384311	0.384557	0.982316
	C128	C	0.013272	0.627110	0.367974
	C129	C	0.997337	0.625540	0.611991
	C130	C	0.013996	0.381806	0.613742
	C131	C	0.996936	0.382188	0.369640
	C132	C	0.883662	0.513186	0.112038
	C133	C	0.126752	0.495272	0.111321
	C134	C	0.127546	0.513816	0.869676
	C135	C	0.883231	0.496357	0.870716
	C136	C	0.125492	0.882938	0.501185
	C137	C	0.125123	0.124055	0.483188
	C138	C	0.883495	0.125096	0.500874
	C139	C	0.882755	0.882944	0.482279
	C140	C	0.513722	0.127235	0.870388
	C141	C	0.496262	0.128125	0.115182
	C142	C	0.513735	0.883907	0.114549
	C143	C	0.496794	0.883948	0.870723
	C144	C	0.381992	0.892930	0.674516
	C145	C	0.628643	0.115552	0.673561
	C146	C	0.629352	0.894828	0.309721
	C147	C	0.380327	0.115582	0.311176
	C148	C	0.686784	0.381359	0.880956
	C149	C	0.688348	0.631138	0.102698
	C150	C	0.323952	0.630818	0.880293
	C151	C	0.323585	0.380359	0.102231
	C152	C	0.894822	0.686759	0.365290
	C153	C	0.114987	0.687053	0.615181
	C154	C	0.895450	0.322058	0.615940
	C155	C	0.114085	0.319785	0.364948
	C156	C	0.895463	0.380089	0.674074
	C157	C	0.115822	0.628291	0.672664
	C158	C	0.895068	0.629038	0.307338
	C159	C	0.115578	0.380070	0.309117
	C160	C	0.381641	0.688283	0.880466
	C161	C	0.629934	0.687696	0.103306
	C162	C	0.628748	0.324839	0.880875
	C163	C	0.381570	0.324016	0.102894
	C164	C	0.688067	0.895084	0.366266
	C165	C	0.689192	0.113838	0.619343
	C166	C	0.321710	0.893607	0.619019
	C167	C	0.320461	0.113967	0.366916
	C168	C	0.881558	0.393238	0.172826
	C169	C	0.130070	0.614264	0.173287
	C170	C	0.129408	0.394019	0.809483
	C171	C	0.881446	0.615622	0.808719
	C172	C	0.188286	0.877980	0.382350
	C173	C	0.184972	0.127778	0.603599
	C174	C	0.820352	0.131444	0.382483
	C175	C	0.821331	0.876674	0.601888
	C176	C	0.395525	0.187587	0.867248
	C177	C	0.613619	0.190329	0.119212
	C178	C	0.396249	0.821465	0.119114
	C179	C	0.613758	0.820981	0.865256
	C180	C	0.395608	0.880545	0.176047
	C181	C	0.613512	0.132435	0.177889
	C182	C	0.394872	0.128648	0.810297
	C183	C	0.613867	0.879277	0.807652
	C184	C	0.879568	0.187140	0.381316
	C185	C	0.127848	0.184793	0.603271
	C186	C	0.129007	0.823273	0.380512
	C187	C	0.879368	0.819876	0.601506
	C188	C	0.190112	0.395575	0.863799
	C189	C	0.189587	0.613222	0.117454
	C190	C	0.820801	0.395015	0.118560
	C191	C	0.821404	0.614745	0.864474
	C192	C	0.406706	0.096206	0.587384
	C193	C	0.600359	0.913522	0.586690
	C194	C	0.600385	0.095801	0.399823
	C195	C	0.409079	0.913137	0.398989
	C196	C	0.600738	0.411265	0.084371
	C197	C	0.600213	0.600424	0.900300
	C198	C	0.410022	0.599624	0.083374
	C199	C	0.409608	0.410647	0.898685
	C200	C	0.095539	0.601740	0.394090
	C201	C	0.915216	0.599485	0.586370
	C202	C	0.096490	0.407069	0.587961
	C203	C	0.915040	0.408187	0.395585
	C204	C	0.909435	0.595880	0.085369
	C205	C	0.101447	0.412327	0.085030
	C206	C	0.102375	0.596625	0.895581
	C207	C	0.908001	0.413310	0.897429
	C208	C	0.099564	0.908265	0.584472
	C209	C	0.099870	0.097828	0.399658
	C210	C	0.909780	0.098246	0.584003
	C211	C	0.908556	0.910290	0.399371
	C212	C	0.596040	0.102261	0.895966
	C213	C	0.414212	0.101802	0.088715
	C214	C	0.595661	0.910019	0.088121
	C215	C	0.415244	0.910234	0.897593
	Zn216	Zn	0.504867	0.005151	0.741331
	Zn217	Zn	0.504553	0.005400	0.244104
	Zn218	Zn	0.754615	0.505058	-0.007904
	Zn219	Zn	0.255739	0.504459	-0.009453
	Zn220	Zn	0.004833	0.755635	0.490419
	Zn221	Zn	0.005070	0.252560	0.491583
	Zn222	Zn	0.005534	0.504369	0.742208
	Zn223	Zn	0.005312	0.504122	0.239915
	Zn224	Zn	0.505507	0.754715	-0.007545
	Zn225	Zn	0.505084	0.256919	-0.007987
	Zn226	Zn	0.755148	0.004384	0.492877
	Zn227	Zn	0.253042	0.003508	0.492953
	N228	N	0.419343	0.967923	0.670816
	N229	N	0.590631	0.041098	0.670587
	N230	N	0.591823	0.969600	0.313113
	N231	N	0.418438	0.041160	0.314478
	N232	N	0.685652	0.417819	0.956851
	N233	N	0.686545	0.594176	0.026971
	N234	N	0.325391	0.593054	0.955845
	N235	N	0.325208	0.417345	0.026235
	N236	N	0.969496	0.685765	0.402199
	N237	N	0.040291	0.685494	0.578339
	N238	N	0.970261	0.323176	0.579186
	N239	N	0.039280	0.320808	0.401559
	N240	N	0.970334	0.416373	0.673088
	N241	N	0.041561	0.590694	0.670754
	N242	N	0.969900	0.592782	0.308795
	N243	N	0.041727	0.418431	0.311992
	N244	N	0.418456	0.685766	0.956152
	N245	N	0.592328	0.685166	0.027914
	N246	N	0.591959	0.326797	0.956649
	N247	N	0.418391	0.326291	0.027181
	N248	N	0.686267	0.969894	0.404407
	N249	N	0.687965	0.038273	0.582812
	N250	N	0.321881	0.969046	0.581953
	N251	N	0.321915	0.038460	0.404176
	N252	N	0.919999	0.467707	0.169006
	N253	N	0.091634	0.539876	0.169572
	N254	N	0.091245	0.468471	0.813047
	N255	N	0.919011	0.540940	0.812246
	N256	N	0.186257	0.914437	0.458213
	N257	N	0.183694	0.090890	0.527707
	N258	N	0.822705	0.093613	0.457904
	N259	N	0.823510	0.915491	0.526884
	N260	N	0.470413	0.186914	0.903734
	N261	N	0.539669	0.187518	0.080864
	N262	N	0.470713	0.823416	0.081602
	N263	N	0.540188	0.823963	0.904087
	N264	N	0.469694	0.918276	0.173701
	N265	N	0.539459	0.094301	0.175269
	N266	N	0.469392	0.091882	0.811797
	N267	N	0.540249	0.917821	0.811108
	N268	N	0.918191	0.183284	0.456137
	N269	N	0.091430	0.182797	0.527277
	N270	N	0.090459	0.826231	0.455329
	N271	N	0.916766	0.823378	0.526151
	N272	N	0.189156	0.471084	0.900595
	N273	N	0.187677	0.538446	0.079667
	N274	N	0.821778	0.470739	0.081658
	N275	N	0.822550	0.539595	0.902329
	O276	O	0.355429	0.478199	0.395009
	H277	H	0.360954	0.475373	0.388635
	H278	H	0.331272	0.478231	0.402205
	O279	O	0.293260	0.297040	0.514016
	H280	H	0.265016	0.270450	0.509679
	H281	H	0.299946	0.325194	0.485400
	O282	O	0.455283	0.530179	0.323341
	H283	H	0.456902	0.530938	0.333074
	H284	H	0.440126	0.529693	0.321540
	O285	O	1.052572	1.141547	0.153005
	H286	H	1.046879	1.149240	0.167592
	H287	H	1.038185	1.120798	0.164264
	O288	O	0.472071	0.293943	0.436655
	H289	H	0.483475	0.304050	0.450857
	H290	H	0.462395	0.288456	0.449180
	O291	O	0.501187	0.645384	0.278620
	H292	H	0.496917	0.657785	0.259310
	H293	H	0.507622	0.648168	0.285061
	O294	O	1.129511	1.187892	1.176340
	H295	H	1.109300	1.177471	1.159215
	H296	H	1.111700	1.209569	1.184337
	O297	O	0.676530	0.544259	0.472756
	H298	H	0.683041	0.526716	0.447354
	H299	H	0.662142	0.545434	0.473023
	O300	O	0.404118	0.620958	0.632272
	H301	H	0.409717	0.627839	0.645569
	H302	H	0.393982	0.614058	0.632411
	O303	O	0.668247	0.666559	0.487620
	H304	H	0.674336	0.651864	0.477359
	H305	H	0.671958	0.675563	0.495072
	O306	O	-0.151784	0.196400	0.807292
	H307	H	-0.159348	0.162673	0.800430
	H308	H	-0.112087	0.202994	0.803307
	O309	O	1.194661	0.051411	0.052016
	H310	H	1.198451	0.032131	0.043439
	H311	H	1.175438	0.052344	0.066425
	O312	O	0.524201	0.702471	0.453440
	H313	H	0.531576	0.709461	0.452667
	H314	H	0.528887	0.679620	0.464722
	O315	O	0.493846	0.547125	0.524579
	H316	H	0.483656	0.550797	0.539734
	H317	H	0.487894	0.536226	0.520028
	O318	O	0.023420	-0.051565	0.126537
	H319	H	0.031712	-0.061085	0.134737
	H320	H	0.044256	-0.054612	0.129951
	O321	O	0.294817	0.516327	0.611801
	H322	H	0.279498	0.518188	0.626927
	H323	H	0.315535	0.522545	0.621579
	O324	O	0.947724	0.075510	1.200629
	H325	H	0.937213	0.046163	1.199024
	H326	H	0.940472	0.047520	1.205806
	O327	O	0.319287	0.668217	0.412427
	H328	H	0.321460	0.664499	0.412130
	H329	H	0.336627	0.669990	0.404132
	O330	O	-0.214853	1.067575	1.050892
	H331	H	-0.209491	1.056686	1.040130
	H332	H	-0.214460	1.094407	1.037004
	O333	O	0.219129	0.786420	-0.025442
	H334	H	0.244481	0.771195	-0.028012
	H335	H	0.220479	0.790161	-0.057492
	O336	O	0.960962	0.790953	-0.052311
	H337	H	0.940918	0.793663	-0.054449
	H338	H	0.941468	0.791593	-0.055711
	O339	O	0.008717	1.189896	0.804837
	H340	H	0.023539	1.201862	0.839202
	H341	H	0.020970	1.211781	0.792793
	O342	O	0.679855	0.342129	0.321022
	H343	H	0.670312	0.355738	0.330260
	H344	H	0.676148	0.362403	0.328692
	O345	O	-0.032775	-0.063702	0.782206
	H346	H	-0.040693	-0.058752	0.788283
	H347	H	-0.036273	-0.033715	0.781419
	O348	O	0.374993	0.585117	0.493886
	H349	H	0.385785	0.595909	0.496036
	H350	H	0.380331	0.582918	0.476962
	O351	O	1.131241	1.102861	-0.084621
	H352	H	1.145240	1.091736	-0.093030
	H353	H	1.131254	1.098073	-0.088842
	O354	O	1.101392	0.794907	1.090572
	H355	H	1.113156	0.789323	1.061967
	H356	H	1.098163	0.810070	1.067767
	O357	O	0.204149	0.007858	-0.187370
	H358	H	0.215713	-0.004356	-0.204329
	H359	H	0.179629	0.005996	-0.190799
	O360	O	-0.203633	0.211831	0.946996
	H361	H	-0.214585	0.227507	0.939119
	H362	H	-0.210171	0.220078	0.926510
	O363	O	0.945506	0.203604	0.006225
	H364	H	0.938194	0.211395	0.037147
	H365	H	0.938325	0.208246	0.017073
	O366	O	0.090700	-0.050669	1.106539
	H367	H	0.087403	-0.066566	1.128159
	H368	H	0.098084	-0.072007	1.093050
	O369	O	0.794019	-0.203800	1.007502
	H370	H	0.788664	-0.204598	1.036753
	H371	H	0.770014	-0.203909	1.004486
	O372	O	0.518928	0.311767	0.285456
	H373	H	0.522407	0.287477	0.262755
	H374	H	0.529137	0.302512	0.312398
	O375	O	-0.599756	-0.364096	1.615153
	H376	H	-0.606817	-0.349622	1.593158
	H377	H	-0.589613	-0.367934	1.628901
	O378	O	0.519472	0.385472	0.495748
	H379	H	0.522670	0.390354	0.501748
	H380	H	0.531952	0.394940	0.500542
	O381	O	-0.173036	0.831420	0.165900
	H382	H	-0.153240	0.850515	0.180510
	H383	H	-0.153152	0.824092	0.156192
	O384	O	0.711084	0.497845	0.311268
	H385	H	0.711216	0.508364	0.312453
	H386	H	0.707308	0.503592	0.297807
	O387	O	0.373232	0.571110	0.316014
	H388	H	0.374860	0.567589	0.334818
	H389	H	0.370009	0.575704	0.296914
	O390	O	1.066598	1.053214	-0.114806
	H391	H	1.067183	1.085397	-0.121760
	H392	H	1.061777	1.055528	-0.084456
	O393	O	1.208279	0.001131	1.159212
	H394	H	1.222875	0.003919	1.166661
	H395	H	1.206790	0.026521	1.149285
	O396	O	0.587225	0.651600	0.685332
	H397	H	0.605642	0.656706	0.658657
	H398	H	0.585222	0.665807	0.699397
	O399	O	0.475900	0.604471	0.458393
	H400	H	0.462224	0.597536	0.469046
	H401	H	0.457383	0.597868	0.453570
	O402	O	0.792794	1.024552	-0.219392
	H403	H	0.771327	1.025985	-0.245240
	H404	H	0.792578	1.014876	-0.192051
	O405	O	0.710207	0.542600	0.689485
	H406	H	0.705156	0.542370	0.682699
	H407	H	0.729464	0.537747	0.707513
	O408	O	0.331034	0.327651	0.674418
	H409	H	0.338227	0.347181	0.673051
	H410	H	0.317864	0.325103	0.633375
	O411	O	1.054787	0.810546	0.783037
	H412	H	1.037334	0.812063	0.767464
	H413	H	1.042753	0.806122	0.774320
	O414	O	-0.020743	0.090524	0.965341
	H415	H	-0.012341	0.117262	0.984040
	H416	H	-0.013793	0.083540	0.982625
	O417	O	-0.217328	0.943108	0.931583
	H418	H	-0.210934	0.945178	0.934161
	H419	H	-0.205966	0.938282	0.939621
	O420	O	-0.209028	0.990680	1.204717
	H421	H	-0.238602	0.990525	1.213429
	H422	H	-0.221593	0.984694	1.189379
	O423	O	-0.009085	0.799113	0.139417
	H424	H	0.016771	0.791654	0.105454
	H425	H	-0.016373	0.764504	0.160531
	O426	O	0.694015	0.314165	0.499048
	H427	H	0.697832	0.304931	0.500643
	H428	H	0.683735	0.312144	0.493230
	O429	O	0.532398	0.444024	0.698170
	H430	H	0.523867	0.439955	0.707245
	H431	H	0.554386	0.443304	0.697521
	O432	O	0.535829	0.299446	0.682434
	H433	H	0.507954	0.307113	0.665375
	H434	H	0.535843	0.271855	0.708291
	O435	O	0.186243	-0.140958	-0.151194
	H436	H	0.163346	-0.153157	-0.148436
	H437	H	0.167777	-0.124391	-0.154043
	O438	O	0.155755	1.225152	0.976533
	H439	H	0.152412	1.232190	1.002672
	H440	H	0.180712	1.212827	0.983206
	O441	O	0.691797	0.459844	0.543376
	H442	H	0.689265	0.453983	0.556525
	H443	H	0.681485	0.470566	0.533550
