data_Molecule from HDF5

_cell_length_a		16.331148
_cell_length_b		16.338356
_cell_length_c		16.065752
_cell_angle_alpha	89.748414
_cell_angle_beta	89.128445
_cell_angle_gamma	90.086206
_symmetry_space_group_name_H-M	'P 1'
_symmetry_Int_Tables_number		1

loop_
	_symmetry_equiv_pos_as_xyz
	x,y,z

loop_
	_atom_site_label
	_atom_site_type_symbol
	_atom_site_fract_x
	_atom_site_fract_y
	_atom_site_fract_z
	H0	H	0.394979	0.831496	0.717314
	H1	H	0.594295	0.157841	0.715115
	H2	H	0.594650	0.830956	0.287466
	H3	H	0.402148	0.158817	0.288342
	H4	H	0.711395	0.393618	0.835621
	H5	H	0.705396	0.592382	0.164936
	H6	H	0.283626	0.595017	0.834245
	H7	H	0.274717	0.391666	0.164120
	H8	H	0.835527	0.716817	0.396846
	H9	H	0.157316	0.712562	0.599810
	H10	H	0.834920	0.275471	0.605730
	H11	H	0.157903	0.280172	0.394197
	H12	H	0.832180	0.396146	0.717115
	H13	H	0.157859	0.595225	0.711127
	H14	H	0.830725	0.593200	0.289728
	H15	H	0.157374	0.398396	0.280773
	H16	H	0.393179	0.712287	0.837486
	H17	H	0.590276	0.706361	0.165876
	H18	H	0.596666	0.278946	0.835962
	H19	H	0.391431	0.278326	0.165494
	H20	H	0.714970	0.833673	0.398701
	H21	H	0.712161	0.157756	0.600627
	H22	H	0.273694	0.834426	0.608346
	H23	H	0.281203	0.157780	0.399312
	H24	H	0.893870	0.332611	0.217987
	H25	H	0.087963	0.660202	0.208298
	H26	H	0.093514	0.332639	0.783579
	H27	H	0.898133	0.659495	0.786595
	H28	H	0.215653	0.896759	0.336722
	H29	H	0.207722	0.094796	0.666011
	H30	H	0.784841	0.097757	0.335042
	H31	H	0.778803	0.894478	0.664341
	H32	H	0.333263	0.212019	0.899181
	H33	H	0.656091	0.212711	0.100712
	H34	H	0.331014	0.778545	0.106057
	H35	H	0.655708	0.776099	0.896946
	H36	H	0.332200	0.897527	0.219462
	H37	H	0.661019	0.089353	0.206537
	H38	H	0.332560	0.092425	0.787564
	H39	H	0.657536	0.894526	0.784573
	H40	H	0.900374	0.209797	0.334406
	H41	H	0.096947	0.212069	0.664259
	H42	H	0.100148	0.782928	0.334798
	H43	H	0.894579	0.780120	0.664357
	H44	H	0.212606	0.333469	0.895772
	H45	H	0.210828	0.656914	0.098895
	H46	H	0.774725	0.332413	0.104749
	H47	H	0.776542	0.656366	0.897937
	H48	H	0.397904	0.111783	0.593381
	H49	H	0.583839	0.881721	0.589544
	H50	H	0.593366	0.113364	0.400678
	H51	H	0.404407	0.881291	0.416889
	H52	H	0.582981	0.409841	0.116118
	H53	H	0.590259	0.585350	0.881514
	H54	H	0.397741	0.592869	0.122191
	H55	H	0.404003	0.400409	0.881372
	H56	H	0.111637	0.587361	0.403230
	H57	H	0.879930	0.586117	0.591309
	H58	H	0.112725	0.397699	0.587809
	H59	H	0.879158	0.394776	0.416463
	H60	H	0.108779	0.406176	0.584614
	H61	H	0.878106	0.589623	0.593610
	H62	H	0.112234	0.591308	0.402625
	H63	H	0.882812	0.408405	0.413456
	H64	H	0.392774	0.578329	0.118507
	H65	H	0.583055	0.582235	0.884888
	H66	H	0.576072	0.397881	0.117174
	H67	H	0.403883	0.404616	0.883068
	H68	H	0.590208	0.110931	0.406109
	H69	H	0.592278	0.879494	0.587087
	H70	H	0.405693	0.110875	0.597077
	H71	H	0.400272	0.878275	0.410742
	H72	H	0.898015	0.608487	0.085514
	H73	H	0.085791	0.378702	0.091323
	H74	H	0.094675	0.614758	0.902617
	H75	H	0.911059	0.381355	0.904956
	H76	H	0.088616	0.906913	0.618152
	H77	H	0.091442	0.087781	0.381572
	H78	H	0.896116	0.087693	0.620013
	H79	H	0.901134	0.908064	0.380665
	H80	H	0.608909	0.086479	0.915285
	H81	H	0.379734	0.088595	0.090575
	H82	H	0.611611	0.904065	0.097578
	H83	H	0.378378	0.904461	0.908897
	H84	H	0.613620	0.888505	0.094147
	H85	H	0.379989	0.081088	0.096050
	H86	H	0.609334	0.081321	0.905503
	H87	H	0.377706	0.897992	0.911872
	H88	H	0.905107	0.079368	0.615175
	H89	H	0.091052	0.086677	0.383120
	H90	H	0.080175	0.903275	0.616482
	H91	H	0.912030	0.909578	0.384060
	H92	H	0.084798	0.610451	0.902908
	H93	H	0.081900	0.380339	0.089882
	H94	H	0.890245	0.614627	0.094882
	H95	H	0.900803	0.382370	0.920071
	H96	H	0.404360	0.108695	0.588889
	H97	H	0.589044	0.878575	0.595268
	H98	H	0.596546	0.112394	0.406723
	H99	H	0.408529	0.879364	0.408977
	H100	H	0.590175	0.398707	0.120890
	H101	H	0.583688	0.590240	0.881182
	H102	H	0.408485	0.582606	0.115807
	H103	H	0.407675	0.402320	0.883445
	H104	H	0.111385	0.591392	0.405791
	H105	H	0.880118	0.590313	0.589267
	H106	H	0.112455	0.404606	0.594087
	H107	H	0.876142	0.400304	0.402944
	H108	H	0.902489	0.610483	0.098145
	H109	H	0.086067	0.379856	0.086974
	H110	H	0.090345	0.609478	0.911920
	H111	H	0.894618	0.376316	0.904414
	H112	H	0.086536	0.898095	0.620266
	H113	H	0.090081	0.088381	0.382570
	H114	H	0.908899	0.092091	0.617273
	H115	H	0.908909	0.898727	0.379844
	H116	H	0.612689	0.092055	0.906796
	H117	H	0.376608	0.089974	0.099724
	H118	H	0.608459	0.898560	0.082710
	H119	H	0.381085	0.902695	0.916157
	C120	C	0.372593	0.003392	0.624088
	C121	C	0.617327	0.987167	0.620857
	C122	C	0.621246	0.004330	0.376280
	C123	C	0.376307	0.987170	0.381663
	C124	C	0.614694	0.372653	0.009370
	C125	C	0.613890	0.614643	0.991489
	C126	C	0.372561	0.615010	0.009402
	C127	C	0.372956	0.372280	0.991523
	C128	C	0.004412	0.619020	0.376292
	C129	C	0.987209	0.617222	0.619531
	C130	C	0.004236	0.372891	0.621397
	C131	C	0.986792	0.373362	0.378525
	C132	C	0.868753	0.503807	0.123404
	C133	C	0.113749	0.486690	0.118843
	C134	C	0.118545	0.504199	0.875863
	C135	C	0.873339	0.487137	0.879579
	C136	C	0.117267	0.874330	0.509370
	C137	C	0.118490	0.117165	0.491457
	C138	C	0.875987	0.116525	0.508477
	C139	C	0.875553	0.874915	0.490395
	C140	C	0.503505	0.115898	0.879484
	C141	C	0.486680	0.115765	0.122155
	C142	C	0.503335	0.870313	0.123706
	C143	C	0.485928	0.871687	0.880217
	C144	C	0.374322	0.880845	0.680450
	C145	C	0.614658	0.109193	0.677343
	C146	C	0.616652	0.880583	0.323461
	C147	C	0.380479	0.109996	0.325719
	C148	C	0.672711	0.373926	0.885240
	C149	C	0.668054	0.612319	0.115668
	C150	C	0.319910	0.614417	0.884431
	C151	C	0.313816	0.372780	0.114953
	C152	C	0.882985	0.676906	0.377902
	C153	C	0.108791	0.673931	0.618431
	C154	C	0.882731	0.315143	0.623878
	C155	C	0.109135	0.318416	0.376347
	C156	C	0.881393	0.375198	0.679072
	C157	C	0.109182	0.615269	0.674254
	C158	C	0.880789	0.615491	0.324472
	C159	C	0.108941	0.377154	0.319683
	C160	C	0.374365	0.673098	0.886060
	C161	C	0.610915	0.669104	0.116192
	C162	C	0.615485	0.317036	0.885143
	C163	C	0.371886	0.316028	0.115832
	C164	C	0.676817	0.881916	0.378523
	C165	C	0.673366	0.109229	0.620144
	C166	C	0.314089	0.882380	0.625976
	C167	C	0.320392	0.109316	0.381191
	C168	C	0.872450	0.381269	0.179951
	C169	C	0.109890	0.610624	0.172219
	C170	C	0.114974	0.381763	0.820403
	C171	C	0.876611	0.610314	0.823857
	C172	C	0.176199	0.876912	0.385514
	C173	C	0.171507	0.115263	0.616134
	C174	C	0.822181	0.116445	0.384331
	C175	C	0.817658	0.875120	0.614730
	C176	C	0.381586	0.172950	0.880044
	C177	C	0.608454	0.172884	0.119630
	C178	C	0.380195	0.816268	0.124891
	C179	C	0.607661	0.814905	0.878622
	C180	C	0.380783	0.875470	0.181198
	C181	C	0.610802	0.111617	0.172653
	C182	C	0.381018	0.113431	0.824811
	C183	C	0.608485	0.873998	0.822306
	C184	C	0.879633	0.172579	0.384137
	C185	C	0.116254	0.173451	0.615233
	C186	C	0.118827	0.820236	0.384606
	C187	C	0.875136	0.818048	0.614863
	C188	C	0.174396	0.382133	0.876305
	C189	C	0.171077	0.608986	0.117933
	C190	C	0.813324	0.381189	0.123685
	C191	C	0.816187	0.608607	0.879326
	C192	C	0.395867	0.088406	0.600065
	C193	C	0.594886	0.902153	0.597427
	C194	C	0.599842	0.089927	0.397984
	C195	C	0.398168	0.901755	0.405278
	C196	C	0.590245	0.395452	0.095853
	C197	C	0.592136	0.592544	0.904961
	C198	C	0.393527	0.591465	0.096185
	C199	C	0.397926	0.395580	0.904991
	C200	C	0.089677	0.596648	0.397594
	C201	C	0.901542	0.595018	0.597672
	C202	C	0.089250	0.395867	0.596210
	C203	C	0.901618	0.394975	0.403622
	C204	C	0.890394	0.589138	0.099721
	C205	C	0.091172	0.401837	0.096116
	C206	C	0.096603	0.589350	0.899067
	C207	C	0.895712	0.402104	0.902988
	C208	C	0.092427	0.896235	0.595851
	C209	C	0.097148	0.094507	0.404708
	C210	C	0.897236	0.093223	0.595149
	C211	C	0.900126	0.898599	0.404000
	C212	C	0.588170	0.093193	0.902262
	C213	C	0.400870	0.093280	0.101569
	C214	C	0.589078	0.891014	0.098657
	C215	C	0.400995	0.894915	0.905110
	Zn216	Zn	0.495089	-0.005575	0.751287
	Zn217	Zn	0.496805	-0.005110	0.250606
	Zn218	Zn	0.741637	0.494165	0.000052
	Zn219	Zn	0.245576	0.494878	-0.000839
	Zn220	Zn	-0.003687	0.746850	0.498823
	Zn221	Zn	-0.003106	0.243640	0.499927
	Zn222	Zn	-0.004982	0.496315	0.748633
	Zn223	Zn	-0.006432	0.495846	0.249114
	Zn224	Zn	0.493156	0.741920	0.001440
	Zn225	Zn	0.494384	0.244623	0.000797
	Zn226	Zn	0.748123	-0.003702	0.499524
	Zn227	Zn	0.245141	-0.004343	0.502395
	N228	N	0.410143	0.957229	0.679548
	N229	N	0.580296	0.032241	0.677873
	N230	N	0.583013	0.957664	0.321447
	N231	N	0.414599	0.032971	0.325896
	N232	N	0.672061	0.407995	0.963314
	N233	N	0.670060	0.579295	0.037189
	N234	N	0.318787	0.578751	0.962131
	N235	N	0.314336	0.407018	0.036518
	N236	N	0.960822	0.679271	0.409318
	N237	N	0.031650	0.675294	0.585038
	N238	N	0.960187	0.313318	0.589027
	N239	N	0.032124	0.315804	0.412116
	N240	N	0.957944	0.410602	0.677590
	N241	N	0.032426	0.580638	0.674947
	N242	N	0.957213	0.580118	0.323281
	N243	N	0.031845	0.410697	0.320827
	N244	N	0.406243	0.673666	0.964887
	N245	N	0.577913	0.670684	0.037869
	N246	N	0.580008	0.316072	0.963422
	N247	N	0.407932	0.315772	0.038003
	N248	N	0.679821	0.959802	0.410597
	N249	N	0.675070	0.032449	0.585843
	N250	N	0.312837	0.959610	0.591777
	N251	N	0.317605	0.031936	0.415190
	N252	N	0.905979	0.458359	0.180213
	N253	N	0.074969	0.533790	0.172874
	N254	N	0.081073	0.458613	0.819772
	N255	N	0.911363	0.533710	0.823819
	N256	N	0.175528	0.909701	0.464168
	N257	N	0.173310	0.081160	0.538021
	N258	N	0.819828	0.082153	0.462666
	N259	N	0.817843	0.909689	0.536440
	N260	N	0.458728	0.174671	0.913368
	N261	N	0.530343	0.175349	0.088772
	N262	N	0.457558	0.812911	0.089755
	N263	N	0.530437	0.813225	0.913816
	N264	N	0.458438	0.908175	0.180720
	N265	N	0.534116	0.076629	0.174225
	N266	N	0.457703	0.078832	0.824149
	N267	N	0.531851	0.908684	0.823404
	N268	N	0.912387	0.172753	0.462390
	N269	N	0.083988	0.174914	0.536688
	N270	N	0.083234	0.818346	0.462589
	N271	N	0.910433	0.817744	0.536549
	N272	N	0.176868	0.459309	0.909957
	N273	N	0.173751	0.531226	0.085514
	N274	N	0.810910	0.458435	0.089252
	N275	N	0.813959	0.530995	0.913135
	O276	O	0.400721	-0.494222	1.480016
	H277	H	0.406770	-0.496784	1.455209
	H278	H	0.394975	-0.477134	1.467864
	O279	O	0.345362	0.522243	0.493934
	H280	H	0.354602	0.522123	0.476907
	H281	H	0.348094	0.532126	0.486257
	O282	O	0.595927	0.402811	0.448678
	H283	H	0.603523	0.409877	0.444899
	H284	H	0.590886	0.406025	0.446178
	O285	O	0.588771	0.472957	0.588329
	H286	H	0.594840	0.491859	0.585391
	H287	H	0.586291	0.477625	0.587355
	O288	O	0.609241	0.390071	0.555711
	H289	H	0.614093	0.390826	0.553838
	H290	H	0.605692	0.377639	0.558376
	O291	O	-0.153935	-0.062412	1.004120
	H292	H	-0.167205	-0.074423	1.009767
	H293	H	-0.147097	-0.061463	0.994043
	O294	O	1.111232	1.053739	-0.043771
	H295	H	1.116704	1.056987	-0.046051
	H296	H	1.119104	1.040918	-0.033113
	O297	O	0.967387	1.020197	-0.015610
	H298	H	0.955074	1.027264	-0.014460
	H299	H	0.977709	1.013390	-0.015466
	O300	O	0.641734	0.444442	0.470101
	H301	H	0.636550	0.434621	0.458977
	H302	H	0.651454	0.433059	0.469510
	O303	O	0.402886	0.555070	0.480618
	H304	H	0.414808	0.557989	0.497076
	H305	H	0.384103	0.548556	0.489301
	O306	O	0.400955	0.462137	0.442617
	H307	H	0.413060	0.461892	0.445252
	H308	H	0.390053	0.459226	0.455551
	O309	O	0.353373	0.496981	0.616332
	H310	H	0.351298	0.495044	0.614098
	H311	H	0.350827	0.492331	0.622712
	O312	O	1.006128	0.906755	1.010618
	H313	H	1.001701	0.911319	1.017481
	H314	H	1.024032	0.916236	1.009138
	O315	O	0.998291	1.026587	0.061063
	H316	H	1.002720	1.025783	0.072043
	H317	H	0.985021	1.032659	0.060218
	O318	O	0.448682	0.554275	0.446163
	H319	H	0.454549	0.559943	0.438311
	H320	H	0.453598	0.546012	0.461357
	O321	O	0.527914	0.451644	0.577179
	H322	H	0.515412	0.461766	0.575241
	H323	H	0.522864	0.446049	0.567831
	O324	O	-0.028474	1.011723	1.032738
	H325	H	-0.031620	1.020811	1.039426
	H326	H	-0.026037	1.021810	1.028196
	O327	O	-0.041061	0.862574	1.130882
	H328	H	-0.053351	0.863915	1.124406
	H329	H	-0.047856	0.854746	1.141974
	O330	O	0.028873	0.051564	0.034627
	H331	H	0.022307	0.050528	0.034485
	H332	H	0.038281	0.050181	0.023570
	O333	O	0.644104	0.506826	0.375115
	H334	H	0.651182	0.503763	0.377207
	H335	H	0.649094	0.512576	0.381837
	O336	O	0.033937	0.044498	-0.054810
	H337	H	0.039373	0.044363	-0.058971
	H338	H	0.030059	0.032916	-0.048219
	O339	O	0.031551	-0.024478	-0.015118
	H340	H	0.019711	-0.019358	-0.004277
	H341	H	0.034671	-0.030738	-0.010883
	O342	O	0.566608	0.446118	0.497525
	H343	H	0.552367	0.450642	0.507624
	H344	H	0.571087	0.440981	0.487758
	O345	O	0.026895	1.039828	0.971084
	H346	H	0.026553	1.039241	0.964824
	H347	H	0.027756	1.032524	0.971875
	O348	O	0.467064	0.434331	0.478036
	H349	H	0.464339	0.442183	0.480848
	H350	H	0.462612	0.426611	0.479945
	O351	O	0.433514	0.547587	0.582593
	H352	H	0.430251	0.556706	0.582348
	H353	H	0.436135	0.542985	0.579008
	O354	O	0.559088	1.671227	-0.452384
	H355	H	0.554035	1.663137	-0.456924
	H356	H	0.558517	1.690239	-0.438613
	O357	O	1.004031	1.010424	0.990715
	H358	H	1.008314	1.002727	0.987814
	H359	H	0.994538	1.016149	0.989501
	O360	O	1.061128	0.089457	0.991886
	H361	H	1.083688	0.098945	0.984342
	H362	H	1.056084	0.087754	0.993403
	O363	O	0.363330	0.533741	0.419493
	H364	H	0.377640	0.526230	0.418017
	H365	H	0.364993	0.531787	0.407911
	O366	O	0.453563	0.570344	0.635457
	H367	H	0.448526	0.561234	0.640499
	H368	H	0.452065	0.581113	0.645176
	O369	O	1.023981	-0.095257	-0.001700
	H370	H	1.020947	-0.095665	-0.005649
	H371	H	1.021343	-0.092990	0.008742
	O372	O	0.506473	0.442070	0.574394
	H373	H	0.502960	0.433063	0.584819
	H374	H	0.493381	0.433348	0.569846
	O375	O	0.935668	0.024180	0.941526
	H376	H	0.931875	0.020075	0.939931
	H377	H	0.931760	0.026870	0.936887
	O378	O	-0.495993	1.541534	-0.538284
	H379	H	-0.492198	1.542331	-0.539782
	H380	H	-0.493013	1.533992	-0.538340
	O381	O	0.550713	0.444771	0.544399
	H382	H	0.549039	0.437197	0.552454
	H383	H	0.541851	0.439270	0.539351
	O384	O	0.964128	0.933909	0.038645
	H385	H	0.954999	0.933519	0.036802
	H386	H	0.955336	0.925976	0.045599
	O387	O	0.854726	0.067312	0.992063
	H388	H	0.859737	0.079551	0.984070
	H389	H	0.859916	0.069196	0.991931
	O390	O	1.002651	1.055888	0.008353
	H391	H	1.003305	1.051607	0.006379
	H392	H	1.006732	1.053658	0.004301
	O393	O	0.705667	0.743995	0.229536
	H394	H	0.690187	0.744715	0.245815
	H395	H	0.705842	0.735923	0.224950
