data_Molecule from HDF5

_cell_length_a		16.308803
_cell_length_b		16.283175
_cell_length_c		16.417283
_cell_angle_alpha	90.294333
_cell_angle_beta	89.903767
_cell_angle_gamma	89.803070
_symmetry_space_group_name_H-M	'P 1'
_symmetry_Int_Tables_number		1

loop_
	_symmetry_equiv_pos_as_xyz
	x,y,z

loop_
	_atom_site_label
	_atom_site_type_symbol
	_atom_site_fract_x
	_atom_site_fract_y
	_atom_site_fract_z
	H0	H	0.400779	0.835538	0.719276
	H1	H	0.606633	0.158094	0.721253
	H2	H	0.609075	0.836124	0.280924
	H3	H	0.397975	0.156734	0.281313
	H4	H	0.720159	0.392517	0.838223
	H5	H	0.717817	0.597198	0.159582
	H6	H	0.280274	0.604537	0.839624
	H7	H	0.279480	0.393877	0.156845
	H8	H	0.840684	0.715190	0.400117
	H9	H	0.163708	0.717105	0.603095
	H10	H	0.839552	0.282988	0.598179
	H11	H	0.162721	0.278008	0.394235
	H12	H	0.840764	0.395625	0.716413
	H13	H	0.160728	0.605493	0.721614
	H14	H	0.839309	0.598417	0.284440
	H15	H	0.162273	0.392986	0.277738
	H16	H	0.398465	0.717022	0.839927
	H17	H	0.604069	0.713465	0.158982
	H18	H	0.604937	0.275799	0.839206
	H19	H	0.398835	0.280818	0.158981
	H20	H	0.719392	0.835126	0.402582
	H21	H	0.716680	0.161318	0.600511
	H22	H	0.282135	0.837165	0.606628
	H23	H	0.284064	0.157783	0.398926
	H24	H	0.898689	0.335272	0.215398
	H25	H	0.103264	0.658849	0.218995
	H26	H	0.105750	0.338279	0.776829
	H27	H	0.896053	0.659823	0.779589
	H28	H	0.223869	0.893023	0.341361
	H29	H	0.222324	0.103841	0.660850
	H30	H	0.783770	0.099516	0.340500
	H31	H	0.786567	0.898571	0.661231
	H32	H	0.341468	0.215151	0.897448
	H33	H	0.663286	0.213769	0.101270
	H34	H	0.341437	0.778706	0.102693
	H35	H	0.662865	0.776645	0.898867
	H36	H	0.342479	0.891202	0.220951
	H37	H	0.663417	0.098405	0.217294
	H38	H	0.343856	0.103222	0.778771
	H39	H	0.664143	0.890961	0.782045
	H40	H	0.901746	0.211618	0.337741
	H41	H	0.105762	0.219990	0.658967
	H42	H	0.108275	0.778067	0.340066
	H43	H	0.901265	0.780971	0.659823
	H44	H	0.222503	0.337916	0.891884
	H45	H	0.218785	0.659786	0.101030
	H46	H	0.788281	0.333779	0.094142
	H47	H	0.782928	0.659700	0.898274
	H48	H	0.416293	0.111481	0.592485
	H49	H	0.597481	0.880092	0.594494
	H50	H	0.590155	0.110763	0.414124
	H51	H	0.417513	0.880899	0.403084
	H52	H	0.598728	0.405408	0.114740
	H53	H	0.596489	0.582627	0.884826
	H54	H	0.412913	0.589365	0.113077
	H55	H	0.417639	0.403214	0.885109
	H56	H	0.113609	0.581179	0.411640
	H57	H	0.887268	0.595553	0.582175
	H58	H	0.115643	0.410578	0.585561
	H59	H	0.884145	0.399415	0.405819
	H60	H	0.115431	0.411447	0.587585
	H61	H	0.890789	0.581276	0.587872
	H62	H	0.119619	0.585371	0.398822
	H63	H	0.888724	0.408069	0.411926
	H64	H	0.407800	0.586423	0.113270
	H65	H	0.586776	0.584832	0.886627
	H66	H	0.592657	0.408807	0.112391
	H67	H	0.407660	0.403323	0.881590
	H68	H	0.600110	0.115145	0.408075
	H69	H	0.592885	0.882600	0.592837
	H70	H	0.416748	0.109242	0.589289
	H71	H	0.420993	0.885541	0.415998
	H72	H	0.908157	0.614002	0.091805
	H73	H	0.096652	0.384913	0.077632
	H74	H	0.090585	0.611618	0.911762
	H75	H	0.911524	0.383173	0.906788
	H76	H	0.098393	0.920390	0.612046
	H77	H	0.094116	0.079294	0.389139
	H78	H	0.911527	0.089559	0.614288
	H79	H	0.910315	0.900899	0.382601
	H80	H	0.614233	0.078427	0.912615
	H81	H	0.384440	0.093109	0.093516
	H82	H	0.615527	0.908324	0.088365
	H83	H	0.385491	0.902796	0.907401
	H84	H	0.618503	0.906603	0.094591
	H85	H	0.389264	0.086647	0.086599
	H86	H	0.620115	0.086102	0.902683
	H87	H	0.389680	0.907288	0.915538
	H88	H	0.912590	0.093645	0.615185
	H89	H	0.087435	0.088544	0.387731
	H90	H	0.079605	0.905510	0.611538
	H91	H	0.906771	0.911716	0.384622
	H92	H	0.089019	0.613112	0.908626
	H93	H	0.094771	0.379274	0.096375
	H94	H	0.908149	0.613598	0.093063
	H95	H	0.911545	0.382371	0.904636
	H96	H	0.413405	0.110835	0.589372
	H97	H	0.597307	0.881973	0.589837
	H98	H	0.589675	0.114186	0.402303
	H99	H	0.407498	0.880320	0.413724
	H100	H	0.592751	0.402135	0.114259
	H101	H	0.593507	0.591495	0.881680
	H102	H	0.412880	0.583253	0.110824
	H103	H	0.412520	0.412092	0.886509
	H104	H	0.120030	0.595359	0.410425
	H105	H	0.884032	0.591757	0.597314
	H106	H	0.115882	0.409177	0.587087
	H107	H	0.886141	0.409899	0.401338
	H108	H	0.909145	0.613228	0.092510
	H109	H	0.079456	0.387486	0.086595
	H110	H	0.086414	0.611498	0.910883
	H111	H	0.913410	0.382879	0.905280
	H112	H	0.100758	0.898200	0.619529
	H113	H	0.098350	0.088846	0.385236
	H114	H	0.908337	0.092071	0.616011
	H115	H	0.917374	0.908622	0.387889
	H116	H	0.617785	0.091961	0.915727
	H117	H	0.386825	0.083429	0.096420
	H118	H	0.617818	0.901839	0.089411
	H119	H	0.388547	0.912000	0.906628
	C120	C	0.383029	0.004926	0.622327
	C121	C	0.625177	0.988852	0.622761
	C122	C	0.624783	0.006272	0.378491
	C123	C	0.382389	0.988043	0.379572
	C124	C	0.624476	0.374166	0.007674
	C125	C	0.622895	0.617235	0.990129
	C126	C	0.379845	0.618621	0.006958
	C127	C	0.380506	0.376025	0.989975
	C128	C	0.010742	0.618690	0.377616
	C129	C	0.993343	0.620910	0.620890
	C130	C	0.009727	0.378767	0.617968
	C131	C	0.993128	0.374972	0.375586
	C132	C	0.879332	0.505989	0.120406
	C133	C	0.121658	0.489904	0.119035
	C134	C	0.122005	0.506754	0.876808
	C135	C	0.880194	0.489724	0.876454
	C136	C	0.125257	0.875621	0.508961
	C137	C	0.125120	0.119329	0.492140
	C138	C	0.880629	0.120300	0.508798
	C139	C	0.881885	0.877474	0.491612
	C140	C	0.511280	0.117068	0.879635
	C141	C	0.493435	0.118126	0.122071
	C142	C	0.511244	0.874322	0.121948
	C143	C	0.494365	0.875128	0.878917
	C144	C	0.381639	0.884054	0.680557
	C145	C	0.625214	0.110075	0.681471
	C146	C	0.626861	0.884658	0.320481
	C147	C	0.379545	0.108617	0.320355
	C148	C	0.681533	0.373525	0.886457
	C149	C	0.679868	0.616994	0.111210
	C150	C	0.320453	0.621973	0.887445
	C151	C	0.320343	0.375627	0.109556
	C152	C	0.889147	0.676751	0.379451
	C153	C	0.114824	0.678761	0.622064
	C154	C	0.888217	0.321503	0.617696
	C155	C	0.114385	0.316885	0.375131
	C156	C	0.888560	0.377955	0.676409
	C157	C	0.113462	0.622991	0.681033
	C158	C	0.888242	0.618155	0.322450
	C159	C	0.114249	0.374104	0.317146
	C160	C	0.379141	0.678260	0.887591
	C161	C	0.623116	0.674843	0.111083
	C162	C	0.624006	0.315548	0.887039
	C163	C	0.379315	0.318878	0.110568
	C164	C	0.681775	0.883946	0.380907
	C165	C	0.680163	0.111814	0.621366
	C166	C	0.322929	0.884729	0.624104
	C167	C	0.323169	0.109062	0.379348
	C168	C	0.879726	0.383844	0.176730
	C169	C	0.122336	0.611105	0.178810
	C170	C	0.124976	0.386543	0.815969
	C171	C	0.877779	0.611422	0.818936
	C172	C	0.184500	0.874308	0.389090
	C173	C	0.183117	0.122100	0.612513
	C174	C	0.823104	0.118799	0.388012
	C175	C	0.824810	0.878387	0.612832
	C176	C	0.389973	0.176152	0.878395
	C177	C	0.614887	0.175297	0.121044
	C178	C	0.389877	0.816761	0.122283
	C179	C	0.615040	0.815677	0.879003
	C180	C	0.390362	0.873053	0.181090
	C181	C	0.615023	0.117756	0.178600
	C182	C	0.391049	0.120025	0.819766
	C183	C	0.615420	0.872653	0.821013
	C184	C	0.882104	0.174320	0.386639
	C185	C	0.125230	0.180216	0.611357
	C186	C	0.126563	0.817115	0.388365
	C187	C	0.882269	0.820138	0.612086
	C188	C	0.182512	0.386254	0.873676
	C189	C	0.179601	0.611458	0.120117
	C190	C	0.824786	0.383042	0.116485
	C191	C	0.821553	0.611430	0.878038
	C192	C	0.408168	0.088647	0.597481
	C193	C	0.602606	0.903666	0.599193
	C194	C	0.600393	0.091305	0.401359
	C195	C	0.408028	0.903942	0.403843
	C196	C	0.601412	0.398472	0.091896
	C197	C	0.599176	0.593269	0.906153
	C198	C	0.404103	0.593449	0.090660
	C199	C	0.405371	0.399323	0.906113
	C200	C	0.095804	0.594407	0.400146
	C201	C	0.909309	0.596547	0.596266
	C202	C	0.093814	0.403273	0.593697
	C203	C	0.908419	0.399056	0.399359
	C204	C	0.901927	0.591340	0.098850
	C205	C	0.097212	0.405820	0.094142
	C206	C	0.096257	0.590388	0.902829
	C207	C	0.905031	0.404946	0.898920
	C208	C	0.100296	0.900683	0.592662
	C209	C	0.100700	0.092991	0.408819
	C210	C	0.903886	0.098190	0.593181
	C211	C	0.904837	0.900260	0.407089
	C212	C	0.595448	0.092563	0.903530
	C213	C	0.408734	0.094498	0.098913
	C214	C	0.595440	0.898535	0.097735
	C215	C	0.409659	0.900066	0.902862
	Zn216	Zn	0.503622	-0.003774	0.751020
	Zn217	Zn	0.502958	-0.004260	0.249888
	Zn218	Zn	0.751701	0.497265	-0.001915
	Zn219	Zn	0.250970	0.498231	-0.002156
	Zn220	Zn	0.003020	0.747676	0.498984
	Zn221	Zn	0.002260	0.247939	0.498417
	Zn222	Zn	0.001089	0.498895	0.748055
	Zn223	Zn	0.000975	0.497197	0.248647
	Zn224	Zn	0.501953	0.746242	-0.000020
	Zn225	Zn	0.502312	0.246033	0.000008
	Zn226	Zn	0.752315	-0.001122	0.500690
	Zn227	Zn	0.254217	-0.002739	0.501448
	N228	N	0.418336	0.959682	0.679313
	N229	N	0.591837	0.032593	0.682342
	N230	N	0.592030	0.961715	0.318941
	N231	N	0.415732	0.032194	0.320403
	N232	N	0.681961	0.409256	0.962375
	N233	N	0.679816	0.581911	0.034976
	N234	N	0.321073	0.585631	0.962555
	N235	N	0.320719	0.410295	0.033419
	N236	N	0.966461	0.677063	0.412786
	N237	N	0.039121	0.677629	0.585527
	N238	N	0.964618	0.321806	0.581872
	N239	N	0.037952	0.317206	0.410589
	N240	N	0.965170	0.412891	0.676736
	N241	N	0.036983	0.587684	0.680476
	N242	N	0.964984	0.582861	0.321096
	N243	N	0.037705	0.409304	0.317327
	N244	N	0.415431	0.676234	0.963084
	N245	N	0.588355	0.675097	0.034930
	N246	N	0.589480	0.315573	0.963595
	N247	N	0.416037	0.319008	0.035268
	N248	N	0.680903	0.960740	0.416017
	N249	N	0.680429	0.035393	0.585624
	N250	N	0.323404	0.961156	0.588634
	N251	N	0.324635	0.032939	0.415187
	N252	N	0.913009	0.461400	0.179271
	N253	N	0.087119	0.534434	0.178420
	N254	N	0.088139	0.462589	0.817778
	N255	N	0.913437	0.534828	0.817684
	N256	N	0.183844	0.910051	0.465160
	N257	N	0.183129	0.084954	0.537205
	N258	N	0.821843	0.086136	0.464968
	N259	N	0.824605	0.913620	0.536833
	N260	N	0.465539	0.174434	0.915074
	N261	N	0.537972	0.175945	0.086764
	N262	N	0.466054	0.817366	0.086216
	N263	N	0.538527	0.816954	0.914093
	N264	N	0.466953	0.907988	0.181043
	N265	N	0.538334	0.083205	0.179547
	N266	N	0.467388	0.084020	0.820301
	N267	N	0.539289	0.908772	0.820936
	N268	N	0.917143	0.175435	0.462777
	N269	N	0.090198	0.178716	0.535248
	N270	N	0.090558	0.817777	0.464046
	N271	N	0.916883	0.819339	0.535778
	N272	N	0.180979	0.462143	0.910553
	N273	N	0.179289	0.535275	0.083799
	N274	N	0.824259	0.459793	0.082368
	N275	N	0.822521	0.534780	0.912686
	O276	O	0.502648	0.674981	0.323716
	H277	H	0.496154	0.670726	0.335222
	H278	H	0.489531	0.681553	0.321313
	O279	O	0.610260	0.458981	0.599342
	H280	H	0.620046	0.450818	0.590631
	H281	H	0.611152	0.468958	0.613003
	O282	O	0.635977	0.337376	0.470033
	H283	H	0.649199	0.330098	0.464996
	H284	H	0.629585	0.328454	0.456581
	O285	O	1.088214	0.161115	0.075768
	H286	H	1.102739	0.167896	0.069304
	H287	H	1.100137	0.170040	0.066535
	O288	O	-0.460046	0.485752	0.605023
	H289	H	-0.462818	0.489840	0.579449
	H290	H	-0.447352	0.483137	0.609823
	O291	O	0.528335	0.431420	0.502676
	H292	H	0.525611	0.411354	0.508423
	H293	H	0.519336	0.449629	0.511448
	O294	O	0.627125	0.519448	0.358059
	H295	H	0.628802	0.527941	0.359420
	H296	H	0.611003	0.511112	0.363006
	O297	O	0.961769	1.083701	0.883606
	H298	H	0.979181	1.085087	0.883751
	H299	H	0.963779	1.079766	0.894063
	O300	O	0.083459	0.023190	0.184060
	H301	H	0.095348	0.032812	0.167199
	H302	H	0.088041	0.046233	0.198586
	O303	O	0.506826	0.636911	0.601714
	H304	H	0.506374	0.632338	0.608034
	H305	H	0.493955	0.624931	0.605731
	O306	O	1.144797	-0.098296	-0.103903
	H307	H	1.131471	-0.095886	-0.117463
	H308	H	1.140844	-0.103707	-0.096788
	O309	O	0.694723	0.545361	0.408864
	H310	H	0.681178	0.551582	0.416704
	H311	H	0.703810	0.543895	0.399528
	O312	O	0.926194	0.873647	0.104352
	H313	H	0.918817	0.866742	0.113385
	H314	H	0.939738	0.876834	0.105932
	O315	O	0.334036	0.413792	0.309464
	H316	H	0.345843	0.416437	0.307614
	H317	H	0.332479	0.405692	0.327793
	O318	O	0.296986	0.322726	0.570745
	H319	H	0.298047	0.320320	0.605623
	H320	H	0.290080	0.309525	0.586883
	O321	O	1.154645	0.187354	1.112922
	H322	H	1.164298	0.186292	1.129628
	H323	H	1.174214	0.195531	1.115146
	O324	O	-0.110711	0.171451	0.876706
	H325	H	-0.113109	0.177772	0.880911
	H326	H	-0.117151	0.162314	0.895510
	O327	O	0.522725	0.691632	0.596044
	H328	H	0.516364	0.703341	0.606340
	H329	H	0.509229	0.688105	0.611049
	O330	O	0.470319	0.639869	0.364494
	H331	H	0.483320	0.627546	0.356543
	H332	H	0.470370	0.641845	0.356760
	O333	O	0.979944	0.791875	1.014630
	H334	H	0.994620	0.795470	1.007532
	H335	H	0.982869	0.782544	1.016456
	O336	O	0.474617	0.435545	0.450623
	H337	H	0.474106	0.424631	0.446667
	H338	H	0.475861	0.445282	0.466966
	O339	O	0.806960	0.171747	0.901801
	H340	H	0.788501	0.176065	0.914251
	H341	H	0.810093	0.155667	0.909747
	O342	O	-0.011954	0.846594	0.911204
	H343	H	0.004016	0.844885	0.907497
	H344	H	-0.019784	0.844719	0.940593
	O345	O	0.019643	0.828329	0.832467
	H346	H	0.026303	0.830212	0.835870
	H347	H	0.027063	0.816275	0.823108
	O348	O	0.379216	0.319283	0.676908
	H349	H	0.406220	0.317922	0.687816
	H350	H	0.381295	0.344464	0.682817
	O351	O	0.195888	0.133441	0.199910
	H352	H	0.218497	0.148504	0.208070
	H353	H	0.196129	0.102382	0.204537
	O354	O	1.022116	1.080376	-0.036704
	H355	H	1.008941	1.078480	-0.034328
	H356	H	1.027559	1.084134	-0.027180
	O357	O	0.005253	1.008078	0.201108
	H358	H	0.014006	0.996630	0.216424
	H359	H	-0.009796	0.985525	0.190792
	O360	O	0.510730	0.575912	0.517909
	H361	H	0.499671	0.563199	0.500335
	H362	H	0.506272	0.588324	0.512116
	O363	O	0.354701	0.639462	0.547414
	H364	H	0.345761	0.642549	0.544627
	H365	H	0.356744	0.637447	0.535017
	O366	O	0.511809	0.324279	0.540568
	H367	H	0.521217	0.319858	0.544613
	H368	H	0.523792	0.315104	0.529187
	O369	O	0.318625	0.634965	0.325195
	H370	H	0.305174	0.641188	0.308607
	H371	H	0.318739	0.622066	0.325481
	O372	O	0.364905	0.487204	0.409026
	H373	H	0.360256	0.464575	0.414279
	H374	H	0.364509	0.491923	0.419120
	O375	O	0.518685	0.304050	0.396427
	H376	H	0.537973	0.305572	0.392032
	H377	H	0.531276	0.286354	0.393223
	O378	O	0.693454	0.345386	0.314296
	H379	H	0.703293	0.352767	0.311136
	H380	H	0.702629	0.354219	0.317177
	O381	O	0.588396	0.496923	0.683152
	H382	H	0.586119	0.507366	0.686473
	H383	H	0.583948	0.502167	0.677655
	O384	O	0.146865	1.010926	0.946074
	H385	H	0.148095	1.010328	0.932899
	H386	H	0.136373	1.016161	0.947108
	O387	O	0.938416	0.884810	0.139226
	H388	H	0.932926	0.886217	0.146037
	H389	H	0.935573	0.900200	0.138700
	O390	O	0.579845	0.524077	0.415518
	H391	H	0.578867	0.520441	0.419103
	H392	H	0.574445	0.509306	0.421519
	O393	O	0.901291	-0.088027	0.894720
	H394	H	0.905078	-0.084226	0.900768
	H395	H	0.890282	-0.086037	0.893195
	O396	O	0.137827	0.990969	0.940446
	H397	H	0.119108	0.985192	0.951622
	H398	H	0.128353	0.978692	0.928762
	O399	O	0.328289	0.508767	0.693676
	H400	H	0.322948	0.511819	0.686250
	H401	H	0.321933	0.521268	0.704305
	O402	O	0.897126	-0.144415	1.154299
	H403	H	0.889796	-0.149208	1.159682
	H404	H	0.918631	-0.147490	1.168398
	O405	O	0.170272	-0.081343	-0.014950
	H406	H	0.171047	-0.077336	-0.016925
	H407	H	0.163828	-0.060407	-0.017973
	O408	O	0.885191	1.061167	1.058164
	H409	H	0.889890	1.049225	1.060474
	H410	H	0.897195	1.058588	1.058482
	O411	O	0.932148	1.110707	0.116541
	H412	H	0.953472	1.104332	0.115434
	H413	H	0.929053	1.097236	0.094881
	O414	O	0.122489	0.017465	0.840460
	H415	H	0.119361	0.017706	0.834899
	H416	H	0.124797	0.008209	0.832049
	O417	O	0.395431	0.546137	0.532412
	H418	H	0.409738	0.545331	0.542150
	H419	H	0.377844	0.554305	0.523165
	O420	O	0.127155	0.969517	0.007881
	H421	H	0.114157	0.959916	0.004992
	H422	H	0.124665	0.991647	-0.004089
	O423	O	0.808947	-0.038428	-0.020756
	H424	H	0.816546	-0.050939	-0.030250
	H425	H	0.806245	-0.053882	-0.015212
	O426	O	-0.134645	0.031277	0.814397
	H427	H	-0.149003	0.029469	0.799447
	H428	H	-0.128139	0.039241	0.823670
	O429	O	0.521512	0.512774	0.583388
	H430	H	0.522711	0.516437	0.590521
	H431	H	0.523263	0.515358	0.577158
