data_Molecule from HDF5

_cell_length_a		16.189839
_cell_length_b		16.302993
_cell_length_c		16.180451
_cell_angle_alpha	90.138486
_cell_angle_beta	89.850444
_cell_angle_gamma	90.108955
_symmetry_space_group_name_H-M	'P 1'
_symmetry_Int_Tables_number		1

loop_
	_symmetry_equiv_pos_as_xyz
	x,y,z

loop_
	_atom_site_label
	_atom_site_type_symbol
	_atom_site_fract_x
	_atom_site_fract_y
	_atom_site_fract_z
	H0	H	0.399090	0.830274	0.706680
	H1	H	0.596477	0.158603	0.707047
	H2	H	0.595284	0.831178	0.278667
	H3	H	0.399328	0.158779	0.278182
	H4	H	0.712488	0.394889	0.829153
	H5	H	0.709439	0.593338	0.158450
	H6	H	0.285069	0.591063	0.827909
	H7	H	0.284982	0.397144	0.158162
	H8	H	0.833624	0.708584	0.394830
	H9	H	0.161462	0.710988	0.592910
	H10	H	0.834459	0.278683	0.596683
	H11	H	0.162174	0.279905	0.393153
	H12	H	0.833486	0.398228	0.708576
	H13	H	0.162971	0.594988	0.707318
	H14	H	0.833521	0.591663	0.282095
	H15	H	0.162992	0.396886	0.280756
	H16	H	0.398368	0.709083	0.829163
	H17	H	0.597051	0.710327	0.156547
	H18	H	0.596842	0.281281	0.828601
	H19	H	0.396748	0.279516	0.156259
	H20	H	0.712391	0.831902	0.392578
	H21	H	0.712507	0.158532	0.591992
	H22	H	0.281847	0.831143	0.591375
	H23	H	0.283338	0.158784	0.394846
	H24	H	0.898068	0.331248	0.208730
	H25	H	0.095631	0.658931	0.205814
	H26	H	0.098221	0.332615	0.777164
	H27	H	0.899350	0.659162	0.780492
	H28	H	0.212112	0.895567	0.328645
	H29	H	0.211464	0.093386	0.657744
	H30	H	0.786446	0.091445	0.327231
	H31	H	0.783085	0.898479	0.657610
	H32	H	0.333636	0.208069	0.892687
	H33	H	0.661499	0.211026	0.091697
	H34	H	0.333950	0.780322	0.092434
	H35	H	0.662129	0.779941	0.892235
	H36	H	0.333219	0.897249	0.206851
	H37	H	0.662862	0.093566	0.206032
	H38	H	0.333614	0.091945	0.779220
	H39	H	0.662931	0.896132	0.778497
	H40	H	0.898902	0.210709	0.329429
	H41	H	0.098765	0.210289	0.657346
	H42	H	0.096586	0.781014	0.329259
	H43	H	0.896112	0.780939	0.657826
	H44	H	0.211192	0.331434	0.894546
	H45	H	0.212630	0.657456	0.092181
	H46	H	0.782155	0.330928	0.092395
	H47	H	0.782876	0.658442	0.896260
	H48	H	0.398090	0.112751	0.586503
	H49	H	0.594916	0.876354	0.585979
	H50	H	0.580640	0.108951	0.400686
	H51	H	0.407197	0.878082	0.395782
	H52	H	0.594502	0.407223	0.110855
	H53	H	0.583930	0.585416	0.878043
	H54	H	0.408142	0.586731	0.109608
	H55	H	0.407957	0.409348	0.878150
	H56	H	0.110632	0.585975	0.416132
	H57	H	0.886623	0.576001	0.580178
	H58	H	0.117899	0.402900	0.593936
	H59	H	0.879086	0.403186	0.395961
	H60	H	0.115970	0.395481	0.579401
	H61	H	0.876306	0.587913	0.601974
	H62	H	0.116627	0.578805	0.387840
	H63	H	0.880521	0.396401	0.404395
	H64	H	0.405094	0.590777	0.111483
	H65	H	0.591219	0.594739	0.873270
	H66	H	0.581559	0.403880	0.108125
	H67	H	0.410084	0.392040	0.873817
	H68	H	0.599094	0.111190	0.408851
	H69	H	0.588662	0.877728	0.589480
	H70	H	0.407842	0.111750	0.592584
	H71	H	0.406522	0.880650	0.403739
	H72	H	0.897187	0.613001	0.086209
	H73	H	0.093211	0.375587	0.089275
	H74	H	0.092081	0.610117	0.907711
	H75	H	0.908086	0.374682	0.884951
	H76	H	0.093033	0.901926	0.612489
	H77	H	0.087505	0.090146	0.376032
	H78	H	0.908223	0.080168	0.607297
	H79	H	0.904616	0.898674	0.373706
	H80	H	0.613026	0.079495	0.898842
	H81	H	0.379662	0.081307	0.094894
	H82	H	0.613951	0.903349	0.080705
	H83	H	0.381935	0.901209	0.904019
	H84	H	0.615829	0.905254	0.088612
	H85	H	0.377487	0.098165	0.085443
	H86	H	0.618755	0.093215	0.892548
	H87	H	0.379900	0.903877	0.897528
	H88	H	0.910810	0.094597	0.610385
	H89	H	0.092348	0.088214	0.374845
	H90	H	0.088244	0.906909	0.608709
	H91	H	0.903302	0.902107	0.375794
	H92	H	0.097235	0.613768	0.897859
	H93	H	0.087657	0.377544	0.088297
	H94	H	0.904831	0.612492	0.094430
	H95	H	0.916797	0.385019	0.909975
	H96	H	0.407987	0.108856	0.581841
	H97	H	0.589267	0.879516	0.582077
	H98	H	0.595285	0.116073	0.388615
	H99	H	0.399411	0.877685	0.400001
	H100	H	0.589817	0.393875	0.113718
	H101	H	0.596453	0.582291	0.874842
	H102	H	0.402730	0.585767	0.110216
	H103	H	0.394078	0.400060	0.871033
	H104	H	0.122613	0.605978	0.396916
	H105	H	0.878185	0.601568	0.579483
	H106	H	0.110736	0.410706	0.581324
	H107	H	0.883292	0.406601	0.405556
	H108	H	0.906982	0.609240	0.084239
	H109	H	0.092189	0.377553	0.084579
	H110	H	0.085441	0.611401	0.898860
	H111	H	0.890230	0.376097	0.906987
	H112	H	0.085674	0.899935	0.610648
	H113	H	0.089748	0.085290	0.376819
	H114	H	0.897093	0.088061	0.613389
	H115	H	0.907337	0.899867	0.376153
	H116	H	0.615080	0.092522	0.908409
	H117	H	0.384918	0.082778	0.075766
	H118	H	0.616808	0.897055	0.084570
	H119	H	0.379299	0.897115	0.898467
	C120	C	0.375691	0.002959	0.615170
	C121	C	0.619498	0.986351	0.614387
	C122	C	0.619814	0.003813	0.370614
	C123	C	0.375910	0.986813	0.371242
	C124	C	0.618428	0.373049	0.002178
	C125	C	0.618942	0.616190	0.984417
	C126	C	0.376059	0.616248	0.001769
	C127	C	0.375446	0.372461	0.983713
	C128	C	0.007309	0.616933	0.372587
	C129	C	0.989186	0.617964	0.615943
	C130	C	0.006555	0.374012	0.615029
	C131	C	0.989514	0.373246	0.372664
	C132	C	0.874649	0.503297	0.116591
	C133	C	0.119234	0.485559	0.115302
	C134	C	0.119726	0.504002	0.872194
	C135	C	0.876279	0.486589	0.872367
	C136	C	0.118318	0.873941	0.501968
	C137	C	0.119382	0.116738	0.484503
	C138	C	0.876766	0.116387	0.501613
	C139	C	0.875928	0.872723	0.484261
	C140	C	0.506678	0.116027	0.871019
	C141	C	0.489307	0.116743	0.114026
	C142	C	0.506956	0.873559	0.113791
	C143	C	0.489297	0.872723	0.871141
	C144	C	0.378112	0.879441	0.669595
	C145	C	0.616854	0.109544	0.669399
	C146	C	0.616626	0.880403	0.315560
	C147	C	0.378432	0.109954	0.315987
	C148	C	0.674684	0.374823	0.878314
	C149	C	0.672789	0.613742	0.108688
	C150	C	0.321413	0.612640	0.877774
	C151	C	0.321867	0.376385	0.108419
	C152	C	0.882973	0.670823	0.375308
	C153	C	0.112636	0.673156	0.613173
	C154	C	0.883205	0.317720	0.614989
	C155	C	0.113060	0.317840	0.373566
	C156	C	0.882754	0.376703	0.671075
	C157	C	0.113334	0.615507	0.670207
	C158	C	0.882982	0.612670	0.318907
	C159	C	0.113505	0.375962	0.317534
	C160	C	0.378299	0.670938	0.877951
	C161	C	0.616907	0.672071	0.107798
	C162	C	0.617022	0.318666	0.877850
	C163	C	0.377089	0.317333	0.107383
	C164	C	0.674786	0.880671	0.372375
	C165	C	0.674689	0.109628	0.612183
	C166	C	0.320114	0.879750	0.612017
	C167	C	0.321232	0.110039	0.374260
	C168	C	0.877808	0.380071	0.171063
	C169	C	0.116525	0.609424	0.169114
	C170	C	0.117781	0.381181	0.815640
	C171	C	0.878546	0.610033	0.817756
	C172	C	0.174058	0.875682	0.378016
	C173	C	0.174173	0.114052	0.608482
	C174	C	0.823289	0.112690	0.376826
	C175	C	0.820683	0.877050	0.608451
	C176	C	0.382933	0.170312	0.872927
	C177	C	0.612756	0.172598	0.111990
	C178	C	0.382942	0.818297	0.112417
	C179	C	0.613041	0.817671	0.872259
	C180	C	0.382435	0.876757	0.168961
	C181	C	0.613281	0.114610	0.168979
	C182	C	0.382974	0.112619	0.816362
	C183	C	0.613399	0.875488	0.815823
	C184	C	0.879220	0.171812	0.377962
	C185	C	0.118197	0.172397	0.608144
	C186	C	0.116877	0.818622	0.378248
	C187	C	0.876755	0.818574	0.608432
	C188	C	0.174214	0.380522	0.873844
	C189	C	0.174970	0.608597	0.112746
	C190	C	0.819652	0.379964	0.113578
	C191	C	0.820988	0.609702	0.875845
	C192	C	0.398057	0.088906	0.593581
	C193	C	0.597500	0.900225	0.592153
	C194	C	0.598032	0.089753	0.392837
	C195	C	0.397918	0.901012	0.393216
	C196	C	0.595307	0.395023	0.088510
	C197	C	0.596931	0.594048	0.897719
	C198	C	0.398733	0.594217	0.088230
	C199	C	0.397448	0.394147	0.896874
	C200	C	0.094222	0.596290	0.393864
	C201	C	0.902724	0.595124	0.593903
	C202	C	0.092478	0.396516	0.591747
	C203	C	0.903167	0.395419	0.395375
	C204	C	0.896582	0.589543	0.094767
	C205	C	0.097272	0.399242	0.093781
	C206	C	0.097846	0.589730	0.894696
	C207	C	0.898501	0.400810	0.894150
	C208	C	0.095698	0.896258	0.588310
	C209	C	0.096523	0.094414	0.397992
	C210	C	0.898644	0.094115	0.588046
	C211	C	0.898485	0.893819	0.397767
	C212	C	0.593368	0.094746	0.893321
	C213	C	0.402984	0.094250	0.091772
	C214	C	0.593222	0.895567	0.091239
	C215	C	0.402780	0.894348	0.893503
	Zn216	Zn	0.497863	-0.005738	0.743479
	Zn217	Zn	0.497813	-0.004957	0.242113
	Zn218	Zn	0.746312	0.494279	-0.006383
	Zn219	Zn	0.247975	0.493910	-0.006432
	Zn220	Zn	-0.002345	0.745154	0.493995
	Zn221	Zn	-0.002014	0.244925	0.493771
	Zn222	Zn	-0.001352	0.495995	0.743608
	Zn223	Zn	-0.001616	0.494670	0.244603
	Zn224	Zn	0.498464	0.744646	-0.007600
	Zn225	Zn	0.497550	0.245060	-0.007802
	Zn226	Zn	0.748066	-0.004921	0.492645
	Zn227	Zn	0.246730	-0.004678	0.493249
	N228	N	0.412083	0.957055	0.671547
	N229	N	0.583366	0.031851	0.671042
	N230	N	0.583178	0.958034	0.314211
	N231	N	0.411844	0.032477	0.314070
	N232	N	0.675645	0.408033	0.956548
	N233	N	0.674066	0.579677	0.030939
	N234	N	0.320150	0.579213	0.955848
	N235	N	0.320615	0.409623	0.030396
	N236	N	0.961426	0.673730	0.407940
	N237	N	0.034396	0.674745	0.580304
	N238	N	0.961139	0.315867	0.580780
	N239	N	0.034841	0.316126	0.407392
	N240	N	0.960348	0.411028	0.671244
	N241	N	0.035248	0.582016	0.672126
	N242	N	0.961144	0.579800	0.317073
	N243	N	0.035616	0.409700	0.316759
	N244	N	0.411530	0.673384	0.956033
	N245	N	0.584118	0.673714	0.029367
	N246	N	0.582711	0.317269	0.955827
	N247	N	0.409916	0.314957	0.028857
	N248	N	0.677139	0.958374	0.405764
	N249	N	0.676566	0.031881	0.578782
	N250	N	0.318499	0.957382	0.579016
	N251	N	0.319724	0.032637	0.407914
	N252	N	0.911286	0.457881	0.173116
	N253	N	0.082813	0.531895	0.171014
	N254	N	0.084612	0.458871	0.814541
	N255	N	0.912299	0.532599	0.815451
	N256	N	0.175161	0.909422	0.456060
	N257	N	0.174961	0.080271	0.530504
	N258	N	0.821786	0.078810	0.454787
	N259	N	0.819721	0.909984	0.530206
	N260	N	0.460952	0.172433	0.906420
	N261	N	0.534545	0.174326	0.078683
	N262	N	0.461189	0.816302	0.078553
	N263	N	0.534857	0.815798	0.905897
	N264	N	0.460458	0.910021	0.169980
	N265	N	0.535584	0.080735	0.170335
	N266	N	0.460941	0.079470	0.815195
	N267	N	0.535421	0.908755	0.814752
	N268	N	0.911370	0.174315	0.456547
	N269	N	0.084685	0.174057	0.530059
	N270	N	0.082710	0.817461	0.456211
	N271	N	0.910127	0.815694	0.530229
	N272	N	0.175493	0.457735	0.908318
	N273	N	0.176931	0.530607	0.079890
	N274	N	0.817571	0.457520	0.080406
	N275	N	0.819534	0.531952	0.909069
	O276	O	0.982380	0.974148	-0.017396
	H277	H	0.979684	0.969907	-0.008400
	H278	H	0.988458	0.977647	-0.013340
	O279	O	0.538009	-0.482773	1.523388
	H280	H	0.553169	-0.486417	1.518725
	H281	H	0.539771	-0.485573	1.527045
	O282	O	0.042361	-0.008490	-0.016120
	H283	H	0.054876	-0.004393	-0.021117
	H284	H	0.045870	-0.014921	-0.021466
	O285	O	0.535471	0.474847	0.497779
	H286	H	0.539141	0.472778	0.490514
	H287	H	0.527815	0.476470	0.495303
	O288	O	-0.024018	0.044125	-0.018320
	H289	H	-0.016800	0.044000	-0.020913
	H290	H	-0.035098	0.042215	-0.019327
	O291	O	0.007366	0.999062	-0.074999
	H292	H	0.007528	0.997451	-0.081254
	H293	H	0.023802	0.999814	-0.076173
	O294	O	0.592677	1.507566	-0.513597
	H295	H	0.599579	1.512398	-0.514065
	H296	H	0.591642	1.510858	-0.515845
	O297	O	0.532777	0.489998	0.474573
	H298	H	0.527848	0.491266	0.470167
	H299	H	0.529091	0.487966	0.475430
	O300	O	0.542273	0.499043	0.512674
	H301	H	0.536796	0.495932	0.507987
	H302	H	0.554172	0.497389	0.512820
	O303	O	1.080193	-0.061257	0.960051
	H304	H	1.071506	-0.058687	0.958707
	H305	H	1.073959	-0.066654	0.959337
	O306	O	-0.016846	0.979309	0.991359
	H307	H	-0.015818	0.988358	0.989137
	H308	H	-0.017655	0.974546	0.992952
	O309	O	0.056105	1.049950	0.956954
	H310	H	0.052518	1.047384	0.963459
	H311	H	0.055059	1.048664	0.955051
	O312	O	-0.039355	-0.002788	1.030618
	H313	H	-0.048199	0.010524	1.027749
	H314	H	-0.041749	-0.001037	1.015279
	O315	O	0.519689	0.501039	0.505418
	H316	H	0.516389	0.496701	0.508440
	H317	H	0.517218	0.503235	0.503828
	O318	O	-0.009033	0.032260	0.974371
	H319	H	-0.010451	0.036383	0.975093
	H320	H	-0.010927	0.034431	0.975541
	O321	O	-0.011711	0.978420	0.943588
	H322	H	-0.010127	0.971699	0.946615
	H323	H	-0.003653	0.975593	0.944415
	O324	O	1.028478	0.060924	1.040227
	H325	H	1.028159	0.048681	1.042346
	H326	H	1.033823	0.072396	1.038125
	O327	O	1.006313	0.904925	0.938140
	H328	H	1.002690	0.908927	0.934291
	H329	H	1.002996	0.894154	0.941298
	O330	O	0.529197	0.466601	0.554793
	H331	H	0.534726	0.458780	0.550528
	H332	H	0.525726	0.464749	0.545543
	O333	O	0.476187	0.584131	0.522391
	H334	H	0.484765	0.595528	0.526148
	H335	H	0.469959	0.572690	0.529634
	O336	O	0.500592	0.489803	0.466469
	H337	H	0.497976	0.487358	0.475292
	H338	H	0.505378	0.497634	0.469041
	O339	O	0.462252	0.480632	0.433072
	H340	H	0.473129	0.486979	0.431030
	H341	H	0.469512	0.479397	0.431539
	O342	O	0.540628	0.475894	0.479542
	H343	H	0.543552	0.473550	0.478420
	H344	H	0.539363	0.461710	0.485675
	O345	O	0.493948	0.500561	0.455424
	H346	H	0.497712	0.504039	0.456090
	H347	H	0.480960	0.513214	0.458174
