data_Molecule from HDF5

_cell_length_a		16.277427
_cell_length_b		16.249660
_cell_length_c		16.307231
_cell_angle_alpha	89.980377
_cell_angle_beta	90.080971
_cell_angle_gamma	89.981297
_symmetry_space_group_name_H-M	'P 1'
_symmetry_Int_Tables_number		1

loop_
	_symmetry_equiv_pos_as_xyz
	x,y,z

loop_
	_atom_site_label
	_atom_site_type_symbol
	_atom_site_fract_x
	_atom_site_fract_y
	_atom_site_fract_z
	H0	H	0.403124	0.835249	0.713300
	H1	H	0.598873	0.164027	0.714003
	H2	H	0.597580	0.835784	0.286441
	H3	H	0.402208	0.163801	0.286040
	H4	H	0.712612	0.402210	0.835825
	H5	H	0.714705	0.597216	0.163276
	H6	H	0.286168	0.597691	0.836113
	H7	H	0.285153	0.401251	0.163902
	H8	H	0.836108	0.713312	0.403035
	H9	H	0.164599	0.713256	0.596589
	H10	H	0.836162	0.286236	0.597223
	H11	H	0.164493	0.286776	0.403473
	H12	H	0.835859	0.401726	0.714040
	H13	H	0.163882	0.597689	0.713046
	H14	H	0.836231	0.598540	0.285738
	H15	H	0.163993	0.401559	0.285398
	H16	H	0.401449	0.715016	0.836637
	H17	H	0.597730	0.712789	0.163828
	H18	H	0.596124	0.286926	0.835855
	H19	H	0.403087	0.286019	0.163582
	H20	H	0.712096	0.834821	0.404123
	H21	H	0.714227	0.163582	0.598121
	H22	H	0.287340	0.835627	0.596761
	H23	H	0.285942	0.164159	0.401851
	H24	H	0.902155	0.336140	0.214500
	H25	H	0.097562	0.664959	0.213124
	H26	H	0.097269	0.336010	0.785922
	H27	H	0.901926	0.665125	0.786413
	H28	H	0.213968	0.902553	0.336039
	H29	H	0.213961	0.097091	0.663758
	H30	H	0.785518	0.097943	0.336527
	H31	H	0.787110	0.903227	0.664407
	H32	H	0.335662	0.213834	0.902675
	H33	H	0.664202	0.213133	0.097849
	H34	H	0.335798	0.786856	0.096904
	H35	H	0.664616	0.785663	0.902551
	H36	H	0.336580	0.902225	0.214096
	H37	H	0.663829	0.097610	0.214456
	H38	H	0.336522	0.098233	0.785733
	H39	H	0.664397	0.902149	0.786485
	H40	H	0.902117	0.214028	0.336659
	H41	H	0.098057	0.213506	0.663776
	H42	H	0.096454	0.787360	0.335386
	H43	H	0.904209	0.787167	0.664038
	H44	H	0.212727	0.335869	0.903099
	H45	H	0.213833	0.664641	0.097694
	H46	H	0.787388	0.335041	0.096980
	H47	H	0.784960	0.663890	0.902150
	H48	H	0.396787	0.119749	0.592555
	H49	H	0.594436	0.882617	0.591881
	H50	H	0.595009	0.117387	0.407506
	H51	H	0.406980	0.883314	0.406250
	H52	H	0.592835	0.402338	0.117223
	H53	H	0.592483	0.595956	0.882767
	H54	H	0.404304	0.602554	0.119785
	H55	H	0.405401	0.398140	0.881386
	H56	H	0.114626	0.588068	0.409021
	H57	H	0.886870	0.583599	0.592929
	H58	H	0.117318	0.401487	0.590778
	H59	H	0.887050	0.415783	0.408102
	H60	H	0.114684	0.411157	0.591062
	H61	H	0.878757	0.598420	0.602687
	H62	H	0.118880	0.593478	0.399453
	H63	H	0.879955	0.403829	0.397143
	H64	H	0.400369	0.586202	0.116049
	H65	H	0.595381	0.592079	0.882987
	H66	H	0.598210	0.406136	0.117920
	H67	H	0.398824	0.412027	0.882978
	H68	H	0.593052	0.116627	0.405261
	H69	H	0.594368	0.881750	0.595808
	H70	H	0.410753	0.118662	0.602224
	H71	H	0.406844	0.882969	0.407766
	H72	H	0.908250	0.614939	0.089708
	H73	H	0.102507	0.378869	0.101122
	H74	H	0.094568	0.620464	0.896074
	H75	H	0.915875	0.386124	0.904869
	H76	H	0.099092	0.896086	0.620606
	H77	H	0.083379	0.095830	0.385542
	H78	H	0.904401	0.095918	0.618548
	H79	H	0.895297	0.904747	0.379990
	H80	H	0.616339	0.098577	0.913643
	H81	H	0.387710	0.084297	0.086487
	H82	H	0.616437	0.903702	0.090649
	H83	H	0.383983	0.902347	0.912695
	H84	H	0.616675	0.910600	0.095303
	H85	H	0.380528	0.090873	0.103550
	H86	H	0.614636	0.085059	0.906086
	H87	H	0.385640	0.913955	0.905844
	H88	H	0.905581	0.089481	0.615565
	H89	H	0.100494	0.101505	0.379388
	H90	H	0.100690	0.915688	0.615586
	H91	H	0.908502	0.916190	0.387192
	H92	H	0.084340	0.613746	0.908725
	H93	H	0.079736	0.385965	0.098913
	H94	H	0.902611	0.618469	0.093230
	H95	H	0.901810	0.384583	0.914693
	H96	H	0.411806	0.113273	0.586164
	H97	H	0.591206	0.882947	0.594044
	H98	H	0.592182	0.116324	0.407906
	H99	H	0.405646	0.882579	0.406500
	H100	H	0.592515	0.409180	0.115588
	H101	H	0.590793	0.591356	0.884386
	H102	H	0.415762	0.591566	0.113040
	H103	H	0.413861	0.410268	0.886581
	H104	H	0.118280	0.599353	0.409110
	H105	H	0.883527	0.601179	0.584647
	H106	H	0.118070	0.406780	0.599418
	H107	H	0.884039	0.400178	0.413772
	H108	H	0.909051	0.616977	0.096659
	H109	H	0.094735	0.386539	0.079468
	H110	H	0.100844	0.618133	0.912263
	H111	H	0.901276	0.379762	0.898121
	H112	H	0.082762	0.906065	0.613281
	H113	H	0.097746	0.083327	0.385076
	H114	H	0.910535	0.094221	0.616440
	H115	H	0.913215	0.897575	0.382887
	H116	H	0.620256	0.097356	0.898779
	H117	H	0.381171	0.103131	0.088759
	H118	H	0.618900	0.903415	0.098406
	H119	H	0.381180	0.903147	0.899634
	C120	C	0.379017	0.008523	0.621448
	C121	C	0.621863	0.991144	0.622034
	C122	C	0.621293	0.008178	0.378874
	C123	C	0.378111	0.991486	0.378361
	C124	C	0.621701	0.378080	0.008496
	C125	C	0.621423	0.621370	0.991492
	C126	C	0.378042	0.621978	0.008253
	C127	C	0.378047	0.378504	0.991736
	C128	C	0.008487	0.621736	0.378414
	C129	C	0.991751	0.622056	0.621292
	C130	C	0.008348	0.378398	0.621631
	C131	C	0.991953	0.378390	0.378375
	C132	C	0.878655	0.508369	0.121392
	C133	C	0.121108	0.492166	0.121577
	C134	C	0.121091	0.508628	0.878083
	C135	C	0.877901	0.492000	0.877896
	C136	C	0.121778	0.878131	0.507958
	C137	C	0.121693	0.121418	0.491710
	C138	C	0.878325	0.121509	0.508684
	C139	C	0.878092	0.878197	0.491853
	C140	C	0.508476	0.121779	0.878214
	C141	C	0.491604	0.121295	0.121473
	C142	C	0.508619	0.878148	0.122042
	C143	C	0.492148	0.878190	0.878281
	C144	C	0.382605	0.884406	0.675613
	C145	C	0.619107	0.114926	0.676332
	C146	C	0.618326	0.884439	0.324296
	C147	C	0.381044	0.114934	0.323461
	C148	C	0.675447	0.381194	0.884827
	C149	C	0.676705	0.618257	0.114503
	C150	C	0.323258	0.618918	0.885235
	C151	C	0.323254	0.381001	0.114829
	C152	C	0.884918	0.675878	0.381811
	C153	C	0.115359	0.675809	0.617652
	C154	C	0.884853	0.324003	0.618143
	C155	C	0.115644	0.324174	0.382266
	C156	C	0.884811	0.381382	0.676042
	C157	C	0.115126	0.618542	0.675609
	C158	C	0.885041	0.619108	0.323715
	C159	C	0.115214	0.381025	0.323415
	C160	C	0.380913	0.676811	0.885406
	C161	C	0.618434	0.675352	0.114984
	C162	C	0.617771	0.323862	0.884876
	C163	C	0.381412	0.323536	0.114993
	C164	C	0.675250	0.884319	0.382490
	C165	C	0.676586	0.114789	0.618889
	C166	C	0.324845	0.884573	0.618137
	C167	C	0.323494	0.115079	0.381142
	C168	C	0.881508	0.384942	0.176485
	C169	C	0.118459	0.615891	0.176029
	C170	C	0.118155	0.385049	0.823514
	C171	C	0.880979	0.615839	0.823599
	C172	C	0.175924	0.881763	0.384783
	C173	C	0.176209	0.118172	0.614996
	C174	C	0.823465	0.118602	0.385451
	C175	C	0.824633	0.882102	0.615389
	C176	C	0.384883	0.176376	0.881318
	C177	C	0.615330	0.175248	0.118152
	C178	C	0.384924	0.824484	0.117808
	C179	C	0.615606	0.823709	0.881774
	C180	C	0.385233	0.881277	0.176413
	C181	C	0.614967	0.118124	0.176384
	C182	C	0.385284	0.118787	0.823300
	C183	C	0.615475	0.881064	0.823695
	C184	C	0.881602	0.176020	0.385159
	C185	C	0.118716	0.175809	0.615027
	C186	C	0.117753	0.824359	0.384488
	C187	C	0.882444	0.824274	0.615131
	C188	C	0.175314	0.384869	0.881710
	C189	C	0.176041	0.615732	0.118492
	C190	C	0.824628	0.384370	0.117940
	C191	C	0.823018	0.615440	0.881061
	C192	C	0.400206	0.094833	0.599984
	C193	C	0.599951	0.904800	0.600289
	C194	C	0.599694	0.094515	0.400396
	C195	C	0.400019	0.905210	0.400373
	C196	C	0.600678	0.399379	0.094529
	C197	C	0.599316	0.599579	0.905429
	C198	C	0.400225	0.599940	0.094293
	C199	C	0.399700	0.400369	0.905905
	C200	C	0.094992	0.600035	0.399534
	C201	C	0.905348	0.600605	0.599738
	C202	C	0.094530	0.400063	0.600210
	C203	C	0.905990	0.400031	0.399916
	C204	C	0.900324	0.594592	0.099605
	C205	C	0.098893	0.406059	0.099671
	C206	C	0.099644	0.594909	0.899369
	C207	C	0.899907	0.405747	0.899472
	C208	C	0.100481	0.899810	0.594337
	C209	C	0.100143	0.099901	0.405578
	C210	C	0.900353	0.099710	0.594684
	C211	C	0.899300	0.899862	0.405561
	C212	C	0.594893	0.100096	0.899957
	C213	C	0.405385	0.099318	0.099569
	C214	C	0.595135	0.899435	0.101020
	C215	C	0.405974	0.899969	0.899779
	Zn216	Zn	0.500478	-0.000046	0.749883
	Zn217	Zn	0.500144	-0.000062	0.250543
	Zn218	Zn	0.749810	0.499558	-0.000585
	Zn219	Zn	0.249451	0.500477	0.000246
	Zn220	Zn	0.000012	0.750148	0.499767
	Zn221	Zn	0.000231	0.249716	0.500188
	Zn222	Zn	-0.000536	0.500450	0.749684
	Zn223	Zn	0.000161	0.500616	0.250364
	Zn224	Zn	0.500132	0.750200	0.000286
	Zn225	Zn	0.500316	0.249769	0.000020
	Zn226	Zn	0.749355	-0.000267	0.500353
	Zn227	Zn	0.250395	0.000028	0.500241
	N228	N	0.415531	0.962326	0.677626
	N229	N	0.585715	0.037105	0.678245
	N230	N	0.585405	0.962526	0.322019
	N231	N	0.414329	0.037086	0.321690
	N232	N	0.678221	0.414061	0.962461
	N233	N	0.678653	0.585382	0.036778
	N234	N	0.321588	0.585676	0.962739
	N235	N	0.321072	0.414390	0.037305
	N236	N	0.962583	0.677449	0.415167
	N237	N	0.037549	0.678103	0.584668
	N238	N	0.962618	0.322092	0.584931
	N239	N	0.038080	0.322306	0.415526
	N240	N	0.962491	0.414520	0.678259
	N241	N	0.037273	0.585628	0.677783
	N242	N	0.962902	0.585987	0.321551
	N243	N	0.037525	0.414482	0.321340
	N244	N	0.414360	0.678762	0.962966
	N245	N	0.584810	0.677387	0.037482
	N246	N	0.584863	0.322035	0.962559
	N247	N	0.414800	0.321735	0.037580
	N248	N	0.677060	0.962133	0.415789
	N249	N	0.678397	0.036845	0.585876
	N250	N	0.322357	0.962494	0.585057
	N251	N	0.321573	0.037328	0.414501
	N252	N	0.914354	0.462856	0.178667
	N253	N	0.085000	0.538070	0.177987
	N254	N	0.085248	0.463010	0.821181
	N255	N	0.914251	0.538148	0.821615
	N256	N	0.178609	0.914405	0.462681
	N257	N	0.178328	0.085103	0.537347
	N258	N	0.821104	0.085624	0.463092
	N259	N	0.821988	0.915002	0.537676
	N260	N	0.462558	0.178139	0.914953
	N261	N	0.537530	0.177258	0.084800
	N262	N	0.462640	0.822276	0.085072
	N263	N	0.537935	0.821870	0.915116
	N264	N	0.463146	0.914084	0.179017
	N265	N	0.537017	0.085366	0.178582
	N266	N	0.463091	0.085809	0.821316
	N267	N	0.537968	0.914496	0.821819
	N268	N	0.914798	0.178025	0.462852
	N269	N	0.085694	0.177887	0.537412
	N270	N	0.084698	0.822471	0.462078
	N271	N	0.914961	0.822074	0.537340
	N272	N	0.177178	0.462615	0.915140
	N273	N	0.177786	0.537988	0.085396
	N274	N	0.822680	0.462046	0.084262
	N275	N	0.821180	0.537549	0.914193
