data_Molecule from HDF5

_cell_length_a		16.576803
_cell_length_b		16.693881
_cell_length_c		16.634028
_cell_angle_alpha	89.918831
_cell_angle_beta	89.898425
_cell_angle_gamma	90.017990
_symmetry_space_group_name_H-M	'P 1'
_symmetry_Int_Tables_number		1

loop_
	_symmetry_equiv_pos_as_xyz
	x,y,z

loop_
	_atom_site_label
	_atom_site_type_symbol
	_atom_site_fract_x
	_atom_site_fract_y
	_atom_site_fract_z
	H0	H	0.383977	0.848637	0.715798
	H1	H	0.598112	0.157012	0.716491
	H2	H	0.605643	0.853061	0.263560
	H3	H	0.383668	0.155420	0.267668
	H4	H	0.709967	0.399452	0.836728
	H5	H	0.710313	0.605816	0.148864
	H6	H	0.268776	0.610329	0.837851
	H7	H	0.266687	0.396405	0.146319
	H8	H	0.834580	0.724689	0.388420
	H9	H	0.144512	0.726716	0.599544
	H10	H	0.836551	0.280032	0.599533
	H11	H	0.146037	0.282766	0.386209
	H12	H	0.834646	0.397402	0.713781
	H13	H	0.144494	0.609474	0.715430
	H14	H	0.834986	0.609863	0.271705
	H15	H	0.146378	0.400378	0.271704
	H16	H	0.384485	0.726233	0.838427
	H17	H	0.597293	0.725015	0.147223
	H18	H	0.595091	0.282174	0.837596
	H19	H	0.381061	0.278232	0.146298
	H20	H	0.717464	0.850471	0.383143
	H21	H	0.715619	0.156625	0.601822
	H22	H	0.267424	0.849397	0.600162
	H23	H	0.268227	0.156163	0.384675
	H24	H	0.885796	0.349013	0.214956
	H25	H	0.097558	0.657841	0.214512
	H26	H	0.098967	0.350558	0.767664
	H27	H	0.882464	0.656669	0.769488
	H28	H	0.212793	0.898615	0.338006
	H29	H	0.214436	0.110832	0.646533
	H30	H	0.767522	0.111300	0.338930
	H31	H	0.766004	0.895514	0.646480
	H32	H	0.334854	0.222081	0.888826
	H33	H	0.645595	0.226139	0.099723
	H34	H	0.339244	0.776447	0.104991
	H35	H	0.647525	0.781471	0.887758
	H36	H	0.339224	0.892969	0.219482
	H37	H	0.645711	0.110209	0.214844
	H38	H	0.335247	0.105368	0.773102
	H39	H	0.647888	0.898403	0.772349
	H40	H	0.883342	0.227447	0.338439
	H41	H	0.100591	0.229602	0.644796
	H42	H	0.097585	0.781801	0.338156
	H43	H	0.881541	0.778499	0.645537
	H44	H	0.215766	0.350987	0.882557
	H45	H	0.213676	0.657373	0.097430
	H46	H	0.770360	0.347956	0.098050
	H47	H	0.768459	0.657453	0.888129
	H48	H	0.395828	0.117212	0.585497
	H49	H	0.579547	0.893584	0.579215
	H50	H	0.577850	0.112308	0.405603
	H51	H	0.411193	0.895666	0.408832
	H52	H	0.577538	0.414625	0.103733
	H53	H	0.577703	0.585856	0.884123
	H54	H	0.401498	0.589549	0.104456
	H55	H	0.399203	0.418445	0.881438
	H56	H	0.103396	0.592209	0.401477
	H57	H	0.880184	0.587579	0.579758
	H58	H	0.100085	0.418036	0.576302
	H59	H	0.879126	0.418012	0.402914
	H60	H	0.101139	0.418782	0.582540
	H61	H	0.877320	0.592168	0.582949
	H62	H	0.102992	0.594741	0.404226
	H63	H	0.877251	0.412726	0.402834
	H64	H	0.403144	0.587548	0.101079
	H65	H	0.574606	0.596674	0.881172
	H66	H	0.577920	0.410106	0.105012
	H67	H	0.408178	0.413380	0.884049
	H68	H	0.578879	0.112858	0.405116
	H69	H	0.579905	0.893340	0.581604
	H70	H	0.409695	0.112801	0.587106
	H71	H	0.399318	0.892271	0.410259
	H72	H	0.897704	0.617149	0.084435
	H73	H	0.088321	0.388460	0.083396
	H74	H	0.078103	0.611833	0.908703
	H75	H	0.903976	0.394666	0.907967
	H76	H	0.079564	0.915024	0.604299
	H77	H	0.079615	0.092082	0.382367
	H78	H	0.895588	0.088423	0.604840
	H79	H	0.909798	0.916071	0.384624
	H80	H	0.602479	0.093392	0.908889
	H81	H	0.380737	0.089502	0.079662
	H82	H	0.599053	0.914862	0.072211
	H83	H	0.379043	0.911292	0.905381
	H84	H	0.600693	0.921426	0.079984
	H85	H	0.379751	0.089543	0.081264
	H86	H	0.602246	0.087656	0.902512
	H87	H	0.380519	0.914541	0.905773
	H88	H	0.910688	0.083834	0.597415
	H89	H	0.078712	0.092710	0.380594
	H90	H	0.077450	0.916756	0.603131
	H91	H	0.902200	0.911381	0.379645
	H92	H	0.079619	0.614912	0.903379
	H93	H	0.069506	0.392637	0.089312
	H94	H	0.903722	0.614405	0.083352
	H95	H	0.894859	0.389129	0.904335
	H96	H	0.403146	0.111081	0.574194
	H97	H	0.577353	0.894330	0.580635
	H98	H	0.577673	0.113460	0.404868
	H99	H	0.404811	0.890901	0.399530
	H100	H	0.581384	0.413080	0.105773
	H101	H	0.585612	0.593336	0.879111
	H102	H	0.404883	0.590915	0.102494
	H103	H	0.400398	0.408368	0.878496
	H104	H	0.101191	0.591347	0.404474
	H105	H	0.879440	0.593639	0.577033
	H106	H	0.102685	0.413119	0.579843
	H107	H	0.879828	0.414197	0.407600
	H108	H	0.899326	0.614585	0.078789
	H109	H	0.075804	0.398331	0.071067
	H110	H	0.074156	0.611506	0.904030
	H111	H	0.903802	0.390568	0.897108
	H112	H	0.076731	0.913934	0.603954
	H113	H	0.080143	0.093183	0.381786
	H114	H	0.908785	0.099970	0.603557
	H115	H	0.900895	0.921206	0.383039
	H116	H	0.605959	0.095736	0.901246
	H117	H	0.379299	0.090641	0.080349
	H118	H	0.604693	0.911582	0.080299
	H119	H	0.379065	0.913678	0.902590
	C120	C	0.369358	0.011741	0.615026
	C121	C	0.612665	0.995012	0.614183
	C122	C	0.613420	0.011946	0.370880
	C123	C	0.371168	0.994329	0.371754
	C124	C	0.611280	0.381303	0.001671
	C125	C	0.611945	0.623685	0.984411
	C126	C	0.370039	0.623459	0.000938
	C127	C	0.368251	0.380606	0.983623
	C128	C	-0.000819	0.625251	0.371251
	C129	C	0.981308	0.624590	0.613478
	C130	C	-0.000994	0.382953	0.613086
	C131	C	0.981922	0.382972	0.371885
	C132	C	0.868688	0.512459	0.114524
	C133	C	0.111734	0.494892	0.113980
	C134	C	0.111090	0.511523	0.871335
	C135	C	0.868529	0.494176	0.871294
	C136	C	0.111525	0.882659	0.501282
	C137	C	0.113049	0.125792	0.483512
	C138	C	0.871393	0.124095	0.500184
	C139	C	0.869398	0.882183	0.483997
	C140	C	0.499819	0.123381	0.872445
	C141	C	0.482150	0.123868	0.113274
	C142	C	0.500096	0.881716	0.113407
	C143	C	0.482989	0.881470	0.872075
	C144	C	0.366061	0.895251	0.675436
	C145	C	0.615944	0.110798	0.675809
	C146	C	0.620893	0.898209	0.306267
	C147	C	0.366605	0.109616	0.308910
	C148	C	0.670631	0.380388	0.884017
	C149	C	0.671000	0.624760	0.101871
	C150	C	0.308947	0.627770	0.884496
	C151	C	0.307053	0.378125	0.100157
	C152	C	0.881849	0.685361	0.369222
	C153	C	0.098028	0.685943	0.617460
	C154	C	0.882881	0.320646	0.617312
	C155	C	0.099175	0.323012	0.368360
	C156	C	0.881909	0.379192	0.673980
	C157	C	0.098068	0.627911	0.674766
	C158	C	0.881733	0.627833	0.311585
	C159	C	0.099421	0.381350	0.311425
	C160	C	0.366608	0.685528	0.884960
	C161	C	0.614597	0.683758	0.101174
	C162	C	0.613368	0.322217	0.884332
	C163	C	0.363564	0.319124	0.099651
	C164	C	0.676855	0.897179	0.365723
	C165	C	0.674349	0.110647	0.618555
	C166	C	0.307939	0.895849	0.617944
	C167	C	0.309214	0.109826	0.367164
	C168	C	0.867094	0.395466	0.174791
	C169	C	0.115550	0.611122	0.174328
	C170	C	0.116104	0.396585	0.808723
	C171	C	0.865355	0.610330	0.810639
	C172	C	0.172354	0.880464	0.384652
	C173	C	0.174340	0.129035	0.599774
	C174	C	0.809067	0.128124	0.384789
	C175	C	0.806959	0.877908	0.600072
	C176	C	0.381885	0.182303	0.870496
	C177	C	0.598803	0.185592	0.116978
	C178	C	0.385145	0.818226	0.120667
	C179	C	0.600730	0.821839	0.869899
	C180	C	0.385100	0.876317	0.177611
	C181	C	0.599031	0.127907	0.174322
	C182	C	0.382019	0.124488	0.812975
	C183	C	0.600976	0.879851	0.812446
	C184	C	0.866588	0.186110	0.384489
	C185	C	0.117541	0.187842	0.599049
	C186	C	0.115104	0.822239	0.384756
	C187	C	0.864594	0.820089	0.599892
	C188	C	0.174235	0.396674	0.866063
	C189	C	0.173131	0.611038	0.116114
	C190	C	0.809932	0.394824	0.116542
	C191	C	0.808545	0.610904	0.869463
	C192	C	0.395477	0.092649	0.589566
	C193	C	0.586378	0.914653	0.588031
	C194	C	0.585835	0.092025	0.397749
	C195	C	0.397700	0.913962	0.398549
	C196	C	0.586114	0.405695	0.083546
	C197	C	0.586625	0.599053	0.902733
	C198	C	0.395830	0.596852	0.081568
	C199	C	0.394986	0.406182	0.902524
	C200	C	0.081198	0.599906	0.396276
	C201	C	0.900206	0.598719	0.587365
	C202	C	0.080175	0.409265	0.587085
	C203	C	0.900033	0.407845	0.397218
	C204	C	0.893380	0.594023	0.089486
	C205	C	0.085432	0.414140	0.088373
	C206	C	0.084688	0.591946	0.897857
	C207	C	0.893656	0.412657	0.896157
	C208	C	0.085285	0.907999	0.582538
	C209	C	0.086960	0.099913	0.402646
	C210	C	0.897671	0.097968	0.581011
	C211	C	0.896606	0.908719	0.403483
	C212	C	0.582195	0.099193	0.897070
	C213	C	0.401079	0.097601	0.087845
	C214	C	0.580513	0.908584	0.085491
	C215	C	0.401001	0.906187	0.897211
	Zn216	Zn	0.491513	0.002301	0.743456
	Zn217	Zn	0.491848	0.002498	0.242042
	Zn218	Zn	0.740263	0.502351	-0.006569
	Zn219	Zn	0.240849	0.502987	-0.008052
	Zn220	Zn	-0.009598	0.753060	0.492482
	Zn221	Zn	-0.009048	0.254310	0.492436
	Zn222	Zn	-0.010026	0.503347	0.741941
	Zn223	Zn	-0.009921	0.504355	0.243126
	Zn224	Zn	0.491263	0.752682	-0.007008
	Zn225	Zn	0.490047	0.252645	-0.007072
	Zn226	Zn	0.741474	0.003819	0.492675
	Zn227	Zn	0.241438	0.003309	0.492872
	N228	N	0.403641	0.968503	0.673949
	N229	N	0.578342	0.037779	0.673357
	N230	N	0.581972	0.970544	0.309395
	N231	N	0.404452	0.036647	0.311653
	N232	N	0.669607	0.416305	0.958226
	N233	N	0.669466	0.588221	0.028104
	N234	N	0.310982	0.589776	0.957643
	N235	N	0.309856	0.415640	0.026699
	N236	N	0.956108	0.684020	0.405421
	N237	N	0.024255	0.684207	0.580333
	N238	N	0.956918	0.322694	0.580160
	N239	N	0.025039	0.323936	0.405262
	N240	N	0.955178	0.417040	0.671588
	N241	N	0.024327	0.590521	0.672708
	N242	N	0.956061	0.591423	0.312472
	N243	N	0.025418	0.417992	0.313345
	N244	N	0.403761	0.683389	0.958484
	N245	N	0.578731	0.683492	0.026878
	N246	N	0.577332	0.322476	0.958663
	N247	N	0.401132	0.320699	0.026238
	N248	N	0.672356	0.969213	0.405302
	N249	N	0.672409	0.037641	0.580742
	N250	N	0.310010	0.969219	0.580895
	N251	N	0.311650	0.037111	0.405496
	N252	N	0.903087	0.469581	0.173674
	N253	N	0.078036	0.537991	0.173109
	N254	N	0.077409	0.468984	0.811901
	N255	N	0.901932	0.536548	0.811519
	N256	N	0.170416	0.917208	0.458285
	N257	N	0.171752	0.091092	0.526764
	N258	N	0.811830	0.090329	0.457811
	N259	N	0.809859	0.915854	0.526834
	N260	N	0.456194	0.181895	0.906543
	N261	N	0.524880	0.183524	0.079946
	N262	N	0.457670	0.821515	0.081146
	N263	N	0.526292	0.822544	0.906166
	N264	N	0.457760	0.915078	0.173261
	N265	N	0.525644	0.089952	0.172189
	N266	N	0.456570	0.088619	0.813912
	N267	N	0.526614	0.915964	0.813391
	N268	N	0.904707	0.183752	0.457517
	N269	N	0.080178	0.186096	0.525710
	N270	N	0.078015	0.823271	0.458538
	N271	N	0.902607	0.822458	0.526694
	N272	N	0.171461	0.469387	0.904329
	N273	N	0.171050	0.537606	0.079175
	N274	N	0.810702	0.468528	0.079867
	N275	N	0.810290	0.537481	0.906439
	O276	O	0.302691	1.312621	0.302196
	H277	H	0.326776	1.323315	0.323135
	H278	H	0.318423	1.333541	0.317156
	O279	O	-0.229105	0.225418	-0.036689
	H280	H	-0.249022	0.237949	-0.050515
	H281	H	-0.233001	0.224916	-0.032138
	O282	O	1.063878	0.121384	1.122943
	H283	H	1.061325	0.113460	1.123784
	H284	H	1.070169	0.135784	1.119028
	O285	O	0.710545	0.540629	0.713809
	H286	H	0.710768	0.543286	0.722253
	H287	H	0.724154	0.540683	0.726164
	O288	O	1.147462	1.045253	-0.009575
	H289	H	1.146341	1.045356	0.009999
	H290	H	1.139381	1.036570	-0.009597
	O291	O	0.351718	0.450432	0.329342
	H292	H	0.350617	0.462872	0.327717
	H293	H	0.375243	0.441583	0.336640
	O294	O	0.775147	-0.211078	1.030947
	H295	H	0.759463	-0.229054	1.016465
	H296	H	0.784881	-0.202102	1.009707
	O297	O	0.805280	0.191490	0.175064
	H298	H	0.813941	0.176725	0.167660
	H299	H	0.801342	0.181431	0.174191
	O300	O	0.155420	0.225707	0.993303
	H301	H	0.154835	0.226547	1.005728
	H302	H	0.156667	0.237564	0.999997
	O303	O	0.528149	0.665481	0.666965
	H304	H	0.528652	0.687360	0.678108
	H305	H	0.546709	0.671163	0.664650
	O306	O	0.516623	0.280488	0.276767
	H307	H	0.525968	0.276537	0.267327
	H308	H	0.527316	0.275165	0.266828
	O309	O	0.396744	0.436145	0.501203
	H310	H	0.410298	0.435227	0.495559
	H311	H	0.394576	0.442465	0.510805
	O312	O	0.444227	0.730844	0.605925
	H313	H	0.432230	0.734316	0.598489
	H314	H	0.445569	0.732764	0.621336
	O315	O	1.008658	0.786721	0.771565
	H316	H	1.011710	0.791399	0.777354
	H317	H	1.018235	0.766008	0.755285
	O318	O	0.633794	0.459463	0.515743
	H319	H	0.647942	0.458362	0.501501
	H320	H	0.625127	0.483278	0.516969
	O321	O	0.336114	0.652782	0.679132
	H322	H	0.353131	0.642126	0.670976
	H323	H	0.329076	0.653416	0.695827
	O324	O	1.222025	0.820759	-0.003476
	H325	H	1.230598	0.817810	-0.021443
	H326	H	1.229381	0.818888	-0.022706
	O327	O	0.207962	0.029565	1.211181
	H328	H	0.215420	0.043500	1.215746
	H329	H	0.217757	0.046706	1.214460
	O330	O	0.691936	0.574014	0.292420
	H331	H	0.684829	0.582127	0.300201
	H332	H	0.707413	0.584565	0.277661
	O333	O	0.667595	0.326563	0.657702
	H334	H	0.649892	0.338414	0.647951
	H335	H	0.655331	0.345338	0.632784
	O336	O	0.579851	0.524856	0.431146
	H337	H	0.566651	0.518120	0.428604
	H338	H	0.591799	0.529008	0.420125
	O339	O	1.053642	-0.117241	0.958411
	H340	H	1.039765	-0.098074	0.960797
	H341	H	1.077632	-0.136590	0.949591
	O342	O	-0.058677	-0.152394	-0.073806
	H343	H	-0.039972	-0.147526	-0.064466
	H344	H	-0.066320	-0.143832	-0.068818
	O345	O	-0.308817	0.707288	1.697165
	H346	H	-0.303016	0.687079	1.710801
	H347	H	-0.301003	0.715374	1.646993
	O348	O	-0.229833	0.036812	0.100840
	H349	H	-0.223200	0.030923	0.097761
	H350	H	-0.234652	0.036614	0.097930
	O351	O	1.221847	0.767092	-0.244014
	H352	H	1.220913	0.766717	-0.254025
	H353	H	1.223643	0.767565	-0.236767
	O354	O	0.199916	-0.213128	1.202864
	H355	H	0.187923	-0.203894	1.190716
	H356	H	0.181173	-0.205871	1.181461
	O357	O	0.697418	0.378012	0.372431
	H358	H	0.699420	0.382184	0.369757
	H359	H	0.700996	0.393044	0.379667
	O360	O	-0.048403	-0.062080	0.970481
	H361	H	-0.040453	-0.059356	0.985027
	H362	H	-0.053467	-0.066360	0.961453
	O363	O	0.141561	-0.043307	-0.173702
	H364	H	0.153483	-0.037908	-0.191218
	H365	H	0.130259	-0.051971	-0.174999
	O366	O	0.683855	0.706198	0.530265
	H367	H	0.695327	0.729647	0.518969
	H368	H	0.667788	0.717498	0.510203
	O369	O	0.440722	0.272384	0.440850
	H370	H	0.458218	0.266000	0.422307
	H371	H	0.435549	0.267241	0.461864
	O372	O	1.178523	0.983452	0.059356
	H373	H	1.178190	0.984261	0.055446
	H374	H	1.175841	0.995822	0.071535
	O375	O	1.017981	0.051061	-0.000960
	H376	H	1.024984	0.063133	-0.001378
	H377	H	1.022141	0.057014	-0.000076
	O378	O	0.557501	0.740630	0.437112
	H379	H	0.534177	0.744956	0.423301
	H380	H	0.526950	0.734307	0.434559
	O381	O	-0.168544	0.968425	1.161584
	H382	H	-0.173898	0.949034	1.169713
	H383	H	-0.175549	0.960603	1.153263
	O384	O	0.973749	0.225580	0.768539
	H385	H	0.953254	0.240368	0.760466
	H386	H	0.948926	0.234464	0.764107
	O387	O	0.936706	1.178553	0.103575
	H388	H	0.933939	1.170295	0.113793
	H389	H	0.951174	1.192876	0.107612
	O390	O	0.691580	0.636062	0.377746
	H391	H	0.696399	0.645383	0.369582
	H392	H	0.683378	0.651534	0.367846
	O393	O	0.608601	0.298997	0.515865
	H394	H	0.604400	0.298119	0.503094
	H395	H	0.614581	0.287931	0.499954
	O396	O	-0.216350	0.798232	1.199521
	H397	H	-0.185514	0.811683	1.201088
	H398	H	-0.219468	0.797543	1.156017
	O399	O	0.083292	-0.098529	1.215276
	H400	H	0.081631	-0.096473	1.211902
	H401	H	0.077123	-0.078459	1.216166
	O402	O	0.283580	0.382034	0.703736
	H403	H	0.277638	0.398380	0.700382
	H404	H	0.257810	0.356520	0.728258
	O405	O	1.218035	0.229027	0.767351
	H406	H	1.202853	0.218063	0.772645
	H407	H	1.205073	0.212766	0.777677
	O408	O	0.027651	0.048940	-0.080495
	H409	H	0.036174	0.035681	-0.080018
	H410	H	0.046850	0.055933	-0.080688
	O411	O	0.846118	0.794946	0.857514
	H412	H	0.851090	0.808541	0.851953
	H413	H	0.851376	0.799331	0.852984
	O414	O	0.432890	0.413444	0.413245
	H415	H	0.424092	0.423519	0.435946
	H416	H	0.443036	0.405492	0.412050
	O417	O	0.459106	0.285611	0.704706
	H418	H	0.451480	0.265420	0.721799
	H419	H	0.444430	0.289901	0.707495
	O420	O	0.524172	0.315211	0.554415
	H421	H	0.537839	0.310266	0.563258
	H422	H	0.545980	0.325869	0.559465
	O423	O	-0.065723	-0.052359	0.753446
	H424	H	-0.073699	-0.055626	0.762062
	H425	H	-0.054778	-0.052899	0.743150
	O426	O	0.484922	0.600038	0.514856
	H427	H	0.477608	0.615821	0.525155
	H428	H	0.485133	0.596162	0.515427
	O429	O	0.778264	1.018411	0.809489
	H430	H	0.779815	1.018557	0.794397
	H431	H	0.783188	1.022565	0.802106
	O432	O	0.696565	0.286264	0.281394
	H433	H	0.707507	0.277943	0.269437
	H434	H	0.686216	0.311400	0.292781
	O435	O	0.272066	0.730062	0.465772
	H436	H	0.257058	0.742277	0.443838
	H437	H	0.260693	0.733974	0.439362
	O438	O	0.326220	-0.277957	0.351085
	H439	H	0.300122	-0.265214	0.336611
	H440	H	0.323452	-0.311527	0.349346
	O441	O	0.021764	0.220954	0.212434
	H442	H	0.044456	0.212300	0.210936
	H443	H	0.027167	0.247750	0.233088
	O444	O	0.440238	0.531604	0.302406
	H445	H	0.446254	0.531952	0.301951
	H446	H	0.443534	0.529585	0.314050
	O447	O	0.181226	0.999267	0.876382
	H448	H	0.178274	1.000602	0.862710
	H449	H	0.173730	1.003006	0.886997
	O450	O	-0.218115	0.898335	0.891079
	H451	H	-0.211528	0.919575	0.876822
	H452	H	-0.216527	0.905436	0.888337
	O453	O	0.271796	0.281062	0.512963
	H454	H	0.249669	0.253575	0.522231
	H455	H	0.280473	0.285567	0.529103
	O456	O	-0.071459	-0.027041	1.176401
	H457	H	-0.090892	-0.041223	1.167177
	H458	H	-0.066794	-0.004702	1.171716
	O459	O	0.902691	1.158565	-0.105101
	H460	H	0.893823	1.163167	-0.096609
	H461	H	0.892308	1.168713	-0.105894
	O462	O	0.451834	0.544282	0.714197
	H463	H	0.461539	0.561027	0.712127
	H464	H	0.445499	0.545373	0.711254
	O465	O	1.042583	-0.226072	0.064476
	H466	H	1.039546	-0.216121	0.064089
	H467	H	1.043085	-0.225562	0.071440
	O468	O	0.501723	0.530061	0.321764
	H469	H	0.508157	0.521935	0.329593
	H470	H	0.510292	0.533463	0.324361
	O471	O	0.313577	0.440970	0.662936
	H472	H	0.305756	0.442548	0.672655
	H473	H	0.334776	0.433114	0.658506
	O474	O	0.476900	0.726408	0.282681
	H475	H	0.448030	0.699740	0.287232
	H476	H	0.457380	0.754377	0.252189
	O477	O	0.276845	0.533407	1.287715
	H478	H	0.278353	0.515387	1.296402
	H479	H	0.266401	0.522223	1.274270
	O480	O	0.561138	0.440057	0.718128
	H481	H	0.555212	0.448369	0.712767
	H482	H	0.557147	0.450728	0.721922
	O483	O	0.704934	0.532123	0.513105
	H484	H	0.702703	0.553637	0.508908
	H485	H	0.707880	0.547261	0.533518
	O486	O	0.785897	0.209455	0.791172
	H487	H	0.782248	0.193531	0.814017
	H488	H	0.763199	0.229729	0.766281
	O489	O	0.959735	0.786502	0.211485
	H490	H	0.954736	0.773519	0.227391
	H491	H	0.961458	0.796395	0.213374
	O492	O	0.109834	0.201719	-0.099351
	H493	H	0.112740	0.207111	-0.092216
	H494	H	0.106855	0.187264	-0.095924
	O495	O	0.048052	1.066148	0.761296
	H496	H	0.044376	1.081609	0.760878
	H497	H	0.039524	1.072986	0.758545
	O498	O	1.196664	1.210962	1.203182
	H499	H	1.206612	1.221818	1.197974
	H500	H	1.211640	1.222811	1.213870
	O501	O	0.268939	0.569670	0.544967
	H502	H	0.271676	0.575213	0.541573
	H503	H	0.263989	0.573073	0.543707
