data_Molecule from HDF5

_cell_length_a		16.322445
_cell_length_b		16.265246
_cell_length_c		16.149808
_cell_angle_alpha	90.173108
_cell_angle_beta	90.010562
_cell_angle_gamma	89.967582
_symmetry_space_group_name_H-M	'P 1'
_symmetry_Int_Tables_number		1

loop_
	_symmetry_equiv_pos_as_xyz
	x,y,z

loop_
	_atom_site_label
	_atom_site_type_symbol
	_atom_site_fract_x
	_atom_site_fract_y
	_atom_site_fract_z
	H0	H	0.403838	0.834701	0.711615
	H1	H	0.598158	0.163442	0.714985
	H2	H	0.597847	0.835624	0.287694
	H3	H	0.403168	0.163618	0.287695
	H4	H	0.713245	0.399340	0.835224
	H5	H	0.714006	0.599289	0.163778
	H6	H	0.285277	0.597655	0.835037
	H7	H	0.284206	0.400193	0.164240
	H8	H	0.837158	0.716008	0.400722
	H9	H	0.163149	0.716559	0.600480
	H10	H	0.837164	0.284402	0.599547
	H11	H	0.162509	0.284559	0.398217
	H12	H	0.834668	0.402952	0.712475
	H13	H	0.162622	0.599443	0.716770
	H14	H	0.836017	0.598958	0.286585
	H15	H	0.162894	0.403052	0.285259
	H16	H	0.401817	0.713328	0.835461
	H17	H	0.597363	0.712384	0.164812
	H18	H	0.599077	0.283509	0.836332
	H19	H	0.400886	0.286871	0.165515
	H20	H	0.716842	0.837043	0.399012
	H21	H	0.716305	0.162584	0.601941
	H22	H	0.283587	0.837315	0.600169
	H23	H	0.283766	0.163250	0.398516
	H24	H	0.900960	0.336668	0.213275
	H25	H	0.095162	0.664078	0.212591
	H26	H	0.096963	0.335388	0.784198
	H27	H	0.900899	0.663804	0.787164
	H28	H	0.214640	0.900605	0.335738
	H29	H	0.216178	0.101962	0.664366
	H30	H	0.786475	0.098959	0.335711
	H31	H	0.786214	0.901997	0.664303
	H32	H	0.337016	0.214765	0.901319
	H33	H	0.662760	0.215337	0.100773
	H34	H	0.337669	0.784606	0.100289
	H35	H	0.662988	0.782708	0.901297
	H36	H	0.336739	0.901199	0.215339
	H37	H	0.664272	0.096486	0.214535
	H38	H	0.336845	0.097105	0.785887
	H39	H	0.665092	0.901266	0.786561
	H40	H	0.902283	0.213309	0.335553
	H41	H	0.098203	0.215022	0.664942
	H42	H	0.099020	0.785772	0.335826
	H43	H	0.901328	0.787701	0.664945
	H44	H	0.214765	0.335292	0.898221
	H45	H	0.215178	0.662112	0.100511
	H46	H	0.783640	0.337089	0.099364
	H47	H	0.783186	0.662901	0.900168
	H48	H	0.412984	0.115376	0.595061
	H49	H	0.597506	0.879942	0.597566
	H50	H	0.586302	0.116927	0.401708
	H51	H	0.414376	0.888102	0.417614
	H52	H	0.591333	0.404454	0.118968
	H53	H	0.593339	0.589441	0.882394
	H54	H	0.408493	0.588798	0.115788
	H55	H	0.410495	0.398510	0.880847
	H56	H	0.119836	0.603057	0.404342
	H57	H	0.883036	0.583680	0.605388
	H58	H	0.116365	0.407190	0.594513
	H59	H	0.887027	0.411779	0.413690
	H60	H	0.114320	0.407960	0.588825
	H61	H	0.878210	0.610681	0.596723
	H62	H	0.113758	0.592142	0.415992
	H63	H	0.881807	0.409976	0.399646
	H64	H	0.407902	0.595746	0.119212
	H65	H	0.588842	0.590335	0.883199
	H66	H	0.595682	0.409923	0.118002
	H67	H	0.398940	0.409764	0.881566
	H68	H	0.592797	0.113598	0.418598
	H69	H	0.588691	0.884244	0.592239
	H70	H	0.407979	0.114922	0.587675
	H71	H	0.394998	0.881179	0.411924
	H72	H	0.918735	0.611085	0.085301
	H73	H	0.099150	0.379930	0.093222
	H74	H	0.093295	0.616193	0.906882
	H75	H	0.909549	0.385548	0.913317
	H76	H	0.091871	0.910269	0.617343
	H77	H	0.097845	0.093891	0.380994
	H78	H	0.909056	0.087431	0.615675
	H79	H	0.913513	0.899596	0.380469
	H80	H	0.616908	0.097855	0.912544
	H81	H	0.386120	0.086743	0.093549
	H82	H	0.617496	0.902544	0.094755
	H83	H	0.389140	0.917036	0.912708
	H84	H	0.615228	0.905975	0.092211
	H85	H	0.381330	0.094479	0.100232
	H86	H	0.613669	0.086925	0.910472
	H87	H	0.381357	0.907000	0.894875
	H88	H	0.912214	0.097779	0.618578
	H89	H	0.092448	0.089492	0.384099
	H90	H	0.092075	0.909075	0.618055
	H91	H	0.897830	0.906162	0.378549
	H92	H	0.088818	0.613531	0.909311
	H93	H	0.087368	0.381913	0.096747
	H94	H	0.890766	0.618553	0.082799
	H95	H	0.896605	0.379655	0.907167
	H96	H	0.404278	0.118273	0.594447
	H97	H	0.597923	0.883708	0.586371
	H98	H	0.603351	0.120527	0.405637
	H99	H	0.411537	0.880798	0.397772
	H100	H	0.588649	0.410127	0.115876
	H101	H	0.591339	0.593980	0.880975
	H102	H	0.401692	0.591546	0.118654
	H103	H	0.413828	0.413033	0.886158
	H104	H	0.116293	0.586928	0.399390
	H105	H	0.888872	0.591730	0.578479
	H106	H	0.114957	0.412422	0.592257
	H107	H	0.882066	0.398277	0.408966
	H108	H	0.904724	0.622363	0.109321
	H109	H	0.090940	0.384545	0.085314
	H110	H	0.093446	0.614897	0.912032
	H111	H	0.909309	0.381656	0.898454
	H112	H	0.092559	0.909265	0.617991
	H113	H	0.090776	0.096758	0.381366
	H114	H	0.902263	0.094760	0.620102
	H115	H	0.910901	0.916373	0.385233
	H116	H	0.618761	0.092965	0.902099
	H117	H	0.384200	0.096853	0.089569
	H118	H	0.617583	0.907302	0.097136
	H119	H	0.383502	0.895815	0.913666
	C120	C	0.379195	0.007953	0.621582
	C121	C	0.622823	0.990735	0.621916
	C122	C	0.622487	0.008647	0.379476
	C123	C	0.378304	0.991113	0.379241
	C124	C	0.620823	0.378446	0.008773
	C125	C	0.620147	0.619988	0.990852
	C126	C	0.377480	0.620960	0.009031
	C127	C	0.378410	0.378277	0.991615
	C128	C	0.008286	0.622161	0.378620
	C129	C	0.991299	0.623901	0.623164
	C130	C	0.007417	0.379424	0.621293
	C131	C	0.991346	0.378408	0.377999
	C132	C	0.876613	0.509232	0.121178
	C133	C	0.120569	0.490481	0.120911
	C134	C	0.120686	0.506949	0.878817
	C135	C	0.877125	0.490849	0.878403
	C136	C	0.121106	0.879839	0.508997
	C137	C	0.122091	0.122424	0.491313
	C138	C	0.879423	0.121561	0.509041
	C139	C	0.879269	0.879506	0.491156
	C140	C	0.508650	0.121282	0.879004
	C141	C	0.491891	0.121298	0.123217
	C142	C	0.508833	0.877378	0.122986
	C143	C	0.492202	0.877025	0.878199
	C144	C	0.382271	0.884331	0.675373
	C145	C	0.619207	0.114417	0.677177
	C146	C	0.618795	0.884845	0.324963
	C147	C	0.381807	0.114525	0.324299
	C148	C	0.675765	0.379371	0.884800
	C149	C	0.675837	0.618860	0.114803
	C150	C	0.323265	0.618164	0.884406
	C151	C	0.322419	0.380200	0.115230
	C152	C	0.885566	0.677601	0.381086
	C153	C	0.114125	0.678785	0.621144
	C154	C	0.885498	0.323115	0.619515
	C155	C	0.113848	0.322927	0.378788
	C156	C	0.884317	0.381889	0.675860
	C157	C	0.113907	0.620370	0.678733
	C158	C	0.885001	0.619227	0.324277
	C159	C	0.113881	0.381444	0.322002
	C160	C	0.380934	0.675624	0.884539
	C161	C	0.618056	0.675143	0.115389
	C162	C	0.618791	0.321838	0.885312
	C163	C	0.380334	0.323795	0.115862
	C164	C	0.678293	0.885717	0.380028
	C165	C	0.678036	0.113927	0.621164
	C166	C	0.322535	0.885654	0.619880
	C167	C	0.322790	0.114431	0.379845
	C168	C	0.880137	0.385496	0.175732
	C169	C	0.116950	0.614681	0.175590
	C170	C	0.117439	0.384036	0.822601
	C171	C	0.879920	0.614796	0.824282
	C172	C	0.176533	0.881037	0.384974
	C173	C	0.177538	0.121120	0.615435
	C174	C	0.824376	0.118808	0.385015
	C175	C	0.824345	0.882047	0.615316
	C176	C	0.385686	0.176276	0.881153
	C177	C	0.614373	0.176799	0.121044
	C178	C	0.385933	0.822838	0.120314
	C179	C	0.614873	0.821415	0.880891
	C180	C	0.385708	0.880713	0.177702
	C181	C	0.615056	0.117788	0.177479
	C182	C	0.385803	0.118237	0.823478
	C183	C	0.615583	0.880030	0.823702
	C184	C	0.882072	0.175684	0.384854
	C185	C	0.119614	0.177846	0.615498
	C186	C	0.119344	0.823718	0.385048
	C187	C	0.881308	0.824919	0.615397
	C188	C	0.176537	0.384194	0.878867
	C189	C	0.176298	0.613649	0.119832
	C190	C	0.821915	0.385647	0.118920
	C191	C	0.821318	0.614151	0.880168
	C192	C	0.401753	0.093935	0.599113
	C193	C	0.601139	0.904778	0.598880
	C194	C	0.600447	0.094535	0.401834
	C195	C	0.400380	0.905528	0.402253
	C196	C	0.598461	0.401499	0.095210
	C197	C	0.597663	0.597848	0.904567
	C198	C	0.399487	0.598730	0.095440
	C199	C	0.401186	0.400572	0.905037
	C200	C	0.094324	0.600417	0.400210
	C201	C	0.905411	0.601808	0.600259
	C202	C	0.092971	0.402449	0.598444
	C203	C	0.905605	0.400214	0.400807
	C204	C	0.898290	0.595029	0.099238
	C205	C	0.098789	0.404611	0.098413
	C206	C	0.098352	0.592765	0.902432
	C207	C	0.898743	0.404643	0.899874
	C208	C	0.098854	0.902784	0.595229
	C209	C	0.100040	0.100164	0.404718
	C210	C	0.901495	0.099883	0.595726
	C211	C	0.901184	0.901069	0.403992
	C212	C	0.594234	0.099115	0.901773
	C213	C	0.405999	0.099315	0.100950
	C214	C	0.594717	0.898906	0.101074
	C215	C	0.406733	0.899845	0.900601
	Zn216	Zn	0.500929	-0.000907	0.749799
	Zn217	Zn	0.500437	-0.000854	0.251937
	Zn218	Zn	0.748555	0.499440	-0.000664
	Zn219	Zn	0.250172	0.498621	-0.000128
	Zn220	Zn	-0.000112	0.752011	0.499984
	Zn221	Zn	0.000392	0.249793	0.499902
	Zn222	Zn	-0.001456	0.500011	0.750760
	Zn223	Zn	-0.001147	0.500582	0.249488
	Zn224	Zn	0.499872	0.748612	0.000813
	Zn225	Zn	0.499681	0.250447	0.001455
	Zn226	Zn	0.751451	0.000313	0.500260
	Zn227	Zn	0.249663	0.000784	0.500144
	N228	N	0.416671	0.961520	0.676389
	N229	N	0.585768	0.036904	0.677847
	N230	N	0.584634	0.962251	0.324466
	N231	N	0.415505	0.036953	0.323673
	N232	N	0.676921	0.414018	0.962569
	N233	N	0.677349	0.585244	0.036500
	N234	N	0.320770	0.585237	0.962604
	N235	N	0.321327	0.413493	0.037009
	N236	N	0.963200	0.679417	0.414249
	N237	N	0.036686	0.681015	0.587411
	N238	N	0.963233	0.321527	0.586216
	N239	N	0.036718	0.320929	0.412908
	N240	N	0.961245	0.416229	0.676938
	N241	N	0.036323	0.587360	0.680392
	N242	N	0.962317	0.585602	0.322456
	N243	N	0.036574	0.415245	0.321441
	N244	N	0.413944	0.677535	0.963057
	N245	N	0.583903	0.676025	0.037617
	N246	N	0.585211	0.321309	0.963454
	N247	N	0.414284	0.322280	0.037825
	N248	N	0.680741	0.963608	0.413232
	N249	N	0.680219	0.036059	0.587157
	N250	N	0.320511	0.963705	0.587224
	N251	N	0.320521	0.036844	0.413399
	N252	N	0.913541	0.463147	0.177217
	N253	N	0.082847	0.537494	0.176278
	N254	N	0.083695	0.461640	0.822217
	N255	N	0.914017	0.537380	0.823078
	N256	N	0.177793	0.915299	0.463041
	N257	N	0.179560	0.087867	0.537110
	N258	N	0.822606	0.085868	0.463400
	N259	N	0.822776	0.915014	0.536953
	N260	N	0.462983	0.178313	0.914977
	N261	N	0.536578	0.179152	0.088227
	N262	N	0.463392	0.820563	0.086973
	N263	N	0.537095	0.819287	0.913728
	N264	N	0.463042	0.914058	0.179266
	N265	N	0.537713	0.084082	0.178919
	N266	N	0.463165	0.084778	0.822011
	N267	N	0.538217	0.913853	0.822099
	N268	N	0.915294	0.177690	0.463064
	N269	N	0.086109	0.178963	0.537322
	N270	N	0.085436	0.823011	0.462942
	N271	N	0.914734	0.823320	0.537152
	N272	N	0.178399	0.461610	0.913240
	N273	N	0.178727	0.535603	0.086588
	N274	N	0.819545	0.463413	0.085729
	N275	N	0.819538	0.536306	0.913105
	O276	O	0.568287	0.546049	0.492990
	H277	H	0.575344	0.549067	0.495750
	H278	H	0.568760	0.552494	0.487293
	O279	O	0.444050	0.526953	0.445130
	H280	H	0.438562	0.515610	0.445626
	H281	H	0.453477	0.525545	0.446270
	O282	O	0.564641	0.528765	0.538859
	H283	H	0.572499	0.522528	0.536855
	H284	H	0.569182	0.539467	0.539078
	O285	O	0.073268	0.911046	0.898998
	H286	H	0.072448	0.902496	0.900958
	H287	H	0.077679	0.912671	0.888397
	O288	O	0.477477	0.590527	0.480084
	H289	H	0.482354	0.586138	0.476134
	H290	H	0.483306	0.591067	0.477019
	O291	O	-0.502386	0.434818	0.496032
	H292	H	-0.502309	0.439708	0.499485
	H293	H	-0.502818	0.438202	0.498346
	O294	O	0.542878	0.446600	0.471026
	H295	H	0.539738	0.454450	0.483017
	H296	H	0.533292	0.448211	0.470052
	O297	O	0.590876	0.454173	0.512483
	H298	H	0.602628	0.458623	0.500695
	H299	H	0.598412	0.443637	0.511699
	O300	O	0.447052	0.460712	0.481560
	H301	H	0.436835	0.462324	0.484941
	H302	H	0.444772	0.466463	0.484018
	O303	O	0.475604	0.426866	0.517403
	H304	H	0.472048	0.422163	0.519503
	H305	H	0.466981	0.425768	0.518025
	O306	O	0.545889	0.521597	1.457687
	H307	H	0.541008	0.508145	1.465197
	H308	H	0.552797	0.517878	1.456524
	O309	O	0.493977	0.468425	0.614956
	H310	H	0.502040	0.467817	0.606772
	H311	H	0.498350	0.473767	0.624997
	O312	O	0.476478	0.390960	0.445062
	H313	H	0.470174	0.380569	0.446889
	H314	H	0.476001	0.384724	0.457421
	O315	O	1.109494	-0.085922	0.970394
	H316	H	1.113091	-0.089533	0.969766
	H317	H	1.112177	-0.095037	0.967800
	O318	O	0.109561	-0.071138	-0.049549
	H319	H	0.117524	-0.081329	-0.046715
	H320	H	0.107103	-0.066249	-0.048565
	O321	O	0.493243	0.505962	0.533693
	H322	H	0.489255	0.505755	0.526873
	H323	H	0.481606	0.498865	0.535372
	O324	O	1.092656	-0.104699	-0.056648
	H325	H	1.091645	-0.103487	-0.062695
	H326	H	1.096483	-0.107888	-0.060405
	O327	O	1.108445	0.938240	-0.089589
	H328	H	1.110456	0.935856	-0.091767
	H329	H	1.111218	0.944489	-0.079344
	O330	O	0.473877	0.559764	0.554503
	H331	H	0.463492	0.551872	0.540179
	H332	H	0.477833	0.572663	0.561680
	O333	O	0.496514	0.438140	0.500831
	H334	H	0.498718	0.448816	0.507792
	H335	H	0.491914	0.437086	0.504655
