data_Molecule from HDF5

_cell_length_a		16.177610
_cell_length_b		16.518865
_cell_length_c		16.468698
_cell_angle_alpha	89.806792
_cell_angle_beta	90.112807
_cell_angle_gamma	90.296628
_symmetry_space_group_name_H-M	'P 1'
_symmetry_Int_Tables_number		1

loop_
	_symmetry_equiv_pos_as_xyz
	x,y,z

loop_
	_atom_site_label
	_atom_site_type_symbol
	_atom_site_fract_x
	_atom_site_fract_y
	_atom_site_fract_z
	H0	H	0.394802	0.844175	0.712909
	H1	H	0.604223	0.162366	0.712102
	H2	H	0.604666	0.845648	0.269824
	H3	H	0.389208	0.159704	0.266641
	H4	H	0.711556	0.404982	0.829755
	H5	H	0.720864	0.604886	0.149728
	H6	H	0.281724	0.603092	0.831031
	H7	H	0.275012	0.396317	0.150093
	H8	H	0.836511	0.721521	0.384012
	H9	H	0.157790	0.723675	0.595422
	H10	H	0.835823	0.281299	0.592165
	H11	H	0.157501	0.280320	0.382165
	H12	H	0.835995	0.395610	0.708271
	H13	H	0.159066	0.605352	0.708794
	H14	H	0.836309	0.604772	0.269489
	H15	H	0.158386	0.397430	0.269005
	H16	H	0.392458	0.726174	0.835317
	H17	H	0.605917	0.723059	0.151638
	H18	H	0.607588	0.279821	0.835625
	H19	H	0.388871	0.278103	0.149533
	H20	H	0.710814	0.841040	0.395918
	H21	H	0.717680	0.162258	0.591752
	H22	H	0.279732	0.842897	0.593570
	H23	H	0.276767	0.161298	0.386231
	H24	H	0.886834	0.345012	0.214323
	H25	H	0.107297	0.658277	0.213082
	H26	H	0.104791	0.342961	0.767529
	H27	H	0.893549	0.658404	0.766226
	H28	H	0.219759	0.898828	0.332196
	H29	H	0.217603	0.106223	0.649423
	H30	H	0.779702	0.101246	0.329656
	H31	H	0.786668	0.904053	0.652220
	H32	H	0.338583	0.225038	0.887543
	H33	H	0.659984	0.224479	0.098475
	H34	H	0.339105	0.776693	0.105356
	H35	H	0.660277	0.789460	0.894838
	H36	H	0.338149	0.894612	0.216828
	H37	H	0.659942	0.106575	0.211712
	H38	H	0.337186	0.110137	0.771523
	H39	H	0.660441	0.904832	0.779050
	H40	H	0.888291	0.224736	0.332025
	H41	H	0.106094	0.226904	0.645980
	H42	H	0.107018	0.779381	0.332032
	H43	H	0.893778	0.778821	0.646403
	H44	H	0.218038	0.342334	0.887994
	H45	H	0.217314	0.661270	0.092015
	H46	H	0.779304	0.342158	0.089250
	H47	H	0.782860	0.661647	0.888448
	H48	H	0.413977	0.116217	0.586321
	H49	H	0.588747	0.888301	0.588737
	H50	H	0.582614	0.112348	0.406463
	H51	H	0.410872	0.890231	0.400107
	H52	H	0.586316	0.414839	0.103967
	H53	H	0.586751	0.598073	0.878423
	H54	H	0.404348	0.591622	0.107702
	H55	H	0.416214	0.416377	0.883399
	H56	H	0.108984	0.588307	0.408418
	H57	H	0.884527	0.585544	0.574949
	H58	H	0.114219	0.408877	0.578258
	H59	H	0.882127	0.408287	0.404155
	H60	H	0.110735	0.413609	0.573540
	H61	H	0.881765	0.589530	0.581532
	H62	H	0.112558	0.585740	0.395453
	H63	H	0.885911	0.417556	0.403746
	H64	H	0.411025	0.587222	0.103042
	H65	H	0.587566	0.600593	0.877545
	H66	H	0.586140	0.411456	0.105612
	H67	H	0.411793	0.407669	0.879158
	H68	H	0.594561	0.117144	0.403608
	H69	H	0.591592	0.887688	0.588724
	H70	H	0.407872	0.114938	0.578515
	H71	H	0.416127	0.894558	0.405147
	H72	H	0.910435	0.612011	0.073062
	H73	H	0.087638	0.387195	0.083391
	H74	H	0.092145	0.615690	0.898006
	H75	H	0.902081	0.388289	0.906242
	H76	H	0.082754	0.914226	0.600309
	H77	H	0.084909	0.089000	0.378850
	H78	H	0.912330	0.085618	0.600242
	H79	H	0.905190	0.910278	0.374380
	H80	H	0.614218	0.102114	0.910268
	H81	H	0.383282	0.092304	0.080414
	H82	H	0.610431	0.917618	0.081330
	H83	H	0.384442	0.917732	0.908517
	H84	H	0.613851	0.914431	0.085434
	H85	H	0.386124	0.090084	0.076002
	H86	H	0.609016	0.084035	0.907990
	H87	H	0.380464	0.916278	0.899109
	H88	H	0.916083	0.100070	0.603223
	H89	H	0.082910	0.092041	0.378319
	H90	H	0.082026	0.908388	0.602544
	H91	H	0.905362	0.909329	0.374659
	H92	H	0.084681	0.614238	0.892717
	H93	H	0.077708	0.391180	0.081149
	H94	H	0.905786	0.616882	0.082247
	H95	H	0.899558	0.382481	0.889781
	H96	H	0.404829	0.118825	0.586599
	H97	H	0.590383	0.887891	0.591052
	H98	H	0.585263	0.117484	0.394220
	H99	H	0.408463	0.892382	0.407876
	H100	H	0.588914	0.413978	0.106419
	H101	H	0.588953	0.598037	0.877566
	H102	H	0.412049	0.595740	0.105270
	H103	H	0.406220	0.416398	0.879078
	H104	H	0.114996	0.598415	0.400022
	H105	H	0.881763	0.593386	0.573926
	H106	H	0.113196	0.415867	0.580352
	H107	H	0.881208	0.413444	0.395779
	H108	H	0.916789	0.613676	0.082758
	H109	H	0.085258	0.390662	0.073341
	H110	H	0.084726	0.611303	0.901028
	H111	H	0.915329	0.388948	0.894670
	H112	H	0.087875	0.911564	0.603000
	H113	H	0.086345	0.092402	0.376517
	H114	H	0.901921	0.094731	0.606116
	H115	H	0.904601	0.909433	0.374466
	H116	H	0.616828	0.093840	0.893447
	H117	H	0.385558	0.086956	0.080620
	H118	H	0.612721	0.912122	0.079433
	H119	H	0.380040	0.907954	0.906235
	C120	C	0.376806	0.011483	0.614567
	C121	C	0.620975	0.994047	0.616695
	C122	C	0.618737	0.010662	0.371384
	C123	C	0.377265	0.995518	0.370167
	C124	C	0.618695	0.382578	0.000215
	C125	C	0.620480	0.627186	0.983270
	C126	C	0.376725	0.624361	0.000893
	C127	C	0.376921	0.380317	0.984258
	C128	C	0.006112	0.622970	0.368558
	C129	C	0.989081	0.622004	0.609554
	C130	C	0.006173	0.380279	0.609399
	C131	C	0.989158	0.380937	0.368334
	C132	C	0.876667	0.510073	0.111216
	C133	C	0.117958	0.493764	0.111151
	C134	C	0.119590	0.508927	0.867058
	C135	C	0.875641	0.492288	0.866467
	C136	C	0.118493	0.880141	0.498048
	C137	C	0.118546	0.123907	0.481572
	C138	C	0.876434	0.123868	0.498201
	C139	C	0.875870	0.879510	0.480776
	C140	C	0.507192	0.125600	0.871715
	C141	C	0.490476	0.123403	0.112614
	C142	C	0.506368	0.881151	0.115248
	C143	C	0.489030	0.884636	0.874861
	C144	C	0.375266	0.891871	0.673609
	C145	C	0.622600	0.114535	0.672763
	C146	C	0.621441	0.892238	0.311426
	C147	C	0.372212	0.112862	0.307617
	C148	C	0.675077	0.383992	0.878936
	C149	C	0.680845	0.625138	0.102662
	C150	C	0.319323	0.624157	0.879822
	C151	C	0.315380	0.377935	0.102746
	C152	C	0.884965	0.682167	0.365838
	C153	C	0.109984	0.682814	0.612828
	C154	C	0.884483	0.320401	0.611179
	C155	C	0.109752	0.320586	0.364902
	C156	C	0.884426	0.377580	0.668647
	C157	C	0.110408	0.624018	0.669561
	C158	C	0.884836	0.624072	0.308881
	C159	C	0.109920	0.378702	0.308180
	C160	C	0.374310	0.685317	0.882022
	C161	C	0.623526	0.683912	0.103545
	C162	C	0.622812	0.321887	0.881842
	C163	C	0.372035	0.318903	0.102357
	C164	C	0.674759	0.889903	0.373756
	C165	C	0.679067	0.114313	0.612999
	C166	C	0.318293	0.891234	0.614039
	C167	C	0.316351	0.113757	0.367522
	C168	C	0.870999	0.391964	0.172697
	C169	C	0.123424	0.611645	0.172175
	C170	C	0.122419	0.390161	0.808059
	C171	C	0.875207	0.611334	0.806985
	C172	C	0.179809	0.879750	0.379367
	C173	C	0.178294	0.125366	0.601169
	C174	C	0.817335	0.122324	0.378169
	C175	C	0.822205	0.881923	0.602739
	C176	C	0.386105	0.185016	0.869534
	C177	C	0.611748	0.183679	0.115716
	C178	C	0.386771	0.818310	0.120901
	C179	C	0.611553	0.828093	0.875458
	C180	C	0.386038	0.877241	0.176435
	C181	C	0.611813	0.125060	0.172018
	C182	C	0.385853	0.128122	0.811424
	C183	C	0.611490	0.885645	0.817836
	C184	C	0.871561	0.183671	0.379032
	C185	C	0.122840	0.185614	0.599446
	C186	C	0.123490	0.820260	0.379192
	C187	C	0.875289	0.819811	0.599900
	C188	C	0.179267	0.390045	0.867684
	C189	C	0.178622	0.612992	0.111836
	C190	C	0.817145	0.390413	0.110702
	C191	C	0.820025	0.613016	0.867718
	C192	C	0.401790	0.094930	0.590734
	C193	C	0.597108	0.909940	0.595585
	C194	C	0.594532	0.094004	0.394666
	C195	C	0.404228	0.913667	0.396546
	C196	C	0.594371	0.406558	0.083671
	C197	C	0.595148	0.605268	0.899622
	C198	C	0.401681	0.599076	0.083530
	C199	C	0.403614	0.406225	0.901929
	C200	C	0.090303	0.598155	0.394006
	C201	C	0.904798	0.596616	0.584066
	C202	C	0.090440	0.405582	0.584625
	C203	C	0.904900	0.406011	0.393808
	C204	C	0.903283	0.592736	0.086565
	C205	C	0.091159	0.411229	0.086402
	C206	C	0.094371	0.591996	0.890635
	C207	C	0.898865	0.408472	0.890004
	C208	C	0.091799	0.904493	0.580512
	C209	C	0.092249	0.098646	0.399235
	C210	C	0.902667	0.100426	0.581487
	C211	C	0.898487	0.902728	0.396450
	C212	C	0.591356	0.100543	0.896614
	C213	C	0.406603	0.097452	0.086512
	C214	C	0.590513	0.907275	0.089521
	C215	C	0.403677	0.907530	0.898171
	Zn216	Zn	0.498014	0.004446	0.744493
	Zn217	Zn	0.498319	0.003331	0.240825
	Zn218	Zn	0.747254	0.502481	-0.010326
	Zn219	Zn	0.247714	0.501411	-0.009212
	Zn220	Zn	-0.002333	0.750817	0.488646
	Zn221	Zn	-0.002847	0.253005	0.488629
	Zn222	Zn	-0.002128	0.500155	0.737527
	Zn223	Zn	-0.002267	0.501717	0.240842
	Zn224	Zn	0.497470	0.754653	-0.005770
	Zn225	Zn	0.499274	0.252870	-0.007162
	Zn226	Zn	0.748165	0.001888	0.491785
	Zn227	Zn	0.248029	0.002512	0.491155
	N228	N	0.410188	0.967935	0.674483
	N229	N	0.587336	0.038741	0.675243
	N230	N	0.587519	0.968466	0.309627
	N231	N	0.409255	0.038097	0.308986
	N232	N	0.672559	0.421248	0.953477
	N233	N	0.679181	0.590404	0.026960
	N234	N	0.320337	0.587011	0.954564
	N235	N	0.318371	0.415518	0.028277
	N236	N	0.961501	0.681597	0.401931
	N237	N	0.033502	0.681678	0.576291
	N238	N	0.961177	0.321595	0.575365
	N239	N	0.033407	0.321911	0.401608
	N240	N	0.961238	0.413799	0.667961
	N241	N	0.034294	0.586642	0.667422
	N242	N	0.961266	0.588124	0.310328
	N243	N	0.033949	0.415378	0.310343
	N244	N	0.408801	0.685715	0.958412
	N245	N	0.586581	0.685110	0.028494
	N246	N	0.588228	0.321126	0.958046
	N247	N	0.409720	0.320459	0.027770
	N248	N	0.673068	0.964509	0.410244
	N249	N	0.678650	0.038323	0.579150
	N250	N	0.318914	0.966582	0.578258
	N251	N	0.319507	0.039840	0.405713
	N252	N	0.907636	0.467287	0.172795
	N253	N	0.086559	0.536499	0.171981
	N254	N	0.086488	0.465257	0.807230
	N255	N	0.908778	0.535127	0.806084
	N256	N	0.176648	0.916544	0.454007
	N257	N	0.175910	0.087789	0.527001
	N258	N	0.820280	0.085864	0.453385
	N259	N	0.822225	0.918097	0.527607
	N260	N	0.462554	0.183723	0.905963
	N261	N	0.535197	0.182779	0.079557
	N262	N	0.462790	0.820610	0.083656
	N263	N	0.534386	0.827420	0.910327
	N264	N	0.461442	0.915516	0.173064
	N265	N	0.535458	0.088228	0.170150
	N266	N	0.462229	0.091899	0.812594
	N267	N	0.534313	0.920212	0.817342
	N268	N	0.907591	0.184695	0.454617
	N269	N	0.086465	0.184997	0.523956
	N270	N	0.086060	0.820327	0.454066
	N271	N	0.907662	0.818038	0.522819
	N272	N	0.177605	0.465115	0.903536
	N273	N	0.175237	0.538714	0.074603
	N274	N	0.820401	0.464800	0.073279
	N275	N	0.820158	0.537887	0.904024
	O276	O	0.327636	0.682549	0.320037
	H277	H	0.338235	0.687339	0.353155
	H278	H	0.342152	0.673796	0.313847
	O279	O	0.344015	0.251818	0.252149
	H280	H	0.350287	0.243493	0.265507
	H281	H	0.346835	0.257116	0.245510
	O282	O	0.633707	0.373853	0.390630
	H283	H	0.619579	0.359742	0.396601
	H284	H	0.643497	0.361961	0.414300
	O285	O	1.612824	0.526184	0.389409
	H286	H	1.597536	0.524814	0.388958
	H287	H	1.629298	0.521884	0.398936
	O288	O	0.509591	0.627733	0.587284
	H289	H	0.504672	0.620000	0.585509
	H290	H	0.508397	0.632541	0.577987
	O291	O	0.490250	0.634481	0.292922
	H292	H	0.496268	0.618431	0.283539
	H293	H	0.482843	0.641828	0.276967
	O294	O	1.020805	1.128662	1.134859
	H295	H	1.029249	1.132800	1.142004
	H296	H	1.027111	1.134019	1.121402
	O297	O	0.291590	0.472394	0.702760
	H298	H	0.293837	0.427101	0.697229
	H299	H	0.266448	0.474199	0.724838
	O300	O	0.483994	0.630128	0.510879
	H301	H	0.458687	0.628874	0.491379
	H302	H	0.497386	0.628360	0.506491
	O303	O	0.346142	0.437982	0.416837
	H304	H	0.346149	0.443425	0.398631
	H305	H	0.351404	0.454195	0.416413
	O306	O	0.199670	-0.008311	0.987638
	H307	H	0.181001	-0.009369	0.970622
	H308	H	0.210608	-0.007341	0.976346
	O309	O	0.850918	-0.164082	-0.086003
	H310	H	0.848868	-0.160636	-0.059715
	H311	H	0.872222	-0.154908	-0.080165
	O312	O	0.530953	0.507403	0.308875
	H313	H	0.527900	0.490729	0.319048
	H314	H	0.531273	0.503002	0.295438
	O315	O	0.504138	0.537570	0.649467
	H316	H	0.506500	0.530115	0.659030
	H317	H	0.501992	0.519742	0.638975
	O318	O	-0.029893	-0.205550	0.198766
	H319	H	-0.046096	-0.218887	0.216764
	H320	H	-0.058121	-0.213518	0.198000
	O321	O	0.699276	0.545815	0.545012
	H322	H	0.700275	0.554571	0.545564
	H323	H	0.694720	0.556395	0.553628
	O324	O	0.882834	0.005049	0.796621
	H325	H	0.880570	0.009157	0.807822
	H326	H	0.873313	0.017085	0.790812
	O327	O	0.295828	0.370233	0.469973
	H328	H	0.299281	0.368197	0.445021
	H329	H	0.277877	0.365584	0.474465
	O330	O	-0.178555	0.915379	1.102860
	H331	H	-0.177727	0.919586	1.114637
	H332	H	-0.190806	0.930509	1.103632
	O333	O	-0.186498	0.903069	0.021052
	H334	H	-0.195346	0.910377	0.024594
	H335	H	-0.177293	0.895213	0.023624
	O336	O	0.884540	0.891645	-0.126726
	H337	H	0.881207	0.902731	-0.103370
	H338	H	0.874898	0.878537	-0.135011
	O339	O	0.077885	1.196492	1.011448
	H340	H	0.089354	1.202401	0.999523
	H341	H	0.084815	1.200580	1.004960
	O342	O	0.425218	0.305860	0.614322
	H343	H	0.421752	0.290703	0.628669
	H344	H	0.447585	0.302945	0.615260
	O345	O	-0.176762	0.177228	0.803591
	H346	H	-0.151062	0.179690	0.794674
	H347	H	-0.163822	0.167009	0.808799
	O348	O	0.523034	0.308893	0.384901
	H349	H	0.523917	0.293876	0.389024
	H350	H	0.518008	0.300410	0.373846
	O351	O	0.976571	1.096406	0.064217
	H352	H	0.980669	1.082851	0.065744
	H353	H	0.989839	1.107676	0.081660
	O354	O	1.030434	1.139888	0.836002
	H355	H	1.055030	1.122451	0.825868
	H356	H	1.015078	1.118098	0.850276
	O357	O	0.149405	-0.000913	0.175556
	H358	H	0.155717	-0.009957	0.180658
	H359	H	0.146392	-0.004114	0.171535
	O360	O	0.144660	-0.085858	1.118520
	H361	H	0.143726	-0.089582	1.138731
	H362	H	0.143436	-0.079344	1.102568
	O363	O	0.827430	0.180958	-0.006250
	H364	H	0.829728	0.186178	-0.016325
	H365	H	0.839892	0.187240	-0.020360
	O366	O	0.211222	-0.211233	0.963838
	H367	H	0.215480	-0.191023	0.987826
	H368	H	0.235000	-0.234840	0.974043
	O369	O	1.324685	0.525810	1.283938
	H370	H	1.322342	0.545943	1.287612
	H371	H	1.321104	0.520345	1.271304
	O372	O	1.009620	1.167210	-0.190301
	H373	H	1.013110	1.152195	-0.195276
	H374	H	1.028084	1.164085	-0.194638
	O375	O	-0.423994	-0.588791	1.524914
	H376	H	-0.415843	-0.584256	1.543526
	H377	H	-0.442073	-0.592563	1.530645
	O378	O	0.684028	0.470889	0.639531
	H379	H	0.691329	0.482729	0.648901
	H380	H	0.688425	0.502589	0.649294
	O381	O	-0.016321	0.897329	-0.002599
	H382	H	-0.005690	0.900048	-0.002645
	H383	H	-0.020974	0.897306	0.013081
	O384	O	0.313170	0.329283	0.600090
	H385	H	0.321245	0.310498	0.597904
	H386	H	0.317832	0.327836	0.597563
	O387	O	0.523883	0.708308	0.467276
	H388	H	0.523319	0.715136	0.454773
	H389	H	0.526376	0.696316	0.470707
	O390	O	0.972410	1.050667	0.091043
	H391	H	0.977523	1.058395	0.090573
	H392	H	0.974512	1.057764	0.084054
	O393	O	0.807115	-0.163976	1.180228
	H394	H	0.791997	-0.148783	1.183127
	H395	H	0.799345	-0.141178	1.177828
	O396	O	0.697083	0.710383	0.700553
	H397	H	0.696717	0.714302	0.654203
	H398	H	0.694951	0.733367	0.720764
	O399	O	0.358244	0.605652	0.638319
	H400	H	0.352801	0.583615	0.624186
	H401	H	0.379034	0.597908	0.659360
	O402	O	1.217686	0.974353	-0.230679
	H403	H	1.240237	0.954541	-0.252603
	H404	H	1.221581	0.937598	-0.234379
	O405	O	0.702017	0.707801	0.537655
	H406	H	0.728806	0.725368	0.524374
	H407	H	0.684758	0.693097	0.522013
	O408	O	0.433010	0.455185	0.503327
	H409	H	0.430555	0.460134	0.502440
	H410	H	0.430869	0.466182	0.515030
	O411	O	0.869914	1.030709	0.810664
	H412	H	0.860293	1.036984	0.792526
	H413	H	0.871002	1.024422	0.821096
	O414	O	0.123927	0.146750	0.882265
	H415	H	0.120261	0.125137	0.886077
	H416	H	0.114335	0.133538	0.866088
	O417	O	0.008886	0.903491	1.039427
	H418	H	0.006160	0.893531	1.042156
	H419	H	0.001919	0.907029	1.042567
	O420	O	0.010730	0.806702	0.799658
	H421	H	0.000818	0.795942	0.812221
	H422	H	0.010897	0.810371	0.794148
	O423	O	0.180608	0.816268	-0.198793
	H424	H	0.170656	0.800466	-0.183483
	H425	H	0.178190	0.797646	-0.180898
	O426	O	0.646808	0.423603	0.528604
	H427	H	0.652671	0.436625	0.529436
	H428	H	0.652349	0.434657	0.542909
	O429	O	0.302764	0.701379	0.476836
	H430	H	0.306821	0.697853	0.482719
	H431	H	0.293770	0.709693	0.477994
	O432	O	0.493341	0.344215	0.680370
	H433	H	0.505692	0.339578	0.686538
	H434	H	0.518046	0.345964	0.689631
	O435	O	0.112683	0.198008	0.158023
	H436	H	0.138124	0.172048	0.148960
	H437	H	0.119855	0.217567	0.145014
	O438	O	-0.071998	1.007675	1.182282
	H439	H	-0.054340	1.003305	1.193207
	H440	H	-0.079395	1.028550	1.177202
	O441	O	0.693014	0.505457	0.296400
	H442	H	0.697193	0.496280	0.289759
	H443	H	0.698805	0.480132	0.302446
