data_Molecule from HDF5

_cell_length_a		16.207745
_cell_length_b		16.262082
_cell_length_c		16.241474
_cell_angle_alpha	90.085339
_cell_angle_beta	89.798513
_cell_angle_gamma	90.153353
_symmetry_space_group_name_H-M	'P 1'
_symmetry_Int_Tables_number		1

loop_
	_symmetry_equiv_pos_as_xyz
	x,y,z

loop_
	_atom_site_label
	_atom_site_type_symbol
	_atom_site_fract_x
	_atom_site_fract_y
	_atom_site_fract_z
	H0	H	0.394166	0.836328	0.712933
	H1	H	0.594234	0.164327	0.710607
	H2	H	0.595029	0.836699	0.280275
	H3	H	0.397636	0.163449	0.284382
	H4	H	0.709631	0.401569	0.834075
	H5	H	0.707811	0.598233	0.162358
	H6	H	0.282355	0.596634	0.833770
	H7	H	0.281399	0.403137	0.162642
	H8	H	0.831718	0.712391	0.398652
	H9	H	0.159084	0.714670	0.596733
	H10	H	0.831310	0.283661	0.596956
	H11	H	0.159744	0.285333	0.398445
	H12	H	0.831329	0.398908	0.712174
	H13	H	0.160397	0.597083	0.709738
	H14	H	0.831360	0.596789	0.285346
	H15	H	0.159572	0.401066	0.283319
	H16	H	0.395523	0.714793	0.834278
	H17	H	0.594810	0.715716	0.160897
	H18	H	0.594524	0.284678	0.834041
	H19	H	0.394397	0.284935	0.161866
	H20	H	0.708451	0.835246	0.397379
	H21	H	0.710139	0.163538	0.594119
	H22	H	0.282203	0.835052	0.594684
	H23	H	0.281784	0.163892	0.400580
	H24	H	0.895662	0.335919	0.213181
	H25	H	0.093180	0.663028	0.212622
	H26	H	0.095351	0.335708	0.782670
	H27	H	0.898632	0.663267	0.784539
	H28	H	0.208661	0.901509	0.332771
	H29	H	0.208596	0.097020	0.662207
	H30	H	0.783267	0.095387	0.332343
	H31	H	0.778567	0.899635	0.660898
	H32	H	0.330500	0.214114	0.899512
	H33	H	0.659363	0.214354	0.095365
	H34	H	0.331914	0.785584	0.096850
	H35	H	0.659686	0.785701	0.896854
	H36	H	0.331751	0.901986	0.210641
	H37	H	0.660198	0.099293	0.209859
	H38	H	0.330131	0.098504	0.784068
	H39	H	0.659461	0.902126	0.782279
	H40	H	0.897349	0.212551	0.333416
	H41	H	0.093704	0.213440	0.661002
	H42	H	0.092664	0.785434	0.332688
	H43	H	0.895808	0.784742	0.661431
	H44	H	0.209787	0.335749	0.900090
	H45	H	0.208284	0.664087	0.097406
	H46	H	0.779987	0.336040	0.096736
	H47	H	0.782807	0.664178	0.900914
	H48	H	0.410278	0.113207	0.587585
	H49	H	0.589845	0.883591	0.584893
	H50	H	0.585340	0.116049	0.401989
	H51	H	0.403480	0.884618	0.408743
	H52	H	0.589273	0.405352	0.116090
	H53	H	0.591255	0.585856	0.881906
	H54	H	0.403384	0.592521	0.114508
	H55	H	0.405782	0.406363	0.882252
	H56	H	0.115461	0.597532	0.402702
	H57	H	0.875300	0.592186	0.598179
	H58	H	0.110944	0.411233	0.589019
	H59	H	0.882803	0.417974	0.408312
	H60	H	0.114896	0.403988	0.595826
	H61	H	0.877540	0.596835	0.588003
	H62	H	0.111245	0.592288	0.410796
	H63	H	0.873587	0.401938	0.393358
	H64	H	0.403045	0.596111	0.115395
	H65	H	0.581635	0.594295	0.882932
	H66	H	0.587640	0.408526	0.114983
	H67	H	0.402698	0.405211	0.880795
	H68	H	0.590523	0.115543	0.407809
	H69	H	0.589505	0.881299	0.594115
	H70	H	0.394442	0.117210	0.585654
	H71	H	0.394635	0.879581	0.401039
	H72	H	0.904310	0.616913	0.094827
	H73	H	0.086455	0.383159	0.090068
	H74	H	0.093869	0.617704	0.905248
	H75	H	0.897330	0.383132	0.907960
	H76	H	0.090918	0.891995	0.619170
	H77	H	0.090699	0.082909	0.382748
	H78	H	0.906486	0.097952	0.614502
	H79	H	0.909181	0.892646	0.378103
	H80	H	0.612317	0.096748	0.906771
	H81	H	0.376845	0.093612	0.093726
	H82	H	0.613514	0.909513	0.089152
	H83	H	0.377816	0.910421	0.899395
	H84	H	0.614721	0.906110	0.090355
	H85	H	0.377420	0.094905	0.090686
	H86	H	0.609544	0.088497	0.906326
	H87	H	0.376468	0.899868	0.905909
	H88	H	0.894950	0.090768	0.616039
	H89	H	0.080630	0.097138	0.380666
	H90	H	0.099164	0.914328	0.615148
	H91	H	0.888392	0.903254	0.375718
	H92	H	0.087452	0.616686	0.899523
	H93	H	0.091024	0.381770	0.090720
	H94	H	0.902748	0.615981	0.089535
	H95	H	0.901690	0.380530	0.899606
	H96	H	0.401567	0.119387	0.600075
	H97	H	0.581689	0.884283	0.589693
	H98	H	0.592296	0.118486	0.400900
	H99	H	0.406059	0.881960	0.396500
	H100	H	0.585681	0.405146	0.114715
	H101	H	0.593559	0.598228	0.876918
	H102	H	0.399245	0.593602	0.115461
	H103	H	0.402366	0.408955	0.881963
	H104	H	0.113199	0.587756	0.401309
	H105	H	0.880217	0.585520	0.589350
	H106	H	0.112488	0.402446	0.586138
	H107	H	0.877906	0.395668	0.415962
	H108	H	0.898857	0.617903	0.093229
	H109	H	0.087830	0.381434	0.094075
	H110	H	0.086089	0.614727	0.907489
	H111	H	0.906736	0.384712	0.906216
	H112	H	0.075462	0.908900	0.610060
	H113	H	0.097742	0.097925	0.375973
	H114	H	0.905369	0.085026	0.610592
	H115	H	0.907101	0.914631	0.384711
	H116	H	0.612887	0.092728	0.898976
	H117	H	0.378226	0.091191	0.090721
	H118	H	0.613395	0.906183	0.086918
	H119	H	0.380779	0.909596	0.910638
	C120	C	0.373475	0.007991	0.619239
	C121	C	0.616403	0.991422	0.618231
	C122	C	0.617226	0.008332	0.374703
	C123	C	0.373542	0.990762	0.375198
	C124	C	0.616443	0.377861	0.006807
	C125	C	0.617196	0.621937	0.988921
	C126	C	0.373493	0.621995	0.006777
	C127	C	0.373695	0.378242	0.989806
	C128	C	0.004684	0.620165	0.376706
	C129	C	0.986581	0.620023	0.619528
	C130	C	0.004123	0.376929	0.619191
	C131	C	0.986741	0.377363	0.376550
	C132	C	0.873191	0.508409	0.120545
	C133	C	0.116442	0.491013	0.119848
	C134	C	0.117655	0.508087	0.875700
	C135	C	0.873982	0.491095	0.876644
	C136	C	0.116714	0.876851	0.505819
	C137	C	0.116912	0.120224	0.488744
	C138	C	0.874021	0.119840	0.505456
	C139	C	0.872658	0.875776	0.488463
	C140	C	0.503042	0.121414	0.875931
	C141	C	0.486633	0.121973	0.119414
	C142	C	0.504786	0.879066	0.117935
	C143	C	0.486759	0.878002	0.875534
	C144	C	0.375244	0.884977	0.674464
	C145	C	0.614577	0.115098	0.673102
	C146	C	0.614505	0.885165	0.319268
	C147	C	0.376623	0.114492	0.321589
	C148	C	0.671788	0.380649	0.882900
	C149	C	0.670792	0.618741	0.112990
	C150	C	0.319366	0.618169	0.882974
	C151	C	0.318437	0.381357	0.113522
	C152	C	0.880627	0.674258	0.379085
	C153	C	0.110365	0.675769	0.616349
	C154	C	0.880390	0.321621	0.617012
	C155	C	0.110718	0.322996	0.378425
	C156	C	0.880520	0.379072	0.674408
	C157	C	0.110890	0.617820	0.673198
	C158	C	0.880616	0.616852	0.322727
	C159	C	0.110441	0.380252	0.320970
	C160	C	0.375776	0.676738	0.883284
	C161	C	0.614509	0.677220	0.112240
	C162	C	0.614570	0.322825	0.882980
	C163	C	0.375176	0.323135	0.113217
	C164	C	0.671147	0.884452	0.377227
	C165	C	0.671996	0.114905	0.615172
	C166	C	0.319116	0.884323	0.615863
	C167	C	0.319125	0.114644	0.379213
	C168	C	0.875219	0.384920	0.175399
	C169	C	0.113730	0.614317	0.174985
	C170	C	0.115242	0.384659	0.820608
	C171	C	0.877475	0.614385	0.821955
	C172	C	0.171043	0.880430	0.381892
	C173	C	0.171027	0.117196	0.612866
	C174	C	0.820710	0.116253	0.381361
	C175	C	0.817319	0.879457	0.611951
	C176	C	0.379368	0.176146	0.879194
	C177	C	0.610458	0.176509	0.115795
	C178	C	0.380976	0.823991	0.116022
	C179	C	0.610587	0.823643	0.877125
	C180	C	0.380849	0.881665	0.172866
	C181	C	0.610775	0.119105	0.172825
	C182	C	0.379239	0.118807	0.821719
	C183	C	0.610348	0.881161	0.819832
	C184	C	0.877356	0.174358	0.381993
	C185	C	0.114129	0.175333	0.612406
	C186	C	0.113611	0.822908	0.381913
	C187	C	0.875186	0.822184	0.612224
	C188	C	0.172251	0.384709	0.878951
	C189	C	0.170787	0.614798	0.117276
	C190	C	0.817954	0.384968	0.117460
	C191	C	0.819992	0.614905	0.879874
	C192	C	0.395661	0.094310	0.597385
	C193	C	0.593726	0.905361	0.596132
	C194	C	0.595708	0.094307	0.396862
	C195	C	0.395033	0.904443	0.396036
	C196	C	0.594031	0.399812	0.092824
	C197	C	0.595281	0.599362	0.902817
	C198	C	0.395290	0.600422	0.092878
	C199	C	0.396766	0.400322	0.903921
	C200	C	0.091145	0.598701	0.398511
	C201	C	0.900165	0.597950	0.598302
	C202	C	0.090595	0.399388	0.596992
	C203	C	0.900400	0.398796	0.399186
	C204	C	0.895228	0.594662	0.098924
	C205	C	0.094731	0.404255	0.097986
	C206	C	0.095628	0.594231	0.897702
	C207	C	0.895478	0.405103	0.898248
	C208	C	0.094974	0.898624	0.592548
	C209	C	0.095803	0.098889	0.402167
	C210	C	0.895640	0.097676	0.591659
	C211	C	0.894969	0.897173	0.401806
	C212	C	0.589348	0.099268	0.897715
	C213	C	0.399806	0.099921	0.097922
	C214	C	0.591523	0.900947	0.095489
	C215	C	0.400570	0.900097	0.898483
	Zn216	Zn	0.494664	-0.000093	0.747275
	Zn217	Zn	0.495790	0.000058	0.246526
	Zn218	Zn	0.745027	0.500062	-0.001787
	Zn219	Zn	0.244987	0.500102	-0.001194
	Zn220	Zn	-0.004741	0.748041	0.497387
	Zn221	Zn	-0.004743	0.248527	0.497302
	Zn222	Zn	-0.004312	0.498957	0.747638
	Zn223	Zn	-0.004532	0.499445	0.248662
	Zn224	Zn	0.495786	0.750132	-0.002764
	Zn225	Zn	0.494892	0.249593	-0.001654
	Zn226	Zn	0.745011	-0.000993	0.496546
	Zn227	Zn	0.245151	-0.001249	0.497380
	N228	N	0.408521	0.963111	0.676513
	N229	N	0.580672	0.037464	0.675120
	N230	N	0.581472	0.963005	0.317698
	N231	N	0.409854	0.036723	0.319017
	N232	N	0.673413	0.413991	0.960690
	N233	N	0.672678	0.585064	0.035195
	N234	N	0.317726	0.584934	0.960636
	N235	N	0.317420	0.414973	0.035895
	N236	N	0.958635	0.676666	0.411956
	N237	N	0.032135	0.677410	0.583697
	N238	N	0.958373	0.320033	0.583475
	N239	N	0.032901	0.321085	0.412386
	N240	N	0.958537	0.412628	0.675908
	N241	N	0.033049	0.583826	0.675147
	N242	N	0.958584	0.583760	0.321379
	N243	N	0.032448	0.413316	0.319661
	N244	N	0.408826	0.679245	0.961225
	N245	N	0.581792	0.678971	0.034153
	N246	N	0.581054	0.320804	0.960978
	N247	N	0.408710	0.321047	0.035300
	N248	N	0.673004	0.962012	0.411067
	N249	N	0.672991	0.037124	0.581648
	N250	N	0.317689	0.961876	0.582429
	N251	N	0.316951	0.036812	0.411847
	N252	N	0.908741	0.462754	0.177488
	N253	N	0.080702	0.536325	0.176719
	N254	N	0.081994	0.462532	0.818503
	N255	N	0.910521	0.536600	0.820094
	N256	N	0.173106	0.913227	0.460007
	N257	N	0.172875	0.083673	0.534938
	N258	N	0.818575	0.083066	0.459142
	N259	N	0.815468	0.911906	0.533815
	N260	N	0.457410	0.177757	0.912392
	N261	N	0.532161	0.178208	0.083347
	N262	N	0.459176	0.822126	0.082764
	N263	N	0.532678	0.821598	0.910963
	N264	N	0.458765	0.915205	0.174068
	N265	N	0.532624	0.085851	0.175122
	N266	N	0.457222	0.085630	0.819505
	N267	N	0.532411	0.914489	0.818917
	N268	N	0.909870	0.176618	0.460124
	N269	N	0.081486	0.177471	0.534374
	N270	N	0.080494	0.820642	0.460086
	N271	N	0.908887	0.819685	0.534301
	N272	N	0.173772	0.462378	0.912505
	N273	N	0.172493	0.536930	0.083774
	N274	N	0.816535	0.462768	0.084069
	N275	N	0.817685	0.537204	0.913149
	O276	O	0.476225	0.510739	0.514123
	H277	H	0.477722	0.507537	0.518417
	H278	H	0.476316	0.512540	0.511773
	O279	O	0.517407	0.506034	0.509691
	H280	H	0.518001	0.497702	0.502322
	H281	H	0.517249	0.507420	0.511223
	O282	O	0.543375	0.444013	0.506917
	H283	H	0.542157	0.443837	0.516907
	H284	H	0.545729	0.435446	0.514708
	O285	O	0.022933	1.077818	0.979330
	H286	H	0.021450	1.070178	0.974201
	H287	H	0.031318	1.072983	0.976821
	O288	O	0.451927	0.432903	0.560927
	H289	H	0.451023	0.438184	0.565616
	H290	H	0.443070	0.432556	0.561251
	O291	O	0.088819	0.045242	0.987604
	H292	H	0.086895	0.047335	0.982891
	H293	H	0.082904	0.046433	0.983930
	O294	O	0.484150	0.490366	0.579008
	H295	H	0.489333	0.490688	0.577971
	H296	H	0.486338	0.478895	0.587230
	O297	O	0.522753	0.484953	0.560180
	H298	H	0.513488	0.477184	0.562795
	H299	H	0.525280	0.482260	0.558488
	O300	O	0.514036	0.509482	0.515552
	H301	H	0.514721	0.497089	0.513475
	H302	H	0.515150	0.510007	0.514538
	O303	O	0.563052	0.496840	0.486263
	H304	H	0.555603	0.499342	0.486002
	H305	H	0.568986	0.506042	0.481132
	O306	O	0.979735	0.086452	0.916990
	H307	H	0.990397	0.092879	0.923406
	H308	H	0.975977	0.085179	0.923464
	O309	O	0.525295	0.527652	0.476650
	H310	H	0.525544	0.532300	0.474207
	H311	H	0.539345	0.527590	0.470749
	O312	O	0.494130	0.504531	0.495978
	H313	H	0.493893	0.499234	0.494139
	H314	H	0.494229	0.505527	0.498541
	O315	O	1.003217	0.068548	0.959075
	H316	H	1.002072	0.070486	0.957881
	H317	H	0.995556	0.071301	0.962284
	O318	O	0.004265	0.015964	-0.048485
	H319	H	0.008837	0.011560	-0.060824
	H320	H	0.004786	0.018624	-0.051299
	O321	O	0.582831	0.485796	0.500527
	H322	H	0.583803	0.490089	0.507758
	H323	H	0.584525	0.491188	0.491279
	O324	O	0.982470	0.089252	0.028264
	H325	H	0.985262	0.094369	0.037549
	H326	H	0.980299	0.082435	0.025360
	O327	O	1.049482	1.068511	0.025797
	H328	H	1.048528	1.073237	0.030056
	H329	H	1.044332	1.071457	0.021963
	O330	O	0.478874	0.552298	0.505592
	H331	H	0.477779	0.554086	0.504554
	H332	H	0.479863	0.555224	0.504794
	O333	O	0.493055	0.569487	0.562074
	H334	H	0.482952	0.570772	0.562087
	H335	H	0.494487	0.575450	0.558502
