data_Molecule from HDF5

_cell_length_a		16.247877
_cell_length_b		16.230061
_cell_length_c		16.204046
_cell_angle_alpha	90.151828
_cell_angle_beta	90.120338
_cell_angle_gamma	89.144815
_symmetry_space_group_name_H-M	'P 1'
_symmetry_Int_Tables_number		1

loop_
	_symmetry_equiv_pos_as_xyz
	x,y,z

loop_
	_atom_site_label
	_atom_site_type_symbol
	_atom_site_fract_x
	_atom_site_fract_y
	_atom_site_fract_z
	H0	H	0.407850	0.839944	0.711903
	H1	H	0.601355	0.167256	0.715238
	H2	H	0.604031	0.839143	0.285085
	H3	H	0.402268	0.167845	0.283455
	H4	H	0.722186	0.402562	0.834377
	H5	H	0.717123	0.599811	0.163486
	H6	H	0.286967	0.605442	0.835064
	H7	H	0.293647	0.404070	0.162005
	H8	H	0.840927	0.722266	0.399730
	H9	H	0.168491	0.717816	0.599835
	H10	H	0.839633	0.294070	0.599044
	H11	H	0.166512	0.284945	0.400169
	H12	H	0.840051	0.411167	0.712988
	H13	H	0.168312	0.602007	0.715601
	H14	H	0.840649	0.606499	0.283907
	H15	H	0.168452	0.402170	0.286215
	H16	H	0.405183	0.718029	0.832888
	H17	H	0.603846	0.717088	0.162017
	H18	H	0.607259	0.286074	0.834367
	H19	H	0.410167	0.291783	0.162017
	H20	H	0.720846	0.841199	0.398497
	H21	H	0.714864	0.168580	0.598225
	H22	H	0.292205	0.839992	0.597621
	H23	H	0.284820	0.167190	0.398163
	H24	H	0.910162	0.339824	0.213318
	H25	H	0.101408	0.668765	0.214519
	H26	H	0.107415	0.340846	0.783962
	H27	H	0.903243	0.668292	0.786530
	H28	H	0.219335	0.901610	0.335208
	H29	H	0.216901	0.101556	0.662642
	H30	H	0.786296	0.105817	0.334350
	H31	H	0.791345	0.908586	0.662333
	H32	H	0.342881	0.224038	0.896452
	H33	H	0.669737	0.213343	0.096646
	H34	H	0.340626	0.791762	0.095328
	H35	H	0.668336	0.784740	0.896416
	H36	H	0.340734	0.905563	0.212499
	H37	H	0.668359	0.098586	0.213129
	H38	H	0.340648	0.103615	0.785266
	H39	H	0.668369	0.901221	0.782406
	H40	H	0.900868	0.221425	0.335233
	H41	H	0.099775	0.214899	0.664019
	H42	H	0.104357	0.787252	0.335540
	H43	H	0.907457	0.793479	0.663153
	H44	H	0.222924	0.340518	0.898806
	H45	H	0.218950	0.667912	0.100552
	H46	H	0.795644	0.338905	0.097032
	H47	H	0.786583	0.666504	0.899545
	H48	H	0.404719	0.122280	0.593895
	H49	H	0.602704	0.888240	0.582240
	H50	H	0.595692	0.120650	0.408122
	H51	H	0.406249	0.884330	0.402339
	H52	H	0.603441	0.400368	0.119225
	H53	H	0.609356	0.594536	0.877097
	H54	H	0.413653	0.599149	0.114769
	H55	H	0.417725	0.416361	0.882364
	H56	H	0.120156	0.594957	0.409769
	H57	H	0.889661	0.601238	0.583944
	H58	H	0.122029	0.415425	0.601205
	H59	H	0.891034	0.421309	0.411977
	H60	H	0.125487	0.397363	0.593372
	H61	H	0.888551	0.592289	0.598035
	H62	H	0.120559	0.593583	0.406405
	H63	H	0.884408	0.416920	0.396097
	H64	H	0.411142	0.598680	0.115980
	H65	H	0.593476	0.584539	0.885185
	H66	H	0.606731	0.414376	0.115617
	H67	H	0.415012	0.409045	0.879945
	H68	H	0.596572	0.123463	0.402638
	H69	H	0.603115	0.883979	0.596647
	H70	H	0.413187	0.121065	0.593685
	H71	H	0.417317	0.886861	0.400248
	H72	H	0.911341	0.622137	0.097940
	H73	H	0.107030	0.385274	0.094499
	H74	H	0.105317	0.624109	0.907818
	H75	H	0.905307	0.383798	0.907665
	H76	H	0.101496	0.910946	0.617598
	H77	H	0.098337	0.094675	0.381021
	H78	H	0.900573	0.109440	0.621792
	H79	H	0.909364	0.913584	0.380034
	H80	H	0.624544	0.102663	0.908552
	H81	H	0.386883	0.096288	0.097939
	H82	H	0.626421	0.892296	0.090294
	H83	H	0.385915	0.908473	0.902288
	H84	H	0.615077	0.916171	0.077809
	H85	H	0.385337	0.108110	0.087597
	H86	H	0.618324	0.087567	0.910050
	H87	H	0.388132	0.910972	0.906958
	H88	H	0.902683	0.086348	0.614508
	H89	H	0.091318	0.091792	0.383014
	H90	H	0.098027	0.914548	0.615791
	H91	H	0.913737	0.915575	0.382796
	H92	H	0.090841	0.622075	0.900766
	H93	H	0.096616	0.387348	0.096562
	H94	H	0.912996	0.619124	0.088790
	H95	H	0.920694	0.385405	0.895654
	H96	H	0.408810	0.119857	0.586110
	H97	H	0.590850	0.890420	0.589913
	H98	H	0.591141	0.120684	0.403839
	H99	H	0.412614	0.888273	0.410906
	H100	H	0.592930	0.410548	0.113547
	H101	H	0.591596	0.603260	0.879189
	H102	H	0.412476	0.597277	0.114635
	H103	H	0.409579	0.415462	0.880068
	H104	H	0.122388	0.597767	0.406714
	H105	H	0.883846	0.608810	0.598010
	H106	H	0.117208	0.412526	0.582224
	H107	H	0.885248	0.404391	0.408807
	H108	H	0.904922	0.622179	0.090320
	H109	H	0.100902	0.388474	0.087081
	H110	H	0.092599	0.617874	0.916468
	H111	H	0.921943	0.391123	0.915311
	H112	H	0.096569	0.909067	0.617188
	H113	H	0.092375	0.099015	0.380581
	H114	H	0.922118	0.100822	0.612682
	H115	H	0.913607	0.910705	0.381018
	H116	H	0.624610	0.092444	0.896241
	H117	H	0.391560	0.093554	0.083047
	H118	H	0.624042	0.916823	0.105734
	H119	H	0.388225	0.914084	0.902308
	C120	C	0.381941	0.012427	0.620057
	C121	C	0.625633	0.995705	0.619506
	C122	C	0.625031	0.013232	0.376348
	C123	C	0.381506	0.994848	0.375743
	C124	C	0.629568	0.379964	0.007158
	C125	C	0.626186	0.623024	0.989404
	C126	C	0.382657	0.627101	0.006597
	C127	C	0.386339	0.384153	0.989293
	C128	C	0.012924	0.625905	0.378103
	C129	C	0.995562	0.627464	0.622195
	C130	C	0.012893	0.382811	0.621201
	C131	C	0.995101	0.382917	0.377590
	C132	C	0.883769	0.512463	0.120658
	C133	C	0.128457	0.495584	0.121850
	C134	C	0.126779	0.513094	0.878379
	C135	C	0.884489	0.494934	0.877927
	C136	C	0.127272	0.881418	0.508148
	C137	C	0.123083	0.123911	0.490239
	C138	C	0.879353	0.128329	0.507697
	C139	C	0.883641	0.885006	0.489672
	C140	C	0.514133	0.125182	0.876236
	C141	C	0.496257	0.125482	0.119046
	C142	C	0.513233	0.881628	0.119260
	C143	C	0.495984	0.881115	0.875269
	C144	C	0.386402	0.889277	0.674917
	C145	C	0.621500	0.118719	0.676258
	C146	C	0.624194	0.888827	0.322117
	C147	C	0.382098	0.118592	0.320808
	C148	C	0.684698	0.382128	0.883465
	C149	C	0.680242	0.620442	0.113881
	C150	C	0.325903	0.625227	0.883573
	C151	C	0.331391	0.385057	0.112829
	C152	C	0.889866	0.683495	0.379643
	C153	C	0.119344	0.680779	0.620033
	C154	C	0.888886	0.330543	0.619364
	C155	C	0.117732	0.324058	0.379709
	C156	C	0.889266	0.388695	0.676103
	C157	C	0.119391	0.623321	0.677698
	C158	C	0.889695	0.625753	0.322174
	C159	C	0.118990	0.382797	0.323628
	C160	C	0.384615	0.681233	0.882493
	C161	C	0.623700	0.678852	0.113058
	C162	C	0.627659	0.324352	0.883468
	C163	C	0.389472	0.329131	0.112998
	C164	C	0.682761	0.889995	0.378162
	C165	C	0.678095	0.119524	0.618001
	C166	C	0.328981	0.889186	0.617808
	C167	C	0.323900	0.118277	0.377869
	C168	C	0.888939	0.388658	0.175343
	C169	C	0.123091	0.619344	0.177109
	C170	C	0.126813	0.389960	0.821852
	C171	C	0.884209	0.618929	0.823676
	C172	C	0.182304	0.881974	0.384568
	C173	C	0.178896	0.121730	0.613610
	C174	C	0.824019	0.126203	0.383645
	C175	C	0.829153	0.888087	0.613309
	C176	C	0.391209	0.183719	0.877591
	C177	C	0.620447	0.177226	0.116841
	C178	C	0.389836	0.828390	0.116212
	C179	C	0.619298	0.823565	0.876810
	C180	C	0.389594	0.885445	0.174143
	C181	C	0.619633	0.120216	0.174902
	C182	C	0.390140	0.124010	0.822313
	C183	C	0.619219	0.881400	0.819939
	C184	C	0.881153	0.183717	0.384260
	C185	C	0.120505	0.178154	0.614250
	C186	C	0.124832	0.825153	0.384594
	C187	C	0.886915	0.831151	0.613902
	C188	C	0.184222	0.389671	0.879149
	C189	C	0.181537	0.618964	0.120239
	C190	C	0.831970	0.388455	0.117853
	C191	C	0.826293	0.618059	0.880037
	C192	C	0.402743	0.098824	0.597860
	C193	C	0.604920	0.909738	0.596354
	C194	C	0.601306	0.099257	0.398223
	C195	C	0.405255	0.908797	0.398065
	C196	C	0.607638	0.401969	0.093538
	C197	C	0.604494	0.600824	0.902907
	C198	C	0.405651	0.604888	0.092767
	C199	C	0.407928	0.406953	0.903078
	C200	C	0.098860	0.602360	0.401024
	C201	C	0.909577	0.606838	0.599926
	C202	C	0.099161	0.402514	0.598827
	C203	C	0.909180	0.407104	0.399227
	C204	C	0.903914	0.598791	0.098786
	C205	C	0.107764	0.409300	0.099401
	C206	C	0.103174	0.599238	0.901486
	C207	C	0.908899	0.409102	0.899705
	C208	C	0.105037	0.904598	0.594424
	C209	C	0.100600	0.101647	0.403845
	C210	C	0.901674	0.105533	0.594110
	C211	C	0.905719	0.906876	0.403500
	C212	C	0.600232	0.101303	0.898371
	C213	C	0.410198	0.105329	0.096313
	C214	C	0.599472	0.902344	0.097671
	C215	C	0.409731	0.904284	0.897479
	Zn216	Zn	0.504289	0.003456	0.748074
	Zn217	Zn	0.503639	0.003707	0.247853
	Zn218	Zn	0.756011	0.502355	-0.001239
	Zn219	Zn	0.256504	0.504118	-0.000713
	Zn220	Zn	0.004566	0.755442	0.499559
	Zn221	Zn	0.002424	0.254402	0.499631
	Zn222	Zn	0.005273	0.504662	0.749549
	Zn223	Zn	0.005041	0.504342	0.249282
	Zn224	Zn	0.505429	0.753266	-0.002719
	Zn225	Zn	0.506277	0.254074	-0.002536
	Zn226	Zn	0.753396	0.005515	0.497810
	Zn227	Zn	0.253681	0.003563	0.498414
	N228	N	0.418627	0.967151	0.676307
	N229	N	0.589538	0.040707	0.677096
	N230	N	0.589038	0.966395	0.320577
	N231	N	0.416920	0.040773	0.319200
	N232	N	0.685955	0.415968	0.961435
	N233	N	0.681974	0.586419	0.036074
	N234	N	0.324794	0.591980	0.961626
	N235	N	0.329251	0.418656	0.034924
	N236	N	0.967351	0.683568	0.413902
	N237	N	0.041384	0.683699	0.586309
	N238	N	0.966622	0.326710	0.585904
	N239	N	0.039742	0.324036	0.412614
	N240	N	0.967201	0.420641	0.677213
	N241	N	0.041605	0.591125	0.679448
	N242	N	0.967345	0.590652	0.321229
	N243	N	0.041729	0.418591	0.321929
	N244	N	0.419034	0.682712	0.960109
	N245	N	0.590681	0.680431	0.034707
	N246	N	0.594049	0.322806	0.961317
	N247	N	0.423004	0.328438	0.035228
	N248	N	0.683285	0.968191	0.411295
	N249	N	0.680699	0.042054	0.583206
	N250	N	0.326206	0.966822	0.584154
	N251	N	0.323384	0.040319	0.411134
	N252	N	0.920430	0.466842	0.177386
	N253	N	0.091034	0.541340	0.178389
	N254	N	0.091794	0.467650	0.821114
	N255	N	0.919875	0.541467	0.822183
	N256	N	0.183931	0.916198	0.462283
	N257	N	0.180488	0.088588	0.535390
	N258	N	0.822724	0.092642	0.461511
	N259	N	0.826952	0.920803	0.534994
	N260	N	0.469473	0.184552	0.910330
	N261	N	0.542812	0.180506	0.082810
	N262	N	0.467633	0.826027	0.082699
	N263	N	0.541461	0.823143	0.910432
	N264	N	0.467328	0.917930	0.176169
	N265	N	0.541491	0.088769	0.176595
	N266	N	0.467399	0.087968	0.821611
	N267	N	0.541761	0.916562	0.818933
	N268	N	0.914829	0.185174	0.462432
	N269	N	0.086254	0.179439	0.536456
	N270	N	0.091587	0.824345	0.462655
	N271	N	0.920170	0.828994	0.536027
	N272	N	0.184070	0.467231	0.913892
	N273	N	0.184964	0.541067	0.086545
	N274	N	0.828494	0.466341	0.084741
	N275	N	0.826169	0.539992	0.912864
	O276	O	-0.018307	0.034974	0.088623
	H277	H	-0.021617	0.034787	0.090749
	H278	H	-0.021881	0.034057	0.088989
	O279	O	0.389922	0.580278	0.451418
	H280	H	0.377886	0.578048	0.449294
	H281	H	0.389651	0.584596	0.455745
	O282	O	0.497360	0.485456	0.512258
	H283	H	0.495457	0.477301	0.519992
	H284	H	0.506126	0.479971	0.516291
	O285	O	1.072031	0.044700	1.000182
	H286	H	1.076461	0.051370	1.003655
	H287	H	1.077116	0.057890	0.996875
	O288	O	0.994611	-0.023651	0.016120
	H289	H	0.997663	-0.027467	0.014769
	H290	H	0.990456	-0.032571	0.017901
	O291	O	0.567788	0.501446	0.536363
	H292	H	0.565925	0.498989	0.535057
	H293	H	0.565825	0.504109	0.534437
	O294	O	1.033747	0.025396	0.989682
	H295	H	1.033311	0.022462	0.984516
	H296	H	1.035142	0.034942	0.985715
	O297	O	0.006114	-0.008780	-0.002074
	H298	H	0.009225	-0.014882	0.001933
	H299	H	0.012675	-0.004115	-0.000303
	O300	O	0.535108	0.468610	0.477494
	H301	H	0.535093	0.476748	0.467108
	H302	H	0.535039	0.461009	0.476132
	O303	O	0.481234	0.485878	0.486502
	H304	H	0.485884	0.484674	0.488803
	H305	H	0.483243	0.484684	0.484883
	O306	O	0.966177	-0.035030	-0.023195
	H307	H	0.971045	-0.048548	-0.026149
	H308	H	0.965925	-0.034747	-0.026526
	O309	O	-0.025411	0.038311	0.948666
	H310	H	-0.035534	0.031928	0.944222
	H311	H	-0.027065	0.038002	0.957347
	O312	O	1.020471	1.035196	0.934148
	H313	H	1.022748	1.038800	0.936860
	H314	H	1.018549	1.037738	0.936950
	O315	O	0.510503	0.499295	0.512196
	H316	H	0.503131	0.497297	0.512215
	H317	H	0.513059	0.501355	0.510997
	O318	O	0.489186	0.500814	0.476265
	H319	H	0.485793	0.505280	0.477094
	H320	H	0.485880	0.504070	0.471543
	O321	O	0.086653	0.933471	0.985657
	H322	H	0.092345	0.935320	0.986668
	H323	H	0.093568	0.939243	0.988740
	O324	O	0.525960	0.542295	0.458599
	H325	H	0.520865	0.538772	0.459838
	H326	H	0.520109	0.543778	0.456502
	O327	O	0.457398	0.482806	0.477610
	H328	H	0.465512	0.480906	0.485538
	H329	H	0.451547	0.496019	0.477072
	O330	O	0.504668	0.573763	0.468973
	H331	H	0.519929	0.572551	0.471304
	H332	H	0.503441	0.576723	0.463176
	O333	O	0.498694	0.571008	0.419807
	H334	H	0.487138	0.567634	0.415014
	H335	H	0.488160	0.581975	0.428828
	O336	O	0.560339	0.433530	0.498317
	H337	H	0.561138	0.443829	0.492146
	H338	H	0.568762	0.429898	0.495004
	O339	O	1.043261	0.994684	-0.008899
	H340	H	1.051691	0.998901	-0.007715
	H341	H	1.034274	0.993881	0.000106
	O342	O	0.542033	0.375019	0.514375
	H343	H	0.557489	0.374693	0.513170
	H344	H	0.545163	0.368322	0.507527
	O345	O	0.499943	0.517690	0.493865
	H346	H	0.500088	0.519621	0.498749
	H347	H	0.492551	0.509208	0.490493
	O348	O	0.008818	0.037802	-0.029133
	H349	H	0.002902	0.046754	-0.034376
	H350	H	0.015519	0.039891	-0.031357
	O351	O	-0.047845	1.020074	1.004762
	H352	H	-0.044090	1.010217	0.993869
	H353	H	-0.054397	1.018685	0.997327
	O354	O	0.394123	0.582616	0.480358
	H355	H	0.396164	0.583478	0.484062
	H356	H	0.381800	0.588458	0.477803
	O357	O	0.054406	1.009912	0.993993
	H358	H	0.051832	1.010435	0.982598
	H359	H	0.048490	1.007737	0.996015
