data_Molecule from HDF5

_cell_length_a		16.316390
_cell_length_b		16.231069
_cell_length_c		16.295004
_cell_angle_alpha	89.893230
_cell_angle_beta	89.933781
_cell_angle_gamma	90.019834
_symmetry_space_group_name_H-M	'P 1'
_symmetry_Int_Tables_number		1

loop_
	_symmetry_equiv_pos_as_xyz
	x,y,z

loop_
	_atom_site_label
	_atom_site_type_symbol
	_atom_site_fract_x
	_atom_site_fract_y
	_atom_site_fract_z
	H0	H	0.400576	0.835878	0.715138
	H1	H	0.598381	0.163760	0.714192
	H2	H	0.596988	0.835435	0.287716
	H3	H	0.403087	0.164155	0.287151
	H4	H	0.714554	0.402396	0.837103
	H5	H	0.715024	0.598877	0.163930
	H6	H	0.286278	0.598386	0.836352
	H7	H	0.285973	0.402320	0.164282
	H8	H	0.835983	0.713954	0.401979
	H9	H	0.163631	0.714254	0.595679
	H10	H	0.836130	0.285699	0.598031
	H11	H	0.163435	0.285716	0.402466
	H12	H	0.836782	0.400693	0.715467
	H13	H	0.163533	0.597356	0.712688
	H14	H	0.836896	0.599002	0.283668
	H15	H	0.163144	0.402051	0.285239
	H16	H	0.403508	0.713053	0.835442
	H17	H	0.597530	0.714189	0.164058
	H18	H	0.597065	0.287137	0.835721
	H19	H	0.402280	0.285804	0.164797
	H20	H	0.713483	0.836216	0.402812
	H21	H	0.713798	0.164032	0.598644
	H22	H	0.284051	0.836605	0.599798
	H23	H	0.285493	0.164024	0.401096
	H24	H	0.901386	0.336554	0.215132
	H25	H	0.096656	0.664465	0.212170
	H26	H	0.097158	0.335620	0.787275
	H27	H	0.902146	0.664421	0.786332
	H28	H	0.215114	0.901632	0.337090
	H29	H	0.215809	0.099708	0.663355
	H30	H	0.784920	0.099951	0.336624
	H31	H	0.785359	0.901420	0.663130
	H32	H	0.336456	0.214077	0.902515
	H33	H	0.664176	0.213133	0.097375
	H34	H	0.336062	0.786062	0.097249
	H35	H	0.663458	0.786032	0.902538
	H36	H	0.336506	0.900356	0.215815
	H37	H	0.664233	0.096092	0.212592
	H38	H	0.336517	0.098908	0.784915
	H39	H	0.663053	0.900979	0.785210
	H40	H	0.903090	0.213939	0.336211
	H41	H	0.097149	0.214135	0.663942
	H42	H	0.096387	0.788655	0.334828
	H43	H	0.902909	0.786710	0.662871
	H44	H	0.214028	0.335883	0.902048
	H45	H	0.213595	0.664450	0.097640
	H46	H	0.786254	0.335665	0.099291
	H47	H	0.785509	0.663696	0.901518
	H48	H	0.414646	0.118514	0.607314
	H49	H	0.587414	0.882746	0.598867
	H50	H	0.598508	0.119533	0.402380
	H51	H	0.410895	0.883130	0.404277
	H52	H	0.599178	0.406357	0.118456
	H53	H	0.588536	0.599391	0.883071
	H54	H	0.404986	0.596474	0.118057
	H55	H	0.409988	0.407369	0.884883
	H56	H	0.118521	0.595034	0.400214
	H57	H	0.883351	0.595089	0.594100
	H58	H	0.111803	0.418098	0.589109
	H59	H	0.887627	0.409123	0.417948
	H60	H	0.120477	0.405575	0.605789
	H61	H	0.882946	0.593498	0.592566
	H62	H	0.115462	0.598556	0.410364
	H63	H	0.883658	0.416246	0.399893
	H64	H	0.403809	0.589668	0.116480
	H65	H	0.600884	0.592325	0.882229
	H66	H	0.591253	0.409722	0.115393
	H67	H	0.406179	0.403529	0.883114
	H68	H	0.588884	0.117648	0.402765
	H69	H	0.591785	0.884730	0.585707
	H70	H	0.416083	0.110384	0.581059
	H71	H	0.406395	0.883976	0.412317
	H72	H	0.894049	0.621719	0.095185
	H73	H	0.091026	0.382553	0.095913
	H74	H	0.094039	0.616854	0.907308
	H75	H	0.913788	0.383483	0.901866
	H76	H	0.083505	0.915992	0.610474
	H77	H	0.099743	0.088349	0.383747
	H78	H	0.900292	0.092548	0.618200
	H79	H	0.909307	0.905997	0.382967
	H80	H	0.615709	0.091788	0.906908
	H81	H	0.380523	0.094199	0.101764
	H82	H	0.616979	0.905560	0.093119
	H83	H	0.381888	0.902995	0.904278
	H84	H	0.615673	0.908268	0.093243
	H85	H	0.382983	0.099555	0.089973
	H86	H	0.616264	0.093080	0.904931
	H87	H	0.384211	0.906386	0.910728
	H88	H	0.908826	0.087555	0.613955
	H89	H	0.086513	0.090068	0.387180
	H90	H	0.088442	0.893544	0.619263
	H91	H	0.902963	0.905028	0.380738
	H92	H	0.094759	0.617812	0.905676
	H93	H	0.093065	0.384167	0.089882
	H94	H	0.916963	0.616843	0.103052
	H95	H	0.908457	0.386245	0.915276
	H96	H	0.392213	0.121008	0.590655
	H97	H	0.600673	0.880220	0.595199
	H98	H	0.594335	0.116150	0.410653
	H99	H	0.401868	0.880401	0.405120
	H100	H	0.591792	0.401050	0.118098
	H101	H	0.589608	0.585918	0.887754
	H102	H	0.409496	0.592391	0.114720
	H103	H	0.403974	0.409109	0.883986
	H104	H	0.113567	0.587990	0.406855
	H105	H	0.882845	0.592680	0.594493
	H106	H	0.116951	0.396228	0.585818
	H107	H	0.879561	0.397635	0.403989
	H108	H	0.910180	0.612459	0.078861
	H109	H	0.096970	0.381722	0.094049
	H110	H	0.092598	0.617087	0.906017
	H111	H	0.899750	0.379863	0.905592
	H112	H	0.106318	0.910929	0.618957
	H113	H	0.093379	0.100371	0.381538
	H114	H	0.909159	0.097871	0.616817
	H115	H	0.904963	0.910988	0.383807
	H116	H	0.616459	0.093462	0.907375
	H117	H	0.386144	0.086938	0.092044
	H118	H	0.617210	0.907155	0.095751
	H119	H	0.384095	0.911006	0.904430
	C120	C	0.378749	0.008110	0.621886
	C121	C	0.621272	0.991530	0.621571
	C122	C	0.621722	0.009003	0.377979
	C123	C	0.378418	0.991271	0.378885
	C124	C	0.621957	0.377910	0.009043
	C125	C	0.621872	0.621393	0.992235
	C126	C	0.378385	0.621231	0.008122
	C127	C	0.378355	0.378133	0.992200
	C128	C	0.007861	0.622166	0.377409
	C129	C	0.991327	0.621890	0.621237
	C130	C	0.008132	0.378339	0.621608
	C131	C	0.991585	0.378677	0.378325
	C132	C	0.878920	0.508319	0.121186
	C133	C	0.121372	0.491370	0.121203
	C134	C	0.121891	0.508678	0.878347
	C135	C	0.878783	0.491703	0.878868
	C136	C	0.121471	0.878528	0.507956
	C137	C	0.121877	0.121781	0.491854
	C138	C	0.878240	0.121418	0.508464
	C139	C	0.877940	0.878659	0.490746
	C140	C	0.508066	0.121216	0.878333
	C141	C	0.491950	0.121166	0.122019
	C142	C	0.508086	0.878407	0.122096
	C143	C	0.491479	0.878215	0.878075
	C144	C	0.380860	0.884619	0.676858
	C145	C	0.618595	0.114848	0.676365
	C146	C	0.618134	0.884724	0.324464
	C147	C	0.382112	0.115393	0.324573
	C148	C	0.677015	0.380934	0.885699
	C149	C	0.676978	0.619152	0.115191
	C150	C	0.324118	0.618838	0.884973
	C151	C	0.323678	0.381167	0.115465
	C152	C	0.884780	0.676770	0.380433
	C153	C	0.114675	0.676453	0.617222
	C154	C	0.884804	0.323791	0.618334
	C155	C	0.114687	0.323823	0.381443
	C156	C	0.885003	0.380970	0.676493
	C157	C	0.114876	0.618635	0.675340
	C158	C	0.885152	0.619294	0.322289
	C159	C	0.114611	0.381286	0.323255
	C160	C	0.382117	0.675953	0.884659
	C161	C	0.618776	0.676349	0.115259
	C162	C	0.618504	0.323996	0.885242
	C163	C	0.381644	0.323739	0.115821
	C164	C	0.675485	0.885049	0.382075
	C165	C	0.675932	0.115057	0.618652
	C166	C	0.323330	0.884789	0.619349
	C167	C	0.323932	0.115036	0.381447
	C168	C	0.881153	0.385172	0.176885
	C169	C	0.118118	0.615449	0.175170
	C170	C	0.117984	0.384626	0.824565
	C171	C	0.881180	0.615120	0.823624
	C172	C	0.176589	0.881645	0.385333
	C173	C	0.177252	0.119762	0.615062
	C174	C	0.823450	0.119648	0.385123
	C175	C	0.823551	0.881337	0.614134
	C176	C	0.385061	0.175984	0.881839
	C177	C	0.615343	0.175251	0.117999
	C178	C	0.385023	0.823377	0.118743
	C179	C	0.614661	0.823532	0.881457
	C180	C	0.385141	0.880626	0.177069
	C181	C	0.615276	0.117853	0.175872
	C182	C	0.385294	0.118987	0.823280
	C183	C	0.614406	0.880230	0.823056
	C184	C	0.881781	0.176556	0.385191
	C185	C	0.118563	0.176562	0.615210
	C186	C	0.117801	0.825134	0.384368
	C187	C	0.882039	0.824454	0.614250
	C188	C	0.176171	0.384964	0.881432
	C189	C	0.176155	0.615250	0.118139
	C190	C	0.824089	0.384818	0.119199
	C191	C	0.823348	0.614843	0.881031
	C192	C	0.401068	0.094424	0.599518
	C193	C	0.599586	0.904890	0.599657
	C194	C	0.600340	0.095448	0.399050
	C195	C	0.399964	0.904760	0.400620
	C196	C	0.600421	0.399403	0.095154
	C197	C	0.599728	0.599182	0.906473
	C198	C	0.399753	0.599344	0.094294
	C199	C	0.400319	0.400162	0.906225
	C200	C	0.093628	0.600242	0.399363
	C201	C	0.905501	0.600011	0.600187
	C202	C	0.094165	0.400269	0.600071
	C203	C	0.905932	0.401065	0.400714
	C204	C	0.900581	0.594657	0.099005
	C205	C	0.099943	0.405122	0.099757
	C206	C	0.100256	0.595046	0.900091
	C207	C	0.900926	0.405247	0.900953
	C208	C	0.099340	0.900381	0.594105
	C209	C	0.099822	0.099469	0.406373
	C210	C	0.899583	0.099111	0.594369
	C211	C	0.899428	0.900743	0.404609
	C212	C	0.594008	0.099205	0.899962
	C213	C	0.405463	0.099784	0.100862
	C214	C	0.594293	0.900425	0.100462
	C215	C	0.405533	0.900296	0.899988
	Zn216	Zn	0.500396	-0.000401	0.749536
	Zn217	Zn	0.499979	-0.000308	0.250749
	Zn218	Zn	0.750552	0.499637	0.000554
	Zn219	Zn	0.249868	0.499915	0.000020
	Zn220	Zn	-0.000422	0.750651	0.499133
	Zn221	Zn	-0.000084	0.249880	0.500276
	Zn222	Zn	0.000121	0.499920	0.750138
	Zn223	Zn	-0.000016	0.500078	0.249098
	Zn224	Zn	0.499896	0.750236	0.000096
	Zn225	Zn	0.500105	0.249841	0.000300
	Zn226	Zn	0.749518	0.000613	0.499438
	Zn227	Zn	0.250607	-0.000082	0.500839
	N228	N	0.414530	0.962365	0.678461
	N229	N	0.585454	0.036935	0.677943
	N230	N	0.585006	0.962699	0.322090
	N231	N	0.415289	0.037439	0.322872
	N232	N	0.679106	0.413939	0.963521
	N233	N	0.679047	0.585750	0.037480
	N234	N	0.321656	0.585674	0.962643
	N235	N	0.321263	0.413959	0.037413
	N236	N	0.961977	0.678274	0.414373
	N237	N	0.037027	0.678429	0.584224
	N238	N	0.962238	0.322170	0.584953
	N239	N	0.037267	0.322116	0.414978
	N240	N	0.962775	0.414172	0.678762
	N241	N	0.037272	0.585399	0.678070
	N242	N	0.962828	0.586305	0.320160
	N243	N	0.036966	0.414716	0.321229
	N244	N	0.415376	0.677561	0.962383
	N245	N	0.585287	0.678002	0.037787
	N246	N	0.585091	0.321977	0.962908
	N247	N	0.414907	0.321758	0.038293
	N248	N	0.677956	0.963246	0.414341
	N249	N	0.677544	0.037254	0.584937
	N250	N	0.322066	0.962603	0.585765
	N251	N	0.321749	0.036980	0.414631
	N252	N	0.914765	0.462995	0.177859
	N253	N	0.084678	0.537603	0.177063
	N254	N	0.084764	0.462637	0.822577
	N255	N	0.914960	0.537468	0.822139
	N256	N	0.178695	0.914346	0.463158
	N257	N	0.179383	0.086245	0.537510
	N258	N	0.821057	0.086365	0.462830
	N259	N	0.820948	0.914426	0.536314
	N260	N	0.462484	0.177609	0.915289
	N261	N	0.537542	0.177449	0.085295
	N262	N	0.462543	0.822084	0.085201
	N263	N	0.537197	0.822232	0.915237
	N264	N	0.462850	0.914066	0.179309
	N265	N	0.537525	0.084887	0.178490
	N266	N	0.462794	0.085367	0.821248
	N267	N	0.536813	0.913415	0.820963
	N268	N	0.915215	0.177671	0.462798
	N269	N	0.085088	0.178117	0.537700
	N270	N	0.084192	0.823159	0.461832
	N271	N	0.915034	0.822745	0.536485
	N272	N	0.178600	0.463052	0.913941
	N273	N	0.178110	0.537243	0.085072
	N274	N	0.822686	0.462416	0.085179
	N275	N	0.821742	0.536948	0.914680
