data_Molecule from HDF5

_cell_length_a		16.292750
_cell_length_b		16.254952
_cell_length_c		16.122315
_cell_angle_alpha	90.004206
_cell_angle_beta	90.010197
_cell_angle_gamma	89.612917
_symmetry_space_group_name_H-M	'P 1'
_symmetry_Int_Tables_number		1

loop_
	_symmetry_equiv_pos_as_xyz
	x,y,z

loop_
	_atom_site_label
	_atom_site_type_symbol
	_atom_site_fract_x
	_atom_site_fract_y
	_atom_site_fract_z
	H0	H	0.405559	0.830055	0.704676
	H1	H	0.596108	0.159410	0.706417
	H2	H	0.598559	0.829626	0.280477
	H3	H	0.402808	0.159527	0.281153
	H4	H	0.715736	0.395008	0.827607
	H5	H	0.713397	0.593347	0.158276
	H6	H	0.285419	0.594606	0.828241
	H7	H	0.287893	0.395692	0.157454
	H8	H	0.838355	0.711395	0.394096
	H9	H	0.164991	0.707540	0.593286
	H10	H	0.837403	0.280772	0.592750
	H11	H	0.164189	0.277997	0.393008
	H12	H	0.836095	0.399651	0.705487
	H13	H	0.164739	0.590230	0.706955
	H14	H	0.837163	0.594615	0.279091
	H15	H	0.165211	0.396690	0.279493
	H16	H	0.401688	0.708345	0.827497
	H17	H	0.597754	0.708054	0.157655
	H18	H	0.599611	0.279904	0.827154
	H19	H	0.403466	0.282624	0.157802
	H20	H	0.717945	0.831193	0.393008
	H21	H	0.714577	0.158408	0.592455
	H22	H	0.287803	0.830483	0.593015
	H23	H	0.284047	0.157660	0.393071
	H24	H	0.904616	0.330713	0.206033
	H25	H	0.096223	0.659540	0.205512
	H26	H	0.098197	0.329589	0.780899
	H27	H	0.903637	0.659539	0.780474
	H28	H	0.214870	0.895022	0.328290
	H29	H	0.213088	0.091740	0.658940
	H30	H	0.785853	0.095498	0.328182
	H31	H	0.787949	0.896702	0.657819
	H32	H	0.336835	0.210863	0.894473
	H33	H	0.664324	0.208537	0.092828
	H34	H	0.335855	0.781609	0.091022
	H35	H	0.662406	0.777574	0.891752
	H36	H	0.335904	0.898753	0.206735
	H37	H	0.664213	0.091098	0.206791
	H38	H	0.335644	0.093604	0.779793
	H39	H	0.663381	0.896774	0.779960
	H40	H	0.900422	0.210340	0.328406
	H41	H	0.097425	0.207303	0.658497
	H42	H	0.100442	0.779730	0.328688
	H43	H	0.905333	0.784036	0.658494
	H44	H	0.217448	0.331010	0.893042
	H45	H	0.215065	0.658394	0.093381
	H46	H	0.785901	0.331837	0.093896
	H47	H	0.784141	0.658504	0.892036
	H48	H	0.408486	0.109984	0.581373
	H49	H	0.594305	0.876239	0.591994
	H50	H	0.591346	0.108987	0.405906
	H51	H	0.400283	0.873677	0.393989
	H52	H	0.606269	0.396374	0.115107
	H53	H	0.598951	0.579121	0.874415
	H54	H	0.407328	0.579861	0.108624
	H55	H	0.413541	0.403891	0.875648
	H56	H	0.114243	0.585724	0.412341
	H57	H	0.882105	0.592828	0.590129
	H58	H	0.117758	0.401229	0.589142
	H59	H	0.886643	0.407124	0.400632
	H60	H	0.118624	0.396106	0.586247
	H61	H	0.884877	0.592523	0.581878
	H62	H	0.117120	0.577635	0.391634
	H63	H	0.882189	0.399096	0.394795
	H64	H	0.414217	0.592895	0.110130
	H65	H	0.583623	0.586441	0.878026
	H66	H	0.593391	0.416247	0.105875
	H67	H	0.405882	0.398996	0.872711
	H68	H	0.600990	0.113361	0.399931
	H69	H	0.591067	0.880633	0.580808
	H70	H	0.400384	0.113337	0.583835
	H71	H	0.417631	0.878967	0.396392
	H72	H	0.912297	0.608156	0.079498
	H73	H	0.100127	0.376520	0.085360
	H74	H	0.092829	0.612437	0.899720
	H75	H	0.902047	0.377793	0.906622
	H76	H	0.095708	0.899834	0.612108
	H77	H	0.085452	0.086099	0.377898
	H78	H	0.900201	0.087690	0.613156
	H79	H	0.913884	0.903921	0.376529
	H80	H	0.616172	0.090366	0.905600
	H81	H	0.382082	0.094138	0.086067
	H82	H	0.617924	0.893254	0.085050
	H83	H	0.383298	0.906552	0.896417
	H84	H	0.614435	0.902892	0.079903
	H85	H	0.384787	0.088991	0.083094
	H86	H	0.614986	0.080876	0.899145
	H87	H	0.379461	0.897217	0.894763
	H88	H	0.910885	0.082652	0.608316
	H89	H	0.096399	0.092278	0.372853
	H90	H	0.096465	0.900364	0.612130
	H91	H	0.908280	0.899129	0.372691
	H92	H	0.094572	0.611618	0.901492
	H93	H	0.093367	0.377310	0.089629
	H94	H	0.897646	0.614459	0.082846
	H95	H	0.904511	0.375377	0.893100
	H96	H	0.406651	0.113421	0.590225
	H97	H	0.602089	0.876580	0.582881
	H98	H	0.589605	0.112566	0.394530
	H99	H	0.405580	0.879476	0.409776
	H100	H	0.582334	0.394366	0.108693
	H101	H	0.596499	0.594930	0.871125
	H102	H	0.400597	0.591339	0.113304
	H103	H	0.405919	0.407571	0.875233
	H104	H	0.123043	0.597827	0.396886
	H105	H	0.885143	0.585749	0.586673
	H106	H	0.116700	0.401175	0.584097
	H107	H	0.884496	0.398793	0.405302
	H108	H	0.908468	0.614784	0.094645
	H109	H	0.094026	0.379911	0.082500
	H110	H	0.095083	0.612042	0.898593
	H111	H	0.915137	0.379535	0.901363
	H112	H	0.095259	0.900983	0.611891
	H113	H	0.096853	0.079366	0.376462
	H114	H	0.910629	0.094409	0.611708
	H115	H	0.906062	0.906361	0.375405
	H116	H	0.618672	0.090590	0.894628
	H117	H	0.382501	0.087957	0.089718
	H118	H	0.617542	0.902830	0.090458
	H119	H	0.383405	0.899620	0.904691
	C120	C	0.378310	0.003273	0.613936
	C121	C	0.622819	0.986200	0.614409
	C122	C	0.622701	0.003096	0.371347
	C123	C	0.378759	0.986028	0.371383
	C124	C	0.622690	0.373055	0.001222
	C125	C	0.621488	0.615867	0.983997
	C126	C	0.378956	0.616482	0.001435
	C127	C	0.379824	0.374452	0.983573
	C128	C	0.009946	0.616556	0.371513
	C129	C	0.992659	0.616945	0.614992
	C130	C	0.009546	0.372175	0.614991
	C131	C	0.992375	0.372575	0.370833
	C132	C	0.878405	0.503990	0.114646
	C133	C	0.123043	0.486235	0.114506
	C134	C	0.122662	0.503236	0.871293
	C135	C	0.878957	0.486386	0.871546
	C136	C	0.124077	0.871894	0.502596
	C137	C	0.121136	0.114665	0.484822
	C138	C	0.878672	0.117106	0.501995
	C139	C	0.880801	0.874519	0.484152
	C140	C	0.508474	0.116669	0.871097
	C141	C	0.491801	0.117358	0.114710
	C142	C	0.507963	0.872776	0.113921
	C143	C	0.490584	0.872771	0.870711
	C144	C	0.383542	0.879258	0.668110
	C145	C	0.617928	0.110173	0.669063
	C146	C	0.619972	0.879148	0.316849
	C147	C	0.381717	0.109902	0.317579
	C148	C	0.677723	0.375196	0.876745
	C149	C	0.676387	0.613840	0.108453
	C150	C	0.323601	0.614358	0.877444
	C151	C	0.325428	0.375966	0.108190
	C152	C	0.887074	0.673062	0.373625
	C153	C	0.116000	0.670202	0.613097
	C154	C	0.886029	0.318731	0.612650
	C155	C	0.115566	0.316252	0.372797
	C156	C	0.885455	0.377584	0.669009
	C157	C	0.115944	0.611873	0.669674
	C158	C	0.886339	0.614775	0.316780
	C159	C	0.116068	0.375293	0.316380
	C160	C	0.381475	0.670879	0.877007
	C161	C	0.618786	0.670821	0.108343
	C162	C	0.620250	0.317887	0.876601
	C163	C	0.383036	0.319968	0.108309
	C164	C	0.679071	0.879831	0.373043
	C165	C	0.676902	0.109553	0.612697
	C166	C	0.324985	0.879640	0.612476
	C167	C	0.322192	0.108781	0.373092
	C168	C	0.882631	0.380244	0.169534
	C169	C	0.118423	0.610232	0.168972
	C170	C	0.119361	0.379115	0.817442
	C171	C	0.882264	0.610364	0.817508
	C172	C	0.177917	0.874543	0.377741
	C173	C	0.175694	0.112360	0.609424
	C174	C	0.823611	0.115554	0.377545
	C175	C	0.826037	0.876859	0.608618
	C176	C	0.385453	0.172921	0.873637
	C177	C	0.615449	0.170936	0.112359
	C178	C	0.384708	0.819132	0.111470
	C179	C	0.613673	0.816508	0.872788
	C180	C	0.384661	0.877459	0.168774
	C181	C	0.615343	0.112792	0.169445
	C182	C	0.384988	0.114499	0.816523
	C183	C	0.614277	0.875396	0.816711
	C184	C	0.880539	0.172683	0.377618
	C185	C	0.118232	0.169637	0.609271
	C186	C	0.121392	0.817063	0.378092
	C187	C	0.884187	0.820603	0.608993
	C188	C	0.178826	0.379946	0.873054
	C189	C	0.177263	0.609706	0.113033
	C190	C	0.823760	0.380890	0.113648
	C191	C	0.822994	0.609712	0.873018
	C192	C	0.398956	0.089808	0.591745
	C193	C	0.602088	0.900163	0.591882
	C194	C	0.600510	0.089257	0.393547
	C195	C	0.401292	0.899411	0.393473
	C196	C	0.600564	0.395612	0.087519
	C197	C	0.599581	0.593354	0.897021
	C198	C	0.400979	0.594491	0.088513
	C199	C	0.401883	0.396841	0.897067
	C200	C	0.095926	0.593548	0.393734
	C201	C	0.906275	0.596359	0.592759
	C202	C	0.095520	0.393066	0.592889
	C203	C	0.906711	0.395005	0.393651
	C204	C	0.899853	0.590176	0.092283
	C205	C	0.102055	0.400138	0.092311
	C206	C	0.100593	0.589780	0.893470
	C207	C	0.900848	0.399915	0.893877
	C208	C	0.102268	0.893946	0.589591
	C209	C	0.099223	0.092637	0.398187
	C210	C	0.900694	0.094756	0.588686
	C211	C	0.902822	0.896679	0.397308
	C212	C	0.594464	0.094015	0.893376
	C213	C	0.405633	0.096650	0.092832
	C214	C	0.594246	0.893733	0.091813
	C215	C	0.404325	0.894706	0.892432
	Zn216	Zn	0.499574	-0.005459	0.742104
	Zn217	Zn	0.500271	-0.005245	0.243030
	Zn218	Zn	0.750237	0.495099	-0.007401
	Zn219	Zn	0.251558	0.494648	-0.007100
	Zn220	Zn	0.001674	0.745655	0.493383
	Zn221	Zn	0.000424	0.243757	0.492961
	Zn222	Zn	0.000384	0.494545	0.742996
	Zn223	Zn	0.001238	0.494960	0.242688
	Zn224	Zn	0.499762	0.744064	-0.007314
	Zn225	Zn	0.500338	0.245927	-0.007298
	Zn226	Zn	0.751794	-0.005134	0.492552
	Zn227	Zn	0.250268	-0.006092	0.493157
	N228	N	0.416002	0.957219	0.669144
	N229	N	0.585306	0.032304	0.670574
	N230	N	0.585480	0.956747	0.315713
	N231	N	0.416207	0.032260	0.316453
	N232	N	0.679320	0.408964	0.955049
	N233	N	0.678035	0.580354	0.029975
	N234	N	0.321853	0.581252	0.955988
	N235	N	0.323406	0.409366	0.029799
	N236	N	0.964874	0.674224	0.406956
	N237	N	0.038176	0.673537	0.579873
	N238	N	0.963889	0.315425	0.579710
	N239	N	0.037611	0.314375	0.405920
	N240	N	0.963216	0.410021	0.670708
	N241	N	0.038224	0.579326	0.670844
	N242	N	0.963731	0.580176	0.315371
	N243	N	0.038729	0.409498	0.314947
	N244	N	0.415059	0.672360	0.955294
	N245	N	0.585584	0.672419	0.029903
	N246	N	0.586602	0.316527	0.954825
	N247	N	0.416237	0.318699	0.029900
	N248	N	0.681141	0.957865	0.405823
	N249	N	0.680258	0.031561	0.579632
	N250	N	0.321955	0.957665	0.579409
	N251	N	0.320461	0.030587	0.405745
	N252	N	0.915837	0.457793	0.170414
	N253	N	0.085344	0.532637	0.170037
	N254	N	0.085397	0.456929	0.815941
	N255	N	0.916158	0.532630	0.816219
	N256	N	0.179854	0.907678	0.456252
	N257	N	0.177442	0.078579	0.531169
	N258	N	0.822119	0.081854	0.455829
	N259	N	0.823906	0.909706	0.529890
	N260	N	0.463216	0.174382	0.906778
	N261	N	0.537491	0.174305	0.079493
	N262	N	0.462346	0.816338	0.078147
	N263	N	0.535775	0.814837	0.905472
	N264	N	0.462513	0.909906	0.170623
	N265	N	0.537624	0.080184	0.171092
	N266	N	0.462327	0.080019	0.815116
	N267	N	0.536857	0.909957	0.815315
	N268	N	0.914113	0.173675	0.455858
	N269	N	0.085117	0.171371	0.530783
	N270	N	0.088377	0.815355	0.456539
	N271	N	0.917519	0.819168	0.530550
	N272	N	0.180939	0.458158	0.905726
	N273	N	0.180435	0.531555	0.080095
	N274	N	0.820945	0.458906	0.080309
	N275	N	0.820664	0.531476	0.905606
	O276	O	0.945993	0.928633	-0.008093
	H277	H	0.937715	0.926810	-0.000229
	H278	H	0.946182	0.924961	-0.013070
	O279	O	0.566280	-0.472789	1.462523
	H280	H	0.555024	-0.469853	1.461516
	H281	H	0.564809	-0.464637	1.454035
	O282	O	-0.020131	0.127542	-0.021088
	H283	H	-0.010011	0.125285	-0.027590
	H284	H	-0.021262	0.135455	-0.026143
	O285	O	0.568756	0.525541	0.497614
	H286	H	0.569447	0.521137	0.490263
	H287	H	0.574145	0.529918	0.492878
	O288	O	0.019266	-0.034926	-0.006569
	H289	H	0.022520	-0.036719	-0.002445
	H290	H	0.017240	-0.037223	-0.017288
	O291	O	-0.028847	1.034563	0.076435
	H292	H	-0.027039	1.039633	0.074321
	H293	H	-0.028612	1.036979	0.075171
	O294	O	0.536813	1.480179	-0.550707
	H295	H	0.532037	1.478014	-0.548392
	H296	H	0.541447	1.489499	-0.552539
	O297	O	0.459380	0.498971	0.453998
	H298	H	0.452772	0.495958	0.453839
	H299	H	0.465744	0.506799	0.445507
	O300	O	0.562864	0.441055	0.497801
	H301	H	0.575038	0.447869	0.501218
	H302	H	0.571865	0.440867	0.490318
	O303	O	0.907658	0.013643	1.006091
	H304	H	0.905026	0.014209	1.011603
	H305	H	0.909812	0.017753	1.004055
	O306	O	-0.013650	1.021612	1.099024
	H307	H	-0.010673	1.021960	1.098530
	H308	H	-0.010462	1.031657	1.094347
	O309	O	-0.006965	1.062444	1.009627
	H310	H	-0.006147	1.070756	1.010357
	H311	H	-0.008737	1.057866	1.023487
	O312	O	-0.080789	-0.046580	0.963430
	H313	H	-0.096637	-0.054272	0.958013
	H314	H	-0.080322	-0.056173	0.975448
	O315	O	0.507725	0.465232	0.486758
	H316	H	0.508891	0.465292	0.489616
	H317	H	0.504653	0.461330	0.480133
	O318	O	-0.030405	-0.006956	0.982987
	H319	H	-0.028904	-0.009537	0.975890
	H320	H	-0.026173	-0.000317	0.986669
	O321	O	-0.000775	0.941735	1.013943
	H322	H	-0.004539	0.941597	1.010475
	H323	H	0.001422	0.944754	1.023883
	O324	O	0.992109	-0.020593	0.948984
	H325	H	0.989378	-0.014983	0.950760
	H326	H	0.979351	-0.017328	0.955527
	O327	O	0.974352	1.017384	0.948232
	H328	H	0.969513	1.020628	0.947112
	H329	H	0.973824	1.014587	0.939700
	O330	O	0.609445	0.509358	0.457764
	H331	H	0.610755	0.517956	0.459144
	H332	H	0.614923	0.528528	0.462011
	O333	O	0.525916	0.529241	0.442270
	H334	H	0.525842	0.524133	0.442039
	H335	H	0.525908	0.525299	0.446581
	O336	O	0.531089	0.494978	0.461813
	H337	H	0.529407	0.498386	0.466890
	H338	H	0.523693	0.496140	0.462568
	O339	O	0.479361	0.482987	0.478058
	H340	H	0.475842	0.475281	0.480264
	H341	H	0.477955	0.483330	0.480680
	O342	O	0.481314	0.479802	0.526158
	H343	H	0.488746	0.476566	0.536247
	H344	H	0.484334	0.477769	0.530186
	O345	O	0.436543	0.479770	0.444564
	H346	H	0.435521	0.469293	0.438899
	H347	H	0.439411	0.473188	0.434442
