data_Molecule from HDF5

_cell_length_a		16.209634
_cell_length_b		16.150232
_cell_length_c		16.350206
_cell_angle_alpha	89.756469
_cell_angle_beta	90.299455
_cell_angle_gamma	89.912089
_symmetry_space_group_name_H-M	'P 1'
_symmetry_Int_Tables_number		1

loop_
	_symmetry_equiv_pos_as_xyz
	x,y,z

loop_
	_atom_site_label
	_atom_site_type_symbol
	_atom_site_fract_x
	_atom_site_fract_y
	_atom_site_fract_z
	H0	H	0.398946	0.837178	0.712051
	H1	H	0.599228	0.165892	0.712262
	H2	H	0.597436	0.836308	0.284824
	H3	H	0.397679	0.166296	0.280877
	H4	H	0.711763	0.403133	0.834053
	H5	H	0.715032	0.599982	0.159612
	H6	H	0.280906	0.601604	0.835653
	H7	H	0.283831	0.401503	0.161113
	H8	H	0.833103	0.716390	0.399308
	H9	H	0.163495	0.712355	0.593134
	H10	H	0.833226	0.288520	0.595690
	H11	H	0.161878	0.289308	0.401694
	H12	H	0.833455	0.402503	0.712304
	H13	H	0.161321	0.603338	0.714341
	H14	H	0.834244	0.603555	0.280600
	H15	H	0.160711	0.401820	0.283401
	H16	H	0.396703	0.717689	0.835569
	H17	H	0.596412	0.714049	0.161148
	H18	H	0.593983	0.288382	0.833654
	H19	H	0.399982	0.284843	0.160376
	H20	H	0.711348	0.836210	0.402222
	H21	H	0.710131	0.167196	0.594885
	H22	H	0.286048	0.836365	0.594935
	H23	H	0.283383	0.166516	0.397924
	H24	H	0.897718	0.338489	0.212767
	H25	H	0.098040	0.666731	0.212592
	H26	H	0.097578	0.338089	0.783899
	H27	H	0.898733	0.667007	0.783425
	H28	H	0.211564	0.903182	0.334715
	H29	H	0.214841	0.100025	0.660957
	H30	H	0.781753	0.102349	0.334775
	H31	H	0.783870	0.902777	0.661598
	H32	H	0.332669	0.215325	0.898355
	H33	H	0.662826	0.214598	0.094977
	H34	H	0.333298	0.789261	0.093707
	H35	H	0.662199	0.788536	0.901720
	H36	H	0.334496	0.899878	0.212749
	H37	H	0.661361	0.101713	0.213706
	H38	H	0.334568	0.102348	0.779862
	H39	H	0.661792	0.901711	0.783246
	H40	H	0.897707	0.218788	0.335382
	H41	H	0.095508	0.214324	0.662182
	H42	H	0.094361	0.789597	0.334190
	H43	H	0.901737	0.787376	0.661352
	H44	H	0.209598	0.336980	0.902260
	H45	H	0.211756	0.666664	0.096595
	H46	H	0.787320	0.336287	0.094247
	H47	H	0.783043	0.666626	0.898616
	H48	H	0.413692	0.119282	0.593887
	H49	H	0.596028	0.883938	0.587582
	H50	H	0.586933	0.116974	0.407282
	H51	H	0.408992	0.882955	0.394584
	H52	H	0.591866	0.409529	0.113505
	H53	H	0.582213	0.596047	0.883081
	H54	H	0.398811	0.596895	0.117318
	H55	H	0.398775	0.410339	0.880528
	H56	H	0.112111	0.588786	0.407149
	H57	H	0.878545	0.596089	0.593948
	H58	H	0.111407	0.414146	0.583972
	H59	H	0.880498	0.405300	0.409799
	H60	H	0.116067	0.414894	0.601410
	H61	H	0.881254	0.596553	0.587071
	H62	H	0.117469	0.595206	0.397240
	H63	H	0.882971	0.419102	0.407161
	H64	H	0.405185	0.587051	0.112283
	H65	H	0.594504	0.601965	0.877632
	H66	H	0.590653	0.406703	0.113112
	H67	H	0.406033	0.413311	0.883119
	H68	H	0.592596	0.120660	0.404422
	H69	H	0.590179	0.882085	0.596330
	H70	H	0.408651	0.115667	0.580507
	H71	H	0.410226	0.887464	0.411284
	H72	H	0.898594	0.621162	0.086375
	H73	H	0.082088	0.387463	0.092635
	H74	H	0.088081	0.620135	0.902431
	H75	H	0.901087	0.381037	0.900169
	H76	H	0.098519	0.914164	0.615032
	H77	H	0.085739	0.095288	0.383710
	H78	H	0.907219	0.098777	0.614135
	H79	H	0.911728	0.894743	0.379168
	H80	H	0.615373	0.091541	0.900203
	H81	H	0.379211	0.093681	0.094782
	H82	H	0.612424	0.909450	0.082832
	H83	H	0.380855	0.911305	0.902559
	H84	H	0.615004	0.916263	0.098535
	H85	H	0.381145	0.097546	0.085127
	H86	H	0.616650	0.099362	0.902656
	H87	H	0.379717	0.908921	0.902227
	H88	H	0.899880	0.096592	0.616351
	H89	H	0.091872	0.100625	0.380244
	H90	H	0.085018	0.909144	0.611341
	H91	H	0.886266	0.911876	0.378332
	H92	H	0.087003	0.619885	0.906392
	H93	H	0.093906	0.385269	0.086118
	H94	H	0.907385	0.621930	0.096772
	H95	H	0.909784	0.384837	0.901501
	H96	H	0.399247	0.122005	0.590596
	H97	H	0.585310	0.885314	0.588894
	H98	H	0.587064	0.118666	0.400381
	H99	H	0.395825	0.881522	0.405716
	H100	H	0.593389	0.406973	0.114135
	H101	H	0.594299	0.588094	0.882132
	H102	H	0.410717	0.598907	0.114150
	H103	H	0.405400	0.405790	0.881379
	H104	H	0.115910	0.601454	0.408675
	H105	H	0.882043	0.590698	0.590473
	H106	H	0.117509	0.399258	0.592630
	H107	H	0.878095	0.411035	0.396642
	H108	H	0.911401	0.616203	0.084624
	H109	H	0.092636	0.381977	0.098658
	H110	H	0.091559	0.620618	0.905749
	H111	H	0.903101	0.384971	0.908793
	H112	H	0.095101	0.899945	0.616849
	H113	H	0.093585	0.092088	0.381998
	H114	H	0.905086	0.091093	0.612509
	H115	H	0.912373	0.924771	0.388810
	H116	H	0.614102	0.094293	0.908208
	H117	H	0.383306	0.086907	0.086712
	H118	H	0.618739	0.899617	0.095917
	H119	H	0.380793	0.910016	0.903828
	C120	C	0.377915	0.010130	0.617365
	C121	C	0.619399	0.993006	0.619190
	C122	C	0.618206	0.009576	0.376450
	C123	C	0.375824	0.992833	0.374808
	C124	C	0.619672	0.379640	0.005829
	C125	C	0.619713	0.623296	0.988946
	C126	C	0.375209	0.623795	0.006945
	C127	C	0.375524	0.379861	0.989404
	C128	C	0.006541	0.624162	0.375283
	C129	C	0.989311	0.623228	0.619017
	C130	C	0.006303	0.380486	0.620472
	C131	C	0.988777	0.381928	0.376499
	C132	C	0.876927	0.510841	0.118148
	C133	C	0.119062	0.493352	0.120579
	C134	C	0.117716	0.511078	0.877117
	C135	C	0.875899	0.492989	0.875494
	C136	C	0.120185	0.879622	0.506405
	C137	C	0.119793	0.124057	0.489622
	C138	C	0.875030	0.124705	0.506476
	C139	C	0.875904	0.880604	0.489853
	C140	C	0.506421	0.123643	0.874691
	C141	C	0.489592	0.122181	0.118077
	C142	C	0.506854	0.879434	0.120203
	C143	C	0.489116	0.880707	0.875636
	C144	C	0.379092	0.886313	0.673661
	C145	C	0.618222	0.116719	0.674184
	C146	C	0.616975	0.885537	0.322475
	C147	C	0.377470	0.116794	0.318900
	C148	C	0.673659	0.383072	0.882592
	C149	C	0.676104	0.620541	0.111398
	C150	C	0.319122	0.621723	0.884277
	C151	C	0.321269	0.381094	0.112141
	C152	C	0.882558	0.679454	0.377916
	C153	C	0.113724	0.676624	0.615221
	C154	C	0.882430	0.326174	0.616458
	C155	C	0.112723	0.326755	0.380350
	C156	C	0.882674	0.382480	0.674829
	C157	C	0.112480	0.622047	0.675317
	C158	C	0.883044	0.623157	0.319223
	C159	C	0.112129	0.382922	0.321853
	C160	C	0.376983	0.679342	0.884219
	C161	C	0.617303	0.677284	0.111917
	C162	C	0.615345	0.325928	0.882423
	C163	C	0.379182	0.323308	0.111867
	C164	C	0.673826	0.885529	0.380625
	C165	C	0.673724	0.117365	0.615910
	C166	C	0.323497	0.885581	0.614951
	C167	C	0.320712	0.117100	0.376983
	C168	C	0.878276	0.387461	0.174544
	C169	C	0.118032	0.617249	0.175321
	C170	C	0.116507	0.386882	0.822357
	C171	C	0.877777	0.617516	0.820506
	C172	C	0.173976	0.882724	0.383468
	C173	C	0.176187	0.120618	0.612320
	C174	C	0.819619	0.122754	0.383709
	C175	C	0.821546	0.882341	0.612737
	C176	C	0.382176	0.178064	0.877597
	C177	C	0.613492	0.177474	0.116018
	C178	C	0.382828	0.825254	0.115935
	C179	C	0.613016	0.825585	0.879905
	C180	C	0.383320	0.880563	0.174679
	C181	C	0.612665	0.121433	0.174979
	C182	C	0.383350	0.122232	0.818254
	C183	C	0.612938	0.882258	0.821462
	C184	C	0.877440	0.180432	0.383786
	C185	C	0.116789	0.177198	0.613089
	C186	C	0.115711	0.826176	0.383160
	C187	C	0.880104	0.825012	0.612717
	C188	C	0.172651	0.386591	0.880690
	C189	C	0.174107	0.617474	0.117160
	C190	C	0.823448	0.386248	0.115309
	C191	C	0.820909	0.617376	0.878118
	C192	C	0.400457	0.096675	0.594982
	C193	C	0.597049	0.906075	0.597307
	C194	C	0.595628	0.096352	0.397660
	C195	C	0.398336	0.906305	0.397380
	C196	C	0.598389	0.401292	0.091560
	C197	C	0.597050	0.601617	0.903197
	C198	C	0.398154	0.600985	0.092657
	C199	C	0.397049	0.402950	0.903755
	C200	C	0.092875	0.601784	0.397677
	C201	C	0.902917	0.601038	0.596949
	C202	C	0.092599	0.402886	0.599009
	C203	C	0.902830	0.404967	0.398196
	C204	C	0.899288	0.597610	0.095926
	C205	C	0.096303	0.406991	0.098862
	C206	C	0.095268	0.597583	0.898514
	C207	C	0.897956	0.406135	0.897103
	C208	C	0.099171	0.901333	0.592136
	C209	C	0.097109	0.102461	0.404309
	C210	C	0.897528	0.102224	0.592200
	C211	C	0.897220	0.903460	0.404257
	C212	C	0.592986	0.101636	0.897140
	C213	C	0.403468	0.099501	0.095449
	C214	C	0.593083	0.901802	0.098802
	C215	C	0.402783	0.903362	0.896792
	Zn216	Zn	0.498334	0.001769	0.746547
	Zn217	Zn	0.497702	0.000903	0.247303
	Zn218	Zn	0.748647	0.501055	-0.002807
	Zn219	Zn	0.246248	0.502024	-0.001348
	Zn220	Zn	-0.001559	0.751518	0.498122
	Zn221	Zn	-0.002507	0.253353	0.498091
	Zn222	Zn	-0.002431	0.502415	0.748070
	Zn223	Zn	-0.002765	0.502802	0.247529
	Zn224	Zn	0.497730	0.752508	-0.002062
	Zn225	Zn	0.497798	0.251098	-0.002920
	Zn226	Zn	0.746531	0.002446	0.498213
	Zn227	Zn	0.248928	0.001425	0.497190
	N228	N	0.412320	0.964538	0.675178
	N229	N	0.585392	0.038226	0.676421
	N230	N	0.583176	0.963753	0.319905
	N231	N	0.411038	0.038529	0.317544
	N232	N	0.676529	0.415591	0.960338
	N233	N	0.677702	0.587692	0.033894
	N234	N	0.317756	0.588013	0.961684
	N235	N	0.318768	0.415443	0.035091
	N236	N	0.960330	0.680221	0.412328
	N237	N	0.036130	0.677396	0.580953
	N238	N	0.960340	0.324634	0.583376
	N239	N	0.035022	0.326191	0.413953
	N240	N	0.960797	0.415486	0.677336
	N241	N	0.034030	0.589454	0.677725
	N242	N	0.961109	0.589850	0.317473
	N243	N	0.034164	0.416559	0.319400
	N244	N	0.411147	0.680588	0.961452
	N245	N	0.582625	0.678678	0.034877
	N246	N	0.582494	0.323678	0.959712
	N247	N	0.412147	0.322625	0.034423
	N248	N	0.674806	0.963845	0.413332
	N249	N	0.674547	0.039305	0.582373
	N250	N	0.322662	0.963627	0.580621
	N251	N	0.319573	0.039057	0.411159
	N252	N	0.910960	0.466010	0.176307
	N253	N	0.084306	0.539094	0.177333
	N254	N	0.083302	0.465241	0.820016
	N255	N	0.911200	0.539225	0.818652
	N256	N	0.176854	0.915299	0.460949
	N257	N	0.178270	0.088291	0.534570
	N258	N	0.818040	0.088793	0.461096
	N259	N	0.818905	0.916326	0.535463
	N260	N	0.459823	0.179116	0.911990
	N261	N	0.535902	0.178042	0.081230
	N262	N	0.460496	0.824250	0.082910
	N263	N	0.535136	0.824641	0.912988
	N264	N	0.461518	0.913654	0.177372
	N265	N	0.534681	0.087847	0.176379
	N266	N	0.461535	0.089205	0.816537
	N267	N	0.534856	0.915818	0.818853
	N268	N	0.911112	0.181740	0.461122
	N269	N	0.082576	0.179653	0.535874
	N270	N	0.082988	0.824052	0.460610
	N271	N	0.913130	0.823855	0.535316
	N272	N	0.173517	0.464647	0.914337
	N273	N	0.175090	0.539390	0.083976
	N274	N	0.822561	0.464046	0.080856
	N275	N	0.819350	0.538860	0.911336
	O276	O	0.533175	0.471462	0.467016
	H277	H	0.540830	0.472010	0.473904
	H278	H	0.536508	0.474249	0.456387
	O279	O	0.531219	0.468106	0.490479
	H280	H	0.524679	0.470774	0.480166
	H281	H	0.543185	0.463082	0.491497
	O282	O	0.489523	0.498729	0.442406
	H283	H	0.480286	0.500906	0.445163
	H284	H	0.484115	0.503379	0.440673
	O285	O	-0.037984	1.048272	0.997419
	H286	H	-0.050804	1.056809	0.997667
	H287	H	-0.031176	1.056223	0.998382
	O288	O	0.531514	0.524798	0.507891
	H289	H	0.520412	0.529781	0.509179
	H290	H	0.524698	0.533772	0.509483
	O291	O	-0.062775	0.041248	1.050403
	H292	H	-0.085120	0.038123	1.053137
	H293	H	-0.060264	0.024664	1.053009
	O294	O	0.459763	0.484139	0.534856
	H295	H	0.461846	0.488078	0.536731
	H296	H	0.471263	0.481506	0.539616
	O297	O	0.446408	0.443190	0.480056
	H298	H	0.447310	0.441323	0.476965
	H299	H	0.448317	0.428336	0.483834
	O300	O	0.431899	0.518433	0.503639
	H301	H	0.434701	0.507431	0.505232
	H302	H	0.429801	0.523825	0.508617
	O303	O	0.533870	0.552488	0.485286
	H304	H	0.528490	0.564180	0.480770
	H305	H	0.535148	0.556783	0.482192
	O306	O	1.001311	-0.040662	1.024998
	H307	H	1.008007	-0.030901	1.022530
	H308	H	1.010067	-0.030864	1.024403
	O309	O	0.521292	0.544690	0.508836
	H310	H	0.516437	0.545824	0.511475
	H311	H	0.515611	0.551823	0.510309
	O312	O	0.501868	0.475760	0.488467
	H313	H	0.502783	0.489515	0.491635
	H314	H	0.502520	0.477878	0.484160
	O315	O	1.062459	0.059950	0.991947
	H316	H	1.056158	0.072114	0.993364
	H317	H	1.063363	0.070018	0.991879
	O318	O	0.004842	0.079421	0.066824
	H319	H	-0.004006	0.078246	0.071641
	H320	H	-0.000845	0.065354	0.068251
	O321	O	0.522450	0.463643	0.499804
	H322	H	0.526917	0.460187	0.497890
	H323	H	0.526071	0.468021	0.491429
	O324	O	0.998894	-0.048821	0.066186
	H325	H	1.011535	-0.049190	0.055859
	H326	H	1.005420	-0.057843	0.068433
	O327	O	1.017523	1.034149	0.055392
	H328	H	1.024791	1.033374	0.052617
	H329	H	1.013867	1.035059	0.057585
	O330	O	0.480667	0.483938	0.515868
	H331	H	0.478020	0.485941	0.512118
	H332	H	0.480242	0.477712	0.513544
	O333	O	0.438767	0.479212	0.435007
	H334	H	0.448830	0.470085	0.433809
	H335	H	0.432981	0.476921	0.435495
