data_Molecule from HDF5

_cell_length_a		16.199434
_cell_length_b		16.308483
_cell_length_c		16.300343
_cell_angle_alpha	89.970014
_cell_angle_beta	89.991980
_cell_angle_gamma	90.043267
_symmetry_space_group_name_H-M	'P 1'
_symmetry_Int_Tables_number		1

loop_
	_symmetry_equiv_pos_as_xyz
	x,y,z

loop_
	_atom_site_label
	_atom_site_type_symbol
	_atom_site_fract_x
	_atom_site_fract_y
	_atom_site_fract_z
	H0	H	0.400169	0.836537	0.715451
	H1	H	0.598076	0.163593	0.713754
	H2	H	0.598306	0.836132	0.285717
	H3	H	0.401780	0.163408	0.285056
	H4	H	0.713831	0.403955	0.836096
	H5	H	0.712845	0.596947	0.164973
	H6	H	0.286829	0.596665	0.835908
	H7	H	0.287319	0.402905	0.164626
	H8	H	0.835087	0.713239	0.402540
	H9	H	0.165103	0.713145	0.597050
	H10	H	0.835849	0.286600	0.597552
	H11	H	0.164418	0.286779	0.402148
	H12	H	0.835324	0.401992	0.713129
	H13	H	0.165114	0.597089	0.712468
	H14	H	0.834520	0.598012	0.287001
	H15	H	0.164306	0.402981	0.286924
	H16	H	0.401431	0.714541	0.836385
	H17	H	0.598658	0.714654	0.163943
	H18	H	0.599487	0.285936	0.836779
	H19	H	0.401355	0.284137	0.163523
	H20	H	0.713898	0.835946	0.402618
	H21	H	0.713598	0.163655	0.597003
	H22	H	0.286837	0.835392	0.596009
	H23	H	0.286114	0.163503	0.402709
	H24	H	0.900980	0.336903	0.215171
	H25	H	0.098029	0.663960	0.214766
	H26	H	0.098544	0.336245	0.785624
	H27	H	0.901997	0.663904	0.785335
	H28	H	0.213698	0.902326	0.335784
	H29	H	0.213172	0.096066	0.664052
	H30	H	0.786970	0.096608	0.336188
	H31	H	0.786678	0.903694	0.663758
	H32	H	0.335696	0.213789	0.902700
	H33	H	0.665012	0.212532	0.097282
	H34	H	0.335703	0.785965	0.097230
	H35	H	0.665317	0.787838	0.902198
	H36	H	0.335138	0.900989	0.213262
	H37	H	0.665006	0.097155	0.213221
	H38	H	0.334828	0.098779	0.785762
	H39	H	0.663896	0.901392	0.785063
	H40	H	0.900053	0.215814	0.337494
	H41	H	0.099447	0.214599	0.663691
	H42	H	0.098952	0.784828	0.336949
	H43	H	0.901078	0.785696	0.663719
	H44	H	0.213175	0.336110	0.903729
	H45	H	0.214374	0.664658	0.097886
	H46	H	0.787031	0.336263	0.096800
	H47	H	0.788109	0.664903	0.903968
	H48	H	0.407103	0.115853	0.591857
	H49	H	0.590821	0.884737	0.589956
	H50	H	0.581873	0.112970	0.404737
	H51	H	0.400236	0.882184	0.408230
	H52	H	0.585116	0.407685	0.114522
	H53	H	0.594023	0.588639	0.885025
	H54	H	0.408647	0.597644	0.117105
	H55	H	0.403744	0.407736	0.883810
	H56	H	0.119039	0.590708	0.399954
	H57	H	0.884736	0.586202	0.590605
	H58	H	0.120637	0.396556	0.592746
	H59	H	0.881991	0.410777	0.402310
	H60	H	0.114551	0.411968	0.584634
	H61	H	0.880207	0.594547	0.601093
	H62	H	0.118946	0.600036	0.408566
	H63	H	0.881099	0.401492	0.408036
	H64	H	0.404356	0.591693	0.116847
	H65	H	0.588770	0.597894	0.884917
	H66	H	0.595034	0.397012	0.119653
	H67	H	0.410129	0.407275	0.884906
	H68	H	0.598936	0.115465	0.415215
	H69	H	0.596620	0.882685	0.593960
	H70	H	0.404722	0.116704	0.594057
	H71	H	0.408377	0.881630	0.399131
	H72	H	0.911208	0.616972	0.100228
	H73	H	0.096530	0.384036	0.089761
	H74	H	0.093279	0.617899	0.900970
	H75	H	0.897344	0.379984	0.902620
	H76	H	0.089255	0.907242	0.615009
	H77	H	0.103955	0.097889	0.379006
	H78	H	0.905774	0.093127	0.616898
	H79	H	0.912420	0.912465	0.387062
	H80	H	0.615675	0.092571	0.911319
	H81	H	0.385103	0.088559	0.088105
	H82	H	0.617601	0.914307	0.099941
	H83	H	0.387273	0.910065	0.919255
	H84	H	0.620789	0.897837	0.096197
	H85	H	0.381266	0.090586	0.099590
	H86	H	0.617627	0.088555	0.901853
	H87	H	0.382494	0.916138	0.897372
	H88	H	0.907940	0.094610	0.617020
	H89	H	0.090728	0.081062	0.387919
	H90	H	0.093560	0.901126	0.617957
	H91	H	0.910463	0.896205	0.381114
	H92	H	0.088826	0.614979	0.907053
	H93	H	0.095520	0.382111	0.098963
	H94	H	0.909673	0.614271	0.087692
	H95	H	0.914741	0.383981	0.899969
	H96	H	0.408000	0.116196	0.595448
	H97	H	0.589896	0.883019	0.596805
	H98	H	0.598420	0.121012	0.396048
	H99	H	0.411538	0.886196	0.410162
	H100	H	0.600801	0.411540	0.117471
	H101	H	0.599306	0.597119	0.881311
	H102	H	0.410740	0.591124	0.114737
	H103	H	0.406273	0.402288	0.882725
	H104	H	0.113489	0.588619	0.411823
	H105	H	0.881521	0.600069	0.588614
	H106	H	0.119350	0.411650	0.602317
	H107	H	0.885082	0.410439	0.413023
	H108	H	0.899724	0.619543	0.094427
	H109	H	0.088423	0.385080	0.093997
	H110	H	0.096923	0.616535	0.908015
	H111	H	0.907455	0.387005	0.916436
	H112	H	0.096959	0.908010	0.617252
	H113	H	0.081512	0.102644	0.384682
	H114	H	0.906476	0.095348	0.617168
	H115	H	0.897211	0.907041	0.380160
	H116	H	0.619882	0.098925	0.903881
	H117	H	0.381355	0.099538	0.091635
	H118	H	0.613973	0.908264	0.084277
	H119	H	0.378859	0.894820	0.904590
	C120	C	0.377968	0.008178	0.621606
	C121	C	0.621068	0.991611	0.621379
	C122	C	0.621517	0.008173	0.377644
	C123	C	0.378132	0.991432	0.377683
	C124	C	0.621606	0.378297	0.008603
	C125	C	0.622237	0.622519	0.992024
	C126	C	0.379309	0.621438	0.007840
	C127	C	0.378449	0.377882	0.991964
	C128	C	0.008010	0.621400	0.378748
	C129	C	0.991649	0.621368	0.621235
	C130	C	0.008896	0.378912	0.621336
	C131	C	0.991508	0.379243	0.379045
	C132	C	0.878397	0.508735	0.122108
	C133	C	0.121675	0.492090	0.122093
	C134	C	0.121263	0.508226	0.878051
	C135	C	0.878377	0.492124	0.878211
	C136	C	0.121363	0.878054	0.508417
	C137	C	0.121216	0.121679	0.491850
	C138	C	0.878322	0.121969	0.508743
	C139	C	0.878540	0.877760	0.491402
	C140	C	0.508395	0.121475	0.878117
	C141	C	0.491538	0.121058	0.121149
	C142	C	0.508509	0.878263	0.121460
	C143	C	0.491691	0.878863	0.878616
	C144	C	0.380221	0.884993	0.676682
	C145	C	0.618425	0.114888	0.675865
	C146	C	0.618755	0.884840	0.323443
	C147	C	0.381008	0.114539	0.322861
	C148	C	0.676334	0.382500	0.885167
	C149	C	0.675960	0.618369	0.115839
	C150	C	0.324683	0.617787	0.884681
	C151	C	0.324345	0.381532	0.115452
	C152	C	0.884198	0.675895	0.381861
	C153	C	0.115973	0.675477	0.617790
	C154	C	0.884760	0.324395	0.618282
	C155	C	0.115253	0.324405	0.381712
	C156	C	0.884481	0.381871	0.675367
	C157	C	0.115819	0.617867	0.675142
	C158	C	0.883841	0.618408	0.324720
	C159	C	0.115166	0.381978	0.324270
	C160	C	0.381742	0.676200	0.884757
	C161	C	0.619328	0.676895	0.115391
	C162	C	0.619605	0.323738	0.885334
	C163	C	0.381262	0.322826	0.115158
	C164	C	0.675900	0.884643	0.381800
	C165	C	0.675769	0.114933	0.617919
	C166	C	0.323663	0.884453	0.617843
	C167	C	0.323730	0.114753	0.381382
	C168	C	0.880668	0.385673	0.177032
	C169	C	0.119038	0.615456	0.176696
	C170	C	0.118657	0.384853	0.823800
	C171	C	0.881640	0.615190	0.823650
	C172	C	0.175795	0.881535	0.384610
	C173	C	0.175587	0.117380	0.615317
	C174	C	0.824115	0.118177	0.385355
	C175	C	0.824071	0.881806	0.614908
	C176	C	0.384552	0.176238	0.881603
	C177	C	0.615979	0.175053	0.117876
	C178	C	0.384633	0.823629	0.118232
	C179	C	0.615844	0.824884	0.881654
	C180	C	0.384453	0.880762	0.175798
	C181	C	0.615683	0.118154	0.175598
	C182	C	0.384231	0.118978	0.823818
	C183	C	0.615127	0.881485	0.823523
	C184	C	0.880547	0.177065	0.385747
	C185	C	0.119467	0.176524	0.615030
	C186	C	0.118999	0.823066	0.385273
	C187	C	0.880865	0.823435	0.614864
	C188	C	0.175750	0.384973	0.882184
	C189	C	0.176523	0.615549	0.118542
	C190	C	0.824091	0.385226	0.118346
	C191	C	0.824955	0.615766	0.882489
	C192	C	0.399962	0.094064	0.599999
	C193	C	0.598925	0.905726	0.599899
	C194	C	0.599713	0.094266	0.399114
	C195	C	0.400085	0.905455	0.399359
	C196	C	0.599943	0.399199	0.094889
	C197	C	0.600519	0.600961	0.905955
	C198	C	0.401452	0.599889	0.093941
	C199	C	0.400342	0.399387	0.906082
	C200	C	0.094706	0.599479	0.400471
	C201	C	0.904626	0.599962	0.599780
	C202	C	0.095612	0.400314	0.599774
	C203	C	0.904892	0.401251	0.401238
	C204	C	0.900194	0.594815	0.100455
	C205	C	0.099686	0.406152	0.100727
	C206	C	0.099350	0.594381	0.899205
	C207	C	0.900138	0.405751	0.899874
	C208	C	0.099649	0.899234	0.594386
	C209	C	0.098571	0.100218	0.405995
	C210	C	0.900288	0.100552	0.595020
	C211	C	0.900137	0.898925	0.404990
	C212	C	0.595315	0.099837	0.899330
	C213	C	0.405010	0.099398	0.099429
	C214	C	0.595131	0.900413	0.099986
	C215	C	0.405054	0.900466	0.900624
	Zn216	Zn	0.499605	-0.000142	0.750303
	Zn217	Zn	0.500018	-0.000394	0.248904
	Zn218	Zn	0.749986	0.500390	0.000531
	Zn219	Zn	0.250083	0.500343	-0.000127
	Zn220	Zn	-0.000276	0.749366	0.499934
	Zn221	Zn	-0.000210	0.250820	0.500480
	Zn222	Zn	-0.000298	0.499723	0.749222
	Zn223	Zn	-0.000261	0.500545	0.250893
	Zn224	Zn	0.500769	0.750637	-0.000089
	Zn225	Zn	0.500605	0.249096	-0.000075
	Zn226	Zn	0.750174	-0.000331	0.500061
	Zn227	Zn	0.249624	-0.000222	0.499767
	N228	N	0.413327	0.962804	0.679284
	N229	N	0.585048	0.037224	0.678128
	N230	N	0.585384	0.962521	0.321004
	N231	N	0.414005	0.036817	0.320415
	N232	N	0.677794	0.415753	0.962762
	N233	N	0.678124	0.585401	0.038147
	N234	N	0.323062	0.584563	0.962178
	N235	N	0.322394	0.414994	0.037936
	N236	N	0.962569	0.677788	0.414778
	N237	N	0.037627	0.677882	0.585031
	N238	N	0.963025	0.322613	0.585331
	N239	N	0.037123	0.322525	0.415106
	N240	N	0.962639	0.414849	0.677398
	N241	N	0.037546	0.585018	0.677436
	N242	N	0.962054	0.585370	0.322502
	N243	N	0.037127	0.415311	0.322705
	N244	N	0.414933	0.678621	0.962572
	N245	N	0.586602	0.679518	0.037467
	N246	N	0.586373	0.321138	0.963045
	N247	N	0.414617	0.320739	0.037462
	N248	N	0.677748	0.962401	0.414770
	N249	N	0.677496	0.037387	0.584675
	N250	N	0.322159	0.961973	0.584247
	N251	N	0.322083	0.037326	0.414918
	N252	N	0.913800	0.463530	0.179430
	N253	N	0.085477	0.537920	0.178970
	N254	N	0.085501	0.462553	0.821036
	N255	N	0.913688	0.537073	0.820802
	N256	N	0.177587	0.914967	0.462217
	N257	N	0.176711	0.084002	0.537874
	N258	N	0.822928	0.084510	0.462824
	N259	N	0.822526	0.914851	0.537202
	N260	N	0.462830	0.177945	0.914651
	N261	N	0.537642	0.177120	0.084657
	N262	N	0.462729	0.821984	0.085067
	N263	N	0.537872	0.822959	0.915058
	N264	N	0.462639	0.913975	0.177727
	N265	N	0.537618	0.085083	0.177542
	N266	N	0.462245	0.085707	0.821663
	N267	N	0.536894	0.914482	0.821751
	N268	N	0.913549	0.179607	0.463550
	N269	N	0.086069	0.179272	0.537286
	N270	N	0.085648	0.821013	0.462948
	N271	N	0.914003	0.820833	0.537078
	N272	N	0.177091	0.462446	0.915543
	N273	N	0.178343	0.537900	0.085291
	N274	N	0.822833	0.462611	0.084664
	N275	N	0.823020	0.538169	0.916144
