data_Molecule from HDF5

_cell_length_a		16.591731
_cell_length_b		16.512196
_cell_length_c		16.371932
_cell_angle_alpha	90.078345
_cell_angle_beta	90.014936
_cell_angle_gamma	89.968930
_symmetry_space_group_name_H-M	'P 1'
_symmetry_Int_Tables_number		1

loop_
	_symmetry_equiv_pos_as_xyz
	x,y,z

loop_
	_atom_site_label
	_atom_site_type_symbol
	_atom_site_fract_x
	_atom_site_fract_y
	_atom_site_fract_z
	H0	H	0.398724	0.839226	0.718356
	H1	H	0.608890	0.154848	0.723467
	H2	H	0.602482	0.837984	0.281369
	H3	H	0.396986	0.154938	0.276841
	H4	H	0.726998	0.385883	0.840344
	H5	H	0.722924	0.602093	0.154009
	H6	H	0.276637	0.604984	0.841013
	H7	H	0.281436	0.392476	0.155349
	H8	H	0.844306	0.718880	0.394572
	H9	H	0.158543	0.717935	0.604075
	H10	H	0.845218	0.272495	0.608093
	H11	H	0.156162	0.274929	0.392325
	H12	H	0.844683	0.389934	0.722924
	H13	H	0.158916	0.600513	0.719284
	H14	H	0.843773	0.601099	0.277113
	H15	H	0.158292	0.395084	0.279620
	H16	H	0.394797	0.718331	0.839246
	H17	H	0.604202	0.714824	0.155854
	H18	H	0.609878	0.272130	0.839879
	H19	H	0.396087	0.276038	0.155409
	H20	H	0.722293	0.840454	0.394535
	H21	H	0.727988	0.153459	0.610350
	H22	H	0.277604	0.841901	0.606822
	H23	H	0.278499	0.154165	0.392322
	H24	H	0.896253	0.339265	0.219572
	H25	H	0.104244	0.654616	0.218213
	H26	H	0.108881	0.339662	0.773686
	H27	H	0.898352	0.655394	0.777946
	H28	H	0.219747	0.895888	0.340043
	H29	H	0.224274	0.107543	0.656765
	H30	H	0.780020	0.103203	0.340209
	H31	H	0.780472	0.892807	0.657921
	H32	H	0.346460	0.221321	0.889592
	H33	H	0.658845	0.220797	0.105655
	H34	H	0.345199	0.777682	0.100581
	H35	H	0.657752	0.773681	0.889402
	H36	H	0.344583	0.897707	0.215084
	H37	H	0.659721	0.102320	0.219978
	H38	H	0.344733	0.102018	0.776545
	H39	H	0.657657	0.889629	0.773574
	H40	H	0.895112	0.219134	0.339690
	H41	H	0.107193	0.220790	0.657345
	H42	H	0.102166	0.780262	0.339475
	H43	H	0.895977	0.776486	0.658311
	H44	H	0.226640	0.340556	0.888001
	H45	H	0.224662	0.652529	0.105648
	H46	H	0.777078	0.340380	0.105463
	H47	H	0.777655	0.652956	0.889082
	H48	H	0.405756	0.112112	0.586595
	H49	H	0.582526	0.891345	0.582313
	H50	H	0.588373	0.109392	0.410240
	H51	H	0.414603	0.887017	0.412779
	H52	H	0.590999	0.406626	0.110529
	H53	H	0.592311	0.587413	0.880972
	H54	H	0.414708	0.582133	0.108719
	H55	H	0.418990	0.412508	0.886413
	H56	H	0.114278	0.593089	0.410063
	H57	H	0.889265	0.585477	0.588870
	H58	H	0.111520	0.411489	0.587364
	H59	H	0.886898	0.405960	0.410402
	H60	H	0.112713	0.406174	0.586344
	H61	H	0.888865	0.588438	0.585978
	H62	H	0.111282	0.584639	0.410089
	H63	H	0.889569	0.409224	0.411831
	H64	H	0.415694	0.590139	0.110974
	H65	H	0.591810	0.581561	0.883429
	H66	H	0.592551	0.413418	0.108774
	H67	H	0.415192	0.406219	0.884245
	H68	H	0.593174	0.109994	0.413770
	H69	H	0.597261	0.886879	0.578433
	H70	H	0.417778	0.109182	0.591763
	H71	H	0.403897	0.883525	0.411127
	H72	H	0.908917	0.608934	0.083861
	H73	H	0.088145	0.386997	0.081627
	H74	H	0.098730	0.612521	0.905707
	H75	H	0.907576	0.384239	0.913520
	H76	H	0.087857	0.908828	0.612873
	H77	H	0.088145	0.095580	0.383193
	H78	H	0.918352	0.080512	0.608200
	H79	H	0.916255	0.904634	0.386405
	H80	H	0.613992	0.083559	0.906525
	H81	H	0.390921	0.088887	0.084935
	H82	H	0.614994	0.906771	0.086551
	H83	H	0.386840	0.897152	0.910616
	H84	H	0.617179	0.905953	0.092255
	H85	H	0.392119	0.085216	0.086111
	H86	H	0.612139	0.089391	0.916554
	H87	H	0.395564	0.913418	0.918082
	H88	H	0.916215	0.088856	0.611825
	H89	H	0.098889	0.080633	0.385218
	H90	H	0.092405	0.904476	0.615156
	H91	H	0.906689	0.905625	0.383429
	H92	H	0.079994	0.605734	0.905964
	H93	H	0.100101	0.381443	0.085967
	H94	H	0.911092	0.610417	0.088466
	H95	H	0.915268	0.383762	0.905698
	H96	H	0.415332	0.106403	0.578692
	H97	H	0.591436	0.883935	0.592828
	H98	H	0.593662	0.111947	0.408056
	H99	H	0.410979	0.883443	0.402221
	H100	H	0.585387	0.410740	0.107532
	H101	H	0.586857	0.585516	0.883761
	H102	H	0.407881	0.586553	0.112893
	H103	H	0.411304	0.412413	0.884287
	H104	H	0.115524	0.588179	0.402849
	H105	H	0.891235	0.584527	0.585229
	H106	H	0.110167	0.408910	0.582404
	H107	H	0.887667	0.408839	0.407916
	H108	H	0.913834	0.607228	0.085380
	H109	H	0.089647	0.381575	0.094575
	H110	H	0.091259	0.603718	0.922304
	H111	H	0.917891	0.387927	0.915347
	H112	H	0.094096	0.910852	0.613870
	H113	H	0.081191	0.079836	0.391363
	H114	H	0.909533	0.081663	0.610659
	H115	H	0.912053	0.913193	0.387691
	H116	H	0.608543	0.077768	0.915470
	H117	H	0.390542	0.087746	0.088857
	H118	H	0.616836	0.900820	0.088346
	H119	H	0.388178	0.913387	0.899494
	C120	C	0.380266	0.005790	0.619176
	C121	C	0.623731	0.990128	0.620017
	C122	C	0.622920	0.005998	0.378151
	C123	C	0.379264	0.989342	0.376955
	C124	C	0.623451	0.375582	0.005293
	C125	C	0.622553	0.617303	0.987342
	C126	C	0.379503	0.618821	0.006352
	C127	C	0.382406	0.377235	0.989285
	C128	C	0.009706	0.620102	0.376266
	C129	C	0.993259	0.618240	0.619394
	C130	C	0.008784	0.375566	0.619704
	C131	C	0.991855	0.376068	0.377595
	C132	C	0.878899	0.505137	0.119166
	C133	C	0.123539	0.487509	0.119665
	C134	C	0.123272	0.504040	0.877224
	C135	C	0.880615	0.488759	0.877226
	C136	C	0.121988	0.877105	0.508113
	C137	C	0.122270	0.119160	0.490902
	C138	C	0.880863	0.117990	0.506625
	C139	C	0.880279	0.876150	0.490880
	C140	C	0.509380	0.117710	0.877710
	C141	C	0.494330	0.119980	0.120479
	C142	C	0.511546	0.875141	0.119224
	C143	C	0.493255	0.875027	0.875894
	C144	C	0.379215	0.887264	0.679248
	C145	C	0.627278	0.107462	0.682904
	C146	C	0.622582	0.886181	0.319950
	C147	C	0.378141	0.107828	0.317007
	C148	C	0.685865	0.369677	0.887319
	C149	C	0.682690	0.620034	0.106864
	C150	C	0.317741	0.622495	0.888006
	C151	C	0.321655	0.374195	0.108043
	C152	C	0.891188	0.678987	0.375474
	C153	C	0.111478	0.678118	0.622211
	C154	C	0.891747	0.313618	0.625091
	C155	C	0.109597	0.315719	0.374674
	C156	C	0.891791	0.371963	0.682450
	C157	C	0.111676	0.619593	0.679502
	C158	C	0.891044	0.620580	0.317174
	C159	C	0.110515	0.375272	0.318545
	C160	C	0.376417	0.678970	0.887253
	C161	C	0.623808	0.676226	0.107465
	C162	C	0.627743	0.312731	0.887263
	C163	C	0.379025	0.316570	0.107915
	C164	C	0.682162	0.887138	0.376114
	C165	C	0.686490	0.107108	0.626428
	C166	C	0.318968	0.888397	0.623638
	C167	C	0.319057	0.107383	0.374155
	C168	C	0.877151	0.386634	0.179806
	C169	C	0.123788	0.606923	0.178678
	C170	C	0.126718	0.386760	0.814743
	C171	C	0.879340	0.607554	0.817205
	C172	C	0.180277	0.876533	0.387716
	C173	C	0.183733	0.123991	0.609406
	C174	C	0.820253	0.121316	0.387536
	C175	C	0.820582	0.874454	0.610604
	C176	C	0.392808	0.179964	0.872801
	C177	C	0.611857	0.180594	0.123776
	C178	C	0.392354	0.817520	0.119528
	C179	C	0.610740	0.813924	0.871899
	C180	C	0.391999	0.876947	0.176444
	C181	C	0.612275	0.121623	0.180871
	C182	C	0.392235	0.120621	0.816295
	C183	C	0.610655	0.871969	0.814241
	C184	C	0.877401	0.179034	0.387478
	C185	C	0.125345	0.180814	0.609594
	C186	C	0.121934	0.819393	0.387382
	C187	C	0.878000	0.816428	0.610633
	C188	C	0.185565	0.387098	0.871591
	C189	C	0.183567	0.605970	0.122646
	C190	C	0.818094	0.387183	0.122791
	C191	C	0.819111	0.606342	0.872438
	C192	C	0.405699	0.087853	0.593007
	C193	C	0.598016	0.908573	0.592432
	C194	C	0.598623	0.088905	0.403372
	C195	C	0.403054	0.906277	0.401478
	C196	C	0.597106	0.402688	0.087511
	C197	C	0.597526	0.591993	0.904454
	C198	C	0.405138	0.593371	0.089230
	C199	C	0.407848	0.403279	0.906374
	C200	C	0.092095	0.595786	0.400722
	C201	C	0.911348	0.593308	0.593992
	C202	C	0.089993	0.401240	0.593031
	C203	C	0.909485	0.400914	0.402922
	C204	C	0.904038	0.587323	0.093275
	C205	C	0.099247	0.404876	0.094554
	C206	C	0.097568	0.585829	0.903832
	C207	C	0.906114	0.406718	0.903851
	C208	C	0.098305	0.901002	0.592206
	C209	C	0.096648	0.092746	0.408118
	C210	C	0.907178	0.091357	0.588786
	C211	C	0.904737	0.900700	0.407793
	C212	C	0.590626	0.091219	0.905035
	C213	C	0.412556	0.094633	0.094334
	C214	C	0.594659	0.898034	0.095880
	C215	C	0.411519	0.900555	0.901998
	Zn216	Zn	0.501953	-0.002491	0.748042
	Zn217	Zn	0.502368	-0.002565	0.248904
	Zn218	Zn	0.750814	0.496505	-0.003341
	Zn219	Zn	0.252257	0.496387	-0.002427
	Zn220	Zn	0.001457	0.748381	0.499699
	Zn221	Zn	0.000195	0.246317	0.498552
	Zn222	Zn	0.001618	0.496797	0.748407
	Zn223	Zn	0.000340	0.496537	0.247762
	Zn224	Zn	0.501704	0.746030	-0.003193
	Zn225	Zn	0.502420	0.247904	-0.002519
	Zn226	Zn	0.752192	-0.002183	0.498933
	Zn227	Zn	0.250209	-0.001819	0.499344
	N228	N	0.416727	0.961307	0.676465
	N229	N	0.588964	0.033895	0.679064
	N230	N	0.586837	0.961338	0.320845
	N231	N	0.414735	0.033295	0.318505
	N232	N	0.683246	0.408271	0.961802
	N233	N	0.682489	0.584440	0.030948
	N234	N	0.319457	0.585774	0.963177
	N235	N	0.323577	0.411222	0.033010
	N236	N	0.966152	0.679144	0.411110
	N237	N	0.037016	0.677471	0.585680
	N238	N	0.965407	0.315581	0.586823
	N239	N	0.034728	0.315985	0.410707
	N240	N	0.965657	0.409436	0.679643
	N241	N	0.037223	0.583004	0.677989
	N242	N	0.965857	0.585274	0.317042
	N243	N	0.036236	0.411938	0.320228
	N244	N	0.414397	0.676600	0.961835
	N245	N	0.587190	0.674744	0.032307
	N246	N	0.589611	0.316420	0.961546
	N247	N	0.415978	0.318194	0.032957
	N248	N	0.682719	0.962664	0.411393
	N249	N	0.684560	0.032972	0.588089
	N250	N	0.319372	0.963232	0.587253
	N251	N	0.319780	0.032661	0.410951
	N252	N	0.914263	0.460993	0.177647
	N253	N	0.086989	0.532509	0.176821
	N254	N	0.088597	0.460368	0.818160
	N255	N	0.916675	0.533287	0.819832
	N256	N	0.180565	0.911385	0.463944
	N257	N	0.181913	0.086253	0.534486
	N258	N	0.822055	0.084074	0.462604
	N259	N	0.821768	0.910810	0.535233
	N260	N	0.466796	0.178221	0.910235
	N261	N	0.537377	0.179792	0.086826
	N262	N	0.467785	0.815935	0.084981
	N263	N	0.536497	0.815288	0.909287
	N264	N	0.466981	0.911922	0.176466
	N265	N	0.538072	0.084909	0.179045
	N266	N	0.465885	0.082642	0.819276
	N267	N	0.536670	0.909104	0.816611
	N268	N	0.914020	0.177227	0.462657
	N269	N	0.087688	0.177862	0.534901
	N270	N	0.086797	0.819353	0.463323
	N271	N	0.914276	0.817210	0.535214
	N272	N	0.183364	0.461166	0.910006
	N273	N	0.183678	0.530596	0.086658
	N274	N	0.819075	0.461955	0.085919
	N275	N	0.819609	0.531263	0.908674
	O276	O	0.715495	0.473650	0.285672
	H277	H	0.719901	0.455956	0.280411
	H278	H	0.717733	0.474414	0.274513
	O279	O	0.519534	0.570490	0.459569
	H280	H	0.529255	0.558337	0.465351
	H281	H	0.526285	0.572971	0.456646
	O282	O	0.965491	0.773907	0.216253
	H283	H	0.949504	0.753066	0.235544
	H284	H	0.947365	0.760929	0.213903
	O285	O	0.491834	0.477069	0.285548
	H286	H	0.492541	0.477802	0.299235
	H287	H	0.477230	0.471227	0.273419
	O288	O	-0.059695	0.091704	0.168687
	H289	H	-0.060562	0.081864	0.175877
	H290	H	-0.044609	0.094657	0.161774
	O291	O	1.030217	0.907787	0.188466
	H292	H	1.008900	0.906515	0.192128
	H293	H	1.010600	0.893230	0.183252
	O294	O	-0.105986	1.103323	-0.012639
	H295	H	-0.104674	1.085869	0.003252
	H296	H	-0.112265	1.117859	-0.013468
	O297	O	0.552464	0.531733	0.332300
	H298	H	0.553085	0.517737	0.339374
	H299	H	0.547320	0.516677	0.323254
	O300	O	0.460046	0.285142	0.443627
	H301	H	0.457257	0.287940	0.443600
	H302	H	0.450636	0.285275	0.442006
	O303	O	0.296242	0.473147	0.700611
	H304	H	0.299223	0.454873	0.705602
	H305	H	0.282329	0.473982	0.704416
	O306	O	0.024847	1.001459	1.042632
	H307	H	0.038059	0.998742	1.038069
	H308	H	0.025253	0.988812	1.043490
	O309	O	0.706526	0.694080	0.630387
	H310	H	0.678005	0.701163	0.642978
	H311	H	0.711771	0.707544	0.597973
	O312	O	0.479900	0.545961	0.659194
	H313	H	0.491847	0.545804	0.656288
	H314	H	0.475061	0.539076	0.651647
	O315	O	0.041418	0.045983	0.903719
	H316	H	0.034645	0.062950	0.891546
	H317	H	0.011901	0.047914	0.915282
	O318	O	-0.192801	0.796769	0.181537
	H319	H	-0.207222	0.810789	0.170827
	H320	H	-0.199453	0.774927	0.189860
	O321	O	0.300490	0.696298	0.546239
	H322	H	0.305770	0.692248	0.518735
	H323	H	0.288773	0.698948	0.530870
	O324	O	1.081084	0.146405	1.021885
	H325	H	1.093669	0.160109	1.019333
	H326	H	1.083375	0.129569	1.007353
	O327	O	1.168170	0.254539	0.812053
	H328	H	1.169738	0.259966	0.806330
	H329	H	1.198033	0.240436	0.827003
	O330	O	0.897014	0.165596	0.125735
	H331	H	0.902486	0.162385	0.123994
	H332	H	0.895361	0.163751	0.118681
	O333	O	0.994792	0.783964	0.994031
	H334	H	0.973170	0.793365	0.973857
	H335	H	0.987876	0.775993	0.993253
	O336	O	0.911419	0.201402	0.799710
	H337	H	0.901195	0.217937	0.821737
	H338	H	0.906866	0.190104	0.793731
	O339	O	0.307820	0.298975	0.611853
	H340	H	0.295484	0.299799	0.616045
	H341	H	0.303746	0.298504	0.588283
	O342	O	0.548706	0.604049	0.696212
	H343	H	0.525834	0.619872	0.700118
	H344	H	0.537257	0.594725	0.694259
	O345	O	0.205119	0.198420	0.199441
	H346	H	0.215728	0.213571	0.169644
	H347	H	0.175086	0.179858	0.205236
	O348	O	0.856740	-0.090046	0.864758
	H349	H	0.855701	-0.083488	0.849013
	H350	H	0.872479	-0.084730	0.862674
	O351	O	0.963580	1.079263	-0.002482
	H352	H	0.966328	1.083328	-0.005356
	H353	H	0.959956	1.073599	-0.002170
	O354	O	0.718198	0.279015	0.476763
	H355	H	0.742742	0.270709	0.479991
	H356	H	0.720129	0.280184	0.488886
	O357	O	0.832355	0.987828	1.065901
	H358	H	0.831022	0.994973	1.057527
	H359	H	0.824175	0.981911	1.068697
	O360	O	0.568596	0.275854	0.559889
	H361	H	0.585647	0.268744	0.547335
	H362	H	0.547759	0.274852	0.569189
	O363	O	0.713313	0.517474	0.473957
	H364	H	0.705183	0.506269	0.482265
	H365	H	0.713861	0.525131	0.487067
	O366	O	0.791946	0.018234	0.939202
	H367	H	0.786432	-0.008838	0.959660
	H368	H	0.800673	0.022917	0.948780
	O369	O	0.293498	0.527318	0.292887
	H370	H	0.297204	0.524055	0.276240
	H371	H	0.290534	0.545895	0.295842
	O372	O	0.462378	0.325144	0.672208
	H373	H	0.456639	0.320833	0.683193
	H374	H	0.457713	0.320751	0.681128
	O375	O	0.163557	1.003794	0.799371
	H376	H	0.161418	1.026552	0.779130
	H377	H	0.137184	1.000063	0.789592
	O378	O	0.536362	0.284747	0.285962
	H379	H	0.535344	0.283122	0.287337
	H380	H	0.537160	0.261587	0.276111
	O381	O	1.187773	-0.167274	0.053965
	H382	H	1.170114	-0.158616	0.063015
	H383	H	1.185314	-0.182912	0.041786
	O384	O	0.065186	0.083020	0.845521
	H385	H	0.065496	0.073121	0.849980
	H386	H	0.058123	0.081711	0.849044
	O387	O	-0.005902	0.877570	0.782962
	H388	H	0.001095	0.864641	0.780021
	H389	H	-0.012371	0.868544	0.777608
	O390	O	0.202250	-0.058771	0.953132
	H391	H	0.197522	-0.068086	0.971673
	H392	H	0.210204	-0.075610	0.930287
	O393	O	0.788001	0.783181	0.023341
	H394	H	0.781490	0.771090	0.026380
	H395	H	0.783779	0.779203	0.020649
	O396	O	0.694244	0.649788	0.337214
	H397	H	0.679848	0.630897	0.348184
	H398	H	0.679706	0.631680	0.350122
	O399	O	0.470288	0.701229	0.431480
	H400	H	0.457737	0.707346	0.411344
	H401	H	0.439107	0.700884	0.446177
	O402	O	-0.116948	0.061695	0.802134
	H403	H	-0.108798	0.026992	0.816812
	H404	H	-0.131358	0.084725	0.783120
	O405	O	0.204883	0.173704	0.000199
	H406	H	0.219965	0.174653	-0.002399
	H407	H	0.196765	0.155365	-0.012457
	O408	O	0.610240	0.523041	0.697598
	H409	H	0.621249	0.515130	0.701023
	H410	H	0.595621	0.534080	0.700495
	O411	O	0.344746	0.494224	0.524751
	H412	H	0.336428	0.496376	0.528159
	H413	H	0.348723	0.479860	0.519681
	O414	O	0.257061	0.763793	0.234175
	H415	H	0.261032	0.764644	0.226698
	H416	H	0.230649	0.782805	0.205963
	O417	O	0.358137	0.505500	0.476270
	H418	H	0.365940	0.503452	0.472531
	H419	H	0.366543	0.517768	0.450081
	O420	O	0.662324	0.697126	0.492060
	H421	H	0.646947	0.696463	0.491838
	H422	H	0.678156	0.690443	0.487568
	O423	O	0.099061	0.838573	-0.076674
	H424	H	0.118082	0.859062	-0.057574
	H425	H	0.103445	0.809562	-0.090859
	O426	O	0.962830	0.887897	0.927818
	H427	H	0.959936	0.902839	0.916024
	H428	H	0.961939	0.894476	0.917572
	O429	O	0.291947	0.703922	0.359654
	H430	H	0.303633	0.706524	0.357198
	H431	H	0.279628	0.724413	0.325882
	O432	O	0.299270	0.399850	0.512312
	H433	H	0.286177	0.394918	0.508111
	H434	H	0.303596	0.428793	0.503061
	O435	O	0.200930	0.022263	0.200321
	H436	H	0.183316	0.030337	0.206119
	H437	H	0.213607	0.033554	0.206241
	O438	O	1.039297	0.206797	0.208837
	H439	H	1.029900	0.215523	0.219272
	H440	H	1.044722	0.206651	0.208627
	O441	O	0.338147	0.344593	0.337714
	H442	H	0.340423	0.344225	0.340194
	H443	H	0.341927	0.349621	0.333332
	O444	O	0.207580	0.864937	0.797733
	H445	H	0.222231	0.870097	0.800109
	H446	H	0.193969	0.880142	0.796922
	O447	O	0.464851	0.711551	0.607727
	H448	H	0.454118	0.700372	0.603858
	H449	H	0.447609	0.723923	0.618037
	O450	O	0.464323	0.611936	0.318690
	H451	H	0.459715	0.595140	0.327489
	H452	H	0.474692	0.619743	0.313872
	O453	O	0.723307	0.521555	0.718189
	H454	H	0.745115	0.519241	0.751617
	H455	H	0.717065	0.558618	0.714590
	O456	O	0.697331	0.307354	0.306807
	H457	H	0.697130	0.310043	0.317270
	H458	H	0.680935	0.307000	0.321772
	O459	O	0.655726	0.396634	0.590264
	H460	H	0.664976	0.405188	0.614454
	H461	H	0.656942	0.392430	0.589235
	O462	O	0.308323	0.688190	0.738983
	H463	H	0.302964	0.686223	0.743641
	H464	H	0.302824	0.681740	0.742700
	O465	O	0.787821	-0.018470	0.171637
	H466	H	0.788400	-0.023447	0.191215
	H467	H	0.783886	-0.011441	0.171689
