data_Molecule from HDF5

_cell_length_a		16.618219
_cell_length_b		16.353744
_cell_length_c		16.478342
_cell_angle_alpha	90.214268
_cell_angle_beta	89.939614
_cell_angle_gamma	90.044005
_symmetry_space_group_name_H-M	'P 1'
_symmetry_Int_Tables_number		1

loop_
	_symmetry_equiv_pos_as_xyz
	x,y,z

loop_
	_atom_site_label
	_atom_site_type_symbol
	_atom_site_fract_x
	_atom_site_fract_y
	_atom_site_fract_z
	H0	H	0.396996	0.833122	0.711694
	H1	H	0.605630	0.151040	0.716864
	H2	H	0.604260	0.832727	0.273923
	H3	H	0.397873	0.150334	0.273557
	H4	H	0.725542	0.383100	0.837193
	H5	H	0.724392	0.602259	0.148321
	H6	H	0.277351	0.599416	0.837333
	H7	H	0.278141	0.385959	0.150116
	H8	H	0.842819	0.712164	0.392988
	H9	H	0.156518	0.715208	0.600680
	H10	H	0.843775	0.270652	0.598991
	H11	H	0.156424	0.270546	0.390293
	H12	H	0.845597	0.383554	0.718596
	H13	H	0.157681	0.596544	0.715118
	H14	H	0.845115	0.599512	0.271742
	H15	H	0.156190	0.386373	0.271396
	H16	H	0.398808	0.709387	0.834403
	H17	H	0.603139	0.712558	0.150967
	H18	H	0.605586	0.269496	0.835280
	H19	H	0.398285	0.273101	0.151280
	H20	H	0.721964	0.834528	0.387475
	H21	H	0.723167	0.151465	0.601935
	H22	H	0.278888	0.835016	0.599426
	H23	H	0.279160	0.149690	0.387813
	H24	H	0.897584	0.333046	0.213055
	H25	H	0.102640	0.652429	0.212362
	H26	H	0.106552	0.331775	0.773354
	H27	H	0.900138	0.651168	0.776049
	H28	H	0.221870	0.886204	0.337656
	H29	H	0.223951	0.101433	0.651615
	H30	H	0.780524	0.098085	0.336162
	H31	H	0.779211	0.887974	0.652271
	H32	H	0.343170	0.213905	0.888639
	H33	H	0.657216	0.213820	0.097646
	H34	H	0.343076	0.772009	0.095836
	H35	H	0.658197	0.772322	0.889291
	H36	H	0.345616	0.884732	0.216879
	H37	H	0.658020	0.096825	0.213846
	H38	H	0.343022	0.097680	0.772003
	H39	H	0.656439	0.886927	0.770918
	H40	H	0.902066	0.208439	0.334363
	H41	H	0.103294	0.212356	0.653401
	H42	H	0.101541	0.773394	0.336189
	H43	H	0.898978	0.776470	0.654741
	H44	H	0.222949	0.333388	0.886991
	H45	H	0.219747	0.651915	0.097243
	H46	H	0.780303	0.333541	0.099176
	H47	H	0.782945	0.650526	0.890331
	H48	H	0.412694	0.110056	0.592846
	H49	H	0.590879	0.879474	0.581218
	H50	H	0.591098	0.105637	0.408311
	H51	H	0.408504	0.877819	0.407652
	H52	H	0.593311	0.406180	0.105587
	H53	H	0.591376	0.583597	0.878883
	H54	H	0.408937	0.574527	0.104957
	H55	H	0.415626	0.406792	0.882759
	H56	H	0.112771	0.581229	0.404258
	H57	H	0.885943	0.582128	0.590873
	H58	H	0.114252	0.396326	0.582172
	H59	H	0.890110	0.409342	0.404800
	H60	H	0.109476	0.407470	0.577755
	H61	H	0.888188	0.586096	0.583151
	H62	H	0.112527	0.582929	0.405957
	H63	H	0.885594	0.400270	0.397108
	H64	H	0.415460	0.584156	0.106050
	H65	H	0.596200	0.580483	0.878803
	H66	H	0.588711	0.406609	0.103922
	H67	H	0.410895	0.399472	0.879070
	H68	H	0.593032	0.107504	0.403318
	H69	H	0.589703	0.879974	0.582262
	H70	H	0.420904	0.101880	0.578458
	H71	H	0.411519	0.877334	0.402839
	H72	H	0.913694	0.604688	0.081914
	H73	H	0.091790	0.375406	0.091102
	H74	H	0.087780	0.603205	0.906368
	H75	H	0.913649	0.377022	0.901876
	H76	H	0.097291	0.914966	0.607182
	H77	H	0.091708	0.080275	0.381600
	H78	H	0.912581	0.077565	0.604729
	H79	H	0.913707	0.904914	0.383596
	H80	H	0.610312	0.078386	0.905624
	H81	H	0.388536	0.075152	0.091079
	H82	H	0.613115	0.898862	0.080530
	H83	H	0.390020	0.903379	0.905924
	H84	H	0.612025	0.906207	0.082303
	H85	H	0.385305	0.090149	0.084824
	H86	H	0.610510	0.079779	0.904965
	H87	H	0.387237	0.903869	0.898502
	H88	H	0.911643	0.085876	0.609410
	H89	H	0.091306	0.079468	0.382305
	H90	H	0.080294	0.905214	0.603911
	H91	H	0.910862	0.898662	0.380004
	H92	H	0.091296	0.605253	0.907990
	H93	H	0.082215	0.381726	0.080161
	H94	H	0.908473	0.606945	0.081732
	H95	H	0.916206	0.379807	0.908521
	H96	H	0.403520	0.107701	0.577035
	H97	H	0.589472	0.880138	0.580782
	H98	H	0.587674	0.106155	0.403862
	H99	H	0.413678	0.879178	0.407520
	H100	H	0.589961	0.402346	0.105988
	H101	H	0.590855	0.577910	0.880079
	H102	H	0.404506	0.584338	0.109764
	H103	H	0.406895	0.407993	0.880371
	H104	H	0.110782	0.580532	0.405960
	H105	H	0.890229	0.577675	0.584633
	H106	H	0.113907	0.406699	0.589608
	H107	H	0.888212	0.397043	0.409542
	H108	H	0.911610	0.607584	0.086704
	H109	H	0.097105	0.377788	0.076189
	H110	H	0.090301	0.605320	0.903962
	H111	H	0.909167	0.377132	0.908228
	H112	H	0.095739	0.895644	0.612848
	H113	H	0.090339	0.080381	0.382326
	H114	H	0.904915	0.079571	0.608944
	H115	H	0.906285	0.905173	0.380818
	H116	H	0.610269	0.079068	0.906593
	H117	H	0.392296	0.078308	0.075824
	H118	H	0.614268	0.901274	0.087580
	H119	H	0.386073	0.896751	0.902480
	C120	C	0.380086	0.001459	0.614663
	C121	C	0.621912	0.984635	0.614936
	C122	C	0.622268	0.001174	0.372805
	C123	C	0.380102	0.983205	0.373521
	C124	C	0.622648	0.371138	0.001358
	C125	C	0.623270	0.613479	0.983810
	C126	C	0.378862	0.613066	0.002339
	C127	C	0.379170	0.371756	0.984595
	C128	C	0.008580	0.613816	0.373745
	C129	C	0.992233	0.613851	0.617133
	C130	C	0.009337	0.370617	0.615802
	C131	C	0.991631	0.370598	0.372203
	C132	C	0.879345	0.501245	0.115498
	C133	C	0.121367	0.483892	0.114356
	C134	C	0.122519	0.499896	0.873187
	C135	C	0.881235	0.482936	0.873853
	C136	C	0.121803	0.872264	0.503610
	C137	C	0.122724	0.113611	0.486413
	C138	C	0.879458	0.113211	0.502772
	C139	C	0.878919	0.871892	0.486122
	C140	C	0.507630	0.112430	0.873068
	C141	C	0.492284	0.113726	0.115622
	C142	C	0.509373	0.870050	0.114790
	C143	C	0.491607	0.869564	0.870654
	C144	C	0.378329	0.881397	0.673157
	C145	C	0.624222	0.103836	0.676411
	C146	C	0.623540	0.881023	0.313392
	C147	C	0.378692	0.102753	0.313435
	C148	C	0.684185	0.365888	0.883817
	C149	C	0.683267	0.618225	0.101947
	C150	C	0.318610	0.616391	0.883999
	C151	C	0.319052	0.368426	0.103244
	C152	C	0.890150	0.672967	0.373224
	C153	C	0.109790	0.674474	0.618973
	C154	C	0.891042	0.310575	0.617545
	C155	C	0.109770	0.310674	0.371012
	C156	C	0.891969	0.366915	0.677136
	C157	C	0.110542	0.615683	0.675924
	C158	C	0.891326	0.616893	0.313163
	C159	C	0.109438	0.368064	0.312097
	C160	C	0.378890	0.671238	0.882613
	C161	C	0.623193	0.673271	0.103151
	C162	C	0.624615	0.309623	0.882808
	C163	C	0.378510	0.312482	0.103951
	C164	C	0.682007	0.881852	0.370108
	C165	C	0.682558	0.103748	0.619203
	C166	C	0.319574	0.882385	0.617140
	C167	C	0.320168	0.102589	0.370212
	C168	C	0.878299	0.381103	0.174085
	C169	C	0.121885	0.604395	0.173045
	C170	C	0.125158	0.380206	0.812409
	C171	C	0.880657	0.603234	0.815252
	C172	C	0.181282	0.868739	0.384724
	C173	C	0.183261	0.118322	0.604491
	C174	C	0.820649	0.115594	0.383494
	C175	C	0.819352	0.870169	0.605110
	C176	C	0.389901	0.173420	0.870555
	C177	C	0.610316	0.173471	0.116165
	C178	C	0.390602	0.811176	0.115323
	C179	C	0.610562	0.811250	0.869884
	C180	C	0.392075	0.867235	0.175621
	C181	C	0.610711	0.115273	0.174257
	C182	C	0.389779	0.115642	0.812509
	C183	C	0.609713	0.868066	0.810959
	C184	C	0.880770	0.170701	0.382570
	C185	C	0.123133	0.173524	0.605428
	C186	C	0.121541	0.812701	0.384004
	C187	C	0.878922	0.814564	0.606551
	C188	C	0.182851	0.380797	0.869476
	C189	C	0.180024	0.604117	0.115802
	C190	C	0.820130	0.381330	0.117328
	C191	C	0.822500	0.602872	0.872018
	C192	C	0.405161	0.084820	0.589849
	C193	C	0.596919	0.901438	0.588963
	C194	C	0.597551	0.084782	0.397892
	C195	C	0.404326	0.899984	0.398631
	C196	C	0.597736	0.397443	0.083733
	C197	C	0.599526	0.587902	0.900862
	C198	C	0.402842	0.588142	0.085330
	C199	C	0.404136	0.397392	0.902189
	C200	C	0.090592	0.588620	0.398382
	C201	C	0.909840	0.589099	0.593317
	C202	C	0.091372	0.396144	0.590434
	C203	C	0.909345	0.395308	0.396720
	C204	C	0.904182	0.584591	0.090440
	C205	C	0.097238	0.400079	0.089607
	C206	C	0.097001	0.583033	0.898974
	C207	C	0.905880	0.399729	0.899029
	C208	C	0.097949	0.897946	0.586437
	C209	C	0.098276	0.087393	0.403647
	C210	C	0.903066	0.088417	0.586033
	C211	C	0.903240	0.895979	0.403188
	C212	C	0.588998	0.086535	0.898676
	C213	C	0.410025	0.088293	0.091042
	C214	C	0.591711	0.894926	0.090458
	C215	C	0.409182	0.894003	0.895263
	Zn216	Zn	0.500112	-0.007157	0.743136
	Zn217	Zn	0.501282	-0.008110	0.244601
	Zn218	Zn	0.751908	0.491861	-0.006526
	Zn219	Zn	0.250470	0.492083	-0.006549
	Zn220	Zn	0.000208	0.743266	0.495688
	Zn221	Zn	0.000626	0.241510	0.494337
	Zn222	Zn	0.001818	0.491324	0.745602
	Zn223	Zn	0.000501	0.492718	0.243216
	Zn224	Zn	0.501072	0.741015	-0.007230
	Zn225	Zn	0.500064	0.242540	-0.007013
	Zn226	Zn	0.750351	-0.006842	0.494082
	Zn227	Zn	0.251512	-0.006759	0.494596
	N228	N	0.415265	0.956538	0.671840
	N229	N	0.587241	0.028714	0.673876
	N230	N	0.587185	0.956421	0.314825
	N231	N	0.415071	0.027469	0.315031
	N232	N	0.683094	0.403268	0.958511
	N233	N	0.683422	0.581574	0.026819
	N234	N	0.318611	0.580809	0.959421
	N235	N	0.319531	0.404558	0.028234
	N236	N	0.964183	0.671492	0.410180
	N237	N	0.035220	0.673641	0.583275
	N238	N	0.965038	0.312720	0.580225
	N239	N	0.035544	0.312024	0.407608
	N240	N	0.966531	0.403426	0.676363
	N241	N	0.036481	0.578731	0.675072
	N242	N	0.965881	0.580738	0.313451
	N243	N	0.034989	0.404530	0.312734
	N244	N	0.415828	0.669190	0.957177
	N245	N	0.586494	0.670388	0.028633
	N246	N	0.586975	0.312622	0.956995
	N247	N	0.415338	0.314406	0.029247
	N248	N	0.681506	0.957808	0.406111
	N249	N	0.681255	0.028590	0.581678
	N250	N	0.320629	0.958088	0.581531
	N251	N	0.320568	0.027166	0.406574
	N252	N	0.914203	0.456712	0.173285
	N253	N	0.086243	0.528497	0.172238
	N254	N	0.088466	0.455510	0.814378
	N255	N	0.916344	0.527529	0.815925
	N256	N	0.181816	0.904919	0.460089
	N257	N	0.183081	0.081764	0.529292
	N258	N	0.819629	0.080819	0.459430
	N259	N	0.819006	0.904875	0.529291
	N260	N	0.463970	0.171655	0.907451
	N261	N	0.535735	0.172625	0.080488
	N262	N	0.464765	0.812600	0.078224
	N263	N	0.536040	0.811698	0.905831
	N264	N	0.466801	0.902951	0.175389
	N265	N	0.536044	0.079056	0.174121
	N266	N	0.463899	0.078351	0.814000
	N267	N	0.534628	0.903376	0.811055
	N268	N	0.916237	0.169580	0.457755
	N269	N	0.086040	0.170602	0.531069
	N270	N	0.085367	0.814705	0.459004
	N271	N	0.915099	0.815266	0.531521
	N272	N	0.181320	0.456349	0.906377
	N273	N	0.180156	0.528039	0.080165
	N274	N	0.820490	0.457238	0.081755
	N275	N	0.822633	0.526997	0.907559
	O276	O	0.710499	0.484750	0.351352
	H277	H	0.709866	0.495369	0.360309
	H278	H	0.718336	0.491657	0.333654
	O279	O	0.545184	0.586564	0.454760
	H280	H	0.550433	0.584668	0.462256
	H281	H	0.554652	0.588887	0.467058
	O282	O	1.110298	0.806275	0.175802
	H283	H	1.113951	0.827703	0.166359
	H284	H	1.104101	0.811211	0.165913
	O285	O	0.547381	0.464107	0.709385
	H286	H	0.556483	0.453996	0.713567
	H287	H	0.551566	0.456996	0.704406
	O288	O	-0.176149	0.182353	0.012751
	H289	H	-0.184269	0.203620	0.006702
	H290	H	-0.182563	0.162194	0.002090
	O291	O	1.073010	0.915300	-0.074832
	H292	H	1.083146	0.907451	-0.081236
	H293	H	1.079044	0.909615	-0.076932
	O294	O	-0.169838	1.127962	0.105451
	H295	H	-0.178412	1.126790	0.107374
	H296	H	-0.159068	1.122498	0.094141
	O297	O	0.401976	0.695044	0.288767
	H298	H	0.422370	0.692644	0.294286
	H299	H	0.420379	0.687283	0.276789
	O300	O	0.440582	0.443999	0.403646
	H301	H	0.441144	0.453430	0.403741
	H302	H	0.441032	0.464121	0.409272
	O303	O	0.372208	0.434826	0.547326
	H304	H	0.369139	0.413999	0.558882
	H305	H	0.386257	0.443251	0.554420
	O306	O	0.043229	0.870914	1.104887
	H307	H	0.038934	0.866028	1.118422
	H308	H	0.063581	0.869046	1.098134
	O309	O	0.786909	0.829077	0.831491
	H310	H	0.797263	0.843350	0.814993
	H311	H	0.787572	0.825321	0.842172
	O312	O	0.542026	0.697811	0.705395
	H313	H	0.549864	0.709709	0.712666
	H314	H	0.538405	0.704517	0.717184
	O315	O	-0.044398	0.025402	0.805362
	H316	H	-0.031020	0.020209	0.814643
	H317	H	-0.027406	0.030709	0.796601
	O318	O	-0.361683	0.426297	0.570679
	H319	H	-0.381413	0.427816	0.567744
	H320	H	-0.367631	0.432139	0.571950
	O321	O	0.329155	0.663779	0.686879
	H322	H	0.343344	0.645345	0.685159
	H323	H	0.331400	0.648088	0.662968
	O324	O	1.051246	0.178285	1.058885
	H325	H	1.029793	0.175543	1.048002
	H326	H	1.034261	0.176939	1.052297
	O327	O	1.291926	0.397847	0.584372
	H328	H	1.288136	0.413342	0.576528
	H329	H	1.298943	0.383238	0.563544
	O330	O	1.153441	0.050191	-0.111066
	H331	H	1.159749	0.063921	-0.096600
	H332	H	1.151329	0.057162	-0.106338
	O333	O	1.001696	0.791296	0.976742
	H334	H	1.011986	0.792711	0.953962
	H335	H	1.013192	0.789708	0.975845
	O336	O	0.793578	0.016151	0.801000
	H337	H	0.798447	0.019600	0.813099
	H338	H	0.787642	0.018151	0.789498
	O339	O	0.422478	0.357957	0.369660
	H340	H	0.418539	0.364511	0.382158
	H341	H	0.435660	0.376509	0.366321
	O342	O	0.784152	0.771366	0.213374
	H343	H	0.797222	0.775287	0.195394
	H344	H	0.807444	0.777353	0.197146
	O345	O	-0.203057	0.256433	0.199453
	H346	H	-0.203061	0.246882	0.181888
	H347	H	-0.207357	0.277628	0.192296
	O348	O	0.965940	-0.013031	1.129224
	H349	H	0.969565	-0.010795	1.124215
	H350	H	0.961286	-0.001172	1.125528
	O351	O	0.819396	1.176648	-0.195205
	H352	H	0.815985	1.181199	-0.195433
	H353	H	0.832660	1.159868	-0.206342
	O354	O	0.378227	0.372130	0.656642
	H355	H	0.366127	0.389032	0.655366
	H356	H	0.369263	0.367583	0.652409
	O357	O	1.002536	0.901988	0.887619
	H358	H	0.997994	0.901311	0.889618
	H359	H	1.012839	0.902522	0.876670
	O360	O	0.630577	0.403551	0.613467
	H361	H	0.629998	0.403794	0.597563
	H362	H	0.625978	0.392654	0.601100
	O363	O	0.338551	0.690269	0.514379
	H364	H	0.321095	0.709718	0.495232
	H365	H	0.353675	0.684459	0.490449
	O366	O	0.994699	-0.106882	0.987209
	H367	H	1.003528	-0.115054	0.978843
	H368	H	0.979529	-0.094307	0.977160
	O369	O	0.306694	0.497367	0.338194
	H370	H	0.294799	0.496151	0.331183
	H371	H	0.305825	0.499076	0.337315
	O372	O	0.307384	0.331749	0.327963
	H373	H	0.311667	0.348255	0.337056
	H374	H	0.323527	0.347253	0.344832
	O375	O	0.009124	1.118558	1.165979
	H376	H	0.025130	1.115894	1.170844
	H377	H	0.024920	1.120785	1.175809
	O378	O	0.478650	0.363238	0.477732
	H379	H	0.490102	0.364318	0.466454
	H380	H	0.486454	0.367539	0.469793
	O381	O	0.827594	0.068509	-0.013465
	H382	H	0.823574	0.073334	-0.011404
	H383	H	0.829344	0.048181	-0.023331
	O384	O	0.204658	-0.206853	0.796746
	H385	H	0.215483	-0.190516	0.807221
	H386	H	0.206291	-0.219401	0.781238
	O387	O	-0.036743	1.171331	0.957842
	H388	H	-0.044138	1.184893	0.944672
	H389	H	-0.059807	1.164023	0.959957
	O390	O	0.155307	-0.032644	1.158709
	H391	H	0.163767	-0.022670	1.140880
	H392	H	0.175163	-0.013012	1.179087
	O393	O	1.081989	0.936082	-0.007888
	H394	H	1.075986	0.929588	-0.016563
	H395	H	1.095309	0.939892	-0.007344
	O396	O	0.633218	0.538817	0.498235
	H397	H	0.629349	0.532623	0.497272
	H398	H	0.632946	0.551084	0.505371
	O399	O	0.284170	0.704801	0.354709
	H400	H	0.261360	0.732858	0.326130
	H401	H	0.308814	0.707738	0.338531
	O402	O	-0.207079	-0.156277	1.015080
	H403	H	-0.205903	-0.147262	1.013862
	H404	H	-0.217851	-0.168077	1.002237
	O405	O	0.113331	0.141032	0.098404
	H406	H	0.119915	0.162122	0.111792
	H407	H	0.098587	0.138050	0.105632
	O408	O	0.395867	0.624487	0.536711
	H409	H	0.394395	0.628615	0.556419
	H410	H	0.383810	0.642331	0.531846
	O411	O	0.446288	0.286603	0.494896
	H412	H	0.451781	0.297355	0.488363
	H413	H	0.457769	0.272747	0.504224
	O414	O	0.515672	0.600425	0.309196
	H415	H	0.528222	0.610012	0.293551
	H416	H	0.513967	0.597742	0.330545
	O417	O	0.398814	0.408505	0.330154
	H418	H	0.386017	0.420377	0.307478
	H419	H	0.396433	0.421177	0.322089
	O420	O	0.651474	0.700452	0.500451
	H421	H	0.648867	0.697842	0.519830
	H422	H	0.667564	0.707742	0.509398
	O423	O	0.206523	0.859419	0.025082
	H424	H	0.206429	0.867547	0.036725
	H425	H	0.212850	0.850187	0.010430
	O426	O	1.173478	1.193184	0.976858
	H427	H	1.190564	1.201117	0.990155
	H428	H	1.162821	1.200847	0.978577
	O429	O	0.458868	0.375515	0.620407
	H430	H	0.452422	0.359995	0.622590
	H431	H	0.440250	0.365853	0.623282
	O432	O	0.644782	0.629008	0.318349
	H433	H	0.644436	0.608923	0.334180
	H434	H	0.665092	0.650409	0.294558
	O435	O	0.216584	0.120828	0.206399
	H436	H	0.234801	0.147050	0.220030
	H437	H	0.220094	0.127657	0.211698
	O438	O	1.023032	-0.209135	-0.135414
	H439	H	1.035687	-0.214811	-0.151961
	H440	H	1.043396	-0.205594	-0.135951
	O441	O	0.511998	0.527140	0.617517
	H442	H	0.525744	0.536224	0.627399
	H443	H	0.529315	0.539775	0.619619
	O444	O	0.085365	0.927455	0.833000
	H445	H	0.088851	0.926352	0.829891
	H446	H	0.093899	0.938003	0.823276
	O447	O	0.437653	0.452240	0.417892
	H448	H	0.437257	0.463009	0.425216
	H449	H	0.445530	0.462693	0.427168
	O450	O	0.707859	0.695880	0.638148
	H451	H	0.677489	0.691456	0.623223
	H452	H	0.722106	0.677379	0.642401
	O453	O	0.712715	0.512949	0.705166
	H454	H	0.717569	0.504991	0.718095
	H455	H	0.724269	0.513755	0.687706
	O456	O	0.604517	0.289301	0.291668
	H457	H	0.585008	0.273804	0.277165
	H458	H	0.620755	0.299629	0.288851
	O459	O	0.721203	0.273732	0.465401
	H460	H	0.737730	0.254214	0.447164
	H461	H	0.723571	0.269333	0.433297
	O462	O	0.124039	1.029918	0.873342
	H463	H	0.124278	1.038777	0.876545
	H464	H	0.110168	1.046186	0.873678
	O465	O	0.800076	-0.036668	0.195966
	H466	H	0.795903	-0.058025	0.196210
	H467	H	0.797940	-0.034309	0.216197
