data_Molecule from HDF5

_cell_length_a		16.185014
_cell_length_b		16.358196
_cell_length_c		16.273773
_cell_angle_alpha	89.755261
_cell_angle_beta	90.035529
_cell_angle_gamma	89.955883
_symmetry_space_group_name_H-M	'P 1'
_symmetry_Int_Tables_number		1

loop_
	_symmetry_equiv_pos_as_xyz
	x,y,z

loop_
	_atom_site_label
	_atom_site_type_symbol
	_atom_site_fract_x
	_atom_site_fract_y
	_atom_site_fract_z
	H0	H	0.403419	0.839904	0.715278
	H1	H	0.603020	0.165510	0.711130
	H2	H	0.603196	0.839189	0.282775
	H3	H	0.404389	0.164892	0.281268
	H4	H	0.715814	0.408200	0.831899
	H5	H	0.717878	0.599483	0.161543
	H6	H	0.289557	0.601386	0.833388
	H7	H	0.290799	0.404300	0.161593
	H8	H	0.838870	0.716794	0.397354
	H9	H	0.166789	0.716288	0.595928
	H10	H	0.838430	0.287238	0.595997
	H11	H	0.167528	0.287326	0.399621
	H12	H	0.838843	0.402662	0.711651
	H13	H	0.168217	0.597595	0.708483
	H14	H	0.838942	0.599497	0.282791
	H15	H	0.169402	0.405077	0.286409
	H16	H	0.404943	0.717840	0.833375
	H17	H	0.603705	0.717164	0.160718
	H18	H	0.604954	0.288044	0.833634
	H19	H	0.404417	0.286719	0.160375
	H20	H	0.716920	0.838016	0.401557
	H21	H	0.716686	0.165636	0.592609
	H22	H	0.289390	0.838182	0.595668
	H23	H	0.288759	0.165140	0.398136
	H24	H	0.905546	0.338877	0.212495
	H25	H	0.103475	0.664725	0.211923
	H26	H	0.101983	0.338446	0.783655
	H27	H	0.904575	0.664562	0.780371
	H28	H	0.215963	0.905718	0.333255
	H29	H	0.217266	0.098374	0.661202
	H30	H	0.790592	0.098245	0.333122
	H31	H	0.790801	0.905286	0.661803
	H32	H	0.339909	0.218113	0.897120
	H33	H	0.668600	0.216278	0.096042
	H34	H	0.339087	0.788672	0.096012
	H35	H	0.668790	0.788337	0.899323
	H36	H	0.339002	0.904979	0.210930
	H37	H	0.668874	0.098488	0.209987
	H38	H	0.338997	0.101113	0.782425
	H39	H	0.669226	0.906430	0.785094
	H40	H	0.902797	0.217495	0.334263
	H41	H	0.103330	0.215339	0.661175
	H42	H	0.102422	0.787891	0.334209
	H43	H	0.902467	0.785615	0.660493
	H44	H	0.218697	0.338811	0.900521
	H45	H	0.216954	0.665910	0.093248
	H46	H	0.788872	0.338839	0.096052
	H47	H	0.790284	0.665741	0.898924
	H48	H	0.406305	0.119409	0.590560
	H49	H	0.599336	0.882686	0.600746
	H50	H	0.593570	0.116459	0.404302
	H51	H	0.412070	0.883382	0.392738
	H52	H	0.590981	0.409080	0.111380
	H53	H	0.590902	0.588915	0.884562
	H54	H	0.419187	0.594287	0.111112
	H55	H	0.408787	0.417484	0.882279
	H56	H	0.121640	0.596164	0.401471
	H57	H	0.886880	0.592867	0.586461
	H58	H	0.119392	0.407468	0.585843
	H59	H	0.885315	0.413058	0.398962
	H60	H	0.120038	0.410976	0.593598
	H61	H	0.885569	0.592275	0.590650
	H62	H	0.121142	0.598748	0.406328
	H63	H	0.883867	0.402431	0.403688
	H64	H	0.409043	0.604096	0.116129
	H65	H	0.591163	0.606295	0.879750
	H66	H	0.598331	0.403055	0.115904
	H67	H	0.419476	0.407924	0.882945
	H68	H	0.601594	0.119209	0.404923
	H69	H	0.587644	0.888806	0.591041
	H70	H	0.414141	0.117306	0.593137
	H71	H	0.418956	0.890028	0.409850
	H72	H	0.911393	0.616562	0.088324
	H73	H	0.100968	0.385178	0.090223
	H74	H	0.083930	0.612741	0.906898
	H75	H	0.906384	0.384309	0.901672
	H76	H	0.091967	0.905612	0.613770
	H77	H	0.094166	0.100542	0.380123
	H78	H	0.914440	0.096616	0.614122
	H79	H	0.907799	0.909042	0.379828
	H80	H	0.616657	0.085620	0.909018
	H81	H	0.390437	0.086082	0.086873
	H82	H	0.620579	0.907511	0.089129
	H83	H	0.386709	0.909253	0.905175
	H84	H	0.620836	0.909619	0.090621
	H85	H	0.382694	0.098278	0.097741
	H86	H	0.624685	0.095966	0.891764
	H87	H	0.387692	0.909687	0.905916
	H88	H	0.907597	0.097540	0.615661
	H89	H	0.100329	0.093757	0.379961
	H90	H	0.099809	0.904679	0.616638
	H91	H	0.912450	0.909939	0.381650
	H92	H	0.106697	0.618140	0.910828
	H93	H	0.098068	0.385345	0.095672
	H94	H	0.909488	0.618598	0.090900
	H95	H	0.914751	0.386319	0.902063
	H96	H	0.411995	0.115694	0.585913
	H97	H	0.602688	0.886132	0.584754
	H98	H	0.597016	0.118904	0.396966
	H99	H	0.400053	0.884274	0.407942
	H100	H	0.600656	0.412783	0.113201
	H101	H	0.606664	0.596237	0.877868
	H102	H	0.405623	0.589653	0.114306
	H103	H	0.406556	0.404507	0.877497
	H104	H	0.119133	0.593301	0.406206
	H105	H	0.885176	0.596462	0.588561
	H106	H	0.122432	0.403478	0.592905
	H107	H	0.888742	0.410796	0.410622
	H108	H	0.913055	0.617497	0.091925
	H109	H	0.095363	0.387069	0.090724
	H110	H	0.096895	0.622509	0.889560
	H111	H	0.909668	0.387254	0.908841
	H112	H	0.097739	0.912331	0.613236
	H113	H	0.092475	0.092672	0.382950
	H114	H	0.909829	0.091108	0.613344
	H115	H	0.911279	0.905815	0.379998
	H116	H	0.622706	0.106313	0.910173
	H117	H	0.387247	0.102434	0.080908
	H118	H	0.621712	0.907348	0.091470
	H119	H	0.386205	0.910385	0.905072
	C120	C	0.381968	0.009958	0.618913
	C121	C	0.625069	0.993780	0.619194
	C122	C	0.625484	0.010048	0.375314
	C123	C	0.381772	0.993592	0.375010
	C124	C	0.625478	0.380786	0.005221
	C125	C	0.624837	0.624255	0.989091
	C126	C	0.382604	0.624593	0.005594
	C127	C	0.382934	0.380930	0.989144
	C128	C	0.012132	0.624165	0.375274
	C129	C	0.994323	0.622391	0.617543
	C130	C	0.011468	0.379343	0.619080
	C131	C	0.995019	0.380362	0.376332
	C132	C	0.882104	0.510106	0.118942
	C133	C	0.125976	0.493936	0.119430
	C134	C	0.125181	0.510132	0.874729
	C135	C	0.881744	0.493697	0.875156
	C136	C	0.124480	0.880162	0.505811
	C137	C	0.124636	0.123475	0.489187
	C138	C	0.882004	0.123493	0.506017
	C139	C	0.881836	0.880083	0.488740
	C140	C	0.512500	0.124655	0.874893
	C141	C	0.495685	0.123601	0.117324
	C142	C	0.512428	0.879906	0.119198
	C143	C	0.495924	0.881924	0.877161
	C144	C	0.383730	0.887764	0.675600
	C145	C	0.622685	0.116813	0.673023
	C146	C	0.622943	0.887310	0.321260
	C147	C	0.383935	0.116347	0.319474
	C148	C	0.679279	0.385870	0.881370
	C149	C	0.680437	0.620852	0.112450
	C150	C	0.327389	0.622127	0.882077
	C151	C	0.328435	0.384038	0.112469
	C152	C	0.888152	0.679017	0.377284
	C153	C	0.118026	0.677891	0.615823
	C154	C	0.887459	0.325003	0.616354
	C155	C	0.118712	0.325582	0.379641
	C156	C	0.887695	0.382477	0.673666
	C157	C	0.118594	0.618959	0.671849
	C158	C	0.887956	0.620711	0.320412
	C159	C	0.119658	0.384219	0.323179
	C160	C	0.384436	0.680229	0.882385
	C161	C	0.623685	0.679143	0.112039
	C162	C	0.624027	0.326254	0.882240
	C163	C	0.384896	0.325322	0.111828
	C164	C	0.680013	0.887048	0.379690
	C165	C	0.679389	0.116863	0.614394
	C166	C	0.326875	0.887201	0.616549
	C167	C	0.326542	0.116293	0.377704
	C168	C	0.884527	0.387426	0.174436
	C169	C	0.123542	0.616268	0.174055
	C170	C	0.122694	0.387285	0.821144
	C171	C	0.884340	0.616171	0.818918
	C172	C	0.178945	0.884182	0.382525
	C173	C	0.179604	0.119511	0.612372
	C174	C	0.827533	0.119674	0.382217
	C175	C	0.827451	0.883485	0.612558
	C176	C	0.388670	0.179848	0.877000
	C177	C	0.619723	0.177673	0.115078
	C178	C	0.388411	0.825764	0.116435
	C179	C	0.619631	0.826351	0.879167
	C180	C	0.388153	0.883696	0.173389
	C181	C	0.619781	0.119499	0.172109
	C182	C	0.388359	0.121650	0.820052
	C183	C	0.620088	0.885008	0.822465
	C184	C	0.883600	0.178468	0.382624
	C185	C	0.122606	0.177496	0.612337
	C186	C	0.122516	0.825521	0.383051
	C187	C	0.883228	0.824363	0.611900
	C188	C	0.180458	0.387328	0.879510
	C189	C	0.180005	0.616884	0.115149
	C190	C	0.826928	0.387473	0.116293
	C191	C	0.827623	0.616873	0.877764
	C192	C	0.404269	0.095321	0.596334
	C193	C	0.602953	0.907890	0.598406
	C194	C	0.603720	0.095994	0.395991
	C195	C	0.404069	0.907982	0.397016
	C196	C	0.603313	0.401992	0.091335
	C197	C	0.602852	0.603116	0.902951
	C198	C	0.404713	0.602408	0.091454
	C199	C	0.405196	0.403376	0.903037
	C200	C	0.098368	0.602498	0.397868
	C201	C	0.908046	0.600294	0.595198
	C202	C	0.098153	0.400852	0.597187
	C203	C	0.908168	0.402325	0.397936
	C204	C	0.904621	0.595562	0.096850
	C205	C	0.104485	0.407958	0.098400
	C206	C	0.102497	0.595762	0.896191
	C207	C	0.903839	0.408189	0.897606
	C208	C	0.102838	0.901348	0.592225
	C209	C	0.102095	0.102018	0.403170
	C210	C	0.904234	0.101647	0.592052
	C211	C	0.903896	0.901931	0.402735
	C212	C	0.598938	0.102487	0.897094
	C213	C	0.409265	0.101942	0.095164
	C214	C	0.598809	0.901860	0.097152
	C215	C	0.409223	0.903657	0.898984
	Zn216	Zn	0.504216	0.002400	0.747827
	Zn217	Zn	0.503859	0.002249	0.246307
	Zn218	Zn	0.753318	0.502493	-0.003173
	Zn219	Zn	0.254343	0.502720	-0.002876
	Zn220	Zn	0.002997	0.751806	0.497564
	Zn221	Zn	0.002996	0.252095	0.497702
	Zn222	Zn	0.003103	0.501351	0.745958
	Zn223	Zn	0.004027	0.501923	0.248204
	Zn224	Zn	0.503892	0.752942	-0.002417
	Zn225	Zn	0.504294	0.252533	-0.003069
	Zn226	Zn	0.753798	0.001874	0.497526
	Zn227	Zn	0.252977	0.001935	0.497336
	N228	N	0.417158	0.965027	0.677343
	N229	N	0.589619	0.039326	0.675889
	N230	N	0.589641	0.964734	0.318443
	N231	N	0.417562	0.039068	0.317619
	N232	N	0.680288	0.419069	0.958886
	N233	N	0.681188	0.587223	0.035060
	N234	N	0.325812	0.588272	0.959630
	N235	N	0.326968	0.417957	0.034975
	N236	N	0.966287	0.681385	0.410574
	N237	N	0.039863	0.680021	0.582847
	N238	N	0.965484	0.323093	0.582954
	N239	N	0.040171	0.323048	0.411696
	N240	N	0.965922	0.415378	0.675375
	N241	N	0.040840	0.585000	0.672850
	N242	N	0.965957	0.587271	0.319144
	N243	N	0.041590	0.417719	0.321143
	N244	N	0.418225	0.681605	0.960001
	N245	N	0.589926	0.681310	0.034564
	N246	N	0.591392	0.322999	0.960287
	N247	N	0.417830	0.323322	0.033985
	N248	N	0.681306	0.964239	0.412779
	N249	N	0.681002	0.039496	0.581719
	N250	N	0.325805	0.964089	0.581940
	N251	N	0.325195	0.039075	0.411548
	N252	N	0.918212	0.464636	0.176217
	N253	N	0.090868	0.538750	0.177029
	N254	N	0.089159	0.464464	0.818364
	N255	N	0.917361	0.538602	0.817234
	N256	N	0.180359	0.917263	0.459979
	N257	N	0.180940	0.086653	0.534770
	N258	N	0.826427	0.086110	0.459892
	N259	N	0.826306	0.917382	0.535084
	N260	N	0.466826	0.181795	0.910261
	N261	N	0.541649	0.180159	0.081803
	N262	N	0.466719	0.823200	0.083659
	N263	N	0.541426	0.824402	0.912327
	N264	N	0.466173	0.916804	0.175205
	N265	N	0.541655	0.086238	0.173556
	N266	N	0.466404	0.088036	0.818651
	N267	N	0.542138	0.918722	0.821081
	N268	N	0.916555	0.180962	0.460593
	N269	N	0.089251	0.180080	0.534522
	N270	N	0.089465	0.822997	0.460888
	N271	N	0.916201	0.822002	0.534002
	N272	N	0.182280	0.464966	0.911971
	N273	N	0.181434	0.539769	0.081724
	N274	N	0.825298	0.464634	0.082471
	N275	N	0.826112	0.539914	0.912026
	O276	O	-0.013358	0.027638	1.038028
	H277	H	-0.017289	0.027169	1.042989
	H278	H	-0.011746	0.029335	1.043735
	O279	O	0.437715	0.465027	0.570031
	H280	H	0.430709	0.469895	0.561307
	H281	H	0.437080	0.463786	0.576040
	O282	O	0.447154	0.472685	0.505502
	H283	H	0.444045	0.466891	0.517864
	H284	H	0.450474	0.479128	0.500151
	O285	O	0.459013	0.475106	0.529141
	H286	H	0.450819	0.477604	0.518659
	H287	H	0.463730	0.474136	0.524154
	O288	O	0.402254	0.512125	0.524004
	H289	H	0.398417	0.520286	0.521605
	H290	H	0.396438	0.513496	0.523016
	O291	O	-0.022517	1.029593	1.022251
	H292	H	-0.025158	1.029853	1.021110
	H293	H	-0.021149	1.031770	1.025893
	O294	O	0.419236	0.497536	0.503714
	H295	H	0.419890	0.488409	0.504833
	H296	H	0.421264	0.495211	0.513684
	O297	O	0.983694	0.012996	0.027690
	H298	H	0.980564	0.012787	0.024755
	H299	H	0.985467	0.013575	0.020577
