data_Molecule from HDF5

_cell_length_a		16.317339
_cell_length_b		16.264338
_cell_length_c		16.263938
_cell_angle_alpha	89.997444
_cell_angle_beta	90.065597
_cell_angle_gamma	89.984600
_symmetry_space_group_name_H-M	'P 1'
_symmetry_Int_Tables_number		1

loop_
	_symmetry_equiv_pos_as_xyz
	x,y,z

loop_
	_atom_site_label
	_atom_site_type_symbol
	_atom_site_fract_x
	_atom_site_fract_y
	_atom_site_fract_z
	H0	H	0.402605	0.836199	0.714440
	H1	H	0.598425	0.164229	0.714245
	H2	H	0.596955	0.835371	0.287654
	H3	H	0.402790	0.164433	0.287274
	H4	H	0.712914	0.403498	0.835843
	H5	H	0.714881	0.599096	0.163536
	H6	H	0.285771	0.598043	0.836533
	H7	H	0.286179	0.401135	0.164043
	H8	H	0.836338	0.713662	0.401900
	H9	H	0.163793	0.713335	0.596876
	H10	H	0.836459	0.286337	0.597144
	H11	H	0.162970	0.285687	0.401422
	H12	H	0.836360	0.400886	0.714498
	H13	H	0.163625	0.597290	0.713298
	H14	H	0.836453	0.597499	0.285186
	H15	H	0.162890	0.401194	0.285251
	H16	H	0.402037	0.714187	0.836060
	H17	H	0.597278	0.713490	0.164122
	H18	H	0.598018	0.286330	0.835740
	H19	H	0.404548	0.287782	0.163847
	H20	H	0.713976	0.836039	0.402351
	H21	H	0.715800	0.163058	0.600171
	H22	H	0.285970	0.836256	0.599229
	H23	H	0.285027	0.163548	0.402342
	H24	H	0.901763	0.335844	0.213177
	H25	H	0.097913	0.663675	0.213104
	H26	H	0.097353	0.335461	0.786462
	H27	H	0.902551	0.664161	0.785904
	H28	H	0.213655	0.901059	0.336386
	H29	H	0.214435	0.098115	0.663738
	H30	H	0.786131	0.097728	0.336031
	H31	H	0.786428	0.901162	0.663651
	H32	H	0.336902	0.214016	0.902277
	H33	H	0.663321	0.214382	0.098019
	H34	H	0.336902	0.786172	0.097569
	H35	H	0.663627	0.785374	0.901888
	H36	H	0.336448	0.903002	0.213074
	H37	H	0.663775	0.097432	0.214003
	H38	H	0.336347	0.098390	0.785809
	H39	H	0.663554	0.900347	0.784706
	H40	H	0.903045	0.212987	0.335619
	H41	H	0.098785	0.214464	0.664086
	H42	H	0.097504	0.786515	0.336177
	H43	H	0.902782	0.785651	0.663767
	H44	H	0.214957	0.336542	0.900865
	H45	H	0.213959	0.663773	0.098305
	H46	H	0.785830	0.335857	0.097433
	H47	H	0.785371	0.663736	0.900959
	H48	H	0.399028	0.122908	0.606978
	H49	H	0.592459	0.883102	0.595108
	H50	H	0.588551	0.113334	0.413337
	H51	H	0.400754	0.879130	0.399898
	H52	H	0.596991	0.405956	0.118068
	H53	H	0.590701	0.596032	0.883364
	H54	H	0.404320	0.595644	0.118201
	H55	H	0.391107	0.404580	0.878148
	H56	H	0.115800	0.592914	0.406594
	H57	H	0.887133	0.589289	0.586443
	H58	H	0.115784	0.411562	0.597058
	H59	H	0.886353	0.415097	0.406909
	H60	H	0.118377	0.401252	0.596093
	H61	H	0.882391	0.589987	0.599882
	H62	H	0.116787	0.592763	0.404182
	H63	H	0.880037	0.403861	0.398909
	H64	H	0.406106	0.590590	0.116654
	H65	H	0.596242	0.592642	0.882877
	H66	H	0.592471	0.411298	0.114770
	H67	H	0.410564	0.421398	0.888584
	H68	H	0.601391	0.118663	0.409422
	H69	H	0.591916	0.884286	0.591178
	H70	H	0.421892	0.111883	0.592838
	H71	H	0.414818	0.884906	0.405263
	H72	H	0.903646	0.620161	0.100727
	H73	H	0.092137	0.384343	0.087516
	H74	H	0.086829	0.616977	0.899786
	H75	H	0.902940	0.383711	0.909001
	H76	H	0.085510	0.911502	0.613839
	H77	H	0.098992	0.096322	0.380726
	H78	H	0.906441	0.090014	0.616382
	H79	H	0.902665	0.908801	0.382680
	H80	H	0.615670	0.094366	0.911374
	H81	H	0.382520	0.099944	0.090532
	H82	H	0.614613	0.909009	0.090682
	H83	H	0.385869	0.907881	0.911425
	H84	H	0.617575	0.908458	0.099942
	H85	H	0.385682	0.088824	0.092270
	H86	H	0.615954	0.089000	0.905345
	H87	H	0.384918	0.911100	0.903804
	H88	H	0.910301	0.093506	0.615763
	H89	H	0.093242	0.084808	0.385884
	H90	H	0.092828	0.897411	0.619445
	H91	H	0.909031	0.908815	0.384038
	H92	H	0.091715	0.613740	0.915324
	H93	H	0.097905	0.381693	0.094168
	H94	H	0.916514	0.613221	0.091227
	H95	H	0.904832	0.381487	0.903163
	H96	H	0.396586	0.115779	0.578876
	H97	H	0.595821	0.883096	0.592661
	H98	H	0.590334	0.117545	0.399798
	H99	H	0.402283	0.884685	0.415131
	H100	H	0.589938	0.404679	0.116902
	H101	H	0.590924	0.589840	0.884558
	H102	H	0.409270	0.594706	0.116457
	H103	H	0.416532	0.395027	0.882254
	H104	H	0.116870	0.595060	0.405527
	H105	H	0.881417	0.601104	0.592160
	H106	H	0.114543	0.407258	0.587752
	H107	H	0.884557	0.401885	0.412478
	H108	H	0.900454	0.615754	0.084215
	H109	H	0.089034	0.382649	0.096271
	H110	H	0.101995	0.620142	0.904026
	H111	H	0.909424	0.383682	0.907013
	H112	H	0.101329	0.911167	0.617941
	H113	H	0.084868	0.096089	0.384966
	H114	H	0.905570	0.095333	0.617817
	H115	H	0.906501	0.903188	0.382275
	H116	H	0.618683	0.096918	0.903937
	H117	H	0.381064	0.094571	0.101029
	H118	H	0.618868	0.901113	0.094120
	H119	H	0.382367	0.903390	0.905173
	C120	C	0.378138	0.008400	0.621653
	C121	C	0.621723	0.991770	0.621752
	C122	C	0.621422	0.008088	0.379068
	C123	C	0.378201	0.991460	0.378655
	C124	C	0.621568	0.378699	0.008262
	C125	C	0.621510	0.621681	0.992145
	C126	C	0.378369	0.621816	0.008636
	C127	C	0.378421	0.378781	0.991342
	C128	C	0.008390	0.622066	0.377339
	C129	C	0.991449	0.621766	0.621554
	C130	C	0.008200	0.378366	0.621604
	C131	C	0.991573	0.378576	0.378330
	C132	C	0.878402	0.508199	0.120587
	C133	C	0.121687	0.491208	0.121183
	C134	C	0.121506	0.508342	0.878178
	C135	C	0.877847	0.491234	0.877949
	C136	C	0.121220	0.878596	0.508552
	C137	C	0.121494	0.121462	0.491661
	C138	C	0.878876	0.121442	0.508187
	C139	C	0.878493	0.878381	0.491567
	C140	C	0.508579	0.121759	0.878251
	C141	C	0.491577	0.121805	0.122280
	C142	C	0.508878	0.878245	0.122323
	C143	C	0.492362	0.878947	0.878320
	C144	C	0.381846	0.885132	0.676447
	C145	C	0.619073	0.114964	0.676783
	C146	C	0.618283	0.884665	0.324698
	C147	C	0.381564	0.115250	0.324506
	C148	C	0.675494	0.382153	0.884606
	C149	C	0.676888	0.619184	0.114912
	C150	C	0.323483	0.619134	0.885412
	C151	C	0.323969	0.381133	0.114774
	C152	C	0.885277	0.676537	0.380753
	C153	C	0.114813	0.675804	0.618099
	C154	C	0.885066	0.323703	0.618398
	C155	C	0.114544	0.323892	0.381598
	C156	C	0.885108	0.380624	0.676572
	C157	C	0.114759	0.618290	0.675972
	C158	C	0.885307	0.618926	0.322793
	C159	C	0.114624	0.381308	0.323835
	C160	C	0.381385	0.676617	0.885201
	C161	C	0.618048	0.675710	0.115254
	C162	C	0.618313	0.324190	0.884717
	C163	C	0.382906	0.324935	0.115252
	C164	C	0.675818	0.884661	0.382281
	C165	C	0.677466	0.114528	0.620290
	C166	C	0.323691	0.885030	0.619384
	C167	C	0.323302	0.114780	0.381635
	C168	C	0.881150	0.384796	0.175497
	C169	C	0.118250	0.614859	0.175470
	C170	C	0.118036	0.384622	0.824154
	C171	C	0.881254	0.614942	0.823433
	C172	C	0.176013	0.880910	0.385327
	C173	C	0.176475	0.118732	0.615030
	C174	C	0.823965	0.118380	0.384882
	C175	C	0.824239	0.880721	0.614852
	C176	C	0.385406	0.176052	0.881590
	C177	C	0.614818	0.176265	0.118747
	C178	C	0.385714	0.823833	0.118690
	C179	C	0.615006	0.823429	0.881147
	C180	C	0.385423	0.881435	0.176336
	C181	C	0.614923	0.118428	0.176577
	C182	C	0.385331	0.118729	0.823546
	C183	C	0.615224	0.880919	0.823371
	C184	C	0.881821	0.175768	0.384689
	C185	C	0.118898	0.176488	0.615091
	C186	C	0.118216	0.824122	0.384968
	C187	C	0.882159	0.823610	0.614936
	C188	C	0.176365	0.385105	0.881041
	C189	C	0.176110	0.614692	0.118508
	C190	C	0.823376	0.384847	0.118221
	C191	C	0.823067	0.614923	0.880492
	C192	C	0.399483	0.094584	0.599356
	C193	C	0.599836	0.905733	0.599531
	C194	C	0.599867	0.094257	0.400995
	C195	C	0.399763	0.905047	0.400332
	C196	C	0.599718	0.400845	0.094366
	C197	C	0.599210	0.599350	0.905711
	C198	C	0.400211	0.600016	0.094954
	C199	C	0.399819	0.400415	0.905171
	C200	C	0.094359	0.600222	0.399015
	C201	C	0.905737	0.599836	0.599378
	C202	C	0.093982	0.400086	0.600079
	C203	C	0.905670	0.400598	0.399817
	C204	C	0.900443	0.593969	0.098472
	C205	C	0.099498	0.405142	0.099136
	C206	C	0.099871	0.594749	0.899875
	C207	C	0.899274	0.405200	0.900003
	C208	C	0.099620	0.900293	0.594869
	C209	C	0.099082	0.098993	0.405950
	C210	C	0.900946	0.099265	0.594354
	C211	C	0.899707	0.900393	0.405183
	C212	C	0.594575	0.099900	0.900217
	C213	C	0.405495	0.100766	0.100785
	C214	C	0.594798	0.899749	0.101205
	C215	C	0.406701	0.900953	0.900299
	Zn216	Zn	0.500477	0.000428	0.749618
	Zn217	Zn	0.499933	-0.000223	0.250657
	Zn218	Zn	0.749857	0.500267	-0.000352
	Zn219	Zn	0.250121	0.500077	0.000039
	Zn220	Zn	0.000423	0.750707	0.499833
	Zn221	Zn	-0.000046	0.250155	0.499983
	Zn222	Zn	-0.000307	0.499611	0.750179
	Zn223	Zn	-0.000158	0.499645	0.249161
	Zn224	Zn	0.500057	0.750069	0.000309
	Zn225	Zn	0.500170	0.250057	-0.000265
	Zn226	Zn	0.749959	0.000040	0.500905
	Zn227	Zn	0.249701	-0.000719	0.500176
	N228	N	0.415024	0.962784	0.677929
	N229	N	0.585013	0.037680	0.677577
	N230	N	0.585067	0.962261	0.322829
	N231	N	0.414956	0.037610	0.322619
	N232	N	0.677466	0.415294	0.962357
	N233	N	0.678764	0.586150	0.037119
	N234	N	0.321667	0.585843	0.962978
	N235	N	0.321452	0.414073	0.036919
	N236	N	0.962775	0.678597	0.414010
	N237	N	0.037319	0.678155	0.585035
	N238	N	0.962408	0.321997	0.585122
	N239	N	0.037156	0.322140	0.414619
	N240	N	0.962503	0.414053	0.678489
	N241	N	0.037177	0.585245	0.678181
	N242	N	0.962814	0.585768	0.320604
	N243	N	0.037136	0.414639	0.321647
	N244	N	0.415032	0.678181	0.962862
	N245	N	0.584363	0.677146	0.037754
	N246	N	0.585480	0.321932	0.962641
	N247	N	0.415833	0.322961	0.037488
	N248	N	0.677877	0.962399	0.415543
	N249	N	0.679047	0.037001	0.586643
	N250	N	0.321325	0.962751	0.586145
	N251	N	0.321078	0.036834	0.414548
	N252	N	0.914680	0.462417	0.177096
	N253	N	0.084905	0.537142	0.177115
	N254	N	0.084409	0.462185	0.822597
	N255	N	0.914675	0.537408	0.821924
	N256	N	0.177932	0.914187	0.463192
	N257	N	0.178159	0.085168	0.537536
	N258	N	0.822099	0.085125	0.462710
	N259	N	0.821731	0.913998	0.537090
	N260	N	0.462939	0.177915	0.915029
	N261	N	0.537163	0.178722	0.085744
	N262	N	0.463223	0.821935	0.085625
	N263	N	0.537757	0.822063	0.914773
	N264	N	0.462944	0.914596	0.178598
	N265	N	0.537604	0.085324	0.178653
	N266	N	0.462895	0.085907	0.821345
	N267	N	0.537951	0.914710	0.821518
	N268	N	0.915227	0.177564	0.462283
	N269	N	0.085303	0.178188	0.537416
	N270	N	0.084922	0.822731	0.462461
	N271	N	0.914961	0.822081	0.537163
	N272	N	0.178487	0.463056	0.913958
	N273	N	0.178470	0.536735	0.085646
	N274	N	0.821483	0.462480	0.084870
	N275	N	0.820994	0.537187	0.913888
