data_Molecule from HDF5

_cell_length_a		16.648764
_cell_length_b		16.493708
_cell_length_c		16.593097
_cell_angle_alpha	89.859515
_cell_angle_beta	90.136247
_cell_angle_gamma	90.093841
_symmetry_space_group_name_H-M	'P 1'
_symmetry_Int_Tables_number		1

loop_
	_symmetry_equiv_pos_as_xyz
	x,y,z

loop_
	_atom_site_label
	_atom_site_type_symbol
	_atom_site_fract_x
	_atom_site_fract_y
	_atom_site_fract_z
	H0	H	0.390530	0.841828	0.710040
	H1	H	0.592531	0.158410	0.706516
	H2	H	0.597317	0.841834	0.269861
	H3	H	0.389450	0.157000	0.271642
	H4	H	0.710674	0.398211	0.834017
	H5	H	0.716107	0.606508	0.147589
	H6	H	0.271724	0.605023	0.835908
	H7	H	0.269233	0.391104	0.145944
	H8	H	0.835722	0.719838	0.385927
	H9	H	0.147580	0.720930	0.595223
	H10	H	0.836078	0.279681	0.594145
	H11	H	0.148430	0.279516	0.388311
	H12	H	0.836960	0.394962	0.711950
	H13	H	0.147354	0.605063	0.713223
	H14	H	0.836048	0.603605	0.269830
	H15	H	0.147095	0.392816	0.268705
	H16	H	0.392312	0.718597	0.834761
	H17	H	0.598629	0.721287	0.148320
	H18	H	0.593245	0.282360	0.833247
	H19	H	0.388686	0.278010	0.147128
	H20	H	0.711721	0.840637	0.387665
	H21	H	0.710259	0.156916	0.591548
	H22	H	0.272384	0.842068	0.595212
	H23	H	0.272138	0.156189	0.385451
	H24	H	0.888525	0.341748	0.211259
	H25	H	0.097963	0.656018	0.213288
	H26	H	0.097472	0.342757	0.771945
	H27	H	0.889152	0.655774	0.770625
	H28	H	0.216717	0.889917	0.336560
	H29	H	0.213254	0.102737	0.647095
	H30	H	0.771305	0.103463	0.335245
	H31	H	0.771268	0.891965	0.647839
	H32	H	0.335513	0.219518	0.887630
	H33	H	0.647953	0.221627	0.096005
	H34	H	0.337803	0.775384	0.098749
	H35	H	0.649572	0.781637	0.890239
	H36	H	0.338805	0.889779	0.216762
	H37	H	0.647618	0.106307	0.214570
	H38	H	0.335673	0.104061	0.770273
	H39	H	0.648335	0.896184	0.771298
	H40	H	0.888402	0.219822	0.335431
	H41	H	0.096120	0.217894	0.647924
	H42	H	0.096679	0.777199	0.335043
	H43	H	0.889683	0.778778	0.648695
	H44	H	0.214819	0.344016	0.886067
	H45	H	0.214629	0.656302	0.098682
	H46	H	0.772321	0.342365	0.094818
	H47	H	0.772839	0.656142	0.886369
	H48	H	0.400741	0.112774	0.579942
	H49	H	0.580709	0.885829	0.580382
	H50	H	0.583022	0.114214	0.394934
	H51	H	0.404504	0.888292	0.407114
	H52	H	0.580007	0.414362	0.101168
	H53	H	0.581115	0.592203	0.879925
	H54	H	0.402792	0.586333	0.103932
	H55	H	0.395620	0.410313	0.876559
	H56	H	0.101354	0.583816	0.404301
	H57	H	0.879360	0.593013	0.579000
	H58	H	0.105560	0.406414	0.582070
	H59	H	0.878590	0.410214	0.395053
	H60	H	0.103740	0.410554	0.579379
	H61	H	0.883141	0.584089	0.578396
	H62	H	0.104699	0.588349	0.398111
	H63	H	0.880341	0.404356	0.404760
	H64	H	0.404988	0.587609	0.103729
	H65	H	0.587311	0.592263	0.878186
	H66	H	0.581202	0.406367	0.104504
	H67	H	0.403800	0.419902	0.882828
	H68	H	0.574228	0.107703	0.404840
	H69	H	0.586831	0.883960	0.582287
	H70	H	0.400857	0.113894	0.581588
	H71	H	0.402601	0.886097	0.404162
	H72	H	0.905724	0.608953	0.073826
	H73	H	0.080586	0.387214	0.080384
	H74	H	0.084164	0.612747	0.903190
	H75	H	0.902788	0.385692	0.899799
	H76	H	0.079299	0.914122	0.600367
	H77	H	0.086194	0.086755	0.378144
	H78	H	0.898359	0.088834	0.605309
	H79	H	0.899191	0.907882	0.378217
	H80	H	0.602930	0.091753	0.905749
	H81	H	0.383190	0.082795	0.078734
	H82	H	0.601717	0.916198	0.080574
	H83	H	0.380686	0.909999	0.900250
	H84	H	0.604967	0.910214	0.084706
	H85	H	0.379543	0.087979	0.084790
	H86	H	0.603590	0.085264	0.896128
	H87	H	0.380510	0.910066	0.902558
	H88	H	0.902633	0.085183	0.603136
	H89	H	0.079042	0.085435	0.380363
	H90	H	0.080189	0.907284	0.602499
	H91	H	0.900515	0.913149	0.380152
	H92	H	0.079732	0.612709	0.900306
	H93	H	0.079696	0.388912	0.079762
	H94	H	0.896303	0.614310	0.081723
	H95	H	0.903601	0.386693	0.903166
	H96	H	0.402617	0.113085	0.580812
	H97	H	0.582038	0.883344	0.586808
	H98	H	0.587928	0.110018	0.408254
	H99	H	0.406873	0.887288	0.402980
	H100	H	0.587889	0.412193	0.104405
	H101	H	0.584013	0.586713	0.880459
	H102	H	0.403266	0.588856	0.104947
	H103	H	0.408998	0.407091	0.879902
	H104	H	0.103353	0.591586	0.405628
	H105	H	0.878533	0.587034	0.586457
	H106	H	0.104267	0.410790	0.584850
	H107	H	0.883900	0.415387	0.403949
	H108	H	0.908803	0.612554	0.086190
	H109	H	0.081369	0.388239	0.078700
	H110	H	0.079798	0.610887	0.905104
	H111	H	0.900300	0.385404	0.902406
	H112	H	0.085698	0.912092	0.602867
	H113	H	0.081048	0.092348	0.378298
	H114	H	0.904157	0.091121	0.603797
	H115	H	0.904320	0.909090	0.380082
	H116	H	0.606757	0.096201	0.895919
	H117	H	0.381657	0.091214	0.077261
	H118	H	0.603397	0.909517	0.077120
	H119	H	0.381509	0.911499	0.901569
	C120	C	0.370758	0.008466	0.611986
	C121	C	0.613343	0.989918	0.612416
	C122	C	0.613584	0.006832	0.370407
	C123	C	0.372415	0.991040	0.371330
	C124	C	0.613608	0.379354	-0.000380
	C125	C	0.615622	0.622109	0.983282
	C126	C	0.372249	0.620174	0.000706
	C127	C	0.370432	0.378642	0.982650
	C128	C	0.000214	0.620147	0.369948
	C129	C	0.983429	0.620369	0.612919
	C130	C	0.001347	0.377481	0.613242
	C131	C	0.983949	0.377968	0.369728
	C132	C	0.871634	0.507909	0.112413
	C133	C	0.113440	0.491326	0.112531
	C134	C	0.113706	0.508471	0.870733
	C135	C	0.871102	0.490187	0.870074
	C136	C	0.114127	0.877512	0.499228
	C137	C	0.113595	0.119937	0.482355
	C138	C	0.870879	0.119946	0.500148
	C139	C	0.870798	0.877916	0.483193
	C140	C	0.500833	0.122244	0.868465
	C141	C	0.484205	0.120382	0.112680
	C142	C	0.501033	0.878028	0.113508
	C143	C	0.484378	0.879063	0.870497
	C144	C	0.370859	0.889294	0.670659
	C145	C	0.612566	0.110329	0.668212
	C146	C	0.615657	0.888879	0.310127
	C147	C	0.370779	0.109368	0.311304
	C148	C	0.671234	0.379053	0.880838
	C149	C	0.675627	0.624268	0.100703
	C150	C	0.312568	0.622877	0.882651
	C151	C	0.309925	0.374265	0.099424
	C152	C	0.882715	0.679782	0.367710
	C153	C	0.100911	0.680526	0.614184
	C154	C	0.883296	0.318761	0.613761
	C155	C	0.101383	0.318598	0.368819
	C156	C	0.883785	0.376030	0.672256
	C157	C	0.100772	0.622867	0.672682
	C158	C	0.883071	0.622129	0.309595
	C159	C	0.100807	0.375178	0.309524
	C160	C	0.372332	0.678999	0.881901
	C161	C	0.616912	0.681275	0.101273
	C162	C	0.612855	0.321601	0.880644
	C163	C	0.369208	0.317827	0.100084
	C164	C	0.672638	0.888364	0.368675
	C165	C	0.671034	0.109587	0.611348
	C166	C	0.312251	0.889303	0.613854
	C167	C	0.312407	0.109026	0.367986
	C168	C	0.869928	0.389083	0.171487
	C169	C	0.116262	0.609026	0.173174
	C170	C	0.116178	0.390468	0.810908
	C171	C	0.869838	0.608589	0.810089
	C172	C	0.175629	0.872982	0.382933
	C173	C	0.173139	0.121386	0.600254
	C174	C	0.811451	0.121937	0.382197
	C175	C	0.811492	0.874617	0.600885
	C176	C	0.382652	0.180363	0.868277
	C177	C	0.601204	0.181323	0.114948
	C178	C	0.384495	0.815895	0.116700
	C179	C	0.602378	0.820767	0.870556
	C180	C	0.384750	0.873188	0.175070
	C181	C	0.601045	0.123653	0.173513
	C182	C	0.382700	0.123094	0.809729
	C183	C	0.601904	0.877906	0.811618
	C184	C	0.869689	0.179570	0.382065
	C185	C	0.115028	0.178840	0.600471
	C186	C	0.115765	0.817024	0.381983
	C187	C	0.870722	0.818512	0.601468
	C188	C	0.174301	0.390909	0.868255
	C189	C	0.174208	0.609107	0.116159
	C190	C	0.812250	0.389311	0.113623
	C191	C	0.812486	0.608930	0.867952
	C192	C	0.394413	0.091639	0.587521
	C193	C	0.590048	0.906270	0.589742
	C194	C	0.588778	0.089243	0.395523
	C195	C	0.397459	0.908745	0.397290
	C196	C	0.589712	0.403816	0.081774
	C197	C	0.591060	0.597420	0.900959
	C198	C	0.396694	0.594940	0.082825
	C199	C	0.395757	0.404964	0.900756
	C200	C	0.081977	0.595171	0.395474
	C201	C	0.901623	0.595165	0.588315
	C202	C	0.083272	0.402131	0.588942
	C203	C	0.902211	0.403003	0.394244
	C204	C	0.896501	0.590641	0.087719
	C205	C	0.087919	0.409508	0.087029
	C206	C	0.088508	0.590752	0.895762
	C207	C	0.895328	0.407406	0.894905
	C208	C	0.088884	0.903664	0.580636
	C209	C	0.089172	0.095294	0.400168
	C210	C	0.894926	0.095352	0.582618
	C211	C	0.894511	0.902912	0.400947
	C212	C	0.583098	0.098024	0.892456
	C213	C	0.402597	0.094828	0.087312
	C214	C	0.582326	0.904501	0.088102
	C215	C	0.402182	0.903377	0.894542
	Zn216	Zn	0.492030	0.000097	0.740477
	Zn217	Zn	0.492355	-0.001169	0.242114
	Zn218	Zn	0.743423	0.499646	-0.008640
	Zn219	Zn	0.242050	0.500440	-0.008025
	Zn220	Zn	-0.008280	0.749351	0.491292
	Zn221	Zn	-0.007656	0.248783	0.491622
	Zn222	Zn	-0.007676	0.499166	0.742109
	Zn223	Zn	-0.007524	0.499255	0.240927
	Zn224	Zn	0.493031	0.749874	-0.007512
	Zn225	Zn	0.492060	0.250207	-0.008910
	Zn226	Zn	0.742088	-0.001745	0.491652
	Zn227	Zn	0.242691	-0.000944	0.490702
	N228	N	0.406214	0.964598	0.669991
	N229	N	0.577728	0.034758	0.669362
	N230	N	0.579964	0.963855	0.310966
	N231	N	0.407198	0.034736	0.313179
	N232	N	0.671924	0.414183	0.955851
	N233	N	0.675035	0.588290	0.026192
	N234	N	0.312362	0.587219	0.957485
	N235	N	0.310576	0.411165	0.025161
	N236	N	0.956755	0.678860	0.404502
	N237	N	0.026914	0.679013	0.577572
	N238	N	0.957457	0.319369	0.577867
	N239	N	0.027663	0.320002	0.405479
	N240	N	0.958267	0.411569	0.672186
	N241	N	0.026693	0.586356	0.671999
	N242	N	0.957232	0.585874	0.310901
	N243	N	0.026680	0.411117	0.309937
	N244	N	0.408585	0.677627	0.956309
	N245	N	0.580286	0.680106	0.027039
	N246	N	0.578060	0.321275	0.955514
	N247	N	0.406194	0.320484	0.026231
	N248	N	0.671628	0.962887	0.405391
	N249	N	0.671886	0.033597	0.577761
	N250	N	0.311971	0.964530	0.578298
	N251	N	0.312825	0.034194	0.404404
	N252	N	0.906179	0.463860	0.170734
	N253	N	0.079186	0.534636	0.171361
	N254	N	0.079330	0.464864	0.812115
	N255	N	0.905623	0.533780	0.811391
	N256	N	0.174713	0.909869	0.456984
	N257	N	0.172503	0.085426	0.525719
	N258	N	0.812095	0.085419	0.456712
	N259	N	0.811265	0.910725	0.526309
	N260	N	0.457172	0.180216	0.903969
	N261	N	0.527521	0.179278	0.077688
	N262	N	0.457828	0.818886	0.079112
	N263	N	0.528218	0.821366	0.906304
	N264	N	0.458187	0.911277	0.173072
	N265	N	0.527184	0.086478	0.172231
	N266	N	0.457310	0.087684	0.809609
	N267	N	0.527301	0.913264	0.811121
	N268	N	0.905942	0.178377	0.456383
	N269	N	0.078770	0.178051	0.526176
	N270	N	0.078216	0.819556	0.455443
	N271	N	0.906712	0.820167	0.527122
	N272	N	0.172899	0.465418	0.904658
	N273	N	0.172762	0.534811	0.079210
	N274	N	0.813111	0.464263	0.077786
	N275	N	0.813147	0.534330	0.904595
	O276	O	0.213524	0.777049	-0.040112
	H277	H	0.240761	0.752323	-0.054707
	H278	H	0.213372	0.783298	-0.076011
	O279	O	0.436895	0.718815	0.538298
	H280	H	0.442946	0.715582	0.527351
	H281	H	0.429256	0.714721	0.513127
	O282	O	1.220151	-0.027450	1.097606
	H283	H	1.218716	-0.031338	1.120286
	H284	H	1.222623	-0.040943	1.109891
	O285	O	0.323401	0.494061	0.709626
	H286	H	0.316221	0.481022	0.709405
	H287	H	0.311559	0.494674	0.707940
	O288	O	0.459660	0.287873	0.706690
	H289	H	0.440275	0.278451	0.716641
	H290	H	0.446334	0.275634	0.714734
	O291	O	0.285963	0.293804	0.620305
	H292	H	0.282485	0.293649	0.603402
	H293	H	0.265124	0.273267	0.643698
	O294	O	0.954460	-0.163481	0.935875
	H295	H	0.959439	-0.171634	0.939073
	H296	H	0.984402	-0.163773	0.940881
	O297	O	0.427777	0.458922	0.327702
	H298	H	0.431843	0.452203	0.336787
	H299	H	0.434698	0.458688	0.328937
	O300	O	-0.035714	0.220260	0.772822
	H301	H	-0.056265	0.226985	0.770496
	H302	H	-0.041834	0.229902	0.752974
	O303	O	0.541408	0.442840	0.590243
	H304	H	0.535783	0.428879	0.583363
	H305	H	0.533538	0.435921	0.602500
	O306	O	0.705525	0.287772	0.459908
	H307	H	0.713775	0.277736	0.450343
	H308	H	0.712892	0.289692	0.443863
	O309	O	0.678535	0.517920	0.691644
	H310	H	0.680760	0.543234	0.685722
	H311	H	0.681607	0.528500	0.712627
	O312	O	0.520495	0.465484	0.712131
	H313	H	0.527597	0.472764	0.719043
	H314	H	0.506447	0.447342	0.713158
	O315	O	1.183963	0.932856	0.808934
	H316	H	1.198240	0.947278	0.804587
	H317	H	1.179727	0.949024	0.816600
	O318	O	0.264916	0.503680	0.572223
	H319	H	0.268194	0.499567	0.567454
	H320	H	0.260150	0.512538	0.558308
	O321	O	0.287453	0.711835	0.703790
	H322	H	0.311290	0.700155	0.676187
	H323	H	0.287295	0.691461	0.688459
	O324	O	0.787218	0.799640	0.196859
	H325	H	0.796102	0.810331	0.183746
	H326	H	0.775811	0.807161	0.196373
	O327	O	0.207638	0.080565	1.208432
	H328	H	0.223701	0.087474	1.207428
	H329	H	0.190457	0.073357	1.212395
	O330	O	0.476091	0.285799	0.462825
	H331	H	0.471786	0.291058	0.460171
	H332	H	0.475093	0.279439	0.452965
	O333	O	0.642132	0.535330	0.407862
	H334	H	0.645656	0.536346	0.396981
	H335	H	0.652920	0.542679	0.397869
	O336	O	0.702471	0.291625	0.286027
	H337	H	0.679906	0.278106	0.270667
	H338	H	0.715519	0.293388	0.280938
	O339	O	0.770228	0.041540	0.767627
	H340	H	0.769821	0.039853	0.753422
	H341	H	0.758353	0.030968	0.764575
	O342	O	-0.039216	-0.210786	0.193107
	H343	H	-0.060594	-0.199960	0.191090
	H344	H	-0.038452	-0.232140	0.209394
	O345	O	-0.231367	1.192067	0.975368
	H346	H	-0.233646	1.192356	0.942526
	H347	H	-0.251563	1.209859	0.965854
	O348	O	0.419178	0.541466	0.578229
	H349	H	0.436373	0.541768	0.575390
	H350	H	0.412512	0.549275	0.577875
	O351	O	0.474319	0.708684	0.282757
	H352	H	0.476669	0.711612	0.263052
	H353	H	0.482739	0.700329	0.290109
	O354	O	0.092827	0.188632	1.154658
	H355	H	0.086779	0.185920	1.147403
	H356	H	0.086604	0.189710	1.150416
	O357	O	0.280553	0.354731	0.472166
	H358	H	0.279025	0.359132	0.459439
	H359	H	0.282016	0.341070	0.479934
	O360	O	0.403597	0.415053	0.562994
	H361	H	0.399694	0.426006	0.567398
	H362	H	0.410028	0.412563	0.565923
	O363	O	0.169237	-0.179926	-0.170413
	H364	H	0.176655	-0.137069	-0.172564
	H365	H	0.201147	-0.202825	-0.196512
	O366	O	0.274625	0.529331	0.277650
	H367	H	0.265569	0.517473	0.258202
	H368	H	0.272935	0.514936	0.286722
	O369	O	0.835646	0.117726	0.051583
	H370	H	0.828506	0.134042	0.034722
	H371	H	0.832186	0.106410	0.024556
	O372	O	0.779638	0.787059	0.026341
	H373	H	0.775524	0.773376	0.025788
	H374	H	0.783028	0.778903	0.024763
	O375	O	0.866646	0.124512	0.197680
	H376	H	0.870415	0.111268	0.183311
	H377	H	0.875311	0.121047	0.196945
	O378	O	0.705964	0.459578	0.277987
	H379	H	0.726587	0.457698	0.262650
	H380	H	0.711700	0.439245	0.291167
	O381	O	0.205464	1.042281	0.908336
	H382	H	0.211093	1.026792	0.916302
	H383	H	0.207876	1.053392	0.921310
	O384	O	1.022415	-0.061140	1.117238
	H385	H	1.019448	-0.053358	1.110165
	H386	H	1.009127	-0.070573	1.137443
	O387	O	0.921594	0.977062	-0.185785
	H388	H	0.933145	0.962786	-0.174681
	H389	H	0.917981	0.980111	-0.182258
	O390	O	0.673282	0.485832	0.487575
	H391	H	0.683752	0.494405	0.490546
	H392	H	0.674300	0.495086	0.509093
	O393	O	0.403795	0.562904	0.662166
	H394	H	0.407879	0.558376	0.669419
	H395	H	0.409755	0.551513	0.656013
	O396	O	-0.145472	1.016063	0.896837
	H397	H	-0.137619	0.998972	0.898511
	H398	H	-0.135672	1.027999	0.893185
	O399	O	0.026364	0.214573	0.919770
	H400	H	0.015974	0.212140	0.903075
	H401	H	0.009312	0.219767	0.920971
	O402	O	0.682799	0.311013	0.677010
	H403	H	0.664162	0.335319	0.666328
	H404	H	0.667065	0.327761	0.651060
	O405	O	1.014085	0.105034	1.107995
	H406	H	1.007420	0.097766	1.105508
	H407	H	1.017610	0.118900	1.112996
	O408	O	0.209095	0.216717	0.022142
	H409	H	0.204670	0.219216	0.016155
	H410	H	0.212583	0.238894	0.013008
	O411	O	0.804237	0.814471	0.808913
	H412	H	0.824399	0.815899	0.822931
	H413	H	0.820843	0.832724	0.823316
	O414	O	0.539386	0.533762	0.303645
	H415	H	0.549016	0.514649	0.298831
	H416	H	0.533034	0.518894	0.297695
	O417	O	0.649521	0.371576	0.541319
	H418	H	0.657479	0.369366	0.556141
	H419	H	0.657783	0.374419	0.533919
	O420	O	0.519842	0.702495	0.688134
	H421	H	0.504151	0.713051	0.698946
	H422	H	0.503800	0.691440	0.665396
	O423	O	0.080272	-0.105483	1.202647
	H424	H	0.069021	-0.110971	1.200313
	H425	H	0.078735	-0.120544	1.214166
	O426	O	0.687264	0.707280	0.698607
	H427	H	0.705073	0.731792	0.727830
	H428	H	0.641078	0.707215	0.698625
	O429	O	1.028671	1.012564	0.837272
	H430	H	1.023986	1.013897	0.843997
	H431	H	1.013631	0.999653	0.833507
	O432	O	0.711632	0.714574	0.517093
	H433	H	0.726224	0.718110	0.541891
	H434	H	0.717812	0.731659	0.534636
	O435	O	0.114947	0.807852	0.087560
	H436	H	0.114956	0.816021	0.081283
	H437	H	0.122143	0.799389	0.075879
	O438	O	0.023507	-0.214938	-0.223571
	H439	H	0.041408	-0.228097	-0.225926
	H440	H	0.045120	-0.226635	-0.229954
	O441	O	0.062605	0.013535	-0.070734
	H442	H	0.068160	0.018106	-0.060253
	H443	H	0.065132	-0.003013	-0.072775
	O444	O	0.276408	0.712161	0.468287
	H445	H	0.272811	0.727338	0.451124
	H446	H	0.266384	0.715915	0.451491
	O447	O	0.181863	1.155244	0.799491
	H448	H	0.173942	1.135038	0.821168
	H449	H	0.162931	1.141210	0.800018
	O450	O	0.009864	0.963310	0.966609
	H451	H	0.008573	0.959997	0.981452
	H452	H	-0.000424	0.967861	0.962546
	O453	O	0.619312	0.678223	0.347284
	H454	H	0.592783	0.663502	0.337498
	H455	H	0.619331	0.683598	0.350950
	O456	O	0.074581	0.132470	1.080279
	H457	H	0.073931	0.132160	1.092295
	H458	H	0.063564	0.126875	1.074202
	O459	O	0.783128	0.966130	0.200076
	H460	H	0.772899	0.969525	0.201382
	H461	H	0.769656	0.971209	0.198814
	O462	O	0.568247	0.671584	0.428326
	H463	H	0.582441	0.661764	0.425961
	H464	H	0.584225	0.678427	0.438338
	O465	O	0.837972	-0.022029	-0.040910
	H466	H	0.835065	-0.023965	-0.045875
	H467	H	0.832622	-0.027519	-0.057928
	O468	O	0.285531	0.307243	0.311993
	H469	H	0.288705	0.310585	0.305081
	H470	H	0.276863	0.288015	0.300141
	O471	O	0.535892	0.292533	0.286951
	H472	H	0.536825	0.282186	0.284322
	H473	H	0.524435	0.291653	0.276575
	O474	O	0.280940	0.709944	0.283315
	H475	H	0.304568	0.721358	0.269320
	H476	H	0.278291	0.663332	0.280034
	O477	O	0.780236	0.213023	1.781825
	H478	H	0.748338	0.243576	1.746588
	H479	H	0.790418	0.176752	1.773788
	O480	O	0.380069	0.344731	0.334363
	H481	H	0.381564	0.353866	0.348238
	H482	H	0.356101	0.323705	0.327695
	O483	O	0.422840	0.556092	0.444926
	H484	H	0.437450	0.561638	0.426429
	H485	H	0.435728	0.548862	0.463457
	O486	O	0.866463	0.191277	1.075743
	H487	H	0.860555	0.179855	1.072082
	H488	H	0.869923	0.185033	1.053867
	O489	O	0.983646	0.970312	0.190105
	H490	H	0.974548	0.957514	0.194216
	H491	H	1.000936	0.979342	0.189914
