data_Molecule from HDF5

_cell_length_a		16.418339
_cell_length_b		16.396315
_cell_length_c		16.378721
_cell_angle_alpha	89.953654
_cell_angle_beta	89.825418
_cell_angle_gamma	90.049279
_symmetry_space_group_name_H-M	'P 1'
_symmetry_Int_Tables_number		1

loop_
	_symmetry_equiv_pos_as_xyz
	x,y,z

loop_
	_atom_site_label
	_atom_site_type_symbol
	_atom_site_fract_x
	_atom_site_fract_y
	_atom_site_fract_z
	H0	H	0.397316	0.848921	0.714159
	H1	H	0.596693	0.172135	0.710874
	H2	H	0.605671	0.852745	0.273937
	H3	H	0.393348	0.169502	0.276114
	H4	H	0.714937	0.407131	0.834740
	H5	H	0.717680	0.612530	0.154589
	H6	H	0.279151	0.616067	0.835276
	H7	H	0.276226	0.407259	0.154008
	H8	H	0.839565	0.732431	0.390616
	H9	H	0.157650	0.731571	0.599108
	H10	H	0.839327	0.290709	0.597818
	H11	H	0.157637	0.292214	0.389638
	H12	H	0.838285	0.408317	0.712698
	H13	H	0.155833	0.616996	0.715639
	H14	H	0.836990	0.614046	0.276882
	H15	H	0.157257	0.409242	0.274272
	H16	H	0.393355	0.733684	0.837149
	H17	H	0.605359	0.731808	0.154048
	H18	H	0.597511	0.292682	0.834829
	H19	H	0.393941	0.293405	0.156276
	H20	H	0.721172	0.852018	0.390694
	H21	H	0.717492	0.169664	0.599741
	H22	H	0.277554	0.850060	0.602107
	H23	H	0.280113	0.170244	0.394743
	H24	H	0.892174	0.351682	0.215599
	H25	H	0.104681	0.668636	0.216580
	H26	H	0.099074	0.350251	0.774750
	H27	H	0.890574	0.669128	0.771108
	H28	H	0.221418	0.906639	0.337324
	H29	H	0.215772	0.115220	0.656999
	H30	H	0.775574	0.117725	0.337062
	H31	H	0.776167	0.903618	0.654256
	H32	H	0.337459	0.228249	0.894982
	H33	H	0.656601	0.232762	0.102320
	H34	H	0.340993	0.785746	0.104867
	H35	H	0.657338	0.787574	0.888302
	H36	H	0.340708	0.902862	0.220725
	H37	H	0.656229	0.117290	0.218801
	H38	H	0.338267	0.114548	0.776414
	H39	H	0.656837	0.904730	0.773058
	H40	H	0.894356	0.230407	0.334989
	H41	H	0.099466	0.230964	0.655307
	H42	H	0.104978	0.791645	0.335346
	H43	H	0.891420	0.787306	0.653034
	H44	H	0.218533	0.351512	0.887537
	H45	H	0.221021	0.668657	0.100782
	H46	H	0.778611	0.350071	0.097804
	H47	H	0.774455	0.668460	0.886596
	H48	H	0.399672	0.123725	0.579241
	H49	H	0.591317	0.895590	0.582393
	H50	H	0.587486	0.122585	0.410553
	H51	H	0.414843	0.897773	0.407744
	H52	H	0.580087	0.416266	0.108834
	H53	H	0.593564	0.596222	0.880464
	H54	H	0.407192	0.596895	0.109058
	H55	H	0.412400	0.415372	0.880832
	H56	H	0.109533	0.596440	0.404902
	H57	H	0.885975	0.600487	0.580486
	H58	H	0.113061	0.417220	0.580730
	H59	H	0.885948	0.426184	0.404809
	H60	H	0.110090	0.425239	0.581123
	H61	H	0.886313	0.597792	0.580895
	H62	H	0.112662	0.600975	0.400226
	H63	H	0.880609	0.416753	0.398513
	H64	H	0.410012	0.595514	0.106413
	H65	H	0.581267	0.594063	0.885340
	H66	H	0.595470	0.414234	0.114449
	H67	H	0.402528	0.415392	0.877248
	H68	H	0.587940	0.123828	0.407890
	H69	H	0.589020	0.894355	0.590478
	H70	H	0.401359	0.128791	0.597544
	H71	H	0.409397	0.898654	0.414614
	H72	H	0.912468	0.620984	0.081158
	H73	H	0.082262	0.399976	0.082811
	H74	H	0.080624	0.620778	0.907276
	H75	H	0.908612	0.397909	0.905492
	H76	H	0.087215	0.921621	0.609338
	H77	H	0.092369	0.099762	0.382033
	H78	H	0.902215	0.097669	0.609944
	H79	H	0.915078	0.917554	0.381953
	H80	H	0.611422	0.107748	0.911539
	H81	H	0.385295	0.102141	0.083345
	H82	H	0.611017	0.925091	0.087485
	H83	H	0.389774	0.925661	0.913009
	H84	H	0.612088	0.918628	0.084168
	H85	H	0.386214	0.095718	0.087435
	H86	H	0.608323	0.093058	0.907072
	H87	H	0.385235	0.924023	0.901906
	H88	H	0.914998	0.094794	0.604849
	H89	H	0.089691	0.100762	0.382177
	H90	H	0.085757	0.920451	0.608613
	H91	H	0.903897	0.923214	0.380376
	H92	H	0.094791	0.625380	0.908818
	H93	H	0.086403	0.398183	0.078444
	H94	H	0.902053	0.624329	0.080060
	H95	H	0.905424	0.396504	0.904704
	H96	H	0.416411	0.121555	0.588388
	H97	H	0.583816	0.897993	0.585035
	H98	H	0.585055	0.122638	0.408788
	H99	H	0.406714	0.895926	0.406907
	H100	H	0.590520	0.428749	0.108270
	H101	H	0.584432	0.606241	0.879846
	H102	H	0.410527	0.599115	0.108313
	H103	H	0.406276	0.424510	0.881231
	H104	H	0.111451	0.603415	0.406879
	H105	H	0.885703	0.599313	0.582382
	H106	H	0.113603	0.422014	0.588703
	H107	H	0.884124	0.415495	0.409825
	H108	H	0.907720	0.626380	0.089260
	H109	H	0.086923	0.396271	0.084110
	H110	H	0.087476	0.626840	0.896169
	H111	H	0.908340	0.396190	0.901913
	H112	H	0.087678	0.920291	0.609753
	H113	H	0.091515	0.102274	0.380658
	H114	H	0.912080	0.107099	0.609737
	H115	H	0.913674	0.929711	0.385893
	H116	H	0.614414	0.103272	0.896959
	H117	H	0.383021	0.102083	0.090704
	H118	H	0.609022	0.923940	0.080438
	H119	H	0.384747	0.915098	0.910101
	C120	C	0.374979	0.018842	0.619759
	C121	C	0.619033	1.002126	0.616987
	C122	C	0.620450	0.018792	0.375385
	C123	C	0.378527	1.002532	0.377629
	C124	C	0.618660	0.388682	0.004168
	C125	C	0.619319	0.631156	0.986763
	C126	C	0.377479	0.630711	0.003272
	C127	C	0.375773	0.388580	0.986301
	C128	C	0.006205	0.632769	0.372111
	C129	C	0.990030	0.632182	0.614586
	C130	C	0.006683	0.389850	0.615124
	C131	C	0.988992	0.388997	0.372364
	C132	C	0.875779	0.518568	0.115566
	C133	C	0.118407	0.502370	0.114714
	C134	C	0.118952	0.519132	0.871872
	C135	C	0.875335	0.501796	0.871696
	C136	C	0.119891	0.889485	0.503912
	C137	C	0.120675	0.132552	0.487364
	C138	C	0.877478	0.131922	0.503269
	C139	C	0.877747	0.889965	0.487130
	C140	C	0.505874	0.131850	0.874749
	C141	C	0.489606	0.132379	0.118858
	C142	C	0.506528	0.888895	0.117945
	C143	C	0.490824	0.889257	0.875084
	C144	C	0.376394	0.897517	0.676627
	C145	C	0.617283	0.123314	0.673225
	C146	C	0.623780	0.900033	0.314175
	C147	C	0.376417	0.122146	0.317464
	C148	C	0.675856	0.388093	0.882928
	C149	C	0.678605	0.631848	0.106746
	C150	C	0.318414	0.634239	0.883444
	C151	C	0.316091	0.388376	0.106369
	C152	C	0.886837	0.692704	0.371277
	C153	C	0.109694	0.691857	0.617303
	C154	C	0.886867	0.330507	0.616631
	C155	C	0.109733	0.331442	0.371079
	C156	C	0.886318	0.388904	0.673896
	C157	C	0.108862	0.634759	0.675384
	C158	C	0.885687	0.633713	0.314699
	C159	C	0.109491	0.389735	0.313852
	C160	C	0.375383	0.692610	0.884355
	C161	C	0.622421	0.690946	0.106621
	C162	C	0.617642	0.331174	0.883039
	C163	C	0.374965	0.331838	0.107712
	C164	C	0.680878	0.899629	0.372532
	C165	C	0.677735	0.122108	0.618123
	C166	C	0.316962	0.898160	0.620659
	C167	C	0.319763	0.122661	0.376271
	C168	C	0.874392	0.398979	0.175558
	C169	C	0.121955	0.621403	0.175837
	C170	C	0.118968	0.398643	0.813283
	C171	C	0.872853	0.621315	0.811384
	C172	C	0.180651	0.888186	0.384429
	C173	C	0.177365	0.134159	0.608178
	C174	C	0.816481	0.134891	0.384269
	C175	C	0.816545	0.886074	0.606352
	C176	C	0.385447	0.189381	0.875025
	C177	C	0.608744	0.192965	0.120703
	C178	C	0.388296	0.826621	0.122533
	C179	C	0.609831	0.828100	0.871353
	C180	C	0.388205	0.884940	0.180232
	C181	C	0.608935	0.135083	0.178607
	C182	C	0.385949	0.132517	0.816100
	C183	C	0.609646	0.886164	0.813590
	C184	C	0.875255	0.191404	0.383151
	C185	C	0.119821	0.192204	0.607334
	C186	C	0.122855	0.830829	0.383523
	C187	C	0.874135	0.828107	0.605909
	C188	C	0.178142	0.399124	0.869809
	C189	C	0.180084	0.621151	0.118255
	C190	C	0.817511	0.398362	0.116938
	C191	C	0.814729	0.621022	0.868851
	C192	C	0.398596	0.102701	0.595520
	C193	C	0.595009	0.917854	0.592929
	C194	C	0.594328	0.101615	0.401521
	C195	C	0.403134	0.919206	0.402629
	C196	C	0.595518	0.412735	0.088420
	C197	C	0.593818	0.606222	0.903562
	C198	C	0.402117	0.604691	0.086280
	C199	C	0.399987	0.411667	0.901822
	C200	C	0.089547	0.607664	0.396800
	C201	C	0.907311	0.606639	0.588656
	C202	C	0.090454	0.414331	0.590473
	C203	C	0.905309	0.412606	0.397158
	C204	C	0.900424	0.602088	0.090553
	C205	C	0.092574	0.419864	0.089031
	C206	C	0.094734	0.602637	0.896786
	C207	C	0.900193	0.418608	0.896902
	C208	C	0.094121	0.913856	0.587464
	C209	C	0.097698	0.107947	0.403372
	C210	C	0.902580	0.106882	0.586426
	C211	C	0.903591	0.916143	0.404331
	C212	C	0.589733	0.108117	0.898257
	C213	C	0.406467	0.107007	0.094217
	C214	C	0.589181	0.915096	0.091708
	C215	C	0.408087	0.914283	0.901110
	Zn216	Zn	0.498197	0.010001	0.745984
	Zn217	Zn	0.498558	0.010425	0.247581
	Zn218	Zn	0.747524	0.509678	-0.006004
	Zn219	Zn	0.247647	0.510477	-0.006714
	Zn220	Zn	-0.000916	0.761051	0.494332
	Zn221	Zn	-0.001348	0.260724	0.493769
	Zn222	Zn	-0.002504	0.511177	0.743369
	Zn223	Zn	-0.003038	0.510995	0.244018
	Zn224	Zn	0.498838	0.759444	-0.003696
	Zn225	Zn	0.497453	0.260365	-0.003522
	Zn226	Zn	0.748727	0.011186	0.496028
	Zn227	Zn	0.248198	0.010309	0.497367
	N228	N	0.411477	0.973478	0.676261
	N229	N	0.582019	0.047317	0.673006
	N230	N	0.586936	0.975214	0.315942
	N231	N	0.412219	0.046434	0.318192
	N232	N	0.676751	0.422927	0.959198
	N233	N	0.677008	0.595535	0.031081
	N234	N	0.319456	0.596535	0.958347
	N235	N	0.316415	0.422696	0.029836
	N236	N	0.962970	0.692519	0.405940
	N237	N	0.034785	0.690326	0.580271
	N238	N	0.962744	0.330925	0.580909
	N239	N	0.033777	0.330783	0.406618
	N240	N	0.961885	0.425051	0.672911
	N241	N	0.033319	0.598430	0.674046
	N242	N	0.961076	0.597368	0.315018
	N243	N	0.033429	0.424529	0.314357
	N244	N	0.411307	0.690690	0.960060
	N245	N	0.586489	0.690708	0.031038
	N246	N	0.582963	0.331237	0.959575
	N247	N	0.411093	0.331535	0.031909
	N248	N	0.678855	0.974674	0.409733
	N249	N	0.678869	0.045553	0.583990
	N250	N	0.315408	0.974988	0.586603
	N251	N	0.320988	0.047320	0.413232
	N252	N	0.909879	0.474995	0.174880
	N253	N	0.084125	0.546729	0.173728
	N254	N	0.082924	0.474242	0.814539
	N255	N	0.909902	0.546214	0.813188
	N256	N	0.179114	0.923630	0.460454
	N257	N	0.178139	0.097868	0.532632
	N258	N	0.817848	0.098619	0.459992
	N259	N	0.818905	0.924043	0.531621
	N260	N	0.460941	0.189270	0.910633
	N261	N	0.533449	0.191440	0.084251
	N262	N	0.462910	0.828986	0.084454
	N263	N	0.535001	0.829865	0.909284
	N264	N	0.462850	0.922770	0.177529
	N265	N	0.533974	0.098023	0.177643
	N266	N	0.461844	0.097124	0.815994
	N267	N	0.534915	0.923472	0.815861
	N268	N	0.912543	0.189816	0.458039
	N269	N	0.085411	0.191416	0.530957
	N270	N	0.085717	0.831610	0.458779
	N271	N	0.911511	0.830377	0.530665
	N272	N	0.178411	0.475044	0.905409
	N273	N	0.177990	0.546226	0.080829
	N274	N	0.818510	0.473608	0.080266
	N275	N	0.816293	0.545792	0.905857
	O276	O	0.354592	0.436321	0.438446
	H277	H	0.341991	0.435131	0.453640
	H278	H	0.343130	0.442570	0.429198
	O279	O	-0.204211	0.099844	-0.093520
	H280	H	-0.220861	0.107900	-0.116470
	H281	H	-0.200204	0.066602	-0.095369
	O282	O	0.615742	0.547074	0.389421
	H283	H	0.614710	0.542900	0.384808
	H284	H	0.637079	0.560953	0.400221
	O285	O	1.883432	0.210731	0.818825
	H286	H	1.905474	0.218340	0.806236
	H287	H	1.867963	0.218467	0.824908
	O288	O	0.612095	0.524914	0.375895
	H289	H	0.614443	0.519489	0.389109
	H290	H	0.621849	0.530086	0.381603
	O291	O	0.335346	0.500110	0.531718
	H292	H	0.337465	0.497284	0.547865
	H293	H	0.333535	0.526499	0.529511
	O294	O	1.094736	0.888803	1.044164
	H295	H	1.102110	0.886930	1.051989
	H296	H	1.105026	0.886583	1.056404
	O297	O	0.616898	0.544284	0.697599
	H298	H	0.624762	0.563269	0.705702
	H299	H	0.608689	0.551494	0.697011
	O300	O	0.559160	0.664320	0.602337
	H301	H	0.559926	0.660549	0.599901
	H302	H	0.556125	0.661260	0.612204
	O303	O	0.689237	0.389185	0.424669
	H304	H	0.679345	0.376549	0.407791
	H305	H	0.694329	0.404084	0.415147
	O306	O	0.009468	-0.179299	0.778721
	H307	H	0.023276	-0.194731	0.762684
	H308	H	-0.009387	-0.194484	0.797635
	O309	O	1.163831	-0.169583	-0.185636
	H310	H	1.162838	-0.176354	-0.144079
	H311	H	1.149904	-0.154660	-0.188351
	O312	O	0.487137	0.329739	0.659163
	H313	H	0.493708	0.329493	0.644130
	H314	H	0.496885	0.336220	0.656849
	O315	O	0.309463	0.653543	0.398709
	H316	H	0.308080	0.641867	0.386054
	H317	H	0.299006	0.658132	0.387141
	O318	O	-0.212412	-0.203197	0.015050
	H319	H	-0.240553	-0.215085	0.019911
	H320	H	-0.219436	-0.190743	0.031833
	O321	O	0.314538	0.674539	0.350269
	H322	H	0.312437	0.656772	0.364699
	H323	H	0.331913	0.647665	0.341576
	O324	O	0.970136	0.145210	1.034216
	H325	H	0.968406	0.142199	1.024647
	H326	H	0.960097	0.161447	1.020080
	O327	O	0.516288	0.678807	0.543772
	H328	H	0.509337	0.671995	0.540680
	H329	H	0.509642	0.681333	0.541539
	O330	O	-0.029314	1.065650	0.876351
	H331	H	-0.015813	1.057169	0.882282
	H332	H	-0.016602	1.061814	0.870231
	O333	O	-0.112433	0.997825	-0.079221
	H334	H	-0.109942	0.998276	-0.091608
	H335	H	-0.102162	0.988481	-0.075189
	O336	O	0.874809	1.039027	0.014572
	H337	H	0.853976	1.033549	-0.001677
	H338	H	0.894852	1.046028	-0.006200
	O339	O	0.120931	0.837997	1.004174
	H340	H	0.106051	0.835270	1.005912
	H341	H	0.130505	0.833807	1.008200
	O342	O	0.578595	0.450767	0.413210
	H343	H	0.591977	0.448376	0.416311
	H344	H	0.574952	0.448370	0.405966
	O345	O	0.196944	0.200100	1.191974
	H346	H	0.182728	0.165858	1.196149
	H347	H	0.163425	0.190422	1.200197
	O348	O	0.350697	0.353344	0.629649
	H349	H	0.360182	0.351239	0.632443
	H350	H	0.371213	0.347107	0.624386
	O351	O	1.215693	0.983571	-0.222223
	H352	H	1.232423	0.966697	-0.238963
	H353	H	1.225065	0.976773	-0.224089
	O354	O	1.031658	1.221259	1.178880
	H355	H	1.017801	1.231306	1.181541
	H356	H	1.017003	1.226948	1.175662
	O357	O	-0.182530	0.174558	0.034620
	H358	H	-0.196527	0.175159	0.019993
	H359	H	-0.183350	0.165763	0.015971
	O360	O	0.198620	0.028094	1.122634
	H361	H	0.187167	0.020138	1.108122
	H362	H	0.206226	0.025608	1.127022
	O363	O	1.084710	-0.103732	0.136646
	H364	H	1.071450	-0.095278	0.138834
	H365	H	1.080564	-0.088375	0.133019
	O366	O	0.291062	-0.448894	0.540857
	H367	H	0.288925	-0.441714	0.567508
	H368	H	0.286934	-0.467401	0.562771
	O369	O	1.396139	0.299995	1.486708
	H370	H	1.383909	0.280647	1.494501
	H371	H	1.383952	0.300800	1.499788
	O372	O	0.943046	0.789999	-0.054583
	H373	H	0.929315	0.786208	-0.033994
	H374	H	0.924654	0.789693	-0.057661
	O375	O	-0.625524	-0.467259	1.661087
	H376	H	-0.628557	-0.478762	1.670314
	H377	H	-0.626430	-0.489553	1.667531
	O378	O	0.649193	0.365528	0.630546
	H379	H	0.649870	0.359612	0.617551
	H380	H	0.655461	0.366341	0.622484
	O381	O	-0.028348	0.800085	0.207764
	H382	H	-0.025744	0.799672	0.205486
	H383	H	-0.028491	0.784560	0.221770
	O384	O	0.525783	0.636815	0.535619
	H385	H	0.513920	0.624112	0.540782
	H386	H	0.530330	0.649821	0.531107
	O387	O	0.188179	0.222170	0.009950
	H388	H	0.205793	0.250116	0.024937
	H389	H	0.182901	0.219050	0.050328
	O390	O	0.890360	0.991226	0.174890
	H391	H	0.883086	0.984291	0.175818
	H392	H	0.883196	0.995006	0.183691
	O393	O	1.033470	-0.068346	1.036406
	H394	H	1.014211	-0.084078	1.038685
	H395	H	1.036581	-0.083314	1.036591
	O396	O	0.610934	0.635962	0.508847
	H397	H	0.591987	0.628029	0.512516
	H398	H	0.592963	0.629681	0.512813
	O399	O	0.402096	0.653058	0.288916
	H400	H	0.394720	0.658390	0.280223
	H401	H	0.377153	0.640002	0.291883
	O402	O	0.970720	1.028444	0.128142
	H403	H	0.963391	1.040591	0.120233
	H404	H	0.972595	1.017706	0.126417
	O405	O	0.472873	0.447139	0.530467
	H406	H	0.466242	0.442289	0.532438
	H407	H	0.480780	0.442301	0.532211
	O408	O	0.689626	0.554288	0.497589
	H409	H	0.697507	0.554210	0.481729
	H410	H	0.664420	0.561594	0.496489
	O411	O	0.817042	0.835439	1.176824
	H412	H	0.825824	0.857576	1.169223
	H413	H	0.832270	0.833389	1.176896
	O414	O	0.032009	0.133852	0.864234
	H415	H	0.028878	0.119661	0.859868
	H416	H	0.049842	0.139624	0.863700
	O417	O	0.184831	1.100219	0.955720
	H418	H	0.194598	1.085959	0.957022
	H419	H	0.194827	1.131353	0.976198
	O420	O	-0.242974	1.162057	0.765539
	H421	H	-0.250317	1.142757	0.746191
	H422	H	-0.221632	1.190187	0.764401
	O423	O	-0.088728	1.068790	-0.130980
	H424	H	-0.091332	1.063539	-0.143454
	H425	H	-0.086763	1.054323	-0.129031
	O426	O	0.480336	0.464014	0.423165
	H427	H	0.481343	0.457023	0.416246
	H428	H	0.478823	0.463816	0.417063
	O429	O	0.394256	0.646865	0.514149
	H430	H	0.406832	0.640818	0.519926
	H431	H	0.373529	0.647092	0.510779
	O432	O	0.610808	0.375903	0.306895
	H433	H	0.606052	0.388011	0.299122
	H434	H	0.608563	0.385770	0.305806
	O435	O	-0.017560	0.114743	-0.133041
	H436	H	0.001609	0.112252	-0.120701
	H437	H	-0.008847	0.099781	-0.139563
	O438	O	0.156035	0.987388	1.142633
	H439	H	0.150162	0.985379	1.126862
	H440	H	0.150232	0.997641	1.137862
	O441	O	0.506089	0.362760	0.401837
	H442	H	0.483241	0.357725	0.402462
	H443	H	0.516111	0.370611	0.380875
