data_Molecule from HDF5

_cell_length_a		15.970497
_cell_length_b		16.157412
_cell_length_c		16.501744
_cell_angle_alpha	89.963081
_cell_angle_beta	89.747622
_cell_angle_gamma	90.164816
_symmetry_space_group_name_H-M	'P 1'
_symmetry_Int_Tables_number		1

loop_
	_symmetry_equiv_pos_as_xyz
	x,y,z

loop_
	_atom_site_label
	_atom_site_type_symbol
	_atom_site_fract_x
	_atom_site_fract_y
	_atom_site_fract_z
	H0	H	0.390074	0.838822	0.709784
	H1	H	0.600586	0.164125	0.710132
	H2	H	0.602370	0.839037	0.272293
	H3	H	0.394027	0.163913	0.271975
	H4	H	0.712260	0.403693	0.829031
	H5	H	0.709343	0.599091	0.154375
	H6	H	0.284870	0.597788	0.827274
	H7	H	0.278725	0.403899	0.152917
	H8	H	0.828904	0.712740	0.395102
	H9	H	0.162497	0.713161	0.584757
	H10	H	0.829741	0.290200	0.589647
	H11	H	0.163822	0.293407	0.393683
	H12	H	0.832187	0.398915	0.708527
	H13	H	0.159166	0.608836	0.706991
	H14	H	0.831977	0.606722	0.275264
	H15	H	0.161079	0.401158	0.273048
	H16	H	0.397475	0.719169	0.829473
	H17	H	0.595439	0.717751	0.152777
	H18	H	0.597610	0.284848	0.829248
	H19	H	0.393202	0.283149	0.152027
	H20	H	0.707300	0.835292	0.396037
	H21	H	0.707675	0.167654	0.585533
	H22	H	0.283745	0.836707	0.586424
	H23	H	0.289478	0.169440	0.397474
	H24	H	0.890986	0.340805	0.210534
	H25	H	0.099595	0.666324	0.207168
	H26	H	0.100322	0.340608	0.771231
	H27	H	0.891539	0.665205	0.773232
	H28	H	0.211132	0.906864	0.328567
	H29	H	0.210169	0.100463	0.654393
	H30	H	0.782442	0.100538	0.327877
	H31	H	0.781333	0.904481	0.652811
	H32	H	0.329574	0.212202	0.894042
	H33	H	0.664273	0.213671	0.086234
	H34	H	0.329828	0.789522	0.088517
	H35	H	0.663917	0.792307	0.895743
	H36	H	0.333049	0.896981	0.209364
	H37	H	0.662551	0.103527	0.206090
	H38	H	0.331671	0.102851	0.776132
	H39	H	0.659837	0.897117	0.773048
	H40	H	0.897374	0.220402	0.329396
	H41	H	0.096690	0.220238	0.652485
	H42	H	0.098360	0.785351	0.329244
	H43	H	0.893464	0.783933	0.651708
	H44	H	0.204237	0.335418	0.896391
	H45	H	0.207729	0.668758	0.084498
	H46	H	0.785452	0.336106	0.085625
	H47	H	0.785636	0.668106	0.897111
	H48	H	0.412905	0.121170	0.597716
	H49	H	0.571588	0.887599	0.588240
	H50	H	0.590974	0.119390	0.400928
	H51	H	0.404976	0.882600	0.392710
	H52	H	0.588513	0.407418	0.105482
	H53	H	0.586748	0.605876	0.875590
	H54	H	0.401362	0.591471	0.105087
	H55	H	0.397185	0.397925	0.871664
	H56	H	0.116962	0.600576	0.400309
	H57	H	0.875763	0.592802	0.583669
	H58	H	0.116371	0.404876	0.576003
	H59	H	0.875843	0.412055	0.393496
	H60	H	0.111736	0.423111	0.579330
	H61	H	0.875815	0.592152	0.584891
	H62	H	0.112927	0.587251	0.399906
	H63	H	0.877445	0.409241	0.403303
	H64	H	0.406728	0.596973	0.104976
	H65	H	0.600057	0.595574	0.873317
	H66	H	0.588039	0.407343	0.104804
	H67	H	0.398589	0.415033	0.876598
	H68	H	0.589401	0.121620	0.391606
	H69	H	0.592849	0.886082	0.571714
	H70	H	0.412061	0.114432	0.576591
	H71	H	0.411180	0.886491	0.399176
	H72	H	0.903835	0.620925	0.083410
	H73	H	0.088588	0.384799	0.082271
	H74	H	0.092193	0.621269	0.898401
	H75	H	0.915448	0.388573	0.901582
	H76	H	0.092662	0.893466	0.610939
	H77	H	0.084611	0.100178	0.377316
	H78	H	0.900219	0.101504	0.608033
	H79	H	0.896763	0.908587	0.374116
	H80	H	0.613681	0.091137	0.904587
	H81	H	0.374133	0.100568	0.087314
	H82	H	0.615129	0.909985	0.078148
	H83	H	0.375747	0.912756	0.896458
	H84	H	0.615558	0.916254	0.086596
	H85	H	0.381982	0.088685	0.073939
	H86	H	0.615444	0.085808	0.892983
	H87	H	0.375914	0.906353	0.897617
	H88	H	0.900493	0.090180	0.604251
	H89	H	0.097059	0.105375	0.372532
	H90	H	0.099161	0.918583	0.605824
	H91	H	0.908183	0.911664	0.377835
	H92	H	0.089125	0.622147	0.891250
	H93	H	0.084875	0.384509	0.088222
	H94	H	0.902545	0.621921	0.087486
	H95	H	0.896669	0.382758	0.902242
	H96	H	0.393825	0.122891	0.587269
	H97	H	0.595656	0.877939	0.596183
	H98	H	0.582628	0.116580	0.397418
	H99	H	0.401450	0.884084	0.401860
	H100	H	0.588383	0.406651	0.106267
	H101	H	0.585692	0.589652	0.878986
	H102	H	0.399219	0.598852	0.107595
	H103	H	0.412001	0.403899	0.878076
	H104	H	0.118750	0.594061	0.389093
	H105	H	0.875305	0.592385	0.584624
	H106	H	0.118907	0.412134	0.592675
	H107	H	0.879798	0.418271	0.400353
	H108	H	0.906829	0.620731	0.086677
	H109	H	0.081518	0.387172	0.083286
	H110	H	0.084501	0.619726	0.897161
	H111	H	0.906933	0.382424	0.886229
	H112	H	0.074231	0.909432	0.601087
	H113	H	0.095934	0.091761	0.377131
	H114	H	0.909752	0.097071	0.603256
	H115	H	0.905863	0.900489	0.373839
	H116	H	0.618015	0.098296	0.894731
	H117	H	0.379173	0.082560	0.091005
	H118	H	0.618634	0.905981	0.086686
	H119	H	0.378454	0.910899	0.902080
	C120	C	0.375027	0.011045	0.614499
	C121	C	0.616951	0.992723	0.613252
	C122	C	0.617806	0.010397	0.368718
	C123	C	0.376573	0.993058	0.369624
	C124	C	0.618372	0.378732	-0.001036
	C125	C	0.619124	0.624839	0.982966
	C126	C	0.374332	0.624176	-0.001157
	C127	C	0.372616	0.377750	0.982550
	C128	C	0.005778	0.623247	0.369019
	C129	C	0.985946	0.622999	0.611837
	C130	C	0.005384	0.382897	0.611711
	C131	C	0.987331	0.383085	0.369394
	C132	C	0.874695	0.512087	0.113754
	C133	C	0.115668	0.494325	0.111756
	C134	C	0.117555	0.511869	0.867654
	C135	C	0.875902	0.493281	0.869127
	C136	C	0.117955	0.879816	0.498811
	C137	C	0.120614	0.127015	0.482967
	C138	C	0.874591	0.125194	0.498349
	C139	C	0.873943	0.878863	0.482372
	C140	C	0.505725	0.121383	0.869609
	C141	C	0.488161	0.121297	0.112073
	C142	C	0.506589	0.880491	0.112825
	C143	C	0.486500	0.880525	0.870006
	C144	C	0.373215	0.887442	0.670184
	C145	C	0.618096	0.115694	0.670038
	C146	C	0.619630	0.887472	0.311924
	C147	C	0.376038	0.115995	0.311992
	C148	C	0.674616	0.382155	0.877445
	C149	C	0.673086	0.620863	0.105210
	C150	C	0.321434	0.619700	0.876233
	C151	C	0.316169	0.381725	0.104172
	C152	C	0.879616	0.677027	0.373328
	C153	C	0.111760	0.677580	0.607063
	C154	C	0.880199	0.326679	0.610188
	C155	C	0.113349	0.329038	0.372021
	C156	C	0.881276	0.381214	0.669153
	C157	C	0.110188	0.625279	0.667681
	C158	C	0.881148	0.624161	0.313647
	C159	C	0.112041	0.383032	0.312294
	C160	C	0.377230	0.680369	0.877495
	C161	C	0.616005	0.679683	0.104729
	C162	C	0.617554	0.322855	0.877642
	C163	C	0.373664	0.322143	0.103978
	C164	C	0.672198	0.885688	0.373204
	C165	C	0.671515	0.117727	0.608156
	C166	C	0.319889	0.886467	0.609130
	C167	C	0.324023	0.118642	0.374337
	C168	C	0.873243	0.388767	0.170646
	C169	C	0.117005	0.617946	0.167524
	C170	C	0.118124	0.388851	0.810805
	C171	C	0.874514	0.616757	0.813190
	C172	C	0.173504	0.884852	0.377086
	C173	C	0.173657	0.122228	0.605457
	C174	C	0.819824	0.121881	0.376610
	C175	C	0.818612	0.882854	0.604138
	C176	C	0.379950	0.175677	0.873386
	C177	C	0.613954	0.176738	0.107906
	C178	C	0.380603	0.825816	0.109861
	C179	C	0.613018	0.827539	0.873717
	C180	C	0.381859	0.879412	0.169631
	C181	C	0.613227	0.122013	0.167408
	C182	C	0.380652	0.121121	0.814718
	C183	C	0.610867	0.879546	0.812774
	C184	C	0.876944	0.181557	0.377234
	C185	C	0.117223	0.181933	0.604485
	C186	C	0.117069	0.824620	0.377354
	C187	C	0.874238	0.822726	0.603400
	C188	C	0.169793	0.386363	0.873361
	C189	C	0.170852	0.619151	0.106679
	C190	C	0.821085	0.386481	0.108617
	C191	C	0.821414	0.617975	0.874299
	C192	C	0.399114	0.097063	0.593472
	C193	C	0.593741	0.906329	0.591758
	C194	C	0.594516	0.096931	0.390480
	C195	C	0.399155	0.906806	0.391380
	C196	C	0.594983	0.400579	0.083589
	C197	C	0.597396	0.603319	0.897992
	C198	C	0.396161	0.602151	0.083968
	C199	C	0.395680	0.399335	0.897434
	C200	C	0.093428	0.600610	0.390080
	C201	C	0.898209	0.599201	0.590680
	C202	C	0.092929	0.406410	0.589216
	C203	C	0.900193	0.406213	0.392205
	C204	C	0.897580	0.598507	0.092514
	C205	C	0.092013	0.408096	0.090804
	C206	C	0.095232	0.598595	0.889104
	C207	C	0.899530	0.406917	0.890341
	C208	C	0.095265	0.900925	0.584004
	C209	C	0.098875	0.105490	0.397747
	C210	C	0.897001	0.102918	0.583138
	C211	C	0.896979	0.900703	0.397220
	C212	C	0.593296	0.098460	0.891037
	C213	C	0.400798	0.097432	0.090568
	C214	C	0.593677	0.903817	0.090492
	C215	C	0.399335	0.903216	0.892268
	Zn216	Zn	0.495995	0.000844	0.742792
	Zn217	Zn	0.497371	0.000809	0.240447
	Zn218	Zn	0.748202	0.501933	-0.008833
	Zn219	Zn	0.243806	0.502202	-0.010083
	Zn220	Zn	-0.004245	0.748686	0.490477
	Zn221	Zn	-0.003165	0.256358	0.490823
	Zn222	Zn	-0.003875	0.503137	0.739367
	Zn223	Zn	-0.004146	0.503065	0.241799
	Zn224	Zn	0.496976	0.754373	-0.009002
	Zn225	Zn	0.496574	0.247932	-0.009226
	Zn226	Zn	0.744805	0.001839	0.490177
	Zn227	Zn	0.248454	0.003173	0.491553
	N228	N	0.407033	0.965722	0.673554
	N229	N	0.584895	0.037065	0.673195
	N230	N	0.586353	0.966039	0.309179
	N231	N	0.407905	0.036945	0.308707
	N232	N	0.675305	0.416301	0.953805
	N233	N	0.674891	0.587168	0.028570
	N234	N	0.319254	0.585594	0.952660
	N235	N	0.315491	0.415506	0.027562
	N236	N	0.958254	0.676942	0.406726
	N237	N	0.033404	0.676079	0.572787
	N238	N	0.958651	0.327659	0.575195
	N239	N	0.035032	0.329005	0.406941
	N240	N	0.960352	0.415087	0.670564
	N241	N	0.030788	0.591917	0.670705
	N242	N	0.960659	0.591433	0.310491
	N243	N	0.032514	0.415773	0.310417
	N244	N	0.409575	0.683078	0.954780
	N245	N	0.583641	0.682688	0.027804
	N246	N	0.583171	0.320731	0.954167
	N247	N	0.407988	0.319414	0.027361
	N248	N	0.671105	0.963145	0.407919
	N249	N	0.671047	0.040144	0.573609
	N250	N	0.320678	0.964136	0.575236
	N251	N	0.324009	0.041456	0.409512
	N252	N	0.905732	0.467787	0.174302
	N253	N	0.083244	0.539542	0.170682
	N254	N	0.086400	0.468046	0.807042
	N255	N	0.907828	0.538312	0.809842
	N256	N	0.174368	0.918428	0.453661
	N257	N	0.176000	0.088917	0.528747
	N258	N	0.818206	0.087553	0.452906
	N259	N	0.818375	0.917213	0.527823
	N260	N	0.458707	0.175649	0.906868
	N261	N	0.535212	0.176414	0.074415
	N262	N	0.459090	0.826294	0.075183
	N263	N	0.534758	0.827949	0.908809
	N264	N	0.461187	0.912742	0.171648
	N265	N	0.533805	0.088431	0.170324
	N266	N	0.459974	0.088038	0.812217
	N267	N	0.531242	0.912057	0.810488
	N268	N	0.910390	0.183647	0.453926
	N269	N	0.085067	0.185061	0.527399
	N270	N	0.083162	0.821607	0.454160
	N271	N	0.907850	0.820137	0.526509
	N272	N	0.169761	0.463933	0.907788
	N273	N	0.170348	0.541356	0.072700
	N274	N	0.821527	0.463956	0.074160
	N275	N	0.822212	0.540302	0.908584
	O276	O	0.005478	-0.059019	-0.055720
	H277	H	0.012344	-0.062805	-0.055619
	H278	H	0.014772	-0.051751	-0.051648
	O279	O	0.486827	0.482775	0.494974
	H280	H	0.489233	0.494153	0.506950
	H281	H	0.477797	0.471014	0.509236
	O282	O	0.584364	0.459856	0.413242
	H283	H	0.579827	0.449147	0.421647
	H284	H	0.585472	0.459881	0.403098
	O285	O	-0.046620	1.036271	0.904320
	H286	H	-0.053756	1.026966	0.903110
	H287	H	-0.040662	1.033580	0.901390
	O288	O	0.427294	0.533457	0.542308
	H289	H	0.426167	0.533262	0.547828
	H290	H	0.428827	0.538962	0.530005
	O291	O	1.029819	1.067549	0.987970
	H292	H	1.024006	1.066712	0.989736
	H293	H	1.020019	1.072626	0.987527
	O294	O	0.996105	1.080300	1.002719
	H295	H	1.002082	1.075883	1.008558
	H296	H	0.987996	1.072549	1.009868
	O297	O	1.040908	-0.006796	1.076661
	H298	H	1.037340	-0.010293	1.081809
	H299	H	1.047521	0.003999	1.075674
	O300	O	0.527568	0.467897	0.497138
	H301	H	0.535046	0.466295	0.502954
	H302	H	0.520719	0.475672	0.500173
	O303	O	0.966786	0.026283	0.029252
	H304	H	0.969726	0.007082	0.029827
	H305	H	0.961090	0.029430	0.036363
	O306	O	0.035564	1.002873	1.006690
	H307	H	0.034767	1.012246	1.005665
	H308	H	0.042003	1.011048	1.007660
	O309	O	0.413895	0.496826	0.570057
	H310	H	0.410329	0.507388	0.559634
	H311	H	0.418159	0.503390	0.565917
	O312	O	1.029656	-0.035819	0.982176
	H313	H	1.029294	-0.033952	0.983954
	H314	H	1.034050	-0.035300	0.972254
	O315	O	0.491063	0.523029	0.533245
	H316	H	0.497727	0.535673	0.532757
	H317	H	0.483798	0.523544	0.537138
	O318	O	0.497646	0.416734	0.423482
	H319	H	0.519279	0.412017	0.425946
	H320	H	0.497493	0.405789	0.432946
	O321	O	0.965076	0.977473	1.053988
	H322	H	0.968415	0.974706	1.054771
	H323	H	0.973058	0.983801	1.047432
	O324	O	0.489971	0.555942	0.564191
	H325	H	0.504058	0.557483	0.571244
	H326	H	0.482271	0.561434	0.561969
	O327	O	0.523800	0.594281	0.483649
	H328	H	0.527060	0.605064	0.470926
	H329	H	0.527239	0.575051	0.469862
	O330	O	1.062089	0.111394	0.961416
	H331	H	1.056400	0.121071	0.956566
	H332	H	1.061954	0.117585	0.973207
	O333	O	1.006671	0.934308	-0.006737
	H334	H	1.018334	0.927595	-0.003113
	H335	H	1.007558	0.944036	-0.012164
	O336	O	-0.085569	0.974189	0.983316
	H337	H	-0.088242	0.969265	0.979940
	H338	H	-0.091058	0.971930	0.967534
	O339	O	0.518029	0.539610	0.383733
	H340	H	0.527240	0.545327	0.366206
	H341	H	0.513926	0.542413	0.384742
	O342	O	0.516416	0.449158	0.498195
	H343	H	0.503307	0.440976	0.494310
	H344	H	0.517559	0.440011	0.487175
	O345	O	-0.004700	0.050471	0.023944
	H346	H	-0.003100	0.041646	0.024544
	H347	H	-0.010135	0.046527	0.021059
	O348	O	0.448485	0.511077	0.565724
	H349	H	0.440056	0.503838	0.561061
	H350	H	0.446224	0.516767	0.562699
	O351	O	0.598829	0.435162	0.534883
	H352	H	0.601972	0.425507	0.542321
	H353	H	0.595430	0.439710	0.533457
	O354	O	0.470331	0.462613	0.391977
	H355	H	0.473297	0.464593	0.402122
	H356	H	0.468965	0.446359	0.393594
	O357	O	0.520070	0.525683	0.446678
	H358	H	0.520376	0.525952	0.448247
	H359	H	0.517312	0.520045	0.457759
	O360	O	-0.006466	0.062445	-0.056509
	H361	H	0.000862	0.071600	-0.050112
	H362	H	-0.015812	0.054482	-0.059960
	O363	O	0.528264	0.421813	0.598732
	H364	H	0.521929	0.425572	0.601804
	H365	H	0.529654	0.417706	0.607334
	O366	O	-0.009908	-0.026015	0.977919
	H367	H	-0.008132	-0.026128	0.981252
	H368	H	-0.010583	-0.032146	0.978541
	O369	O	0.494079	0.445904	0.443374
	H370	H	0.497978	0.442485	0.437575
	H371	H	0.494443	0.447033	0.438862
