data_Molecule from HDF5

_cell_length_a		16.391353
_cell_length_b		16.471731
_cell_length_c		16.435438
_cell_angle_alpha	90.072830
_cell_angle_beta	90.036103
_cell_angle_gamma	90.007033
_symmetry_space_group_name_H-M	'P 1'
_symmetry_Int_Tables_number		1

loop_
	_symmetry_equiv_pos_as_xyz
	x,y,z

loop_
	_atom_site_label
	_atom_site_type_symbol
	_atom_site_fract_x
	_atom_site_fract_y
	_atom_site_fract_z
	H0	H	0.395806	0.846271	0.719936
	H1	H	0.610562	0.159680	0.721819
	H2	H	0.610193	0.846434	0.274575
	H3	H	0.397599	0.161214	0.275162
	H4	H	0.723742	0.397172	0.840246
	H5	H	0.724014	0.608139	0.155962
	H6	H	0.280841	0.608260	0.840176
	H7	H	0.282270	0.396468	0.155659
	H8	H	0.845983	0.726696	0.390528
	H9	H	0.160728	0.727293	0.606848
	H10	H	0.844806	0.283220	0.603968
	H11	H	0.159028	0.279893	0.389144
	H12	H	0.844209	0.400386	0.718088
	H13	H	0.159863	0.612775	0.724066
	H14	H	0.847570	0.614124	0.272608
	H15	H	0.159983	0.396806	0.274796
	H16	H	0.396736	0.724526	0.839347
	H17	H	0.614169	0.729400	0.153508
	H18	H	0.611075	0.278992	0.842047
	H19	H	0.397650	0.280313	0.154994
	H20	H	0.726916	0.846651	0.390171
	H21	H	0.726411	0.160517	0.605783
	H22	H	0.277676	0.847863	0.605924
	H23	H	0.282572	0.162597	0.393376
	H24	H	0.897697	0.346456	0.220883
	H25	H	0.111035	0.661243	0.221518
	H26	H	0.108918	0.345643	0.775259
	H27	H	0.896906	0.661433	0.776777
	H28	H	0.222616	0.899431	0.338663
	H29	H	0.224786	0.111146	0.656264
	H30	H	0.783013	0.107539	0.338688
	H31	H	0.782153	0.898816	0.655700
	H32	H	0.346397	0.227832	0.888521
	H33	H	0.661027	0.225543	0.105565
	H34	H	0.345027	0.780826	0.102393
	H35	H	0.660343	0.779673	0.888535
	H36	H	0.343964	0.896105	0.218124
	H37	H	0.660692	0.109605	0.221754
	H38	H	0.344992	0.110449	0.774976
	H39	H	0.660490	0.895729	0.774005
	H40	H	0.898223	0.224545	0.338985
	H41	H	0.109115	0.227543	0.655910
	H42	H	0.111511	0.779152	0.340796
	H43	H	0.898048	0.782720	0.655631
	H44	H	0.225561	0.345175	0.891351
	H45	H	0.228277	0.660586	0.105866
	H46	H	0.783045	0.345073	0.102859
	H47	H	0.779490	0.660849	0.891581
	H48	H	0.416065	0.114633	0.583567
	H49	H	0.593379	0.890325	0.586809
	H50	H	0.591803	0.117199	0.406043
	H51	H	0.420036	0.892273	0.406208
	H52	H	0.585312	0.407641	0.111729
	H53	H	0.592303	0.585163	0.886601
	H54	H	0.412971	0.588930	0.110457
	H55	H	0.413337	0.415020	0.884369
	H56	H	0.117668	0.590350	0.406415
	H57	H	0.887995	0.594147	0.591722
	H58	H	0.119002	0.412052	0.586596
	H59	H	0.887618	0.421900	0.400823
	H60	H	0.114433	0.417344	0.582274
	H61	H	0.890015	0.597584	0.582643
	H62	H	0.116118	0.595287	0.414269
	H63	H	0.886328	0.406255	0.409664
	H64	H	0.420111	0.589937	0.108371
	H65	H	0.584996	0.594657	0.885772
	H66	H	0.600132	0.410143	0.115662
	H67	H	0.417534	0.416478	0.885904
	H68	H	0.586666	0.114471	0.410465
	H69	H	0.589426	0.890978	0.586417
	H70	H	0.410622	0.117796	0.586933
	H71	H	0.410166	0.892024	0.415256
	H72	H	0.916157	0.614238	0.083171
	H73	H	0.096757	0.390732	0.084521
	H74	H	0.087475	0.613419	0.910831
	H75	H	0.919746	0.393626	0.912420
	H76	H	0.095305	0.912245	0.612416
	H77	H	0.098256	0.090001	0.383788
	H78	H	0.917859	0.090131	0.608682
	H79	H	0.909078	0.920457	0.383431
	H80	H	0.612989	0.089858	0.917719
	H81	H	0.391331	0.087278	0.086745
	H82	H	0.614703	0.917917	0.084574
	H83	H	0.391030	0.918578	0.909564
	H84	H	0.616503	0.916709	0.088345
	H85	H	0.388410	0.093787	0.088381
	H86	H	0.614199	0.083152	0.907333
	H87	H	0.387737	0.912679	0.906102
	H88	H	0.916618	0.098521	0.612211
	H89	H	0.085604	0.089332	0.389373
	H90	H	0.091382	0.924114	0.608032
	H91	H	0.922356	0.916702	0.387114
	H92	H	0.093504	0.614367	0.915444
	H93	H	0.090299	0.390516	0.091479
	H94	H	0.911744	0.616974	0.084575
	H95	H	0.906129	0.389486	0.911879
	H96	H	0.416885	0.117120	0.590034
	H97	H	0.591770	0.891338	0.583292
	H98	H	0.593545	0.115704	0.413280
	H99	H	0.407830	0.886837	0.402586
	H100	H	0.591803	0.421327	0.109346
	H101	H	0.596046	0.595225	0.881450
	H102	H	0.416974	0.595650	0.111398
	H103	H	0.416697	0.412137	0.884484
	H104	H	0.113916	0.586146	0.413873
	H105	H	0.892437	0.587738	0.585455
	H106	H	0.116181	0.418850	0.589888
	H107	H	0.894004	0.420225	0.417312
	H108	H	0.915797	0.616898	0.087931
	H109	H	0.088181	0.393679	0.082927
	H110	H	0.093999	0.616356	0.908574
	H111	H	0.913933	0.388413	0.900540
	H112	H	0.082083	0.914117	0.608364
	H113	H	0.090007	0.100930	0.383283
	H114	H	0.910213	0.092188	0.612295
	H115	H	0.913714	0.907401	0.381396
	H116	H	0.618114	0.094960	0.907669
	H117	H	0.391511	0.092161	0.081424
	H118	H	0.616336	0.913944	0.084339
	H119	H	0.390407	0.912223	0.913307
	C120	C	0.381034	0.012480	0.619447
	C121	C	0.624625	0.994738	0.619364
	C122	C	0.623908	0.011909	0.376491
	C123	C	0.380774	0.994936	0.375726
	C124	C	0.624770	0.380792	0.007674
	C125	C	0.624828	0.625083	0.988604
	C126	C	0.383072	0.623918	0.005937
	C127	C	0.382498	0.381385	0.989257
	C128	C	0.012172	0.624883	0.377386
	C129	C	0.994310	0.626148	0.620414
	C130	C	0.011740	0.383687	0.618665
	C131	C	0.993797	0.383010	0.376204
	C132	C	0.882127	0.512056	0.118727
	C133	C	0.125705	0.495163	0.120084
	C134	C	0.124436	0.511055	0.877343
	C135	C	0.880426	0.494840	0.875980
	C136	C	0.123559	0.883266	0.505703
	C137	C	0.124353	0.126686	0.489615
	C138	C	0.882121	0.125449	0.506499
	C139	C	0.882422	0.882588	0.488805
	C140	C	0.511187	0.123471	0.876733
	C141	C	0.494882	0.123897	0.118760
	C142	C	0.511547	0.882009	0.118579
	C143	C	0.494212	0.881201	0.875814
	C144	C	0.377510	0.893957	0.680008
	C145	C	0.628029	0.112548	0.681054
	C146	C	0.627563	0.893476	0.315163
	C147	C	0.379067	0.113933	0.315496
	C148	C	0.684411	0.378690	0.888188
	C149	C	0.685162	0.627342	0.107871
	C150	C	0.321584	0.626531	0.887247
	C151	C	0.321976	0.378465	0.107912
	C152	C	0.893709	0.686560	0.372892
	C153	C	0.113047	0.687366	0.624609
	C154	C	0.892225	0.323414	0.621739
	C155	C	0.112053	0.321019	0.372286
	C156	C	0.891982	0.381701	0.678569
	C157	C	0.112566	0.630055	0.682902
	C158	C	0.894258	0.630129	0.314216
	C159	C	0.112434	0.379040	0.314918
	C160	C	0.379159	0.684362	0.886839
	C161	C	0.630226	0.687700	0.106558
	C162	C	0.628319	0.319836	0.889124
	C163	C	0.378993	0.320119	0.107548
	C164	C	0.685689	0.893717	0.372921
	C165	C	0.685971	0.112879	0.623382
	C166	C	0.318564	0.894914	0.623280
	C167	C	0.321897	0.114818	0.374454
	C168	C	0.879662	0.393504	0.180065
	C169	C	0.129153	0.613859	0.181335
	C170	C	0.127428	0.392907	0.815776
	C171	C	0.878268	0.613735	0.816174
	C172	C	0.183801	0.880494	0.386665
	C173	C	0.184940	0.129455	0.608536
	C174	C	0.822348	0.126597	0.386545
	C175	C	0.822342	0.880420	0.608071
	C176	C	0.393464	0.186397	0.871901
	C177	C	0.613761	0.185171	0.123015
	C178	C	0.392492	0.820879	0.120985
	C179	C	0.612823	0.819985	0.871422
	C180	C	0.392059	0.878754	0.178476
	C181	C	0.613541	0.127402	0.180671
	C182	C	0.392595	0.127990	0.815102
	C183	C	0.612785	0.877881	0.814172
	C184	C	0.879743	0.184745	0.386656
	C185	C	0.127177	0.187424	0.608361
	C186	C	0.128264	0.820614	0.387752
	C187	C	0.880103	0.822723	0.608043
	C188	C	0.185265	0.392540	0.873851
	C189	C	0.187616	0.613400	0.123732
	C190	C	0.822633	0.392727	0.121398
	C191	C	0.819709	0.613443	0.873599
	C192	C	0.407187	0.095041	0.594164
	C193	C	0.598835	0.912373	0.593079
	C194	C	0.597957	0.094200	0.402506
	C195	C	0.405557	0.912092	0.400754
	C196	C	0.599632	0.405937	0.090786
	C197	C	0.598348	0.599238	0.906106
	C198	C	0.409187	0.598738	0.088549
	C199	C	0.408523	0.407194	0.906518
	C200	C	0.094454	0.598302	0.403933
	C201	C	0.911617	0.600542	0.594000
	C202	C	0.094691	0.408733	0.593401
	C203	C	0.911111	0.408879	0.401837
	C204	C	0.907399	0.594503	0.092871
	C205	C	0.099179	0.413128	0.093896
	C206	C	0.098800	0.593246	0.903830
	C207	C	0.905967	0.412034	0.901105
	C208	C	0.097212	0.909325	0.588121
	C209	C	0.098620	0.100994	0.407049
	C210	C	0.907445	0.100778	0.589146
	C211	C	0.907722	0.907467	0.405765
	C212	C	0.593507	0.096802	0.903163
	C213	C	0.412044	0.098551	0.092894
	C214	C	0.594223	0.908417	0.093074
	C215	C	0.411224	0.907078	0.902226
	Zn216	Zn	0.502389	0.002878	0.748125
	Zn217	Zn	0.502711	0.003204	0.247406
	Zn218	Zn	0.752210	0.502850	-0.001494
	Zn219	Zn	0.254307	0.502782	-0.002281
	Zn220	Zn	0.003441	0.753632	0.497681
	Zn221	Zn	0.002312	0.255132	0.497827
	Zn222	Zn	0.003132	0.503813	0.748002
	Zn223	Zn	0.003073	0.504618	0.248187
	Zn224	Zn	0.503363	0.753708	-0.002852
	Zn225	Zn	0.503497	0.252644	-0.001950
	Zn226	Zn	0.753707	0.004077	0.497395
	Zn227	Zn	0.252457	0.004566	0.497437
	N228	N	0.415560	0.968163	0.677782
	N229	N	0.590602	0.037890	0.678702
	N230	N	0.589841	0.968001	0.317348
	N231	N	0.414386	0.038332	0.315883
	N232	N	0.682316	0.416024	0.962869
	N233	N	0.682028	0.589283	0.033516
	N234	N	0.323697	0.589763	0.962176
	N235	N	0.324126	0.415822	0.033070
	N236	N	0.968029	0.683289	0.411520
	N237	N	0.038547	0.685068	0.586507
	N238	N	0.967644	0.324417	0.585236
	N239	N	0.037090	0.323217	0.409438
	N240	N	0.967170	0.418490	0.676788
	N241	N	0.037580	0.592826	0.680609
	N242	N	0.968849	0.592337	0.316949
	N243	N	0.037860	0.417029	0.317273
	N244	N	0.416578	0.682961	0.961784
	N245	N	0.593503	0.686573	0.031279
	N246	N	0.592131	0.320868	0.964514
	N247	N	0.415767	0.321877	0.032612
	N248	N	0.683445	0.968197	0.410568
	N249	N	0.684105	0.038552	0.585607
	N250	N	0.320571	0.969696	0.586459
	N251	N	0.322646	0.039695	0.410920
	N252	N	0.915883	0.468764	0.178535
	N253	N	0.091608	0.539271	0.179352
	N254	N	0.090108	0.467511	0.817911
	N255	N	0.915267	0.538952	0.817651
	N256	N	0.180828	0.918883	0.460906
	N257	N	0.183292	0.092375	0.533600
	N258	N	0.823565	0.090546	0.461967
	N259	N	0.823514	0.916631	0.532797
	N260	N	0.468176	0.183733	0.909727
	N261	N	0.538949	0.182943	0.084926
	N262	N	0.467895	0.822597	0.084536
	N263	N	0.537977	0.822032	0.908975
	N264	N	0.467416	0.915669	0.177470
	N265	N	0.538673	0.090162	0.178197
	N266	N	0.466989	0.089587	0.818003
	N267	N	0.537672	0.915149	0.816630
	N268	N	0.915702	0.184551	0.462185
	N269	N	0.090590	0.186181	0.533157
	N270	N	0.091706	0.822204	0.463101
	N271	N	0.916614	0.823808	0.532741
	N272	N	0.183379	0.467005	0.911516
	N273	N	0.185761	0.538540	0.086595
	N274	N	0.824079	0.467262	0.083836
	N275	N	0.820748	0.538256	0.909902
	O276	O	0.681650	0.507872	0.684505
	H277	H	0.665901	0.497465	0.701222
	H278	H	0.683622	0.488847	0.698406
	O279	O	0.884856	0.116199	0.781521
	H280	H	0.870027	0.125808	0.770661
	H281	H	0.891205	0.145431	0.785611
	O282	O	0.485588	0.302058	0.703249
	H283	H	0.507949	0.294230	0.680688
	H284	H	0.496733	0.289266	0.717442
	O285	O	0.499191	0.479517	0.373595
	H286	H	0.491658	0.467018	0.368296
	H287	H	0.493483	0.492989	0.378440
	O288	O	1.095161	0.865722	-0.006475
	H289	H	1.109475	0.887882	-0.022178
	H290	H	1.082946	0.871078	-0.007883
	O291	O	0.373555	0.357556	0.304439
	H292	H	0.399388	0.366292	0.318500
	H293	H	0.364586	0.382011	0.305462
	O294	O	-0.006739	0.099464	1.041251
	H295	H	0.006220	0.099018	1.059390
	H296	H	-0.016655	0.114836	1.049079
	O297	O	0.718048	0.719258	0.522239
	H298	H	0.723351	0.726321	0.544229
	H299	H	0.727929	0.735318	0.530514
	O300	O	0.363975	0.604439	0.520271
	H301	H	0.379283	0.596779	0.528123
	H302	H	0.356012	0.588318	0.529354
	O303	O	0.689943	0.653628	0.687032
	H304	H	0.664844	0.655119	0.681290
	H305	H	0.700484	0.613177	0.700687
	O306	O	0.444651	0.524858	0.657051
	H307	H	0.439306	0.542474	0.642181
	H308	H	0.437526	0.528995	0.656385
	O309	O	0.663280	0.473732	0.518693
	H310	H	0.663868	0.474594	0.528437
	H311	H	0.666597	0.463113	0.527356
	O312	O	-0.179411	1.177693	0.974325
	H313	H	-0.181175	1.153096	0.996022
	H314	H	-0.199368	1.196173	0.979407
	O315	O	0.721612	0.283383	0.472712
	H316	H	0.739780	0.263887	0.456377
	H317	H	0.723735	0.281325	0.437882
	O318	O	0.490385	0.402383	0.389483
	H319	H	0.485311	0.404227	0.402661
	H320	H	0.497973	0.401166	0.415772
	O321	O	0.162547	0.211235	0.004803
	H322	H	0.185152	0.201983	0.002432
	H323	H	0.176589	0.203050	0.004422
	O324	O	0.587481	0.378219	0.300772
	H325	H	0.575985	0.377049	0.314708
	H326	H	0.588874	0.374241	0.303604
	O327	O	0.560322	0.707535	0.703183
	H328	H	0.553089	0.726728	0.691236
	H329	H	0.572701	0.712611	0.713170
	O330	O	-0.007573	1.098719	0.177291
	H331	H	-0.014275	1.092446	0.178051
	H332	H	-0.000059	1.104309	0.188281
	O333	O	0.480131	0.721420	0.492509
	H334	H	0.470686	0.722137	0.477117
	H335	H	0.470665	0.723975	0.478761
	O336	O	0.009771	0.158355	0.187949
	H337	H	0.018090	0.174005	0.196169
	H338	H	0.036759	0.156331	0.190077
	O339	O	0.207710	0.934501	0.995167
	H340	H	0.199827	0.937482	0.959335
	H341	H	0.223828	0.908314	0.999056
	O342	O	-0.182724	0.800529	1.002735
	H343	H	-0.226280	0.774550	1.008209
	H344	H	-0.193660	0.842277	0.981158
	O345	O	0.992939	1.086029	0.013837
	H346	H	0.982356	1.087188	0.025232
	H347	H	1.021810	1.085451	0.023413
	O348	O	0.511099	0.575311	0.431104
	H349	H	0.532556	0.553167	0.419936
	H350	H	0.517623	0.585337	0.422613
	O351	O	0.214788	0.911970	0.849507
	H352	H	0.226948	0.909478	0.831489
	H353	H	0.198318	0.931456	0.824173
	O354	O	0.212791	1.087041	0.160097
	H355	H	0.221026	1.081348	0.164147
	H356	H	0.224172	1.082865	0.172431
	O357	O	0.099590	-0.019064	1.114809
	H358	H	0.086873	-0.016295	1.125057
	H359	H	0.101475	-0.026255	1.105431
	O360	O	0.479604	0.471251	0.515608
	H361	H	0.486161	0.478359	0.512280
	H362	H	0.467273	0.470641	0.519401
	O363	O	-0.143965	-0.009798	1.029598
	H364	H	-0.153783	-0.019066	1.060006
	H365	H	-0.118635	0.002945	1.029465
	O366	O	0.689408	0.506405	0.388986
	H367	H	0.691097	0.526861	0.424225
	H368	H	0.713642	0.498266	0.385902
	O369	O	0.495911	0.679972	0.488848
	H370	H	0.504620	0.669295	0.489569
	H371	H	0.512242	0.688400	0.497606
	O372	O	1.214883	0.014604	0.900982
	H373	H	1.193204	0.002756	0.906675
	H374	H	1.236166	0.006305	0.863383
	O375	O	0.584334	0.332287	0.620286
	H376	H	0.599360	0.320593	0.621101
	H377	H	0.571421	0.328698	0.597820
	O378	O	0.292201	0.486976	0.707356
	H379	H	0.273161	0.480677	0.727010
	H380	H	0.308058	0.499562	0.703935
	O381	O	0.982974	-0.208742	0.976517
	H382	H	0.966073	-0.211362	0.985860
	H383	H	0.977359	-0.196256	0.975040
	O384	O	0.691027	0.315529	0.310694
	H385	H	0.669809	0.312181	0.295022
	H386	H	0.674877	0.336338	0.304194
	O387	O	-0.082600	0.152001	0.917730
	H388	H	-0.069484	0.152746	0.917820
	H389	H	-0.073987	0.144922	0.947192
	O390	O	-0.081154	-0.078101	-0.198885
	H391	H	-0.071085	-0.091448	-0.196505
	H392	H	-0.090409	-0.064936	-0.190007
	O393	O	0.979065	0.935193	0.954804
	H394	H	0.973045	0.932193	0.936006
	H395	H	0.984716	0.939016	0.948132
	O396	O	1.019365	-0.207996	-0.197126
	H397	H	1.022557	-0.232199	-0.224063
	H398	H	1.001039	-0.208040	-0.166327
	O399	O	0.810815	0.191692	0.806957
	H400	H	0.816597	0.190993	0.835059
	H401	H	0.841376	0.196783	0.821959
	O402	O	0.784673	0.948518	0.951551
	H403	H	0.784570	0.970492	0.933786
	H404	H	0.784810	0.985034	0.963402
	O405	O	0.793544	0.988659	0.204821
	H406	H	0.803346	0.948681	0.204110
	H407	H	0.783203	0.976618	0.227647
	O408	O	0.983753	-0.193473	0.192796
	H409	H	1.003061	-0.207666	0.167924
	H410	H	0.989540	-0.197119	0.206787
	O411	O	0.819662	0.822796	0.182877
	H412	H	0.867602	0.815009	0.187893
	H413	H	0.804040	0.803257	0.154291
	O414	O	0.299928	0.717016	0.481418
	H415	H	0.271574	0.729292	0.477752
	H416	H	0.302221	0.702541	0.480920
	O417	O	0.322215	0.515086	0.279359
	H418	H	0.288629	0.517593	0.254123
	H419	H	0.320665	0.538403	0.292179
	O420	O	0.093663	0.198764	0.142771
	H421	H	0.106677	0.197822	0.121760
	H422	H	0.116652	0.200522	0.165668
	O423	O	0.706364	0.602691	0.388792
	H424	H	0.698517	0.593104	0.407150
	H425	H	0.713807	0.596165	0.409709
	O426	O	0.556557	0.292761	0.461070
	H427	H	0.558641	0.302602	0.455519
	H428	H	0.557594	0.296306	0.440550
	O429	O	0.320632	0.321283	0.682866
	H430	H	0.373577	0.313867	0.692663
	H431	H	0.310090	0.353180	0.674637
	O432	O	0.302415	0.448602	0.447575
	H433	H	0.300651	0.438176	0.427768
	H434	H	0.308179	0.450234	0.470213
	O435	O	0.319075	0.652807	0.317754
	H436	H	0.307304	0.642660	0.341998
	H437	H	0.356352	0.669994	0.303938
	O438	O	0.046781	0.048133	-0.202038
	H439	H	0.025991	0.055859	-0.193733
	H440	H	0.030488	0.056432	-0.191097
	O441	O	1.085515	0.103644	-0.014721
	H442	H	1.077185	0.099735	0.008225
	H443	H	1.092348	0.101996	-0.011211
	O444	O	0.186093	0.915220	0.962651
	H445	H	0.163866	0.913464	0.949625
	H446	H	0.200825	0.921462	0.955123
	O447	O	0.448345	0.712976	0.289327
	H448	H	0.468556	0.697711	0.297622
	H449	H	0.459371	0.734071	0.266402
	O450	O	0.484820	0.529888	0.700660
	H451	H	0.486939	0.549536	0.702323
	H452	H	0.490341	0.533255	0.682793
	O453	O	0.281639	0.296637	0.516353
	H454	H	0.265267	0.289954	0.539947
	H455	H	0.266599	0.298905	0.524941
