data_Molecule from HDF5

_cell_length_a		16.304585
_cell_length_b		16.400882
_cell_length_c		16.231210
_cell_angle_alpha	89.960290
_cell_angle_beta	89.960206
_cell_angle_gamma	89.948289
_symmetry_space_group_name_H-M	'P 1'
_symmetry_Int_Tables_number		1

loop_
	_symmetry_equiv_pos_as_xyz
	x,y,z

loop_
	_atom_site_label
	_atom_site_type_symbol
	_atom_site_fract_x
	_atom_site_fract_y
	_atom_site_fract_z
	H0	H	0.408343	0.822762	0.719338
	H1	H	0.611072	0.144134	0.718312
	H2	H	0.616200	0.823815	0.280095
	H3	H	0.411273	0.145067	0.283982
	H4	H	0.727128	0.378286	0.838500
	H5	H	0.729122	0.583886	0.162454
	H6	H	0.292719	0.583484	0.838270
	H7	H	0.292421	0.382134	0.164195
	H8	H	0.851215	0.701989	0.394666
	H9	H	0.174065	0.697795	0.600317
	H10	H	0.851180	0.262320	0.603419
	H11	H	0.172583	0.262265	0.395059
	H12	H	0.849074	0.380117	0.715771
	H13	H	0.174006	0.580096	0.715317
	H14	H	0.848545	0.581381	0.284127
	H15	H	0.172972	0.380632	0.281497
	H16	H	0.406042	0.700667	0.838659
	H17	H	0.613998	0.701304	0.162419
	H18	H	0.611285	0.264974	0.838915
	H19	H	0.405958	0.264134	0.163255
	H20	H	0.730762	0.822663	0.396861
	H21	H	0.730447	0.142749	0.605330
	H22	H	0.295167	0.821416	0.602111
	H23	H	0.292099	0.143399	0.397419
	H24	H	0.907054	0.321369	0.220624
	H25	H	0.112628	0.641678	0.218334
	H26	H	0.114712	0.320639	0.780259
	H27	H	0.909049	0.641816	0.781773
	H28	H	0.230244	0.880415	0.338217
	H29	H	0.227741	0.082365	0.663654
	H30	H	0.791243	0.086857	0.339668
	H31	H	0.793755	0.879589	0.661922
	H32	H	0.348125	0.201647	0.898235
	H33	H	0.669581	0.205158	0.107034
	H34	H	0.349491	0.761842	0.107555
	H35	H	0.669262	0.760907	0.895835
	H36	H	0.349540	0.880963	0.220522
	H37	H	0.671671	0.087246	0.218917
	H38	H	0.347933	0.084644	0.783588
	H39	H	0.671251	0.881715	0.783958
	H40	H	0.907076	0.202501	0.339269
	H41	H	0.117383	0.202203	0.661097
	H42	H	0.114844	0.765141	0.337495
	H43	H	0.909301	0.763035	0.661037
	H44	H	0.231691	0.322030	0.896384
	H45	H	0.227057	0.642380	0.104271
	H46	H	0.790832	0.320847	0.105351
	H47	H	0.789018	0.640261	0.893836
	H48	H	0.416859	0.097405	0.587559
	H49	H	0.599576	0.871101	0.585154
	H50	H	0.601792	0.098526	0.406823
	H51	H	0.418664	0.868182	0.409659
	H52	H	0.602567	0.384994	0.119578
	H53	H	0.592096	0.571937	0.888594
	H54	H	0.420341	0.570481	0.115739
	H55	H	0.408286	0.400488	0.885457
	H56	H	0.128038	0.575471	0.405873
	H57	H	0.895034	0.572279	0.595565
	H58	H	0.125223	0.398143	0.592062
	H59	H	0.896124	0.395912	0.403438
	H60	H	0.130073	0.385482	0.592652
	H61	H	0.894705	0.579935	0.588280
	H62	H	0.126031	0.574076	0.411219
	H63	H	0.894394	0.383280	0.411868
	H64	H	0.420280	0.576220	0.117208
	H65	H	0.601487	0.577329	0.883108
	H66	H	0.605029	0.399784	0.115541
	H67	H	0.431334	0.396464	0.891270
	H68	H	0.598236	0.095355	0.412801
	H69	H	0.608881	0.865694	0.593173
	H70	H	0.415330	0.100621	0.595620
	H71	H	0.423273	0.868685	0.409353
	H72	H	0.917157	0.593749	0.082173
	H73	H	0.104447	0.366055	0.090016
	H74	H	0.102286	0.596435	0.906276
	H75	H	0.919928	0.367101	0.912057
	H76	H	0.097414	0.889322	0.614462
	H77	H	0.094869	0.060822	0.390681
	H78	H	0.923769	0.066569	0.612869
	H79	H	0.926837	0.884179	0.383235
	H80	H	0.627904	0.079393	0.905296
	H81	H	0.397370	0.071625	0.085223
	H82	H	0.620916	0.899742	0.085801
	H83	H	0.396927	0.891448	0.917321
	H84	H	0.628185	0.890825	0.097944
	H85	H	0.394670	0.069794	0.096221
	H86	H	0.623052	0.077635	0.919664
	H87	H	0.394718	0.897390	0.908248
	H88	H	0.926003	0.076456	0.616014
	H89	H	0.094441	0.084745	0.383179
	H90	H	0.105010	0.884817	0.618271
	H91	H	0.913430	0.893062	0.381538
	H92	H	0.097805	0.594351	0.908154
	H93	H	0.098188	0.367391	0.093209
	H94	H	0.914403	0.599154	0.094681
	H95	H	0.915408	0.365388	0.907399
	H96	H	0.423149	0.096803	0.593454
	H97	H	0.597200	0.868339	0.597821
	H98	H	0.605188	0.097279	0.412969
	H99	H	0.421214	0.870073	0.413140
	H100	H	0.590554	0.392966	0.113392
	H101	H	0.602032	0.565983	0.886812
	H102	H	0.415214	0.572837	0.117346
	H103	H	0.418114	0.379062	0.881526
	H104	H	0.125494	0.570507	0.407665
	H105	H	0.898158	0.569926	0.586098
	H106	H	0.124418	0.390271	0.581752
	H107	H	0.900670	0.395208	0.418973
	H108	H	0.926930	0.593170	0.092381
	H109	H	0.100277	0.368816	0.086119
	H110	H	0.101389	0.595077	0.911627
	H111	H	0.921561	0.366664	0.906466
	H112	H	0.106040	0.893708	0.616157
	H113	H	0.116121	0.071218	0.381240
	H114	H	0.916864	0.072347	0.617192
	H115	H	0.926193	0.899245	0.388368
	H116	H	0.622040	0.065552	0.909582
	H117	H	0.393361	0.080139	0.091120
	H118	H	0.624979	0.884254	0.083244
	H119	H	0.392177	0.886794	0.908190
	C120	C	0.388643	-0.008189	0.622792
	C121	C	0.632433	0.974601	0.623182
	C122	C	0.633274	-0.008361	0.378895
	C123	C	0.389840	0.974881	0.379250
	C124	C	0.630763	0.360699	0.009612
	C125	C	0.630768	0.603060	0.992389
	C126	C	0.387814	0.603978	0.009446
	C127	C	0.387798	0.361401	0.992970
	C128	C	0.019640	0.603200	0.377977
	C129	C	1.003280	0.603144	0.620490
	C130	C	0.020146	0.360227	0.621003
	C131	C	1.002868	0.360249	0.378873
	C132	C	0.888441	0.489576	0.121822
	C133	C	0.131227	0.473363	0.121002
	C134	C	0.132241	0.489708	0.877927
	C135	C	0.888062	0.472121	0.877461
	C136	C	0.133748	0.859871	0.509117
	C137	C	0.132723	0.102875	0.492155
	C138	C	0.890333	0.103653	0.509153
	C139	C	0.890449	0.860749	0.491079
	C140	C	0.517718	0.104779	0.880112
	C141	C	0.501705	0.105097	0.122517
	C142	C	0.518453	0.860755	0.121912
	C143	C	0.500706	0.860836	0.879640
	C144	C	0.389486	0.870663	0.680153
	C145	C	0.631657	0.095656	0.680370
	C146	C	0.634481	0.871453	0.319745
	C147	C	0.390407	0.096237	0.321777
	C148	C	0.688477	0.359576	0.887382
	C149	C	0.689784	0.603129	0.114025
	C150	C	0.330917	0.603179	0.887150
	C151	C	0.330329	0.361936	0.115344
	C152	C	0.898856	0.661972	0.376844
	C153	C	0.125515	0.659023	0.619687
	C154	C	0.898974	0.301772	0.622156
	C155	C	0.124299	0.301892	0.376734
	C156	C	0.898114	0.360501	0.677928
	C157	C	0.125370	0.600835	0.677233
	C158	C	0.897495	0.601977	0.321621
	C159	C	0.124498	0.360613	0.320171
	C160	C	0.387545	0.661320	0.887173
	C161	C	0.632439	0.661685	0.113999
	C162	C	0.630643	0.303183	0.887510
	C163	C	0.387086	0.303546	0.114949
	C164	C	0.691480	0.870913	0.377992
	C165	C	0.690369	0.095097	0.623475
	C166	C	0.332907	0.870075	0.622037
	C167	C	0.331339	0.095517	0.378589
	C168	C	0.887963	0.369054	0.180836
	C169	C	0.131319	0.593987	0.179317
	C170	C	0.133507	0.368774	0.819584
	C171	C	0.888779	0.593434	0.820068
	C172	C	0.191277	0.860849	0.386700
	C173	C	0.189503	0.102353	0.614826
	C174	C	0.830779	0.105422	0.387923
	C175	C	0.832382	0.859978	0.613274
	C176	C	0.396466	0.162962	0.879183
	C177	C	0.621924	0.164905	0.124558
	C178	C	0.397823	0.801785	0.125074
	C179	C	0.621592	0.801523	0.877680
	C180	C	0.397749	0.861118	0.181348
	C181	C	0.622954	0.105966	0.180387
	C182	C	0.396267	0.104435	0.822241
	C183	C	0.622647	0.861467	0.822196
	C184	C	0.888481	0.163002	0.387746
	C185	C	0.134713	0.162034	0.613222
	C186	C	0.133824	0.803485	0.386383
	C187	C	0.889914	0.802189	0.612802
	C188	C	0.191519	0.369417	0.877561
	C189	C	0.188742	0.594184	0.122730
	C190	C	0.829931	0.368972	0.123418
	C191	C	0.829249	0.592683	0.876041
	C192	C	0.411682	0.076324	0.599092
	C193	C	0.608929	0.890301	0.599154
	C194	C	0.608963	0.075334	0.403591
	C195	C	0.414011	0.890863	0.403411
	C196	C	0.606524	0.385453	0.094318
	C197	C	0.605680	0.578668	0.908027
	C198	C	0.411656	0.580131	0.094645
	C199	C	0.412199	0.385121	0.907880
	C200	C	0.104587	0.580118	0.401507
	C201	C	0.917897	0.580874	0.596771
	C202	C	0.104534	0.384442	0.596190
	C203	C	0.918803	0.384480	0.403958
	C204	C	0.912554	0.573115	0.096970
	C205	C	0.107774	0.389200	0.096818
	C206	C	0.107590	0.573371	0.901753
	C207	C	0.912098	0.388266	0.901635
	C208	C	0.109855	0.882702	0.594223
	C209	C	0.108669	0.078957	0.407351
	C210	C	0.915212	0.078888	0.593364
	C211	C	0.914901	0.885207	0.406438
	C212	C	0.602311	0.080953	0.904437
	C213	C	0.417199	0.080632	0.098092
	C214	C	0.602718	0.884631	0.096437
	C215	C	0.416413	0.884850	0.904074
	Zn216	Zn	0.509909	-0.016697	0.751546
	Zn217	Zn	0.511180	-0.016868	0.250108
	Zn218	Zn	0.759654	0.481007	-0.000084
	Zn219	Zn	0.259791	0.482819	0.001561
	Zn220	Zn	0.012048	0.732171	0.499166
	Zn221	Zn	0.012264	0.231757	0.500431
	Zn222	Zn	0.010861	0.481124	0.748725
	Zn223	Zn	0.010920	0.481682	0.249985
	Zn224	Zn	0.509228	0.731782	0.000623
	Zn225	Zn	0.509550	0.233483	0.001272
	Zn226	Zn	0.761684	-0.017594	0.500997
	Zn227	Zn	0.260576	-0.017729	0.500813
	N228	N	0.423295	0.947351	0.680803
	N229	N	0.596282	0.019588	0.680223
	N230	N	0.599288	0.947603	0.319821
	N231	N	0.426052	0.020262	0.322072
	N232	N	0.688819	0.394484	0.964404
	N233	N	0.689075	0.567542	0.037250
	N234	N	0.330706	0.568573	0.964419
	N235	N	0.330505	0.396994	0.038304
	N236	N	0.975802	0.662695	0.411313
	N237	N	0.048498	0.660611	0.585316
	N238	N	0.975946	0.301402	0.587532
	N239	N	0.047645	0.301278	0.412180
	N240	N	0.974688	0.395856	0.677430
	N241	N	0.048157	0.567099	0.677958
	N242	N	0.973543	0.565965	0.322597
	N243	N	0.048098	0.396219	0.321279
	N244	N	0.422099	0.661922	0.964367
	N245	N	0.596395	0.661488	0.037475
	N246	N	0.595602	0.303592	0.964675
	N247	N	0.421822	0.303072	0.037850
	N248	N	0.691068	0.946707	0.413790
	N249	N	0.691100	0.018631	0.588805
	N250	N	0.332241	0.946396	0.586883
	N251	N	0.330997	0.019166	0.413709
	N252	N	0.923586	0.444886	0.180261
	N253	N	0.096104	0.517919	0.178441
	N254	N	0.097246	0.444355	0.819668
	N255	N	0.924510	0.517486	0.820417
	N256	N	0.191451	0.895161	0.464128
	N257	N	0.188754	0.066366	0.538388
	N258	N	0.831925	0.068876	0.464217
	N259	N	0.832577	0.895564	0.536621
	N260	N	0.472925	0.163058	0.914577
	N261	N	0.545505	0.164203	0.089058
	N262	N	0.473932	0.801629	0.088837
	N263	N	0.544784	0.800956	0.912494
	N264	N	0.473916	0.897069	0.179552
	N265	N	0.547217	0.069180	0.178958
	N266	N	0.472724	0.069043	0.822746
	N267	N	0.546500	0.897611	0.823160
	N268	N	0.924589	0.162249	0.464166
	N269	N	0.100415	0.162562	0.535850
	N270	N	0.098745	0.802756	0.463375
	N271	N	0.925067	0.802293	0.535764
	N272	N	0.191037	0.445517	0.913014
	N273	N	0.188721	0.518198	0.087249
	N274	N	0.829976	0.444900	0.087253
	N275	N	0.828421	0.516251	0.910786
	O276	O	0.597611	0.440174	0.467027
	H277	H	0.597039	0.439872	0.470507
	H278	H	0.609375	0.442989	0.471732
	O279	O	0.644053	0.545828	0.483891
	H280	H	0.640091	0.567854	0.460761
	H281	H	0.643500	0.550178	0.501250
	O282	O	1.184973	0.018612	0.985949
	H283	H	1.193143	-0.009056	0.983498
	H284	H	1.176602	0.019857	0.996414
	O285	O	1.160136	1.008103	1.123838
	H286	H	1.183127	1.010342	1.127888
	H287	H	1.156456	1.023402	1.129073
	O288	O	0.917858	1.063184	1.136927
	H289	H	0.912456	1.053408	1.108790
	H290	H	0.919662	1.057771	1.129963
	O291	O	-0.076988	0.998472	-0.006944
	H292	H	-0.064889	0.995590	-0.016699
	H293	H	-0.103261	0.986329	0.004337
	O294	O	-0.150133	1.099048	0.812026
	H295	H	-0.144528	1.107023	0.800517
	H296	H	-0.154913	1.080747	0.822830
	O297	O	0.417565	0.593986	0.402043
	H298	H	0.401490	0.595622	0.405284
	H299	H	0.409717	0.592293	0.411493
	O300	O	0.425907	0.588039	0.356649
	H301	H	0.412977	0.603036	0.355012
	H302	H	0.421044	0.589102	0.366082
	O303	O	0.107012	1.059805	0.875042
	H304	H	0.108551	1.053792	0.871670
	H305	H	0.099960	1.058625	0.881473
	O306	O	0.490113	0.531846	0.415248
	H307	H	0.485126	0.524157	0.414360
	H308	H	0.482827	0.542879	0.421756
	O309	O	0.366077	0.377350	0.495900
	H310	H	0.367262	0.363926	0.495270
	H311	H	0.373265	0.377331	0.528057
	O312	O	0.083740	0.159770	0.162810
	H313	H	0.067114	0.158418	0.155987
	H314	H	0.069497	0.153065	0.173083
	O315	O	0.482521	1.368673	-0.533330
	H316	H	0.496140	1.384678	-0.520947
	H317	H	0.490119	1.354721	-0.543839
	O318	O	-0.190309	1.172958	0.945266
	H319	H	-0.173180	1.169221	0.927214
	H320	H	-0.210642	1.182728	0.936100
	O321	O	0.820503	-0.071392	1.186264
	H322	H	0.803375	-0.051875	1.205276
	H323	H	0.838811	-0.063484	1.181245
	O324	O	0.548574	0.553439	-0.589609
	H325	H	0.548663	0.553358	-0.600906
	H326	H	0.548845	0.563300	-0.591455
	O327	O	0.626549	0.407553	0.544988
	H328	H	0.629701	0.414551	0.557240
	H329	H	0.631799	0.397451	0.517063
	O330	O	0.045787	-0.095961	1.101177
	H331	H	0.034398	-0.090604	1.094927
	H332	H	0.061633	-0.093717	1.100521
	O333	O	-0.101171	0.119064	1.000397
	H334	H	-0.100080	0.134636	0.992499
	H335	H	-0.108074	0.114599	1.000825
	O336	O	0.384545	0.631267	0.440844
	H337	H	0.395229	0.625197	0.432321
	H338	H	0.392580	0.621848	0.463671
	O339	O	1.005643	-0.167644	0.146162
	H340	H	1.000590	-0.177573	0.135223
	H341	H	1.021393	-0.166318	0.156957
	O342	O	0.026293	0.153425	0.002227
	H343	H	0.026611	0.151456	0.004295
	H344	H	0.022769	0.166061	0.009801
	O345	O	0.630749	-0.438537	1.686674
	H346	H	0.649825	-0.445526	1.683043
	H347	H	0.646869	-0.441026	1.675456
	O348	O	1.201387	1.108095	0.038326
	H349	H	1.202226	1.108658	0.046523
	H350	H	1.186490	1.122916	0.049125
	O351	O	0.605654	0.531995	0.507622
	H352	H	0.600578	0.536982	0.494986
	H353	H	0.602265	0.537626	0.506270
	O354	O	1.157471	-0.086367	0.933843
	H355	H	1.152650	-0.085536	0.922938
	H356	H	1.173605	-0.079351	0.926029
	O357	O	0.567158	0.325594	0.496176
	H358	H	0.561730	0.325880	0.496447
	H359	H	0.575372	0.324772	0.497771
	O360	O	0.540355	0.545364	0.461231
	H361	H	0.536401	0.535806	0.457213
	H362	H	0.526624	0.544118	0.454447
	O363	O	-0.097242	0.989915	0.802750
	H364	H	-0.100698	0.982362	0.806391
	H365	H	-0.087009	0.976508	0.796041
	O366	O	0.432329	0.456483	0.625821
	H367	H	0.440040	0.458647	0.627125
	H368	H	0.429145	0.454056	0.633113
	O369	O	0.078004	0.994031	0.128220
	H370	H	0.081765	0.990562	0.136688
	H371	H	0.085068	0.995913	0.132536
	O372	O	0.134239	1.049384	-0.143829
	H373	H	0.135362	1.060761	-0.134418
	H374	H	0.134128	1.050779	-0.141945
	O375	O	0.136958	-0.210990	0.813750
	H376	H	0.132351	-0.210387	0.813438
	H377	H	0.144655	-0.196907	0.793419
	O378	O	0.569329	0.673706	0.619957
	H379	H	0.591665	0.680609	0.627603
	H380	H	0.573398	0.673798	0.627576
	O381	O	1.070373	0.035320	-0.057520
	H382	H	1.068793	0.039393	-0.061740
	H383	H	1.088449	0.044184	-0.048299
	O384	O	1.217852	0.779153	-0.036445
	H385	H	1.219860	0.771977	-0.069535
	H386	H	1.228866	0.762315	-0.031827
	O387	O	-0.114395	-0.202172	0.141794
	H388	H	-0.087866	-0.200486	0.149279
	H389	H	-0.117086	-0.175158	0.156905
	O390	O	-0.049579	0.800786	-0.102517
	H391	H	-0.045701	0.821351	-0.092437
	H392	H	-0.055306	0.794345	-0.103067
	O393	O	0.875563	0.918813	0.871169
	H394	H	0.879787	0.903109	0.863643
	H395	H	0.887211	0.929543	0.876636
	O396	O	0.570750	0.399020	0.492042
	H397	H	0.584990	0.398925	0.491105
	H398	H	0.559366	0.401702	0.482037
	O399	O	-0.195611	0.776653	1.031302
	H400	H	-0.204379	0.781354	1.060109
	H401	H	-0.203867	0.761942	1.057728
	O402	O	-0.050142	0.928683	0.055827
	H403	H	-0.041543	0.920393	0.044825
	H404	H	-0.062087	0.931212	0.054530
	O405	O	1.457630	1.399530	0.449580
	H406	H	1.461658	1.399559	0.459131
	H407	H	1.462001	1.387110	0.441894
	O408	O	0.655903	1.653485	-0.448160
	H409	H	0.656942	1.664696	-0.464472
	H410	H	0.642952	1.648093	-0.454327
	O411	O	0.358976	-0.480486	0.563775
	H412	H	0.354834	-0.490248	0.572291
	H413	H	0.355239	-0.484201	0.560328
	O414	O	0.519028	0.435664	0.607310
	H415	H	0.525366	0.445281	0.613172
	H416	H	0.520374	0.443264	0.600954
	O417	O	0.458967	0.305765	0.569817
	H418	H	0.470723	0.294684	0.575147
	H419	H	0.458144	0.314272	0.589579
