data_Molecule from HDF5

_cell_length_a		16.582025
_cell_length_b		16.566855
_cell_length_c		16.595189
_cell_angle_alpha	90.079201
_cell_angle_beta	89.859423
_cell_angle_gamma	89.945659
_symmetry_space_group_name_H-M	'P 1'
_symmetry_Int_Tables_number		1

loop_
	_symmetry_equiv_pos_as_xyz
	x,y,z

loop_
	_atom_site_label
	_atom_site_type_symbol
	_atom_site_fract_x
	_atom_site_fract_y
	_atom_site_fract_z
	H0	H	0.371053	0.816952	0.719935
	H1	H	0.582861	0.128685	0.719787
	H2	H	0.583785	0.816982	0.274770
	H3	H	0.372165	0.129672	0.277831
	H4	H	0.699085	0.368401	0.841867
	H5	H	0.700308	0.580353	0.153312
	H6	H	0.259544	0.572442	0.840372
	H7	H	0.255071	0.367164	0.154604
	H8	H	0.820471	0.693597	0.394617
	H9	H	0.132379	0.693002	0.603253
	H10	H	0.819857	0.251225	0.603578
	H11	H	0.131899	0.250385	0.393216
	H12	H	0.819710	0.367786	0.720131
	H13	H	0.133955	0.574446	0.717120
	H14	H	0.819912	0.576942	0.278254
	H15	H	0.131020	0.365649	0.276323
	H16	H	0.375166	0.689588	0.840403
	H17	H	0.581556	0.694911	0.154170
	H18	H	0.582385	0.252605	0.841228
	H19	H	0.372786	0.251449	0.154462
	H20	H	0.700160	0.816451	0.390960
	H21	H	0.699539	0.128616	0.604419
	H22	H	0.253416	0.817961	0.605699
	H23	H	0.254572	0.128769	0.393120
	H24	H	0.869505	0.316856	0.220690
	H25	H	0.080445	0.628465	0.220568
	H26	H	0.077882	0.314842	0.780136
	H27	H	0.872295	0.629278	0.776728
	H28	H	0.198385	0.867487	0.342820
	H29	H	0.197689	0.077221	0.654854
	H30	H	0.755563	0.077490	0.342249
	H31	H	0.757086	0.870668	0.654541
	H32	H	0.321959	0.195620	0.891799
	H33	H	0.633629	0.195073	0.103797
	H34	H	0.320263	0.753351	0.101655
	H35	H	0.634006	0.752503	0.894215
	H36	H	0.320890	0.868677	0.219887
	H37	H	0.632580	0.079558	0.220813
	H38	H	0.321432	0.075822	0.777858
	H39	H	0.634171	0.867676	0.777184
	H40	H	0.872458	0.193509	0.342484
	H41	H	0.080150	0.193313	0.655331
	H42	H	0.082238	0.750575	0.343104
	H43	H	0.873244	0.754115	0.655337
	H44	H	0.193878	0.314101	0.898187
	H45	H	0.196310	0.629157	0.103144
	H46	H	0.754944	0.316803	0.102862
	H47	H	0.756437	0.630595	0.893499
	H48	H	0.387921	0.084321	0.585558
	H49	H	0.562905	0.860559	0.591378
	H50	H	0.563247	0.083174	0.410511
	H51	H	0.393740	0.862864	0.406227
	H52	H	0.561049	0.391702	0.105662
	H53	H	0.564016	0.565435	0.886599
	H54	H	0.390773	0.562074	0.108684
	H55	H	0.386008	0.385490	0.887372
	H56	H	0.089931	0.559717	0.404312
	H57	H	0.863742	0.569487	0.582973
	H58	H	0.086169	0.388750	0.588930
	H59	H	0.866729	0.387229	0.413399
	H60	H	0.090649	0.379890	0.593051
	H61	H	0.867981	0.554497	0.585368
	H62	H	0.088120	0.565469	0.412594
	H63	H	0.862041	0.385095	0.405544
	H64	H	0.384821	0.569924	0.113435
	H65	H	0.571215	0.562956	0.885048
	H66	H	0.560550	0.378081	0.109899
	H67	H	0.388940	0.382918	0.887087
	H68	H	0.567766	0.083631	0.412370
	H69	H	0.563715	0.863297	0.581336
	H70	H	0.388239	0.084726	0.588166
	H71	H	0.388350	0.862776	0.415404
	H72	H	0.896570	0.581934	0.087485
	H73	H	0.063001	0.360451	0.089066
	H74	H	0.067549	0.583791	0.913221
	H75	H	0.888854	0.362111	0.909073
	H76	H	0.068975	0.886114	0.610388
	H77	H	0.062821	0.056485	0.390042
	H78	H	0.892276	0.057669	0.607323
	H79	H	0.884467	0.884901	0.384839
	H80	H	0.590081	0.059665	0.904036
	H81	H	0.366516	0.060775	0.087544
	H82	H	0.585788	0.884923	0.079054
	H83	H	0.364356	0.883283	0.906320
	H84	H	0.588097	0.890027	0.091460
	H85	H	0.365700	0.062635	0.087574
	H86	H	0.589834	0.066757	0.909639
	H87	H	0.363921	0.879908	0.907116
	H88	H	0.888948	0.066794	0.610983
	H89	H	0.062854	0.066222	0.386510
	H90	H	0.061936	0.884494	0.608955
	H91	H	0.891902	0.884422	0.387445
	H92	H	0.072941	0.588457	0.904479
	H93	H	0.065937	0.361133	0.085382
	H94	H	0.885435	0.582382	0.080946
	H95	H	0.887872	0.361911	0.911010
	H96	H	0.389523	0.083388	0.587278
	H97	H	0.571876	0.859157	0.586112
	H98	H	0.567063	0.084927	0.407243
	H99	H	0.383863	0.859070	0.406548
	H100	H	0.572684	0.385485	0.111883
	H101	H	0.566086	0.557925	0.888215
	H102	H	0.380674	0.559658	0.112125
	H103	H	0.385491	0.381977	0.885637
	H104	H	0.084687	0.556067	0.412033
	H105	H	0.861251	0.562268	0.597705
	H106	H	0.087281	0.380135	0.582613
	H107	H	0.863297	0.378590	0.412374
	H108	H	0.886461	0.587050	0.092797
	H109	H	0.067389	0.359050	0.089202
	H110	H	0.062409	0.585205	0.903560
	H111	H	0.886947	0.360911	0.909220
	H112	H	0.066183	0.879369	0.612753
	H113	H	0.071257	0.060088	0.385348
	H114	H	0.882224	0.058650	0.611143
	H115	H	0.888309	0.877938	0.384259
	H116	H	0.587136	0.058591	0.912857
	H117	H	0.366314	0.062114	0.085657
	H118	H	0.591906	0.876863	0.088603
	H119	H	0.364838	0.881944	0.909451
	C120	C	0.355976	-0.018826	0.619493
	C121	C	0.598663	0.964044	0.619421
	C122	C	0.598865	-0.019194	0.376597
	C123	C	0.356130	0.964934	0.377385
	C124	C	0.597684	0.352710	0.006001
	C125	C	0.598337	0.594446	0.989963
	C126	C	0.355107	0.593866	0.007025
	C127	C	0.355003	0.351082	0.989876
	C128	C	-0.015444	0.593132	0.377852
	C129	C	0.968044	0.593579	0.619887
	C130	C	-0.015374	0.350710	0.620391
	C131	C	0.967063	0.350731	0.377481
	C132	C	0.856135	0.480897	0.119377
	C133	C	0.097326	0.463876	0.120244
	C134	C	0.097883	0.481127	0.876982
	C135	C	0.855970	0.465113	0.877488
	C136	C	0.098530	0.850990	0.507456
	C137	C	0.097070	0.093186	0.490629
	C138	C	0.855235	0.093519	0.506873
	C139	C	0.856355	0.851660	0.489401
	C140	C	0.485808	0.093724	0.876697
	C141	C	0.469180	0.094336	0.119325
	C142	C	0.485116	0.852348	0.118737
	C143	C	0.468321	0.850453	0.875907
	C144	C	0.353082	0.863879	0.679886
	C145	C	0.601430	0.081640	0.680150
	C146	C	0.602060	0.863748	0.315245
	C147	C	0.353578	0.082512	0.317460
	C148	C	0.658768	0.349979	0.888738
	C149	C	0.659132	0.597983	0.107076
	C150	C	0.297794	0.592923	0.887988
	C151	C	0.295272	0.348781	0.107717
	C152	C	0.866978	0.653198	0.376160
	C153	C	0.086023	0.652538	0.621186
	C154	C	0.866714	0.291342	0.622047
	C155	C	0.084808	0.290580	0.375003
	C156	C	0.866727	0.348856	0.680472
	C157	C	0.086346	0.593900	0.678027
	C158	C	0.866891	0.595216	0.318277
	C159	C	0.084476	0.347919	0.316889
	C160	C	0.355384	0.651026	0.888034
	C161	C	0.600385	0.655006	0.107481
	C162	C	0.600646	0.292532	0.888300
	C163	C	0.353518	0.291216	0.107549
	C164	C	0.659816	0.863479	0.373014
	C165	C	0.659335	0.081444	0.622581
	C166	C	0.294653	0.864397	0.622943
	C167	C	0.295232	0.082136	0.374984
	C168	C	0.852245	0.363443	0.179862
	C169	C	0.099087	0.581743	0.180304
	C170	C	0.097396	0.361659	0.819738
	C171	C	0.853839	0.582622	0.817018
	C172	C	0.158556	0.848673	0.389843
	C173	C	0.157113	0.095666	0.608222
	C174	C	0.795504	0.095859	0.389205
	C175	C	0.797023	0.851431	0.607686
	C176	C	0.368425	0.154445	0.874289
	C177	C	0.586602	0.154828	0.121852
	C178	C	0.367196	0.793069	0.120665
	C179	C	0.586744	0.791801	0.875258
	C180	C	0.367503	0.850338	0.179292
	C181	C	0.586223	0.097429	0.180128
	C182	C	0.367978	0.095273	0.817623
	C183	C	0.586654	0.849021	0.816845
	C184	C	0.853411	0.153564	0.389259
	C185	C	0.099017	0.153446	0.608439
	C186	C	0.100813	0.790775	0.389962
	C187	C	0.854980	0.793844	0.608278
	C188	C	0.154860	0.361601	0.878032
	C189	C	0.156699	0.581869	0.122115
	C190	C	0.795191	0.363600	0.121519
	C191	C	0.796212	0.583088	0.875102
	C192	C	0.381424	0.063105	0.594066
	C193	C	0.573407	0.882380	0.593613
	C194	C	0.573292	0.062560	0.402495
	C195	C	0.381393	0.882859	0.402406
	C196	C	0.572185	0.377846	0.087831
	C197	C	0.573736	0.569294	0.908131
	C198	C	0.378566	0.570539	0.089997
	C199	C	0.379588	0.376241	0.907883
	C200	C	0.066308	0.567682	0.402707
	C201	C	0.885712	0.569271	0.595522
	C202	C	0.066690	0.375842	0.595253
	C203	C	0.885274	0.376249	0.403109
	C204	C	0.882050	0.562425	0.094382
	C205	C	0.072415	0.381743	0.095235
	C206	C	0.074490	0.564152	0.900339
	C207	C	0.880696	0.382809	0.902723
	C208	C	0.073173	0.876261	0.589427
	C209	C	0.072592	0.068006	0.408732
	C210	C	0.880557	0.068067	0.588534
	C211	C	0.881322	0.875555	0.407050
	C212	C	0.567748	0.068550	0.901360
	C213	C	0.387366	0.069009	0.093999
	C214	C	0.567319	0.876800	0.093733
	C215	C	0.385891	0.874800	0.900481
	Zn216	Zn	0.477122	-0.027656	0.747916
	Zn217	Zn	0.477421	-0.026677	0.248004
	Zn218	Zn	0.726980	0.473545	-0.001193
	Zn219	Zn	0.226075	0.472408	-0.001317
	Zn220	Zn	-0.023053	0.722445	0.498887
	Zn221	Zn	-0.023890	0.222584	0.498784
	Zn222	Zn	-0.023550	0.472135	0.748417
	Zn223	Zn	-0.023897	0.471917	0.248938
	Zn224	Zn	0.476604	0.722792	-0.001896
	Zn225	Zn	0.477503	0.222785	-0.002124
	Zn226	Zn	0.727128	-0.027602	0.497659
	Zn227	Zn	0.226938	-0.027395	0.498510
	N228	N	0.390427	0.937607	0.677946
	N229	N	0.564431	0.007504	0.678523
	N230	N	0.564942	0.937832	0.317151
	N231	N	0.390818	0.008546	0.318885
	N232	N	0.657130	0.386620	0.962961
	N233	N	0.658190	0.561293	0.033035
	N234	N	0.297183	0.558413	0.963273
	N235	N	0.295957	0.385139	0.033532
	N236	N	0.941174	0.652006	0.412618
	N237	N	0.011190	0.652632	0.585985
	N238	N	0.941207	0.292122	0.585828
	N239	N	0.010771	0.292203	0.412014
	N240	N	0.941139	0.385154	0.679457
	N241	N	0.011824	0.557997	0.677608
	N242	N	0.941021	0.558493	0.319209
	N243	N	0.010189	0.384621	0.318219
	N244	N	0.389981	0.652117	0.963275
	N245	N	0.563266	0.652922	0.033691
	N246	N	0.563168	0.294128	0.962193
	N247	N	0.389804	0.292146	0.033052
	N248	N	0.657899	0.937392	0.410544
	N249	N	0.658066	0.007205	0.585660
	N250	N	0.296157	0.938496	0.586056
	N251	N	0.296567	0.007814	0.411392
	N252	N	0.889486	0.437352	0.178595
	N253	N	0.063197	0.507088	0.179391
	N254	N	0.062934	0.437148	0.818681
	N255	N	0.890184	0.508055	0.818312
	N256	N	0.157380	0.885244	0.464017
	N257	N	0.156142	0.058952	0.533991
	N258	N	0.796437	0.059647	0.463489
	N259	N	0.797486	0.886303	0.532646
	N260	N	0.442843	0.153768	0.910172
	N261	N	0.512671	0.153106	0.084667
	N262	N	0.441293	0.794315	0.083656
	N263	N	0.512127	0.792434	0.911099
	N264	N	0.442027	0.886421	0.178308
	N265	N	0.512109	0.060593	0.178630
	N266	N	0.441954	0.058315	0.819024
	N267	N	0.511764	0.884516	0.816789
	N268	N	0.889894	0.152364	0.463439
	N269	N	0.062477	0.152105	0.534326
	N270	N	0.064239	0.791942	0.464219
	N271	N	0.890459	0.793340	0.533491
	N272	N	0.155343	0.436848	0.912723
	N273	N	0.156028	0.507410	0.085700
	N274	N	0.797490	0.437584	0.084360
	N275	N	0.797370	0.508887	0.911900
	O276	O	-0.000829	0.851319	-0.091466
	H277	H	-0.010572	0.860420	-0.089863
	H278	H	-0.000609	0.853161	-0.102925
	O279	O	0.421573	0.449545	0.481158
	H280	H	0.432057	0.465100	0.478752
	H281	H	0.410017	0.445223	0.482555
	O282	O	1.366969	0.419857	0.353608
	H283	H	1.388125	0.423097	0.353530
	H284	H	1.355006	0.425686	0.350452
	O285	O	0.466866	0.454994	0.701933
	H286	H	0.468741	0.464933	0.695621
	H287	H	0.479005	0.455512	0.705648
	O288	O	0.306526	0.279932	0.323766
	H289	H	0.307431	0.290713	0.328718
	H290	H	0.330072	0.295227	0.334341
	O291	O	0.258745	0.505012	0.290671
	H292	H	0.255490	0.495151	0.297784
	H293	H	0.240935	0.517187	0.274633
	O294	O	1.266063	0.466029	1.553883
	H295	H	1.265661	0.472026	1.553317
	H296	H	1.265980	0.472860	1.548505
	O297	O	0.655582	0.342109	0.631432
	H298	H	0.646805	0.341288	0.626928
	H299	H	0.667875	0.337600	0.618946
	O300	O	-0.091588	-0.050513	1.017944
	H301	H	-0.089650	-0.054315	1.015341
	H302	H	-0.080528	-0.039154	1.021889
	O303	O	0.448269	0.392096	0.587744
	H304	H	0.452228	0.386808	0.572831
	H305	H	0.435931	0.379884	0.599246
	O306	O	0.681074	0.535656	0.496735
	H307	H	0.686975	0.549768	0.492614
	H308	H	0.678896	0.540464	0.501985
	O309	O	0.269050	0.436970	0.717328
	H310	H	0.259376	0.439601	0.712765
	H311	H	0.258960	0.430554	0.728729
	O312	O	0.527969	0.562780	0.513323
	H313	H	0.522007	0.570746	0.523759
	H314	H	0.527313	0.547995	0.520141
	O315	O	0.958694	1.037111	1.103015
	H316	H	0.958574	1.034671	1.112213
	H317	H	0.968378	1.038707	1.096531
	O318	O	-0.195059	0.171961	0.799688
	H319	H	-0.156208	0.169560	0.789537
	H320	H	-0.210458	0.174453	0.801713
	O321	O	0.687923	0.553123	0.711242
	H322	H	0.705472	0.547973	0.718154
	H323	H	0.696246	0.545576	0.703136
	O324	O	0.767353	1.025222	-0.214171
	H325	H	0.749307	1.023757	-0.221828
	H326	H	0.761645	1.047629	-0.223402
	O327	O	-0.025904	-0.114913	0.972117
	H328	H	-0.029402	-0.121759	0.970591
	H329	H	-0.022734	-0.105690	0.963856
	O330	O	0.116977	0.788414	-0.045131
	H331	H	0.122888	0.775107	-0.033408
	H332	H	0.110792	0.797362	-0.064783
	O333	O	0.937753	0.195039	1.019856
	H334	H	0.925040	0.198048	1.003356
	H335	H	0.954045	0.203247	1.031990
	O336	O	0.346100	0.251722	0.618357
	H337	H	0.357079	0.258785	0.655800
	H338	H	0.330152	0.243567	0.625432
	O339	O	0.753213	0.027926	1.050745
	H340	H	0.749284	0.021893	1.030628
	H341	H	0.756806	0.034545	1.051455
	O342	O	0.333751	0.680874	0.520043
	H343	H	0.326986	0.680689	0.498152
	H344	H	0.333558	0.686552	0.509653
	O345	O	-0.142953	0.837940	0.860535
	H346	H	-0.160163	0.831946	0.851129
	H347	H	-0.133771	0.838551	0.864311
	O348	O	0.465416	0.541634	0.609703
	H349	H	0.461259	0.540287	0.605410
	H350	H	0.479980	0.527752	0.607156
	O351	O	0.168588	0.938644	-0.101560
	H352	H	0.172944	0.933397	-0.121944
	H353	H	0.167552	0.923025	-0.077317
	O354	O	0.193004	0.189850	1.029860
	H355	H	0.200569	0.181149	1.034870
	H356	H	0.217498	0.201691	1.041767
	O357	O	0.307102	0.642657	0.325400
	H358	H	0.318434	0.627024	0.331507
	H359	H	0.287697	0.668046	0.302095
	O360	O	0.565544	0.475097	0.709390
	H361	H	0.567398	0.478879	0.709726
	H362	H	0.577920	0.483328	0.705956
	O363	O	0.285568	0.662091	-0.316352
	H364	H	0.302424	0.643847	-0.323515
	H365	H	0.300772	0.661765	-0.335792
	O366	O	0.266001	0.585881	0.441018
	H367	H	0.274759	0.592714	0.430721
	H368	H	0.262353	0.578014	0.439832
	O369	O	1.151109	-0.236736	-0.211760
	H370	H	1.123880	-0.234487	-0.213115
	H371	H	1.180623	-0.262181	-0.236361
	O372	O	1.189575	1.006495	0.213431
	H373	H	1.190234	0.991647	0.222123
	H374	H	1.194325	1.018391	0.227757
	O375	O	0.779153	-0.231446	0.189374
	H376	H	0.786630	-0.216591	0.176403
	H377	H	0.776979	-0.244576	0.203831
	O378	O	0.485901	0.456416	0.393379
	H379	H	0.490627	0.460620	0.392703
	H380	H	0.499607	0.455379	0.403112
	O381	O	-0.067063	1.036244	1.165146
	H382	H	-0.056948	1.055571	1.155404
	H383	H	-0.074793	1.026919	1.168221
	O384	O	1.123171	0.078209	0.998451
	H385	H	1.133915	0.067045	0.989114
	H386	H	1.113168	0.080126	1.005289
	O387	O	0.921990	0.758419	0.210100
	H388	H	0.912408	0.758408	0.200145
	H389	H	0.925988	0.740648	0.224686
	O390	O	0.769983	0.943494	0.205362
	H391	H	0.766372	0.946183	0.198109
	H392	H	0.760067	0.938081	0.215793
	O393	O	0.679552	0.278424	0.300051
	H394	H	0.691711	0.268222	0.282276
	H395	H	0.659562	0.262599	0.292377
	O396	O	0.165357	1.158542	0.814938
	H397	H	0.153050	1.146314	0.808385
	H398	H	0.162503	1.144732	0.847342
	O399	O	0.184402	0.177832	1.205588
	H400	H	0.196996	0.200002	1.230294
	H401	H	0.181937	0.155926	1.191605
	O402	O	0.527094	-0.428611	0.312722
	H403	H	0.527496	-0.429987	0.307539
	H404	H	0.540813	-0.434422	0.314450
	O405	O	1.764729	0.759494	0.029046
	H406	H	1.776560	0.765525	0.031759
	H407	H	1.742713	0.737504	0.046089
	O408	O	-0.021671	0.116585	-0.069942
	H409	H	-0.014025	0.115679	-0.049135
	H410	H	-0.018907	0.112801	-0.050426
	O411	O	1.010358	0.768479	0.805179
	H412	H	1.014679	0.760891	0.802562
	H413	H	1.006803	0.778747	0.786645
	O414	O	0.447177	0.687518	0.282386
	H415	H	0.442653	0.680991	0.285953
	H416	H	0.436523	0.702875	0.261605
	O417	O	0.808610	1.135361	0.205037
	H418	H	0.823318	1.107203	0.189462
	H419	H	0.822947	1.129709	0.197277
	O420	O	0.708136	0.701765	0.726448
	H421	H	0.717711	0.671655	0.733959
	H422	H	0.695005	0.712751	0.719340
	O423	O	0.032397	-0.087823	1.221848
	H424	H	0.027769	-0.088324	1.225084
	H425	H	0.021636	-0.086544	1.216461
	O426	O	0.511178	0.691434	0.715281
	H427	H	0.526972	0.712975	0.733590
	H428	H	0.510961	0.700699	0.705404
	O429	O	1.003486	1.182822	1.214758
	H430	H	1.011701	1.190989	1.216917
	H431	H	1.013494	1.199190	1.218180
	O432	O	0.681724	0.461679	0.490508
	H433	H	0.675861	0.480141	0.477299
	H434	H	0.690753	0.424495	0.482729
	O435	O	-0.803487	0.753744	-0.786468
	H436	H	-0.804654	0.768093	-0.791658
	H437	H	-0.819967	0.752238	-0.798919
	O438	O	-0.243137	-0.090168	-0.066482
	H439	H	-0.236728	-0.093207	-0.066055
	H440	H	-0.243702	-0.102457	-0.068570
	O441	O	0.133940	-0.073732	-0.044908
	H442	H	0.124348	-0.073185	-0.043158
	H443	H	0.140660	-0.080206	-0.049441
	O444	O	0.426889	0.258278	0.464056
	H445	H	0.418327	0.270029	0.468373
	H446	H	0.403688	0.260070	0.476248
	O447	O	0.268518	1.263736	0.705834
	H448	H	0.294907	1.254604	0.716153
	H449	H	0.253525	1.279187	0.724200
	O450	O	-0.307152	1.256625	1.474468
	H451	H	-0.318655	1.247809	1.453362
	H452	H	-0.296752	1.232372	1.462227
	O453	O	0.946632	1.089250	0.864612
	H454	H	0.955116	1.074584	0.864853
	H455	H	0.957821	1.101870	0.869280
	O456	O	0.620793	0.616406	1.306196
	H457	H	0.605890	0.603287	1.307357
	H458	H	0.625587	0.608568	1.308772
	O459	O	1.108786	0.751201	0.034164
	H460	H	1.111836	0.740117	0.013608
	H461	H	1.112801	0.755449	0.019820
	O462	O	0.701547	0.693308	0.535038
	H463	H	0.704442	0.716865	0.524886
	H464	H	0.704700	0.698757	0.551342
	O465	O	1.298681	0.355553	0.454601
	H466	H	1.293982	0.363793	0.471855
	H467	H	1.295354	0.342851	0.476163
	O468	O	0.688354	0.451491	0.282546
	H469	H	0.691507	0.426589	0.292147
	H470	H	0.704786	0.442087	0.270895
	O471	O	0.515457	0.251512	0.659535
	H472	H	0.502115	0.236243	0.651245
	H473	H	0.503800	0.259475	0.669514
	O474	O	0.534696	0.645539	0.451662
	H475	H	0.525409	0.650931	0.446243
	H476	H	0.536324	0.633258	0.451832
	O477	O	1.060167	0.043431	1.779717
	H478	H	1.073957	0.028098	1.790586
	H479	H	1.061037	0.050158	1.772402
	O480	O	0.194457	0.922804	0.074623
	H481	H	0.203118	0.909014	0.084085
	H482	H	0.190268	0.912709	0.067309
	O483	O	-0.237601	1.182307	-0.039115
	H484	H	-0.243832	1.181581	-0.052666
	H485	H	-0.246221	1.193792	-0.054313
	O486	O	0.934844	-0.075052	0.780103
	H487	H	0.909819	-0.071992	0.785110
	H488	H	0.944094	-0.072025	0.775527
	O489	O	1.515176	0.260921	0.288351
	H490	H	1.500303	0.267306	0.289465
	H491	H	1.512676	0.245477	0.279702
