data_Molecule from HDF5

_cell_length_a		16.257591
_cell_length_b		16.315341
_cell_length_c		16.245264
_cell_angle_alpha	90.019267
_cell_angle_beta	90.148232
_cell_angle_gamma	90.037647
_symmetry_space_group_name_H-M	'P 1'
_symmetry_Int_Tables_number		1

loop_
	_symmetry_equiv_pos_as_xyz
	x,y,z

loop_
	_atom_site_label
	_atom_site_type_symbol
	_atom_site_fract_x
	_atom_site_fract_y
	_atom_site_fract_z
	H0	H	0.406512	0.828518	0.707991
	H1	H	0.600775	0.156097	0.707691
	H2	H	0.601200	0.828527	0.280643
	H3	H	0.406357	0.156168	0.280750
	H4	H	0.717208	0.394589	0.830650
	H5	H	0.717041	0.588550	0.159476
	H6	H	0.290619	0.590131	0.830268
	H7	H	0.292000	0.396084	0.158827
	H8	H	0.840609	0.705810	0.395753
	H9	H	0.168451	0.705753	0.593234
	H10	H	0.840421	0.276939	0.593087
	H11	H	0.168740	0.277334	0.394927
	H12	H	0.840470	0.394170	0.707808
	H13	H	0.168073	0.589638	0.708607
	H14	H	0.839537	0.589221	0.280755
	H15	H	0.168471	0.395655	0.281076
	H16	H	0.406307	0.706199	0.830691
	H17	H	0.601966	0.705632	0.159364
	H18	H	0.602054	0.278431	0.830555
	H19	H	0.405793	0.278150	0.158614
	H20	H	0.717016	0.828103	0.397123
	H21	H	0.719312	0.155591	0.593244
	H22	H	0.289478	0.828941	0.592006
	H23	H	0.288467	0.155727	0.395760
	H24	H	0.906688	0.328219	0.207567
	H25	H	0.101110	0.656192	0.208712
	H26	H	0.102019	0.329086	0.780657
	H27	H	0.906332	0.656054	0.780393
	H28	H	0.217139	0.893747	0.330102
	H29	H	0.217726	0.089281	0.659117
	H30	H	0.790168	0.090077	0.330327
	H31	H	0.790660	0.893347	0.658101
	H32	H	0.340311	0.206664	0.895923
	H33	H	0.667911	0.207065	0.093571
	H34	H	0.340321	0.778381	0.092854
	H35	H	0.668683	0.779677	0.896525
	H36	H	0.339859	0.895434	0.207253
	H37	H	0.668216	0.090425	0.208418
	H38	H	0.339981	0.090615	0.779678
	H39	H	0.668614	0.895688	0.781474
	H40	H	0.905245	0.206254	0.330400
	H41	H	0.103473	0.206487	0.658696
	H42	H	0.102095	0.777353	0.330811
	H43	H	0.906914	0.777950	0.658289
	H44	H	0.218933	0.328949	0.896211
	H45	H	0.218711	0.656250	0.092502
	H46	H	0.789109	0.328764	0.092629
	H47	H	0.789391	0.655915	0.895871
	H48	H	0.409932	0.105844	0.574880
	H49	H	0.591677	0.879346	0.582740
	H50	H	0.598134	0.110038	0.397226
	H51	H	0.405909	0.874901	0.402138
	H52	H	0.598052	0.400273	0.111847
	H53	H	0.601178	0.584682	0.877309
	H54	H	0.414639	0.588925	0.111693
	H55	H	0.409832	0.399744	0.877802
	H56	H	0.118471	0.583861	0.407822
	H57	H	0.886727	0.587285	0.588467
	H58	H	0.125630	0.391200	0.596125
	H59	H	0.889122	0.397968	0.407065
	H60	H	0.118763	0.394182	0.575705
	H61	H	0.887337	0.586176	0.584905
	H62	H	0.121849	0.581218	0.394339
	H63	H	0.888337	0.403161	0.397357
	H64	H	0.407339	0.587142	0.113872
	H65	H	0.594489	0.584407	0.878921
	H66	H	0.596028	0.398508	0.111052
	H67	H	0.412877	0.398275	0.877142
	H68	H	0.593430	0.107415	0.402703
	H69	H	0.607930	0.873262	0.585038
	H70	H	0.399823	0.113443	0.593502
	H71	H	0.411294	0.875956	0.396524
	H72	H	0.914871	0.606796	0.086433
	H73	H	0.093651	0.379675	0.081161
	H74	H	0.097755	0.609293	0.901475
	H75	H	0.910353	0.377150	0.905969
	H76	H	0.098256	0.894740	0.612415
	H77	H	0.094495	0.084473	0.378506
	H78	H	0.908930	0.078395	0.610126
	H79	H	0.912234	0.897406	0.377490
	H80	H	0.620960	0.090442	0.903298
	H81	H	0.384809	0.094366	0.086932
	H82	H	0.624637	0.891602	0.091392
	H83	H	0.386828	0.902487	0.894436
	H84	H	0.618529	0.899096	0.079524
	H85	H	0.389803	0.082120	0.080905
	H86	H	0.619012	0.082960	0.904628
	H87	H	0.385376	0.890799	0.901536
	H88	H	0.919034	0.086548	0.609471
	H89	H	0.096923	0.086434	0.377245
	H90	H	0.101490	0.900218	0.611190
	H91	H	0.909323	0.896454	0.376091
	H92	H	0.096790	0.608211	0.901131
	H93	H	0.108227	0.373389	0.087576
	H94	H	0.906973	0.609226	0.085597
	H95	H	0.906902	0.374383	0.898224
	H96	H	0.421754	0.107590	0.594592
	H97	H	0.596486	0.873172	0.598334
	H98	H	0.600649	0.108198	0.404494
	H99	H	0.412996	0.877962	0.404125
	H100	H	0.598337	0.398016	0.112708
	H101	H	0.596779	0.590171	0.876791
	H102	H	0.411531	0.581472	0.109852
	H103	H	0.410037	0.396399	0.877202
	H104	H	0.124296	0.593898	0.399951
	H105	H	0.887461	0.583920	0.587691
	H106	H	0.118171	0.410503	0.590455
	H107	H	0.885444	0.392201	0.398755
	H108	H	0.911079	0.610211	0.092572
	H109	H	0.094450	0.374187	0.096786
	H110	H	0.097447	0.608003	0.902844
	H111	H	0.915239	0.377074	0.898563
	H112	H	0.095250	0.899648	0.610366
	H113	H	0.097625	0.082991	0.377756
	H114	H	0.907768	0.090428	0.613529
	H115	H	0.909881	0.899982	0.377270
	H116	H	0.622012	0.084991	0.897129
	H117	H	0.386338	0.081677	0.095265
	H118	H	0.620144	0.906453	0.093057
	H119	H	0.390173	0.902886	0.907616
	C120	C	0.382755	0.000472	0.615424
	C121	C	0.626424	0.983330	0.616734
	C122	C	0.625470	0.000430	0.373179
	C123	C	0.381818	0.984172	0.372206
	C124	C	0.625134	0.371187	0.003133
	C125	C	0.626037	0.614376	0.986174
	C126	C	0.383266	0.613853	0.003002
	C127	C	0.382599	0.370323	0.985968
	C128	C	0.012812	0.613687	0.372752
	C129	C	0.995792	0.613733	0.615892
	C130	C	0.012656	0.370078	0.615734
	C131	C	0.996247	0.369856	0.372523
	C132	C	0.882733	0.500460	0.115629
	C133	C	0.126410	0.484022	0.116695
	C134	C	0.125774	0.500734	0.873294
	C135	C	0.882232	0.484329	0.872296
	C136	C	0.125722	0.870102	0.502917
	C137	C	0.125332	0.113084	0.486355
	C138	C	0.883290	0.113248	0.502678
	C139	C	0.882864	0.870265	0.485822
	C140	C	0.512325	0.114398	0.873001
	C141	C	0.495633	0.114300	0.115903
	C142	C	0.512556	0.870701	0.116176
	C143	C	0.495990	0.870921	0.873262
	C144	C	0.385860	0.877321	0.670106
	C145	C	0.622658	0.107140	0.670625
	C146	C	0.622308	0.877201	0.318321
	C147	C	0.385099	0.107199	0.317822
	C148	C	0.679143	0.374525	0.879392
	C149	C	0.680143	0.610539	0.110267
	C150	C	0.328387	0.610865	0.879342
	C151	C	0.328494	0.374323	0.109670
	C152	C	0.889219	0.668186	0.375139
	C153	C	0.119434	0.667866	0.613320
	C154	C	0.889254	0.315380	0.612984
	C155	C	0.119428	0.315131	0.374955
	C156	C	0.889316	0.373193	0.670390
	C157	C	0.119235	0.610354	0.671014
	C158	C	0.888763	0.610104	0.318167
	C159	C	0.119593	0.373673	0.318093
	C160	C	0.386052	0.668321	0.879417
	C161	C	0.623000	0.668531	0.110110
	C162	C	0.622272	0.316427	0.879529
	C163	C	0.385259	0.316092	0.109716
	C164	C	0.679541	0.876989	0.376509
	C165	C	0.681056	0.106855	0.613541
	C166	C	0.327992	0.877337	0.612443
	C167	C	0.326658	0.106995	0.375091
	C168	C	0.885954	0.376971	0.169799
	C169	C	0.122486	0.607336	0.171035
	C170	C	0.122875	0.377640	0.818545
	C171	C	0.885290	0.607126	0.817848
	C172	C	0.179765	0.873287	0.379205
	C173	C	0.180357	0.110301	0.610155
	C174	C	0.828364	0.110336	0.379200
	C175	C	0.828588	0.873039	0.609252
	C176	C	0.389064	0.168935	0.875103
	C177	C	0.618784	0.169179	0.113857
	C178	C	0.389234	0.816218	0.113171
	C179	C	0.619468	0.816608	0.875832
	C180	C	0.388836	0.874276	0.170057
	C181	C	0.619017	0.111310	0.170979
	C182	C	0.389046	0.111152	0.817632
	C183	C	0.619524	0.874572	0.818876
	C184	C	0.885359	0.168302	0.379348
	C185	C	0.123665	0.168445	0.609893
	C186	C	0.122862	0.815155	0.379567
	C187	C	0.886178	0.815470	0.609328
	C188	C	0.180750	0.377636	0.875986
	C189	C	0.180585	0.607510	0.113386
	C190	C	0.827638	0.377345	0.112667
	C191	C	0.827299	0.607045	0.875300
	C192	C	0.404326	0.086716	0.594054
	C193	C	0.605141	0.897439	0.595133
	C194	C	0.603763	0.086432	0.394893
	C195	C	0.403720	0.898274	0.394395
	C196	C	0.603711	0.392529	0.089634
	C197	C	0.604054	0.592838	0.900029
	C198	C	0.404767	0.592308	0.089428
	C199	C	0.404428	0.391816	0.899718
	C200	C	0.099092	0.592609	0.394312
	C201	C	0.909424	0.592097	0.593638
	C202	C	0.098779	0.392105	0.593827
	C203	C	0.909825	0.391579	0.394407
	C204	C	0.904508	0.586575	0.094403
	C205	C	0.104974	0.398136	0.095152
	C206	C	0.103765	0.586369	0.895246
	C207	C	0.904337	0.398331	0.894306
	C208	C	0.104405	0.891598	0.589123
	C209	C	0.103042	0.091026	0.400306
	C210	C	0.905426	0.091651	0.588825
	C211	C	0.904208	0.891514	0.399337
	C212	C	0.598407	0.092536	0.895125
	C213	C	0.409084	0.092482	0.094006
	C214	C	0.598923	0.892540	0.094386
	C215	C	0.409737	0.892320	0.894691
	Zn216	Zn	0.503982	-0.007745	0.744675
	Zn217	Zn	0.504115	-0.007930	0.244207
	Zn218	Zn	0.753986	0.492312	-0.005286
	Zn219	Zn	0.254719	0.492499	-0.005558
	Zn220	Zn	0.004387	0.741773	0.494180
	Zn221	Zn	0.004753	0.241314	0.494369
	Zn222	Zn	0.004252	0.491974	0.743969
	Zn223	Zn	0.003917	0.491933	0.244471
	Zn224	Zn	0.504449	0.742736	-0.005641
	Zn225	Zn	0.504161	0.242309	-0.005332
	Zn226	Zn	0.754623	-0.008194	0.494511
	Zn227	Zn	0.253648	-0.007785	0.494412
	N228	N	0.419155	0.954907	0.671940
	N229	N	0.589315	0.029653	0.672735
	N230	N	0.589325	0.954795	0.316137
	N231	N	0.418731	0.029797	0.316192
	N232	N	0.681254	0.407628	0.957242
	N233	N	0.682120	0.577442	0.032499
	N234	N	0.326413	0.577710	0.957189
	N235	N	0.326518	0.407200	0.031557
	N236	N	0.967165	0.670526	0.408255
	N237	N	0.041666	0.669797	0.579676
	N238	N	0.966945	0.313328	0.579793
	N239	N	0.041604	0.312716	0.407919
	N240	N	0.966998	0.406740	0.671989
	N241	N	0.041311	0.577404	0.672465
	N242	N	0.966595	0.576841	0.316406
	N243	N	0.041945	0.407055	0.316548
	N244	N	0.419410	0.670208	0.957353
	N245	N	0.590232	0.671205	0.031940
	N246	N	0.589429	0.314297	0.957509
	N247	N	0.418177	0.313570	0.031843
	N248	N	0.681788	0.954643	0.409640
	N249	N	0.683585	0.028929	0.580738
	N250	N	0.326030	0.954943	0.579202
	N251	N	0.324705	0.029513	0.408293
	N252	N	0.919509	0.454375	0.171765
	N253	N	0.089637	0.529741	0.173154
	N254	N	0.089381	0.454948	0.816758
	N255	N	0.918598	0.529649	0.815839
	N256	N	0.181757	0.906756	0.456979
	N257	N	0.181381	0.076618	0.532507
	N258	N	0.826870	0.076835	0.456796
	N259	N	0.826660	0.906372	0.531668
	N260	N	0.466753	0.171007	0.908813
	N261	N	0.541036	0.170789	0.080239
	N262	N	0.467273	0.814072	0.080366
	N263	N	0.541805	0.814435	0.909109
	N264	N	0.466486	0.907668	0.171794
	N265	N	0.541395	0.077705	0.172274
	N266	N	0.466676	0.077787	0.816351
	N267	N	0.541728	0.907608	0.817092
	N268	N	0.918785	0.170173	0.457209
	N269	N	0.090149	0.170192	0.531948
	N270	N	0.089875	0.813331	0.457325
	N271	N	0.919185	0.813652	0.531325
	N272	N	0.182834	0.455285	0.909184
	N273	N	0.183205	0.529992	0.080172
	N274	N	0.825759	0.455078	0.079779
	N275	N	0.825377	0.529511	0.908501
	O276	O	0.945679	0.052199	1.003792
	H277	H	0.943928	0.050716	1.002666
	H278	H	0.939100	0.053979	1.007517
	O279	O	-0.002261	1.029442	1.016302
	H280	H	0.002726	1.029083	1.014835
	H281	H	-0.008723	1.036729	1.013916
	O282	O	0.951388	1.036914	-0.006582
	H283	H	0.963393	1.035905	-0.012853
	H284	H	0.947670	1.036027	-0.002350
	O285	O	-0.022438	1.019589	0.976627
	H286	H	-0.029113	1.019539	0.981442
	H287	H	-0.024603	1.022814	0.974946
