data_Molecule from HDF5

_cell_length_a		16.340927
_cell_length_b		16.219552
_cell_length_c		16.187291
_cell_angle_alpha	90.084312
_cell_angle_beta	90.159294
_cell_angle_gamma	89.923905
_symmetry_space_group_name_H-M	'P 1'
_symmetry_Int_Tables_number		1

loop_
	_symmetry_equiv_pos_as_xyz
	x,y,z

loop_
	_atom_site_label
	_atom_site_type_symbol
	_atom_site_fract_x
	_atom_site_fract_y
	_atom_site_fract_z
	H0	H	0.407741	0.835159	0.712280
	H1	H	0.602280	0.164560	0.714318
	H2	H	0.603164	0.835479	0.286394
	H3	H	0.407567	0.164262	0.286972
	H4	H	0.716915	0.402039	0.834582
	H5	H	0.720995	0.601117	0.163309
	H6	H	0.288736	0.600671	0.836162
	H7	H	0.291032	0.401131	0.163880
	H8	H	0.840903	0.715475	0.400945
	H9	H	0.167934	0.713944	0.598959
	H10	H	0.840952	0.287043	0.596450
	H11	H	0.167950	0.284696	0.400372
	H12	H	0.840300	0.404237	0.711344
	H13	H	0.166878	0.598696	0.715579
	H14	H	0.840443	0.598576	0.284376
	H15	H	0.167981	0.400751	0.284619
	H16	H	0.407194	0.712533	0.834633
	H17	H	0.602445	0.714356	0.164450
	H18	H	0.601980	0.286292	0.834783
	H19	H	0.409059	0.288698	0.164348
	H20	H	0.721283	0.836473	0.399644
	H21	H	0.720360	0.164491	0.600201
	H22	H	0.289576	0.836859	0.599667
	H23	H	0.288780	0.163530	0.398692
	H24	H	0.907025	0.335681	0.212442
	H25	H	0.102028	0.664537	0.213684
	H26	H	0.100313	0.335692	0.786649
	H27	H	0.907134	0.665629	0.787301
	H28	H	0.219406	0.901325	0.335071
	H29	H	0.220389	0.099516	0.664139
	H30	H	0.790852	0.098754	0.335784
	H31	H	0.790431	0.900567	0.664471
	H32	H	0.340723	0.214928	0.901236
	H33	H	0.667986	0.214777	0.098637
	H34	H	0.341762	0.785877	0.098523
	H35	H	0.667080	0.785271	0.900966
	H36	H	0.341482	0.901835	0.213906
	H37	H	0.667822	0.097917	0.213840
	H38	H	0.341078	0.099153	0.784459
	H39	H	0.668256	0.901616	0.787334
	H40	H	0.908458	0.212023	0.334046
	H41	H	0.103647	0.214263	0.664913
	H42	H	0.102950	0.785785	0.335295
	H43	H	0.908819	0.788731	0.665962
	H44	H	0.218930	0.336104	0.899821
	H45	H	0.219890	0.663542	0.101015
	H46	H	0.790210	0.335855	0.098453
	H47	H	0.787701	0.663560	0.897412
	H48	H	0.419670	0.115197	0.593398
	H49	H	0.592894	0.882744	0.598892
	H50	H	0.592568	0.113755	0.412217
	H51	H	0.413467	0.882986	0.404428
	H52	H	0.594898	0.403565	0.116762
	H53	H	0.603271	0.588943	0.881666
	H54	H	0.412046	0.594285	0.117015
	H55	H	0.411647	0.403879	0.880846
	H56	H	0.119189	0.592418	0.409879
	H57	H	0.885116	0.599712	0.597630
	H58	H	0.121237	0.402365	0.591553
	H59	H	0.889694	0.414179	0.401099
	H60	H	0.118859	0.411063	0.589905
	H61	H	0.888022	0.596742	0.587128
	H62	H	0.119124	0.590886	0.405703
	H63	H	0.884837	0.398559	0.402075
	H64	H	0.411776	0.593232	0.117682
	H65	H	0.591384	0.591311	0.884583
	H66	H	0.604294	0.407564	0.118691
	H67	H	0.407453	0.408966	0.880966
	H68	H	0.606367	0.118423	0.411164
	H69	H	0.596238	0.886031	0.583867
	H70	H	0.409843	0.116353	0.585243
	H71	H	0.413016	0.884431	0.409666
	H72	H	0.909390	0.616931	0.087870
	H73	H	0.096335	0.381552	0.098867
	H74	H	0.098359	0.618914	0.904258
	H75	H	0.904810	0.380091	0.900773
	H76	H	0.093358	0.911760	0.614354
	H77	H	0.087455	0.088547	0.387465
	H78	H	0.915873	0.091673	0.615896
	H79	H	0.915080	0.904428	0.383243
	H80	H	0.620767	0.090249	0.901985
	H81	H	0.388104	0.097148	0.089321
	H82	H	0.623319	0.900041	0.096535
	H83	H	0.387096	0.900501	0.909890
	H84	H	0.618853	0.907746	0.085217
	H85	H	0.389209	0.090920	0.094996
	H86	H	0.622135	0.100245	0.906628
	H87	H	0.390986	0.914406	0.911577
	H88	H	0.911741	0.099383	0.619102
	H89	H	0.098709	0.104608	0.378435
	H90	H	0.099214	0.900111	0.619318
	H91	H	0.907395	0.908926	0.381950
	H92	H	0.095529	0.616184	0.909447
	H93	H	0.093853	0.385722	0.086355
	H94	H	0.911470	0.617782	0.093904
	H95	H	0.916960	0.384207	0.903785
	H96	H	0.408274	0.120165	0.597065
	H97	H	0.607187	0.880795	0.593295
	H98	H	0.597511	0.118916	0.399400
	H99	H	0.408627	0.882065	0.407833
	H100	H	0.596335	0.413943	0.115471
	H101	H	0.598132	0.599888	0.879789
	H102	H	0.412336	0.593423	0.117498
	H103	H	0.412979	0.410256	0.883146
	H104	H	0.120740	0.594961	0.405393
	H105	H	0.889045	0.589512	0.595622
	H106	H	0.121547	0.408748	0.598623
	H107	H	0.891501	0.406994	0.414659
	H108	H	0.914740	0.615155	0.090130
	H109	H	0.105760	0.381394	0.089498
	H110	H	0.101461	0.617743	0.909454
	H111	H	0.907258	0.383708	0.912878
	H112	H	0.106469	0.911402	0.618192
	H113	H	0.107906	0.085064	0.381709
	H114	H	0.906944	0.091517	0.618211
	H115	H	0.914978	0.913163	0.385738
	H116	H	0.617827	0.091574	0.912945
	H117	H	0.386118	0.097984	0.096825
	H118	H	0.619556	0.913670	0.098164
	H119	H	0.386568	0.908655	0.897901
	C120	C	0.384083	0.008751	0.620475
	C121	C	0.627081	0.991864	0.621593
	C122	C	0.627373	0.008586	0.378429
	C123	C	0.383736	0.991775	0.378582
	C124	C	0.626114	0.379179	0.008163
	C125	C	0.626692	0.622631	0.990919
	C126	C	0.383539	0.621781	0.008382
	C127	C	0.383468	0.379561	0.990802
	C128	C	0.012110	0.622045	0.377859
	C129	C	0.995562	0.623078	0.621938
	C130	C	0.012786	0.378914	0.621439
	C131	C	0.996327	0.377962	0.377237
	C132	C	0.883244	0.508303	0.119858
	C133	C	0.126685	0.491349	0.121112
	C134	C	0.126234	0.508912	0.878381
	C135	C	0.882011	0.491600	0.877623
	C136	C	0.127477	0.878692	0.508339
	C137	C	0.126727	0.121949	0.491232
	C138	C	0.883916	0.122157	0.508667
	C139	C	0.884364	0.879938	0.492371
	C140	C	0.512458	0.122612	0.877955
	C141	C	0.495799	0.122942	0.121976
	C142	C	0.512908	0.878553	0.121892
	C143	C	0.496235	0.878758	0.878136
	C144	C	0.386933	0.884732	0.675131
	C145	C	0.623574	0.115508	0.676907
	C146	C	0.624210	0.884879	0.323535
	C147	C	0.386714	0.115252	0.324190
	C148	C	0.679600	0.381792	0.883846
	C149	C	0.682140	0.620713	0.114559
	C150	C	0.327507	0.620110	0.884911
	C151	C	0.329006	0.381527	0.114834
	C152	C	0.889501	0.677592	0.380225
	C153	C	0.119007	0.676789	0.619392
	C154	C	0.889628	0.324626	0.617492
	C155	C	0.119124	0.322612	0.379733
	C156	C	0.889272	0.382596	0.674781
	C157	C	0.118498	0.619642	0.677447
	C158	C	0.889281	0.619470	0.322273
	C159	C	0.119169	0.380407	0.322282
	C160	C	0.386209	0.675948	0.884204
	C161	C	0.623642	0.677281	0.114887
	C162	C	0.622306	0.324261	0.883982
	C163	C	0.387688	0.325796	0.115184
	C164	C	0.682733	0.885220	0.380060
	C165	C	0.682066	0.115502	0.620078
	C166	C	0.328043	0.885553	0.619416
	C167	C	0.327466	0.114818	0.379542
	C168	C	0.886190	0.384707	0.174894
	C169	C	0.122926	0.615120	0.176174
	C170	C	0.121600	0.384918	0.824066
	C171	C	0.886097	0.615923	0.823843
	C172	C	0.181545	0.881100	0.384123
	C173	C	0.182347	0.119871	0.615188
	C174	C	0.828700	0.119418	0.384644
	C175	C	0.829055	0.881364	0.615958
	C176	C	0.389642	0.177424	0.880372
	C177	C	0.619095	0.177367	0.119447
	C178	C	0.390306	0.823405	0.119194
	C179	C	0.618597	0.823524	0.881005
	C180	C	0.390297	0.880896	0.176774
	C181	C	0.619009	0.119366	0.176807
	C182	C	0.389789	0.119869	0.822483
	C183	C	0.619072	0.881337	0.824177
	C184	C	0.887434	0.175302	0.383748
	C185	C	0.124411	0.177016	0.615407
	C186	C	0.123774	0.823479	0.384300
	C187	C	0.887539	0.825357	0.616442
	C188	C	0.180847	0.385199	0.880158
	C189	C	0.181593	0.614774	0.120003
	C190	C	0.828324	0.384793	0.117882
	C191	C	0.826858	0.615116	0.878983
	C192	C	0.406065	0.094849	0.598244
	C193	C	0.605310	0.905507	0.598649
	C194	C	0.605392	0.094815	0.400999
	C195	C	0.405423	0.905491	0.400944
	C196	C	0.604805	0.401803	0.094673
	C197	C	0.604179	0.600145	0.904355
	C198	C	0.405571	0.600050	0.094981
	C199	C	0.404435	0.401339	0.904160
	C200	C	0.097845	0.599504	0.400413
	C201	C	0.909746	0.601748	0.599849
	C202	C	0.098502	0.400897	0.599857
	C203	C	0.910603	0.399948	0.399379
	C204	C	0.905291	0.594300	0.097213
	C205	C	0.105029	0.405022	0.098250
	C206	C	0.104827	0.595351	0.901021
	C207	C	0.903361	0.405024	0.899172
	C208	C	0.106075	0.901073	0.594918
	C209	C	0.104659	0.099305	0.404915
	C210	C	0.905353	0.100644	0.595317
	C211	C	0.906102	0.902079	0.406029
	C212	C	0.598122	0.100423	0.900449
	C213	C	0.410121	0.101733	0.100001
	C214	C	0.598441	0.900652	0.099657
	C215	C	0.410125	0.901316	0.900108
	Zn216	Zn	0.504787	-0.000066	0.749384
	Zn217	Zn	0.504704	-0.000061	0.250308
	Zn218	Zn	0.754516	0.500415	-0.000893
	Zn219	Zn	0.255590	0.500422	-0.000307
	Zn220	Zn	0.004983	0.751442	0.500237
	Zn221	Zn	0.005049	0.250112	0.500023
	Zn222	Zn	0.003772	0.500590	0.750266
	Zn223	Zn	0.004490	0.499944	0.248601
	Zn224	Zn	0.504080	0.750184	-0.000406
	Zn225	Zn	0.504699	0.250988	-0.000314
	Zn226	Zn	0.755901	0.000663	0.500231
	Zn227	Zn	0.255541	0.000368	0.500008
	N228	N	0.421301	0.962245	0.675720
	N229	N	0.590385	0.037539	0.677982
	N230	N	0.590310	0.962591	0.322529
	N231	N	0.420909	0.037773	0.323490
	N232	N	0.682025	0.415228	0.961900
	N233	N	0.684345	0.587672	0.036225
	N234	N	0.325729	0.587163	0.963097
	N235	N	0.326121	0.414185	0.036477
	N236	N	0.966856	0.679139	0.414071
	N237	N	0.041707	0.678861	0.585566
	N238	N	0.967367	0.322203	0.585174
	N239	N	0.041875	0.320973	0.413243
	N240	N	0.966627	0.415962	0.677083
	N241	N	0.040909	0.586854	0.679131
	N242	N	0.966640	0.585899	0.320577
	N243	N	0.041896	0.414304	0.320682
	N244	N	0.420388	0.676890	0.962034
	N245	N	0.589935	0.678542	0.036893
	N246	N	0.589921	0.322447	0.962334
	N247	N	0.420827	0.324240	0.037217
	N248	N	0.684742	0.963090	0.413593
	N249	N	0.684256	0.037557	0.586318
	N250	N	0.326105	0.963490	0.586202
	N251	N	0.325513	0.036902	0.412831
	N252	N	0.919739	0.462387	0.176148
	N253	N	0.089529	0.537315	0.176990
	N254	N	0.088244	0.462857	0.822994
	N255	N	0.920033	0.538222	0.823133
	N256	N	0.183886	0.914580	0.462257
	N257	N	0.184218	0.086534	0.537049
	N258	N	0.826392	0.086974	0.463235
	N259	N	0.827043	0.914562	0.537836
	N260	N	0.467045	0.179424	0.913916
	N261	N	0.541706	0.179766	0.086117
	N262	N	0.467624	0.821588	0.085916
	N263	N	0.541058	0.821652	0.913674
	N264	N	0.467431	0.914532	0.178353
	N265	N	0.541470	0.086182	0.178680
	N266	N	0.467109	0.086357	0.820994
	N267	N	0.541811	0.915251	0.822616
	N268	N	0.921143	0.176874	0.461735
	N269	N	0.090507	0.178196	0.537444
	N270	N	0.090885	0.822039	0.462436
	N271	N	0.921342	0.824458	0.538634
	N272	N	0.183922	0.463475	0.913234
	N273	N	0.183949	0.536890	0.086350
	N274	N	0.826425	0.462688	0.084311
	N275	N	0.824230	0.536928	0.911705
	O276	O	1.005375	0.938796	-0.010161
	H277	H	0.999194	0.933321	-0.014375
	H278	H	1.014648	0.938068	-0.001563
	O279	O	0.020224	-0.070922	0.073837
	H280	H	0.018160	-0.065519	0.069032
	H281	H	0.019118	-0.077365	0.080642
	O282	O	-0.051777	-0.070425	0.972645
	H283	H	-0.059364	-0.079210	0.976639
	H284	H	-0.051765	-0.070742	0.978529
	O285	O	0.409522	0.494703	0.516913
	H286	H	0.401714	0.502956	0.519705
	H287	H	0.406982	0.497538	0.522121
	O288	O	0.434549	0.511418	0.465386
	H289	H	0.428023	0.501437	0.462758
	H290	H	0.435526	0.505510	0.459657
	O291	O	0.471766	0.467507	0.493669
	H292	H	0.470681	0.464217	0.490976
	H293	H	0.466936	0.470917	0.493638
	O294	O	-0.071974	-0.063047	-0.048452
	H295	H	-0.065994	-0.051319	-0.047219
	H296	H	-0.085921	-0.069028	-0.052903
	O297	O	0.478577	0.442537	0.493345
	H298	H	0.477360	0.433165	0.484706
	H299	H	0.478596	0.439062	0.499678
	O300	O	0.009090	1.018970	1.000993
	H301	H	-0.000560	1.019380	0.997940
	H302	H	0.010686	1.023097	1.005246
	O303	O	0.426504	0.506588	0.446796
	H304	H	0.421612	0.498258	0.443999
	H305	H	0.435010	0.506113	0.451140
	O306	O	-0.030799	0.006018	1.000098
	H307	H	-0.030218	0.001419	0.998774
	H308	H	-0.023333	0.002796	0.999964
	O309	O	0.964724	0.979111	1.028009
	H310	H	0.974851	0.984188	1.022957
	H311	H	0.961297	0.978575	1.023997
	O312	O	0.420978	0.470948	0.495092
	H313	H	0.424827	0.479504	0.502815
	H314	H	0.423504	0.479424	0.495554
	O315	O	0.428660	0.490597	0.497753
	H316	H	0.425210	0.488903	0.495518
	H317	H	0.433457	0.499445	0.495985
	O318	O	0.031265	0.943445	0.059160
	H319	H	0.026482	0.935477	0.063365
	H320	H	0.025987	0.939650	0.057166
	O321	O	0.985117	1.011670	0.007155
	H322	H	0.990824	1.012273	0.001776
	H323	H	0.982725	1.021352	0.008375
