data_Molecule from HDF5

_cell_length_a		16.364046
_cell_length_b		16.147488
_cell_length_c		16.187863
_cell_angle_alpha	90.309229
_cell_angle_beta	90.020907
_cell_angle_gamma	89.951001
_symmetry_space_group_name_H-M	'P 1'
_symmetry_Int_Tables_number		1

loop_
	_symmetry_equiv_pos_as_xyz
	x,y,z

loop_
	_atom_site_label
	_atom_site_type_symbol
	_atom_site_fract_x
	_atom_site_fract_y
	_atom_site_fract_z
	H0	H	0.406583	0.838062	0.712519
	H1	H	0.601230	0.168572	0.715241
	H2	H	0.600294	0.837900	0.289275
	H3	H	0.406582	0.169589	0.288340
	H4	H	0.719952	0.401915	0.837344
	H5	H	0.719439	0.606741	0.165351
	H6	H	0.288065	0.602967	0.836812
	H7	H	0.287774	0.403729	0.164879
	H8	H	0.840614	0.719087	0.403316
	H9	H	0.167470	0.721592	0.600005
	H10	H	0.840285	0.292378	0.598809
	H11	H	0.166125	0.287803	0.400719
	H12	H	0.842114	0.408113	0.715961
	H13	H	0.167588	0.605463	0.716600
	H14	H	0.841562	0.603463	0.286039
	H15	H	0.167228	0.405832	0.286544
	H16	H	0.406089	0.715281	0.835497
	H17	H	0.599272	0.717019	0.166610
	H18	H	0.601381	0.288556	0.836322
	H19	H	0.407120	0.291781	0.166602
	H20	H	0.719357	0.840862	0.399233
	H21	H	0.717066	0.168889	0.602205
	H22	H	0.286190	0.840963	0.601551
	H23	H	0.287633	0.168962	0.400408
	H24	H	0.907277	0.339089	0.213025
	H25	H	0.102160	0.669596	0.214836
	H26	H	0.102857	0.340517	0.786134
	H27	H	0.907341	0.671229	0.790314
	H28	H	0.218893	0.904182	0.337840
	H29	H	0.219818	0.109960	0.664112
	H30	H	0.788090	0.102813	0.336996
	H31	H	0.788864	0.906244	0.665758
	H32	H	0.340458	0.217231	0.903254
	H33	H	0.666775	0.218917	0.100834
	H34	H	0.339473	0.790020	0.098284
	H35	H	0.666525	0.787709	0.902684
	H36	H	0.340190	0.904752	0.216233
	H37	H	0.666970	0.101537	0.216923
	H38	H	0.341056	0.101975	0.786612
	H39	H	0.666766	0.903299	0.786158
	H40	H	0.905106	0.216700	0.335595
	H41	H	0.099461	0.219346	0.665981
	H42	H	0.099566	0.792371	0.336261
	H43	H	0.907437	0.793461	0.666453
	H44	H	0.218650	0.340382	0.898296
	H45	H	0.218868	0.667852	0.101821
	H46	H	0.789231	0.339502	0.100791
	H47	H	0.787359	0.668568	0.901952
	H48	H	0.408818	0.124139	0.598575
	H49	H	0.588768	0.885830	0.600900
	H50	H	0.599792	0.123574	0.407959
	H51	H	0.410105	0.886308	0.406635
	H52	H	0.604286	0.417256	0.119765
	H53	H	0.601354	0.592860	0.883193
	H54	H	0.417208	0.602837	0.117872
	H55	H	0.412147	0.418608	0.887735
	H56	H	0.120796	0.597442	0.408832
	H57	H	0.888088	0.597358	0.597729
	H58	H	0.120647	0.411369	0.593786
	H59	H	0.885153	0.403704	0.404941
	H60	H	0.119623	0.411750	0.592088
	H61	H	0.887896	0.601423	0.595089
	H62	H	0.120885	0.598590	0.405975
	H63	H	0.890608	0.413548	0.415092
	H64	H	0.401232	0.598750	0.121803
	H65	H	0.593976	0.591163	0.886455
	H66	H	0.589883	0.415696	0.115091
	H67	H	0.415982	0.402832	0.883162
	H68	H	0.592827	0.122243	0.407300
	H69	H	0.594661	0.889689	0.581065
	H70	H	0.416003	0.120027	0.593443
	H71	H	0.411491	0.887456	0.411968
	H72	H	0.915587	0.620061	0.094169
	H73	H	0.088235	0.385540	0.102529
	H74	H	0.097630	0.623632	0.906783
	H75	H	0.910584	0.386225	0.905111
	H76	H	0.092360	0.919918	0.616433
	H77	H	0.108953	0.092691	0.381003
	H78	H	0.900632	0.104274	0.622378
	H79	H	0.909235	0.912414	0.383439
	H80	H	0.619949	0.097261	0.910162
	H81	H	0.391313	0.092459	0.088877
	H82	H	0.618635	0.912577	0.098012
	H83	H	0.387502	0.909445	0.906454
	H84	H	0.620774	0.905759	0.097242
	H85	H	0.386695	0.092940	0.102533
	H86	H	0.619245	0.094076	0.908239
	H87	H	0.387490	0.909753	0.906694
	H88	H	0.907423	0.089858	0.616434
	H89	H	0.088433	0.086764	0.389399
	H90	H	0.094176	0.907534	0.620056
	H91	H	0.909096	0.911934	0.383441
	H92	H	0.094145	0.621502	0.911644
	H93	H	0.094356	0.390309	0.081258
	H94	H	0.906530	0.621807	0.089931
	H95	H	0.913239	0.388127	0.908852
	H96	H	0.408047	0.121440	0.589164
	H97	H	0.608670	0.881674	0.595184
	H98	H	0.596706	0.120854	0.413758
	H99	H	0.406545	0.886909	0.410658
	H100	H	0.597329	0.403749	0.120685
	H101	H	0.595567	0.598757	0.883339
	H102	H	0.411264	0.586534	0.114952
	H103	H	0.400525	0.408581	0.880620
	H104	H	0.121526	0.600746	0.408462
	H105	H	0.889616	0.596381	0.593500
	H106	H	0.120136	0.412863	0.593913
	H107	H	0.887581	0.417469	0.401145
	H108	H	0.908402	0.623911	0.099333
	H109	H	0.108058	0.382007	0.095298
	H110	H	0.099795	0.622690	0.912876
	H111	H	0.908277	0.386827	0.909384
	H112	H	0.103777	0.916324	0.620826
	H113	H	0.092785	0.108731	0.380867
	H114	H	0.916625	0.103620	0.617759
	H115	H	0.908555	0.912876	0.384179
	H116	H	0.621344	0.097786	0.906486
	H117	H	0.385407	0.105148	0.094288
	H118	H	0.618748	0.910166	0.091249
	H119	H	0.387199	0.909243	0.906404
	C120	C	0.381871	0.013015	0.622556
	C121	C	0.625267	0.995017	0.622258
	C122	C	0.624902	0.013173	0.379993
	C123	C	0.381667	0.995924	0.380494
	C124	C	0.625726	0.382230	0.009728
	C125	C	0.625220	0.624484	0.993128
	C126	C	0.381599	0.624744	0.009503
	C127	C	0.381226	0.381677	0.992432
	C128	C	0.013063	0.626897	0.379522
	C129	C	0.996304	0.628000	0.623927
	C130	C	0.012581	0.383998	0.622253
	C131	C	0.995273	0.382081	0.378251
	C132	C	0.882059	0.512981	0.123015
	C133	C	0.125297	0.494998	0.122357
	C134	C	0.125591	0.513618	0.880242
	C135	C	0.882372	0.496457	0.879842
	C136	C	0.124434	0.884994	0.510042
	C137	C	0.124871	0.126594	0.492286
	C138	C	0.880539	0.126849	0.509547
	C139	C	0.881468	0.884173	0.492700
	C140	C	0.512113	0.124482	0.880081
	C141	C	0.495456	0.125553	0.124164
	C142	C	0.511589	0.881147	0.123431
	C143	C	0.495219	0.880745	0.878551
	C144	C	0.384971	0.888281	0.676375
	C145	C	0.621654	0.119348	0.677524
	C146	C	0.621883	0.888155	0.325542
	C147	C	0.384934	0.120014	0.325064
	C148	C	0.681583	0.382674	0.886350
	C149	C	0.680682	0.624979	0.116444
	C150	C	0.326348	0.622615	0.885695
	C151	C	0.326181	0.384026	0.116091
	C152	C	0.889622	0.681559	0.382397
	C153	C	0.118793	0.683530	0.620645
	C154	C	0.889485	0.330008	0.619281
	C155	C	0.117802	0.326168	0.380204
	C156	C	0.890299	0.387361	0.677693
	C157	C	0.118913	0.626261	0.678928
	C158	C	0.890136	0.623991	0.324300
	C159	C	0.118183	0.384575	0.323471
	C160	C	0.385212	0.678488	0.885089
	C161	C	0.621111	0.680186	0.117020
	C162	C	0.622519	0.326562	0.885599
	C163	C	0.385342	0.328120	0.116846
	C164	C	0.680741	0.889495	0.380470
	C165	C	0.679507	0.119466	0.621446
	C166	C	0.325198	0.889646	0.621047
	C167	C	0.326069	0.119918	0.380992
	C168	C	0.885764	0.388495	0.176527
	C169	C	0.122480	0.619896	0.177456
	C170	C	0.122953	0.389663	0.824030
	C171	C	0.885944	0.621282	0.826605
	C172	C	0.180036	0.885385	0.386467
	C173	C	0.180874	0.127889	0.615394
	C174	C	0.825971	0.123616	0.385944
	C175	C	0.826569	0.886052	0.616649
	C176	C	0.389173	0.179034	0.882968
	C177	C	0.618081	0.181216	0.121758
	C178	C	0.388487	0.827079	0.119848
	C179	C	0.617857	0.825437	0.881746
	C180	C	0.388888	0.883921	0.178570
	C181	C	0.618195	0.122623	0.179087
	C182	C	0.389826	0.122327	0.824429
	C183	C	0.617994	0.882740	0.823697
	C184	C	0.884431	0.179979	0.385264
	C185	C	0.120764	0.181968	0.616519
	C186	C	0.121060	0.829562	0.385812
	C187	C	0.885555	0.830138	0.617007
	C188	C	0.180700	0.389569	0.879790
	C189	C	0.180838	0.619071	0.121454
	C190	C	0.827091	0.388890	0.120547
	C191	C	0.826559	0.620146	0.882450
	C192	C	0.404166	0.099236	0.600147
	C193	C	0.603806	0.908305	0.599084
	C194	C	0.602920	0.099761	0.402900
	C195	C	0.403034	0.909393	0.403129
	C196	C	0.603588	0.405235	0.096083
	C197	C	0.603413	0.601057	0.906674
	C198	C	0.403352	0.602528	0.095843
	C199	C	0.403010	0.403591	0.906207
	C200	C	0.098753	0.605457	0.401257
	C201	C	0.910657	0.605310	0.601827
	C202	C	0.098026	0.405479	0.599908
	C203	C	0.910129	0.404761	0.400446
	C204	C	0.903771	0.599689	0.100995
	C205	C	0.103291	0.408510	0.099576
	C206	C	0.103764	0.600218	0.903509
	C207	C	0.904198	0.409581	0.901340
	C208	C	0.103049	0.907935	0.596773
	C209	C	0.103081	0.102855	0.405912
	C210	C	0.901963	0.105554	0.596393
	C211	C	0.902632	0.905979	0.406259
	C212	C	0.598153	0.102695	0.901949
	C213	C	0.409731	0.103486	0.101719
	C214	C	0.597260	0.902881	0.101822
	C215	C	0.409621	0.902893	0.900139
	Zn216	Zn	0.504488	0.003161	0.750481
	Zn217	Zn	0.503527	0.003315	0.253065
	Zn218	Zn	0.753982	0.504036	0.001507
	Zn219	Zn	0.252932	0.503514	0.000853
	Zn220	Zn	0.003711	0.756211	0.501498
	Zn221	Zn	0.003652	0.253985	0.500486
	Zn222	Zn	0.005235	0.505958	0.752415
	Zn223	Zn	0.004258	0.504308	0.250374
	Zn224	Zn	0.503011	0.752373	0.000992
	Zn225	Zn	0.503325	0.253898	0.001317
	Zn226	Zn	0.752529	0.004740	0.501301
	Zn227	Zn	0.252854	0.005933	0.501365
	N228	N	0.419761	0.965906	0.677432
	N229	N	0.588443	0.041077	0.678004
	N230	N	0.587735	0.966040	0.325149
	N231	N	0.418766	0.042008	0.324703
	N232	N	0.683655	0.416541	0.964608
	N233	N	0.683068	0.590996	0.038385
	N234	N	0.323927	0.589864	0.964001
	N235	N	0.323407	0.416566	0.037794
	N236	N	0.966951	0.683540	0.415979
	N237	N	0.041397	0.684619	0.587241
	N238	N	0.966568	0.327769	0.585398
	N239	N	0.040581	0.324416	0.413603
	N240	N	0.967703	0.420261	0.679543
	N241	N	0.041622	0.592717	0.681478
	N242	N	0.967587	0.590685	0.322262
	N243	N	0.041033	0.418574	0.322087
	N244	N	0.418638	0.680046	0.963018
	N245	N	0.587166	0.679772	0.039146
	N246	N	0.588352	0.326137	0.963273
	N247	N	0.418846	0.326492	0.038961
	N248	N	0.682764	0.968088	0.413726
	N249	N	0.682020	0.040991	0.587735
	N250	N	0.322950	0.968191	0.588473
	N251	N	0.323913	0.041756	0.414776
	N252	N	0.919221	0.466453	0.178049
	N253	N	0.088784	0.541885	0.178233
	N254	N	0.089500	0.467845	0.824208
	N255	N	0.920147	0.543167	0.824935
	N256	N	0.182234	0.919003	0.464865
	N257	N	0.183344	0.094098	0.537193
	N258	N	0.823390	0.091527	0.464293
	N259	N	0.823805	0.918790	0.538263
	N260	N	0.466452	0.180831	0.916654
	N261	N	0.540575	0.183153	0.088453
	N262	N	0.465775	0.825070	0.086428
	N263	N	0.540514	0.824122	0.915140
	N264	N	0.466398	0.916997	0.180749
	N265	N	0.540991	0.089006	0.180749
	N266	N	0.467360	0.089242	0.822723
	N267	N	0.540776	0.916300	0.821341
	N268	N	0.917612	0.182267	0.463355
	N269	N	0.086646	0.181202	0.538734
	N270	N	0.087028	0.829416	0.463519
	N271	N	0.919041	0.828802	0.539128
	N272	N	0.182334	0.467630	0.914399
	N273	N	0.182912	0.540510	0.087933
	N274	N	0.824708	0.467543	0.088079
	N275	N	0.824230	0.541558	0.914517
	O276	O	-0.012696	0.046492	0.062815
	H277	H	-0.011921	0.046958	0.063378
	H278	H	-0.013961	0.042282	0.063146
	O279	O	0.517930	0.467741	0.381902
	H280	H	0.512777	0.464136	0.382809
	H281	H	0.523802	0.463203	0.373969
	O282	O	0.548889	0.498230	0.521956
	H283	H	0.548347	0.513597	0.513245
	H284	H	0.546718	0.502011	0.523907
	O285	O	1.057656	0.018207	0.959570
	H286	H	1.058498	0.022005	0.965837
	H287	H	1.057256	0.026752	0.965040
	O288	O	0.986066	0.054153	-0.092592
	H289	H	0.998934	0.052221	-0.090685
	H290	H	0.982623	0.053445	-0.088091
	O291	O	0.530968	0.509276	0.439432
	H292	H	0.521477	0.513807	0.438709
	H293	H	0.535498	0.495872	0.436253
	O294	O	1.565588	0.590489	0.519095
	H295	H	1.572344	0.595656	0.532822
	H296	H	1.574080	0.583369	0.522693
	O297	O	-0.459146	-0.539912	-0.612129
	H298	H	-0.463646	-0.540625	-0.600017
	H299	H	-0.464667	-0.528989	-0.611257
	O300	O	0.489013	0.475870	0.576773
	H301	H	0.488771	0.471436	0.576393
	H302	H	0.483279	0.477789	0.565100
	O303	O	0.461659	0.502596	0.493600
	H304	H	0.462632	0.501968	0.491271
	H305	H	0.469736	0.498337	0.504661
	O306	O	0.998179	0.046425	0.041617
	H307	H	1.002367	0.041164	0.039123
	H308	H	0.999468	0.051013	0.037247
	O309	O	0.011979	-0.044496	1.006578
	H310	H	0.010897	-0.058539	1.008647
	H311	H	0.002910	-0.036229	1.007558
	O312	O	0.983742	1.000473	0.951387
	H313	H	0.988145	1.005786	0.947700
	H314	H	0.978557	1.012186	0.952964
	O315	O	0.508818	0.500068	0.557281
	H316	H	0.512917	0.500694	0.552597
	H317	H	0.510606	0.491308	0.556592
	O318	O	0.569284	0.489252	0.551224
	H319	H	0.562087	0.499558	0.550256
	H320	H	0.582391	0.489995	0.557968
	O321	O	-0.036361	1.054502	1.063766
	H322	H	-0.036869	1.050703	1.068927
	H323	H	-0.039922	1.047268	1.058296
	O324	O	0.403468	0.389933	0.510373
	H325	H	0.398990	0.378649	0.515694
	H326	H	0.406362	0.386087	0.519475
	O327	O	0.568760	0.547868	0.583912
	H328	H	0.570576	0.546007	0.582839
	H329	H	0.570361	0.547427	0.588901
	O330	O	0.523834	0.514685	0.540384
	H331	H	0.522125	0.521176	0.547519
	H332	H	0.529568	0.505065	0.521148
	O333	O	0.471772	0.531662	0.564869
	H334	H	0.466689	0.521925	0.565859
	H335	H	0.477744	0.532699	0.560795
	O336	O	0.536628	0.461390	0.490828
	H337	H	0.535284	0.455902	0.482222
	H338	H	0.536125	0.472555	0.497801
	O339	O	0.973709	1.028430	0.063029
	H340	H	0.986108	1.023731	0.066391
	H341	H	0.969583	1.019262	0.063739
	O342	O	0.434782	0.484843	0.508438
	H343	H	0.436291	0.485028	0.521312
	H344	H	0.448041	0.497254	0.510697
	O345	O	0.548630	0.503962	0.456198
	H346	H	0.547689	0.497544	0.458531
	H347	H	0.558184	0.503728	0.445376
	O348	O	0.006531	-0.011079	-0.029360
	H349	H	0.008627	-0.011659	-0.029554
	H350	H	0.009876	-0.010366	-0.026363
	O351	O	0.034761	0.994387	1.067606
	H352	H	0.030538	0.992306	1.052920
	H353	H	0.037546	0.994876	1.074034
	O354	O	0.503208	0.539205	0.515599
	H355	H	0.516471	0.539465	0.513323
	H356	H	0.482131	0.528770	0.516298
	O357	O	0.082233	1.011087	1.070399
	H358	H	0.080325	0.997058	1.076155
	H359	H	0.077170	1.014124	1.075493
