data_Molecule from HDF5

_cell_length_a		16.516384
_cell_length_b		16.603674
_cell_length_c		16.615079
_cell_angle_alpha	90.009512
_cell_angle_beta	89.870908
_cell_angle_gamma	90.074548
_symmetry_space_group_name_H-M	'P 1'
_symmetry_Int_Tables_number		1

loop_
	_symmetry_equiv_pos_as_xyz
	x,y,z

loop_
	_atom_site_label
	_atom_site_type_symbol
	_atom_site_fract_x
	_atom_site_fract_y
	_atom_site_fract_z
	H0	H	0.377661	0.839742	0.719656
	H1	H	0.596995	0.147654	0.717069
	H2	H	0.594368	0.837056	0.270690
	H3	H	0.385866	0.150012	0.274229
	H4	H	0.711521	0.388716	0.836889
	H5	H	0.710814	0.598813	0.148370
	H6	H	0.268928	0.596243	0.836292
	H7	H	0.265196	0.384871	0.146993
	H8	H	0.832657	0.712367	0.388271
	H9	H	0.145978	0.714431	0.597716
	H10	H	0.832892	0.271223	0.598883
	H11	H	0.145639	0.271200	0.388030
	H12	H	0.832966	0.387416	0.714623
	H13	H	0.147166	0.596987	0.712695
	H14	H	0.833765	0.596968	0.271781
	H15	H	0.145288	0.385271	0.270386
	H16	H	0.382574	0.715250	0.837009
	H17	H	0.595924	0.715765	0.147512
	H18	H	0.596618	0.269276	0.838141
	H19	H	0.382746	0.270110	0.148202
	H20	H	0.709384	0.836362	0.388459
	H21	H	0.712334	0.147721	0.599527
	H22	H	0.264162	0.838427	0.600832
	H23	H	0.271197	0.150913	0.392403
	H24	H	0.882210	0.337841	0.215475
	H25	H	0.099422	0.645891	0.217339
	H26	H	0.097581	0.337452	0.767900
	H27	H	0.883506	0.647621	0.768479
	H28	H	0.208394	0.888820	0.337273
	H29	H	0.210912	0.100062	0.648605
	H30	H	0.768252	0.095409	0.336558
	H31	H	0.765088	0.886405	0.649192
	H32	H	0.333311	0.215953	0.887015
	H33	H	0.646694	0.213034	0.098569
	H34	H	0.333205	0.770898	0.097618
	H35	H	0.645396	0.771203	0.884898
	H36	H	0.331796	0.886833	0.213435
	H37	H	0.646494	0.094956	0.212741
	H38	H	0.334076	0.101336	0.769613
	H39	H	0.644231	0.886539	0.768737
	H40	H	0.883577	0.213636	0.337036
	H41	H	0.096208	0.217037	0.648322
	H42	H	0.091499	0.772879	0.337758
	H43	H	0.880401	0.768586	0.648935
	H44	H	0.212881	0.335802	0.885485
	H45	H	0.214038	0.646611	0.099126
	H46	H	0.767586	0.337423	0.097212
	H47	H	0.767177	0.648173	0.884314
	H48	H	0.395815	0.106752	0.584541
	H49	H	0.572818	0.884047	0.578193
	H50	H	0.575631	0.105227	0.397136
	H51	H	0.396656	0.881125	0.406791
	H52	H	0.579099	0.402674	0.105025
	H53	H	0.584798	0.580847	0.878749
	H54	H	0.396410	0.584685	0.106708
	H55	H	0.406188	0.407797	0.883448
	H56	H	0.101698	0.579578	0.404002
	H57	H	0.880093	0.579787	0.577083
	H58	H	0.100163	0.404657	0.577572
	H59	H	0.874701	0.396404	0.403789
	H60	H	0.101265	0.406882	0.581952
	H61	H	0.878248	0.575250	0.585212
	H62	H	0.102052	0.582737	0.404269
	H63	H	0.878150	0.406279	0.408665
	H64	H	0.401037	0.573192	0.099937
	H65	H	0.575088	0.576635	0.882900
	H66	H	0.579302	0.404477	0.104551
	H67	H	0.405111	0.397473	0.879965
	H68	H	0.574653	0.102093	0.406935
	H69	H	0.576148	0.881588	0.580166
	H70	H	0.407298	0.102756	0.583979
	H71	H	0.393279	0.877559	0.399366
	H72	H	0.895238	0.605566	0.079197
	H73	H	0.082648	0.379116	0.082324
	H74	H	0.077695	0.604313	0.898937
	H75	H	0.905656	0.382615	0.901440
	H76	H	0.075063	0.904301	0.605651
	H77	H	0.071398	0.085335	0.382232
	H78	H	0.899673	0.086488	0.606568
	H79	H	0.901270	0.899041	0.381345
	H80	H	0.598557	0.079880	0.908849
	H81	H	0.378045	0.082604	0.078309
	H82	H	0.602865	0.904265	0.085171
	H83	H	0.376322	0.904095	0.906183
	H84	H	0.601936	0.901265	0.079326
	H85	H	0.376988	0.077879	0.086162
	H86	H	0.600043	0.076555	0.904012
	H87	H	0.378206	0.905807	0.906208
	H88	H	0.895823	0.078705	0.605473
	H89	H	0.083764	0.084822	0.379285
	H90	H	0.076490	0.902739	0.605872
	H91	H	0.895821	0.901454	0.381054
	H92	H	0.075387	0.600573	0.906501
	H93	H	0.073082	0.380617	0.085190
	H94	H	0.902934	0.606795	0.088464
	H95	H	0.902168	0.383386	0.908222
	H96	H	0.400412	0.101745	0.574435
	H97	H	0.572518	0.882589	0.582492
	H98	H	0.583925	0.106220	0.403777
	H99	H	0.401843	0.880478	0.399549
	H100	H	0.577413	0.403301	0.104255
	H101	H	0.575639	0.587999	0.879892
	H102	H	0.409250	0.584328	0.101958
	H103	H	0.396721	0.404191	0.879959
	H104	H	0.101345	0.581110	0.406894
	H105	H	0.875327	0.584184	0.583833
	H106	H	0.102738	0.402339	0.581169
	H107	H	0.875601	0.405317	0.397363
	H108	H	0.906932	0.601200	0.077929
	H109	H	0.076250	0.383051	0.075627
	H110	H	0.084026	0.604065	0.905417
	H111	H	0.898539	0.379534	0.902657
	H112	H	0.077075	0.905087	0.605483
	H113	H	0.078168	0.075077	0.384552
	H114	H	0.904693	0.079646	0.602528
	H115	H	0.900138	0.903919	0.383635
	H116	H	0.601819	0.081987	0.904475
	H117	H	0.374013	0.086820	0.085560
	H118	H	0.600211	0.907492	0.079900
	H119	H	0.377092	0.905210	0.904485
	C120	C	0.367130	0.001602	0.614828
	C121	C	0.608522	0.984849	0.613779
	C122	C	0.609802	0.000775	0.371336
	C123	C	0.366883	0.984211	0.371796
	C124	C	0.611354	0.371122	0.001445
	C125	C	0.611275	0.614559	0.983289
	C126	C	0.369323	0.613051	0.000231
	C127	C	0.368585	0.370342	0.983862
	C128	C	-0.001830	0.613043	0.372808
	C129	C	0.981486	0.612872	0.613794
	C130	C	-0.002253	0.371798	0.613209
	C131	C	0.980259	0.370742	0.371425
	C132	C	0.868480	0.501681	0.114205
	C133	C	0.111246	0.483329	0.114052
	C134	C	0.111766	0.500100	0.870872
	C135	C	0.869151	0.484486	0.871299
	C136	C	0.108679	0.872063	0.502197
	C137	C	0.110224	0.114565	0.484871
	C138	C	0.867561	0.113253	0.501598
	C139	C	0.865879	0.869278	0.484965
	C140	C	0.497333	0.113529	0.872477
	C141	C	0.480367	0.114082	0.114805
	C142	C	0.497815	0.871394	0.113980
	C143	C	0.480220	0.871971	0.871404
	C144	C	0.361723	0.885646	0.677470
	C145	C	0.613713	0.101154	0.675849
	C146	C	0.612037	0.883431	0.311487
	C147	C	0.366997	0.102833	0.313781
	C148	C	0.671540	0.369296	0.883823
	C149	C	0.671310	0.616938	0.101037
	C150	C	0.308876	0.615000	0.883168
	C151	C	0.306517	0.367274	0.100648
	C152	C	0.879849	0.672233	0.370390
	C153	C	0.099124	0.673817	0.615884
	C154	C	0.879879	0.311267	0.616627
	C155	C	0.098578	0.311080	0.369697
	C156	C	0.879943	0.369187	0.673979
	C157	C	0.099779	0.615579	0.673059
	C158	C	0.880417	0.615026	0.312275
	C159	C	0.098266	0.367743	0.311012
	C160	C	0.365554	0.674144	0.883552
	C161	C	0.614066	0.675327	0.100627
	C162	C	0.614461	0.310228	0.884373
	C163	C	0.364925	0.310040	0.101194
	C164	C	0.669327	0.883173	0.369741
	C165	C	0.671323	0.101112	0.617544
	C166	C	0.305042	0.884973	0.618680
	C167	C	0.309740	0.103183	0.372412
	C168	C	0.864512	0.384732	0.175038
	C169	C	0.116347	0.599576	0.176053
	C170	C	0.115220	0.383462	0.809018
	C171	C	0.865959	0.601360	0.809683
	C172	C	0.168642	0.870042	0.384609
	C173	C	0.170757	0.117697	0.601991
	C174	C	0.807901	0.114504	0.383629
	C175	C	0.805237	0.867628	0.602314
	C176	C	0.380382	0.175536	0.868744
	C177	C	0.599107	0.173472	0.116996
	C178	C	0.379768	0.811208	0.115867
	C179	C	0.598196	0.811399	0.867381
	C180	C	0.379327	0.868773	0.173513
	C181	C	0.598995	0.115163	0.174036
	C182	C	0.380502	0.118445	0.810498
	C183	C	0.597507	0.868647	0.809425
	C184	C	0.865107	0.173289	0.383911
	C185	C	0.113653	0.176115	0.601562
	C186	C	0.110299	0.812551	0.384605
	C187	C	0.862485	0.808923	0.602176
	C188	C	0.172652	0.382872	0.867392
	C189	C	0.173494	0.599873	0.117405
	C190	C	0.807721	0.384274	0.116022
	C191	C	0.807952	0.601512	0.867297
	C192	C	0.393747	0.082685	0.588549
	C193	C	0.581557	0.903888	0.587697
	C194	C	0.585089	0.083209	0.395691
	C195	C	0.390455	0.901209	0.395254
	C196	C	0.585855	0.396189	0.083221
	C197	C	0.585835	0.589183	0.901912
	C198	C	0.395052	0.587838	0.081677
	C199	C	0.395019	0.395899	0.902462
	C200	C	0.080366	0.588208	0.397866
	C201	C	0.899330	0.587237	0.589036
	C202	C	0.079849	0.397338	0.587500
	C203	C	0.897653	0.395420	0.396221
	C204	C	0.894426	0.583307	0.089111
	C205	C	0.084675	0.402124	0.088168
	C206	C	0.086204	0.581748	0.896366
	C207	C	0.894802	0.403053	0.896777
	C208	C	0.083425	0.896934	0.584255
	C209	C	0.084801	0.088958	0.403315
	C210	C	0.892704	0.088572	0.583335
	C211	C	0.891670	0.894263	0.403264
	C212	C	0.578829	0.086946	0.898512
	C213	C	0.397783	0.089666	0.090396
	C214	C	0.580076	0.896896	0.088787
	C215	C	0.398540	0.897509	0.897961
	Zn216	Zn	0.488218	-0.006557	0.743783
	Zn217	Zn	0.488691	-0.008048	0.242560
	Zn218	Zn	0.740024	0.493356	-0.007924
	Zn219	Zn	0.239890	0.491429	-0.007687
	Zn220	Zn	-0.011495	0.742053	0.494053
	Zn221	Zn	-0.011384	0.242507	0.492840
	Zn222	Zn	-0.009930	0.492017	0.742512
	Zn223	Zn	-0.009876	0.492350	0.243576
	Zn224	Zn	0.489674	0.743445	-0.007811
	Zn225	Zn	0.490049	0.241912	-0.006708
	Zn226	Zn	0.738280	-0.007925	0.493357
	Zn227	Zn	0.238238	-0.006956	0.493804
	N228	N	0.399619	0.959147	0.675237
	N229	N	0.575295	0.027842	0.673578
	N230	N	0.575911	0.957631	0.312135
	N231	N	0.401573	0.027518	0.312960
	N232	N	0.669751	0.406289	0.957683
	N233	N	0.670003	0.580067	0.026960
	N234	N	0.310796	0.577767	0.956792
	N235	N	0.308606	0.403984	0.026597
	N236	N	0.954092	0.671428	0.407194
	N237	N	0.024374	0.672536	0.580236
	N238	N	0.954231	0.312843	0.579579
	N239	N	0.024023	0.312718	0.406486
	N240	N	0.954376	0.406062	0.672117
	N241	N	0.025420	0.578544	0.672192
	N242	N	0.955088	0.578904	0.313646
	N243	N	0.023674	0.404041	0.311901
	N244	N	0.402336	0.673195	0.957500
	N245	N	0.577524	0.674188	0.026403
	N246	N	0.577984	0.311104	0.958731
	N247	N	0.402769	0.311745	0.027561
	N248	N	0.668021	0.957272	0.406392
	N249	N	0.668058	0.027892	0.579447
	N250	N	0.308200	0.958104	0.580326
	N251	N	0.309387	0.028336	0.407558
	N252	N	0.901537	0.458836	0.174273
	N253	N	0.078380	0.526031	0.174213
	N254	N	0.078319	0.457470	0.810813
	N255	N	0.903191	0.527432	0.811734
	N256	N	0.167919	0.906356	0.458823
	N257	N	0.168886	0.080156	0.528376
	N258	N	0.809124	0.078115	0.457849
	N259	N	0.807278	0.904347	0.528372
	N260	N	0.454108	0.172629	0.906684
	N261	N	0.524210	0.173206	0.081248
	N262	N	0.454581	0.812633	0.079503
	N263	N	0.524073	0.813107	0.905109
	N264	N	0.453893	0.905404	0.172593
	N265	N	0.524152	0.078936	0.173026
	N266	N	0.454305	0.080817	0.812703
	N267	N	0.523144	0.905524	0.811707
	N268	N	0.901149	0.172999	0.458333
	N269	N	0.076658	0.174288	0.527653
	N270	N	0.073973	0.813546	0.458955
	N271	N	0.899333	0.809690	0.527959
	N272	N	0.170507	0.456439	0.905127
	N273	N	0.170681	0.526453	0.079679
	N274	N	0.809682	0.458320	0.079276
	N275	N	0.809972	0.528025	0.905116
	O276	O	-0.155670	1.013609	-0.151383
	H277	H	-0.156705	1.002633	-0.150857
	H278	H	-0.154098	1.011047	-0.145727
	O279	O	0.510662	0.650718	0.552517
	H280	H	0.513490	0.640957	0.558174
	H281	H	0.523134	0.643972	0.558255
	O282	O	1.158408	0.152742	0.810806
	H283	H	1.158986	0.157402	0.812818
	H284	H	1.155413	0.156550	0.801632
	O285	O	0.546091	0.257891	0.550281
	H286	H	0.559990	0.254295	0.553024
	H287	H	0.538610	0.259330	0.534042
	O288	O	0.298316	0.346337	0.360483
	H289	H	0.299311	0.371646	0.372636
	H290	H	0.313473	0.361215	0.362978
	O291	O	0.297940	0.294647	0.687914
	H292	H	0.303807	0.309585	0.672954
	H293	H	0.308866	0.300070	0.675719
	O294	O	1.524583	0.274929	1.271396
	H295	H	1.516201	0.248900	1.245469
	H296	H	1.503485	0.296831	1.266712
	O297	O	0.507064	0.417819	0.686804
	H298	H	0.508636	0.435110	0.683446
	H299	H	0.491871	0.403951	0.684906
	O300	O	-0.063528	0.031639	1.196529
	H301	H	-0.023224	0.030539	1.193588
	H302	H	-0.063110	0.032809	1.180575
	O303	O	0.434038	0.520956	0.395266
	H304	H	0.431966	0.514027	0.386232
	H305	H	0.429652	0.536484	0.402061
	O306	O	0.514283	0.716079	0.711631
	H307	H	0.519929	0.725312	0.729590
	H308	H	0.525478	0.720890	0.714570
	O309	O	0.482673	0.509372	0.602014
	H310	H	0.490509	0.517612	0.607727
	H311	H	0.462923	0.501481	0.601684
	O312	O	0.404767	0.478051	0.581681
	H313	H	0.402403	0.485523	0.584611
	H314	H	0.404476	0.466104	0.577565
	O315	O	0.764003	0.962649	0.886564
	H316	H	0.768959	0.936788	0.894908
	H317	H	0.761127	0.959193	0.884007
	O318	O	0.051720	0.221195	0.936140
	H319	H	0.038587	0.223425	0.916973
	H320	H	0.043104	0.218580	0.927291
	O321	O	0.280838	0.590704	0.602287
	H322	H	0.294301	0.610612	0.590857
	H323	H	0.279004	0.584033	0.597071
	O324	O	1.023071	0.980508	-0.124400
	H325	H	1.028858	0.981548	-0.120584
	H326	H	1.015780	0.976872	-0.119118
	O327	O	-0.227710	0.211158	0.957622
	H328	H	-0.242685	0.221446	0.948702
	H329	H	-0.237115	0.216963	0.926211
	O330	O	0.212946	1.064998	-0.041117
	H331	H	0.210458	1.059216	-0.052715
	H332	H	0.215121	1.080490	-0.038541
	O333	O	1.037510	0.045247	1.045735
	H334	H	1.042100	0.051104	1.038512
	H335	H	1.045252	0.034910	1.053275
	O336	O	0.626340	0.331286	0.295444
	H337	H	0.591392	0.316229	0.286985
	H338	H	0.650800	0.324556	0.289907
	O339	O	0.934391	0.035795	0.890727
	H340	H	0.934333	0.020826	0.895491
	H341	H	0.944170	0.019710	0.889093
	O342	O	0.274735	0.508965	0.278899
	H343	H	0.276178	0.537403	0.280153
	H344	H	0.258017	0.520612	0.263480
	O345	O	-0.038823	1.210784	0.780957
	H346	H	-0.042377	1.216749	0.756237
	H347	H	-0.054298	1.199995	0.778410
	O348	O	0.346183	0.452948	0.452598
	H349	H	0.339290	0.457788	0.441608
	H350	H	0.354974	0.466956	0.457155
	O351	O	-0.202619	1.069346	0.006373
	H352	H	-0.199751	1.056794	-0.002100
	H353	H	-0.201020	1.081376	-0.018145
	O354	O	0.208609	0.211645	1.054456
	H355	H	0.194018	0.226325	1.033037
	H356	H	0.220707	0.222138	1.045235
	O357	O	0.280331	0.283935	0.517436
	H358	H	0.284547	0.294183	0.509231
	H359	H	0.259390	0.280847	0.505965
	O360	O	0.377284	0.701029	0.592255
	H361	H	0.387677	0.708580	0.592748
	H362	H	0.391280	0.701280	0.592023
	O363	O	0.212011	-0.069447	0.045493
	H364	H	0.204825	-0.062691	0.045816
	H365	H	0.215773	-0.048068	0.060412
	O366	O	0.291368	0.688489	0.286838
	H367	H	0.331932	0.686494	0.284571
	H368	H	0.283578	0.703682	0.296885
	O369	O	1.190849	-0.214347	-0.213558
	H370	H	1.193684	-0.199177	-0.182654
	H371	H	1.183635	-0.218929	-0.218104
	O372	O	0.894218	0.802235	-0.057707
	H373	H	0.897007	0.806568	-0.067275
	H374	H	0.875079	0.804112	-0.063386
	O375	O	0.789997	0.065366	0.187903
	H376	H	0.777487	0.053050	0.190467
	H377	H	0.812595	0.080425	0.177693
	O378	O	0.652026	0.332829	0.686473
	H379	H	0.636264	0.353723	0.674959
	H380	H	0.631574	0.341399	0.674001
	O381	O	-0.159420	0.842902	0.796331
	H382	H	-0.156873	0.840867	0.799210
	H383	H	-0.168646	0.832778	0.793168
	O384	O	1.199017	-0.027125	0.782317
	H385	H	1.196409	-0.029479	0.781970
	H386	H	1.203522	-0.031666	0.771560
	O387	O	1.017584	0.771093	-0.225602
	H388	H	1.025920	0.772060	-0.224412
	H389	H	1.025021	0.756499	-0.244157
	O390	O	0.604075	0.414618	0.473171
	H391	H	0.600004	0.402932	0.468179
	H392	H	0.613462	0.404446	0.482154
	O393	O	0.523952	0.718343	0.420279
	H394	H	0.532956	0.709326	0.406723
	H395	H	0.535627	0.704991	0.430645
	O396	O	-0.218491	0.780013	1.206011
	H397	H	-0.202745	0.805072	1.199862
	H398	H	-0.199520	0.795792	1.189597
	O399	O	0.014040	0.210596	1.213551
	H400	H	0.027045	0.224221	1.213767
	H401	H	0.016306	0.233109	1.207934
	O402	O	0.706260	-0.292519	0.520305
	H403	H	0.688526	-0.294148	0.516287
	H404	H	0.734026	-0.271433	0.518152
	O405	O	1.668225	0.677391	0.319289
	H406	H	1.679414	0.678879	0.312507
	H407	H	1.687820	0.686901	0.321922
	O408	O	0.204511	-0.228605	-0.043685
	H409	H	0.215240	-0.220019	-0.035133
	H410	H	0.219175	-0.235909	-0.040654
	O411	O	0.771256	0.772530	1.021223
	H412	H	0.761753	0.753215	1.032926
	H413	H	0.771963	0.771876	1.030618
	O414	O	0.710316	0.548802	0.484080
	H415	H	0.710784	0.555102	0.477024
	H416	H	0.710049	0.539490	0.470635
	O417	O	0.955260	0.770487	0.208733
	H418	H	0.964362	0.755846	0.225278
	H419	H	0.965576	0.771729	0.199817
	O420	O	0.667782	0.443085	0.564098
	H421	H	0.669784	0.432435	0.559738
	H422	H	0.665819	0.451631	0.554454
	O423	O	-0.054558	-0.007554	1.046560
	H424	H	-0.051593	-0.009511	1.060337
	H425	H	-0.052999	-0.000299	1.048453
	O426	O	0.485877	0.555239	0.356688
	H427	H	0.501946	0.576291	0.363948
	H428	H	0.504742	0.553409	0.348137
	O429	O	0.937102	1.218380	1.044107
	H430	H	0.923087	1.203485	1.037999
	H431	H	0.934161	1.224219	1.024480
	O432	O	0.459647	0.296060	0.684444
	H433	H	0.455042	0.284525	0.681692
	H434	H	0.450644	0.285165	0.679203
	O435	O	-0.314331	0.688895	-0.303967
	H436	H	-0.321009	0.675885	-0.324900
	H437	H	-0.321843	0.662931	-0.315554
	O438	O	0.151314	-0.179888	0.114055
	H439	H	0.126927	-0.185687	0.102314
	H440	H	0.152895	-0.177272	0.121077
	O441	O	-0.293884	-0.683065	-0.515952
	H442	H	-0.275358	-0.708015	-0.528586
	H443	H	-0.305518	-0.682928	-0.530449
	O444	O	0.267224	0.711892	0.457440
	H445	H	0.267289	0.731466	0.465385
	H446	H	0.265731	0.730244	0.457097
	O447	O	0.171177	1.177907	1.178787
	H448	H	0.166806	1.187289	1.141505
	H449	H	0.172029	1.194248	1.179501
	O450	O	-0.163377	1.160912	1.222141
	H451	H	-0.151611	1.177822	1.220537
	H452	H	-0.153655	1.142562	1.215903
	O453	O	0.445924	0.547378	0.277696
	H454	H	0.455773	0.554000	0.285907
	H455	H	0.450833	0.569718	0.270503
	O456	O	0.707451	0.463043	1.273400
	H457	H	0.733191	0.455781	1.252879
	H458	H	0.711265	0.432062	1.277141
	O459	O	1.213996	1.025145	0.219724
	H460	H	1.232954	1.049729	0.237299
	H461	H	1.221987	1.054794	0.222997
	O462	O	0.465514	0.634356	0.281174
	H463	H	0.480655	0.633290	0.286060
	H464	H	0.481490	0.645121	0.284662
	O465	O	1.452315	0.285383	0.431783
	H466	H	1.449559	0.283296	0.428917
	H467	H	1.456510	0.291697	0.430421
	O468	O	0.278042	0.464983	0.708162
	H469	H	0.266996	0.468967	0.698132
	H470	H	0.261962	0.457537	0.721627
	O471	O	0.777076	0.208408	0.780715
	H472	H	0.758683	0.230503	0.765598
	H473	H	0.778037	0.169494	0.779085
	O474	O	0.690396	0.490655	0.684744
	H475	H	0.701143	0.484904	0.681655
	H476	H	0.693977	0.471747	0.691027
	O477	O	1.009265	-0.044968	1.844054
	H478	H	1.005428	-0.056585	1.854420
	H479	H	1.016169	-0.047403	1.847323
	O480	O	0.099836	0.904872	0.180786
	H481	H	0.107473	0.895573	0.191486
	H482	H	0.119555	0.924003	0.177201
	O483	O	0.045848	0.757085	0.039319
	H484	H	0.033561	0.756860	0.022732
	H485	H	0.054848	0.752618	0.039154
	O486	O	0.929425	-0.085889	0.951817
	H487	H	0.934963	-0.085488	0.964444
	H488	H	0.941660	-0.094583	0.960883
	O489	O	0.827341	0.931063	0.134285
	H490	H	0.831094	0.952536	0.142373
	H491	H	0.834436	0.938543	0.143439
