data_Molecule from HDF5

_cell_length_a		16.576690
_cell_length_b		16.702487
_cell_length_c		16.476338
_cell_angle_alpha	89.966268
_cell_angle_beta	90.092533
_cell_angle_gamma	90.069355
_symmetry_space_group_name_H-M	'P 1'
_symmetry_Int_Tables_number		1

loop_
	_symmetry_equiv_pos_as_xyz
	x,y,z

loop_
	_atom_site_label
	_atom_site_type_symbol
	_atom_site_fract_x
	_atom_site_fract_y
	_atom_site_fract_z
	H0	H	0.374075	0.812090	0.719900
	H1	H	0.583924	0.121983	0.718961
	H2	H	0.583648	0.811866	0.275753
	H3	H	0.375736	0.122369	0.276592
	H4	H	0.702190	0.359768	0.842406
	H5	H	0.698916	0.570580	0.155301
	H6	H	0.261582	0.567630	0.840278
	H7	H	0.261467	0.364629	0.156982
	H8	H	0.821484	0.687278	0.392969
	H9	H	0.136734	0.685367	0.601089
	H10	H	0.825344	0.241282	0.607498
	H11	H	0.134626	0.245064	0.392208
	H12	H	0.823268	0.361862	0.718584
	H13	H	0.137856	0.566495	0.714894
	H14	H	0.820492	0.569659	0.278721
	H15	H	0.135460	0.365221	0.279203
	H16	H	0.375835	0.686095	0.840813
	H17	H	0.583838	0.686894	0.155103
	H18	H	0.585739	0.244489	0.841791
	H19	H	0.374226	0.245855	0.155251
	H20	H	0.700905	0.811298	0.392073
	H21	H	0.703115	0.120389	0.604651
	H22	H	0.256195	0.812321	0.603512
	H23	H	0.256638	0.121378	0.391124
	H24	H	0.876363	0.310865	0.217715
	H25	H	0.079631	0.624602	0.216966
	H26	H	0.083044	0.311265	0.778148
	H27	H	0.876832	0.623311	0.778563
	H28	H	0.197564	0.864024	0.339427
	H29	H	0.200230	0.069827	0.654570
	H30	H	0.760053	0.069887	0.340069
	H31	H	0.758869	0.862399	0.654616
	H32	H	0.322584	0.188349	0.890664
	H33	H	0.633853	0.189788	0.103103
	H34	H	0.323791	0.744433	0.105062
	H35	H	0.634601	0.744332	0.891335
	H36	H	0.322571	0.864188	0.217522
	H37	H	0.635638	0.071379	0.218319
	H38	H	0.321442	0.068220	0.778152
	H39	H	0.635304	0.861826	0.777156
	H40	H	0.872809	0.188587	0.342297
	H41	H	0.086171	0.187738	0.654518
	H42	H	0.082975	0.746755	0.339775
	H43	H	0.874887	0.747138	0.655998
	H44	H	0.199183	0.310730	0.896243
	H45	H	0.198265	0.623786	0.101959
	H46	H	0.756271	0.312327	0.103366
	H47	H	0.757160	0.621739	0.891605
	H48	H	0.388866	0.077338	0.582890
	H49	H	0.569340	0.852060	0.596284
	H50	H	0.571354	0.078546	0.408732
	H51	H	0.390947	0.855244	0.405835
	H52	H	0.563373	0.373887	0.109519
	H53	H	0.570489	0.563438	0.881660
	H54	H	0.394930	0.557669	0.110628
	H55	H	0.387295	0.373540	0.883597
	H56	H	0.089946	0.558620	0.410975
	H57	H	0.867818	0.557789	0.582960
	H58	H	0.089398	0.378243	0.582940
	H59	H	0.864969	0.370706	0.409475
	H60	H	0.092087	0.379235	0.590731
	H61	H	0.866139	0.554261	0.591283
	H62	H	0.090313	0.556512	0.407857
	H63	H	0.869553	0.377934	0.418112
	H64	H	0.387586	0.562652	0.114674
	H65	H	0.571300	0.548647	0.886055
	H66	H	0.571180	0.379308	0.111444
	H67	H	0.386480	0.381506	0.885931
	H68	H	0.568150	0.077545	0.407915
	H69	H	0.559920	0.859516	0.583714
	H70	H	0.387308	0.079416	0.589027
	H71	H	0.391111	0.857278	0.411275
	H72	H	0.883912	0.579932	0.088965
	H73	H	0.074139	0.353505	0.092198
	H74	H	0.072504	0.578579	0.910367
	H75	H	0.892915	0.357872	0.912479
	H76	H	0.067930	0.877459	0.610108
	H77	H	0.067836	0.053642	0.385819
	H78	H	0.891083	0.052659	0.610710
	H79	H	0.887120	0.875701	0.383345
	H80	H	0.589026	0.054429	0.910346
	H81	H	0.367031	0.054898	0.088173
	H82	H	0.593333	0.873094	0.087423
	H83	H	0.366854	0.876831	0.909018
	H84	H	0.590195	0.877324	0.082097
	H85	H	0.365648	0.059413	0.087866
	H86	H	0.591655	0.057952	0.908083
	H87	H	0.367803	0.876825	0.911364
	H88	H	0.893838	0.053501	0.609417
	H89	H	0.064373	0.057566	0.385948
	H90	H	0.067184	0.875568	0.610282
	H91	H	0.891082	0.877840	0.385537
	H92	H	0.071997	0.580001	0.904609
	H93	H	0.066280	0.355899	0.091786
	H94	H	0.892146	0.578664	0.089751
	H95	H	0.884708	0.355264	0.910891
	H96	H	0.393096	0.077088	0.588077
	H97	H	0.576427	0.854983	0.580858
	H98	H	0.569070	0.077205	0.411180
	H99	H	0.386012	0.854744	0.409560
	H100	H	0.562934	0.382998	0.107208
	H101	H	0.558310	0.556127	0.888620
	H102	H	0.386761	0.553148	0.112572
	H103	H	0.393724	0.377412	0.886796
	H104	H	0.091623	0.559741	0.407407
	H105	H	0.864052	0.562743	0.590014
	H106	H	0.092539	0.372100	0.586593
	H107	H	0.867427	0.382377	0.407348
	H108	H	0.888849	0.577042	0.083026
	H109	H	0.071228	0.356220	0.085135
	H110	H	0.067674	0.577219	0.907157
	H111	H	0.890770	0.354707	0.904911
	H112	H	0.069124	0.875871	0.611516
	H113	H	0.069144	0.058024	0.384009
	H114	H	0.891885	0.055815	0.610557
	H115	H	0.891358	0.873126	0.384305
	H116	H	0.589858	0.058566	0.912824
	H117	H	0.366801	0.056920	0.083692
	H118	H	0.590959	0.880317	0.089313
	H119	H	0.367620	0.878223	0.909923
	C120	C	0.357526	-0.024640	0.619080
	C121	C	0.601121	0.957830	0.619600
	C122	C	0.601271	-0.024828	0.376273
	C123	C	0.357537	0.958264	0.375863
	C124	C	0.598937	0.346361	0.006087
	C125	C	0.599270	0.587667	0.989396
	C126	C	0.358381	0.588444	0.007518
	C127	C	0.357856	0.345852	0.989720
	C128	C	-0.013328	0.588892	0.376990
	C129	C	0.970623	0.587877	0.618809
	C130	C	-0.011692	0.344506	0.619591
	C131	C	0.970323	0.345788	0.378301
	C132	C	0.856670	0.475770	0.119557
	C133	C	0.100700	0.458938	0.120496
	C134	C	0.101310	0.475203	0.876867
	C135	C	0.857552	0.458632	0.876740
	C136	C	0.100014	0.844938	0.506297
	C137	C	0.100388	0.087860	0.489043
	C138	C	0.858915	0.086746	0.506849
	C139	C	0.857827	0.844809	0.488868
	C140	C	0.487102	0.088674	0.876634
	C141	C	0.470095	0.088634	0.118871
	C142	C	0.488135	0.845256	0.118752
	C143	C	0.470439	0.845169	0.877171
	C144	C	0.355447	0.858573	0.679648
	C145	C	0.603301	0.074881	0.679756
	C146	C	0.602740	0.858482	0.315896
	C147	C	0.356304	0.075610	0.316175
	C148	C	0.660791	0.342722	0.888910
	C149	C	0.659198	0.589293	0.107828
	C150	C	0.300300	0.587983	0.887948
	C151	C	0.299832	0.344945	0.109072
	C152	C	0.868467	0.647286	0.375133
	C153	C	0.089561	0.645666	0.619705
	C154	C	0.871529	0.283074	0.623810
	C155	C	0.088058	0.286133	0.374904
	C156	C	0.870433	0.342929	0.679284
	C157	C	0.090056	0.586430	0.676060
	C158	C	0.867994	0.588825	0.318028
	C159	C	0.088349	0.345482	0.318456
	C160	C	0.356922	0.646664	0.888191
	C161	C	0.602089	0.647191	0.107882
	C162	C	0.603061	0.285178	0.888691
	C163	C	0.355857	0.285990	0.108142
	C164	C	0.660851	0.858140	0.373795
	C165	C	0.662195	0.074237	0.622609
	C166	C	0.296926	0.858724	0.621957
	C167	C	0.297476	0.075159	0.373321
	C168	C	0.856065	0.358077	0.178661
	C169	C	0.099755	0.577161	0.178217
	C170	C	0.101914	0.357700	0.818213
	C171	C	0.856678	0.575957	0.817433
	C172	C	0.158467	0.844811	0.387037
	C173	C	0.160404	0.089016	0.607468
	C174	C	0.799134	0.088617	0.387935
	C175	C	0.798419	0.843634	0.607534
	C176	C	0.369280	0.147894	0.873177
	C177	C	0.587496	0.148988	0.121467
	C178	C	0.370526	0.785210	0.122134
	C179	C	0.587698	0.784703	0.873807
	C180	C	0.369794	0.844554	0.178143
	C181	C	0.588326	0.089955	0.178356
	C182	C	0.368886	0.088493	0.817075
	C183	C	0.588104	0.843084	0.816824
	C184	C	0.855283	0.147651	0.388996
	C185	C	0.103742	0.147470	0.607371
	C186	C	0.101411	0.786483	0.387247
	C187	C	0.856300	0.786543	0.608140
	C188	C	0.159508	0.357652	0.876852
	C189	C	0.158898	0.576882	0.121282
	C190	C	0.796660	0.358763	0.121872
	C191	C	0.797379	0.575194	0.873925
	C192	C	0.382498	0.056654	0.593762
	C193	C	0.575644	0.876615	0.594244
	C194	C	0.576588	0.056603	0.401943
	C195	C	0.382387	0.876903	0.401499
	C196	C	0.573029	0.371660	0.088055
	C197	C	0.573932	0.563026	0.906860
	C198	C	0.382908	0.564745	0.090862
	C199	C	0.382198	0.370356	0.907061
	C200	C	0.069308	0.564984	0.401616
	C201	C	0.887595	0.564841	0.594954
	C202	C	0.070178	0.369521	0.594043
	C203	C	0.888459	0.370036	0.404197
	C204	C	0.881253	0.557259	0.094397
	C205	C	0.077306	0.376632	0.096508
	C206	C	0.077479	0.557197	0.900638
	C207	C	0.882305	0.377124	0.901953
	C208	C	0.075120	0.869208	0.588994
	C209	C	0.074578	0.063375	0.406569
	C210	C	0.884910	0.061259	0.588798
	C211	C	0.882737	0.868672	0.405960
	C212	C	0.568920	0.064235	0.902767
	C213	C	0.387881	0.064052	0.093774
	C214	C	0.570196	0.869771	0.093456
	C215	C	0.388751	0.870145	0.902746
	Zn216	Zn	0.479186	-0.033416	0.748481
	Zn217	Zn	0.479021	-0.033323	0.247227
	Zn218	Zn	0.727628	0.467083	-0.002202
	Zn219	Zn	0.230154	0.467221	-0.000795
	Zn220	Zn	-0.021142	0.717160	0.498163
	Zn221	Zn	-0.020781	0.215884	0.498275
	Zn222	Zn	-0.020893	0.466499	0.747743
	Zn223	Zn	-0.021753	0.467165	0.249218
	Zn224	Zn	0.479417	0.716560	-0.001852
	Zn225	Zn	0.477875	0.217716	-0.002328
	Zn226	Zn	0.730290	-0.033421	0.497860
	Zn227	Zn	0.228505	-0.033403	0.497270
	N228	N	0.392395	0.932000	0.677906
	N229	N	0.566212	0.001357	0.678323
	N230	N	0.566604	0.932345	0.317103
	N231	N	0.392742	0.001866	0.317745
	N232	N	0.658465	0.380106	0.962952
	N233	N	0.657852	0.553297	0.033024
	N234	N	0.300841	0.552836	0.963340
	N235	N	0.300776	0.381493	0.034439
	N236	N	0.943244	0.647428	0.411085
	N237	N	0.014130	0.646944	0.585144
	N238	N	0.945812	0.283848	0.587338
	N239	N	0.013570	0.286012	0.411242
	N240	N	0.944157	0.380448	0.676928
	N241	N	0.015053	0.551492	0.676046
	N242	N	0.942665	0.553154	0.318965
	N243	N	0.014193	0.381916	0.320442
	N244	N	0.391923	0.647411	0.963891
	N245	N	0.565714	0.646564	0.032936
	N246	N	0.565140	0.287207	0.962708
	N247	N	0.390647	0.286044	0.032556
	N248	N	0.660312	0.932043	0.410413
	N249	N	0.661246	0.000369	0.586310
	N250	N	0.297884	0.932406	0.585204
	N251	N	0.297838	0.001047	0.409639
	N252	N	0.892178	0.432009	0.177762
	N253	N	0.064690	0.502639	0.178290
	N254	N	0.066485	0.431885	0.817944
	N255	N	0.893208	0.502268	0.818682
	N256	N	0.157950	0.880494	0.462097
	N257	N	0.158469	0.052738	0.532828
	N258	N	0.801070	0.051675	0.462496
	N259	N	0.799011	0.878950	0.532272
	N260	N	0.443951	0.148298	0.909402
	N261	N	0.512895	0.148283	0.085133
	N262	N	0.445126	0.785394	0.086107
	N263	N	0.513365	0.785760	0.910492
	N264	N	0.443893	0.881287	0.176245
	N265	N	0.514316	0.053226	0.176824
	N266	N	0.443168	0.052314	0.819036
	N267	N	0.514229	0.880227	0.818638
	N268	N	0.891697	0.146785	0.463857
	N269	N	0.067199	0.147039	0.532521
	N270	N	0.066109	0.786251	0.462630
	N271	N	0.892367	0.786879	0.533185
	N272	N	0.159522	0.431739	0.912427
	N273	N	0.159820	0.502242	0.086243
	N274	N	0.796698	0.433036	0.086065
	N275	N	0.797563	0.501056	0.909887
	O276	O	-0.041461	1.184695	-0.213530
	H277	H	-0.041026	1.186230	-0.233410
	H278	H	-0.058010	1.179427	-0.218341
	O279	O	0.388577	0.418947	0.503967
	H280	H	0.398679	0.415541	0.504068
	H281	H	0.393200	0.423707	0.519986
	O282	O	1.259635	0.429670	0.714588
	H283	H	1.250584	0.396975	0.726202
	H284	H	1.249286	0.410295	0.726911
	O285	O	0.663936	0.506065	0.461774
	H286	H	0.653807	0.505054	0.462547
	H287	H	0.664712	0.507313	0.467783
	O288	O	0.523812	0.378635	0.661341
	H289	H	0.521905	0.388544	0.661183
	H290	H	0.530954	0.378359	0.655639
	O291	O	0.674168	0.245291	0.442637
	H292	H	0.689831	0.223625	0.438416
	H293	H	0.683078	0.256172	0.433776
	O294	O	1.292489	0.660048	1.686733
	H295	H	1.308281	0.637541	1.670804
	H296	H	1.313252	0.647655	1.663058
	O297	O	0.439760	0.251904	0.712600
	H298	H	0.455645	0.252422	0.709044
	H299	H	0.447693	0.238340	0.722969
	O300	O	0.023979	0.168748	0.945643
	H301	H	0.022513	0.173400	0.943631
	H302	H	0.018230	0.164902	0.936942
	O303	O	0.459798	0.695091	0.521728
	H304	H	0.471228	0.698526	0.518707
	H305	H	0.458715	0.687681	0.515386
	O306	O	0.621430	0.581054	0.356088
	H307	H	0.628529	0.575336	0.364042
	H308	H	0.611904	0.567675	0.368835
	O309	O	0.289124	0.274452	0.310588
	H310	H	0.314328	0.287807	0.328698
	H311	H	0.296597	0.292941	0.338867
	O312	O	0.415111	0.240067	0.439531
	H313	H	0.404788	0.234828	0.463382
	H314	H	0.422012	0.238526	0.463098
	O315	O	1.165031	1.153365	0.814306
	H316	H	1.143265	1.139321	0.829311
	H317	H	1.147342	1.134133	0.829444
	O318	O	-0.479647	0.360735	0.487953
	H319	H	-0.470661	0.358307	0.478230
	H320	H	-0.482078	0.359480	0.490666
	O321	O	0.739506	0.736392	0.761381
	H322	H	0.735372	0.743312	0.772056
	H323	H	0.716057	0.705354	0.747626
	O324	O	0.937268	0.852161	-0.165007
	H325	H	0.922866	0.853442	-0.152850
	H326	H	0.964841	0.835898	-0.185113
	O327	O	0.198168	-0.252381	0.957214
	H328	H	0.194850	-0.225330	0.979961
	H329	H	0.225768	-0.277994	0.968739
	O330	O	0.187149	0.757749	-0.213689
	H331	H	0.223011	0.725006	-0.242704
	H332	H	0.195565	0.755142	-0.163674
	O333	O	0.743333	0.201566	1.232701
	H334	H	0.751974	0.190974	1.232277
	H335	H	0.748553	0.205745	1.227389
	O336	O	0.658611	0.283703	0.677054
	H337	H	0.667958	0.306318	0.674674
	H338	H	0.684796	0.263728	0.692661
	O339	O	1.148144	-0.181901	1.158507
	H340	H	1.127830	-0.178593	1.159984
	H341	H	1.148121	-0.155839	1.149437
	O342	O	0.607090	0.481807	0.726883
	H343	H	0.630782	0.491042	0.738709
	H344	H	0.605799	0.478631	0.732151
	O345	O	-0.124871	0.997127	1.148865
	H346	H	-0.130783	0.998264	1.133235
	H347	H	-0.141969	0.982806	1.164560
	O348	O	0.433937	0.418218	0.326818
	H349	H	0.422221	0.413741	0.327023
	H350	H	0.424039	0.419842	0.322381
	O351	O	0.103230	0.991372	0.051873
	H352	H	0.097609	1.003639	0.041501
	H353	H	0.113876	0.994441	0.060517
	O354	O	0.196921	0.179602	1.024140
	H355	H	0.198589	0.186540	1.032041
	H356	H	0.204256	0.197337	1.035077
	O357	O	0.252748	0.698248	0.279163
	H358	H	0.249139	0.705669	0.263466
	H359	H	0.281389	0.701456	0.282520
	O360	O	0.699158	0.429172	0.276930
	H361	H	0.706038	0.403194	0.269696
	H362	H	0.723721	0.434121	0.268088
	O363	O	0.541412	0.609189	-0.638895
	H364	H	0.543441	0.591778	-0.643825
	H365	H	0.547266	0.596170	-0.648926
	O366	O	0.257338	0.509624	0.288517
	H367	H	0.251664	0.531569	0.280821
	H368	H	0.239745	0.519427	0.274936
	O369	O	1.030880	0.140393	0.163096
	H370	H	1.037001	0.153157	0.171478
	H371	H	1.019985	0.131774	0.166995
	O372	O	1.191653	0.998569	0.211014
	H373	H	1.198695	1.009342	0.215563
	H374	H	1.204501	1.012180	0.215191
	O375	O	0.790147	-0.172075	-0.110509
	H376	H	0.789178	-0.181861	-0.117165
	H377	H	0.797790	-0.172607	-0.088207
	O378	O	0.690683	0.689686	0.536139
	H379	H	0.694633	0.693760	0.545905
	H380	H	0.700062	0.703405	0.534038
	O381	O	-0.167374	1.067318	1.068145
	H382	H	-0.163189	1.060743	1.073492
	H383	H	-0.170622	1.062949	1.059631
	O384	O	1.203078	-0.078031	1.042824
	H385	H	1.200155	-0.064198	1.039221
	H386	H	1.197787	-0.049443	1.049890
	O387	O	0.688824	0.733870	0.230351
	H388	H	0.676889	0.704852	0.223687
	H389	H	0.717602	0.743396	0.220326
	O390	O	1.004370	0.946718	-0.175770
	H391	H	1.001604	0.934445	-0.176954
	H392	H	1.008312	0.930989	-0.168547
	O393	O	0.683628	0.298664	0.379535
	H394	H	0.662200	0.286149	0.370129
	H395	H	0.693255	0.298094	0.382366
	O396	O	0.104203	1.010667	0.883431
	H397	H	0.082098	0.991898	0.869630
	H398	H	0.117993	1.003733	0.883470
	O399	O	0.184761	0.175615	1.205910
	H400	H	0.172107	0.162771	1.191429
	H401	H	0.217306	0.207199	1.237929
	O402	O	0.315068	-0.479685	0.608221
	H403	H	0.326779	-0.489305	0.605501
	H404	H	0.299821	-0.497552	0.623679
	O405	O	1.757715	0.948766	0.023835
	H406	H	1.759021	0.932705	0.023424
	H407	H	1.754541	0.943773	0.002977
	O408	O	-0.241518	0.000557	-0.217561
	H409	H	-0.262720	-0.005942	-0.244382
	H410	H	-0.234228	-0.025554	-0.207028
	O411	O	0.758816	0.941907	1.202744
	H412	H	0.766552	0.936328	1.198008
	H413	H	0.734897	0.937024	1.226248
	O414	O	0.414385	0.680626	0.292339
	H415	H	0.442450	0.671980	0.291930
	H416	H	0.426002	0.689792	0.289337
	O417	O	0.918759	1.184905	0.085523
	H418	H	0.919723	1.195029	0.097589
	H419	H	0.922022	1.179517	0.071464
	O420	O	0.768419	1.183489	0.787515
	H421	H	0.769499	1.157457	0.810702
	H422	H	0.787632	1.168673	0.801243
	O423	O	-0.117713	-0.016972	0.954590
	H424	H	-0.110399	-0.030954	0.957538
	H425	H	-0.117016	-0.031217	0.946078
	O426	O	0.481762	0.611862	0.704646
	H427	H	0.466297	0.614710	0.714359
	H428	H	0.468781	0.610273	0.688823
	O429	O	0.951295	0.736114	0.989142
	H430	H	0.947136	0.738122	0.973532
	H431	H	0.958376	0.731334	0.968144
	O432	O	0.488085	0.653763	0.562250
	H433	H	0.477624	0.654535	0.566950
	H434	H	0.478307	0.649948	0.547553
	O435	O	-0.990646	0.750706	-0.892078
	H436	H	-0.974087	0.758107	-0.906630
	H437	H	-0.998426	0.737133	-0.884913
	O438	O	0.017268	-0.255851	-0.224596
	H439	H	0.044852	-0.268121	-0.237403
	H440	H	0.041927	-0.268202	-0.237156
	O441	O	0.194148	-0.065218	-0.221927
	H442	H	0.215246	-0.081446	-0.238508
	H443	H	0.196540	-0.091718	-0.222573
	O444	O	0.481952	0.485667	0.492455
	H445	H	0.496713	0.483676	0.490137
	H446	H	0.471494	0.488380	0.497706
	O447	O	0.262336	1.250399	0.533300
	H448	H	0.251057	1.245106	0.558061
	H449	H	0.237000	1.246072	0.536649
	O450	O	-0.525784	1.488707	1.526737
	H451	H	-0.525305	1.487674	1.534905
	H452	H	-0.528568	1.486391	1.502305
	O453	O	0.995418	0.916928	1.158238
	H454	H	1.005468	0.913698	1.171917
	H455	H	0.975705	0.937494	1.161914
	O456	O	0.654387	0.559658	1.537545
	H457	H	0.649758	0.565234	1.516411
	H458	H	0.660568	0.544967	1.541374
	O459	O	0.785636	0.799085	0.024573
	H460	H	0.799747	0.811069	0.050779
	H461	H	0.764848	0.780082	0.015359
	O462	O	0.262718	0.687919	0.468993
	H463	H	0.260102	0.676381	0.453662
	H464	H	0.234628	0.705131	0.457255
	O465	O	1.577648	0.337652	0.573544
	H466	H	1.578954	0.327180	0.579141
	H467	H	1.591348	0.334748	0.583605
	O468	O	0.500375	0.267687	0.293338
	H469	H	0.496325	0.261440	0.294163
	H470	H	0.486136	0.253604	0.300204
	O471	O	0.271061	0.261285	0.704749
	H472	H	0.242553	0.226971	0.734933
	H473	H	0.316423	0.253462	0.703480
	O474	O	0.621712	0.616961	0.613657
	H475	H	0.619032	0.603783	0.596233
	H476	H	0.588650	0.615976	0.609533
	O477	O	0.907937	-0.180977	2.199339
	H478	H	0.912161	-0.161246	2.197731
	H479	H	0.928215	-0.184597	2.205837
	O480	O	-0.059364	1.011913	0.015587
	H481	H	-0.054199	1.004520	0.012643
	H482	H	-0.049183	1.010836	0.015412
	O483	O	-0.174350	1.153384	0.030856
	H484	H	-0.187460	1.139195	0.037973
	H485	H	-0.169346	1.154416	0.050999
	O486	O	0.991793	-0.001920	0.940027
	H487	H	0.991367	0.006193	0.934581
	H488	H	0.988711	-0.015011	0.935357
	O489	O	1.284518	0.414623	0.404683
	H490	H	1.280259	0.427256	0.406325
	H491	H	1.286488	0.424625	0.397653
