data_Molecule from HDF5

_cell_length_a		16.497911
_cell_length_b		16.349933
_cell_length_c		16.207488
_cell_angle_alpha	89.744991
_cell_angle_beta	89.899113
_cell_angle_gamma	90.214177
_symmetry_space_group_name_H-M	'P 1'
_symmetry_Int_Tables_number		1

loop_
	_symmetry_equiv_pos_as_xyz
	x,y,z

loop_
	_atom_site_label
	_atom_site_type_symbol
	_atom_site_fract_x
	_atom_site_fract_y
	_atom_site_fract_z
	H0	H	0.403063	0.834612	0.714517
	H1	H	0.604346	0.157864	0.712854
	H2	H	0.606132	0.835909	0.278130
	H3	H	0.402661	0.158234	0.278559
	H4	H	0.723361	0.388969	0.838661
	H5	H	0.720518	0.600457	0.158928
	H6	H	0.280999	0.600217	0.837037
	H7	H	0.281593	0.390164	0.159949
	H8	H	0.843031	0.718505	0.393870
	H9	H	0.160768	0.716960	0.603034
	H10	H	0.844705	0.271947	0.605044
	H11	H	0.162071	0.278253	0.393188
	H12	H	0.842135	0.391497	0.718923
	H13	H	0.160842	0.599842	0.718139
	H14	H	0.840913	0.598015	0.281134
	H15	H	0.161496	0.396482	0.278431
	H16	H	0.398079	0.714317	0.834980
	H17	H	0.603491	0.715146	0.157870
	H18	H	0.601304	0.282735	0.833756
	H19	H	0.398791	0.276578	0.158988
	H20	H	0.725288	0.838454	0.390654
	H21	H	0.723921	0.156006	0.602524
	H22	H	0.280548	0.837340	0.605523
	H23	H	0.282802	0.156097	0.390198
	H24	H	0.897320	0.335850	0.219662
	H25	H	0.100327	0.659182	0.211958
	H26	H	0.100662	0.335631	0.782143
	H27	H	0.898689	0.657454	0.780381
	H28	H	0.224518	0.891211	0.337819
	H29	H	0.222345	0.099306	0.658961
	H30	H	0.782412	0.104576	0.337331
	H31	H	0.781287	0.890819	0.658302
	H32	H	0.343447	0.217106	0.890440
	H33	H	0.659749	0.218904	0.100399
	H34	H	0.342156	0.776112	0.100798
	H35	H	0.659872	0.773500	0.889397
	H36	H	0.343707	0.891264	0.218758
	H37	H	0.661827	0.099748	0.214466
	H38	H	0.342493	0.096120	0.778332
	H39	H	0.663669	0.896918	0.780225
	H40	H	0.900531	0.217018	0.336218
	H41	H	0.105052	0.212747	0.660559
	H42	H	0.105223	0.778687	0.336633
	H43	H	0.899795	0.779750	0.660831
	H44	H	0.221155	0.337659	0.892431
	H45	H	0.222666	0.654863	0.104258
	H46	H	0.778706	0.336514	0.106576
	H47	H	0.778519	0.654272	0.890113
	H48	H	0.415211	0.109715	0.585438
	H49	H	0.588007	0.885609	0.583053
	H50	H	0.595142	0.111270	0.408736
	H51	H	0.401346	0.879874	0.411546
	H52	H	0.584492	0.413276	0.108997
	H53	H	0.593802	0.581991	0.881749
	H54	H	0.418781	0.577634	0.107424
	H55	H	0.404085	0.409746	0.881241
	H56	H	0.112612	0.579803	0.407375
	H57	H	0.886415	0.592799	0.589727
	H58	H	0.114564	0.405689	0.586812
	H59	H	0.890016	0.408901	0.412146
	H60	H	0.114336	0.409296	0.589240
	H61	H	0.889405	0.587315	0.585308
	H62	H	0.117891	0.591917	0.400712
	H63	H	0.889156	0.405285	0.409131
	H64	H	0.414072	0.595642	0.115308
	H65	H	0.587894	0.581214	0.884687
	H66	H	0.585451	0.399059	0.114359
	H67	H	0.413225	0.411315	0.884360
	H68	H	0.595965	0.112648	0.403903
	H69	H	0.600395	0.880928	0.582644
	H70	H	0.408897	0.111059	0.583204
	H71	H	0.418940	0.881318	0.398232
	H72	H	0.903617	0.614205	0.093753
	H73	H	0.095643	0.380941	0.085133
	H74	H	0.089094	0.610276	0.910474
	H75	H	0.903480	0.381764	0.916839
	H76	H	0.096949	0.904565	0.616505
	H77	H	0.099643	0.085634	0.380088
	H78	H	0.917029	0.083413	0.610809
	H79	H	0.919640	0.909922	0.386140
	H80	H	0.614943	0.085610	0.904477
	H81	H	0.388120	0.089554	0.084715
	H82	H	0.612426	0.907726	0.080542
	H83	H	0.388091	0.901021	0.909140
	H84	H	0.615386	0.908419	0.089679
	H85	H	0.390109	0.083714	0.083740
	H86	H	0.618171	0.092387	0.901835
	H87	H	0.391310	0.909341	0.908158
	H88	H	0.912476	0.087356	0.613951
	H89	H	0.090208	0.083044	0.384579
	H90	H	0.094245	0.913347	0.611650
	H91	H	0.911367	0.903198	0.380494
	H92	H	0.093212	0.611085	0.912182
	H93	H	0.091554	0.379770	0.094136
	H94	H	0.916355	0.608562	0.088712
	H95	H	0.910013	0.379429	0.903344
	H96	H	0.410481	0.112982	0.589434
	H97	H	0.593207	0.879908	0.593288
	H98	H	0.592307	0.110436	0.405493
	H99	H	0.419828	0.888525	0.420247
	H100	H	0.597142	0.408546	0.114559
	H101	H	0.589583	0.586724	0.881874
	H102	H	0.400649	0.580463	0.115100
	H103	H	0.409618	0.402322	0.881286
	H104	H	0.114406	0.592874	0.415332
	H105	H	0.887500	0.586070	0.593301
	H106	H	0.115780	0.405679	0.590558
	H107	H	0.889984	0.404599	0.413284
	H108	H	0.905163	0.609692	0.079515
	H109	H	0.086656	0.383750	0.086600
	H110	H	0.092474	0.611930	0.907340
	H111	H	0.918525	0.385497	0.914878
	H112	H	0.087710	0.905857	0.611925
	H113	H	0.091710	0.093139	0.380522
	H114	H	0.910797	0.081254	0.612718
	H115	H	0.909113	0.914661	0.382894
	H116	H	0.615617	0.092041	0.909418
	H117	H	0.387605	0.084714	0.089537
	H118	H	0.616337	0.901192	0.084641
	H119	H	0.388287	0.905171	0.901065
	C120	C	0.381149	0.005264	0.618623
	C121	C	0.624023	0.988383	0.617458
	C122	C	0.625741	0.005702	0.374416
	C123	C	0.382074	0.988760	0.376840
	C124	C	0.621208	0.375574	0.006091
	C125	C	0.622036	0.616274	0.988919
	C126	C	0.379860	0.616544	0.006046
	C127	C	0.378301	0.374593	0.988759
	C128	C	0.009689	0.619381	0.376771
	C129	C	0.992830	0.619502	0.621099
	C130	C	0.010157	0.374440	0.620861
	C131	C	0.994515	0.375530	0.377996
	C132	C	0.877791	0.504766	0.120454
	C133	C	0.121757	0.488043	0.119288
	C134	C	0.122220	0.505145	0.878126
	C135	C	0.878850	0.487525	0.878119
	C136	C	0.124493	0.875649	0.506914
	C137	C	0.124951	0.117700	0.488825
	C138	C	0.881926	0.117511	0.506133
	C139	C	0.881795	0.877142	0.490027
	C140	C	0.510851	0.119562	0.874015
	C141	C	0.493553	0.117755	0.117091
	C142	C	0.509952	0.874277	0.117815
	C143	C	0.494115	0.874682	0.874565
	C144	C	0.382352	0.883423	0.676567
	C145	C	0.623936	0.109484	0.674916
	C146	C	0.625389	0.884639	0.316830
	C147	C	0.382486	0.109479	0.317137
	C148	C	0.682181	0.372448	0.885875
	C149	C	0.681050	0.618780	0.110351
	C150	C	0.320347	0.618614	0.885069
	C151	C	0.320595	0.371959	0.110925
	C152	C	0.890250	0.678298	0.375771
	C153	C	0.112910	0.677728	0.621809
	C154	C	0.891784	0.312758	0.623165
	C155	C	0.114190	0.317285	0.374986
	C156	C	0.890438	0.372424	0.679846
	C157	C	0.113129	0.619126	0.679085
	C158	C	0.889257	0.618534	0.319412
	C159	C	0.113694	0.376309	0.317827
	C160	C	0.379088	0.675101	0.883821
	C161	C	0.623168	0.676033	0.110044
	C162	C	0.621427	0.319379	0.883595
	C163	C	0.378825	0.315377	0.110593
	C164	C	0.684816	0.885784	0.372832
	C165	C	0.683443	0.108577	0.619763
	C166	C	0.321322	0.884878	0.622363
	C167	C	0.322881	0.108530	0.373068
	C168	C	0.877739	0.384228	0.180423
	C169	C	0.120986	0.610023	0.175156
	C170	C	0.121105	0.384170	0.820114
	C171	C	0.878946	0.608552	0.818749
	C172	C	0.184050	0.873451	0.385696
	C173	C	0.183003	0.118008	0.610647
	C174	C	0.822472	0.121373	0.385404
	C175	C	0.821780	0.873983	0.610680
	C176	C	0.390875	0.177182	0.872587
	C177	C	0.612671	0.178182	0.118405
	C178	C	0.390272	0.815313	0.119768
	C179	C	0.612982	0.814742	0.872140
	C180	C	0.390982	0.872761	0.178422
	C181	C	0.613750	0.118930	0.175205
	C182	C	0.390553	0.117269	0.816543
	C183	C	0.614880	0.875841	0.817465
	C184	C	0.881279	0.177681	0.384851
	C185	C	0.124754	0.174664	0.611438
	C186	C	0.124764	0.817595	0.385204
	C187	C	0.880648	0.818302	0.611740
	C188	C	0.180975	0.385275	0.875283
	C189	C	0.181810	0.607795	0.121490
	C190	C	0.818692	0.384465	0.123986
	C191	C	0.818998	0.607078	0.873824
	C192	C	0.404752	0.089373	0.593465
	C193	C	0.600530	0.904166	0.593267
	C194	C	0.601434	0.089818	0.398780
	C195	C	0.406304	0.905010	0.402444
	C196	C	0.596234	0.399938	0.090665
	C197	C	0.597530	0.590766	0.904705
	C198	C	0.404188	0.591842	0.090598
	C199	C	0.402037	0.400158	0.904380
	C200	C	0.092987	0.595274	0.400876
	C201	C	0.909431	0.595582	0.596631
	C202	C	0.093286	0.399520	0.596028
	C203	C	0.911339	0.399300	0.403964
	C204	C	0.901574	0.588763	0.094834
	C205	C	0.097855	0.403565	0.095493
	C206	C	0.098379	0.589149	0.902971
	C207	C	0.903385	0.403995	0.904111
	C208	C	0.100085	0.900665	0.591482
	C209	C	0.100885	0.094107	0.404020
	C210	C	0.906457	0.091547	0.590587
	C211	C	0.906427	0.902025	0.405101
	C212	C	0.594501	0.096694	0.898180
	C213	C	0.410248	0.093111	0.093163
	C214	C	0.593047	0.898909	0.092302
	C215	C	0.410624	0.898376	0.899053
	Zn216	Zn	0.503006	-0.003340	0.745884
	Zn217	Zn	0.502639	-0.003433	0.246919
	Zn218	Zn	0.749494	0.495201	-0.001546
	Zn219	Zn	0.250620	0.495874	-0.000845
	Zn220	Zn	0.001828	0.748650	0.498704
	Zn221	Zn	0.003685	0.245342	0.498515
	Zn222	Zn	0.001020	0.496958	0.749914
	Zn223	Zn	0.001201	0.497519	0.247522
	Zn224	Zn	0.501488	0.744614	-0.004108
	Zn225	Zn	0.500748	0.248202	-0.003704
	Zn226	Zn	0.753162	-0.003030	0.497613
	Zn227	Zn	0.253028	-0.003481	0.497457
	N228	N	0.418784	0.959199	0.674327
	N229	N	0.587609	0.033747	0.673692
	N230	N	0.589639	0.960393	0.317456
	N231	N	0.418602	0.033914	0.319377
	N232	N	0.682208	0.406641	0.963301
	N233	N	0.680562	0.582703	0.033813
	N234	N	0.320818	0.582877	0.961996
	N235	N	0.320001	0.407981	0.034159
	N236	N	0.966276	0.679079	0.410472
	N237	N	0.037146	0.678304	0.586574
	N238	N	0.967253	0.314087	0.587138
	N239	N	0.038876	0.316687	0.411446
	N240	N	0.965025	0.410178	0.678446
	N241	N	0.037556	0.583723	0.678961
	N242	N	0.964417	0.582639	0.319872
	N243	N	0.038188	0.411553	0.319337
	N244	N	0.415359	0.674072	0.960050
	N245	N	0.587270	0.674661	0.033643
	N246	N	0.584237	0.321158	0.959413
	N247	N	0.413844	0.316842	0.033627
	N248	N	0.685201	0.962296	0.407849
	N249	N	0.683482	0.032325	0.584665
	N250	N	0.320560	0.961432	0.586860
	N251	N	0.322528	0.032420	0.409370
	N252	N	0.913585	0.460218	0.178705
	N253	N	0.084442	0.534373	0.174011
	N254	N	0.085216	0.459801	0.821869
	N255	N	0.915234	0.533078	0.820889
	N256	N	0.184033	0.908639	0.462633
	N257	N	0.183461	0.083720	0.533425
	N258	N	0.822789	0.084828	0.461981
	N259	N	0.822449	0.909787	0.533779
	N260	N	0.466564	0.178556	0.907570
	N261	N	0.536968	0.177544	0.082928
	N262	N	0.465466	0.815943	0.082827
	N263	N	0.536799	0.813519	0.906645
	N264	N	0.466348	0.908583	0.177431
	N265	N	0.538908	0.081876	0.174365
	N266	N	0.466220	0.082343	0.817044
	N267	N	0.539817	0.912214	0.818764
	N268	N	0.917819	0.175211	0.460952
	N269	N	0.089509	0.174823	0.534623
	N270	N	0.088728	0.818757	0.461507
	N271	N	0.917459	0.820291	0.535577
	N272	N	0.182039	0.461719	0.910289
	N273	N	0.182661	0.530764	0.087823
	N274	N	0.818717	0.460392	0.087368
	N275	N	0.818901	0.530870	0.909969
	O276	O	0.657749	0.680628	0.434420
	H277	H	0.661418	0.679137	0.434338
	H278	H	0.649436	0.662053	0.459521
	O279	O	0.595346	0.549162	0.622514
	H280	H	0.594236	0.546212	0.628684
	H281	H	0.604642	0.552764	0.632177
	O282	O	0.466796	0.359144	0.569920
	H283	H	0.481213	0.364581	0.576274
	H284	H	0.475290	0.374379	0.564979
	O285	O	1.208900	0.202418	0.015388
	H286	H	1.222403	0.215758	0.029185
	H287	H	1.218111	0.189505	0.021889
	O288	O	-0.313110	0.507511	0.398851
	H289	H	-0.314576	0.512948	0.415105
	H290	H	-0.300948	0.503290	0.395770
	O291	O	0.518763	0.336444	0.367205
	H292	H	0.504446	0.336930	0.378906
	H293	H	0.515576	0.321249	0.370077
	O294	O	0.607003	0.348381	0.402810
	H295	H	0.600404	0.336114	0.408374
	H296	H	0.604095	0.345083	0.390206
	O297	O	1.134854	0.882481	0.945224
	H298	H	1.143980	0.874209	0.941877
	H299	H	1.134890	0.875375	0.931360
	O300	O	-0.105519	-0.133850	0.037827
	H301	H	-0.101850	-0.126578	0.041294
	H302	H	-0.105615	-0.148217	0.033725
	O303	O	0.464753	0.697656	0.298678
	H304	H	0.471806	0.701741	0.304305
	H305	H	0.481459	0.703980	0.294313
	O306	O	1.009911	-0.195110	0.122333
	H307	H	1.001033	-0.204881	0.134443
	H308	H	0.990368	-0.192025	0.132821
	O309	O	0.643711	0.424022	0.483285
	H310	H	0.631895	0.412299	0.477762
	H311	H	0.660020	0.430423	0.481285
	O312	O	1.001230	0.848045	0.072134
	H313	H	1.003780	0.861621	0.059327
	H314	H	0.992827	0.849331	0.076091
	O315	O	0.493296	0.563373	0.392574
	H316	H	0.483984	0.557880	0.404428
	H317	H	0.483720	0.560113	0.389622
	O318	O	0.349733	0.314218	0.555777
	H319	H	0.357238	0.315325	0.594811
	H320	H	0.320976	0.287337	0.558379
	O321	O	1.001453	0.029563	1.046778
	H322	H	0.986306	0.041372	1.055218
	H323	H	1.011563	0.029941	1.041514
	O324	O	-0.029235	-0.016077	0.838444
	H325	H	-0.034158	-0.019740	0.829445
	H326	H	-0.029782	-0.014778	0.830992
	O327	O	0.525402	0.606102	0.468464
	H328	H	0.533376	0.589375	0.475240
	H329	H	0.501607	0.611463	0.454895
	O330	O	0.495993	0.676728	0.549327
	H331	H	0.486985	0.686062	0.558808
	H332	H	0.494348	0.670126	0.544157
	O333	O	1.040023	0.881916	0.876877
	H334	H	1.047527	0.893087	0.877691
	H335	H	1.046479	0.872821	0.884386
	O336	O	0.376605	0.430800	0.585960
	H337	H	0.364970	0.424453	0.592689
	H338	H	0.376184	0.438580	0.584152
	O339	O	0.837475	0.111098	1.036638
	H340	H	0.844146	0.102395	1.035295
	H341	H	0.826224	0.120328	1.036825
	O342	O	0.043997	1.149019	1.189320
	H343	H	0.027595	1.155736	1.185824
	H344	H	0.032761	1.136906	1.191308
	O345	O	-0.034625	0.805537	0.948714
	H346	H	-0.036694	0.794345	0.955980
	H347	H	-0.020660	0.797950	0.950002
	O348	O	0.444529	0.471532	0.677475
	H349	H	0.450683	0.476168	0.688466
	H350	H	0.440771	0.495652	0.667327
	O351	O	0.181802	0.129077	0.177538
	H352	H	0.152475	0.150498	0.189354
	H353	H	0.182586	0.115493	0.165418
	O354	O	0.931266	1.127492	-0.061399
	H355	H	0.940104	1.126959	-0.060990
	H356	H	0.927128	1.113379	-0.060762
	O357	O	0.197821	0.991313	0.095723
	H358	H	0.204711	1.014607	0.072333
	H359	H	0.208360	1.002937	0.114027
	O360	O	0.509236	0.503905	0.666827
	H361	H	0.516070	0.514752	0.661567
	H362	H	0.518544	0.488282	0.654432
	O363	O	0.513115	0.627863	0.593516
	H364	H	0.511634	0.608948	0.588907
	H365	H	0.517828	0.630728	0.586889
	O366	O	0.342345	0.436246	0.544590
	H367	H	0.331468	0.433873	0.546805
	H368	H	0.353114	0.444463	0.550876
	O369	O	0.425199	0.586148	0.660959
	H370	H	0.440078	0.598716	0.663525
	H371	H	0.444009	0.588451	0.671023
	O372	O	0.489416	0.427282	0.421460
	H373	H	0.491413	0.427148	0.424873
	H374	H	0.473143	0.420994	0.438448
	O375	O	0.693748	0.355136	0.502401
	H376	H	0.694071	0.357561	0.481702
	H377	H	0.701139	0.352045	0.479661
	O378	O	0.501286	0.384822	0.483986
	H379	H	0.500397	0.369315	0.499416
	H380	H	0.485286	0.396668	0.482191
	O381	O	0.555661	0.327941	0.445028
	H382	H	0.541976	0.326463	0.453552
	H383	H	0.557953	0.334086	0.443757
	O384	O	0.041616	0.972952	1.127409
	H385	H	0.041743	0.977834	1.130244
	H386	H	0.050623	0.978677	1.140261
	O387	O	0.858304	0.841299	-0.000934
	H388	H	0.855794	0.850392	0.001926
	H389	H	0.866830	0.842442	-0.018132
	O390	O	0.602015	0.596537	0.614354
	H391	H	0.605924	0.607556	0.622143
	H392	H	0.596751	0.598012	0.615011
	O393	O	1.147261	-0.048338	0.877058
	H394	H	1.139621	-0.038995	0.866530
	H395	H	1.142370	-0.050236	0.870305
	O396	O	0.072673	0.935150	0.940662
	H397	H	0.067815	0.935423	0.935402
	H398	H	0.083685	0.936277	0.962392
	O399	O	0.346073	0.474745	0.440260
	H400	H	0.329750	0.484518	0.442022
	H401	H	0.347630	0.473538	0.439306
	O402	O	0.942652	-0.069587	1.143128
	H403	H	0.930511	-0.074062	1.167257
	H404	H	0.947288	-0.072966	1.145940
	O405	O	-0.056713	0.017305	-0.064224
	H406	H	-0.052203	0.013744	-0.062616
	H407	H	-0.046872	0.013242	-0.064159
	O408	O	0.870449	1.096185	1.107744
	H409	H	0.866606	1.076018	1.113063
	H410	H	0.867216	1.102951	1.082278
	O411	O	1.115127	1.135972	-0.056381
	H412	H	1.096930	1.133848	-0.053567
	H413	H	1.113537	1.128930	-0.056685
	O414	O	0.156221	0.024603	0.870797
	H415	H	0.162326	0.027407	0.881150
	H416	H	0.143898	0.036938	0.862937
	O417	O	0.312325	0.664527	0.309178
	H418	H	0.320550	0.665837	0.300568
	H419	H	0.326187	0.657438	0.293453
	O420	O	-0.108765	1.089899	-0.121988
	H421	H	-0.112479	1.094529	-0.128567
	H422	H	-0.109826	1.090672	-0.117342
	O423	O	0.899888	0.079727	-0.039081
	H424	H	0.906244	0.083487	-0.034033
	H425	H	0.903022	0.064424	-0.044228
	O426	O	-0.186130	0.019641	0.997231
	H427	H	-0.182039	0.031837	1.012949
	H428	H	-0.196569	-0.001879	0.996121
	O429	O	0.296539	0.655644	0.478967
	H430	H	0.281165	0.662085	0.469719
	H431	H	0.294197	0.650577	0.445855
