data_Molecule from HDF5

_cell_length_a		16.590581
_cell_length_b		16.588827
_cell_length_c		16.579883
_cell_angle_alpha	89.996063
_cell_angle_beta	90.054253
_cell_angle_gamma	89.868348
_symmetry_space_group_name_H-M	'P 1'
_symmetry_Int_Tables_number		1

loop_
	_symmetry_equiv_pos_as_xyz
	x,y,z

loop_
	_atom_site_label
	_atom_site_type_symbol
	_atom_site_fract_x
	_atom_site_fract_y
	_atom_site_fract_z
	H0	H	0.379330	0.810536	0.719283
	H1	H	0.590290	0.121242	0.718899
	H2	H	0.586470	0.807365	0.278202
	H3	H	0.381404	0.122248	0.279085
	H4	H	0.705963	0.359780	0.840331
	H5	H	0.702679	0.567713	0.153764
	H6	H	0.262923	0.568488	0.840238
	H7	H	0.265473	0.361745	0.155135
	H8	H	0.825885	0.682918	0.396229
	H9	H	0.139934	0.684312	0.602397
	H10	H	0.826047	0.243888	0.601622
	H11	H	0.140525	0.245028	0.395457
	H12	H	0.826487	0.358968	0.718803
	H13	H	0.140191	0.568101	0.718391
	H14	H	0.826213	0.567379	0.278622
	H15	H	0.141082	0.361581	0.279414
	H16	H	0.379415	0.684371	0.839369
	H17	H	0.585765	0.683594	0.154050
	H18	H	0.589771	0.243331	0.840608
	H19	H	0.383070	0.246008	0.155226
	H20	H	0.703621	0.808311	0.393691
	H21	H	0.705245	0.122122	0.602622
	H22	H	0.260873	0.810868	0.605418
	H23	H	0.264081	0.121172	0.394494
	H24	H	0.881013	0.308112	0.216199
	H25	H	0.088224	0.621402	0.217900
	H26	H	0.087329	0.306691	0.778301
	H27	H	0.879049	0.620894	0.775799
	H28	H	0.204339	0.858597	0.341060
	H29	H	0.206095	0.070418	0.650898
	H30	H	0.764578	0.066786	0.339369
	H31	H	0.762098	0.860772	0.653717
	H32	H	0.328944	0.187139	0.892941
	H33	H	0.640785	0.185428	0.103669
	H34	H	0.325338	0.746125	0.099230
	H35	H	0.638675	0.744016	0.892090
	H36	H	0.326401	0.860930	0.217627
	H37	H	0.641859	0.065649	0.215986
	H38	H	0.328598	0.071279	0.776163
	H39	H	0.638590	0.859920	0.774812
	H40	H	0.879025	0.185047	0.340265
	H41	H	0.089538	0.186566	0.650881
	H42	H	0.088761	0.742498	0.341380
	H43	H	0.879382	0.744521	0.654499
	H44	H	0.202969	0.306441	0.895369
	H45	H	0.204019	0.621575	0.101715
	H46	H	0.764145	0.308718	0.100773
	H47	H	0.763129	0.621709	0.892755
	H48	H	0.389719	0.078536	0.583871
	H49	H	0.569993	0.855533	0.584235
	H50	H	0.575587	0.078129	0.405435
	H51	H	0.397106	0.854428	0.411784
	H52	H	0.573659	0.376910	0.107592
	H53	H	0.574646	0.552797	0.884129
	H54	H	0.395031	0.556377	0.109375
	H55	H	0.394202	0.377753	0.886255
	H56	H	0.101053	0.556203	0.394876
	H57	H	0.873951	0.550698	0.582920
	H58	H	0.094243	0.378192	0.589840
	H59	H	0.870299	0.372539	0.408268
	H60	H	0.096674	0.369071	0.588674
	H61	H	0.870253	0.552282	0.591482
	H62	H	0.096242	0.565197	0.417072
	H63	H	0.871230	0.376256	0.406221
	H64	H	0.392638	0.555899	0.109515
	H65	H	0.570653	0.554581	0.884672
	H66	H	0.572406	0.375067	0.108676
	H67	H	0.396252	0.373846	0.885846
	H68	H	0.572651	0.077943	0.404448
	H69	H	0.571947	0.855477	0.583327
	H70	H	0.396843	0.078325	0.589029
	H71	H	0.386312	0.849192	0.407166
	H72	H	0.889165	0.580288	0.090554
	H73	H	0.073957	0.351252	0.092079
	H74	H	0.070051	0.574456	0.910883
	H75	H	0.898310	0.353268	0.907077
	H76	H	0.071459	0.874990	0.608033
	H77	H	0.073611	0.049813	0.384653
	H78	H	0.893411	0.053896	0.609763
	H79	H	0.893850	0.870849	0.384334
	H80	H	0.596152	0.055978	0.912909
	H81	H	0.371170	0.055924	0.088531
	H82	H	0.594206	0.879557	0.089114
	H83	H	0.371078	0.880214	0.904763
	H84	H	0.597430	0.870066	0.091011
	H85	H	0.372397	0.057142	0.085442
	H86	H	0.594243	0.047362	0.909466
	H87	H	0.370023	0.873725	0.905758
	H88	H	0.894119	0.052768	0.609113
	H89	H	0.069203	0.052724	0.385295
	H90	H	0.074003	0.874103	0.610189
	H91	H	0.890454	0.877631	0.384301
	H92	H	0.077454	0.577154	0.909876
	H93	H	0.073062	0.353558	0.086455
	H94	H	0.897697	0.576401	0.089910
	H95	H	0.895256	0.354351	0.911981
	H96	H	0.397266	0.074844	0.580651
	H97	H	0.571763	0.854565	0.585192
	H98	H	0.573645	0.077243	0.407682
	H99	H	0.396451	0.850328	0.399710
	H100	H	0.575019	0.375295	0.108999
	H101	H	0.573983	0.556919	0.884002
	H102	H	0.393777	0.554839	0.107934
	H103	H	0.391771	0.374038	0.884520
	H104	H	0.090310	0.542001	0.411678
	H105	H	0.870735	0.559039	0.584841
	H106	H	0.092991	0.374494	0.581147
	H107	H	0.869411	0.372961	0.403803
	H108	H	0.892076	0.576781	0.082334
	H109	H	0.078202	0.351701	0.087862
	H110	H	0.072196	0.577340	0.903759
	H111	H	0.892354	0.351886	0.907122
	H112	H	0.073738	0.876767	0.609679
	H113	H	0.074077	0.055014	0.383147
	H114	H	0.894617	0.053968	0.608884
	H115	H	0.897048	0.876377	0.387475
	H116	H	0.598107	0.053567	0.903999
	H117	H	0.372467	0.053529	0.086293
	H118	H	0.594437	0.872564	0.081594
	H119	H	0.372661	0.877561	0.911022
	C120	C	0.362136	-0.025526	0.617900
	C121	C	0.604063	0.957877	0.617195
	C122	C	0.605109	-0.026304	0.374942
	C123	C	0.362080	0.955546	0.375309
	C124	C	0.605893	0.343408	0.005177
	C125	C	0.604278	0.586114	0.988210
	C126	C	0.361930	0.586600	0.005084
	C127	C	0.363354	0.343824	0.989560
	C128	C	-0.008187	0.585815	0.376703
	C129	C	0.975317	0.585207	0.618613
	C130	C	-0.008847	0.342388	0.618372
	C131	C	0.974815	0.343278	0.376102
	C132	C	0.862188	0.473806	0.118687
	C133	C	0.105962	0.456134	0.119625
	C134	C	0.104975	0.472481	0.876495
	C135	C	0.863118	0.456543	0.876374
	C136	C	0.105231	0.842892	0.505975
	C137	C	0.104243	0.085228	0.487513
	C138	C	0.862020	0.085633	0.505560
	C139	C	0.862042	0.843586	0.489110
	C140	C	0.493234	0.086020	0.876206
	C141	C	0.476047	0.086035	0.118525
	C142	C	0.491307	0.843499	0.118454
	C143	C	0.474451	0.844287	0.874801
	C144	C	0.360314	0.857181	0.678883
	C145	C	0.607677	0.074724	0.678229
	C146	C	0.605743	0.854950	0.317204
	C147	C	0.361561	0.074636	0.317678
	C148	C	0.665865	0.341084	0.887319
	C149	C	0.662848	0.586503	0.106714
	C150	C	0.302885	0.587201	0.887014
	C151	C	0.305261	0.343124	0.108125
	C152	C	0.873305	0.644039	0.376473
	C153	C	0.093033	0.644331	0.620505
	C154	C	0.873139	0.283466	0.620166
	C155	C	0.093409	0.284624	0.375929
	C156	C	0.873540	0.340712	0.678679
	C157	C	0.093054	0.586621	0.678389
	C158	C	0.873416	0.586332	0.318317
	C159	C	0.093585	0.342563	0.318391
	C160	C	0.360625	0.645021	0.886607
	C161	C	0.604917	0.644244	0.106612
	C162	C	0.608188	0.283301	0.887411
	C163	C	0.363689	0.285559	0.107889
	C164	C	0.664054	0.855400	0.374432
	C165	C	0.665143	0.074855	0.620420
	C166	C	0.301812	0.857240	0.622005
	C167	C	0.303616	0.074275	0.375105
	C168	C	0.861966	0.355471	0.177081
	C169	C	0.107024	0.574445	0.178293
	C170	C	0.106137	0.353870	0.817984
	C171	C	0.860704	0.574239	0.816099
	C172	C	0.164834	0.840181	0.388093
	C173	C	0.165308	0.088356	0.604530
	C174	C	0.803609	0.086540	0.386752
	C175	C	0.802217	0.841800	0.606787
	C176	C	0.375686	0.146832	0.874220
	C177	C	0.593954	0.145055	0.121029
	C178	C	0.372713	0.785328	0.118778
	C179	C	0.591779	0.783963	0.872945
	C180	C	0.373072	0.842500	0.177358
	C181	C	0.594318	0.085808	0.177291
	C182	C	0.375440	0.089371	0.816247
	C183	C	0.591843	0.841681	0.814944
	C184	C	0.860383	0.145173	0.387161
	C185	C	0.107424	0.145945	0.604445
	C186	C	0.107298	0.782419	0.388348
	C187	C	0.860635	0.784427	0.607411
	C188	C	0.163582	0.353821	0.876183
	C189	C	0.164589	0.574291	0.120573
	C190	C	0.803999	0.355643	0.119489
	C191	C	0.803434	0.574754	0.874352
	C192	C	0.387243	0.055956	0.591960
	C193	C	0.578568	0.876178	0.591473
	C194	C	0.580982	0.056331	0.398900
	C195	C	0.386312	0.872849	0.399328
	C196	C	0.580829	0.368751	0.087046
	C197	C	0.580088	0.561646	0.905746
	C198	C	0.386655	0.562539	0.087536
	C199	C	0.387224	0.368324	0.907044
	C200	C	0.074484	0.561480	0.400877
	C201	C	0.893116	0.560834	0.593649
	C202	C	0.073260	0.366876	0.593681
	C203	C	0.891905	0.367040	0.399417
	C204	C	0.886204	0.556372	0.094441
	C205	C	0.081894	0.373703	0.095709
	C206	C	0.080154	0.554755	0.901007
	C207	C	0.888048	0.374504	0.901446
	C208	C	0.080265	0.868093	0.588030
	C209	C	0.079123	0.059783	0.405500
	C210	C	0.886751	0.060712	0.587750
	C211	C	0.886751	0.867772	0.406761
	C212	C	0.574892	0.059862	0.901587
	C213	C	0.393552	0.062277	0.093822
	C214	C	0.573810	0.867304	0.094326
	C215	C	0.392430	0.869925	0.900098
	Zn216	Zn	0.484077	-0.033572	0.746564
	Zn217	Zn	0.483277	-0.035221	0.247052
	Zn218	Zn	0.733501	0.464950	-0.003578
	Zn219	Zn	0.233883	0.464818	-0.002335
	Zn220	Zn	-0.016474	0.714944	0.497824
	Zn221	Zn	-0.017017	0.213802	0.496872
	Zn222	Zn	-0.016412	0.463636	0.747229
	Zn223	Zn	-0.015876	0.464934	0.247256
	Zn224	Zn	0.482739	0.715485	-0.003405
	Zn225	Zn	0.485371	0.214780	-0.002718
	Zn226	Zn	0.733224	-0.034661	0.497148
	Zn227	Zn	0.233475	-0.035691	0.496538
	N228	N	0.397191	0.931203	0.676625
	N229	N	0.570284	0.001090	0.676311
	N230	N	0.569984	0.929578	0.317206
	N231	N	0.397032	-0.000189	0.317455
	N232	N	0.664643	0.377609	0.961528
	N233	N	0.662755	0.551154	0.031882
	N234	N	0.303650	0.551506	0.961667
	N235	N	0.304577	0.378442	0.033252
	N236	N	0.948215	0.644047	0.411820
	N237	N	0.018660	0.643794	0.584165
	N238	N	0.947364	0.284113	0.583729
	N239	N	0.018337	0.284710	0.410812
	N240	N	0.948102	0.376671	0.677818
	N241	N	0.018742	0.550807	0.677556
	N242	N	0.948415	0.551185	0.318083
	N243	N	0.018707	0.378151	0.317976
	N244	N	0.396599	0.644824	0.961196
	N245	N	0.569232	0.644196	0.031832
	N246	N	0.571632	0.284555	0.961654
	N247	N	0.398778	0.285603	0.033048
	N248	N	0.664058	0.930481	0.409388
	N249	N	0.662857	0.001025	0.582922
	N250	N	0.302679	0.931122	0.584917
	N251	N	0.303603	-0.000919	0.409987
	N252	N	0.897233	0.430227	0.176948
	N253	N	0.071396	0.499890	0.178055
	N254	N	0.070657	0.428860	0.817691
	N255	N	0.896862	0.499682	0.817061
	N256	N	0.163964	0.876792	0.462435
	N257	N	0.163470	0.051228	0.530712
	N258	N	0.804346	0.050457	0.461284
	N259	N	0.802863	0.877664	0.532177
	N260	N	0.450107	0.145191	0.910633
	N261	N	0.519277	0.145396	0.085218
	N262	N	0.447321	0.785690	0.082965
	N263	N	0.517593	0.785347	0.909505
	N264	N	0.447822	0.877678	0.177425
	N265	N	0.519877	0.049917	0.175969
	N266	N	0.449413	0.052303	0.817336
	N267	N	0.517603	0.878302	0.816048
	N268	N	0.895726	0.145028	0.462151
	N269	N	0.070024	0.143903	0.530682
	N270	N	0.071188	0.783543	0.462816
	N271	N	0.896979	0.785120	0.532987
	N272	N	0.163291	0.428699	0.911456
	N273	N	0.164466	0.499512	0.085147
	N274	N	0.803813	0.430379	0.083920
	N275	N	0.804428	0.500360	0.910715
	O276	O	-0.047722	1.178549	-0.226368
	H277	H	-0.048937	1.190141	-0.236351
	H278	H	-0.053627	1.187267	-0.225167
	O279	O	0.457367	0.277771	0.534888
	H280	H	0.456854	0.278025	0.533186
	H281	H	0.463324	0.266202	0.522671
	O282	O	1.258836	0.432120	0.720630
	H283	H	1.244540	0.411762	0.733514
	H284	H	1.249058	0.398774	0.732123
	O285	O	0.704650	0.453653	0.497342
	H286	H	0.703385	0.455137	0.509759
	H287	H	0.701425	0.439672	0.510040
	O288	O	0.602914	0.544530	0.500830
	H289	H	0.610366	0.524483	0.511428
	H290	H	0.600177	0.533229	0.509652
	O291	O	0.434758	0.326068	0.285793
	H292	H	0.443626	0.317867	0.275068
	H293	H	0.447861	0.320893	0.287259
	O294	O	1.398231	0.555446	1.673224
	H295	H	1.405766	0.543646	1.678647
	H296	H	1.393631	0.541673	1.680432
	O297	O	0.415097	0.265565	0.466421
	H298	H	0.434560	0.274638	0.468280
	H299	H	0.420728	0.264057	0.476342
	O300	O	-0.079662	0.028300	1.191794
	H301	H	-0.061194	0.009995	1.188932
	H302	H	-0.053004	0.033833	1.198209
	O303	O	0.512761	0.677002	0.706669
	H304	H	0.500476	0.660723	0.694732
	H305	H	0.512959	0.693838	0.730101
	O306	O	0.351063	0.469118	0.433709
	H307	H	0.349323	0.466339	0.447541
	H308	H	0.360413	0.472072	0.437571
	O309	O	0.241216	0.220617	0.256886
	H310	H	0.237887	0.219282	0.271521
	H311	H	0.249325	0.223179	0.272767
	O312	O	0.387157	0.287394	0.487537
	H313	H	0.397443	0.304063	0.486844
	H314	H	0.393981	0.274125	0.470512
	O315	O	1.152274	1.138141	0.862372
	H316	H	1.167886	1.148849	0.870456
	H317	H	1.151221	1.118771	0.874874
	O318	O	-0.556062	0.588266	0.463948
	H319	H	-0.551985	0.579886	0.466794
	H320	H	-0.570441	0.602199	0.464815
	O321	O	0.789271	0.777915	0.807920
	H322	H	0.798923	0.800027	0.831314
	H323	H	0.816313	0.789393	0.823600
	O324	O	1.149174	0.835074	0.126674
	H325	H	1.140327	0.818970	0.124854
	H326	H	1.141038	0.826439	0.126285
	O327	O	0.197520	-0.247533	0.841681
	H328	H	0.205524	-0.218755	0.832938
	H329	H	0.223476	-0.269529	0.814576
	O330	O	0.192341	0.879679	-0.213807
	H331	H	0.195035	0.896007	-0.226613
	H332	H	0.173704	0.889057	-0.210767
	O333	O	0.690209	0.257051	1.289783
	H334	H	0.696179	0.236897	1.268608
	H335	H	0.694488	0.263426	1.283581
	O336	O	0.599719	0.325384	0.656543
	H337	H	0.590493	0.319246	0.655329
	H338	H	0.608034	0.327926	0.675531
	O339	O	1.017540	-0.074393	1.195556
	H340	H	1.019419	-0.084729	1.182605
	H341	H	1.020308	-0.089344	1.194122
	O342	O	0.704964	0.498459	0.716857
	H343	H	0.721344	0.522777	0.733110
	H344	H	0.715763	0.524673	0.720364
	O345	O	0.020252	0.964484	1.012443
	H346	H	0.014412	0.964579	1.015589
	H347	H	0.021805	0.966764	1.017550
	O348	O	0.515152	0.372279	0.397164
	H349	H	0.513327	0.373941	0.389960
	H350	H	0.511298	0.375168	0.392980
	O351	O	0.188326	0.760259	0.024211
	H352	H	0.199158	0.741629	0.006477
	H353	H	0.185947	0.747595	0.016854
	O354	O	0.208978	0.189452	1.033775
	H355	H	0.205530	0.192053	1.069988
	H356	H	0.235500	0.213088	1.047561
	O357	O	-0.019224	0.936178	-0.114381
	H358	H	-0.022079	0.918879	-0.116371
	H359	H	-0.000767	0.934406	-0.096960
	O360	O	0.698195	0.429448	0.281769
	H361	H	0.707075	0.411638	0.275254
	H362	H	0.710164	0.430978	0.282083
	O363	O	0.494059	0.648007	-0.553580
	H364	H	0.512023	0.649356	-0.537141
	H365	H	0.482260	0.643983	-0.540841
	O366	O	0.274251	0.442783	0.295322
	H367	H	0.266056	0.454013	0.296477
	H368	H	0.265977	0.460486	0.299798
	O369	O	0.893624	0.168394	0.080879
	H370	H	0.931235	0.172162	0.075005
	H371	H	0.893837	0.165226	0.069032
	O372	O	1.039168	0.880342	-0.014595
	H373	H	1.047956	0.865281	-0.005959
	H374	H	1.065856	0.877124	-0.009145
	O375	O	0.962039	-0.183100	-0.034034
	H376	H	0.951710	-0.167966	-0.025438
	H377	H	0.953853	-0.188179	-0.025611
	O378	O	0.697146	0.681064	0.527019
	H379	H	0.699774	0.671865	0.532616
	H380	H	0.718191	0.699214	0.540614
	O381	O	-0.211581	1.079177	1.177846
	H382	H	-0.189203	1.067134	1.177889
	H383	H	-0.199210	1.085317	1.155669
	O384	O	1.099457	0.010507	1.030685
	H385	H	1.110359	0.008379	1.044354
	H386	H	1.094000	0.001134	1.027227
	O387	O	0.446072	0.680072	0.282387
	H388	H	0.461470	0.692386	0.271277
	H389	H	0.467922	0.678259	0.290498
	O390	O	0.926048	0.857000	-0.097083
	H391	H	0.933517	0.849276	-0.087288
	H392	H	0.937074	0.854317	-0.099178
	O393	O	0.699452	0.249220	0.459246
	H394	H	0.728862	0.218761	0.456682
	H395	H	0.698102	0.262383	0.438078
	O396	O	0.012387	1.006658	0.765447
	H397	H	0.005642	1.007445	0.769430
	H398	H	0.002578	1.017035	0.770323
	O399	O	0.053080	0.167513	1.120234
	H400	H	0.058767	0.129792	1.131510
	H401	H	0.067804	0.186794	1.131422
	O402	O	0.461481	-0.430178	0.612115
	H403	H	0.452045	-0.428023	0.610037
	H404	H	0.464341	-0.431570	0.624756
	O405	O	1.811149	1.018527	0.021966
	H406	H	1.813547	1.032544	0.010024
	H407	H	1.812775	1.032493	0.018930
	O408	O	-0.226052	-0.000641	-0.206478
	H409	H	-0.219743	-0.019318	-0.195627
	H410	H	-0.221598	-0.016592	-0.215970
	O411	O	0.769753	0.882523	1.212225
	H412	H	0.746823	0.891711	1.221035
	H413	H	0.774150	0.911428	1.215442
	O414	O	0.282132	0.664294	0.294664
	H415	H	0.304384	0.645431	0.293935
	H416	H	0.306236	0.672141	0.316679
	O417	O	0.760979	1.149309	-0.025828
	H418	H	0.762921	1.141377	-0.049536
	H419	H	0.748195	1.170294	-0.033069
	O420	O	0.791733	1.159332	0.796345
	H421	H	0.783505	1.119458	0.793597
	H422	H	0.819573	1.156286	0.809570
	O423	O	-0.241169	-0.101586	0.951713
	H424	H	-0.240274	-0.120191	0.969674
	H425	H	-0.245166	-0.103123	0.969326
	O426	O	0.510652	0.369580	0.569131
	H427	H	0.542956	0.363694	0.563306
	H428	H	0.511386	0.369311	0.564025
	O429	O	1.051943	0.745993	1.044433
	H430	H	1.061188	0.743295	1.027553
	H431	H	1.044703	0.739526	1.067101
	O432	O	0.663816	0.653600	0.317965
	H433	H	0.648639	0.632411	0.334099
	H434	H	0.646047	0.636817	0.337576
	O435	O	-1.024209	0.758663	-0.818788
	H436	H	-1.057891	0.771705	-0.816654
	H437	H	-1.031741	0.731981	-0.795516
	O438	O	0.017506	-0.253809	-0.218511
	H439	H	0.044190	-0.253490	-0.220568
	H440	H	0.020253	-0.271987	-0.229904
	O441	O	0.206030	-0.048278	-0.049337
	H442	H	0.206969	-0.058601	-0.054364
	H443	H	0.207763	-0.050600	-0.047678
	O444	O	0.436213	0.467377	0.416258
	H445	H	0.419295	0.479507	0.416003
	H446	H	0.448639	0.462875	0.422454
	O447	O	0.275574	1.430015	0.566050
	H448	H	0.288976	1.426700	0.569454
	H449	H	0.272658	1.420733	0.571305
	O450	O	-0.497434	1.453341	1.469787
	H451	H	-0.485777	1.451025	1.460621
	H452	H	-0.496737	1.453251	1.474716
	O453	O	0.985716	1.151643	0.987013
	H454	H	0.994039	1.137024	0.976712
	H455	H	1.000241	1.158948	0.991367
	O456	O	0.535949	0.463865	1.570887
	H457	H	0.535008	0.456157	1.567442
	H458	H	0.554235	0.461614	1.583652
	O459	O	0.766111	0.748770	0.027012
	H460	H	0.765938	0.736439	0.052241
	H461	H	0.757190	0.729280	0.045674
	O462	O	0.266827	0.688620	0.472373
	H463	H	0.266945	0.664160	0.464921
	H464	H	0.235274	0.714677	0.469916
	O465	O	1.458101	0.258072	0.697519
	H466	H	1.456021	0.249873	0.711911
	H467	H	1.454526	0.255304	0.694411
	O468	O	0.520880	0.499013	0.289495
	H469	H	0.532436	0.478678	0.286082
	H470	H	0.504328	0.493000	0.297793
	O471	O	0.277011	0.254590	0.706916
	H472	H	0.293077	0.245032	0.701252
	H473	H	0.269992	0.239130	0.694996
	O474	O	0.688824	0.669434	0.702963
	H475	H	0.651913	0.678954	0.692921
	H476	H	0.717375	0.703351	0.731911
	O477	O	0.818251	-0.244580	2.202447
	H478	H	0.789423	-0.266425	2.235492
	H479	H	0.807404	-0.202098	2.203572
	O480	O	0.205461	0.989360	0.182765
	H481	H	0.217137	0.968968	0.172490
	H482	H	0.216386	0.970762	0.188145
	O483	O	0.016019	1.185443	0.214564
	H484	H	0.027019	1.202208	0.218800
	H485	H	0.022452	1.189642	0.220913
	O486	O	1.070926	0.095851	0.877739
	H487	H	1.067381	0.078423	0.886808
	H488	H	1.083117	0.086686	0.878295
	O489	O	1.284526	0.598323	0.629680
	H490	H	1.298470	0.572920	0.623014
	H491	H	1.297689	0.593465	0.621599
