data_Molecule from HDF5

_cell_length_a		16.488558
_cell_length_b		16.459707
_cell_length_c		16.364186
_cell_angle_alpha	89.852417
_cell_angle_beta	89.867434
_cell_angle_gamma	90.010831
_symmetry_space_group_name_H-M	'P 1'
_symmetry_Int_Tables_number		1

loop_
	_symmetry_equiv_pos_as_xyz
	x,y,z

loop_
	_atom_site_label
	_atom_site_type_symbol
	_atom_site_fract_x
	_atom_site_fract_y
	_atom_site_fract_z
	H0	H	0.396131	0.836078	0.738014
	H1	H	0.606504	0.151825	0.737139
	H2	H	0.610063	0.836338	0.292525
	H3	H	0.397676	0.152134	0.294238
	H4	H	0.726076	0.385251	0.858614
	H5	H	0.727263	0.601478	0.173551
	H6	H	0.281408	0.599042	0.857049
	H7	H	0.279408	0.385683	0.173923
	H8	H	0.843929	0.716265	0.407357
	H9	H	0.157297	0.716778	0.622090
	H10	H	0.845962	0.267023	0.625355
	H11	H	0.160242	0.269959	0.408760
	H12	H	0.843461	0.385926	0.738079
	H13	H	0.158532	0.597174	0.735842
	H14	H	0.843320	0.598115	0.293613
	H15	H	0.161107	0.388774	0.294602
	H16	H	0.399033	0.714573	0.856811
	H17	H	0.609853	0.714910	0.174700
	H18	H	0.609433	0.270576	0.857724
	H19	H	0.393541	0.270247	0.173777
	H20	H	0.727911	0.837622	0.405843
	H21	H	0.724620	0.150643	0.622891
	H22	H	0.280493	0.835517	0.621516
	H23	H	0.280334	0.151898	0.409274
	H24	H	0.893573	0.335954	0.239935
	H25	H	0.105530	0.650540	0.236094
	H26	H	0.108821	0.335091	0.792210
	H27	H	0.893834	0.649292	0.790307
	H28	H	0.223451	0.887319	0.357890
	H29	H	0.224739	0.099978	0.674519
	H30	H	0.777683	0.103090	0.359624
	H31	H	0.777956	0.885396	0.674256
	H32	H	0.344635	0.219654	0.906225
	H33	H	0.656668	0.218275	0.123329
	H34	H	0.347064	0.769481	0.122886
	H35	H	0.659921	0.770636	0.907140
	H36	H	0.346509	0.885681	0.239249
	H37	H	0.658021	0.101631	0.237975
	H38	H	0.343658	0.100948	0.792564
	H39	H	0.659290	0.887948	0.791378
	H40	H	0.896177	0.215961	0.358455
	H41	H	0.109605	0.215666	0.674693
	H42	H	0.105356	0.773750	0.356545
	H43	H	0.891503	0.768375	0.672276
	H44	H	0.225384	0.335671	0.907119
	H45	H	0.223779	0.650355	0.121362
	H46	H	0.776812	0.337156	0.124883
	H47	H	0.776717	0.649551	0.905538
	H48	H	0.411052	0.107456	0.601498
	H49	H	0.585603	0.881575	0.607081
	H50	H	0.582392	0.100499	0.433635
	H51	H	0.407895	0.879225	0.428609
	H52	H	0.594268	0.406442	0.129830
	H53	H	0.587865	0.581165	0.904634
	H54	H	0.412207	0.582148	0.130118
	H55	H	0.410500	0.410700	0.903795
	H56	H	0.113716	0.583676	0.427323
	H57	H	0.886622	0.578962	0.611225
	H58	H	0.115897	0.403004	0.607442
	H59	H	0.889842	0.401775	0.429995
	H60	H	0.113404	0.401744	0.600148
	H61	H	0.886459	0.589903	0.599749
	H62	H	0.113974	0.582042	0.426141
	H63	H	0.891876	0.405126	0.431126
	H64	H	0.413035	0.580309	0.129193
	H65	H	0.591316	0.583477	0.902270
	H66	H	0.585490	0.411895	0.125401
	H67	H	0.419967	0.406469	0.904052
	H68	H	0.597474	0.107100	0.432740
	H69	H	0.587116	0.884204	0.597499
	H70	H	0.411162	0.107353	0.605837
	H71	H	0.413520	0.880290	0.422651
	H72	H	0.915402	0.605933	0.106750
	H73	H	0.085433	0.379715	0.109686
	H74	H	0.087909	0.602720	0.928942
	H75	H	0.915202	0.382041	0.928535
	H76	H	0.096018	0.900030	0.632694
	H77	H	0.088298	0.082298	0.403277
	H78	H	0.908970	0.077971	0.629745
	H79	H	0.910421	0.907369	0.402008
	H80	H	0.610355	0.079378	0.931881
	H81	H	0.391134	0.079209	0.100666
	H82	H	0.608559	0.917543	0.096310
	H83	H	0.387607	0.897056	0.926143
	H84	H	0.620671	0.906354	0.118555
	H85	H	0.389033	0.078629	0.106680
	H86	H	0.613097	0.079506	0.922990
	H87	H	0.394076	0.904460	0.935699
	H88	H	0.917766	0.075992	0.627132
	H89	H	0.092966	0.083130	0.401782
	H90	H	0.092179	0.911335	0.628139
	H91	H	0.915027	0.909526	0.404445
	H92	H	0.096118	0.605846	0.928913
	H93	H	0.089492	0.383123	0.096755
	H94	H	0.917272	0.602860	0.101086
	H95	H	0.914392	0.381666	0.930452
	H96	H	0.414181	0.105964	0.603622
	H97	H	0.594674	0.879765	0.602671
	H98	H	0.587589	0.107273	0.419281
	H99	H	0.414978	0.882713	0.430750
	H100	H	0.584186	0.401579	0.128964
	H101	H	0.592313	0.578911	0.903170
	H102	H	0.414094	0.582104	0.129086
	H103	H	0.412100	0.401116	0.900040
	H104	H	0.114145	0.583534	0.425605
	H105	H	0.892034	0.575108	0.596966
	H106	H	0.112683	0.408889	0.603237
	H107	H	0.889965	0.404979	0.427490
	H108	H	0.911186	0.606029	0.101483
	H109	H	0.098307	0.376853	0.105637
	H110	H	0.091024	0.606121	0.921258
	H111	H	0.913798	0.380592	0.929109
	H112	H	0.083694	0.901449	0.628728
	H113	H	0.091472	0.078915	0.403932
	H114	H	0.915881	0.084724	0.630207
	H115	H	0.915683	0.904038	0.402019
	H116	H	0.614594	0.087122	0.928556
	H117	H	0.388097	0.083969	0.103446
	H118	H	0.617737	0.890812	0.095582
	H119	H	0.390541	0.910164	0.923328
	C120	C	0.379978	0.002735	0.637415
	C121	C	0.622270	0.985326	0.636351
	C122	C	0.623608	0.001892	0.394488
	C123	C	0.380362	0.985236	0.394258
	C124	C	0.622121	0.373047	0.023938
	C125	C	0.624422	0.614415	1.007690
	C126	C	0.381420	0.614307	0.024327
	C127	C	0.380351	0.372217	1.006828
	C128	C	0.009377	0.615058	0.393656
	C129	C	0.992238	0.614367	0.636080
	C130	C	0.010242	0.370839	0.637564
	C131	C	0.994769	0.371592	0.395263
	C132	C	0.880455	0.501551	0.137517
	C133	C	0.123666	0.483914	0.136674
	C134	C	0.124421	0.501015	0.893108
	C135	C	0.880490	0.484817	0.894760
	C136	C	0.122709	0.872143	0.524739
	C137	C	0.123552	0.114239	0.507962
	C138	C	0.880627	0.114230	0.525100
	C139	C	0.879600	0.872560	0.506968
	C140	C	0.509289	0.115874	0.893742
	C141	C	0.492736	0.114582	0.136482
	C142	C	0.512173	0.871264	0.137511
	C143	C	0.494063	0.871549	0.893969
	C144	C	0.377673	0.883535	0.698329
	C145	C	0.624943	0.104421	0.697013
	C146	C	0.627868	0.883747	0.332666
	C147	C	0.379124	0.104373	0.334201
	C148	C	0.684889	0.368555	0.905722
	C149	C	0.686223	0.618496	0.126305
	C150	C	0.321795	0.617186	0.904653
	C151	C	0.319092	0.367977	0.125888
	C152	C	0.891232	0.675698	0.390009
	C153	C	0.110419	0.675544	0.639303
	C154	C	0.892486	0.308695	0.641884
	C155	C	0.113014	0.310613	0.391233
	C156	C	0.891407	0.367662	0.698428
	C157	C	0.111146	0.616030	0.696048
	C158	C	0.890822	0.616686	0.333333
	C159	C	0.113146	0.369642	0.334085
	C160	C	0.380112	0.674622	0.904500
	C161	C	0.627894	0.675229	0.126798
	C162	C	0.626615	0.311199	0.905438
	C163	C	0.376070	0.310359	0.125860
	C164	C	0.686402	0.884526	0.389511
	C165	C	0.683581	0.103775	0.639927
	C166	C	0.320285	0.883307	0.640167
	C167	C	0.320538	0.104278	0.391635
	C168	C	0.876202	0.383268	0.199384
	C169	C	0.125098	0.602967	0.196605
	C170	C	0.127059	0.382748	0.832078
	C171	C	0.875991	0.602365	0.831377
	C172	C	0.183348	0.869489	0.405265
	C173	C	0.184436	0.117528	0.627094
	C174	C	0.818745	0.119670	0.406623
	C175	C	0.817825	0.867980	0.626073
	C176	C	0.391895	0.178576	0.888873
	C177	C	0.610131	0.176934	0.140446
	C178	C	0.394105	0.809836	0.141176
	C179	C	0.612498	0.810797	0.889530
	C180	C	0.393926	0.867861	0.198883
	C181	C	0.610638	0.119130	0.197870
	C182	C	0.391033	0.119084	0.832531
	C183	C	0.612169	0.869331	0.831884
	C184	C	0.877754	0.175891	0.406302
	C185	C	0.127058	0.175123	0.627072
	C186	C	0.124736	0.812747	0.404781
	C187	C	0.874942	0.810014	0.625516
	C188	C	0.185382	0.382954	0.889485
	C189	C	0.184117	0.602842	0.139682
	C190	C	0.818271	0.383724	0.141878
	C191	C	0.817735	0.602432	0.888857
	C192	C	0.404934	0.085191	0.611422
	C193	C	0.596452	0.903231	0.610077
	C194	C	0.596730	0.083704	0.421007
	C195	C	0.405114	0.902342	0.419933
	C196	C	0.595387	0.399319	0.106627
	C197	C	0.598128	0.588489	0.924964
	C198	C	0.405956	0.588942	0.107388
	C199	C	0.406646	0.398448	0.923978
	C200	C	0.092347	0.590183	0.419080
	C201	C	0.909960	0.588694	0.610177
	C202	C	0.092516	0.396921	0.611305
	C203	C	0.912216	0.396700	0.421897
	C204	C	0.906950	0.583513	0.110575
	C205	C	0.098433	0.401448	0.111151
	C206	C	0.098911	0.583471	0.918940
	C207	C	0.906966	0.402846	0.921796
	C208	C	0.097747	0.897090	0.607979
	C209	C	0.098059	0.088944	0.424965
	C210	C	0.906864	0.087160	0.607624
	C211	C	0.906105	0.899257	0.424580
	C212	C	0.591251	0.089401	0.920012
	C213	C	0.410748	0.088246	0.110711
	C214	C	0.594331	0.897346	0.111030
	C215	C	0.412150	0.896815	0.920494
	Zn216	Zn	0.501553	-0.006075	0.765113
	Zn217	Zn	0.502791	-0.006531	0.265415
	Zn218	Zn	0.751768	0.493345	0.016050
	Zn219	Zn	0.252594	0.492822	0.015518
	Zn220	Zn	0.000466	0.744330	0.514667
	Zn221	Zn	0.002664	0.241949	0.516459
	Zn222	Zn	0.001306	0.492352	0.765688
	Zn223	Zn	0.001660	0.492754	0.265705
	Zn224	Zn	0.503530	0.742619	0.016145
	Zn225	Zn	0.501009	0.244168	0.015758
	Zn226	Zn	0.751981	-0.006460	0.516083
	Zn227	Zn	0.251236	-0.006531	0.516217
	N228	N	0.413704	0.958697	0.696763
	N229	N	0.587435	0.029877	0.694759
	N230	N	0.589304	0.957757	0.335676
	N231	N	0.415377	0.029272	0.335668
	N232	N	0.682288	0.406275	0.980513
	N233	N	0.684436	0.581700	0.051123
	N234	N	0.322343	0.580327	0.979993
	N235	N	0.321420	0.405426	0.050735
	N236	N	0.966072	0.674778	0.426743
	N237	N	0.035406	0.674729	0.603065
	N238	N	0.967485	0.310330	0.604948
	N239	N	0.038152	0.311552	0.428477
	N240	N	0.965537	0.405677	0.695741
	N241	N	0.036554	0.578774	0.694303
	N242	N	0.965514	0.579656	0.335432
	N243	N	0.038478	0.406723	0.336692
	N244	N	0.416475	0.672977	0.979848
	N245	N	0.590294	0.672918	0.051827
	N246	N	0.588049	0.314130	0.979891
	N247	N	0.413686	0.313077	0.050764
	N248	N	0.683922	0.959000	0.427131
	N249	N	0.682085	0.028831	0.603148
	N250	N	0.321492	0.958240	0.602844
	N251	N	0.320942	0.028905	0.428161
	N252	N	0.914046	0.457473	0.196599
	N253	N	0.088426	0.528159	0.195111
	N254	N	0.089799	0.457312	0.834070
	N255	N	0.914211	0.528330	0.835007
	N256	N	0.182612	0.905434	0.480942
	N257	N	0.182385	0.080379	0.551976
	N258	N	0.820375	0.082170	0.481756
	N259	N	0.820566	0.906053	0.551327
	N260	N	0.466421	0.176831	0.926061
	N261	N	0.535796	0.174298	0.102879
	N262	N	0.468722	0.811745	0.103989
	N263	N	0.538148	0.811931	0.927396
	N264	N	0.468439	0.905202	0.196950
	N265	N	0.536721	0.080861	0.195483
	N266	N	0.465131	0.080815	0.835327
	N267	N	0.537332	0.906176	0.834241
	N268	N	0.915368	0.172732	0.481105
	N269	N	0.089933	0.173207	0.551948
	N270	N	0.088038	0.813948	0.480242
	N271	N	0.912564	0.812570	0.550563
	N272	N	0.183773	0.457653	0.926783
	N273	N	0.183179	0.527794	0.103054
	N274	N	0.820702	0.458332	0.104119
	N275	N	0.820604	0.528362	0.927737
	O276	O	-0.202859	-0.202578	0.021502
	H277	H	-0.172459	-0.204926	-0.007353
	H278	H	-0.226095	-0.228887	0.018446
	O279	O	1.075343	0.120100	0.971686
	H280	H	1.060313	0.116065	0.985284
	H281	H	1.073899	0.105935	0.954303
	O282	O	0.302473	0.514473	0.317252
	H283	H	0.304605	0.500759	0.305376
	H284	H	0.302919	0.501455	0.320983
	O285	O	0.703707	0.468100	0.307307
	H286	H	0.708352	0.488513	0.318570
	H287	H	0.723471	0.484119	0.306010
	O288	O	1.191352	0.798687	-0.178237
	H289	H	1.183786	0.819477	-0.175293
	H290	H	1.212872	0.777098	-0.168657
	O291	O	-0.010009	0.175134	0.011238
	H292	H	-0.028793	0.181161	0.000523
	H293	H	-0.018087	0.166870	0.024652
	O294	O	0.096714	-0.062351	1.131796
	H295	H	0.107648	-0.064891	1.140625
	H296	H	0.107161	-0.068942	1.130754
	O297	O	0.539798	1.384450	-0.343486
	H298	H	0.560053	1.398539	-0.346289
	H299	H	0.511833	1.404067	-0.338968
	O300	O	0.457624	0.407482	0.560389
	H301	H	0.456671	0.390781	0.559712
	H302	H	0.456758	0.407124	0.571937
	O303	O	0.463338	0.610079	0.515978
	H304	H	0.472179	0.602802	0.507302
	H305	H	0.462118	0.608457	0.500805
	O306	O	0.711603	0.706686	0.535123
	H307	H	0.702442	0.701097	0.574437
	H308	H	0.740037	0.733142	0.552673
	O309	O	0.503371	0.705817	0.398635
	H310	H	0.498956	0.721580	0.394221
	H311	H	0.490958	0.706654	0.395082
	O312	O	-0.166350	1.043728	1.031980
	H313	H	-0.153835	1.038797	1.040538
	H314	H	-0.176638	1.056079	1.028800
	O315	O	0.397070	0.660651	0.614112
	H316	H	0.402833	0.664467	0.593274
	H317	H	0.406266	0.638834	0.596976
	O318	O	0.526513	0.702616	0.720599
	H319	H	0.516962	0.710241	0.739326
	H320	H	0.506244	0.718818	0.695311
	O321	O	0.216333	-0.035326	-0.194742
	H322	H	0.228359	-0.030611	-0.185188
	H323	H	0.238200	-0.051705	-0.207860
	O324	O	0.369963	0.564866	0.327182
	H325	H	0.404340	0.555289	0.318462
	H326	H	0.387374	0.551716	0.324060
	O327	O	0.283819	0.709861	0.491931
	H328	H	0.255637	0.736084	0.484217
	H329	H	0.290368	0.705159	0.442953
	O330	O	-0.008175	0.832884	0.047106
	H331	H	-0.006626	0.847116	0.033022
	H332	H	-0.004786	0.828418	0.038620
	O333	O	0.919361	-0.020933	1.004369
	H334	H	0.918661	-0.022881	1.021343
	H335	H	0.919806	-0.029061	1.019581
	O336	O	-0.188841	-0.038178	0.192670
	H337	H	-0.183240	-0.020502	0.181518
	H338	H	-0.202359	-0.032678	0.199976
	O339	O	-0.036099	0.951108	0.810741
	H340	H	-0.023944	0.953717	0.818132
	H341	H	-0.011557	0.948825	0.806560
	O342	O	0.554116	0.599861	1.462684
	H343	H	0.559869	0.585765	1.480394
	H344	H	0.559855	0.593212	1.446486
	O345	O	0.817831	1.180124	-0.162359
	H346	H	0.803942	1.142752	-0.176637
	H347	H	0.833236	1.178800	-0.153282
	O348	O	0.463788	0.543938	0.725179
	H349	H	0.446730	0.537110	0.717518
	H350	H	0.468944	0.572655	0.725270
	O351	O	0.161511	0.783313	1.005773
	H352	H	0.167115	0.804109	1.033319
	H353	H	0.179844	0.763704	1.013320
	O354	O	-0.187996	0.844111	0.211521
	H355	H	-0.202898	0.848668	0.194070
	H356	H	-0.195174	0.859686	0.201155
	O357	O	-0.053989	0.054972	1.173997
	H358	H	-0.071123	0.056427	1.172400
	H359	H	-0.032617	0.030121	1.171258
	O360	O	0.522910	0.386335	0.541599
	H361	H	0.532274	0.375992	0.552451
	H362	H	0.517198	0.393786	0.542411
	O363	O	0.031763	-0.070201	1.170314
	H364	H	0.037286	-0.076403	1.162566
	H365	H	0.027834	-0.078025	1.179426
	O366	O	0.939007	0.910332	-0.049920
	H367	H	0.940670	0.905620	-0.037440
	H368	H	0.949871	0.919345	-0.082669
	O369	O	0.699750	0.548388	0.461754
	H370	H	0.701656	0.585099	0.480341
	H371	H	0.700968	0.528747	0.493641
	O372	O	0.371609	0.281062	0.447526
	H373	H	0.375746	0.280677	0.481462
	H374	H	0.348137	0.251635	0.458368
	O375	O	0.705010	0.508120	0.725149
	H376	H	0.717171	0.497946	0.748175
	H377	H	0.714968	0.487490	0.702544
	O378	O	0.469424	0.290534	0.458552
	H379	H	0.441668	0.284585	0.466221
	H380	H	0.459265	0.287632	0.471973
	O381	O	1.683461	0.306242	0.330581
	H382	H	1.670028	0.330308	0.325010
	H383	H	1.661370	0.328922	0.324439
	O384	O	0.686144	0.671032	0.694772
	H385	H	0.680730	0.637592	0.710014
	H386	H	0.651023	0.661769	0.704940
	O387	O	0.054082	-0.008976	0.991087
	H388	H	0.062021	0.005334	1.002096
	H389	H	0.050904	-0.025995	0.991904
	O390	O	-0.677261	-0.675748	-0.305878
	H391	H	-0.691566	-0.641911	-0.294390
	H392	H	-0.644089	-0.665417	-0.301601
	O393	O	1.224783	0.942280	0.985223
	H394	H	1.232911	0.954564	0.991226
	H395	H	1.218170	0.949683	0.986426
	O396	O	1.191414	0.174612	0.196370
	H397	H	1.148382	0.186813	0.194157
	H398	H	1.192083	0.187383	0.156672
	O399	O	0.994162	0.196731	1.214433
	H400	H	0.970186	0.181335	1.209571
	H401	H	0.987572	0.218846	1.230157
	O402	O	1.024186	0.785851	0.799305
	H403	H	1.033207	0.783901	0.786791
	H404	H	1.040344	0.782255	0.787979
	O405	O	0.978832	1.209931	-0.192925
	H406	H	0.957041	1.205762	-0.202639
	H407	H	0.988070	1.215597	-0.217159
	O408	O	0.793857	0.200993	0.004794
	H409	H	0.792038	0.195378	-0.006612
	H410	H	0.789024	0.207322	-0.007657
	O411	O	0.408350	1.702587	0.329987
	H412	H	0.396743	1.730614	0.299592
	H413	H	0.421116	1.673494	0.330287
	O414	O	0.479791	0.280331	0.654259
	H415	H	0.480141	0.283357	0.677078
	H416	H	0.481122	0.284780	0.670578
	O417	O	0.303044	0.484502	0.710735
	H418	H	0.289617	0.486606	0.729460
	H419	H	0.300120	0.504499	0.668034
	O420	O	0.029795	0.009823	-0.198520
	H421	H	0.026656	0.011610	-0.195003
	H422	H	0.055902	0.004551	-0.193347
	O423	O	-0.206756	1.018942	-0.193190
	H424	H	-0.206268	1.001928	-0.195661
	H425	H	-0.210139	1.000550	-0.201125
	O426	O	0.905640	0.089565	0.112213
	H427	H	0.901046	0.080176	0.107881
	H428	H	0.904237	0.107845	0.099893
	O429	O	0.961896	0.784895	0.222253
	H430	H	0.932634	0.775704	0.220484
	H431	H	0.955445	0.784630	0.228434
	O432	O	0.534616	0.531513	0.309775
	H433	H	0.534082	0.552299	0.306642
	H434	H	0.554192	0.522084	0.316388
	O435	O	0.287563	0.547506	0.556482
	H436	H	0.281324	0.539731	0.526216
	H437	H	0.299405	0.574834	0.539521
	O438	O	0.382739	0.381786	-0.577620
	H439	H	0.363934	0.377555	-0.579537
	H440	H	0.400812	0.393755	-0.577117
	O441	O	1.209950	-0.131655	0.138658
	H442	H	1.192347	-0.114662	0.132292
	H443	H	1.206640	-0.117818	0.141068
	O444	O	0.222305	1.018031	1.235005
	H445	H	0.258615	1.021958	1.272522
	H446	H	0.212176	1.070202	1.222253
	O447	O	0.719668	0.277105	0.492397
	H448	H	0.718235	0.264912	0.466870
	H449	H	0.735453	0.259095	0.468515
	O450	O	0.208202	1.196907	1.033510
	H451	H	0.184547	1.190152	1.012980
	H452	H	0.216700	1.228510	1.032696
	O453	O	0.700907	0.434169	0.568477
	H454	H	0.713805	0.396948	0.554090
	H455	H	0.671901	0.431055	0.563362
