data_Molecule from HDF5

_cell_length_a		16.380589
_cell_length_b		16.259265
_cell_length_c		16.139022
_cell_angle_alpha	90.036391
_cell_angle_beta	89.855057
_cell_angle_gamma	90.223293
_symmetry_space_group_name_H-M	'P 1'
_symmetry_Int_Tables_number		1

loop_
	_symmetry_equiv_pos_as_xyz
	x,y,z

loop_
	_atom_site_label
	_atom_site_type_symbol
	_atom_site_fract_x
	_atom_site_fract_y
	_atom_site_fract_z
	H0	H	0.409064	0.844508	0.714188
	H1	H	0.602023	0.174664	0.713931
	H2	H	0.602548	0.844959	0.287779
	H3	H	0.410752	0.174275	0.289123
	H4	H	0.720045	0.410146	0.838297
	H5	H	0.719316	0.608351	0.168255
	H6	H	0.289897	0.609777	0.839217
	H7	H	0.289451	0.407636	0.166530
	H8	H	0.842946	0.724752	0.404665
	H9	H	0.168359	0.726534	0.602306
	H10	H	0.844423	0.292544	0.603961
	H11	H	0.168822	0.295383	0.403070
	H12	H	0.843052	0.411459	0.717288
	H13	H	0.169153	0.608426	0.717560
	H14	H	0.841858	0.606262	0.290591
	H15	H	0.170191	0.415467	0.290661
	H16	H	0.410051	0.720297	0.836769
	H17	H	0.603880	0.724133	0.168016
	H18	H	0.602376	0.297964	0.836522
	H19	H	0.406011	0.294189	0.166660
	H20	H	0.721739	0.845827	0.400347
	H21	H	0.722209	0.172228	0.603214
	H22	H	0.288382	0.846520	0.602917
	H23	H	0.290302	0.172835	0.400178
	H24	H	0.909928	0.343840	0.215482
	H25	H	0.101955	0.674553	0.214122
	H26	H	0.103238	0.345301	0.788763
	H27	H	0.910916	0.673965	0.790896
	H28	H	0.219349	0.911075	0.337470
	H29	H	0.221847	0.111249	0.665785
	H30	H	0.792546	0.109528	0.337872
	H31	H	0.790397	0.910426	0.666622
	H32	H	0.342160	0.223734	0.903581
	H33	H	0.668006	0.226380	0.101334
	H34	H	0.343340	0.791884	0.102780
	H35	H	0.668241	0.794448	0.901790
	H36	H	0.342695	0.910083	0.217977
	H37	H	0.669330	0.107525	0.215328
	H38	H	0.341988	0.105134	0.788529
	H39	H	0.669271	0.913500	0.787395
	H40	H	0.910573	0.221887	0.337234
	H41	H	0.102468	0.221552	0.668528
	H42	H	0.102522	0.797489	0.337401
	H43	H	0.908203	0.798189	0.668108
	H44	H	0.221516	0.346505	0.902203
	H45	H	0.223253	0.671673	0.103621
	H46	H	0.789827	0.344868	0.103011
	H47	H	0.791170	0.672724	0.903107
	H48	H	0.408455	0.127695	0.594326
	H49	H	0.593730	0.894681	0.594679
	H50	H	0.604010	0.127705	0.406695
	H51	H	0.411386	0.894192	0.414370
	H52	H	0.606706	0.421901	0.121197
	H53	H	0.599597	0.605177	0.883670
	H54	H	0.412274	0.600568	0.120538
	H55	H	0.408282	0.409109	0.881344
	H56	H	0.123519	0.608119	0.405799
	H57	H	0.892602	0.598466	0.591736
	H58	H	0.120051	0.421344	0.593940
	H59	H	0.890326	0.414801	0.410682
	H60	H	0.124186	0.414930	0.600743
	H61	H	0.889072	0.601606	0.605110
	H62	H	0.121198	0.606561	0.413676
	H63	H	0.890520	0.415586	0.410725
	H64	H	0.414571	0.598354	0.118674
	H65	H	0.604619	0.599997	0.885236
	H66	H	0.590149	0.422088	0.116270
	H67	H	0.406823	0.425954	0.885944
	H68	H	0.596032	0.124516	0.408123
	H69	H	0.601112	0.893356	0.587374
	H70	H	0.415388	0.125968	0.597593
	H71	H	0.408523	0.891791	0.408712
	H72	H	0.909703	0.627680	0.102512
	H73	H	0.084083	0.399004	0.086838
	H74	H	0.096783	0.627175	0.902825
	H75	H	0.913103	0.392503	0.910091
	H76	H	0.102129	0.907634	0.624935
	H77	H	0.103275	0.101496	0.383589
	H78	H	0.905932	0.102577	0.622562
	H79	H	0.919406	0.924232	0.389229
	H80	H	0.621217	0.105034	0.908658
	H81	H	0.384674	0.115869	0.098923
	H82	H	0.625643	0.921275	0.113506
	H83	H	0.388507	0.917202	0.903683
	H84	H	0.624485	0.897758	0.085876
	H85	H	0.395039	0.100426	0.080667
	H86	H	0.621886	0.104439	0.907642
	H87	H	0.388545	0.909571	0.909408
	H88	H	0.914502	0.095454	0.617833
	H89	H	0.096336	0.100866	0.385345
	H90	H	0.106651	0.928002	0.620223
	H91	H	0.916343	0.907784	0.382973
	H92	H	0.093523	0.622071	0.918355
	H93	H	0.114790	0.390343	0.086319
	H94	H	0.917398	0.623543	0.094318
	H95	H	0.911627	0.393224	0.913352
	H96	H	0.414193	0.124460	0.589490
	H97	H	0.603098	0.890639	0.598026
	H98	H	0.601385	0.124684	0.414453
	H99	H	0.415024	0.893731	0.408238
	H100	H	0.596736	0.408059	0.123016
	H101	H	0.597724	0.598933	0.887157
	H102	H	0.415327	0.601733	0.119636
	H103	H	0.421570	0.417609	0.887467
	H104	H	0.120418	0.599956	0.408003
	H105	H	0.888319	0.611509	0.594740
	H106	H	0.123011	0.412299	0.591977
	H107	H	0.889697	0.416037	0.410045
	H108	H	0.906017	0.625775	0.091702
	H109	H	0.097639	0.387482	0.113645
	H110	H	0.108102	0.627654	0.914179
	H111	H	0.909235	0.392143	0.910424
	H112	H	0.086660	0.920085	0.615535
	H113	H	0.098626	0.107090	0.384036
	H114	H	0.917388	0.107207	0.619968
	H115	H	0.903687	0.919625	0.382595
	H116	H	0.621731	0.105925	0.907641
	H117	H	0.390543	0.091530	0.104285
	H118	H	0.612878	0.931249	0.081056
	H119	H	0.392081	0.917484	0.912666
	C120	C	0.383614	0.017835	0.623410
	C121	C	0.627239	1.001089	0.622811
	C122	C	0.628429	0.017652	0.379978
	C123	C	0.384206	1.001491	0.380907
	C124	C	0.626572	0.388800	0.011292
	C125	C	0.628149	0.630827	0.994528
	C126	C	0.385344	0.629417	0.011171
	C127	C	0.383646	0.387916	0.993541
	C128	C	0.014021	0.632283	0.381046
	C129	C	0.997695	0.632319	0.625512
	C130	C	0.014842	0.387489	0.624764
	C131	C	0.997658	0.387869	0.381487
	C132	C	0.883122	0.517300	0.125299
	C133	C	0.127429	0.500613	0.124114
	C134	C	0.128208	0.517729	0.881977
	C135	C	0.883816	0.500932	0.881962
	C136	C	0.126617	0.889759	0.511021
	C137	C	0.127572	0.131761	0.493391
	C138	C	0.884898	0.130721	0.511022
	C139	C	0.884374	0.888683	0.493769
	C140	C	0.513855	0.132527	0.879649
	C141	C	0.497702	0.131661	0.123498
	C142	C	0.513678	0.887270	0.123477
	C143	C	0.497489	0.887217	0.879501
	C144	C	0.387248	0.894078	0.677501
	C145	C	0.623387	0.125100	0.677175
	C146	C	0.624479	0.894213	0.324762
	C147	C	0.388380	0.124928	0.325717
	C148	C	0.681759	0.390535	0.887201
	C149	C	0.682125	0.628813	0.118869
	C150	C	0.329035	0.628562	0.887715
	C151	C	0.327837	0.388301	0.117512
	C152	C	0.891278	0.686627	0.384318
	C153	C	0.120103	0.688012	0.622685
	C154	C	0.892570	0.331487	0.623335
	C155	C	0.120404	0.333507	0.383035
	C156	C	0.891989	0.390563	0.679897
	C157	C	0.120500	0.629124	0.679754
	C158	C	0.890991	0.628085	0.327161
	C159	C	0.120964	0.392936	0.326995
	C160	C	0.388516	0.683750	0.886428
	C161	C	0.624672	0.686269	0.118633
	C162	C	0.623104	0.335041	0.886360
	C163	C	0.386132	0.332389	0.117698
	C164	C	0.683672	0.894623	0.380895
	C165	C	0.682971	0.124155	0.621701
	C166	C	0.327343	0.895104	0.622123
	C167	C	0.329137	0.124470	0.381669
	C168	C	0.887644	0.393165	0.178955
	C169	C	0.123654	0.624989	0.177919
	C170	C	0.124598	0.394332	0.826398
	C171	C	0.889095	0.624649	0.827840
	C172	C	0.181648	0.891276	0.386891
	C173	C	0.182666	0.129989	0.617439
	C174	C	0.830458	0.129212	0.386963
	C175	C	0.828527	0.890483	0.617579
	C176	C	0.390772	0.186019	0.882987
	C177	C	0.619751	0.187590	0.121250
	C178	C	0.391609	0.830687	0.122638
	C179	C	0.619913	0.832508	0.881423
	C180	C	0.391187	0.889679	0.179556
	C181	C	0.620295	0.128792	0.178287
	C182	C	0.390698	0.127353	0.825657
	C183	C	0.620390	0.891720	0.824916
	C184	C	0.889145	0.185114	0.386678
	C185	C	0.124275	0.185698	0.618414
	C186	C	0.123583	0.834927	0.386754
	C187	C	0.886931	0.834404	0.618222
	C188	C	0.183241	0.394928	0.882865
	C189	C	0.184126	0.623435	0.123236
	C190	C	0.827928	0.393777	0.123210
	C191	C	0.829566	0.623991	0.883758
	C192	C	0.405979	0.103830	0.600457
	C193	C	0.605704	0.915044	0.600110
	C194	C	0.606768	0.103496	0.403068
	C195	C	0.405450	0.915490	0.403622
	C196	C	0.604384	0.410821	0.098021
	C197	C	0.606741	0.608206	0.907682
	C198	C	0.407544	0.606901	0.097410
	C199	C	0.405754	0.410854	0.907277
	C200	C	0.099712	0.611131	0.402743
	C201	C	0.911987	0.610492	0.603634
	C202	C	0.100291	0.409705	0.602302
	C203	C	0.912198	0.408996	0.403881
	C204	C	0.904773	0.603475	0.102868
	C205	C	0.105306	0.414423	0.101923
	C206	C	0.106053	0.603430	0.905063
	C207	C	0.905055	0.414692	0.904514
	C208	C	0.104724	0.911875	0.597738
	C209	C	0.105919	0.109712	0.406806
	C210	C	0.906221	0.108283	0.597845
	C211	C	0.906556	0.910751	0.407066
	C212	C	0.599553	0.111170	0.901457
	C213	C	0.411995	0.109126	0.101297
	C214	C	0.599113	0.910117	0.100153
	C215	C	0.411805	0.908476	0.902005
	Zn216	Zn	0.505681	0.009521	0.751160
	Zn217	Zn	0.505840	0.009368	0.252328
	Zn218	Zn	0.755073	0.508728	0.003436
	Zn219	Zn	0.256308	0.509035	0.003356
	Zn220	Zn	0.005855	0.761100	0.503030
	Zn221	Zn	0.006424	0.258827	0.503022
	Zn222	Zn	0.006503	0.509397	0.753992
	Zn223	Zn	0.005617	0.509741	0.252545
	Zn224	Zn	0.505902	0.758479	0.001678
	Zn225	Zn	0.505369	0.261504	0.001821
	Zn226	Zn	0.756684	0.009367	0.501610
	Zn227	Zn	0.254726	0.010282	0.501803
	N228	N	0.421470	0.971383	0.678353
	N229	N	0.589385	0.047633	0.677935
	N230	N	0.590888	0.971654	0.324107
	N231	N	0.422054	0.047623	0.325380
	N232	N	0.684128	0.423286	0.965811
	N233	N	0.684435	0.595178	0.040677
	N234	N	0.327063	0.595534	0.966259
	N235	N	0.326384	0.422362	0.039579
	N236	N	0.968966	0.689648	0.416844
	N237	N	0.042773	0.690016	0.589534
	N238	N	0.969781	0.329720	0.589708
	N239	N	0.043018	0.330347	0.416299
	N240	N	0.969070	0.424797	0.680805
	N241	N	0.043445	0.595324	0.681557
	N242	N	0.968082	0.594897	0.325289
	N243	N	0.043726	0.426150	0.325900
	N244	N	0.423030	0.684293	0.963977
	N245	N	0.591827	0.687589	0.040165
	N246	N	0.589539	0.333896	0.964499
	N247	N	0.420045	0.331958	0.039541
	N248	N	0.686295	0.972454	0.414367
	N249	N	0.685406	0.046168	0.588431
	N250	N	0.324879	0.973193	0.589257
	N251	N	0.326379	0.046645	0.415310
	N252	N	0.921055	0.470849	0.180305
	N253	N	0.089120	0.547686	0.178553
	N254	N	0.090994	0.471793	0.825761
	N255	N	0.922193	0.547125	0.826675
	N256	N	0.183442	0.924738	0.465131
	N257	N	0.185099	0.097264	0.538807
	N258	N	0.827787	0.096118	0.465247
	N259	N	0.827249	0.923842	0.539300
	N260	N	0.468278	0.189300	0.915667
	N261	N	0.542433	0.189365	0.087989
	N262	N	0.468769	0.829205	0.088644
	N263	N	0.542467	0.829552	0.914630
	N264	N	0.468088	0.924187	0.180130
	N265	N	0.543317	0.094551	0.179598
	N266	N	0.468131	0.094908	0.823316
	N267	N	0.543310	0.925113	0.823899
	N268	N	0.922190	0.186264	0.464946
	N269	N	0.090651	0.186726	0.540313
	N270	N	0.089848	0.834047	0.464981
	N271	N	0.920984	0.833160	0.540287
	N272	N	0.185463	0.472636	0.916564
	N273	N	0.186400	0.545246	0.090613
	N274	N	0.824972	0.472088	0.090717
	N275	N	0.826374	0.545951	0.916740
	O276	O	0.533542	0.464031	0.477259
	H277	H	0.531974	0.455659	0.469121
	H278	H	0.523221	0.471155	0.484573
	O279	O	-0.040577	-0.076556	0.030018
	H280	H	-0.036177	-0.086266	0.036810
	H281	H	-0.050354	-0.079275	0.036768
	O282	O	0.563087	0.466796	0.435165
	H283	H	0.571102	0.452953	0.429902
	H284	H	0.555227	0.463062	0.435669
	O285	O	0.516368	0.406990	0.516019
	H286	H	0.516764	0.401816	0.524772
	H287	H	0.523107	0.409371	0.514397
	O288	O	0.952712	-0.043330	0.032676
	H289	H	0.944700	-0.048761	0.030688
	H290	H	0.948889	-0.045096	0.040849
	O291	O	-0.518969	0.489553	-0.484042
	H292	H	-0.512510	0.488875	-0.482772
	H293	H	-0.510013	0.495988	-0.479121
	O294	O	0.537906	0.457983	0.539161
	H295	H	0.544849	0.462487	0.524396
	H296	H	0.543513	0.461564	0.534834
	O297	O	-0.041273	0.984598	0.041939
	H298	H	-0.037037	0.980766	0.039233
	H299	H	-0.040438	0.984029	0.041552
	O300	O	0.987661	-0.090726	1.029818
	H301	H	0.996864	-0.085199	1.019710
	H302	H	0.988300	-0.094630	1.032393
	O303	O	0.464195	0.476106	0.490825
	H304	H	0.451678	0.463893	0.494755
	H305	H	0.471360	0.479865	0.493659
	O306	O	0.004968	0.945800	1.010083
	H307	H	0.004920	0.945420	1.011235
	H308	H	-0.003437	0.948269	1.003506
	O309	O	0.516563	0.435887	0.462476
	H310	H	0.514395	0.435642	0.456631
	H311	H	0.511693	0.436830	0.466349
