data_Molecule from HDF5

_cell_length_a		16.325783
_cell_length_b		16.203225
_cell_length_c		16.148051
_cell_angle_alpha	90.109862
_cell_angle_beta	89.996208
_cell_angle_gamma	89.998295
_symmetry_space_group_name_H-M	'P 1'
_symmetry_Int_Tables_number		1

loop_
	_symmetry_equiv_pos_as_xyz
	x,y,z

loop_
	_atom_site_label
	_atom_site_type_symbol
	_atom_site_fract_x
	_atom_site_fract_y
	_atom_site_fract_z
	H0	H	0.405016	0.826646	0.706534
	H1	H	0.599521	0.156977	0.706822
	H2	H	0.599230	0.827279	0.279516
	H3	H	0.403633	0.157364	0.280402
	H4	H	0.717233	0.392627	0.829752
	H5	H	0.717713	0.593659	0.158374
	H6	H	0.287045	0.591904	0.829497
	H7	H	0.285794	0.391248	0.157565
	H8	H	0.839322	0.706961	0.394937
	H9	H	0.166117	0.707211	0.593722
	H10	H	0.839106	0.276516	0.592510
	H11	H	0.165813	0.275992	0.394184
	H12	H	0.838684	0.393887	0.707345
	H13	H	0.166050	0.591537	0.709519
	H14	H	0.837899	0.588519	0.280632
	H15	H	0.165540	0.392011	0.277804
	H16	H	0.404217	0.704928	0.828743
	H17	H	0.599781	0.705642	0.159181
	H18	H	0.600289	0.279399	0.828789
	H19	H	0.403166	0.278466	0.158196
	H20	H	0.718910	0.828069	0.392279
	H21	H	0.717504	0.155799	0.595228
	H22	H	0.288194	0.827180	0.592531
	H23	H	0.286377	0.155289	0.393805
	H24	H	0.903773	0.326786	0.205551
	H25	H	0.100631	0.655669	0.208455
	H26	H	0.100874	0.326910	0.780402
	H27	H	0.905430	0.656882	0.780469
	H28	H	0.217122	0.891433	0.329874
	H29	H	0.216807	0.091458	0.658395
	H30	H	0.786974	0.091984	0.330161
	H31	H	0.786936	0.892639	0.659020
	H32	H	0.339072	0.207720	0.893894
	H33	H	0.665043	0.207597	0.092073
	H34	H	0.338565	0.776464	0.093836
	H35	H	0.665336	0.775738	0.894336
	H36	H	0.338067	0.894565	0.207177
	H37	H	0.665655	0.092272	0.208790
	H38	H	0.338212	0.089417	0.780213
	H39	H	0.666428	0.894938	0.780282
	H40	H	0.904131	0.204704	0.329185
	H41	H	0.100948	0.205325	0.658820
	H42	H	0.100494	0.777961	0.328950
	H43	H	0.904022	0.777537	0.659914
	H44	H	0.219911	0.329495	0.890308
	H45	H	0.217622	0.655337	0.095494
	H46	H	0.786209	0.328536	0.093942
	H47	H	0.786896	0.655983	0.893873
	H48	H	0.407791	0.107671	0.580545
	H49	H	0.591866	0.876184	0.583349
	H50	H	0.591452	0.108092	0.399376
	H51	H	0.409028	0.871440	0.390404
	H52	H	0.592666	0.393124	0.112791
	H53	H	0.591155	0.584211	0.877173
	H54	H	0.414682	0.582056	0.109215
	H55	H	0.405649	0.406296	0.876826
	H56	H	0.113306	0.577235	0.409275
	H57	H	0.886142	0.589425	0.582963
	H58	H	0.119464	0.399895	0.588885
	H59	H	0.887438	0.402414	0.402222
	H60	H	0.120160	0.395297	0.588009
	H61	H	0.889317	0.579440	0.584002
	H62	H	0.121320	0.580193	0.390377
	H63	H	0.884604	0.396448	0.395698
	H64	H	0.408147	0.590881	0.113487
	H65	H	0.596851	0.586375	0.874749
	H66	H	0.602390	0.401128	0.113931
	H67	H	0.415995	0.400109	0.877792
	H68	H	0.595588	0.107673	0.406833
	H69	H	0.600592	0.873532	0.584092
	H70	H	0.404859	0.111526	0.589913
	H71	H	0.418336	0.878876	0.404866
	H72	H	0.908532	0.608100	0.080282
	H73	H	0.092381	0.377985	0.075284
	H74	H	0.086025	0.603601	0.912730
	H75	H	0.910465	0.377424	0.907806
	H76	H	0.099881	0.902189	0.611860
	H77	H	0.100631	0.077545	0.376304
	H78	H	0.910446	0.073954	0.608658
	H79	H	0.907905	0.902773	0.377733
	H80	H	0.615862	0.089891	0.910818
	H81	H	0.383375	0.087816	0.093123
	H82	H	0.616354	0.903440	0.084485
	H83	H	0.387287	0.908730	0.895014
	H84	H	0.619608	0.898268	0.091110
	H85	H	0.386499	0.090012	0.080597
	H86	H	0.616842	0.075501	0.896654
	H87	H	0.381650	0.888961	0.894038
	H88	H	0.917160	0.090870	0.612003
	H89	H	0.089181	0.082409	0.378956
	H90	H	0.091274	0.900931	0.609949
	H91	H	0.913538	0.898506	0.378043
	H92	H	0.109541	0.612592	0.905820
	H93	H	0.104261	0.371225	0.086706
	H94	H	0.902979	0.612000	0.089664
	H95	H	0.901019	0.372240	0.900096
	H96	H	0.413770	0.107478	0.588029
	H97	H	0.596032	0.872488	0.591609
	H98	H	0.599090	0.110648	0.400145
	H99	H	0.400954	0.874559	0.406832
	H100	H	0.591036	0.404876	0.109951
	H101	H	0.596311	0.580453	0.877615
	H102	H	0.403308	0.579672	0.112049
	H103	H	0.406365	0.395218	0.873078
	H104	H	0.121539	0.595889	0.403972
	H105	H	0.885176	0.584935	0.592791
	H106	H	0.118291	0.397946	0.584412
	H107	H	0.885946	0.393334	0.403150
	H108	H	0.913635	0.608945	0.090307
	H109	H	0.087677	0.374268	0.091915
	H110	H	0.089913	0.612138	0.887744
	H111	H	0.912829	0.374002	0.895016
	H112	H	0.095728	0.895176	0.613818
	H113	H	0.097687	0.089615	0.373002
	H114	H	0.899825	0.087772	0.615198
	H115	H	0.907409	0.896448	0.375862
	H116	H	0.623282	0.094332	0.892720
	H117	H	0.388254	0.078623	0.085219
	H118	H	0.617774	0.894979	0.082465
	H119	H	0.388319	0.896515	0.911862
	C120	C	0.380674	0.000283	0.615160
	C121	C	0.624029	0.983225	0.615514
	C122	C	0.624046	0.000383	0.372300
	C123	C	0.380387	0.983438	0.371965
	C124	C	0.623602	0.371437	0.002971
	C125	C	0.623562	0.613465	0.985470
	C126	C	0.380403	0.613236	0.002650
	C127	C	0.380065	0.370933	0.984571
	C128	C	0.010683	0.613325	0.371875
	C129	C	0.994675	0.613867	0.616222
	C130	C	0.011013	0.369494	0.615628
	C131	C	0.993931	0.368761	0.371505
	C132	C	0.880544	0.500549	0.115123
	C133	C	0.123685	0.482885	0.114711
	C134	C	0.123631	0.500646	0.872581
	C135	C	0.880170	0.483107	0.871925
	C136	C	0.124241	0.870006	0.502949
	C137	C	0.124103	0.112472	0.485203
	C138	C	0.880593	0.113163	0.503071
	C139	C	0.880653	0.870238	0.485840
	C140	C	0.510592	0.114515	0.871418
	C141	C	0.493877	0.114627	0.115393
	C142	C	0.510177	0.870134	0.115327
	C143	C	0.493590	0.869266	0.871681
	C144	C	0.383942	0.876121	0.669665
	C145	C	0.620458	0.107389	0.669964
	C146	C	0.620756	0.876495	0.316789
	C147	C	0.383110	0.107723	0.317643
	C148	C	0.678852	0.373251	0.878852
	C149	C	0.679354	0.612924	0.109191
	C150	C	0.325031	0.611860	0.878634
	C151	C	0.324231	0.372041	0.108568
	C152	C	0.887844	0.668782	0.374593
	C153	C	0.117322	0.669398	0.613988
	C154	C	0.887906	0.314391	0.613009
	C155	C	0.117024	0.314043	0.374091
	C156	C	0.887566	0.372883	0.669910
	C157	C	0.117219	0.611650	0.671482
	C158	C	0.887293	0.609951	0.317534
	C159	C	0.117025	0.371683	0.316304
	C160	C	0.383210	0.667870	0.878203
	C161	C	0.620430	0.668347	0.109861
	C162	C	0.620692	0.316885	0.878253
	C163	C	0.382920	0.316234	0.109069
	C164	C	0.680264	0.877067	0.372662
	C165	C	0.678957	0.106851	0.614216
	C166	C	0.325802	0.876440	0.612968
	C167	C	0.324749	0.106809	0.373976
	C168	C	0.883048	0.376555	0.169315
	C169	C	0.121006	0.606580	0.170714
	C170	C	0.121134	0.376510	0.817471
	C171	C	0.883736	0.607295	0.817422
	C172	C	0.179376	0.871154	0.378909
	C173	C	0.179011	0.111047	0.609144
	C174	C	0.825466	0.111117	0.379158
	C175	C	0.825173	0.872110	0.610133
	C176	C	0.387790	0.169576	0.874027
	C177	C	0.616486	0.169718	0.112604
	C178	C	0.387324	0.814946	0.113132
	C179	C	0.616870	0.814175	0.874028
	C180	C	0.386935	0.873637	0.169842
	C181	C	0.616552	0.112537	0.170922
	C182	C	0.387319	0.110991	0.817303
	C183	C	0.617323	0.873183	0.817262
	C184	C	0.883333	0.167666	0.378822
	C185	C	0.121038	0.167404	0.609519
	C186	C	0.121279	0.815002	0.378623
	C187	C	0.883438	0.815204	0.610447
	C188	C	0.180617	0.377801	0.871987
	C189	C	0.179722	0.606078	0.114917
	C190	C	0.824662	0.377358	0.113501
	C191	C	0.825032	0.607014	0.873862
	C192	C	0.402327	0.086681	0.592715
	C193	C	0.602445	0.896494	0.593025
	C194	C	0.601994	0.086536	0.395435
	C195	C	0.402779	0.897327	0.394280
	C196	C	0.601832	0.393414	0.089766
	C197	C	0.601260	0.590549	0.898800
	C198	C	0.402193	0.590805	0.089024
	C199	C	0.402568	0.393850	0.898265
	C200	C	0.096507	0.590869	0.394355
	C201	C	0.908977	0.591190	0.593282
	C202	C	0.097039	0.391172	0.593771
	C203	C	0.908173	0.390801	0.393773
	C204	C	0.902255	0.587138	0.093243
	C205	C	0.101372	0.396722	0.091507
	C206	C	0.101554	0.586978	0.895443
	C207	C	0.901735	0.396863	0.894349
	C208	C	0.102276	0.892853	0.589562
	C209	C	0.102348	0.089904	0.398336
	C210	C	0.902607	0.090698	0.589565
	C211	C	0.902971	0.892601	0.399614
	C212	C	0.596514	0.093005	0.893548
	C213	C	0.408029	0.092055	0.092919
	C214	C	0.595823	0.892375	0.092903
	C215	C	0.408078	0.891519	0.893806
	Zn216	Zn	0.502275	-0.008101	0.743082
	Zn217	Zn	0.502023	-0.007524	0.243832
	Zn218	Zn	0.751842	0.492445	-0.005659
	Zn219	Zn	0.251949	0.492028	-0.006411
	Zn220	Zn	0.002892	0.742387	0.494349
	Zn221	Zn	0.002703	0.240026	0.493989
	Zn222	Zn	0.002966	0.491360	0.744587
	Zn223	Zn	0.002335	0.490839	0.242781
	Zn224	Zn	0.502021	0.740748	-0.006024
	Zn225	Zn	0.502040	0.243969	-0.006504
	Zn226	Zn	0.752240	-0.008141	0.494893
	Zn227	Zn	0.252010	-0.008800	0.493854
	N228	N	0.417338	0.954103	0.671013
	N229	N	0.586987	0.029429	0.670848
	N230	N	0.586434	0.954057	0.316550
	N231	N	0.417151	0.030171	0.316377
	N232	N	0.680647	0.406504	0.957236
	N233	N	0.681386	0.579477	0.030737
	N234	N	0.323017	0.578381	0.956903
	N235	N	0.322539	0.405465	0.030232
	N236	N	0.965695	0.671058	0.407546
	N237	N	0.040046	0.670832	0.580218
	N238	N	0.965617	0.312260	0.579814
	N239	N	0.039417	0.311961	0.407527
	N240	N	0.965064	0.406377	0.671735
	N241	N	0.039895	0.577550	0.672690
	N242	N	0.964753	0.576376	0.315482
	N243	N	0.039545	0.405038	0.314529
	N244	N	0.417086	0.668637	0.956184
	N245	N	0.586462	0.668668	0.031862
	N246	N	0.586963	0.315754	0.956363
	N247	N	0.416776	0.315255	0.031013
	N248	N	0.682287	0.955033	0.406729
	N249	N	0.681303	0.028463	0.581062
	N250	N	0.323751	0.954455	0.579547
	N251	N	0.322810	0.028578	0.407051
	N252	N	0.917267	0.454251	0.170366
	N253	N	0.086936	0.528931	0.170855
	N254	N	0.086444	0.453877	0.817618
	N255	N	0.917288	0.529362	0.816213
	N256	N	0.181405	0.904681	0.457198
	N257	N	0.180872	0.077367	0.530726
	N258	N	0.823642	0.077757	0.457602
	N259	N	0.823236	0.905740	0.531957
	N260	N	0.465596	0.172094	0.906954
	N261	N	0.539061	0.171173	0.078930
	N262	N	0.465051	0.812746	0.080088
	N263	N	0.539191	0.811679	0.907044
	N264	N	0.464180	0.907564	0.171125
	N265	N	0.539191	0.078662	0.172379
	N266	N	0.464505	0.077172	0.815724
	N267	N	0.539711	0.906539	0.815411
	N268	N	0.916952	0.168717	0.456786
	N269	N	0.087911	0.168556	0.531395
	N270	N	0.087621	0.814207	0.456735
	N271	N	0.917095	0.813829	0.532269
	N272	N	0.182012	0.455696	0.906080
	N273	N	0.181165	0.528254	0.080549
	N274	N	0.822974	0.455498	0.080543
	N275	N	0.822495	0.528773	0.907035
	O276	O	0.977003	0.933407	0.077884
	H277	H	0.977100	0.937673	0.080686
	H278	H	0.979185	0.939541	0.080108
	O279	O	0.466939	-0.438081	1.513996
	H280	H	0.465425	-0.433817	1.508499
	H281	H	0.467375	-0.437681	1.505784
	O282	O	-0.013394	-0.015715	0.042119
	H283	H	-0.014514	-0.022171	0.038535
	H284	H	-0.000581	-0.014672	0.040663
	O285	O	0.509846	0.536636	0.441531
	H286	H	0.498257	0.548768	0.435142
	H287	H	0.508969	0.522623	0.441136
	O288	O	0.001280	-0.013122	-0.007739
	H289	H	-0.001978	-0.010020	-0.013787
	H290	H	-0.000322	-0.012607	-0.011082
	O291	O	0.010417	1.009198	0.020901
	H292	H	0.018063	1.004980	0.021822
	H293	H	0.007755	1.008411	0.016279
	O294	O	0.561914	1.486116	-0.499182
	H295	H	0.561233	1.481405	-0.502605
	H296	H	0.560374	1.482187	-0.496463
	O297	O	0.529185	0.497688	0.514388
	H298	H	0.525255	0.508403	0.507584
	H299	H	0.526099	0.502873	0.508454
	O300	O	0.527863	0.430041	0.507674
	H301	H	0.526961	0.429428	0.512899
	H302	H	0.530848	0.436467	0.522296
	O303	O	1.028278	-0.015632	0.981821
	H304	H	1.029596	-0.008751	0.983498
	H305	H	1.032984	-0.018173	0.987833
	O306	O	0.010047	0.944009	0.997481
	H307	H	0.012721	0.935060	1.003916
	H308	H	-0.003416	0.949339	0.992118
	O309	O	0.014830	1.013927	1.032445
	H310	H	0.009112	1.013257	1.031749
	H311	H	0.008583	1.005062	1.030108
	O312	O	-0.010203	0.068052	1.011682
	H313	H	-0.003611	0.076219	1.018182
	H314	H	-0.007905	0.071180	1.013996
	O315	O	0.497392	0.451181	0.451785
	H316	H	0.504838	0.448576	0.447780
	H317	H	0.500529	0.440279	0.446883
	O318	O	0.050462	0.035511	1.012979
	H319	H	0.061582	0.033283	1.014412
	H320	H	0.031451	0.039093	1.011535
	O321	O	-0.510906	1.405773	0.405283
	H322	H	-0.504128	1.413022	0.414263
	H323	H	-0.507059	1.404799	0.403500
	O324	O	0.977964	0.041888	1.022643
	H325	H	0.972674	0.041714	1.032419
	H326	H	0.975901	0.037022	1.023417
	O327	O	0.965572	1.020715	1.008394
	H328	H	0.964521	1.026065	1.006535
	H329	H	0.961175	1.018103	1.011127
	O330	O	0.448504	0.514989	0.445904
	H331	H	0.464877	0.512317	0.446984
	H332	H	0.445412	0.509204	0.442030
	O333	O	0.507716	0.429939	0.458851
	H334	H	0.507294	0.421554	0.465902
	H335	H	0.519710	0.424867	0.448234
	O336	O	0.508924	0.542072	0.520118
	H337	H	0.504480	0.549081	0.516977
	H338	H	0.518477	0.532698	0.541224
	O339	O	0.574104	0.465060	0.471485
	H340	H	0.569330	0.462892	0.481241
	H341	H	0.567504	0.461122	0.478152
	O342	O	0.576605	0.552961	0.592748
	H343	H	0.570947	0.555596	0.588225
	H344	H	0.571508	0.554224	0.595149
	O345	O	0.478116	0.507241	0.505870
	H346	H	0.479216	0.508420	0.499137
	H347	H	0.486372	0.516252	0.505798
