data_Molecule from HDF5

_cell_length_a		16.170559
_cell_length_b		16.152330
_cell_length_c		16.435720
_cell_angle_alpha	89.770301
_cell_angle_beta	89.702539
_cell_angle_gamma	89.528685
_symmetry_space_group_name_H-M	'P 1'
_symmetry_Int_Tables_number		1

loop_
	_symmetry_equiv_pos_as_xyz
	x,y,z

loop_
	_atom_site_label
	_atom_site_type_symbol
	_atom_site_fract_x
	_atom_site_fract_y
	_atom_site_fract_z
	H0	H	0.388667	0.835836	0.721877
	H1	H	0.591345	0.161869	0.722000
	H2	H	0.595315	0.835603	0.287016
	H3	H	0.387441	0.163346	0.287597
	H4	H	0.707566	0.395466	0.840441
	H5	H	0.704223	0.597072	0.163680
	H6	H	0.273018	0.602331	0.840328
	H7	H	0.269250	0.400041	0.163971
	H8	H	0.825130	0.716762	0.403066
	H9	H	0.155053	0.709633	0.596205
	H10	H	0.824482	0.288396	0.599642
	H11	H	0.154115	0.286811	0.401904
	H12	H	0.827493	0.395715	0.720326
	H13	H	0.150803	0.602955	0.718506
	H14	H	0.824808	0.604833	0.285428
	H15	H	0.150966	0.397090	0.281356
	H16	H	0.386357	0.719613	0.842578
	H17	H	0.585831	0.712019	0.165372
	H18	H	0.590333	0.279701	0.841687
	H19	H	0.385335	0.282047	0.165094
	H20	H	0.706089	0.835120	0.406750
	H21	H	0.701165	0.165110	0.600707
	H22	H	0.276659	0.834708	0.603674
	H23	H	0.275541	0.164390	0.406954
	H24	H	0.885909	0.337201	0.220996
	H25	H	0.087301	0.664031	0.215008
	H26	H	0.093712	0.336884	0.783351
	H27	H	0.884846	0.663162	0.783442
	H28	H	0.210614	0.899450	0.342259
	H29	H	0.202393	0.096871	0.665905
	H30	H	0.772403	0.101569	0.340752
	H31	H	0.774321	0.899564	0.664802
	H32	H	0.324239	0.214063	0.907502
	H33	H	0.652810	0.212822	0.102395
	H34	H	0.322453	0.789791	0.101918
	H35	H	0.652140	0.783841	0.906350
	H36	H	0.326734	0.897930	0.223953
	H37	H	0.652377	0.100641	0.219212
	H38	H	0.326088	0.104689	0.786654
	H39	H	0.652352	0.894685	0.787262
	H40	H	0.889590	0.216939	0.339649
	H41	H	0.088860	0.216517	0.663337
	H42	H	0.091901	0.784913	0.339108
	H43	H	0.890333	0.781790	0.663634
	H44	H	0.206202	0.335643	0.902231
	H45	H	0.197462	0.666361	0.095660
	H46	H	0.776514	0.333974	0.099776
	H47	H	0.772496	0.663615	0.902824
	H48	H	0.394096	0.117044	0.597400
	H49	H	0.578457	0.881592	0.600784
	H50	H	0.592377	0.121080	0.405317
	H51	H	0.406698	0.884551	0.415081
	H52	H	0.576575	0.402982	0.116229
	H53	H	0.575292	0.585280	0.890567
	H54	H	0.394940	0.591077	0.117156
	H55	H	0.398734	0.407171	0.889311
	H56	H	0.108907	0.596479	0.401495
	H57	H	0.873534	0.588163	0.591628
	H58	H	0.109356	0.406199	0.597544
	H59	H	0.872150	0.410238	0.410344
	H60	H	0.106009	0.405214	0.586663
	H61	H	0.871932	0.590023	0.594525
	H62	H	0.103526	0.590748	0.412026
	H63	H	0.872126	0.410641	0.408983
	H64	H	0.391049	0.597653	0.120390
	H65	H	0.575438	0.598474	0.887079
	H66	H	0.586657	0.404475	0.118950
	H67	H	0.397906	0.408335	0.888647
	H68	H	0.569235	0.116410	0.400967
	H69	H	0.580338	0.884297	0.591962
	H70	H	0.398020	0.117244	0.599661
	H71	H	0.398939	0.882255	0.415716
	H72	H	0.902594	0.614841	0.093996
	H73	H	0.072642	0.385724	0.092402
	H74	H	0.084792	0.618375	0.907930
	H75	H	0.893388	0.380090	0.908438
	H76	H	0.088858	0.894774	0.621287
	H77	H	0.076666	0.096050	0.388530
	H78	H	0.904303	0.097718	0.616102
	H79	H	0.896069	0.912156	0.387880
	H80	H	0.607888	0.089414	0.905597
	H81	H	0.377260	0.085501	0.085810
	H82	H	0.608016	0.899341	0.095662
	H83	H	0.369339	0.904057	0.912001
	H84	H	0.603937	0.907957	0.092850
	H85	H	0.371751	0.080276	0.107941
	H86	H	0.605168	0.093003	0.918178
	H87	H	0.373923	0.914266	0.917457
	H88	H	0.890019	0.096336	0.619621
	H89	H	0.091061	0.096559	0.384322
	H90	H	0.087771	0.914022	0.616289
	H91	H	0.902690	0.909782	0.389045
	H92	H	0.076259	0.617740	0.901052
	H93	H	0.081808	0.383383	0.088495
	H94	H	0.891257	0.616303	0.086696
	H95	H	0.905864	0.383196	0.903283
	H96	H	0.398230	0.116194	0.595587
	H97	H	0.586764	0.880841	0.597466
	H98	H	0.578489	0.112644	0.422817
	H99	H	0.402734	0.881992	0.408785
	H100	H	0.581814	0.412319	0.114910
	H101	H	0.587131	0.591221	0.885658
	H102	H	0.387739	0.590201	0.119726
	H103	H	0.399267	0.408793	0.889143
	H104	H	0.105843	0.583790	0.401669
	H105	H	0.872023	0.591996	0.590941
	H106	H	0.104019	0.414971	0.592432
	H107	H	0.871102	0.408781	0.409685
	H108	H	0.891195	0.619637	0.099890
	H109	H	0.080277	0.381393	0.097913
	H110	H	0.074944	0.614179	0.911395
	H111	H	0.902722	0.385766	0.916442
	H112	H	0.071527	0.902739	0.615217
	H113	H	0.085059	0.083949	0.389938
	H114	H	0.897339	0.085019	0.613931
	H115	H	0.897738	0.905922	0.386631
	H116	H	0.602833	0.080940	0.912992
	H117	H	0.367716	0.101053	0.099230
	H118	H	0.606975	0.906351	0.102433
	H119	H	0.371153	0.914350	0.905236
	C120	C	0.368162	0.008189	0.626509
	C121	C	0.610935	0.990622	0.625517
	C122	C	0.611511	0.008412	0.381143
	C123	C	0.370814	0.991393	0.383556
	C124	C	0.611812	0.375500	0.010670
	C125	C	0.608774	0.620148	0.994584
	C126	C	0.363835	0.623042	0.011680
	C127	C	0.366779	0.378176	0.995345
	C128	C	-0.002414	0.621743	0.377680
	C129	C	0.980631	0.619607	0.621280
	C130	C	-0.001689	0.378812	0.622103
	C131	C	0.979974	0.379359	0.379283
	C132	C	0.866108	0.508252	0.123255
	C133	C	0.107443	0.492130	0.121051
	C134	C	0.110465	0.508733	0.878163
	C135	C	0.868365	0.490833	0.879452
	C136	C	0.113402	0.875428	0.510948
	C137	C	0.111851	0.121246	0.494336
	C138	C	0.867226	0.123111	0.510070
	C139	C	0.869031	0.878807	0.494458
	C140	C	0.497618	0.119736	0.882620
	C141	C	0.480367	0.119361	0.125682
	C142	C	0.497662	0.876854	0.126620
	C143	C	0.479788	0.879026	0.882802
	C144	C	0.369408	0.884617	0.683176
	C145	C	0.610563	0.113624	0.682771
	C146	C	0.613528	0.884805	0.325499
	C147	C	0.368895	0.114228	0.326231
	C148	C	0.669026	0.375921	0.889140
	C149	C	0.665238	0.617152	0.115830
	C150	C	0.310186	0.622000	0.889256
	C151	C	0.308181	0.379507	0.116017
	C152	C	0.874235	0.679168	0.381523
	C153	C	0.104820	0.673850	0.618051
	C154	C	0.874620	0.323925	0.620715
	C155	C	0.104091	0.323436	0.380936
	C156	C	0.876022	0.377705	0.680688
	C157	C	0.102891	0.620561	0.678834
	C158	C	0.874040	0.623039	0.323310
	C159	C	0.102656	0.378549	0.321150
	C160	C	0.366560	0.680473	0.890491
	C161	C	0.606435	0.674495	0.116598
	C162	C	0.610582	0.318197	0.889732
	C163	C	0.366189	0.320782	0.116655
	C164	C	0.668503	0.884361	0.385028
	C165	C	0.665408	0.115071	0.622751
	C166	C	0.313922	0.883921	0.624313
	C167	C	0.313424	0.114997	0.386100
	C168	C	0.866724	0.385715	0.181435
	C169	C	0.106292	0.615374	0.176535
	C170	C	0.112149	0.385534	0.822149
	C171	C	0.866571	0.614173	0.822601
	C172	C	0.171476	0.878818	0.389859
	C173	C	0.165252	0.117809	0.616968
	C174	C	0.810755	0.121840	0.388975
	C175	C	0.812764	0.879891	0.616191
	C176	C	0.373785	0.176756	0.885761
	C177	C	0.603711	0.175294	0.122987
	C178	C	0.372967	0.824832	0.123831
	C179	C	0.603090	0.821551	0.885455
	C180	C	0.374895	0.879116	0.184007
	C181	C	0.603578	0.119315	0.180908
	C182	C	0.374783	0.122410	0.825897
	C183	C	0.603023	0.876569	0.825908
	C184	C	0.869313	0.179056	0.388388
	C185	C	0.108652	0.177255	0.615737
	C186	C	0.112344	0.821904	0.388260
	C187	C	0.870615	0.821281	0.615692
	C188	C	0.168189	0.384968	0.881224
	C189	C	0.161113	0.616581	0.117105
	C190	C	0.812393	0.383868	0.121117
	C191	C	0.810726	0.614557	0.881733
	C192	C	0.390242	0.094450	0.604120
	C193	C	0.588505	0.904864	0.603295
	C194	C	0.587165	0.094389	0.403094
	C195	C	0.395758	0.905165	0.406562
	C196	C	0.588462	0.399493	0.094963
	C197	C	0.586005	0.598058	0.909852
	C198	C	0.385047	0.599906	0.096811
	C199	C	0.391256	0.401362	0.910889
	C200	C	0.083731	0.597480	0.398806
	C201	C	0.894694	0.596672	0.598976
	C202	C	0.084245	0.402145	0.598792
	C203	C	0.894194	0.402908	0.402759
	C204	C	0.888400	0.594615	0.100251
	C205	C	0.084929	0.405774	0.099285
	C206	C	0.085951	0.594603	0.900319
	C207	C	0.893373	0.405222	0.902585
	C208	C	0.089608	0.897123	0.595595
	C209	C	0.090540	0.098855	0.409410
	C210	C	0.890262	0.099747	0.594670
	C211	C	0.892145	0.902432	0.409760
	C212	C	0.583011	0.095079	0.905524
	C213	C	0.394468	0.095964	0.103969
	C214	C	0.584019	0.898129	0.103754
	C215	C	0.393768	0.903812	0.905153
	Zn216	Zn	0.489310	-0.000605	0.754077
	Zn217	Zn	0.490556	-0.001321	0.253930
	Zn218	Zn	0.739746	0.498697	0.001038
	Zn219	Zn	0.236267	0.500527	0.001237
	Zn220	Zn	-0.009971	0.747401	0.500504
	Zn221	Zn	-0.010242	0.251592	0.501413
	Zn222	Zn	-0.011048	0.499568	0.749906
	Zn223	Zn	-0.012178	0.500618	0.250509
	Zn224	Zn	0.487071	0.750178	0.004053
	Zn225	Zn	0.488643	0.247025	0.004282
	Zn226	Zn	0.738483	0.000642	0.503051
	Zn227	Zn	0.241945	-0.000930	0.504580
	N228	N	0.402470	0.962912	0.684706
	N229	N	0.577633	0.035478	0.684789
	N230	N	0.578970	0.962847	0.323004
	N231	N	0.403941	0.036271	0.324741
	N232	N	0.669906	0.410710	0.965411
	N233	N	0.666919	0.584198	0.038744
	N234	N	0.308175	0.586911	0.965626
	N235	N	0.308319	0.414188	0.039489
	N236	N	0.952080	0.678442	0.414672
	N237	N	0.027907	0.673303	0.582719
	N238	N	0.951691	0.324590	0.584947
	N239	N	0.026813	0.323782	0.416296
	N240	N	0.953995	0.411058	0.681936
	N241	N	0.024613	0.587613	0.680962
	N242	N	0.951844	0.588134	0.320839
	N243	N	0.024307	0.412495	0.319902
	N244	N	0.399145	0.681396	0.967621
	N245	N	0.572016	0.676352	0.040205
	N246	N	0.575802	0.317736	0.966292
	N247	N	0.402059	0.319893	0.040620
	N248	N	0.667550	0.962144	0.418939
	N249	N	0.666024	0.037706	0.587798
	N250	N	0.312843	0.961643	0.590148
	N251	N	0.314717	0.037510	0.421020
	N252	N	0.899285	0.464193	0.182751
	N253	N	0.073686	0.536897	0.179130
	N254	N	0.077010	0.463313	0.820086
	N255	N	0.901816	0.536267	0.821078
	N256	N	0.172132	0.911490	0.466992
	N257	N	0.167175	0.083406	0.540530
	N258	N	0.809499	0.087517	0.465594
	N259	N	0.811880	0.915106	0.539880
	N260	N	0.451089	0.175306	0.920171
	N261	N	0.526048	0.175553	0.089321
	N262	N	0.450362	0.823177	0.088789
	N263	N	0.525428	0.822805	0.920048
	N264	N	0.453765	0.910249	0.186056
	N265	N	0.526000	0.085223	0.182635
	N266	N	0.452853	0.087797	0.823565
	N267	N	0.525339	0.911729	0.824384
	N268	N	0.903645	0.179938	0.464867
	N269	N	0.076122	0.179390	0.538574
	N270	N	0.076972	0.819537	0.464462
	N271	N	0.904981	0.820483	0.538900
	N272	N	0.167325	0.462647	0.915134
	N273	N	0.161827	0.538915	0.083152
	N274	N	0.812140	0.461111	0.085608
	N275	N	0.811622	0.536894	0.916312
	O276	O	0.614501	-0.463431	1.542442
	H277	H	0.612625	-0.446305	1.542414
	H278	H	0.613086	-0.471516	1.549459
	O279	O	0.507666	0.535544	0.519108
	H280	H	0.513380	0.539759	0.515726
	H281	H	0.505099	0.536468	0.498944
	O282	O	0.367229	0.552442	0.505340
	H283	H	0.366682	0.541811	0.501716
	H284	H	0.357893	0.573894	0.510148
	O285	O	0.502620	0.543745	0.613389
	H286	H	0.515849	0.539004	0.605574
	H287	H	0.496046	0.540536	0.609038
	O288	O	0.460696	0.648928	0.392086
	H289	H	0.459727	0.651720	0.402936
	H290	H	0.453793	0.645905	0.386143
	O291	O	0.442459	-0.414864	1.493534
	H292	H	0.463435	-0.426690	1.505350
	H293	H	0.444017	-0.411700	1.494697
	O294	O	1.037115	0.974818	-0.002450
	H295	H	1.050442	0.971956	0.001139
	H296	H	1.030832	0.970503	0.010306
	O297	O	0.930494	1.067380	0.050852
	H298	H	0.937842	1.061505	0.045384
	H299	H	0.929468	1.055815	0.046002
	O300	O	0.498176	0.623893	0.437131
	H301	H	0.482006	0.637620	0.429874
	H302	H	0.486689	0.616181	0.433820
	O303	O	0.501516	0.589071	0.393551
	H304	H	0.502272	0.592890	0.390880
	H305	H	0.484059	0.585607	0.393940
	O306	O	0.534761	0.440276	0.581313
	H307	H	0.542338	0.435665	0.592034
	H308	H	0.533452	0.447882	0.585883
	O309	O	0.457414	0.472654	0.373370
	H310	H	0.453180	0.488017	0.375749
	H311	H	0.455910	0.450321	0.366680
	O312	O	0.929401	0.960265	1.144500
	H313	H	0.922106	0.964862	1.147936
	H314	H	0.917156	0.967324	1.135817
	O315	O	1.105198	0.914401	-0.088514
	H316	H	1.101764	0.918210	-0.079703
	H317	H	1.121305	0.905294	-0.095697
	O318	O	0.960508	0.018119	-0.028167
	H319	H	0.958875	0.013038	-0.037022
	H320	H	0.956898	0.012435	-0.023548
	O321	O	0.565814	0.409525	0.413834
	H322	H	0.569784	0.405910	0.407610
	H323	H	0.561924	0.429455	0.415555
	O324	O	-0.092594	0.997725	0.984564
	H325	H	-0.090118	0.989388	0.976461
	H326	H	-0.085362	1.000141	0.983292
	O327	O	-0.106646	1.009450	0.963108
	H328	H	-0.111010	1.019935	0.972638
	H329	H	-0.103002	1.013171	0.949036
	O330	O	-0.472366	0.462833	0.512243
	H331	H	-0.460087	0.458698	0.512334
	H332	H	-0.477255	0.475522	0.501734
	O333	O	0.438638	0.386506	0.563002
	H334	H	0.442991	0.382094	0.570094
	H335	H	0.433224	0.384840	0.564196
	O336	O	-0.076832	-0.015764	0.072371
	H337	H	-0.079635	-0.032788	0.074097
	H338	H	-0.083748	-0.011675	0.063703
	O339	O	-0.034272	0.076201	-0.099124
	H340	H	-0.020604	0.086298	-0.100525
	H341	H	-0.031175	0.078264	-0.103704
	O342	O	0.535747	0.465132	0.509741
	H343	H	0.544441	0.464059	0.509133
	H344	H	0.527394	0.463552	0.504727
	O345	O	0.061483	1.009744	0.921731
	H346	H	0.068381	1.019560	0.926642
	H347	H	0.065109	1.005249	0.922469
	O348	O	0.552442	0.514775	0.662229
	H349	H	0.552420	0.522444	0.665858
	H350	H	0.561461	0.523415	0.646324
	O351	O	0.413881	0.464633	0.497134
	H352	H	0.426629	0.462743	0.516314
	H353	H	0.415572	0.457150	0.497692
	O354	O	0.921430	0.927539	-0.929984
	H355	H	0.911493	0.920412	-0.937854
	H356	H	0.928552	0.933908	-0.942243
	O357	O	1.009230	1.099599	0.946477
	H358	H	1.010993	1.109526	0.954483
	H359	H	1.010417	1.097379	0.962441
	O360	O	0.952716	0.043736	1.008389
	H361	H	0.950359	0.046023	1.012975
	H362	H	0.937228	0.046473	0.998684
	O363	O	0.569571	0.494961	0.529221
	H364	H	0.580536	0.492396	0.526757
	H365	H	0.577986	0.496264	0.523053
	O366	O	0.325746	0.388583	0.659916
	H367	H	0.323392	0.374410	0.672813
	H368	H	0.334704	0.388123	0.663695
	O369	O	1.045440	0.005926	0.077102
	H370	H	1.041515	0.004045	0.072685
	H371	H	1.041835	0.007949	0.084826
	O372	O	0.542034	0.446731	0.353547
	H373	H	0.547229	0.434098	0.336792
	H374	H	0.523789	0.456048	0.364501
	O375	O	0.879239	0.041965	0.983770
	H376	H	0.888708	0.035123	0.982547
	H377	H	0.876320	0.041725	0.975570
	O378	O	-0.599829	1.432398	-0.526454
	H379	H	-0.600907	1.428773	-0.515461
	H380	H	-0.600237	1.421643	-0.519578
	O381	O	0.507665	0.488288	0.594420
	H382	H	0.506747	0.473790	0.588309
	H383	H	0.515629	0.491281	0.590678
	O384	O	1.030633	0.961600	-0.014791
	H385	H	1.031721	0.966075	-0.025850
	H386	H	1.028762	0.962947	-0.010671
	O387	O	1.011133	-0.068579	1.052586
	H388	H	1.001863	-0.066465	1.060302
	H389	H	1.001397	-0.058179	1.046953
	O390	O	0.938080	1.004613	0.010098
	H391	H	0.948582	1.017555	0.010915
	H392	H	0.927457	1.003818	0.012156
	O393	O	1.048129	0.957509	-0.001304
	H394	H	1.053795	0.948620	0.005094
	H395	H	1.043982	0.956914	0.010739
