data_Molecule from HDF5

_cell_length_a		16.142159
_cell_length_b		16.428698
_cell_length_c		16.424468
_cell_angle_alpha	90.009349
_cell_angle_beta	89.967378
_cell_angle_gamma	90.140068
_symmetry_space_group_name_H-M	'P 1'
_symmetry_Int_Tables_number		1

loop_
	_symmetry_equiv_pos_as_xyz
	x,y,z

loop_
	_atom_site_label
	_atom_site_type_symbol
	_atom_site_fract_x
	_atom_site_fract_y
	_atom_site_fract_z
	H0	H	0.398282	0.835703	0.709886
	H1	H	0.612810	0.152348	0.712723
	H2	H	0.610252	0.834954	0.269844
	H3	H	0.398193	0.152412	0.267733
	H4	H	0.722518	0.392342	0.830881
	H5	H	0.720699	0.594162	0.151531
	H6	H	0.286756	0.595154	0.830396
	H7	H	0.285983	0.391402	0.151397
	H8	H	0.841674	0.711842	0.389808
	H9	H	0.168001	0.711429	0.591232
	H10	H	0.843215	0.274449	0.596749
	H11	H	0.164610	0.274476	0.385607
	H12	H	0.842466	0.392294	0.709540
	H13	H	0.167872	0.597596	0.708071
	H14	H	0.842471	0.598973	0.272614
	H15	H	0.165471	0.392427	0.272313
	H16	H	0.398541	0.715015	0.832235
	H17	H	0.609553	0.715050	0.149512
	H18	H	0.611126	0.271716	0.832571
	H19	H	0.397298	0.270757	0.149361
	H20	H	0.722614	0.834452	0.388138
	H21	H	0.722419	0.154959	0.591028
	H22	H	0.287215	0.833450	0.589296
	H23	H	0.286055	0.154381	0.386676
	H24	H	0.894738	0.337292	0.216529
	H25	H	0.111038	0.653661	0.212056
	H26	H	0.112634	0.335859	0.767983
	H27	H	0.900429	0.654339	0.772819
	H28	H	0.221451	0.893116	0.329707
	H29	H	0.223451	0.097940	0.650026
	H30	H	0.786813	0.096922	0.330292
	H31	H	0.786148	0.893836	0.650822
	H32	H	0.343685	0.213648	0.885664
	H33	H	0.665201	0.214074	0.096845
	H34	H	0.341834	0.775437	0.092303
	H35	H	0.667028	0.775990	0.886776
	H36	H	0.342633	0.887616	0.210510
	H37	H	0.666435	0.096651	0.208569
	H38	H	0.343147	0.099403	0.770220
	H39	H	0.666371	0.891076	0.770787
	H40	H	0.894930	0.218579	0.334097
	H41	H	0.113118	0.217429	0.649023
	H42	H	0.111263	0.772697	0.332397
	H43	H	0.900146	0.776300	0.650681
	H44	H	0.223854	0.333559	0.887840
	H45	H	0.223080	0.654450	0.091827
	H46	H	0.784010	0.333596	0.096306
	H47	H	0.786724	0.653984	0.891641
	H48	H	0.417569	0.107110	0.577658
	H49	H	0.594724	0.879172	0.585448
	H50	H	0.597622	0.105155	0.411735
	H51	H	0.413001	0.878079	0.392570
	H52	H	0.595537	0.401566	0.106677
	H53	H	0.592874	0.587831	0.876018
	H54	H	0.409917	0.587151	0.107353
	H55	H	0.414411	0.401995	0.876913
	H56	H	0.121944	0.584438	0.398364
	H57	H	0.887955	0.584946	0.583703
	H58	H	0.119106	0.406511	0.577056
	H59	H	0.891230	0.407627	0.409114
	H60	H	0.120430	0.407925	0.582187
	H61	H	0.887643	0.585980	0.583206
	H62	H	0.120362	0.587988	0.403289
	H63	H	0.889875	0.410689	0.402516
	H64	H	0.417136	0.578101	0.102558
	H65	H	0.598546	0.584990	0.875361
	H66	H	0.592717	0.405445	0.104095
	H67	H	0.416648	0.404484	0.878512
	H68	H	0.603890	0.114065	0.389665
	H69	H	0.587978	0.882868	0.579656
	H70	H	0.411017	0.110936	0.580363
	H71	H	0.420865	0.882502	0.400932
	H72	H	0.912827	0.609717	0.085181
	H73	H	0.091834	0.378598	0.089772
	H74	H	0.094008	0.611286	0.889299
	H75	H	0.918775	0.382329	0.907070
	H76	H	0.090048	0.907945	0.601460
	H77	H	0.098432	0.087283	0.374368
	H78	H	0.917744	0.079881	0.602030
	H79	H	0.915483	0.906010	0.376846
	H80	H	0.621668	0.080261	0.895804
	H81	H	0.392406	0.076464	0.073926
	H82	H	0.623154	0.898776	0.083170
	H83	H	0.389737	0.904109	0.903115
	H84	H	0.619130	0.903650	0.075187
	H85	H	0.387373	0.078078	0.085803
	H86	H	0.620869	0.087911	0.904780
	H87	H	0.388757	0.906205	0.899207
	H88	H	0.919005	0.090239	0.605847
	H89	H	0.089957	0.077836	0.380225
	H90	H	0.091555	0.897346	0.605906
	H91	H	0.917549	0.901081	0.376640
	H92	H	0.086834	0.603503	0.904009
	H93	H	0.086892	0.383440	0.078836
	H94	H	0.917963	0.607428	0.083027
	H95	H	0.907442	0.376649	0.899072
	H96	H	0.416943	0.110251	0.585248
	H97	H	0.597696	0.880004	0.577202
	H98	H	0.580448	0.106219	0.393417
	H99	H	0.408558	0.879203	0.403661
	H100	H	0.590467	0.400346	0.104535
	H101	H	0.593428	0.582100	0.876925
	H102	H	0.421472	0.588988	0.103197
	H103	H	0.418126	0.401386	0.877814
	H104	H	0.119673	0.581512	0.402565
	H105	H	0.888284	0.585170	0.582498
	H106	H	0.121765	0.403469	0.580623
	H107	H	0.886903	0.404235	0.403367
	H108	H	0.912640	0.606655	0.079422
	H109	H	0.099628	0.379321	0.079566
	H110	H	0.104729	0.609253	0.904615
	H111	H	0.920734	0.379891	0.893021
	H112	H	0.100589	0.904499	0.606284
	H113	H	0.086084	0.091206	0.377320
	H114	H	0.909472	0.085008	0.607484
	H115	H	0.911932	0.901685	0.375153
	H116	H	0.616568	0.077376	0.905917
	H117	H	0.387044	0.088655	0.077514
	H118	H	0.620309	0.908502	0.084114
	H119	H	0.387667	0.901358	0.899760
	C120	C	0.383111	0.003488	0.611320
	C121	C	0.625850	0.985697	0.611709
	C122	C	0.625726	0.002780	0.368026
	C123	C	0.382113	0.985232	0.367627
	C124	C	0.625731	0.371450	-0.000077
	C125	C	0.626165	0.615773	0.982047
	C126	C	0.383778	0.615477	-0.000778
	C127	C	0.383540	0.371443	0.982676
	C128	C	0.013394	0.615857	0.370466
	C129	C	0.996087	0.615897	0.612837
	C130	C	0.013546	0.374068	0.612192
	C131	C	0.995043	0.374591	0.371500
	C132	C	0.881995	0.502571	0.114007
	C133	C	0.125235	0.486119	0.112766
	C134	C	0.127099	0.502432	0.868332
	C135	C	0.884190	0.485726	0.869882
	C136	C	0.125594	0.872498	0.499179
	C137	C	0.124882	0.116826	0.482434
	C138	C	0.883134	0.116756	0.499739
	C139	C	0.882881	0.872422	0.482021
	C140	C	0.513260	0.114275	0.869764
	C141	C	0.495453	0.113586	0.111311
	C142	C	0.513343	0.871923	0.111570
	C143	C	0.495687	0.872742	0.868895
	C144	C	0.380847	0.883133	0.669755
	C145	C	0.629497	0.105287	0.671697
	C146	C	0.627867	0.882668	0.309642
	C147	C	0.380403	0.104953	0.308177
	C148	C	0.684184	0.371948	0.879145
	C149	C	0.683166	0.614873	0.103025
	C150	C	0.325184	0.615246	0.878685
	C151	C	0.324447	0.371315	0.103087
	C152	C	0.890739	0.673437	0.370262
	C153	C	0.118833	0.673254	0.611830
	C154	C	0.891723	0.314262	0.614995
	C155	C	0.116582	0.314869	0.368161
	C156	C	0.891200	0.372973	0.670791
	C157	C	0.119107	0.616009	0.669402
	C158	C	0.891051	0.617315	0.311854
	C159	C	0.116829	0.373305	0.311728
	C160	C	0.381019	0.674664	0.879438
	C161	C	0.627804	0.674855	0.101987
	C162	C	0.628530	0.312208	0.879939
	C163	C	0.380179	0.311679	0.102413
	C164	C	0.684243	0.882644	0.368460
	C165	C	0.684254	0.106618	0.611147
	C166	C	0.325422	0.882221	0.609713
	C167	C	0.324521	0.105966	0.367602
	C168	C	0.878028	0.383983	0.175314
	C169	C	0.128415	0.605920	0.171747
	C170	C	0.129854	0.383152	0.808239
	C171	C	0.882188	0.606062	0.812147
	C172	C	0.183407	0.873189	0.378169
	C173	C	0.184750	0.117294	0.601891
	C174	C	0.824844	0.116749	0.379072
	C175	C	0.824713	0.873685	0.602800
	C176	C	0.391938	0.173974	0.867613
	C177	C	0.617027	0.173646	0.113849
	C178	C	0.390821	0.813670	0.111980
	C179	C	0.618142	0.814726	0.867899
	C180	C	0.391267	0.869804	0.170729
	C181	C	0.617513	0.115720	0.170176
	C182	C	0.391648	0.116843	0.810199
	C183	C	0.617737	0.871844	0.810033
	C184	C	0.878923	0.177424	0.380903
	C185	C	0.129399	0.176985	0.601532
	C186	C	0.128548	0.813078	0.379580
	C187	C	0.881101	0.814687	0.602504
	C188	C	0.185570	0.382052	0.867935
	C189	C	0.184717	0.606294	0.112204
	C190	C	0.822893	0.382303	0.115346
	C191	C	0.825542	0.606017	0.871241
	C192	C	0.407856	0.087413	0.587886
	C193	C	0.600742	0.902397	0.587681
	C194	C	0.601041	0.086773	0.391455
	C195	C	0.406850	0.901649	0.391967
	C196	C	0.600381	0.395367	0.083359
	C197	C	0.601782	0.591843	0.897932
	C198	C	0.408879	0.591582	0.082748
	C199	C	0.409081	0.395530	0.899532
	C200	C	0.098369	0.591757	0.394406
	C201	C	0.910311	0.592200	0.589663
	C202	C	0.098201	0.398862	0.587196
	C203	C	0.911221	0.400036	0.397606
	C204	C	0.907075	0.586235	0.089455
	C205	C	0.100296	0.402340	0.089569
	C206	C	0.102437	0.586184	0.892427
	C207	C	0.908613	0.401496	0.892992
	C208	C	0.101122	0.896360	0.582794
	C209	C	0.098896	0.092454	0.399131
	C210	C	0.908312	0.092133	0.583464
	C211	C	0.907752	0.895896	0.398207
	C212	C	0.598010	0.089062	0.894959
	C213	C	0.410828	0.088254	0.086380
	C214	C	0.598547	0.896627	0.087691
	C215	C	0.410800	0.896871	0.893462
	Zn216	Zn	0.504578	-0.005212	0.740796
	Zn217	Zn	0.504173	-0.006522	0.238938
	Zn218	Zn	0.754738	0.493222	-0.008638
	Zn219	Zn	0.254829	0.493334	-0.009107
	Zn220	Zn	0.004387	0.743448	0.491516
	Zn221	Zn	0.003792	0.245853	0.491361
	Zn222	Zn	0.005213	0.494688	0.740075
	Zn223	Zn	0.003679	0.494838	0.242219
	Zn224	Zn	0.504995	0.744713	-0.009839
	Zn225	Zn	0.504467	0.241748	-0.008922
	Zn226	Zn	0.754721	-0.005239	0.490273
	Zn227	Zn	0.253668	-0.005149	0.490017
	N228	N	0.415789	0.959426	0.671081
	N229	N	0.593661	0.029286	0.672139
	N230	N	0.592152	0.958541	0.309133
	N231	N	0.415373	0.028786	0.307859
	N232	N	0.682713	0.407811	0.954720
	N233	N	0.682226	0.578780	0.027486
	N234	N	0.326813	0.579154	0.954156
	N235	N	0.326244	0.407703	0.027676
	N236	N	0.967733	0.672814	0.405898
	N237	N	0.041301	0.673152	0.577371
	N238	N	0.968646	0.314875	0.579195
	N239	N	0.039935	0.315572	0.404460
	N240	N	0.967873	0.409435	0.669255
	N241	N	0.041426	0.581455	0.670445
	N242	N	0.968404	0.582519	0.311553
	N243	N	0.040194	0.409711	0.313452
	N244	N	0.416594	0.675106	0.955320
	N245	N	0.593337	0.675620	0.025555
	N246	N	0.593251	0.311354	0.956218
	N247	N	0.416123	0.311411	0.026555
	N248	N	0.683234	0.958373	0.403935
	N249	N	0.682023	0.031495	0.574476
	N250	N	0.326384	0.958192	0.574439
	N251	N	0.325221	0.030410	0.403630
	N252	N	0.914037	0.459824	0.174571
	N253	N	0.091988	0.530395	0.172145
	N254	N	0.094500	0.459246	0.808166
	N255	N	0.917755	0.530051	0.811180
	N256	N	0.181732	0.909531	0.453388
	N257	N	0.182291	0.080584	0.526666
	N258	N	0.827339	0.079591	0.454114
	N259	N	0.825567	0.908649	0.526834
	N260	N	0.468612	0.172410	0.903850
	N261	N	0.540286	0.172318	0.077786
	N262	N	0.467687	0.814936	0.075956
	N263	N	0.541089	0.814768	0.903555
	N264	N	0.468595	0.905068	0.170797
	N265	N	0.540945	0.078782	0.168502
	N266	N	0.468294	0.080530	0.811237
	N267	N	0.540630	0.907006	0.810356
	N268	N	0.914244	0.177556	0.457066
	N269	N	0.092842	0.176852	0.526059
	N270	N	0.093063	0.812548	0.455686
	N271	N	0.916478	0.813689	0.526388
	N272	N	0.183978	0.457162	0.904497
	N273	N	0.182895	0.530779	0.076178
	N274	N	0.825039	0.457193	0.077965
	N275	N	0.826619	0.530032	0.906398
	O276	O	0.368390	0.677194	0.341471
	H277	H	0.360157	0.691333	0.343005
	H278	H	0.372583	0.665068	0.352195
	O279	O	0.639800	0.471052	0.502206
	H280	H	0.638495	0.470357	0.487126
	H281	H	0.648203	0.478292	0.495161
	O282	O	0.449714	0.516816	0.456209
	H283	H	0.449056	0.513261	0.442286
	H284	H	0.453853	0.521295	0.452298
	O285	O	1.571784	0.413941	0.358399
	H286	H	1.572231	0.410121	0.358364
	H287	H	1.570933	0.424994	0.339420
	O288	O	-0.029021	-0.179215	0.955520
	H289	H	-0.037158	-0.199087	0.980375
	H290	H	-0.045264	-0.181001	0.958544
	O291	O	0.562773	0.597970	0.488691
	H292	H	0.570990	0.598621	0.479586
	H293	H	0.564068	0.612948	0.500251
	O294	O	0.896281	1.153093	0.839409
	H295	H	0.890991	1.158015	0.827545
	H296	H	0.920684	1.159456	0.855715
	O297	O	0.860593	0.995836	1.194142
	H298	H	0.849700	1.012138	1.199683
	H299	H	0.878791	0.990559	1.189556
	O300	O	0.132591	0.011209	-0.113468
	H301	H	0.138956	-0.000330	-0.116317
	H302	H	0.133220	-0.002460	-0.116664
	O303	O	0.003785	1.096383	0.887470
	H304	H	0.017314	1.099709	0.896462
	H305	H	0.003293	1.106060	0.896581
	O306	O	1.206606	-0.104095	-0.190994
	H307	H	1.215353	-0.106744	-0.196648
	H308	H	1.215226	-0.127956	-0.174711
	O309	O	0.326534	0.438134	0.653078
	H310	H	0.319538	0.461248	0.658572
	H311	H	0.320954	0.436853	0.640908
	O312	O	1.108871	0.905164	-0.112163
	H313	H	1.098155	0.894567	-0.122807
	H314	H	1.108955	0.904867	-0.102974
	O315	O	0.502298	0.650821	0.431335
	H316	H	0.495309	0.649385	0.432252
	H317	H	0.521657	0.670845	0.422968
	O318	O	0.322214	0.560745	0.378364
	H319	H	0.324534	0.559898	0.383472
	H320	H	0.330372	0.554342	0.383040
	O321	O	0.949809	0.075169	0.922425
	H322	H	0.977185	0.076514	0.919376
	H323	H	0.943625	0.050876	0.912855
	O324	O	0.039008	0.114471	0.807000
	H325	H	0.049518	0.114921	0.784399
	H326	H	0.039353	0.094709	0.813795
	O327	O	-0.050946	1.006875	1.101169
	H328	H	-0.065679	1.009740	1.088386
	H329	H	-0.073583	0.988702	1.108695
	O330	O	0.544262	0.414649	0.431106
	H331	H	0.551722	0.414636	0.432472
	H332	H	0.538021	0.413896	0.435488
	O333	O	1.199373	0.979556	0.983677
	H334	H	1.202774	0.973475	0.984140
	H335	H	1.207825	0.990639	0.974024
	O336	O	0.560067	0.401782	0.617232
	H337	H	0.568437	0.399071	0.621342
	H338	H	0.550143	0.398116	0.607281
	O339	O	0.502847	0.603135	0.451968
	H340	H	0.473785	0.597759	0.452489
	H341	H	0.504049	0.606978	0.460670
	O342	O	-0.194302	0.863741	0.999848
	H343	H	-0.196383	0.878682	0.997376
	H344	H	-0.209170	0.868995	1.006918
	O345	O	0.102578	0.872799	0.914093
	H346	H	0.076214	0.867460	0.933078
	H347	H	0.104459	0.877516	0.923369
	O348	O	0.326832	0.326875	0.594992
	H349	H	0.326177	0.348141	0.583147
	H350	H	0.346715	0.321301	0.593746
	O351	O	0.036749	0.053057	0.013284
	H352	H	0.038917	0.047995	0.010011
	H353	H	0.042786	0.060881	0.010305
	O354	O	0.583256	0.480132	-0.639336
	H355	H	0.568557	0.475694	-0.643580
	H356	H	0.578875	0.478423	-0.649407
	O357	O	0.095642	1.201623	0.124034
	H358	H	0.095730	1.205889	0.122950
	H359	H	0.114207	1.216945	0.123469
	O360	O	0.125117	0.197023	0.102640
	H361	H	0.138449	0.184374	0.090792
	H362	H	0.124669	0.191854	0.096618
	O363	O	0.376413	0.355504	0.526137
	H364	H	0.373031	0.357535	0.542587
	H365	H	0.368921	0.354222	0.542435
	O366	O	0.672349	0.628977	0.664728
	H367	H	0.680404	0.612296	0.660665
	H368	H	0.681863	0.636568	0.638586
	O369	O	0.535450	0.566058	0.401672
	H370	H	0.523354	0.572958	0.415044
	H371	H	0.534883	0.559462	0.397776
	O372	O	0.502653	0.292081	0.674172
	H373	H	0.501569	0.269895	0.696015
	H374	H	0.496187	0.296983	0.657449
	O375	O	0.485301	0.356685	0.370583
	H376	H	0.485685	0.340417	0.361927
	H377	H	0.478771	0.350122	0.385946
	O378	O	0.424926	0.606588	0.662819
	H379	H	0.431892	0.606605	0.656988
	H380	H	0.448169	0.610470	0.654863
	O381	O	0.593256	0.449384	0.584757
	H382	H	0.587794	0.447668	0.600847
	H383	H	0.589386	0.444132	0.588497
	O384	O	0.636181	0.638104	1.484657
	H385	H	0.625753	0.631531	1.501392
	H386	H	0.646542	0.623543	1.465961
	O387	O	0.980960	0.903757	0.188957
	H388	H	0.976321	0.908821	0.185837
	H389	H	0.971685	0.911023	0.189797
	O390	O	0.552941	0.488140	0.483238
	H391	H	0.541566	0.466939	0.486621
	H392	H	0.564932	0.491089	0.474119
	O393	O	1.185621	0.065487	1.184572
	H394	H	1.202473	0.056369	1.193287
	H395	H	1.183456	0.058856	1.169313
	O396	O	-0.054743	0.811838	0.859347
	H397	H	-0.048542	0.828699	0.862913
	H398	H	-0.042335	0.802931	0.856833
	O399	O	0.522036	0.394514	0.483361
	H400	H	0.523779	0.392299	0.484004
	H401	H	0.527215	0.401076	0.483444
	O402	O	0.972082	-0.130725	0.898835
	H403	H	0.981105	-0.135246	0.894970
	H404	H	0.966784	-0.124834	0.889670
	O405	O	0.176671	-0.012056	0.037613
	H406	H	0.179005	-0.019244	0.047241
	H407	H	0.172580	-0.011108	0.040799
	O408	O	0.868758	1.021848	0.812095
	H409	H	0.870523	1.018335	0.806095
	H410	H	0.875558	1.016964	0.816520
	O411	O	0.883346	0.934684	0.041378
	H412	H	0.883402	0.938838	0.028844
	H413	H	0.891148	0.958542	0.048706
	O414	O	-0.055035	0.014613	1.017876
	H415	H	-0.040485	0.002019	1.022259
	H416	H	-0.056122	0.032445	1.002689
	O417	O	0.467083	0.622520	0.684113
	H418	H	0.492881	0.621374	0.678972
	H419	H	0.485124	0.633111	0.698109
	O420	O	-0.132088	1.204679	0.007948
	H421	H	-0.141690	1.219239	0.000295
	H422	H	-0.132961	1.202203	-0.002585
	O423	O	0.920238	-0.206485	0.165916
	H424	H	0.906096	-0.191662	0.168819
	H425	H	0.916243	-0.210199	0.171620
	O426	O	-0.090489	-0.020268	1.099762
	H427	H	-0.077775	-0.037045	1.120872
	H428	H	-0.091635	-0.006987	1.085145
	O429	O	0.510951	0.498959	0.323377
	H430	H	0.504498	0.500742	0.328082
	H431	H	0.490019	0.497872	0.327483
