data_Molecule from HDF5

_cell_length_a		16.288086
_cell_length_b		16.277782
_cell_length_c		16.214939
_cell_angle_alpha	90.087237
_cell_angle_beta	90.040957
_cell_angle_gamma	90.032546
_symmetry_space_group_name_H-M	'P 1'
_symmetry_Int_Tables_number		1

loop_
	_symmetry_equiv_pos_as_xyz
	x,y,z

loop_
	_atom_site_label
	_atom_site_type_symbol
	_atom_site_fract_x
	_atom_site_fract_y
	_atom_site_fract_z
	H0	H	0.402525	0.835723	0.712807
	H1	H	0.597125	0.164213	0.713090
	H2	H	0.598265	0.835743	0.285129
	H3	H	0.403546	0.164069	0.286925
	H4	H	0.713897	0.401976	0.835477
	H5	H	0.713744	0.599430	0.164423
	H6	H	0.285003	0.597511	0.835713
	H7	H	0.286016	0.401772	0.164807
	H8	H	0.836108	0.714563	0.402486
	H9	H	0.163789	0.715903	0.600364
	H10	H	0.836201	0.284749	0.599684
	H11	H	0.163617	0.284840	0.401896
	H12	H	0.835604	0.402866	0.713604
	H13	H	0.163525	0.598949	0.715376
	H14	H	0.835771	0.596828	0.287605
	H15	H	0.163856	0.402611	0.287049
	H16	H	0.401638	0.712570	0.834993
	H17	H	0.597907	0.714765	0.163720
	H18	H	0.597894	0.286319	0.835611
	H19	H	0.400277	0.285384	0.163480
	H20	H	0.715529	0.836432	0.399979
	H21	H	0.714283	0.163536	0.597179
	H22	H	0.285421	0.835969	0.597711
	H23	H	0.285209	0.163373	0.400814
	H24	H	0.902900	0.335779	0.213507
	H25	H	0.097669	0.663256	0.215133
	H26	H	0.097074	0.335940	0.786185
	H27	H	0.902615	0.664073	0.787050
	H28	H	0.213714	0.901765	0.335286
	H29	H	0.215307	0.099370	0.664164
	H30	H	0.786827	0.097799	0.335214
	H31	H	0.785805	0.901057	0.663455
	H32	H	0.335904	0.213888	0.902117
	H33	H	0.663272	0.215249	0.098903
	H34	H	0.336727	0.784852	0.097668
	H35	H	0.662622	0.784199	0.899896
	H36	H	0.335832	0.902839	0.212198
	H37	H	0.663864	0.097349	0.213149
	H38	H	0.336386	0.097389	0.785824
	H39	H	0.664711	0.903836	0.787990
	H40	H	0.902093	0.213253	0.335413
	H41	H	0.097923	0.213684	0.664777
	H42	H	0.098638	0.784914	0.335969
	H43	H	0.902684	0.786811	0.664505
	H44	H	0.214136	0.335942	0.901135
	H45	H	0.213724	0.663537	0.098808
	H46	H	0.785188	0.336338	0.099160
	H47	H	0.785876	0.664177	0.902265
	H48	H	0.410697	0.115606	0.593294
	H49	H	0.595074	0.883050	0.593620
	H50	H	0.594175	0.117852	0.401270
	H51	H	0.406376	0.881436	0.400581
	H52	H	0.586348	0.400839	0.116277
	H53	H	0.594985	0.593236	0.882197
	H54	H	0.410035	0.608602	0.120429
	H55	H	0.402151	0.403918	0.880597
	H56	H	0.115960	0.589915	0.406073
	H57	H	0.886845	0.589315	0.587624
	H58	H	0.114838	0.412903	0.594928
	H59	H	0.885294	0.419776	0.399667
	H60	H	0.118970	0.402409	0.597968
	H61	H	0.882149	0.591283	0.602660
	H62	H	0.118643	0.596915	0.405349
	H63	H	0.877944	0.393125	0.399369
	H64	H	0.391631	0.587850	0.119911
	H65	H	0.593046	0.590448	0.883160
	H66	H	0.602317	0.403892	0.120514
	H67	H	0.405016	0.411470	0.884133
	H68	H	0.589054	0.115026	0.408874
	H69	H	0.592081	0.882732	0.593209
	H70	H	0.405737	0.116177	0.589182
	H71	H	0.411225	0.884377	0.408259
	H72	H	0.909372	0.616783	0.098178
	H73	H	0.088636	0.380111	0.106374
	H74	H	0.086587	0.612928	0.911668
	H75	H	0.919098	0.386652	0.906322
	H76	H	0.093780	0.907486	0.617433
	H77	H	0.100401	0.088477	0.382222
	H78	H	0.902399	0.089069	0.617187
	H79	H	0.908480	0.913953	0.384813
	H80	H	0.615912	0.094098	0.909982
	H81	H	0.386308	0.082157	0.095793
	H82	H	0.615588	0.910543	0.092789
	H83	H	0.381367	0.900853	0.904059
	H84	H	0.617839	0.904058	0.094534
	H85	H	0.378401	0.100197	0.100630
	H86	H	0.616757	0.092069	0.904767
	H87	H	0.384738	0.907371	0.911081
	H88	H	0.912294	0.091002	0.615524
	H89	H	0.087101	0.088779	0.385640
	H90	H	0.094589	0.906979	0.617398
	H91	H	0.913293	0.902116	0.382605
	H92	H	0.098862	0.617044	0.912244
	H93	H	0.084745	0.388692	0.083789
	H94	H	0.907540	0.615323	0.089925
	H95	H	0.898385	0.384699	0.919894
	H96	H	0.404972	0.117454	0.595208
	H97	H	0.593712	0.883953	0.591352
	H98	H	0.598511	0.116644	0.409561
	H99	H	0.402277	0.881915	0.408802
	H100	H	0.591807	0.416347	0.114579
	H101	H	0.591848	0.593838	0.882613
	H102	H	0.417404	0.583513	0.110573
	H103	H	0.410659	0.405665	0.883279
	H104	H	0.115319	0.594650	0.411853
	H105	H	0.881147	0.603105	0.591693
	H106	H	0.115219	0.404439	0.586753
	H107	H	0.886827	0.404277	0.422378
	H108	H	0.901657	0.618324	0.095159
	H109	H	0.106768	0.379573	0.089865
	H110	H	0.091895	0.617899	0.901026
	H111	H	0.898467	0.377841	0.895752
	H112	H	0.094483	0.908083	0.617853
	H113	H	0.092711	0.100407	0.381040
	H114	H	0.906353	0.098336	0.619195
	H115	H	0.901612	0.904916	0.380064
	H116	H	0.618062	0.097583	0.905176
	H117	H	0.385232	0.097056	0.081590
	H118	H	0.616062	0.905903	0.088433
	H119	H	0.383489	0.910653	0.901292
	C120	C	0.378582	0.008077	0.621030
	C121	C	0.621810	0.991461	0.621229
	C122	C	0.621840	0.008031	0.378030
	C123	C	0.378646	0.991337	0.377935
	C124	C	0.621492	0.378947	0.008400
	C125	C	0.621304	0.621056	0.991234
	C126	C	0.377809	0.621520	0.008450
	C127	C	0.377731	0.378630	0.991440
	C128	C	0.008466	0.621925	0.379114
	C129	C	0.991748	0.622308	0.622382
	C130	C	0.007981	0.378431	0.621691
	C131	C	0.991494	0.377539	0.378602
	C132	C	0.877943	0.508438	0.122422
	C133	C	0.121614	0.491183	0.121911
	C134	C	0.121197	0.508029	0.878999
	C135	C	0.877971	0.491676	0.879120
	C136	C	0.122014	0.878566	0.508300
	C137	C	0.121927	0.121644	0.491714
	C138	C	0.879101	0.121096	0.508250
	C139	C	0.879259	0.878721	0.491278
	C140	C	0.508624	0.122185	0.878279
	C141	C	0.491302	0.121963	0.121392
	C142	C	0.508296	0.878522	0.120498
	C143	C	0.491414	0.878242	0.877749
	C144	C	0.381667	0.884724	0.675406
	C145	C	0.618068	0.115244	0.675469
	C146	C	0.619031	0.884724	0.322911
	C147	C	0.382339	0.115180	0.324111
	C148	C	0.676181	0.381561	0.884608
	C149	C	0.675911	0.619209	0.115339
	C150	C	0.322822	0.618410	0.884717
	C151	C	0.323645	0.381472	0.115396
	C152	C	0.885008	0.676582	0.381786
	C153	C	0.115230	0.677029	0.619806
	C154	C	0.884974	0.322951	0.619644
	C155	C	0.114976	0.323179	0.381577
	C156	C	0.884608	0.381522	0.676411
	C157	C	0.115005	0.619218	0.677288
	C158	C	0.884804	0.618174	0.324587
	C159	C	0.115125	0.381518	0.324647
	C160	C	0.380873	0.675478	0.884207
	C161	C	0.618336	0.676397	0.115037
	C162	C	0.618407	0.324118	0.884686
	C163	C	0.380566	0.323777	0.114996
	C164	C	0.677300	0.885145	0.379934
	C165	C	0.676302	0.114838	0.618114
	C166	C	0.323523	0.884938	0.618108
	C167	C	0.323932	0.114643	0.380796
	C168	C	0.881385	0.384750	0.176487
	C169	C	0.118375	0.614666	0.176798
	C170	C	0.117924	0.384705	0.823950
	C171	C	0.881414	0.615002	0.824543
	C172	C	0.176016	0.881074	0.384386
	C173	C	0.177280	0.119520	0.615154
	C174	C	0.824342	0.118518	0.384483
	C175	C	0.824039	0.881044	0.614763
	C176	C	0.385006	0.176573	0.880607
	C177	C	0.614594	0.176811	0.118951
	C178	C	0.385118	0.823550	0.117835
	C179	C	0.614458	0.823181	0.880234
	C180	C	0.384944	0.881683	0.175148
	C181	C	0.614954	0.118783	0.176029
	C182	C	0.385127	0.118615	0.823168
	C183	C	0.615305	0.882249	0.824296
	C184	C	0.881839	0.175619	0.384558
	C185	C	0.118955	0.176322	0.615475
	C186	C	0.118854	0.823183	0.384793
	C187	C	0.881908	0.824264	0.615257
	C188	C	0.175758	0.384663	0.881451
	C189	C	0.176267	0.614599	0.119340
	C190	C	0.823353	0.385009	0.119311
	C191	C	0.823564	0.615115	0.881847
	C192	C	0.400570	0.094418	0.598927
	C193	C	0.600077	0.905273	0.599357
	C194	C	0.600201	0.094309	0.400106
	C195	C	0.400184	0.904998	0.399695
	C196	C	0.599913	0.400564	0.094980
	C197	C	0.599612	0.599095	0.904944
	C198	C	0.399980	0.599943	0.094671
	C199	C	0.399584	0.400416	0.904874
	C200	C	0.094541	0.600295	0.401169
	C201	C	0.905702	0.600987	0.600441
	C202	C	0.094076	0.400139	0.599838
	C203	C	0.905343	0.399266	0.400530
	C204	C	0.899647	0.594509	0.100759
	C205	C	0.099825	0.405080	0.099699
	C206	C	0.099055	0.593879	0.901584
	C207	C	0.899038	0.405269	0.900818
	C208	C	0.100611	0.900818	0.595078
	C209	C	0.099828	0.099151	0.405177
	C210	C	0.900612	0.099210	0.594897
	C211	C	0.901292	0.900541	0.404833
	C212	C	0.594653	0.100882	0.900140
	C213	C	0.405644	0.099798	0.099219
	C214	C	0.594232	0.900399	0.098382
	C215	C	0.405375	0.899816	0.899344
	Zn216	Zn	0.500270	0.000162	0.749956
	Zn217	Zn	0.500126	-0.000014	0.249571
	Zn218	Zn	0.749729	0.500290	0.000485
	Zn219	Zn	0.249826	0.499830	0.000221
	Zn220	Zn	0.000361	0.750856	0.500599
	Zn221	Zn	-0.000238	0.249432	0.500362
	Zn222	Zn	-0.000192	0.500013	0.750524
	Zn223	Zn	-0.000083	0.499637	0.250782
	Zn224	Zn	0.499964	0.749735	-0.000874
	Zn225	Zn	0.499331	0.250541	-0.000007
	Zn226	Zn	0.750972	-0.000111	0.499359
	Zn227	Zn	0.250133	0.000030	0.499439
	N228	N	0.415138	0.962313	0.677400
	N229	N	0.585140	0.037458	0.677549
	N230	N	0.585450	0.962262	0.321531
	N231	N	0.415480	0.037452	0.322066
	N232	N	0.677993	0.415075	0.962460
	N233	N	0.677939	0.585595	0.037527
	N234	N	0.320870	0.585599	0.962691
	N235	N	0.321783	0.414835	0.037488
	N236	N	0.962748	0.678967	0.414980
	N237	N	0.037669	0.679134	0.586380
	N238	N	0.962636	0.321066	0.586259
	N239	N	0.037174	0.320684	0.414499
	N240	N	0.961964	0.415433	0.677674
	N241	N	0.037412	0.585847	0.678877
	N242	N	0.962519	0.584956	0.322991
	N243	N	0.037375	0.414761	0.322971
	N244	N	0.414593	0.677497	0.962091
	N245	N	0.584976	0.677736	0.037010
	N246	N	0.585162	0.322349	0.962638
	N247	N	0.413712	0.322214	0.037084
	N248	N	0.679055	0.962809	0.413523
	N249	N	0.678909	0.036938	0.585197
	N250	N	0.321672	0.962728	0.585061
	N251	N	0.321574	0.036709	0.413514
	N252	N	0.914840	0.462262	0.178389
	N253	N	0.085149	0.536939	0.178599
	N254	N	0.084631	0.462344	0.822495
	N255	N	0.914582	0.537315	0.822949
	N256	N	0.178030	0.914715	0.462154
	N257	N	0.179158	0.086107	0.537154
	N258	N	0.822657	0.085210	0.462465
	N259	N	0.822238	0.914177	0.536701
	N260	N	0.462395	0.178653	0.914358
	N261	N	0.536833	0.179187	0.085923
	N262	N	0.462870	0.821258	0.084857
	N263	N	0.536478	0.820522	0.912675
	N264	N	0.462560	0.915221	0.176789
	N265	N	0.537459	0.085109	0.177412
	N266	N	0.462903	0.085530	0.821758
	N267	N	0.537847	0.915909	0.822836
	N268	N	0.915032	0.177266	0.462599
	N269	N	0.085372	0.177665	0.537598
	N270	N	0.086095	0.821685	0.463076
	N271	N	0.915828	0.823158	0.537601
	N272	N	0.177872	0.462395	0.914816
	N273	N	0.178239	0.536887	0.085974
	N274	N	0.821102	0.462865	0.086537
	N275	N	0.821318	0.537403	0.915219
