data_Molecule from HDF5

_cell_length_a		16.231718
_cell_length_b		16.421294
_cell_length_c		16.045298
_cell_angle_alpha	90.164142
_cell_angle_beta	90.220823
_cell_angle_gamma	89.866880
_symmetry_space_group_name_H-M	'P 1'
_symmetry_Int_Tables_number		1

loop_
	_symmetry_equiv_pos_as_xyz
	x,y,z

loop_
	_atom_site_label
	_atom_site_type_symbol
	_atom_site_fract_x
	_atom_site_fract_y
	_atom_site_fract_z
	H0	H	0.409911	0.834486	0.714767
	H1	H	0.602759	0.160319	0.718369
	H2	H	0.601583	0.835096	0.287838
	H3	H	0.405900	0.162148	0.286872
	H4	H	0.716989	0.398845	0.836100
	H5	H	0.718366	0.594890	0.167714
	H6	H	0.290290	0.597952	0.837094
	H7	H	0.292357	0.402374	0.167006
	H8	H	0.842087	0.716041	0.397786
	H9	H	0.166491	0.715334	0.605735
	H10	H	0.841122	0.280103	0.603363
	H11	H	0.166782	0.278754	0.399480
	H12	H	0.838583	0.401268	0.713025
	H13	H	0.168418	0.593877	0.715574
	H14	H	0.839196	0.592653	0.288677
	H15	H	0.169887	0.401559	0.291022
	H16	H	0.402949	0.712050	0.837866
	H17	H	0.607515	0.713728	0.166104
	H18	H	0.606096	0.281257	0.837777
	H19	H	0.404053	0.284797	0.166993
	H20	H	0.722098	0.835913	0.401476
	H21	H	0.720808	0.159796	0.603412
	H22	H	0.288434	0.836788	0.602438
	H23	H	0.285030	0.160305	0.400023
	H24	H	0.906415	0.334613	0.215554
	H25	H	0.103527	0.659706	0.219177
	H26	H	0.102659	0.335608	0.785367
	H27	H	0.903764	0.660737	0.786373
	H28	H	0.218521	0.898411	0.336649
	H29	H	0.217616	0.097303	0.667556
	H30	H	0.787833	0.098366	0.338119
	H31	H	0.793031	0.899562	0.667984
	H32	H	0.342898	0.216325	0.897450
	H33	H	0.666968	0.216811	0.107309
	H34	H	0.342521	0.779020	0.105902
	H35	H	0.666498	0.778465	0.899682
	H36	H	0.339537	0.901954	0.214407
	H37	H	0.670226	0.094200	0.215486
	H38	H	0.340291	0.094408	0.789364
	H39	H	0.670085	0.900249	0.791759
	H40	H	0.899836	0.212842	0.337963
	H41	H	0.108023	0.215976	0.664927
	H42	H	0.106930	0.781281	0.337638
	H43	H	0.903916	0.783108	0.666299
	H44	H	0.223846	0.338102	0.897257
	H45	H	0.221903	0.660528	0.103908
	H46	H	0.787475	0.336474	0.103492
	H47	H	0.784457	0.658762	0.900066
	H48	H	0.413706	0.114771	0.604305
	H49	H	0.608808	0.880167	0.594212
	H50	H	0.607234	0.118086	0.404434
	H51	H	0.410725	0.881209	0.398929
	H52	H	0.596744	0.407060	0.119808
	H53	H	0.587793	0.596761	0.883162
	H54	H	0.410585	0.587876	0.121725
	H55	H	0.407032	0.415470	0.883614
	H56	H	0.121879	0.590030	0.408162
	H57	H	0.890656	0.586408	0.585577
	H58	H	0.118052	0.405929	0.586823
	H59	H	0.891270	0.409181	0.416514
	H60	H	0.119704	0.407875	0.594776
	H61	H	0.884041	0.590868	0.601534
	H62	H	0.121764	0.594291	0.413269
	H63	H	0.885452	0.407557	0.400765
	H64	H	0.417464	0.587450	0.117933
	H65	H	0.604893	0.590534	0.880143
	H66	H	0.594523	0.406633	0.119952
	H67	H	0.425479	0.405832	0.887657
	H68	H	0.586439	0.111103	0.405979
	H69	H	0.598773	0.880030	0.604168
	H70	H	0.417058	0.109607	0.589242
	H71	H	0.420547	0.888587	0.413886
	H72	H	0.915047	0.612296	0.096463
	H73	H	0.105757	0.380604	0.094895
	H74	H	0.097887	0.614862	0.908265
	H75	H	0.900060	0.379947	0.910501
	H76	H	0.096965	0.912456	0.618517
	H77	H	0.096403	0.093511	0.381430
	H78	H	0.912036	0.085310	0.619621
	H79	H	0.910571	0.919686	0.387038
	H80	H	0.621832	0.090634	0.912531
	H81	H	0.389228	0.092475	0.090642
	H82	H	0.620382	0.913066	0.098695
	H83	H	0.384566	0.901102	0.904433
	H84	H	0.624217	0.895417	0.097510
	H85	H	0.388306	0.090475	0.093165
	H86	H	0.621577	0.091879	0.913697
	H87	H	0.388075	0.898951	0.915376
	H88	H	0.919967	0.091104	0.618817
	H89	H	0.097195	0.083469	0.384501
	H90	H	0.091255	0.901225	0.620227
	H91	H	0.926695	0.902262	0.386379
	H92	H	0.095333	0.612896	0.909163
	H93	H	0.096020	0.382630	0.097644
	H94	H	0.912448	0.610775	0.088716
	H95	H	0.915280	0.380730	0.897280
	H96	H	0.401661	0.116123	0.593044
	H97	H	0.595362	0.884703	0.590039
	H98	H	0.598925	0.109846	0.423880
	H99	H	0.402990	0.883441	0.416534
	H100	H	0.596390	0.405179	0.120819
	H101	H	0.592127	0.580347	0.887559
	H102	H	0.415653	0.594449	0.121611
	H103	H	0.410102	0.396025	0.878990
	H104	H	0.119969	0.588315	0.414000
	H105	H	0.885585	0.601445	0.588893
	H106	H	0.120929	0.400073	0.592285
	H107	H	0.884761	0.394495	0.410657
	H108	H	0.907327	0.613688	0.093908
	H109	H	0.098581	0.384423	0.087739
	H110	H	0.097464	0.613074	0.911325
	H111	H	0.917399	0.387479	0.915855
	H112	H	0.103930	0.902411	0.623734
	H113	H	0.088131	0.089065	0.385881
	H114	H	0.911908	0.094318	0.622610
	H115	H	0.904457	0.898611	0.378880
	H116	H	0.621734	0.090036	0.914108
	H117	H	0.387460	0.093798	0.093922
	H118	H	0.618298	0.904164	0.083358
	H119	H	0.390140	0.909809	0.910598
	C120	C	0.382962	0.006536	0.624392
	C121	C	0.628206	0.989042	0.625274
	C122	C	0.627151	0.006324	0.380948
	C123	C	0.382024	0.991325	0.380228
	C124	C	0.625374	0.376631	0.010845
	C125	C	0.625737	0.618755	0.992452
	C126	C	0.384368	0.618884	0.011213
	C127	C	0.383910	0.377208	0.992496
	C128	C	0.013097	0.619718	0.380741
	C129	C	0.995179	0.620506	0.622825
	C130	C	0.011864	0.376082	0.621495
	C131	C	0.995596	0.374691	0.379679
	C132	C	0.882889	0.505491	0.122738
	C133	C	0.128147	0.489813	0.123506
	C134	C	0.126245	0.506803	0.879569
	C135	C	0.881290	0.489554	0.878976
	C136	C	0.126368	0.876088	0.511226
	C137	C	0.124620	0.118746	0.492985
	C138	C	0.883342	0.119556	0.511596
	C139	C	0.884515	0.877679	0.493445
	C140	C	0.513688	0.119469	0.882172
	C141	C	0.496254	0.120730	0.123741
	C142	C	0.512860	0.876050	0.122914
	C143	C	0.495909	0.874791	0.880917
	C144	C	0.387628	0.883547	0.678078
	C145	C	0.624368	0.111563	0.680872
	C146	C	0.623675	0.883981	0.325047
	C147	C	0.384671	0.113384	0.324457
	C148	C	0.680128	0.378361	0.886045
	C149	C	0.681455	0.616252	0.117700
	C150	C	0.328214	0.617737	0.886722
	C151	C	0.329192	0.380983	0.117313
	C152	C	0.890492	0.676716	0.379436
	C153	C	0.118071	0.676136	0.623885
	C154	C	0.889423	0.319433	0.621932
	C155	C	0.118112	0.317964	0.380511
	C156	C	0.888038	0.379851	0.676205
	C157	C	0.119032	0.615950	0.678653
	C158	C	0.888986	0.615383	0.325171
	C159	C	0.119876	0.378994	0.326370
	C160	C	0.384057	0.674529	0.887041
	C161	C	0.626410	0.675248	0.116731
	C162	C	0.624959	0.319662	0.886886
	C163	C	0.384672	0.322488	0.117233
	C164	C	0.683203	0.884281	0.381868
	C165	C	0.682694	0.111411	0.623423
	C166	C	0.327624	0.884712	0.621883
	C167	C	0.324650	0.112528	0.380825
	C168	C	0.886016	0.383282	0.177828
	C169	C	0.124728	0.611521	0.180668
	C170	C	0.123604	0.384388	0.823269
	C171	C	0.883212	0.611828	0.823897
	C172	C	0.181336	0.878142	0.386572
	C173	C	0.180503	0.117720	0.617515
	C174	C	0.825958	0.118111	0.387550
	C175	C	0.829856	0.879453	0.618122
	C176	C	0.391199	0.176751	0.880116
	C177	C	0.618743	0.177523	0.125091
	C178	C	0.390637	0.818723	0.123879
	C179	C	0.618253	0.817975	0.881094
	C180	C	0.389336	0.879906	0.178058
	C181	C	0.620413	0.116686	0.178996
	C182	C	0.390010	0.116264	0.825908
	C183	C	0.620004	0.878759	0.827425
	C184	C	0.882084	0.175035	0.387300
	C185	C	0.125773	0.176556	0.616330
	C186	C	0.125645	0.819871	0.387048
	C187	C	0.885218	0.821437	0.617204
	C188	C	0.183905	0.385693	0.879019
	C189	C	0.183701	0.611752	0.123300
	C190	C	0.826740	0.384033	0.122028
	C191	C	0.823899	0.610945	0.880558
	C192	C	0.404544	0.091407	0.602262
	C193	C	0.606945	0.903736	0.602821
	C194	C	0.604258	0.091048	0.404453
	C195	C	0.404766	0.906471	0.403159
	C196	C	0.602564	0.399604	0.097724
	C197	C	0.601775	0.595880	0.905934
	C198	C	0.407770	0.596339	0.098035
	C199	C	0.407174	0.399150	0.905845
	C200	C	0.098767	0.597453	0.404806
	C201	C	0.909291	0.599180	0.598991
	C202	C	0.097467	0.398239	0.598271
	C203	C	0.909486	0.397126	0.402483
	C204	C	0.905111	0.590352	0.099865
	C205	C	0.106535	0.404726	0.100310
	C206	C	0.103515	0.591586	0.902811
	C207	C	0.904076	0.404706	0.901363
	C208	C	0.103893	0.898699	0.598171
	C209	C	0.101002	0.095441	0.406357
	C210	C	0.907573	0.096858	0.598043
	C211	C	0.907212	0.900349	0.406600
	C212	C	0.599387	0.097362	0.906574
	C213	C	0.410483	0.098660	0.099622
	C214	C	0.598735	0.897828	0.099972
	C215	C	0.409797	0.896977	0.903568
	Zn216	Zn	0.505182	-0.002533	0.754153
	Zn217	Zn	0.504874	-0.001137	0.250818
	Zn218	Zn	0.753142	0.497088	0.001980
	Zn219	Zn	0.257212	0.499312	0.000906
	Zn220	Zn	0.004603	0.749638	0.501537
	Zn221	Zn	0.003485	0.246015	0.501530
	Zn222	Zn	0.003541	0.498096	0.750129
	Zn223	Zn	0.004502	0.497038	0.251994
	Zn224	Zn	0.504120	0.746073	0.001779
	Zn225	Zn	0.504773	0.249068	0.002258
	Zn226	Zn	0.757190	-0.002169	0.502989
	Zn227	Zn	0.252182	-0.001242	0.502409
	N228	N	0.421318	0.960278	0.679827
	N229	N	0.591377	0.034429	0.682227
	N230	N	0.589508	0.960764	0.324343
	N231	N	0.419305	0.036899	0.323685
	N232	N	0.680407	0.413141	0.964093
	N233	N	0.681145	0.581619	0.039581
	N234	N	0.328312	0.584067	0.965022
	N235	N	0.328207	0.413963	0.038580
	N236	N	0.968795	0.679547	0.412980
	N237	N	0.040084	0.679257	0.590065
	N238	N	0.967302	0.316909	0.588691
	N239	N	0.039563	0.315066	0.412729
	N240	N	0.965170	0.414706	0.676031
	N241	N	0.041548	0.582093	0.678006
	N242	N	0.966310	0.580821	0.325521
	N243	N	0.042600	0.413410	0.325707
	N244	N	0.418340	0.675303	0.965601
	N245	N	0.592698	0.677180	0.038022
	N246	N	0.591554	0.318492	0.965483
	N247	N	0.418096	0.320060	0.038604
	N248	N	0.685625	0.961439	0.415566
	N249	N	0.685531	0.034315	0.589874
	N250	N	0.324429	0.962052	0.589274
	N251	N	0.322894	0.035624	0.414836
	N252	N	0.920318	0.459878	0.178386
	N253	N	0.091011	0.534709	0.181055
	N254	N	0.088505	0.460640	0.823249
	N255	N	0.918101	0.535458	0.822851
	N256	N	0.182158	0.912257	0.465019
	N257	N	0.179658	0.082331	0.539906
	N258	N	0.826533	0.084240	0.465838
	N259	N	0.829336	0.913954	0.540081
	N260	N	0.469219	0.179076	0.914257
	N261	N	0.540505	0.180238	0.091498
	N262	N	0.468576	0.816021	0.090327
	N263	N	0.540099	0.815492	0.913514
	N264	N	0.466271	0.914940	0.177436
	N265	N	0.543222	0.082113	0.178303
	N266	N	0.467036	0.081365	0.826956
	N267	N	0.542659	0.913374	0.826954
	N268	N	0.917170	0.175978	0.465375
	N269	N	0.091651	0.177257	0.537699
	N270	N	0.092270	0.818362	0.465713
	N271	N	0.918427	0.820254	0.538388
	N272	N	0.185756	0.462696	0.913295
	N273	N	0.185887	0.535146	0.088440
	N274	N	0.824662	0.460976	0.088442
	N275	N	0.822579	0.533996	0.914129
	O276	O	0.933494	1.012245	-0.075363
	H277	H	0.942710	1.010597	-0.069395
	H278	H	0.939361	1.016155	-0.066838
	O279	O	0.477028	0.543041	0.464524
	H280	H	0.480653	0.539763	0.466779
	H281	H	0.488084	0.545221	0.473802
	O282	O	0.869618	0.937281	-0.019943
	H283	H	0.865507	0.929290	-0.012914
	H284	H	0.859342	0.951029	-0.017935
	O285	O	1.089572	-0.167964	0.863793
	H286	H	1.099168	-0.158437	0.864489
	H287	H	1.099515	-0.178046	0.850232
	O288	O	0.482975	0.568740	0.470835
	H289	H	0.479479	0.565902	0.468280
	H290	H	0.473571	0.573638	0.457696
	O291	O	0.423844	0.436987	0.546825
	H292	H	0.420392	0.445788	0.535656
	H293	H	0.414630	0.440778	0.547211
	O294	O	0.426560	0.553832	0.524321
	H295	H	0.416868	0.564037	0.527509
	H296	H	0.439322	0.552097	0.510250
	O297	O	-0.176476	-0.080120	0.996744
	H298	H	-0.156321	-0.090787	0.987415
	H299	H	-0.191612	-0.075365	0.985271
	O300	O	0.549763	0.548396	0.539321
	H301	H	0.547826	0.547271	0.544185
	H302	H	0.541736	0.542707	0.535718
	O303	O	0.927249	0.934467	0.045968
	H304	H	0.918274	0.925059	0.051103
	H305	H	0.934386	0.939445	0.025410
	O306	O	0.015449	0.976666	0.870832
	H307	H	0.020725	0.980466	0.858148
	H308	H	0.025769	0.986322	0.878334
	O309	O	-0.105188	0.103670	0.938457
	H310	H	-0.104869	0.106138	0.934939
	H311	H	-0.106675	0.110805	0.945346
	O312	O	0.027234	0.123206	0.055381
	H313	H	0.044115	0.131764	0.067935
	H314	H	0.023086	0.117030	0.068210
	O315	O	1.118683	0.058088	0.099150
	H316	H	1.120629	0.057525	0.099275
	H317	H	1.116727	0.054479	0.095772
	O318	O	0.897710	0.991210	1.080076
	H319	H	0.893601	1.000655	1.084309
	H320	H	0.898756	0.995858	1.065416
	O321	O	0.133046	0.121699	1.059210
	H322	H	0.130257	0.138963	1.065320
	H323	H	0.146645	0.118853	1.064654
	O324	O	0.482099	0.552920	0.521553
	H325	H	0.471612	0.557119	0.520933
	H326	H	0.490241	0.554217	0.524437
	O327	O	0.016732	0.022530	0.029211
	H328	H	0.004797	0.023145	0.028630
	H329	H	0.014391	0.026231	0.029347
	O330	O	0.464294	0.499421	0.542880
	H331	H	0.456777	0.493572	0.546284
	H332	H	0.455816	0.501670	0.538895
	O333	O	-0.050119	0.975156	1.114365
	H334	H	-0.050925	0.968336	1.115746
	H335	H	-0.064848	0.974195	1.109316
	O336	O	-0.024702	0.045825	0.065507
	H337	H	-0.028218	0.037002	0.060792
	H338	H	-0.038319	0.043758	0.072314
	O339	O	0.456847	0.403388	0.455888
	H340	H	0.459528	0.409697	0.462386
	H341	H	0.443282	0.403953	0.455362
	O342	O	1.035533	1.155114	1.075702
	H343	H	1.037779	1.157471	1.084985
	H344	H	1.035513	1.152632	1.080159
	O345	O	1.072853	0.938242	0.015404
	H346	H	1.071851	0.925509	0.013238
	H347	H	1.083519	0.952612	0.006812
	O348	O	0.394710	0.608316	0.409830
	H349	H	0.398957	0.609611	0.415963
	H350	H	0.403516	0.609214	0.402503
	O351	O	0.099854	0.959065	-0.083804
	H352	H	0.092911	0.977060	-0.087311
	H353	H	0.091789	0.957155	-0.074472
	O354	O	0.524597	0.563884	0.519875
	H355	H	0.524951	0.559253	0.514768
	H356	H	0.523056	0.567358	0.520492
	O357	O	1.157822	0.055069	1.051632
	H358	H	1.168059	0.040401	1.052088
	H359	H	1.154963	0.061369	1.048934
	O360	O	0.554868	0.468490	0.505601
	H361	H	0.560339	0.470645	0.504972
	H362	H	0.555331	0.464891	0.502273
	O363	O	0.466988	0.414764	0.518975
	H364	H	0.456764	0.418731	0.511411
	H365	H	0.466946	0.412535	0.527303
	O366	O	0.980812	0.953700	0.993864
	H367	H	0.987399	0.958761	0.994160
	H368	H	0.984435	0.944062	0.981162
	O369	O	1.050132	-0.049513	0.879431
	H370	H	1.045262	-0.038392	0.898237
	H371	H	1.040423	-0.049402	0.870678
	O372	O	0.007689	-0.057224	-0.072953
	H373	H	0.002149	-0.057360	-0.067028
	H374	H	-0.002664	-0.063088	-0.075510
	O375	O	1.053122	-0.117917	0.138051
	H376	H	1.052157	-0.122528	0.123586
	H377	H	1.042044	-0.136684	0.145118
	O378	O	0.541129	0.414938	0.478943
	H379	H	0.544786	0.418378	0.481122
	H380	H	0.545188	0.407124	0.474018
	O381	O	0.531313	0.464952	0.507407
	H382	H	0.523734	0.469647	0.510336
	H383	H	0.542301	0.463863	0.503606
