data_Molecule from HDF5

_cell_length_a		16.089004
_cell_length_b		16.379751
_cell_length_c		16.197849
_cell_angle_alpha	90.488135
_cell_angle_beta	90.117212
_cell_angle_gamma	90.166855
_symmetry_space_group_name_H-M	'P 1'
_symmetry_Int_Tables_number		1

loop_
	_symmetry_equiv_pos_as_xyz
	x,y,z

loop_
	_atom_site_label
	_atom_site_type_symbol
	_atom_site_fract_x
	_atom_site_fract_y
	_atom_site_fract_z
	H0	H	0.401047	0.831681	0.717726
	H1	H	0.602478	0.156536	0.724030
	H2	H	0.600792	0.833650	0.288078
	H3	H	0.399857	0.158164	0.289627
	H4	H	0.712642	0.397839	0.840883
	H5	H	0.712905	0.592749	0.170914
	H6	H	0.287460	0.591015	0.840812
	H7	H	0.289116	0.400276	0.170816
	H8	H	0.834789	0.709133	0.406352
	H9	H	0.163506	0.715686	0.609405
	H10	H	0.837331	0.280700	0.605454
	H11	H	0.165643	0.280071	0.402770
	H12	H	0.834841	0.400353	0.716247
	H13	H	0.165433	0.597558	0.721359
	H14	H	0.834766	0.592367	0.292990
	H15	H	0.166360	0.398146	0.290975
	H16	H	0.400698	0.708604	0.841116
	H17	H	0.603575	0.714766	0.168457
	H18	H	0.601010	0.278613	0.841904
	H19	H	0.397214	0.278529	0.168950
	H20	H	0.714601	0.832881	0.405845
	H21	H	0.715376	0.158458	0.605120
	H22	H	0.284621	0.833020	0.602241
	H23	H	0.284465	0.158219	0.406231
	H24	H	0.898813	0.333752	0.220477
	H25	H	0.101907	0.657874	0.224050
	H26	H	0.102043	0.336105	0.785847
	H27	H	0.898463	0.658879	0.791303
	H28	H	0.212534	0.897010	0.341366
	H29	H	0.215654	0.095618	0.669470
	H30	H	0.786279	0.093480	0.340374
	H31	H	0.788055	0.900789	0.670160
	H32	H	0.336509	0.209767	0.903098
	H33	H	0.664881	0.213895	0.108805
	H34	H	0.336921	0.779655	0.104562
	H35	H	0.666083	0.779483	0.903257
	H36	H	0.335463	0.896898	0.217661
	H37	H	0.666164	0.096093	0.220187
	H38	H	0.334936	0.090439	0.792216
	H39	H	0.666947	0.896807	0.791633
	H40	H	0.898524	0.212434	0.341934
	H41	H	0.106389	0.216657	0.667820
	H42	H	0.102787	0.777318	0.342917
	H43	H	0.895829	0.779918	0.668141
	H44	H	0.215020	0.333574	0.904125
	H45	H	0.218280	0.657873	0.109301
	H46	H	0.785230	0.332938	0.103478
	H47	H	0.784874	0.658322	0.908943
	H48	H	0.409615	0.107523	0.589907
	H49	H	0.600397	0.878284	0.592529
	H50	H	0.591608	0.114460	0.404565
	H51	H	0.407939	0.880361	0.408452
	H52	H	0.589612	0.394955	0.125463
	H53	H	0.591212	0.588654	0.888206
	H54	H	0.411072	0.582981	0.120336
	H55	H	0.405676	0.394342	0.886414
	H56	H	0.117203	0.587796	0.418059
	H57	H	0.883860	0.584898	0.595716
	H58	H	0.117504	0.409344	0.593003
	H59	H	0.885018	0.405197	0.415815
	H60	H	0.119613	0.407573	0.600087
	H61	H	0.881108	0.590077	0.603105
	H62	H	0.118232	0.587554	0.413106
	H63	H	0.882508	0.404023	0.409996
	H64	H	0.416638	0.594357	0.121905
	H65	H	0.594157	0.589596	0.887025
	H66	H	0.600392	0.406026	0.124497
	H67	H	0.405114	0.406770	0.889396
	H68	H	0.586901	0.108295	0.418137
	H69	H	0.596427	0.876016	0.605934
	H70	H	0.401719	0.114565	0.603885
	H71	H	0.409002	0.881263	0.411494
	H72	H	0.905990	0.610820	0.095104
	H73	H	0.095217	0.381521	0.092101
	H74	H	0.090078	0.609537	0.918610
	H75	H	0.902666	0.380762	0.919457
	H76	H	0.094518	0.897812	0.626294
	H77	H	0.095099	0.094219	0.385577
	H78	H	0.902455	0.085989	0.622903
	H79	H	0.910200	0.897170	0.387324
	H80	H	0.616900	0.083120	0.916141
	H81	H	0.384412	0.088058	0.094201
	H82	H	0.622511	0.899675	0.104893
	H83	H	0.383179	0.894627	0.918362
	H84	H	0.618229	0.898291	0.087595
	H85	H	0.384450	0.083743	0.095414
	H86	H	0.620812	0.088468	0.909911
	H87	H	0.385876	0.907664	0.913672
	H88	H	0.918031	0.086913	0.618508
	H89	H	0.095521	0.081477	0.389984
	H90	H	0.096528	0.912517	0.622007
	H91	H	0.904785	0.903948	0.387739
	H92	H	0.098402	0.613280	0.916329
	H93	H	0.096809	0.378124	0.101449
	H94	H	0.903856	0.613943	0.104086
	H95	H	0.903037	0.376924	0.903164
	H96	H	0.417706	0.109542	0.604505
	H97	H	0.587651	0.882093	0.596450
	H98	H	0.601762	0.113552	0.416807
	H99	H	0.406455	0.879277	0.411232
	H100	H	0.585812	0.408865	0.119907
	H101	H	0.594444	0.587217	0.888076
	H102	H	0.404382	0.592329	0.125065
	H103	H	0.415504	0.400568	0.890537
	H104	H	0.118380	0.591675	0.415631
	H105	H	0.881198	0.594044	0.594672
	H106	H	0.119455	0.402386	0.594836
	H107	H	0.882503	0.399229	0.414759
	H108	H	0.913156	0.610363	0.101794
	H109	H	0.087625	0.382218	0.098838
	H110	H	0.091085	0.613456	0.910571
	H111	H	0.917116	0.383200	0.909722
	H112	H	0.082323	0.905558	0.620027
	H113	H	0.083334	0.089451	0.390572
	H114	H	0.910429	0.099823	0.624323
	H115	H	0.912923	0.904394	0.390417
	H116	H	0.618363	0.091800	0.918476
	H117	H	0.383047	0.087869	0.097348
	H118	H	0.615495	0.913190	0.095612
	H119	H	0.380465	0.898314	0.904897
	C120	C	0.379435	0.003145	0.627173
	C121	C	0.623554	0.986340	0.627878
	C122	C	0.622892	0.004413	0.383338
	C123	C	0.378280	0.987514	0.382250
	C124	C	0.621315	0.373656	0.014676
	C125	C	0.622744	0.617624	0.996583
	C126	C	0.380453	0.616809	0.013965
	C127	C	0.378884	0.372609	0.997196
	C128	C	0.008922	0.617265	0.385425
	C129	C	0.991120	0.619565	0.628067
	C130	C	0.009960	0.377004	0.625256
	C131	C	0.992134	0.373879	0.383380
	C132	C	0.878172	0.504243	0.128153
	C133	C	0.123186	0.487614	0.128326
	C134	C	0.122486	0.505305	0.884147
	C135	C	0.878357	0.487849	0.883287
	C136	C	0.120893	0.874706	0.514577
	C137	C	0.122587	0.118581	0.496520
	C138	C	0.880108	0.118641	0.513595
	C139	C	0.878870	0.874000	0.496281
	C140	C	0.509498	0.115808	0.884695
	C141	C	0.492530	0.116886	0.126133
	C142	C	0.509931	0.874395	0.125395
	C143	C	0.492664	0.872720	0.882969
	C144	C	0.381080	0.880580	0.680595
	C145	C	0.622210	0.108501	0.684850
	C146	C	0.620809	0.882190	0.326637
	C147	C	0.380324	0.109949	0.327912
	C148	C	0.675434	0.376721	0.890239
	C149	C	0.676690	0.614624	0.121258
	C150	C	0.325019	0.612251	0.889879
	C151	C	0.324918	0.377842	0.121151
	C152	C	0.884288	0.671784	0.386552
	C153	C	0.114707	0.676611	0.628337
	C154	C	0.886108	0.319981	0.624477
	C155	C	0.116341	0.318491	0.383589
	C156	C	0.884896	0.379303	0.679784
	C157	C	0.115414	0.618262	0.684366
	C158	C	0.884299	0.613846	0.330100
	C159	C	0.116529	0.376985	0.327685
	C160	C	0.381114	0.670829	0.890134
	C161	C	0.622183	0.674903	0.119891
	C162	C	0.620269	0.317405	0.891030
	C163	C	0.378988	0.317220	0.120049
	C164	C	0.677318	0.881841	0.385488
	C165	C	0.678343	0.109363	0.625782
	C166	C	0.323122	0.881133	0.623154
	C167	C	0.322631	0.109849	0.385822
	C168	C	0.879476	0.382141	0.182742
	C169	C	0.122081	0.609321	0.185748
	C170	C	0.121044	0.383906	0.825631
	C171	C	0.879238	0.610135	0.829117
	C172	C	0.175861	0.876172	0.390707
	C173	C	0.178672	0.116784	0.620142
	C174	C	0.823929	0.114516	0.389925
	C175	C	0.824167	0.878639	0.620509
	C176	C	0.385529	0.171472	0.884501
	C177	C	0.616048	0.174434	0.126916
	C178	C	0.386004	0.817697	0.124418
	C179	C	0.616711	0.817422	0.883862
	C180	C	0.385426	0.876462	0.180439
	C181	C	0.616637	0.116012	0.182696
	C182	C	0.384877	0.111950	0.829140
	C183	C	0.617086	0.875730	0.828152
	C184	C	0.879594	0.174108	0.390726
	C185	C	0.124425	0.177219	0.619132
	C186	C	0.121137	0.816673	0.391655
	C187	C	0.878006	0.818561	0.619459
	C188	C	0.177464	0.382721	0.884431
	C189	C	0.179802	0.609423	0.128279
	C190	C	0.822455	0.381872	0.124722
	C191	C	0.822472	0.609877	0.887513
	C192	C	0.402824	0.088440	0.605716
	C193	C	0.601324	0.900909	0.605029
	C194	C	0.600115	0.089910	0.406387
	C195	C	0.400969	0.902477	0.403944
	C196	C	0.598486	0.396502	0.100844
	C197	C	0.600082	0.594946	0.910210
	C198	C	0.403727	0.596010	0.099993
	C199	C	0.401989	0.394176	0.911120
	C200	C	0.095425	0.595434	0.408634
	C201	C	0.904599	0.596478	0.604568
	C202	C	0.096536	0.399742	0.602633
	C203	C	0.905674	0.396258	0.406678
	C204	C	0.900964	0.589623	0.106753
	C205	C	0.099885	0.402572	0.104550
	C206	C	0.099752	0.590127	0.908088
	C207	C	0.901038	0.402566	0.904441
	C208	C	0.097809	0.898355	0.600325
	C209	C	0.098324	0.095224	0.410800
	C210	C	0.903529	0.097268	0.599692
	C211	C	0.902474	0.895365	0.410789
	C212	C	0.596224	0.094194	0.908042
	C213	C	0.406320	0.093451	0.102377
	C214	C	0.596454	0.896965	0.102738
	C215	C	0.405808	0.894048	0.905608
	Zn216	Zn	0.501114	-0.005603	0.756367
	Zn217	Zn	0.500855	-0.004038	0.253873
	Zn218	Zn	0.749578	0.495227	0.006121
	Zn219	Zn	0.251511	0.495788	0.005686
	Zn220	Zn	0.000073	0.746387	0.505975
	Zn221	Zn	0.001909	0.247190	0.505045
	Zn222	Zn	0.000562	0.497446	0.754339
	Zn223	Zn	0.000225	0.496063	0.256720
	Zn224	Zn	0.501305	0.745709	0.004525
	Zn225	Zn	0.500540	0.244793	0.005799
	Zn226	Zn	0.751962	-0.004287	0.505188
	Zn227	Zn	0.249474	-0.004173	0.505206
	N228	N	0.415339	0.957521	0.683155
	N229	N	0.589043	0.031179	0.686308
	N230	N	0.587809	0.959636	0.325088
	N231	N	0.414085	0.032884	0.325572
	N232	N	0.676449	0.411046	0.968046
	N233	N	0.676896	0.579566	0.043731
	N234	N	0.324350	0.579500	0.967815
	N235	N	0.324404	0.411501	0.043602
	N236	N	0.962893	0.674024	0.420242
	N237	N	0.036326	0.677703	0.594212
	N238	N	0.964937	0.318118	0.591648
	N239	N	0.037960	0.316217	0.417209
	N240	N	0.962830	0.414060	0.680393
	N241	N	0.037370	0.583846	0.684490
	N242	N	0.962666	0.580713	0.329227
	N243	N	0.038193	0.410781	0.327246
	N244	N	0.414777	0.674090	0.968245
	N245	N	0.589481	0.676949	0.041369
	N246	N	0.587443	0.315469	0.969395
	N247	N	0.411873	0.313907	0.041822
	N248	N	0.678694	0.958849	0.419817
	N249	N	0.679445	0.032399	0.590978
	N250	N	0.321965	0.958400	0.590553
	N251	N	0.321191	0.032743	0.418890
	N252	N	0.913202	0.459487	0.185218
	N253	N	0.087219	0.532518	0.185835
	N254	N	0.087868	0.461235	0.825024
	N255	N	0.913373	0.533382	0.826301
	N256	N	0.175984	0.911766	0.468034
	N257	N	0.177817	0.081281	0.542914
	N258	N	0.824138	0.080598	0.467369
	N259	N	0.824508	0.912671	0.543148
	N260	N	0.464154	0.174071	0.918233
	N261	N	0.537850	0.175155	0.092616
	N262	N	0.464571	0.816453	0.090811
	N263	N	0.538239	0.815411	0.917371
	N264	N	0.463432	0.910966	0.181224
	N265	N	0.538891	0.080727	0.182188
	N266	N	0.463057	0.078311	0.828987
	N267	N	0.538888	0.909460	0.827491
	N268	N	0.914038	0.176556	0.468586
	N269	N	0.090504	0.178481	0.541157
	N270	N	0.087874	0.815599	0.469763
	N271	N	0.911465	0.815585	0.541343
	N272	N	0.178573	0.459137	0.920118
	N273	N	0.180777	0.532525	0.093525
	N274	N	0.821650	0.458652	0.091373
	N275	N	0.821527	0.532703	0.920392
	O276	O	0.885791	0.865758	0.086842
	H277	H	0.895971	0.872880	0.073467
	H278	H	0.882772	0.862715	0.099888
	O279	O	0.528527	0.541670	0.490114
	H280	H	0.522998	0.533365	0.504085
	H281	H	0.522631	0.550115	0.495116
	O282	O	1.042666	0.990148	0.076023
	H283	H	1.045622	0.985079	0.068530
	H284	H	1.024408	0.991744	0.077346
	O285	O	1.073804	0.078446	0.930538
	H286	H	1.061790	0.071767	0.937803
	H287	H	1.076647	0.084929	0.931988
	O288	O	0.497702	0.497072	0.482064
	H289	H	0.493140	0.505967	0.477655
	H290	H	0.503115	0.488130	0.490576
	O291	O	0.580347	0.542103	0.458355
	H292	H	0.580096	0.556672	0.459910
	H293	H	0.577582	0.540020	0.462416
	O294	O	0.493565	0.537238	0.424697
	H295	H	0.485474	0.543809	0.420839
	H296	H	0.489210	0.531074	0.421150
	O297	O	-0.024637	-0.147752	0.901797
	H298	H	-0.007619	-0.155577	0.901967
	H299	H	-0.018542	-0.145900	0.893896
	O300	O	0.471078	0.583713	0.489056
	H301	H	0.461769	0.590897	0.495271
	H302	H	0.467301	0.572747	0.484002
	O303	O	0.995239	1.101096	-0.052761
	H304	H	0.978470	1.100573	-0.065455
	H305	H	0.992666	1.103955	-0.044541
	O306	O	-0.043369	0.860639	1.091731
	H307	H	-0.054947	0.856721	1.095395
	H308	H	-0.048385	0.845009	1.096700
	O309	O	0.581416	0.447471	0.461012
	H310	H	0.590468	0.451301	0.460140
	H311	H	0.568425	0.442436	0.463681
	O312	O	0.006989	-0.027484	-0.050238
	H313	H	0.008684	-0.019061	-0.041903
	H314	H	0.028701	-0.027476	-0.045427
	O315	O	1.006108	0.110059	0.073029
	H316	H	1.021233	0.113817	0.078323
	H317	H	1.008139	0.119208	0.078838
	O318	O	0.970850	1.044215	0.874220
	H319	H	0.956412	1.038744	0.882116
	H320	H	0.965149	1.046976	0.891224
	O321	O	0.062085	-0.071606	1.058234
	H322	H	0.070979	-0.059632	1.060344
	H323	H	0.044696	-0.077371	1.062925
	O324	O	0.488267	0.506474	0.473196
	H325	H	0.482418	0.508584	0.463793
	H326	H	0.499791	0.505998	0.471754
	O327	O	0.013031	-0.061435	0.110082
	H328	H	0.020993	-0.047880	0.104359
	H329	H	0.017424	-0.054936	0.114862
	O330	O	0.467776	0.416686	0.603314
	H331	H	0.461298	0.405407	0.601595
	H332	H	0.463431	0.409405	0.608052
	O333	O	0.167013	1.129569	1.169871
	H334	H	0.149584	1.141106	1.174167
	H335	H	0.164000	1.138751	1.159086
	O336	O	0.140078	0.013229	0.086291
	H337	H	0.134111	0.036354	0.070017
	H338	H	0.149264	0.021414	0.097866
	O339	O	0.489802	0.486846	0.500064
	H340	H	0.490472	0.481415	0.500246
	H341	H	0.485536	0.486790	0.503391
	O342	O	1.081160	0.928314	1.011266
	H343	H	1.088141	0.917051	0.998993
	H344	H	1.092436	0.928235	1.018825
	O345	O	1.072319	1.050379	-0.049720
	H346	H	1.068119	1.038198	-0.060133
	H347	H	1.068834	1.041905	-0.050873
	O348	O	0.477357	0.460992	0.495177
	H349	H	0.484808	0.461640	0.491259
	H350	H	0.471167	0.467130	0.501318
	O351	O	0.025288	0.937206	-0.085000
	H352	H	0.038868	0.941289	-0.076038
	H353	H	0.026397	0.924632	-0.088694
	O354	O	0.427658	0.468573	0.537361
	H355	H	0.424446	0.473240	0.536803
	H356	H	0.434049	0.467043	0.535855
	O357	O	1.077887	0.083804	0.998266
	H358	H	1.068766	0.076932	0.988056
	H359	H	1.084904	0.080913	1.004093
	O360	O	0.466093	0.493866	0.554131
	H361	H	0.471685	0.495136	0.559892
	H362	H	0.471040	0.501254	0.558005
	O363	O	0.534708	0.451982	0.382424
	H364	H	0.535739	0.453518	0.367989
	H365	H	0.530211	0.460819	0.382756
	O366	O	0.905376	0.996757	0.990828
	H367	H	0.905364	0.988428	0.985323
	H368	H	0.909611	0.981698	0.985908
	O369	O	0.953265	-0.089277	1.041102
	H370	H	0.945772	-0.103597	1.027950
	H371	H	0.937234	-0.077031	1.057023
	O372	O	-0.080672	0.042113	-0.115380
	H373	H	-0.085581	0.038460	-0.116613
	H374	H	-0.076455	0.045943	-0.120330
	O375	O	0.833363	0.063407	0.028713
	H376	H	0.825809	0.066102	0.035300
	H377	H	0.824237	0.059490	0.021426
	O378	O	0.411116	0.459130	0.489799
	H379	H	0.415868	0.448630	0.488065
	H380	H	0.410847	0.454873	0.484094
	O381	O	0.415117	0.455619	0.580853
	H382	H	0.415623	0.454640	0.582016
	H383	H	0.411834	0.452918	0.575791
