data_Molecule from HDF5

_cell_length_a		16.394048
_cell_length_b		16.266380
_cell_length_c		16.366183
_cell_angle_alpha	89.777280
_cell_angle_beta	89.910472
_cell_angle_gamma	89.792419
_symmetry_space_group_name_H-M	'P 1'
_symmetry_Int_Tables_number		1

loop_
	_symmetry_equiv_pos_as_xyz
	x,y,z

loop_
	_atom_site_label
	_atom_site_type_symbol
	_atom_site_fract_x
	_atom_site_fract_y
	_atom_site_fract_z
	H0	H	0.401349	0.837131	0.714708
	H1	H	0.603686	0.160261	0.710306
	H2	H	0.609256	0.837108	0.274228
	H3	H	0.398466	0.157854	0.275644
	H4	H	0.722084	0.395307	0.833796
	H5	H	0.721406	0.600836	0.155209
	H6	H	0.281680	0.603034	0.834827
	H7	H	0.281795	0.392803	0.155211
	H8	H	0.842062	0.718289	0.391807
	H9	H	0.162729	0.711601	0.596188
	H10	H	0.840996	0.278681	0.597678
	H11	H	0.162447	0.279336	0.393916
	H12	H	0.842014	0.392810	0.715135
	H13	H	0.162014	0.597138	0.712470
	H14	H	0.841805	0.603309	0.274655
	H15	H	0.160693	0.390409	0.274172
	H16	H	0.400270	0.718244	0.834365
	H17	H	0.602433	0.714832	0.156251
	H18	H	0.604495	0.280493	0.832491
	H19	H	0.400096	0.278488	0.155400
	H20	H	0.723155	0.836236	0.391392
	H21	H	0.718924	0.159836	0.595545
	H22	H	0.284590	0.836094	0.600227
	H23	H	0.282548	0.157497	0.390403
	H24	H	0.896303	0.337496	0.216252
	H25	H	0.107396	0.656932	0.216886
	H26	H	0.106751	0.335937	0.776113
	H27	H	0.897049	0.657399	0.774280
	H28	H	0.225605	0.888973	0.336125
	H29	H	0.222618	0.101857	0.653752
	H30	H	0.782229	0.102394	0.334051
	H31	H	0.779689	0.890850	0.654931
	H32	H	0.342581	0.218605	0.890808
	H33	H	0.662953	0.216097	0.098005
	H34	H	0.342944	0.777076	0.099941
	H35	H	0.661997	0.775552	0.888742
	H36	H	0.344929	0.888518	0.218371
	H37	H	0.661631	0.102357	0.216365
	H38	H	0.343506	0.105690	0.773444
	H39	H	0.663319	0.894040	0.774668
	H40	H	0.898141	0.217528	0.334310
	H41	H	0.104811	0.214847	0.654797
	H42	H	0.105040	0.777042	0.334723
	H43	H	0.898984	0.777347	0.657234
	H44	H	0.222954	0.336493	0.890701
	H45	H	0.222245	0.657987	0.100825
	H46	H	0.782044	0.337242	0.100452
	H47	H	0.782114	0.657741	0.889479
	H48	H	0.416446	0.113625	0.590621
	H49	H	0.594375	0.878476	0.594915
	H50	H	0.587201	0.111349	0.400726
	H51	H	0.411222	0.881567	0.410239
	H52	H	0.590118	0.409934	0.106461
	H53	H	0.596827	0.585903	0.879021
	H54	H	0.405554	0.586767	0.111134
	H55	H	0.417737	0.411686	0.883719
	H56	H	0.117702	0.587956	0.401516
	H57	H	0.886759	0.584437	0.585896
	H58	H	0.115740	0.410215	0.588622
	H59	H	0.886278	0.412037	0.397663
	H60	H	0.118686	0.400866	0.589573
	H61	H	0.885793	0.587645	0.587342
	H62	H	0.114138	0.587472	0.409842
	H63	H	0.885321	0.400259	0.406184
	H64	H	0.413623	0.581677	0.106752
	H65	H	0.590276	0.584265	0.882303
	H66	H	0.591221	0.402882	0.109253
	H67	H	0.411463	0.402501	0.878376
	H68	H	0.590834	0.109284	0.410212
	H69	H	0.582002	0.887635	0.583323
	H70	H	0.413951	0.110260	0.576738
	H71	H	0.412599	0.880389	0.402200
	H72	H	0.908984	0.612533	0.082803
	H73	H	0.091320	0.381400	0.088877
	H74	H	0.089536	0.609558	0.910098
	H75	H	0.910854	0.380173	0.901463
	H76	H	0.101920	0.912752	0.610162
	H77	H	0.089810	0.092247	0.379420
	H78	H	0.916576	0.087987	0.607809
	H79	H	0.910050	0.910384	0.382448
	H80	H	0.617469	0.086202	0.898940
	H81	H	0.387613	0.090072	0.084596
	H82	H	0.614429	0.913323	0.084832
	H83	H	0.389109	0.907950	0.904658
	H84	H	0.618557	0.905029	0.087996
	H85	H	0.390279	0.085676	0.081699
	H86	H	0.616910	0.091476	0.903217
	H87	H	0.390570	0.910612	0.906991
	H88	H	0.906231	0.090403	0.611742
	H89	H	0.098745	0.084408	0.378781
	H90	H	0.084354	0.908466	0.605674
	H91	H	0.916779	0.910067	0.384077
	H92	H	0.097606	0.614420	0.903049
	H93	H	0.086504	0.385640	0.082187
	H94	H	0.912534	0.613180	0.086674
	H95	H	0.918136	0.383782	0.906454
	H96	H	0.403161	0.115352	0.584827
	H97	H	0.599247	0.882862	0.577003
	H98	H	0.596691	0.114168	0.403828
	H99	H	0.418984	0.883874	0.406873
	H100	H	0.596897	0.408116	0.109728
	H101	H	0.591472	0.591238	0.879445
	H102	H	0.414455	0.591723	0.109148
	H103	H	0.406401	0.413595	0.879822
	H104	H	0.113479	0.579894	0.404150
	H105	H	0.887432	0.587206	0.583886
	H106	H	0.115018	0.404308	0.580958
	H107	H	0.890971	0.412597	0.410974
	H108	H	0.914645	0.611649	0.082406
	H109	H	0.095384	0.383274	0.080727
	H110	H	0.086770	0.612619	0.899032
	H111	H	0.909224	0.383009	0.910558
	H112	H	0.096001	0.895510	0.613423
	H113	H	0.088387	0.080378	0.383230
	H114	H	0.909295	0.080348	0.607163
	H115	H	0.913153	0.904350	0.381084
	H116	H	0.615534	0.085679	0.904976
	H117	H	0.389212	0.084427	0.087869
	H118	H	0.615119	0.905683	0.078498
	H119	H	0.389960	0.911741	0.903802
	C120	C	0.380625	0.006688	0.616638
	C121	C	0.622908	0.989711	0.615345
	C122	C	0.623847	0.005502	0.373658
	C123	C	0.381639	0.988103	0.374067
	C124	C	0.624208	0.375851	0.002558
	C125	C	0.623240	0.618274	0.986593
	C126	C	0.380125	0.619507	0.003166
	C127	C	0.380550	0.376806	0.986598
	C128	C	0.009858	0.618196	0.373509
	C129	C	0.992892	0.616811	0.616165
	C130	C	0.010511	0.374238	0.617170
	C131	C	0.993217	0.376072	0.373485
	C132	C	0.880751	0.506273	0.115992
	C133	C	0.122707	0.489252	0.115774
	C134	C	0.122931	0.505303	0.873605
	C135	C	0.880477	0.488301	0.873370
	C136	C	0.125278	0.873640	0.504059
	C137	C	0.123211	0.117263	0.486186
	C138	C	0.879980	0.118290	0.502811
	C139	C	0.880765	0.875477	0.487690
	C140	C	0.511126	0.120326	0.871567
	C141	C	0.494435	0.118290	0.116069
	C142	C	0.511042	0.875702	0.116439
	C143	C	0.495339	0.877506	0.873438
	C144	C	0.381251	0.885513	0.675936
	C145	C	0.623319	0.111584	0.672059
	C146	C	0.626700	0.884917	0.314266
	C147	C	0.379764	0.109338	0.314733
	C148	C	0.682787	0.375831	0.881813
	C149	C	0.681623	0.619162	0.107458
	C150	C	0.321499	0.621571	0.882574
	C151	C	0.321760	0.374566	0.107120
	C152	C	0.890064	0.678808	0.372545
	C153	C	0.114434	0.673393	0.615597
	C154	C	0.889517	0.317062	0.617183
	C155	C	0.114139	0.317696	0.373909
	C156	C	0.889979	0.373885	0.675633
	C157	C	0.113928	0.616710	0.673772
	C158	C	0.889875	0.621346	0.314494
	C159	C	0.113200	0.373494	0.314493
	C160	C	0.380697	0.678595	0.882395
	C161	C	0.622543	0.675931	0.107940
	C162	C	0.624275	0.318716	0.881131
	C163	C	0.380677	0.317734	0.107281
	C164	C	0.683722	0.884574	0.372497
	C165	C	0.680617	0.111276	0.614913
	C166	C	0.323273	0.884815	0.618808
	C167	C	0.322247	0.109285	0.372112
	C168	C	0.878356	0.385602	0.176490
	C169	C	0.125040	0.609436	0.176417
	C170	C	0.125178	0.384197	0.815388
	C171	C	0.878874	0.609177	0.813703
	C172	C	0.185048	0.871518	0.383737
	C173	C	0.182568	0.119536	0.606041
	C174	C	0.821503	0.120510	0.382236
	C175	C	0.820581	0.872929	0.607645
	C176	C	0.390938	0.179694	0.871402
	C177	C	0.614665	0.177254	0.117210
	C178	C	0.391126	0.816180	0.118491
	C179	C	0.614508	0.816112	0.870808
	C180	C	0.392066	0.871992	0.177407
	C181	C	0.614021	0.120488	0.176139
	C182	C	0.391374	0.123146	0.812841
	C183	C	0.615204	0.875276	0.814137
	C184	C	0.879470	0.177822	0.382295
	C185	C	0.123930	0.176124	0.606434
	C186	C	0.125184	0.815536	0.383213
	C187	C	0.879910	0.816406	0.608814
	C188	C	0.183159	0.384493	0.872432
	C189	C	0.182438	0.609950	0.118697
	C190	C	0.821328	0.385414	0.118922
	C191	C	0.821433	0.609369	0.871176
	C192	C	0.404176	0.091105	0.591313
	C193	C	0.598904	0.905135	0.591941
	C194	C	0.598796	0.089856	0.397778
	C195	C	0.406931	0.903910	0.399291
	C196	C	0.599805	0.399781	0.086480
	C197	C	0.599689	0.594368	0.902234
	C198	C	0.404217	0.594228	0.087180
	C199	C	0.404711	0.402026	0.902621
	C200	C	0.093190	0.592531	0.398013
	C201	C	0.908589	0.593151	0.592659
	C202	C	0.094598	0.398093	0.593375
	C203	C	0.909212	0.401039	0.397901
	C204	C	0.905040	0.590383	0.091134
	C205	C	0.098277	0.405508	0.091093
	C206	C	0.098301	0.589922	0.897209
	C207	C	0.905529	0.404090	0.898836
	C208	C	0.101108	0.898356	0.587980
	C209	C	0.099174	0.092805	0.402350
	C210	C	0.903796	0.093392	0.586940
	C211	C	0.905956	0.900919	0.404259
	C212	C	0.594881	0.095057	0.895485
	C213	C	0.410876	0.093910	0.091629
	C214	C	0.594436	0.900852	0.091108
	C215	C	0.411742	0.902742	0.898027
	Zn216	Zn	0.502957	-0.001383	0.743509
	Zn217	Zn	0.502155	-0.003481	0.245348
	Zn218	Zn	0.752973	0.497329	-0.004924
	Zn219	Zn	0.250862	0.497858	-0.005287
	Zn220	Zn	0.002090	0.746362	0.496197
	Zn221	Zn	0.001508	0.246725	0.494383
	Zn222	Zn	0.001732	0.496340	0.745222
	Zn223	Zn	0.001591	0.497024	0.244302
	Zn224	Zn	0.502593	0.748085	-0.004622
	Zn225	Zn	0.502583	0.247332	-0.005692
	Zn226	Zn	0.751690	-0.002713	0.495344
	Zn227	Zn	0.253077	-0.003589	0.494542
	N228	N	0.415926	0.962330	0.675047
	N229	N	0.588245	0.034865	0.672599
	N230	N	0.590221	0.961198	0.314818
	N231	N	0.416024	0.033039	0.315905
	N232	N	0.682942	0.410381	0.958307
	N233	N	0.682305	0.584218	0.030962
	N234	N	0.320930	0.585812	0.958834
	N235	N	0.321680	0.410565	0.031017
	N236	N	0.965763	0.677117	0.408401
	N237	N	0.038162	0.673632	0.580641
	N238	N	0.965401	0.317166	0.581608
	N239	N	0.038410	0.319251	0.409953
	N240	N	0.966371	0.408468	0.675999
	N241	N	0.037377	0.582317	0.674090
	N242	N	0.965522	0.584650	0.314648
	N243	N	0.036960	0.408994	0.314343
	N244	N	0.416000	0.677578	0.958536
	N245	N	0.587226	0.675480	0.031705
	N246	N	0.588883	0.318275	0.957354
	N247	N	0.416546	0.318855	0.031235
	N248	N	0.682185	0.960563	0.408551
	N249	N	0.680466	0.034422	0.580433
	N250	N	0.322661	0.961206	0.582810
	N251	N	0.323457	0.032842	0.408308
	N252	N	0.914700	0.461657	0.174816
	N253	N	0.088511	0.533466	0.174706
	N254	N	0.088427	0.460182	0.816017
	N255	N	0.915102	0.532926	0.815266
	N256	N	0.185474	0.906834	0.460021
	N257	N	0.182393	0.083557	0.530112
	N258	N	0.821795	0.084174	0.458137
	N259	N	0.820953	0.908922	0.531542
	N260	N	0.466527	0.178163	0.907181
	N261	N	0.539304	0.176081	0.080635
	N262	N	0.466185	0.818637	0.081091
	N263	N	0.538973	0.817436	0.906940
	N264	N	0.467615	0.908304	0.176323
	N265	N	0.538300	0.084574	0.175657
	N266	N	0.467280	0.086980	0.812725
	N267	N	0.539957	0.912927	0.815713
	N268	N	0.915113	0.176669	0.458363
	N269	N	0.087270	0.174663	0.530983
	N270	N	0.088848	0.816719	0.458847
	N271	N	0.916485	0.817788	0.533126
	N272	N	0.181938	0.460972	0.907857
	N273	N	0.180973	0.534439	0.081628
	N274	N	0.822481	0.461422	0.082102
	N275	N	0.822353	0.533135	0.907663
	O276	O	0.594534	0.517181	0.535884
	H277	H	0.598409	0.512407	0.532289
	H278	H	0.604079	0.541322	0.541975
	O279	O	0.582707	0.583793	0.606365
	H280	H	0.598856	0.582385	0.615041
	H281	H	0.572055	0.595658	0.605473
	O282	O	0.534595	0.578535	0.595529
	H283	H	0.512143	0.587085	0.595433
	H284	H	0.528551	0.593040	0.585630
	O285	O	1.417761	0.513574	0.394084
	H286	H	1.403250	0.523982	0.380580
	H287	H	1.425233	0.503811	0.386956
	O288	O	0.023401	-0.186526	0.830983
	H289	H	0.034812	-0.202388	0.854757
	H290	H	0.010785	-0.197825	0.841111
	O291	O	0.639511	0.685717	0.562822
	H292	H	0.648734	0.682951	0.562910
	H293	H	0.621038	0.680939	0.567858
	O294	O	0.918654	1.107421	1.079152
	H295	H	0.917180	1.122760	1.078614
	H296	H	0.929784	1.090004	1.057485
	O297	O	0.909828	1.174760	1.078980
	H298	H	0.910267	1.172524	1.051596
	H299	H	0.891991	1.188560	1.081362
	O300	O	-0.068762	0.048143	-0.101186
	H301	H	-0.059327	0.035376	-0.100204
	H302	H	-0.051127	0.035657	-0.099298
	O303	O	-0.181711	0.936890	0.901427
	H304	H	-0.171346	0.934248	0.914513
	H305	H	-0.189054	0.923572	0.922000
	O306	O	1.064421	-0.127572	-0.180120
	H307	H	1.048764	-0.139745	-0.186752
	H308	H	1.067198	-0.136765	-0.173078
	O309	O	0.550258	0.381969	0.331717
	H310	H	0.566674	0.364089	0.318608
	H311	H	0.568590	0.395294	0.333596
	O312	O	0.919592	1.198917	-0.171067
	H313	H	0.913874	1.206279	-0.198740
	H314	H	0.913394	1.201333	-0.174974
	O315	O	0.414355	0.485872	0.505161
	H316	H	0.424194	0.462694	0.511661
	H317	H	0.399978	0.481581	0.497181
	O318	O	0.586607	0.607191	0.600764
	H319	H	0.576441	0.604112	0.601599
	H320	H	0.595533	0.614396	0.587636
	O321	O	0.802732	-0.003774	1.196554
	H322	H	0.794901	0.010829	1.196990
	H323	H	0.799964	0.007768	1.201788
	O324	O	0.028260	0.193678	0.909795
	H325	H	0.026130	0.194786	0.909257
	H326	H	0.019138	0.194018	0.902185
	O327	O	-0.109635	1.103875	0.868547
	H328	H	-0.097710	1.106526	0.861016
	H329	H	-0.117116	1.092605	0.860939
	O330	O	0.638983	0.456071	0.582949
	H331	H	0.638779	0.461806	0.595163
	H332	H	0.628682	0.455269	0.588997
	O333	O	0.976854	1.092718	1.056376
	H334	H	0.974131	1.100617	1.051272
	H335	H	0.968945	1.091573	1.034087
	O336	O	0.404132	0.475481	0.671016
	H337	H	0.396219	0.481062	0.672984
	H338	H	0.396987	0.482241	0.671066
	O339	O	0.692653	0.403601	0.505643
	H340	H	0.698039	0.395800	0.508530
	H341	H	0.697309	0.411645	0.502545
	O342	O	-0.177715	1.135960	0.963357
	H343	H	-0.187940	1.134509	0.958608
	H344	H	-0.177528	1.138652	0.953862
	O345	O	0.209408	1.199952	1.055032
	H346	H	0.215307	1.198139	1.044677
	H347	H	0.208198	1.213749	1.057288
	O348	O	0.547747	0.505293	0.394705
	H349	H	0.534581	0.506246	0.397473
	H350	H	0.537724	0.508860	0.404444
	O351	O	0.090294	0.084169	-0.052599
	H352	H	0.077292	0.086741	-0.052316
	H353	H	0.084727	0.089829	-0.050615
	O354	O	0.415221	0.401749	-0.633575
	H355	H	0.430566	0.385094	-0.631314
	H356	H	0.421870	0.408072	-0.633640
	O357	O	0.152607	1.111328	0.184351
	H358	H	0.154798	1.114365	0.174471
	H359	H	0.149555	1.128570	0.181335
	O360	O	0.106294	0.025162	-0.160603
	H361	H	0.109829	0.023555	-0.161117
	H362	H	0.110170	0.017066	-0.157630
	O363	O	0.337121	0.613601	0.453781
	H364	H	0.327557	0.613057	0.457676
	H365	H	0.339915	0.609458	0.435340
	O366	O	0.467890	0.639093	0.326228
	H367	H	0.470555	0.622858	0.320223
	H368	H	0.464853	0.648429	0.323206
	O369	O	0.438611	0.363799	0.601287
	H370	H	0.442698	0.361283	0.585932
	H371	H	0.441170	0.372748	0.605148
	O372	O	0.484120	0.494428	0.570030
	H373	H	0.488200	0.490320	0.574049
	H374	H	0.472595	0.499952	0.568977
	O375	O	1.218920	-0.215376	-0.036077
	H376	H	1.222236	-0.214730	-0.035975
	H377	H	1.238906	-0.229311	-0.036745
	O378	O	0.606487	0.370980	0.362577
	H379	H	0.606139	0.376749	0.388962
	H380	H	0.607173	0.392670	0.358660
	O381	O	0.394641	0.490057	0.367777
	H382	H	0.396987	0.494745	0.374581
	H383	H	0.386345	0.492147	0.366952
	O384	O	0.413904	0.607586	1.543806
	H385	H	0.405983	0.601734	1.539218
	H386	H	0.424787	0.609483	1.540633
	O387	O	1.006488	0.785362	0.121508
	H388	H	1.022475	0.790711	0.126454
	H389	H	1.022388	0.775637	0.138274
	O390	O	0.365896	0.537384	0.403494
	H391	H	0.380146	0.515102	0.403395
	H392	H	0.365429	0.529026	0.407630
	O393	O	0.942128	-0.071918	0.809121
	H394	H	0.935939	-0.078419	0.820139
	H395	H	0.944777	-0.087317	0.810964
	O396	O	0.197820	0.857243	0.795925
	H397	H	0.188925	0.865902	0.793636
	H398	H	0.206501	0.847802	0.797404
	O399	O	0.420256	0.372602	0.604308
	H400	H	0.415353	0.368291	0.596450
	H401	H	0.423374	0.377735	0.619599
	O402	O	1.099052	-0.039885	1.124048
	H403	H	1.102904	-0.032512	1.123043
	H404	H	1.104428	-0.036257	1.117944
	O405	O	0.015585	-0.176017	0.069455
	H406	H	0.001366	-0.167360	0.076424
	H407	H	0.025313	-0.163773	0.077582
	O408	O	0.904613	1.063255	0.927422
	H409	H	0.903653	1.048916	0.927809
	H410	H	0.890241	1.054790	0.915312
	O411	O	1.159723	0.941495	0.003473
	H412	H	1.162902	0.943297	-0.005489
	H413	H	1.154071	0.944281	0.004550
	O414	O	0.184397	-0.007417	1.190112
	H415	H	0.181518	0.007533	1.192501
	H416	H	0.196841	0.000227	1.192509
	O417	O	0.644745	0.503470	0.397484
	H418	H	0.648270	0.505581	0.404256
	H419	H	0.645328	0.524594	0.397475
	O420	O	0.063267	0.930946	0.115199
	H421	H	0.069172	0.941447	0.113692
	H422	H	0.055454	0.936654	0.120997
	O423	O	0.792987	-0.202818	0.145246
	H424	H	0.807843	-0.184188	0.157063
	H425	H	0.791392	-0.199906	0.157100
	O426	O	-0.192367	-0.180995	1.069684
	H427	H	-0.186851	-0.189595	1.088141
	H428	H	-0.192565	-0.172823	1.090060
	O429	O	0.375394	0.454806	0.451188
	H430	H	0.369732	0.444726	0.462317
	H431	H	0.389398	0.450584	0.440606
