data_Molecule from HDF5

_cell_length_a		16.402785
_cell_length_b		16.545521
_cell_length_c		16.497514
_cell_angle_alpha	89.998836
_cell_angle_beta	90.128361
_cell_angle_gamma	89.980915
_symmetry_space_group_name_H-M	'P 1'
_symmetry_Int_Tables_number		1

loop_
	_symmetry_equiv_pos_as_xyz
	x,y,z

loop_
	_atom_site_label
	_atom_site_type_symbol
	_atom_site_fract_x
	_atom_site_fract_y
	_atom_site_fract_z
	H0	H	0.409491	0.835730	0.719724
	H1	H	0.616566	0.151514	0.723152
	H2	H	0.616650	0.836350	0.278643
	H3	H	0.403822	0.149797	0.277890
	H4	H	0.726821	0.392145	0.840932
	H5	H	0.731157	0.597100	0.157100
	H6	H	0.291729	0.594194	0.841636
	H7	H	0.289155	0.390047	0.158514
	H8	H	0.851139	0.713554	0.395482
	H9	H	0.169072	0.712654	0.602996
	H10	H	0.852620	0.272325	0.604578
	H11	H	0.167047	0.268962	0.392868
	H12	H	0.851352	0.389871	0.718358
	H13	H	0.168518	0.596621	0.719793
	H14	H	0.851040	0.597064	0.279880
	H15	H	0.168003	0.387750	0.278555
	H16	H	0.404918	0.714593	0.843831
	H17	H	0.616293	0.715057	0.157355
	H18	H	0.614778	0.272741	0.842549
	H19	H	0.404842	0.271795	0.157626
	H20	H	0.729306	0.834684	0.399852
	H21	H	0.732226	0.151720	0.605165
	H22	H	0.293560	0.834676	0.601784
	H23	H	0.286482	0.149029	0.394685
	H24	H	0.904355	0.336308	0.221736
	H25	H	0.115320	0.650326	0.222340
	H26	H	0.117368	0.335746	0.776215
	H27	H	0.904206	0.649802	0.777349
	H28	H	0.231998	0.889082	0.342944
	H29	H	0.233587	0.099627	0.658569
	H30	H	0.788669	0.098655	0.343680
	H31	H	0.792868	0.891987	0.659735
	H32	H	0.351491	0.215759	0.893732
	H33	H	0.668263	0.214209	0.104970
	H34	H	0.351001	0.773427	0.106275
	H35	H	0.667389	0.770990	0.894737
	H36	H	0.351184	0.890476	0.221000
	H37	H	0.668781	0.097970	0.221109
	H38	H	0.351002	0.099424	0.779000
	H39	H	0.668521	0.890760	0.781630
	H40	H	0.903247	0.215808	0.344574
	H41	H	0.119387	0.217317	0.657467
	H42	H	0.115274	0.773132	0.342081
	H43	H	0.908385	0.773754	0.658516
	H44	H	0.230082	0.334284	0.896018
	H45	H	0.229690	0.651225	0.104168
	H46	H	0.789227	0.335315	0.103386
	H47	H	0.787529	0.649050	0.894527
	H48	H	0.426057	0.105762	0.590861
	H49	H	0.599750	0.883475	0.587822
	H50	H	0.608559	0.106212	0.417973
	H51	H	0.419256	0.880701	0.413014
	H52	H	0.600181	0.408227	0.111776
	H53	H	0.596801	0.584224	0.887637
	H54	H	0.426072	0.591496	0.114639
	H55	H	0.417595	0.401271	0.886006
	H56	H	0.122163	0.584835	0.416370
	H57	H	0.898231	0.579708	0.584367
	H58	H	0.126632	0.403949	0.595149
	H59	H	0.897419	0.403323	0.412686
	H60	H	0.123059	0.399071	0.582607
	H61	H	0.894970	0.581668	0.595317
	H62	H	0.121965	0.577850	0.409671
	H63	H	0.898269	0.405712	0.413217
	H64	H	0.411116	0.586072	0.117628
	H65	H	0.598389	0.584349	0.886262
	H66	H	0.593658	0.403114	0.112112
	H67	H	0.419746	0.408002	0.889141
	H68	H	0.599442	0.109328	0.400100
	H69	H	0.604794	0.880478	0.592675
	H70	H	0.420376	0.105554	0.585870
	H71	H	0.423012	0.880958	0.407648
	H72	H	0.916384	0.607932	0.094642
	H73	H	0.101256	0.381502	0.084159
	H74	H	0.101828	0.606425	0.908071
	H75	H	0.917065	0.381860	0.916847
	H76	H	0.098970	0.902670	0.612703
	H77	H	0.098191	0.078145	0.389940
	H78	H	0.927468	0.082648	0.612049
	H79	H	0.921794	0.899986	0.386536
	H80	H	0.623849	0.078597	0.903639
	H81	H	0.398727	0.079869	0.085510
	H82	H	0.621678	0.905615	0.086462
	H83	H	0.396377	0.900056	0.914134
	H84	H	0.623920	0.905724	0.092635
	H85	H	0.396153	0.081194	0.093296
	H86	H	0.626236	0.093372	0.912607
	H87	H	0.398946	0.908649	0.914752
	H88	H	0.921364	0.086709	0.614776
	H89	H	0.094133	0.080515	0.391394
	H90	H	0.100260	0.901636	0.614262
	H91	H	0.915630	0.902723	0.385521
	H92	H	0.096464	0.604354	0.907771
	H93	H	0.101077	0.379121	0.094285
	H94	H	0.928006	0.603561	0.091273
	H95	H	0.914950	0.376649	0.902768
	H96	H	0.418849	0.107849	0.592803
	H97	H	0.597457	0.881814	0.594828
	H98	H	0.589314	0.100838	0.415379
	H99	H	0.425613	0.882644	0.413186
	H100	H	0.600880	0.400665	0.115340
	H101	H	0.597705	0.582556	0.887140
	H102	H	0.422777	0.576155	0.111024
	H103	H	0.424416	0.402710	0.888435
	H104	H	0.126260	0.586615	0.407753
	H105	H	0.894244	0.590692	0.587489
	H106	H	0.120362	0.411514	0.585718
	H107	H	0.897675	0.405092	0.410951
	H108	H	0.918490	0.603621	0.082375
	H109	H	0.092382	0.383156	0.090063
	H110	H	0.099842	0.603489	0.912826
	H111	H	0.928419	0.382209	0.906355
	H112	H	0.100287	0.903239	0.612772
	H113	H	0.097675	0.083529	0.388857
	H114	H	0.919856	0.078957	0.612499
	H115	H	0.920649	0.906210	0.388392
	H116	H	0.618365	0.079614	0.919831
	H117	H	0.395844	0.087010	0.088248
	H118	H	0.623798	0.900292	0.089345
	H119	H	0.395448	0.905635	0.906475
	C120	C	0.389991	0.002080	0.621791
	C121	C	0.632403	0.986291	0.623071
	C122	C	0.631789	0.001578	0.379511
	C123	C	0.389080	0.984948	0.378963
	C124	C	0.630003	0.372594	0.008385
	C125	C	0.630782	0.615087	0.991246
	C126	C	0.388371	0.615045	0.009763
	C127	C	0.388190	0.371884	0.992049
	C128	C	0.018682	0.614480	0.379123
	C129	C	1.000811	0.614777	0.620659
	C130	C	0.019180	0.372456	0.620116
	C131	C	1.001895	0.371780	0.379098
	C132	C	0.888332	0.501310	0.121343
	C133	C	0.130783	0.484969	0.121906
	C134	C	0.131375	0.500530	0.878025
	C135	C	0.887991	0.484243	0.877294
	C136	C	0.131693	0.871012	0.508885
	C137	C	0.131317	0.114203	0.493117
	C138	C	0.889533	0.114889	0.509336
	C139	C	0.889034	0.872361	0.491853
	C140	C	0.518129	0.115848	0.878743
	C141	C	0.501307	0.114902	0.121655
	C142	C	0.518250	0.872303	0.121840
	C143	C	0.501307	0.872678	0.879811
	C144	C	0.389715	0.883094	0.680551
	C145	C	0.634597	0.104488	0.682791
	C146	C	0.634399	0.883161	0.319542
	C147	C	0.385821	0.102951	0.318611
	C148	C	0.688053	0.372562	0.888807
	C149	C	0.691329	0.616094	0.109913
	C150	C	0.330129	0.614465	0.889720
	C151	C	0.329000	0.370758	0.111277
	C152	C	0.898742	0.673733	0.376698
	C153	C	0.121072	0.673289	0.621930
	C154	C	0.899930	0.312406	0.622465
	C155	C	0.120133	0.310208	0.375411
	C156	C	0.899207	0.370779	0.679060
	C157	C	0.120957	0.615678	0.679976
	C158	C	0.898853	0.615916	0.319438
	C159	C	0.120565	0.368956	0.318480
	C160	C	0.386409	0.674128	0.890601
	C161	C	0.634170	0.674681	0.110105
	C162	C	0.632118	0.313187	0.889570
	C163	C	0.386141	0.312018	0.110658
	C164	C	0.690624	0.882369	0.379557
	C165	C	0.692128	0.104531	0.624164
	C166	C	0.332116	0.882505	0.621978
	C167	C	0.327477	0.102559	0.376410
	C168	C	0.886127	0.383233	0.181193
	C169	C	0.133515	0.603243	0.182006
	C170	C	0.134471	0.382640	0.817332
	C171	C	0.885647	0.602558	0.817523
	C172	C	0.191661	0.870200	0.390084
	C173	C	0.193019	0.117286	0.611216
	C174	C	0.828539	0.117041	0.391032
	C175	C	0.831811	0.872568	0.611924
	C176	C	0.398913	0.175581	0.875887
	C177	C	0.620608	0.174695	0.123817
	C178	C	0.398735	0.813175	0.124054
	C179	C	0.620167	0.811917	0.877020
	C180	C	0.398939	0.871292	0.181374
	C181	C	0.620768	0.117111	0.181666
	C182	C	0.398865	0.117601	0.818723
	C183	C	0.620953	0.871326	0.820855
	C184	C	0.885827	0.175217	0.391414
	C185	C	0.136272	0.176347	0.610505
	C186	C	0.133808	0.812316	0.389703
	C187	C	0.888861	0.813624	0.611211
	C188	C	0.191193	0.382083	0.876654
	C189	C	0.190556	0.603477	0.123267
	C190	C	0.828670	0.382851	0.122425
	C191	C	0.827883	0.602369	0.875782
	C192	C	0.414615	0.084849	0.597009
	C193	C	0.607783	0.903498	0.598760
	C194	C	0.606504	0.084000	0.404111
	C195	C	0.414984	0.902858	0.404244
	C196	C	0.605167	0.396979	0.091449
	C197	C	0.605088	0.590754	0.908629
	C198	C	0.413066	0.591374	0.092977
	C199	C	0.413293	0.396808	0.909329
	C200	C	0.101687	0.590147	0.404181
	C201	C	0.917568	0.590897	0.596355
	C202	C	0.101816	0.397690	0.594913
	C203	C	0.919065	0.397609	0.404930
	C204	C	0.913603	0.583809	0.096519
	C205	C	0.105459	0.402619	0.096794
	C206	C	0.106451	0.583216	0.902421
	C207	C	0.913086	0.401693	0.901526
	C208	C	0.106862	0.895283	0.591636
	C209	C	0.104511	0.088035	0.411333
	C210	C	0.915509	0.089784	0.591826
	C211	C	0.912687	0.896152	0.408451
	C212	C	0.601178	0.090970	0.904472
	C213	C	0.418501	0.089848	0.096360
	C214	C	0.601547	0.896758	0.096537
	C215	C	0.418494	0.897606	0.904747
	Zn216	Zn	0.510091	-0.005547	0.751538
	Zn217	Zn	0.510715	-0.006503	0.249883
	Zn218	Zn	0.759208	0.493134	-0.000672
	Zn219	Zn	0.259568	0.493051	0.000342
	Zn220	Zn	0.010027	0.743066	0.499222
	Zn221	Zn	0.010830	0.243342	0.500415
	Zn222	Zn	0.009853	0.492705	0.748898
	Zn223	Zn	0.009812	0.493355	0.251029
	Zn224	Zn	0.509658	0.743686	0.000733
	Zn225	Zn	0.509710	0.243207	-0.000013
	Zn226	Zn	0.761085	-0.006021	0.500859
	Zn227	Zn	0.260329	-0.006863	0.500964
	N228	N	0.424390	0.958677	0.680783
	N229	N	0.598140	0.029776	0.682141
	N230	N	0.598637	0.958296	0.319234
	N231	N	0.423501	0.028828	0.320118
	N232	N	0.686976	0.408668	0.963784
	N233	N	0.689563	0.580193	0.034944
	N234	N	0.331103	0.578606	0.964919
	N235	N	0.330196	0.407089	0.036471
	N236	N	0.974100	0.673268	0.413022
	N237	N	0.045424	0.673136	0.585985
	N238	N	0.975506	0.313143	0.586797
	N239	N	0.045308	0.311959	0.412459
	N240	N	0.974314	0.407461	0.677907
	N241	N	0.045419	0.580007	0.679537
	N242	N	0.974282	0.579789	0.320763
	N243	N	0.045926	0.406460	0.320659
	N244	N	0.421467	0.674692	0.966247
	N245	N	0.597428	0.674436	0.035191
	N246	N	0.596872	0.313054	0.965076
	N247	N	0.422057	0.312578	0.035456
	N248	N	0.689060	0.956970	0.416064
	N249	N	0.690876	0.029882	0.587930
	N250	N	0.332030	0.957509	0.586390
	N251	N	0.329471	0.028220	0.413192
	N252	N	0.922135	0.458165	0.180849
	N253	N	0.097224	0.528477	0.181320
	N254	N	0.098209	0.457480	0.817912
	N255	N	0.922382	0.528077	0.818490
	N256	N	0.190661	0.905933	0.465227
	N257	N	0.190164	0.079484	0.537131
	N258	N	0.830777	0.080117	0.465478
	N259	N	0.831753	0.908135	0.536670
	N260	N	0.474223	0.174666	0.912477
	N261	N	0.545325	0.173520	0.087155
	N262	N	0.474197	0.813627	0.087728
	N263	N	0.544866	0.812751	0.913174
	N264	N	0.474291	0.907227	0.180079
	N265	N	0.545624	0.080722	0.180544
	N266	N	0.474127	0.081222	0.820463
	N267	N	0.546026	0.908385	0.822289
	N268	N	0.922886	0.174053	0.466017
	N269	N	0.098553	0.174452	0.536045
	N270	N	0.097274	0.812797	0.464528
	N271	N	0.923569	0.813316	0.535538
	N272	N	0.189341	0.456404	0.913873
	N273	N	0.189170	0.528842	0.086693
	N274	N	0.829725	0.457539	0.085991
	N275	N	0.829089	0.527813	0.912177
	O276	O	0.566737	0.592970	0.424975
	H277	H	0.568772	0.601300	0.425817
	H278	H	0.557312	0.597632	0.426972
	O279	O	1.218757	1.206728	1.029738
	H280	H	1.223449	1.204034	1.015263
	H281	H	1.221611	1.223170	1.027632
	O282	O	0.930230	0.902563	0.192304
	H283	H	0.935734	0.908327	0.190457
	H284	H	0.945334	0.906757	0.189750
	O285	O	-0.009601	0.023646	1.007068
	H286	H	-0.006558	0.043791	1.006369
	H287	H	-0.000160	0.023178	1.006517
	O288	O	0.089584	-0.102793	0.155896
	H289	H	0.110674	-0.111820	0.161001
	H290	H	0.094108	-0.099523	0.151539
	O291	O	1.226830	0.960900	-0.223193
	H292	H	1.226033	0.916172	-0.218299
	H293	H	1.257484	0.951994	-0.244191
	O294	O	0.214658	1.191597	0.196340
	H295	H	0.240269	1.208743	0.220978
	H296	H	0.203792	1.199941	0.160247
	O297	O	0.367864	0.317520	0.469727
	H298	H	0.371188	0.314947	0.470670
	H299	H	0.385030	0.325936	0.466208
	O300	O	0.716254	0.701139	0.531740
	H301	H	0.713062	0.693732	0.546182
	H302	H	0.729259	0.721987	0.535075
	O303	O	0.795855	0.207859	-0.030861
	H304	H	0.795502	0.197525	-0.036667
	H305	H	0.784437	0.228383	-0.038565
	O306	O	0.139945	0.935065	1.071462
	H307	H	0.141501	0.956041	1.084377
	H308	H	0.147077	0.915979	1.081007
	O309	O	0.305432	0.472818	0.697138
	H310	H	0.299725	0.504275	0.672752
	H311	H	0.288766	0.480246	0.714561
	O312	O	0.550215	0.674160	0.468601
	H313	H	0.548673	0.661295	0.463832
	H314	H	0.561483	0.677710	0.486398
	O315	O	0.304156	-0.405071	1.512889
	H316	H	0.314069	-0.412920	1.503010
	H317	H	0.301472	-0.393442	1.494829
	O318	O	-0.298308	0.295296	-0.509066
	H319	H	-0.304207	0.291083	-0.511854
	H320	H	-0.296438	0.293874	-0.501572
	O321	O	0.498101	0.564649	0.627262
	H322	H	0.520071	0.577897	0.632564
	H323	H	0.498637	0.547701	0.633826
	O324	O	0.395346	0.281903	0.470830
	H325	H	0.397953	0.286060	0.480891
	H326	H	0.391947	0.274606	0.486825
	O327	O	1.072230	-0.163128	1.098389
	H328	H	1.067669	-0.154507	1.085220
	H329	H	1.073964	-0.156924	1.096685
	O330	O	0.525088	0.256380	-0.315412
	H331	H	0.514274	0.244261	-0.322617
	H332	H	0.516775	0.249328	-0.313844
	O333	O	0.896278	1.193046	0.795809
	H334	H	0.899910	1.205968	0.781894
	H335	H	0.917463	1.175123	0.794441
	O336	O	1.210396	-0.208652	0.796753
	H337	H	1.222677	-0.227349	0.807356
	H338	H	1.157888	-0.215390	0.793970
	O339	O	0.410007	0.370939	0.533804
	H340	H	0.406240	0.369455	0.538007
	H341	H	0.405890	0.392108	0.537216
	O342	O	0.492676	0.557962	0.693807
	H343	H	0.489639	0.553016	0.689671
	H344	H	0.484088	0.557753	0.690900
	O345	O	0.059610	-0.201550	0.111834
	H346	H	0.066233	-0.208393	0.117962
	H347	H	0.075980	-0.185750	0.107310
	O348	O	0.409871	0.408608	0.372456
	H349	H	0.387086	0.403695	0.361409
	H350	H	0.428308	0.402052	0.367620
	O351	O	0.803748	1.100796	-0.209537
	H352	H	0.799437	1.102944	-0.186516
	H353	H	0.817895	1.105225	-0.217340
	O354	O	0.610954	0.289038	0.297620
	H355	H	0.616633	0.280420	0.293080
	H356	H	0.629703	0.303019	0.296468
	O357	O	0.829689	0.889120	1.064614
	H358	H	0.820221	0.892233	1.080825
	H359	H	0.820776	0.890670	1.064543
	O360	O	-0.008080	0.962029	0.885316
	H361	H	-0.014974	0.967438	0.897721
	H362	H	-0.003176	0.979557	0.880576
	O363	O	0.689529	0.482889	0.499325
	H364	H	0.691336	0.487958	0.504524
	H365	H	0.697737	0.480198	0.505907
	O366	O	1.008421	0.206755	0.861247
	H367	H	1.022221	0.189145	0.857656
	H368	H	1.005326	0.218021	0.857246
	O369	O	0.573118	0.508316	0.680127
	H370	H	0.579026	0.496963	0.675238
	H371	H	0.572986	0.486953	0.672656
	O372	O	0.318550	0.299813	0.636209
	H373	H	0.324723	0.292233	0.625665
	H374	H	0.314647	0.333958	0.657334
	O375	O	-0.011934	0.923552	0.958080
	H376	H	-0.016737	0.921599	0.964469
	H377	H	-0.016396	0.933839	0.963290
	O378	O	0.803076	0.790528	0.125867
	H379	H	0.798644	0.769758	0.153177
	H380	H	0.822517	0.781107	0.126384
	O381	O	1.401730	-0.350486	0.428645
	H382	H	1.393943	-0.332106	0.406640
	H383	H	1.402342	-0.357149	0.434279
	O384	O	0.100053	0.051155	0.904671
	H385	H	0.110200	0.034612	0.892517
	H386	H	0.083111	0.048658	0.914619
	O387	O	-0.106483	1.145274	1.054073
	H388	H	-0.097988	1.141635	1.049224
	H389	H	-0.113109	1.141960	1.038479
	O390	O	0.010434	0.157600	1.208555
	H391	H	0.013157	0.144526	1.211835
	H392	H	0.034352	0.156558	1.212847
	O393	O	-0.015987	1.000293	-0.010456
	H394	H	-0.014231	1.006340	-0.001558
	H395	H	-0.018273	0.996583	-0.009511
	O396	O	0.501358	0.295116	0.713271
	H397	H	0.502052	0.288661	0.731709
	H398	H	0.492159	0.303386	0.718051
	O399	O	0.322262	0.617213	0.291727
	H400	H	0.318685	0.619647	0.281644
	H401	H	0.303775	0.625428	0.295593
	O402	O	0.209034	0.017954	1.204502
	H403	H	0.214066	0.030626	1.202760
	H404	H	0.214700	0.039182	1.219328
	O405	O	0.695145	0.653225	-0.395582
	H406	H	0.708581	0.667148	-0.380095
	H407	H	0.689435	0.633350	-0.393304
	O408	O	0.798536	0.964890	1.211574
	H409	H	0.795607	0.964291	1.210911
	H410	H	0.780451	0.949141	1.223040
	O411	O	0.577961	0.705698	0.607178
	H412	H	0.584637	0.710844	0.591727
	H413	H	0.569232	0.707561	0.632383
	O414	O	0.509279	0.640162	0.333750
	H415	H	0.516690	0.646776	0.322157
	H416	H	0.520222	0.631013	0.327868
	O417	O	0.677286	0.414886	0.593113
	H418	H	0.667278	0.419509	0.578666
	H419	H	0.677263	0.423204	0.581872
	O420	O	0.357045	0.403359	0.325030
	H421	H	0.363168	0.407611	0.327149
	H422	H	0.377274	0.404398	0.335646
	O423	O	0.043456	0.783584	-0.208978
	H424	H	0.021165	0.789497	-0.207850
	H425	H	0.027434	0.774128	-0.209484
	O426	O	1.000123	0.987147	0.791805
	H427	H	0.993566	0.976754	0.800461
	H428	H	1.032775	0.981462	0.790596
	O429	O	0.717252	0.452832	0.313664
	H430	H	0.714051	0.450373	0.318891
	H431	H	0.732677	0.455212	0.297225
	O432	O	0.083613	-0.106293	1.088694
	H433	H	0.088771	-0.108142	1.077473
	H434	H	0.085578	-0.099427	1.077621
	O435	O	-0.173677	0.080206	-0.054012
	H436	H	-0.179109	0.106655	-0.048064
	H437	H	-0.176648	0.092996	-0.078148
	O438	O	0.881103	-0.082901	-0.153872
	H439	H	0.867492	-0.078201	-0.149806
	H440	H	0.895641	-0.076776	-0.137712
	O441	O	0.629352	0.290544	0.298709
	H442	H	0.642741	0.283834	0.333110
	H443	H	0.641261	0.271472	0.274259
	O444	O	-0.129939	0.782814	0.851100
	H445	H	-0.117149	0.791582	0.877836
	H446	H	-0.125567	0.792813	0.852407
	O447	O	0.318444	0.634043	0.639051
	H448	H	0.317213	0.630054	0.634295
	H449	H	0.332999	0.631627	0.618173
	O450	O	0.553946	0.550283	0.401657
	H451	H	0.562153	0.533582	0.397411
	H452	H	0.554037	0.549053	0.424548
	O453	O	0.327871	0.750793	0.231049
	H454	H	0.326579	0.769616	0.245331
	H455	H	0.336639	0.758691	0.227367
	O456	O	0.178489	0.946040	0.058963
	H457	H	0.174763	0.950943	0.043611
	H458	H	0.196841	0.950624	0.076615
	O459	O	0.471453	0.462876	0.332161
	H460	H	0.478017	0.461882	0.334800
	H461	H	0.482614	0.447699	0.326126
	O462	O	0.591349	0.576812	0.642460
	H463	H	0.578574	0.594559	0.629870
	H464	H	0.610360	0.580687	0.647408
	O465	O	0.936472	0.153596	0.104392
	H466	H	0.937122	0.147452	0.108401
	H467	H	0.944915	0.152948	0.099509
