data_Molecule from HDF5

_cell_length_a		16.192365
_cell_length_b		16.377439
_cell_length_c		16.311868
_cell_angle_alpha	89.632092
_cell_angle_beta	89.829189
_cell_angle_gamma	90.360279
_symmetry_space_group_name_H-M	'P 1'
_symmetry_Int_Tables_number		1

loop_
	_symmetry_equiv_pos_as_xyz
	x,y,z

loop_
	_atom_site_label
	_atom_site_type_symbol
	_atom_site_fract_x
	_atom_site_fract_y
	_atom_site_fract_z
	H0	H	0.388382	0.826398	0.727643
	H1	H	0.597763	0.147337	0.726157
	H2	H	0.596911	0.827402	0.290335
	H3	H	0.393766	0.148058	0.288129
	H4	H	0.713512	0.389110	0.846140
	H5	H	0.709198	0.585772	0.172425
	H6	H	0.277864	0.588562	0.846962
	H7	H	0.279415	0.385556	0.171303
	H8	H	0.833341	0.706121	0.406463
	H9	H	0.157144	0.707706	0.612025
	H10	H	0.833705	0.268200	0.617107
	H11	H	0.155697	0.273824	0.407957
	H12	H	0.832580	0.385306	0.728204
	H13	H	0.157325	0.592672	0.727906
	H14	H	0.832128	0.590640	0.293349
	H15	H	0.155304	0.387585	0.293011
	H16	H	0.391929	0.706691	0.847150
	H17	H	0.597344	0.706774	0.169425
	H18	H	0.600072	0.270278	0.845322
	H19	H	0.390073	0.264767	0.167559
	H20	H	0.712131	0.826669	0.407704
	H21	H	0.712735	0.148501	0.609876
	H22	H	0.274731	0.826049	0.608842
	H23	H	0.280329	0.149822	0.405934
	H24	H	0.888582	0.327288	0.231420
	H25	H	0.097075	0.649377	0.226316
	H26	H	0.100153	0.328886	0.790263
	H27	H	0.892629	0.648388	0.790510
	H28	H	0.208706	0.891175	0.344982
	H29	H	0.213067	0.088213	0.670668
	H30	H	0.779098	0.090309	0.346960
	H31	H	0.775944	0.885683	0.671093
	H32	H	0.333061	0.204868	0.901413
	H33	H	0.655713	0.205130	0.108242
	H34	H	0.332145	0.768042	0.113571
	H35	H	0.657155	0.773371	0.907850
	H36	H	0.331633	0.883858	0.226719
	H37	H	0.656293	0.089927	0.222983
	H38	H	0.332214	0.088564	0.790939
	H39	H	0.655865	0.885056	0.791102
	H40	H	0.893246	0.208607	0.348772
	H41	H	0.099144	0.207093	0.671114
	H42	H	0.098320	0.770749	0.347578
	H43	H	0.887319	0.764670	0.669419
	H44	H	0.210283	0.326343	0.910190
	H45	H	0.214380	0.648135	0.112048
	H46	H	0.775035	0.326063	0.112516
	H47	H	0.780233	0.649524	0.909033
	H48	H	0.400056	0.102488	0.597653
	H49	H	0.595083	0.869349	0.597093
	H50	H	0.581925	0.099453	0.421827
	H51	H	0.402179	0.872364	0.417321
	H52	H	0.584299	0.390166	0.123751
	H53	H	0.591812	0.574688	0.893864
	H54	H	0.399701	0.583117	0.127042
	H55	H	0.396326	0.394315	0.889383
	H56	H	0.116356	0.590800	0.414801
	H57	H	0.882690	0.574661	0.593738
	H58	H	0.112493	0.397007	0.604124
	H59	H	0.875383	0.397498	0.417429
	H60	H	0.110959	0.396287	0.598352
	H61	H	0.879604	0.573004	0.605327
	H62	H	0.107004	0.578705	0.431355
	H63	H	0.876669	0.394472	0.424996
	H64	H	0.402400	0.571659	0.122501
	H65	H	0.578598	0.578618	0.895967
	H66	H	0.584314	0.398983	0.121795
	H67	H	0.403634	0.402687	0.894292
	H68	H	0.595690	0.106294	0.415954
	H69	H	0.579347	0.870090	0.610307
	H70	H	0.405948	0.103656	0.603657
	H71	H	0.403749	0.873567	0.417811
	H72	H	0.909875	0.599193	0.098716
	H73	H	0.078793	0.374904	0.102441
	H74	H	0.093490	0.606355	0.915754
	H75	H	0.911753	0.375114	0.918790
	H76	H	0.081389	0.891968	0.624775
	H77	H	0.081939	0.092049	0.392892
	H78	H	0.901906	0.071487	0.623381
	H79	H	0.913041	0.902460	0.399248
	H80	H	0.608918	0.078485	0.921467
	H81	H	0.377923	0.076449	0.094072
	H82	H	0.611296	0.889901	0.095785
	H83	H	0.376473	0.895268	0.914378
	H84	H	0.606933	0.903033	0.093825
	H85	H	0.378643	0.072796	0.097479
	H86	H	0.610525	0.074360	0.912836
	H87	H	0.376958	0.892269	0.921854
	H88	H	0.911064	0.079571	0.623054
	H89	H	0.094508	0.083056	0.390642
	H90	H	0.089407	0.899334	0.624166
	H91	H	0.906335	0.887876	0.391256
	H92	H	0.078318	0.601869	0.914035
	H93	H	0.089089	0.372130	0.099277
	H94	H	0.895222	0.604543	0.096912
	H95	H	0.900708	0.374111	0.927013
	H96	H	0.408138	0.099995	0.596125
	H97	H	0.576829	0.877992	0.591712
	H98	H	0.582013	0.104431	0.406074
	H99	H	0.401957	0.872618	0.418923
	H100	H	0.576736	0.394008	0.120402
	H101	H	0.587614	0.587915	0.891745
	H102	H	0.411326	0.581552	0.122549
	H103	H	0.407983	0.391620	0.892876
	H104	H	0.109556	0.569988	0.411233
	H105	H	0.877184	0.583718	0.600161
	H106	H	0.110587	0.402330	0.600698
	H107	H	0.879327	0.402689	0.423121
	H108	H	0.902312	0.604905	0.110886
	H109	H	0.085498	0.370870	0.109306
	H110	H	0.084677	0.599233	0.927565
	H111	H	0.900247	0.369763	0.913922
	H112	H	0.079422	0.901850	0.620170
	H113	H	0.081764	0.077141	0.397365
	H114	H	0.900327	0.082945	0.627553
	H115	H	0.896178	0.902362	0.392802
	H116	H	0.613342	0.083260	0.913822
	H117	H	0.376985	0.077006	0.098154
	H118	H	0.611796	0.899220	0.106704
	H119	H	0.378542	0.900110	0.919782
	C120	C	0.372017	-0.004242	0.630167
	C121	C	0.615005	0.978563	0.629837
	C122	C	0.616650	-0.003435	0.385394
	C123	C	0.372945	0.979166	0.386517
	C124	C	0.614950	0.365536	0.015540
	C125	C	0.616079	0.609868	1.000632
	C126	C	0.373700	0.609076	0.017330
	C127	C	0.372458	0.364980	0.999090
	C128	C	0.003778	0.610204	0.388315
	C129	C	0.986631	0.609536	0.630722
	C130	C	0.003802	0.367201	0.632428
	C131	C	0.984541	0.368385	0.390626
	C132	C	0.871036	0.496570	0.133467
	C133	C	0.115886	0.479068	0.133128
	C134	C	0.116128	0.496756	0.888525
	C135	C	0.873883	0.479351	0.888721
	C136	C	0.114415	0.868300	0.516228
	C137	C	0.117004	0.112389	0.500685
	C138	C	0.873652	0.109712	0.518233
	C139	C	0.872751	0.865517	0.500818
	C140	C	0.503779	0.108909	0.885139
	C141	C	0.485115	0.107324	0.127044
	C142	C	0.502891	0.865975	0.130323
	C143	C	0.485076	0.866562	0.887670
	C144	C	0.370274	0.874663	0.688015
	C145	C	0.616406	0.099571	0.687126
	C146	C	0.616296	0.875590	0.328814
	C147	C	0.374315	0.100361	0.327926
	C148	C	0.674095	0.368540	0.894287
	C149	C	0.671734	0.607230	0.123157
	C150	C	0.316194	0.608562	0.895515
	C151	C	0.316679	0.365475	0.121879
	C152	C	0.881667	0.667360	0.387799
	C153	C	0.108475	0.668910	0.631575
	C154	C	0.882000	0.307871	0.634687
	C155	C	0.107152	0.312347	0.389560
	C156	C	0.881623	0.366072	0.690280
	C157	C	0.108690	0.611191	0.688768
	C158	C	0.881203	0.610017	0.331285
	C159	C	0.106780	0.368685	0.331973
	C160	C	0.373096	0.667398	0.895647
	C161	C	0.616218	0.667394	0.121669
	C162	C	0.617651	0.309205	0.893887
	C163	C	0.371869	0.305320	0.119846
	C164	C	0.673615	0.875326	0.387383
	C165	C	0.673514	0.100233	0.629443
	C166	C	0.313180	0.874555	0.629381
	C167	C	0.317699	0.101182	0.386322
	C168	C	0.870105	0.375437	0.191752
	C169	C	0.116362	0.600563	0.188754
	C170	C	0.117623	0.376366	0.829955
	C171	C	0.873751	0.600287	0.830039
	C172	C	0.170930	0.870472	0.393860
	C173	C	0.174694	0.109328	0.622126
	C174	C	0.817364	0.109629	0.395831
	C175	C	0.814398	0.865702	0.622419
	C176	C	0.381567	0.166342	0.883288
	C177	C	0.607267	0.165942	0.127013
	C178	C	0.380690	0.807291	0.132165
	C179	C	0.608006	0.810842	0.888214
	C180	C	0.380665	0.864848	0.188755
	C181	C	0.607587	0.108398	0.184122
	C182	C	0.381358	0.108164	0.828312
	C183	C	0.607407	0.866591	0.829900
	C184	C	0.873999	0.168963	0.396959
	C185	C	0.117834	0.168477	0.622486
	C186	C	0.116132	0.810430	0.395281
	C187	C	0.870143	0.805606	0.621489
	C188	C	0.172642	0.375103	0.889646
	C189	C	0.174976	0.600180	0.131657
	C190	C	0.813578	0.374613	0.132735
	C191	C	0.817831	0.600909	0.889202
	C192	C	0.397280	0.079940	0.606356
	C193	C	0.590833	0.894604	0.606482
	C194	C	0.593370	0.081286	0.407966
	C195	C	0.395926	0.894713	0.410930
	C196	C	0.589169	0.387978	0.100063
	C197	C	0.592814	0.587121	0.915888
	C198	C	0.397484	0.585441	0.102194
	C199	C	0.395887	0.389183	0.914170
	C200	C	0.088822	0.586751	0.412201
	C201	C	0.901772	0.584495	0.606774
	C202	C	0.089155	0.391365	0.608077
	C203	C	0.899356	0.391575	0.414755
	C204	C	0.895326	0.580935	0.109155
	C205	C	0.091487	0.394546	0.110192
	C206	C	0.092316	0.580704	0.912192
	C207	C	0.897455	0.394952	0.912813
	C208	C	0.090287	0.891160	0.600989
	C209	C	0.093051	0.090645	0.415621
	C210	C	0.897576	0.085065	0.602835
	C211	C	0.897956	0.890446	0.416456
	C212	C	0.588750	0.085590	0.909019
	C213	C	0.399874	0.082595	0.103478
	C214	C	0.588008	0.890253	0.105684
	C215	C	0.399506	0.889237	0.911676
	Zn216	Zn	0.494116	-0.013018	0.759187
	Zn217	Zn	0.493810	-0.012466	0.256880
	Zn218	Zn	0.744215	0.487649	0.009506
	Zn219	Zn	0.244198	0.487334	0.009806
	Zn220	Zn	-0.004465	0.737546	0.508891
	Zn221	Zn	-0.005514	0.240396	0.510919
	Zn222	Zn	-0.004891	0.487765	0.759636
	Zn223	Zn	-0.006477	0.488252	0.261765
	Zn224	Zn	0.494341	0.739190	0.008709
	Zn225	Zn	0.493889	0.235608	0.005675
	Zn226	Zn	0.744656	-0.012038	0.508825
	Zn227	Zn	0.243935	-0.011468	0.507543
	N228	N	0.406138	0.951047	0.688588
	N229	N	0.580764	0.023172	0.687560
	N230	N	0.581936	0.951995	0.327428
	N231	N	0.407719	0.023377	0.327828
	N232	N	0.672478	0.402941	0.970945
	N233	N	0.671843	0.572156	0.046876
	N234	N	0.316193	0.573188	0.972210
	N235	N	0.317052	0.402172	0.045868
	N236	N	0.958814	0.667585	0.422556
	N237	N	0.031580	0.667980	0.596230
	N238	N	0.959205	0.308433	0.599383
	N239	N	0.030167	0.311988	0.425265
	N240	N	0.958319	0.402334	0.688799
	N241	N	0.031816	0.574972	0.688572
	N242	N	0.958172	0.575159	0.331512
	N243	N	0.029503	0.402993	0.332783
	N244	N	0.407794	0.668086	0.972554
	N245	N	0.582453	0.669129	0.044400
	N246	N	0.581494	0.307341	0.970385
	N247	N	0.405791	0.304973	0.042476
	N248	N	0.674162	0.951743	0.421916
	N249	N	0.673341	0.024057	0.594551
	N250	N	0.314270	0.950812	0.593826
	N251	N	0.316793	0.024935	0.422159
	N252	N	0.904632	0.452396	0.192589
	N253	N	0.080325	0.524356	0.189699
	N254	N	0.083239	0.453016	0.828917
	N255	N	0.907830	0.523641	0.829507
	N256	N	0.170158	0.905668	0.470149
	N257	N	0.174602	0.075539	0.545237
	N258	N	0.817153	0.073524	0.472210
	N259	N	0.816029	0.902239	0.546164
	N260	N	0.458744	0.167027	0.917923
	N261	N	0.530107	0.165093	0.092079
	N262	N	0.457734	0.807574	0.096686
	N263	N	0.530704	0.810546	0.923105
	N264	N	0.457729	0.900479	0.187794
	N265	N	0.530694	0.072229	0.184002
	N266	N	0.458300	0.073279	0.829024
	N267	N	0.529928	0.900596	0.829529
	N268	N	0.908255	0.169156	0.474096
	N269	N	0.082913	0.170433	0.545767
	N270	N	0.081463	0.809232	0.472271
	N271	N	0.905534	0.805244	0.544754
	N272	N	0.171921	0.450831	0.925344
	N273	N	0.174998	0.523435	0.097857
	N274	N	0.813791	0.451121	0.097296
	N275	N	0.817838	0.524703	0.925011
	O276	O	0.429130	0.456887	0.444739
	H277	H	0.407135	0.445837	0.448036
	H278	H	0.425403	0.467648	0.469697
	O279	O	0.341954	0.368735	0.643427
	H280	H	0.359481	0.371651	0.640496
	H281	H	0.357413	0.381183	0.655118
	O282	O	1.183098	-0.197612	0.950742
	H283	H	1.194031	-0.207098	0.944957
	H284	H	1.175010	-0.209816	0.952691
	O285	O	0.649438	0.318614	0.321729
	H286	H	0.636197	0.314119	0.315618
	H287	H	0.650160	0.346788	0.317020
	O288	O	1.080838	1.075467	1.135747
	H289	H	1.096310	1.069622	1.127176
	H290	H	1.080258	1.065233	1.138583
	O291	O	0.521738	1.674525	-0.393504
	H292	H	0.540026	1.682232	-0.392375
	H293	H	0.525911	1.666107	-0.368351
	O294	O	0.476766	0.581440	0.557069
	H295	H	0.477756	0.574123	0.554166
	H296	H	0.480751	0.581452	0.557467
	O297	O	0.621241	0.579880	0.629564
	H298	H	0.627939	0.573211	0.637981
	H299	H	0.633835	0.579191	0.636992
	O300	O	0.418878	0.542674	0.526663
	H301	H	0.409248	0.527299	0.532774
	H302	H	0.422358	0.537909	0.526929
	O303	O	0.345113	0.297695	0.521942
	H304	H	0.339448	0.298043	0.522234
	H305	H	0.329167	0.287603	0.534791
	O306	O	0.634682	0.519309	0.358500
	H307	H	0.642499	0.521177	0.350475
	H308	H	0.616150	0.522063	0.353501
	O309	O	0.638762	0.334033	0.407026
	H310	H	0.648679	0.327790	0.388908
	H311	H	0.641881	0.333292	0.392891
	O312	O	-0.089907	0.152111	-0.116256
	H313	H	-0.081181	0.160507	-0.119368
	H314	H	-0.064787	0.155321	-0.101120
	O315	O	0.451019	0.549133	0.468781
	H316	H	0.452336	0.556959	0.478688
	H317	H	0.434587	0.543280	0.457560
	O318	O	0.015376	0.967722	0.912060
	H319	H	0.018366	0.968283	0.928754
	H320	H	-0.007479	0.958154	0.910469
	O321	O	0.501845	0.603241	0.406920
	H322	H	0.507792	0.595627	0.412126
	H323	H	0.501100	0.608976	0.409986
	O324	O	-0.008979	0.819701	-0.130390
	H325	H	-0.028024	0.819961	-0.132751
	H326	H	-0.018689	0.820229	-0.140297
	O327	O	0.097278	0.036035	-0.080487
	H328	H	0.081644	0.034988	-0.086957
	H329	H	0.101354	0.031415	-0.085127
	O330	O	-0.005124	-0.177970	1.135235
	H331	H	0.004286	-0.187567	1.130023
	H332	H	-0.025221	-0.195974	1.143473
	O333	O	-0.144014	-0.069915	0.996752
	H334	H	-0.148046	-0.065578	0.995941
	H335	H	-0.145182	-0.076681	1.017757
	O336	O	0.454759	0.378163	0.531769
	H337	H	0.465455	0.379773	0.535047
	H338	H	0.459578	0.379701	0.509211
	O339	O	1.066550	-0.082736	0.048405
	H340	H	1.059537	-0.089381	0.060811
	H341	H	1.074704	-0.071817	0.021997
	O342	O	0.002543	0.036761	0.204352
	H343	H	0.003253	0.050064	0.203428
	H344	H	0.010670	0.025713	0.198361
	O345	O	0.839612	-0.004583	0.861805
	H346	H	0.850997	0.024350	0.876249
	H347	H	0.831801	0.013350	0.841248
	O348	O	1.008550	0.890377	-0.043257
	H349	H	1.002267	0.878655	-0.056920
	H350	H	1.012435	0.901236	-0.054404
	O351	O	0.513165	0.328125	0.464566
	H352	H	0.510592	0.339476	0.466098
	H353	H	0.521078	0.309797	0.469087
	O354	O	1.163561	0.127576	1.087146
	H355	H	1.167839	0.118533	1.102830
	H356	H	1.176838	0.135003	1.100534
	O357	O	0.492453	0.526775	0.662240
	H358	H	0.496257	0.516246	0.661501
	H359	H	0.500963	0.519062	0.649161
	O360	O	0.839433	0.922578	1.101607
	H361	H	0.818843	0.920373	1.103811
	H362	H	0.838791	0.927088	1.102118
	O363	O	-0.108176	1.106964	0.977192
	H364	H	-0.092804	1.102504	0.963892
	H365	H	-0.116207	1.110595	0.972813
	O366	O	0.622832	0.533677	0.429783
	H367	H	0.609276	0.542956	0.429033
	H368	H	0.621767	0.534648	0.426122
	O369	O	0.131660	1.098959	-0.080423
	H370	H	0.142033	1.102764	-0.067715
	H371	H	0.139887	1.086723	-0.077886
	O372	O	0.539019	0.528602	0.671293
	H373	H	0.542474	0.532719	0.664598
	H374	H	0.534165	0.521651	0.672415
	O375	O	0.332531	0.507174	0.350299
	H376	H	0.328231	0.518490	0.360032
	H377	H	0.329321	0.520293	0.362390
	O378	O	1.035403	1.030835	0.089613
	H379	H	1.042180	1.024915	0.098417
	H380	H	1.033912	1.026700	0.076839
	O381	O	0.911048	-0.169562	0.054363
	H382	H	0.897690	-0.168830	0.054476
	H383	H	0.912970	-0.171936	0.057614
	O384	O	1.620541	1.468656	-0.419097
	H385	H	1.621600	1.464538	-0.450570
	H386	H	1.621501	1.465581	-0.417421
	O387	O	-0.128905	-0.159573	0.192594
	H388	H	-0.131735	-0.151303	0.204196
	H389	H	-0.140290	-0.165711	0.187062
	O390	O	-0.094434	0.880276	-0.060230
	H391	H	-0.099244	0.883976	-0.057411
	H392	H	-0.103980	0.896065	-0.055395
	O393	O	0.547366	0.452600	0.472371
	H394	H	0.542780	0.460139	0.460366
	H395	H	0.547317	0.444796	0.464135
	O396	O	0.510426	0.460687	0.650257
	H397	H	0.519235	0.452226	0.661571
	H398	H	0.506319	0.444406	0.636330
	O399	O	0.259749	1.240462	1.224394
	H400	H	0.264101	1.231889	1.219919
	H401	H	0.254827	1.239590	1.231754
	O402	O	0.425125	0.632570	0.416024
	H403	H	0.438324	0.629244	0.428690
	H404	H	0.417586	0.622475	0.426820
	O405	O	0.915849	1.115144	0.026384
	H406	H	0.917727	1.104303	0.023719
	H407	H	0.919051	1.109144	0.031081
	O408	O	1.106083	1.011113	0.115743
	H409	H	1.110739	1.013810	0.111290
	H410	H	1.109808	1.010390	0.112937
	O411	O	0.986887	0.123947	0.903669
	H412	H	0.989511	0.138125	0.899581
	H413	H	1.009327	0.112298	0.902906
	O414	O	0.321148	0.594261	0.486188
	H415	H	0.330090	0.610027	0.496022
	H416	H	0.313030	0.596578	0.494323
	O417	O	0.536317	0.367413	0.652275
	H418	H	0.538371	0.359976	0.637818
	H419	H	0.536058	0.363224	0.638446
