data_Molecule from HDF5

_cell_length_a		16.221912
_cell_length_b		16.237110
_cell_length_c		16.288170
_cell_angle_alpha	89.843722
_cell_angle_beta	89.574242
_cell_angle_gamma	90.357605
_symmetry_space_group_name_H-M	'P 1'
_symmetry_Int_Tables_number		1

loop_
	_symmetry_equiv_pos_as_xyz
	x,y,z

loop_
	_atom_site_label
	_atom_site_type_symbol
	_atom_site_fract_x
	_atom_site_fract_y
	_atom_site_fract_z
	H0	H	0.402665	0.841933	0.711981
	H1	H	0.604134	0.169685	0.707583
	H2	H	0.602197	0.841311	0.279528
	H3	H	0.406471	0.169107	0.280582
	H4	H	0.721522	0.409121	0.832615
	H5	H	0.718446	0.603441	0.160248
	H6	H	0.292856	0.604486	0.832007
	H7	H	0.288808	0.405248	0.159223
	H8	H	0.838573	0.717426	0.400119
	H9	H	0.167374	0.722454	0.593055
	H10	H	0.839959	0.288821	0.596130
	H11	H	0.169078	0.293305	0.397077
	H12	H	0.840986	0.403793	0.714556
	H13	H	0.169268	0.606061	0.708282
	H14	H	0.839902	0.602559	0.282793
	H15	H	0.168058	0.407623	0.280531
	H16	H	0.408607	0.719881	0.831907
	H17	H	0.603412	0.720509	0.159539
	H18	H	0.606188	0.292751	0.831547
	H19	H	0.404359	0.289140	0.159022
	H20	H	0.717579	0.840328	0.396115
	H21	H	0.718692	0.168861	0.591329
	H22	H	0.288455	0.841530	0.595651
	H23	H	0.293789	0.170125	0.399035
	H24	H	0.903838	0.341229	0.211639
	H25	H	0.104713	0.668890	0.209848
	H26	H	0.105293	0.342030	0.779278
	H27	H	0.908560	0.669338	0.781258
	H28	H	0.219593	0.907509	0.332381
	H29	H	0.218735	0.103786	0.659145
	H30	H	0.792922	0.103119	0.330974
	H31	H	0.786170	0.904995	0.658486
	H32	H	0.340524	0.220135	0.897970
	H33	H	0.669598	0.220394	0.091443
	H34	H	0.341307	0.789216	0.094638
	H35	H	0.670209	0.794828	0.896835
	H36	H	0.340297	0.905739	0.209949
	H37	H	0.668727	0.105517	0.208150
	H38	H	0.340197	0.104534	0.781915
	H39	H	0.668842	0.909724	0.779654
	H40	H	0.908067	0.219777	0.332291
	H41	H	0.102618	0.219573	0.659417
	H42	H	0.103398	0.792052	0.331822
	H43	H	0.901909	0.789833	0.659487
	H44	H	0.219447	0.341178	0.896863
	H45	H	0.219123	0.669463	0.092905
	H46	H	0.788445	0.341663	0.097353
	H47	H	0.795708	0.670819	0.898879
	H48	H	0.412253	0.119770	0.578716
	H49	H	0.596824	0.885396	0.596930
	H50	H	0.585186	0.115703	0.407253
	H51	H	0.413508	0.890222	0.405392
	H52	H	0.597904	0.417206	0.111195
	H53	H	0.603567	0.598414	0.879071
	H54	H	0.416247	0.590900	0.108724
	H55	H	0.414102	0.418244	0.880991
	H56	H	0.117237	0.593740	0.411847
	H57	H	0.886485	0.599348	0.588776
	H58	H	0.124643	0.404402	0.589620
	H59	H	0.887220	0.416510	0.400186
	H60	H	0.116665	0.415475	0.577165
	H61	H	0.888839	0.594553	0.588525
	H62	H	0.122643	0.593323	0.392302
	H63	H	0.884840	0.405786	0.401420
	H64	H	0.416901	0.605106	0.113287
	H65	H	0.600035	0.600889	0.879590
	H66	H	0.592649	0.411355	0.111470
	H67	H	0.417338	0.410293	0.879850
	H68	H	0.613881	0.123709	0.410044
	H69	H	0.586067	0.891642	0.586436
	H70	H	0.404008	0.125716	0.592883
	H71	H	0.406117	0.886960	0.403601
	H72	H	0.922120	0.621609	0.099680
	H73	H	0.091716	0.391096	0.084741
	H74	H	0.099945	0.623136	0.897543
	H75	H	0.919359	0.391137	0.906271
	H76	H	0.102501	0.909760	0.615537
	H77	H	0.101555	0.102875	0.377356
	H78	H	0.917002	0.108429	0.613820
	H79	H	0.901535	0.916878	0.378047
	H80	H	0.623914	0.100824	0.894135
	H81	H	0.386558	0.094158	0.097125
	H82	H	0.617958	0.920425	0.082483
	H83	H	0.386469	0.909730	0.902179
	H84	H	0.624531	0.915830	0.096802
	H85	H	0.384715	0.106197	0.087447
	H86	H	0.621901	0.104731	0.904875
	H87	H	0.388653	0.912549	0.906285
	H88	H	0.898462	0.096007	0.615401
	H89	H	0.100887	0.096046	0.378983
	H90	H	0.095305	0.922462	0.609432
	H91	H	0.920266	0.916852	0.382436
	H92	H	0.096061	0.620837	0.903453
	H93	H	0.103236	0.387604	0.085867
	H94	H	0.916341	0.617878	0.078544
	H95	H	0.908610	0.388971	0.908155
	H96	H	0.420285	0.121500	0.593519
	H97	H	0.600850	0.888340	0.581801
	H98	H	0.600233	0.127294	0.384086
	H99	H	0.412129	0.887011	0.398190
	H100	H	0.599760	0.410172	0.113838
	H101	H	0.603819	0.602696	0.877791
	H102	H	0.404486	0.596916	0.114548
	H103	H	0.409361	0.411398	0.877581
	H104	H	0.123750	0.611082	0.402789
	H105	H	0.886579	0.596461	0.593744
	H106	H	0.120137	0.420942	0.593844
	H107	H	0.889101	0.411768	0.410345
	H108	H	0.901600	0.626807	0.092384
	H109	H	0.095393	0.385959	0.095055
	H110	H	0.103233	0.622986	0.903530
	H111	H	0.913027	0.386522	0.898703
	H112	H	0.086989	0.908547	0.611149
	H113	H	0.095831	0.100184	0.380241
	H114	H	0.917371	0.086775	0.606775
	H115	H	0.911846	0.900971	0.376308
	H116	H	0.619782	0.094390	0.902172
	H117	H	0.391482	0.093386	0.081529
	H118	H	0.623956	0.905348	0.084581
	H119	H	0.388160	0.914128	0.901748
	C120	C	0.382436	0.014134	0.617633
	C121	C	0.624286	0.996743	0.615887
	C122	C	0.627006	0.013460	0.372300
	C123	C	0.383483	0.996797	0.374375
	C124	C	0.626850	0.384934	0.004001
	C125	C	0.629003	0.628558	0.987464
	C126	C	0.384694	0.626547	0.004006
	C127	C	0.383653	0.383899	0.987297
	C128	C	0.012539	0.627404	0.374346
	C129	C	0.996070	0.626682	0.617276
	C130	C	0.012492	0.383649	0.617458
	C131	C	0.995574	0.384016	0.375078
	C132	C	0.883413	0.513495	0.118560
	C133	C	0.126005	0.496653	0.116906
	C134	C	0.128138	0.514132	0.873065
	C135	C	0.885624	0.497418	0.875890
	C136	C	0.124990	0.884613	0.503722
	C137	C	0.127396	0.127875	0.486889
	C138	C	0.883491	0.125900	0.503711
	C139	C	0.881647	0.882852	0.487529
	C140	C	0.513206	0.128286	0.872743
	C141	C	0.496333	0.126895	0.116241
	C142	C	0.513510	0.884146	0.116707
	C143	C	0.496368	0.884460	0.873969
	C144	C	0.382909	0.890957	0.673822
	C145	C	0.623328	0.120803	0.669697
	C146	C	0.623466	0.890208	0.317218
	C147	C	0.386631	0.120502	0.319200
	C148	C	0.683222	0.388186	0.881056
	C149	C	0.681670	0.624950	0.111221
	C150	C	0.329970	0.624933	0.880830
	C151	C	0.326958	0.385146	0.110365
	C152	C	0.888062	0.680554	0.378616
	C153	C	0.118917	0.683875	0.613958
	C154	C	0.888937	0.327422	0.616284
	C155	C	0.119681	0.330024	0.376450
	C156	C	0.889547	0.384472	0.674987
	C157	C	0.119829	0.625784	0.670922
	C158	C	0.888641	0.623655	0.320447
	C159	C	0.119656	0.387665	0.319293
	C160	C	0.388055	0.681962	0.880678
	C161	C	0.624591	0.683086	0.110680
	C162	C	0.625739	0.330344	0.880703
	C163	C	0.384549	0.327610	0.110257
	C164	C	0.680382	0.889664	0.375415
	C165	C	0.680293	0.120264	0.611809
	C166	C	0.326206	0.890664	0.615785
	C167	C	0.330572	0.121005	0.377817
	C168	C	0.884404	0.390124	0.173656
	C169	C	0.124772	0.619958	0.172159
	C170	C	0.125806	0.390801	0.817411
	C171	C	0.888338	0.620851	0.820115
	C172	C	0.181321	0.887184	0.381166
	C173	C	0.181533	0.125257	0.610118
	C174	C	0.830057	0.123457	0.380083
	C175	C	0.824607	0.884687	0.609905
	C176	C	0.389637	0.182984	0.876496
	C177	C	0.620333	0.182308	0.112186
	C178	C	0.390070	0.827722	0.114812
	C179	C	0.620678	0.831414	0.875988
	C180	C	0.389689	0.885461	0.172236
	C181	C	0.619778	0.125389	0.170375
	C182	C	0.389259	0.125225	0.819296
	C183	C	0.620232	0.888767	0.817966
	C184	C	0.887226	0.181401	0.380680
	C185	C	0.123677	0.182516	0.610284
	C186	C	0.123489	0.829585	0.380967
	C187	C	0.882052	0.827304	0.610247
	C188	C	0.182407	0.390402	0.875955
	C189	C	0.181524	0.620332	0.113786
	C190	C	0.826799	0.390522	0.116847
	C191	C	0.832151	0.621435	0.878482
	C192	C	0.405522	0.100188	0.595037
	C193	C	0.601227	0.910666	0.594751
	C194	C	0.605937	0.099911	0.393923
	C195	C	0.404488	0.910417	0.395854
	C196	C	0.603656	0.406559	0.089971
	C197	C	0.608704	0.607014	0.901146
	C198	C	0.406357	0.604343	0.089913
	C199	C	0.406803	0.406689	0.901677
	C200	C	0.098846	0.605823	0.395823
	C201	C	0.909640	0.603559	0.596556
	C202	C	0.098326	0.406856	0.593901
	C203	C	0.909503	0.405243	0.397404
	C204	C	0.906558	0.599858	0.096547
	C205	C	0.103335	0.410470	0.094979
	C206	C	0.106142	0.600153	0.894874
	C207	C	0.907175	0.411160	0.898067
	C208	C	0.101856	0.907103	0.589942
	C209	C	0.105929	0.106089	0.400914
	C210	C	0.904771	0.103574	0.589650
	C211	C	0.904645	0.904941	0.401032
	C212	C	0.599491	0.106319	0.893893
	C213	C	0.409863	0.104383	0.095013
	C214	C	0.599913	0.907094	0.094498
	C215	C	0.410166	0.905832	0.896656
	Zn216	Zn	0.504022	0.006177	0.744984
	Zn217	Zn	0.504514	0.005632	0.244866
	Zn218	Zn	0.756665	0.505881	-0.003344
	Zn219	Zn	0.255250	0.505669	-0.004445
	Zn220	Zn	0.003431	0.755056	0.495793
	Zn221	Zn	0.004560	0.255197	0.495623
	Zn222	Zn	0.005573	0.505483	0.746247
	Zn223	Zn	0.004600	0.505123	0.246446
	Zn224	Zn	0.506041	0.755898	-0.004862
	Zn225	Zn	0.505164	0.255856	-0.004768
	Zn226	Zn	0.754016	0.004653	0.495091
	Zn227	Zn	0.254756	0.005851	0.496016
	N228	N	0.417297	0.968637	0.674885
	N229	N	0.589364	0.043070	0.672422
	N230	N	0.591080	0.968251	0.315259
	N231	N	0.418812	0.042287	0.316921
	N232	N	0.683948	0.421293	0.958743
	N233	N	0.684693	0.592094	0.033594
	N234	N	0.327871	0.591134	0.958383
	N235	N	0.326316	0.419516	0.033069
	N236	N	0.965993	0.682917	0.411359
	N237	N	0.041180	0.684251	0.581394
	N238	N	0.966359	0.326890	0.581411
	N239	N	0.041891	0.327813	0.410509
	N240	N	0.967484	0.418676	0.675895
	N241	N	0.042227	0.590854	0.673149
	N242	N	0.967016	0.591379	0.317527
	N243	N	0.041611	0.420473	0.318140
	N244	N	0.421415	0.682941	0.958114
	N245	N	0.592497	0.685434	0.032678
	N246	N	0.591233	0.328190	0.958163
	N247	N	0.419150	0.326738	0.032899
	N248	N	0.682912	0.967453	0.408785
	N249	N	0.680945	0.042306	0.578902
	N250	N	0.325692	0.968385	0.581515
	N251	N	0.328342	0.043309	0.411528
	N252	N	0.918796	0.467719	0.175038
	N253	N	0.090892	0.542164	0.174137
	N254	N	0.092799	0.468643	0.815549
	N255	N	0.920932	0.542794	0.818406
	N256	N	0.182060	0.920888	0.458611
	N257	N	0.184208	0.092328	0.532449
	N258	N	0.827641	0.089565	0.457703
	N259	N	0.824088	0.918273	0.532365
	N260	N	0.467679	0.185006	0.909053
	N261	N	0.542330	0.183406	0.079414
	N262	N	0.467975	0.826857	0.081005
	N263	N	0.542884	0.828755	0.910032
	N264	N	0.467546	0.919695	0.173639
	N265	N	0.541719	0.091799	0.173042
	N266	N	0.467093	0.091958	0.816823
	N267	N	0.541897	0.920900	0.816399
	N268	N	0.919654	0.182878	0.458376
	N269	N	0.090800	0.184298	0.532565
	N270	N	0.089046	0.827989	0.458516
	N271	N	0.917030	0.826404	0.532928
	N272	N	0.183872	0.467977	0.909830
	N273	N	0.182435	0.542693	0.080114
	N274	N	0.826486	0.468325	0.082999
	N275	N	0.830390	0.543736	0.912554
	O276	O	-0.067315	-0.078108	1.047387
	H277	H	-0.070985	-0.082692	1.050016
	H278	H	-0.068909	-0.085116	1.050745
	O279	O	0.407429	0.425833	0.573550
	H280	H	0.403060	0.423515	0.565169
	H281	H	0.415770	0.420641	0.585505
	O282	O	0.430610	0.457947	0.570870
	H283	H	0.431508	0.454973	0.578915
	H284	H	0.439091	0.449289	0.572808
	O285	O	0.408604	0.417044	0.569400
	H286	H	0.400434	0.412151	0.565350
	H287	H	0.395506	0.407723	0.567442
	O288	O	0.458393	0.459479	0.573439
	H289	H	0.459081	0.450676	0.575506
	H290	H	0.454938	0.456835	0.578288
	O291	O	-0.065469	0.928495	1.048333
	H292	H	-0.064265	0.925960	1.050393
	H293	H	-0.070369	0.920919	1.052012
	O294	O	0.428954	0.448064	0.545137
	H295	H	0.425497	0.461054	0.548707
	H296	H	0.425651	0.464226	0.541735
	O297	O	0.923723	-0.090555	0.035928
	H298	H	0.922628	-0.098302	0.035133
	H299	H	0.918374	-0.087248	0.038133
