data_Molecule from HDF5

_cell_length_a		16.366077
_cell_length_b		16.202306
_cell_length_c		16.543766
_cell_angle_alpha	89.799891
_cell_angle_beta	89.939894
_cell_angle_gamma	90.109504
_symmetry_space_group_name_H-M	'P 1'
_symmetry_Int_Tables_number		1

loop_
	_symmetry_equiv_pos_as_xyz
	x,y,z

loop_
	_atom_site_label
	_atom_site_type_symbol
	_atom_site_fract_x
	_atom_site_fract_y
	_atom_site_fract_z
	H0	H	0.396332	0.844436	0.714756
	H1	H	0.606079	0.167575	0.712266
	H2	H	0.607860	0.846480	0.273616
	H3	H	0.397511	0.166637	0.274026
	H4	H	0.723143	0.399564	0.833306
	H5	H	0.723404	0.608553	0.149709
	H6	H	0.282783	0.610638	0.832563
	H7	H	0.279367	0.399801	0.150405
	H8	H	0.840428	0.724048	0.389565
	H9	H	0.162185	0.725141	0.592827
	H10	H	0.840047	0.290758	0.591363
	H11	H	0.162065	0.288592	0.390274
	H12	H	0.843090	0.400121	0.713248
	H13	H	0.160667	0.614369	0.713512
	H14	H	0.844859	0.615131	0.266332
	H15	H	0.159402	0.398449	0.268053
	H16	H	0.401745	0.724882	0.832135
	H17	H	0.605634	0.724047	0.150985
	H18	H	0.603013	0.286941	0.832180
	H19	H	0.399347	0.286602	0.152119
	H20	H	0.719901	0.845276	0.392141
	H21	H	0.720267	0.168264	0.596592
	H22	H	0.281387	0.843256	0.598563
	H23	H	0.286238	0.168314	0.394266
	H24	H	0.892558	0.348026	0.217239
	H25	H	0.109159	0.667310	0.212128
	H26	H	0.106461	0.345864	0.772377
	H27	H	0.895260	0.666155	0.770039
	H28	H	0.225648	0.898067	0.336209
	H29	H	0.221336	0.109580	0.651022
	H30	H	0.780089	0.111881	0.335169
	H31	H	0.781458	0.902247	0.651929
	H32	H	0.340690	0.223242	0.891959
	H33	H	0.663850	0.222588	0.092873
	H34	H	0.341207	0.786090	0.095094
	H35	H	0.664148	0.791854	0.894722
	H36	H	0.342568	0.898213	0.215841
	H37	H	0.661979	0.110955	0.213933
	H38	H	0.343766	0.113307	0.770598
	H39	H	0.660977	0.900344	0.771733
	H40	H	0.899051	0.224878	0.332761
	H41	H	0.102864	0.225237	0.651121
	H42	H	0.102281	0.789018	0.332888
	H43	H	0.898109	0.785587	0.650763
	H44	H	0.219205	0.344381	0.890366
	H45	H	0.221807	0.667599	0.094434
	H46	H	0.781746	0.344663	0.097649
	H47	H	0.782295	0.665932	0.887192
	H48	H	0.415967	0.120555	0.588254
	H49	H	0.596148	0.891677	0.576112
	H50	H	0.587633	0.119947	0.406468
	H51	H	0.415885	0.889926	0.399863
	H52	H	0.594899	0.422829	0.102809
	H53	H	0.595042	0.596354	0.878349
	H54	H	0.414455	0.593748	0.103138
	H55	H	0.407031	0.407704	0.875105
	H56	H	0.116044	0.594462	0.397588
	H57	H	0.891564	0.592375	0.573792
	H58	H	0.117718	0.411695	0.580111
	H59	H	0.887478	0.417081	0.401229
	H60	H	0.113073	0.422368	0.580096
	H61	H	0.888520	0.586446	0.587997
	H62	H	0.116856	0.599139	0.401081
	H63	H	0.888184	0.419272	0.403344
	H64	H	0.410359	0.596603	0.104943
	H65	H	0.592310	0.595369	0.879359
	H66	H	0.585850	0.412913	0.102716
	H67	H	0.405038	0.423826	0.880464
	H68	H	0.594229	0.123172	0.403978
	H69	H	0.593013	0.888149	0.591137
	H70	H	0.415135	0.117374	0.577652
	H71	H	0.415630	0.892451	0.408408
	H72	H	0.916128	0.619333	0.079092
	H73	H	0.091110	0.393615	0.076144
	H74	H	0.091986	0.621775	0.904351
	H75	H	0.918520	0.390297	0.896070
	H76	H	0.097223	0.909230	0.609847
	H77	H	0.091419	0.096701	0.379699
	H78	H	0.908588	0.100478	0.607659
	H79	H	0.908293	0.918738	0.378789
	H80	H	0.617939	0.099990	0.902989
	H81	H	0.388617	0.090858	0.086978
	H82	H	0.613504	0.924679	0.085690
	H83	H	0.386408	0.913965	0.902346
	H84	H	0.618595	0.914077	0.091181
	H85	H	0.387033	0.097045	0.085777
	H86	H	0.614183	0.091325	0.905697
	H87	H	0.389232	0.917779	0.906680
	H88	H	0.908191	0.093008	0.605357
	H89	H	0.095051	0.097903	0.378335
	H90	H	0.094496	0.926244	0.603536
	H91	H	0.910023	0.918318	0.380026
	H92	H	0.094243	0.623558	0.899136
	H93	H	0.092323	0.389582	0.084099
	H94	H	0.914677	0.619603	0.077630
	H95	H	0.914701	0.392414	0.907547
	H96	H	0.406095	0.121772	0.583080
	H97	H	0.581518	0.894585	0.582354
	H98	H	0.588158	0.122770	0.399469
	H99	H	0.408493	0.888735	0.405176
	H100	H	0.598010	0.410485	0.108071
	H101	H	0.592215	0.598453	0.879067
	H102	H	0.409574	0.591986	0.104167
	H103	H	0.419882	0.416150	0.882749
	H104	H	0.114146	0.593636	0.403840
	H105	H	0.884071	0.601935	0.584726
	H106	H	0.118962	0.418161	0.589113
	H107	H	0.888076	0.419942	0.400733
	H108	H	0.914331	0.620483	0.079334
	H109	H	0.084638	0.392808	0.082306
	H110	H	0.089006	0.621471	0.899442
	H111	H	0.906691	0.387515	0.899253
	H112	H	0.081254	0.913691	0.602561
	H113	H	0.094302	0.094164	0.379096
	H114	H	0.914803	0.097478	0.604443
	H115	H	0.909075	0.916422	0.379388
	H116	H	0.616843	0.093240	0.895894
	H117	H	0.389135	0.093780	0.080626
	H118	H	0.615075	0.913527	0.078769
	H119	H	0.388137	0.920460	0.900686
	C120	C	0.380161	0.013456	0.615188
	C121	C	0.621934	0.998183	0.614263
	C122	C	0.622145	0.015367	0.372753
	C123	C	0.381715	0.997187	0.373463
	C124	C	0.623792	0.383839	-0.000296
	C125	C	0.624693	0.627336	0.983551
	C126	C	0.380328	0.627472	-0.000275
	C127	C	0.379256	0.383684	0.984286
	C128	C	0.010253	0.627887	0.369338
	C129	C	0.993296	0.626915	0.613323
	C130	C	0.010553	0.385531	0.613705
	C131	C	0.992936	0.385769	0.369960
	C132	C	0.881910	0.513997	0.112226
	C133	C	0.122380	0.498155	0.112567
	C134	C	0.122679	0.514957	0.870831
	C135	C	0.881052	0.496625	0.869776
	C136	C	0.123077	0.884299	0.501019
	C137	C	0.123680	0.127699	0.484163
	C138	C	0.879319	0.128773	0.501073
	C139	C	0.878619	0.885133	0.484321
	C140	C	0.510652	0.126993	0.870924
	C141	C	0.494216	0.126357	0.114756
	C142	C	0.510455	0.883797	0.116217
	C143	C	0.493768	0.885952	0.872331
	C144	C	0.377699	0.892743	0.675237
	C145	C	0.624036	0.119401	0.672982
	C146	C	0.625088	0.894374	0.313575
	C147	C	0.379913	0.118629	0.314300
	C148	C	0.683324	0.381547	0.880813
	C149	C	0.683768	0.627893	0.102536
	C150	C	0.321811	0.629276	0.880237
	C151	C	0.319668	0.381721	0.103047
	C152	C	0.889111	0.685826	0.369516
	C153	C	0.113984	0.686077	0.612664
	C154	C	0.889117	0.328146	0.612425
	C155	C	0.113715	0.327177	0.370063
	C156	C	0.890364	0.382934	0.672879
	C157	C	0.113024	0.630934	0.672966
	C158	C	0.891246	0.631382	0.308371
	C159	C	0.112411	0.381943	0.309375
	C160	C	0.381061	0.686300	0.880191
	C161	C	0.624898	0.685174	0.103161
	C162	C	0.623256	0.325681	0.879919
	C163	C	0.379394	0.325138	0.104055
	C164	C	0.680885	0.893722	0.372656
	C165	C	0.680815	0.119762	0.615309
	C166	C	0.320564	0.891931	0.617177
	C167	C	0.324115	0.119337	0.373672
	C168	C	0.876576	0.394928	0.175065
	C169	C	0.125967	0.619065	0.172071
	C170	C	0.124373	0.393665	0.812430
	C171	C	0.878222	0.617893	0.810381
	C172	C	0.184041	0.881117	0.382699
	C173	C	0.181590	0.128482	0.603747
	C174	C	0.820394	0.130093	0.382075
	C175	C	0.820768	0.883360	0.604006
	C176	C	0.389466	0.185175	0.871674
	C177	C	0.615341	0.184086	0.113330
	C178	C	0.389583	0.824625	0.115430
	C179	C	0.615526	0.829166	0.873679
	C180	C	0.390412	0.880393	0.175577
	C181	C	0.614302	0.128740	0.173761
	C182	C	0.390944	0.130286	0.811295
	C183	C	0.613653	0.883161	0.812590
	C184	C	0.879380	0.186763	0.381029
	C185	C	0.122998	0.186165	0.603571
	C186	C	0.123070	0.826513	0.381066
	C187	C	0.878761	0.825393	0.603538
	C188	C	0.180539	0.393094	0.871005
	C189	C	0.182453	0.619258	0.113731
	C190	C	0.821705	0.393186	0.115354
	C191	C	0.821859	0.617826	0.868750
	C192	C	0.405076	0.097945	0.590348
	C193	C	0.597169	0.913562	0.590146
	C194	C	0.597252	0.099885	0.396599
	C195	C	0.406140	0.912356	0.397692
	C196	C	0.599919	0.408309	0.082895
	C197	C	0.600431	0.603390	0.900489
	C198	C	0.404396	0.601722	0.082564
	C199	C	0.403581	0.408475	0.901066
	C200	C	0.093909	0.603086	0.393731
	C201	C	0.909850	0.601050	0.589258
	C202	C	0.094645	0.410387	0.589895
	C203	C	0.909681	0.411465	0.394515
	C204	C	0.907675	0.597911	0.086163
	C205	C	0.096640	0.413828	0.087952
	C206	C	0.098559	0.599913	0.894239
	C207	C	0.906101	0.411969	0.894063
	C208	C	0.098171	0.909031	0.583589
	C209	C	0.100249	0.103165	0.400613
	C210	C	0.903515	0.104196	0.584180
	C211	C	0.902319	0.910333	0.401125
	C212	C	0.594517	0.102051	0.894671
	C213	C	0.409995	0.101143	0.091190
	C214	C	0.593897	0.909661	0.092176
	C215	C	0.409700	0.910401	0.896146
	Zn216	Zn	0.502091	0.005953	0.742845
	Zn217	Zn	0.501614	0.005946	0.244564
	Zn218	Zn	0.753741	0.504801	-0.008365
	Zn219	Zn	0.250479	0.506347	-0.008307
	Zn220	Zn	0.000751	0.755786	0.491482
	Zn221	Zn	0.001766	0.257321	0.491793
	Zn222	Zn	0.002102	0.506308	0.742292
	Zn223	Zn	0.001842	0.506896	0.240757
	Zn224	Zn	0.502726	0.756793	-0.007337
	Zn225	Zn	0.502128	0.254729	-0.007223
	Zn226	Zn	0.750047	0.007287	0.493508
	Zn227	Zn	0.252800	0.004999	0.493712
	N228	N	0.413950	0.969256	0.674226
	N229	N	0.588167	0.042634	0.672512
	N230	N	0.589329	0.970884	0.313662
	N231	N	0.414580	0.041491	0.313917
	N232	N	0.683955	0.416646	0.956376
	N233	N	0.683943	0.592809	0.027096
	N234	N	0.321259	0.593336	0.955677
	N235	N	0.319303	0.416950	0.027521
	N236	N	0.964165	0.683861	0.406541
	N237	N	0.038467	0.683916	0.576294
	N238	N	0.964765	0.329745	0.576266
	N239	N	0.038484	0.329377	0.406843
	N240	N	0.966997	0.417745	0.673853
	N241	N	0.036981	0.594837	0.673366
	N242	N	0.967616	0.596400	0.307960
	N243	N	0.036295	0.417543	0.309031
	N244	N	0.416521	0.685307	0.955430
	N245	N	0.588744	0.684704	0.028306
	N246	N	0.587314	0.326699	0.954920
	N247	N	0.415661	0.326059	0.029064
	N248	N	0.678873	0.969777	0.409115
	N249	N	0.679778	0.043294	0.579688
	N250	N	0.321982	0.968252	0.580731
	N251	N	0.325102	0.042680	0.409635
	N252	N	0.913479	0.470915	0.172946
	N253	N	0.089378	0.542449	0.171553
	N254	N	0.089115	0.470625	0.812136
	N255	N	0.914313	0.541308	0.810859
	N256	N	0.184353	0.916049	0.458311
	N257	N	0.181976	0.092838	0.528431
	N258	N	0.820172	0.094848	0.457624
	N259	N	0.820353	0.919508	0.528793
	N260	N	0.464870	0.183097	0.908264
	N261	N	0.539638	0.182835	0.077565
	N262	N	0.465266	0.826420	0.079435
	N263	N	0.540049	0.830800	0.910227
	N264	N	0.466451	0.916352	0.176322
	N265	N	0.537618	0.093814	0.174742
	N266	N	0.467205	0.095012	0.810724
	N267	N	0.536911	0.917530	0.811688
	N268	N	0.915402	0.186071	0.456128
	N269	N	0.087827	0.185842	0.528140
	N270	N	0.085700	0.828392	0.455478
	N271	N	0.913747	0.826181	0.528013
	N272	N	0.179542	0.469602	0.906405
	N273	N	0.180252	0.543208	0.077434
	N274	N	0.825010	0.468330	0.076727
	N275	N	0.823452	0.541427	0.904904
	O276	O	0.698954	0.405186	0.507946
	H277	H	0.698700	0.406462	0.513072
	H278	H	0.696302	0.428978	0.510671
	O279	O	0.415151	0.705132	0.290100
	H280	H	0.412080	0.727893	0.281904
	H281	H	0.384757	0.691866	0.302125
	O282	O	0.132122	-0.174603	0.809087
	H283	H	0.140566	-0.155906	0.803020
	H284	H	0.121941	-0.189522	0.812444
	O285	O	1.062429	0.847619	-0.141748
	H286	H	1.065701	0.856832	-0.140567
	H287	H	1.052653	0.842152	-0.148919
	O288	O	-0.086259	0.158903	0.058807
	H289	H	-0.109286	0.173802	0.057237
	H290	H	-0.095611	0.147775	0.050387
	O291	O	0.974862	0.195343	0.804514
	H292	H	0.987934	0.195007	0.830388
	H293	H	0.977402	0.201746	0.793140
	O294	O	1.062142	0.844587	1.151770
	H295	H	1.063825	0.855064	1.130165
	H296	H	1.050076	0.818510	1.158801
	O297	O	0.684679	0.565337	0.626284
	H298	H	0.680727	0.581240	0.631361
	H299	H	0.686186	0.565032	0.622269
	O300	O	0.299242	0.619887	0.345976
	H301	H	0.290648	0.630519	0.358297
	H302	H	0.296503	0.622805	0.344564
	O303	O	0.530453	0.385552	0.581053
	H304	H	0.531888	0.399685	0.576339
	H305	H	0.535261	0.374935	0.587783
	O306	O	-0.143821	-0.185653	1.186207
	H307	H	-0.148823	-0.186288	1.177651
	H308	H	-0.155236	-0.196568	1.186229
	O309	O	0.988204	-0.023055	-0.031363
	H310	H	0.995642	-0.019957	-0.024423
	H311	H	1.001665	-0.023339	-0.034015
	O312	O	0.530221	0.483097	0.618200
	H313	H	0.528612	0.490953	0.625882
	H314	H	0.516042	0.501967	0.611517
	O315	O	0.588280	0.525303	0.333833
	H316	H	0.582289	0.518638	0.344949
	H317	H	0.597293	0.528667	0.316272
	O318	O	-0.190331	-0.063086	0.136324
	H319	H	-0.169789	-0.060118	0.148227
	H320	H	-0.210582	-0.067885	0.135838
	O321	O	0.040708	0.940850	1.140680
	H322	H	0.044128	0.942841	1.160362
	H323	H	0.023142	0.957875	1.139885
	O324	O	0.945634	-0.182760	0.998955
	H325	H	0.946433	-0.192162	0.982660
	H326	H	0.953455	-0.183349	0.997850
	O327	O	0.683020	0.620745	0.506894
	H328	H	0.676351	0.631957	0.507451
	H329	H	0.678586	0.635271	0.495647
	O330	O	-0.190864	1.204491	0.982039
	H331	H	-0.190474	1.205888	0.946883
	H332	H	-0.210418	1.214986	0.967253
	O333	O	0.137002	0.872549	0.010232
	H334	H	0.136138	0.876175	0.014065
	H335	H	0.137926	0.899242	0.020254
	O336	O	0.919573	1.104920	0.176161
	H337	H	0.921905	1.126403	0.166167
	H338	H	0.917137	1.095994	0.173459
	O339	O	-0.060099	1.073164	1.131830
	H340	H	-0.082998	1.070104	1.127556
	H341	H	-0.056912	1.055978	1.137053
	O342	O	0.302863	0.488464	0.501381
	H343	H	0.299660	0.478975	0.513038
	H344	H	0.297435	0.474984	0.480123
	O345	O	-0.127857	-0.146121	0.841483
	H346	H	-0.112836	-0.161640	0.855854
	H347	H	-0.120562	-0.117550	0.834939
	O348	O	0.533063	0.308283	0.279341
	H349	H	0.540241	0.295483	0.287205
	H350	H	0.539675	0.293442	0.271762
	O351	O	0.382381	0.508969	0.551119
	H352	H	0.394733	0.501452	0.552163
	H353	H	0.392169	0.503045	0.558327
	O354	O	1.208530	0.873786	1.037871
	H355	H	1.222633	0.856727	1.030252
	H356	H	1.207749	0.872311	1.033296
	O357	O	0.203171	-0.005674	-0.205552
	H358	H	0.205619	-0.000635	-0.201831
	H359	H	0.209426	-0.011950	-0.204410
	O360	O	0.381829	0.496467	0.599391
	H361	H	0.372910	0.473338	0.603565
	H362	H	0.384389	0.479342	0.606061
	O363	O	1.036709	0.171696	0.009491
	H364	H	1.040398	0.160944	0.034783
	H365	H	1.028095	0.184568	0.015329
	O366	O	-0.784180	0.157323	0.870589
	H367	H	-0.793434	0.157882	0.865939
	H368	H	-0.763457	0.168660	0.883143
	O369	O	1.684876	0.329469	0.317920
	H370	H	1.697633	0.317750	0.349349
	H371	H	1.672141	0.344972	0.310451
	O372	O	0.393245	0.604155	0.424927
	H373	H	0.393262	0.587917	0.427863
	H374	H	0.399021	0.610171	0.446973
	O375	O	-0.655609	-0.635031	1.513955
	H376	H	-0.658648	-0.635896	1.532596
	H377	H	-0.651436	-0.640843	1.513824
	O378	O	0.391738	0.445060	0.375178
	H379	H	0.393544	0.446616	0.391734
	H380	H	0.388881	0.434717	0.370214
	O381	O	0.080552	0.996797	0.107193
	H382	H	0.087564	0.991108	0.110266
	H383	H	0.093138	0.999954	0.122229
	O384	O	0.546261	0.641288	0.318536
	H385	H	0.548849	0.625927	0.315344
	H386	H	0.526820	0.668238	0.312047
	O387	O	1.010109	1.025579	-0.211998
	H388	H	1.016635	1.030232	-0.216286
	H389	H	1.014461	1.018000	-0.200284
	O390	O	0.981518	1.002201	0.039432
	H391	H	0.978737	1.004900	0.048639
	H392	H	0.989259	0.986008	0.057087
	O393	O	1.199163	0.208299	1.094628
	H394	H	1.211465	0.233467	1.101032
	H395	H	1.182766	0.208422	1.113161
	O396	O	0.560734	0.529676	0.432833
	H397	H	0.569768	0.516585	0.434589
	H398	H	0.545568	0.523149	0.419598
	O399	O	0.815477	0.179606	0.813564
	H400	H	0.836266	0.177216	0.800988
	H401	H	0.822621	0.160378	0.800164
	O402	O	0.823284	1.003320	-0.197692
	H403	H	0.841436	1.002823	-0.199501
	H404	H	0.813854	1.007667	-0.200926
	O405	O	0.468875	0.590288	0.665293
	H406	H	0.467700	0.592167	0.665828
	H407	H	0.476372	0.589395	0.658205
	O408	O	0.643748	0.432470	0.376005
	H409	H	0.634773	0.435848	0.376506
	H410	H	0.644118	0.425340	0.370207
	O411	O	1.705406	0.562333	1.590899
	H412	H	1.717437	0.586499	1.581209
	H413	H	1.692972	0.576686	1.586528
	O414	O	0.416532	0.493536	0.577978
	H415	H	0.413455	0.496293	0.566339
	H416	H	0.412169	0.499330	0.580790
	O417	O	0.363287	0.327130	0.686669
	H418	H	0.361610	0.305680	0.694121
	H419	H	0.392355	0.314657	0.692408
	O420	O	0.020456	1.061871	1.107235
	H421	H	0.010050	1.069617	1.121007
	H422	H	0.011540	1.049022	1.113923
	O423	O	0.179395	1.131588	-0.134708
	H424	H	0.175928	1.125687	-0.120926
	H425	H	0.165072	1.123629	-0.122316
	O426	O	0.436869	0.696784	0.507033
	H427	H	0.427374	0.684383	0.533661
	H428	H	0.434530	0.699535	0.518513
	O429	O	0.564548	0.561063	0.426516
	H430	H	0.565030	0.543808	0.413850
	H431	H	0.550536	0.562527	0.421175
	O432	O	0.263065	0.241236	0.308796
	H433	H	0.273044	0.217220	0.319819
	H434	H	0.238106	0.252810	0.319304
	O435	O	-0.060051	-0.020305	-0.008758
	H436	H	-0.056747	-0.012745	0.002844
	H437	H	-0.060874	-0.017178	-0.028897
	O438	O	-0.408981	1.617447	1.677945
	H439	H	-0.387296	1.621953	1.668358
	H440	H	-0.394232	1.634103	1.686817
	O441	O	0.526535	0.544507	0.489715
	H442	H	0.510609	0.525502	0.484080
	H443	H	0.519367	0.548990	0.486591
