data_Molecule from HDF5

_cell_length_a		16.132549
_cell_length_b		16.285015
_cell_length_c		16.220881
_cell_angle_alpha	90.111200
_cell_angle_beta	90.076524
_cell_angle_gamma	89.916023
_symmetry_space_group_name_H-M	'P 1'
_symmetry_Int_Tables_number		1

loop_
	_symmetry_equiv_pos_as_xyz
	x,y,z

loop_
	_atom_site_label
	_atom_site_type_symbol
	_atom_site_fract_x
	_atom_site_fract_y
	_atom_site_fract_z
	H0	H	0.402455	0.850241	0.719606
	H1	H	0.602940	0.177325	0.719151
	H2	H	0.602387	0.850648	0.288154
	H3	H	0.403569	0.177931	0.290129
	H4	H	0.716726	0.416683	0.838937
	H5	H	0.717912	0.612217	0.168403
	H6	H	0.289621	0.613569	0.839197
	H7	H	0.293392	0.419527	0.168808
	H8	H	0.838806	0.726087	0.405261
	H9	H	0.167957	0.729413	0.604973
	H10	H	0.838082	0.300514	0.603028
	H11	H	0.167361	0.297277	0.404174
	H12	H	0.838592	0.415508	0.717518
	H13	H	0.169022	0.611986	0.717795
	H14	H	0.839402	0.612016	0.289643
	H15	H	0.168873	0.414561	0.291583
	H16	H	0.405345	0.729052	0.839236
	H17	H	0.604477	0.729792	0.167958
	H18	H	0.604798	0.298344	0.840443
	H19	H	0.404418	0.300590	0.167843
	H20	H	0.716135	0.849647	0.404880
	H21	H	0.717789	0.176457	0.602758
	H22	H	0.290107	0.849076	0.600357
	H23	H	0.288232	0.177338	0.405884
	H24	H	0.905395	0.349292	0.217703
	H25	H	0.103861	0.676773	0.221029
	H26	H	0.105257	0.349918	0.789127
	H27	H	0.903416	0.676884	0.788241
	H28	H	0.215925	0.914332	0.339321
	H29	H	0.217372	0.110783	0.667750
	H30	H	0.789682	0.110442	0.339174
	H31	H	0.790233	0.916249	0.667541
	H32	H	0.339042	0.228875	0.904946
	H33	H	0.669018	0.228624	0.102960
	H34	H	0.339151	0.799899	0.102077
	H35	H	0.668995	0.801006	0.904618
	H36	H	0.337418	0.918123	0.214783
	H37	H	0.668774	0.113047	0.218836
	H38	H	0.338790	0.113874	0.789947
	H39	H	0.668519	0.915316	0.789953
	H40	H	0.902507	0.228265	0.339950
	H41	H	0.104024	0.228689	0.667145
	H42	H	0.103369	0.797456	0.340142
	H43	H	0.903274	0.799359	0.667000
	H44	H	0.219118	0.350476	0.906392
	H45	H	0.216718	0.678596	0.101286
	H46	H	0.789831	0.350376	0.102509
	H47	H	0.790694	0.677963	0.906841
	H48	H	0.411771	0.128409	0.591689
	H49	H	0.601602	0.896909	0.591358
	H50	H	0.596073	0.131792	0.410355
	H51	H	0.416646	0.894426	0.396147
	H52	H	0.607719	0.422755	0.124390
	H53	H	0.593492	0.610315	0.886925
	H54	H	0.411841	0.604991	0.119248
	H55	H	0.412381	0.427130	0.888191
	H56	H	0.119750	0.609794	0.424658
	H57	H	0.883503	0.614878	0.594415
	H58	H	0.124403	0.417728	0.602858
	H59	H	0.885010	0.421714	0.409156
	H60	H	0.120646	0.415129	0.590261
	H61	H	0.889321	0.600606	0.589850
	H62	H	0.119267	0.593989	0.409666
	H63	H	0.884580	0.418354	0.410932
	H64	H	0.415276	0.610198	0.120292
	H65	H	0.601620	0.611352	0.883261
	H66	H	0.591415	0.429431	0.117172
	H67	H	0.416721	0.417611	0.887265
	H68	H	0.595085	0.130642	0.409934
	H69	H	0.597567	0.893963	0.604567
	H70	H	0.405313	0.131455	0.598301
	H71	H	0.416042	0.901848	0.419040
	H72	H	0.916486	0.628524	0.095624
	H73	H	0.103081	0.397293	0.091116
	H74	H	0.101383	0.630299	0.920232
	H75	H	0.908946	0.398094	0.916283
	H76	H	0.095004	0.915790	0.622117
	H77	H	0.094787	0.108492	0.385949
	H78	H	0.909631	0.104749	0.621428
	H79	H	0.894139	0.917144	0.379699
	H80	H	0.626066	0.114307	0.904371
	H81	H	0.389115	0.100716	0.091589
	H82	H	0.622451	0.924901	0.101273
	H83	H	0.387398	0.917754	0.919849
	H84	H	0.623522	0.916225	0.095223
	H85	H	0.383135	0.107671	0.105907
	H86	H	0.620018	0.110083	0.921267
	H87	H	0.387278	0.929570	0.910256
	H88	H	0.912428	0.108907	0.620059
	H89	H	0.096649	0.105626	0.385531
	H90	H	0.100231	0.922985	0.621697
	H91	H	0.914277	0.932701	0.391205
	H92	H	0.101628	0.634642	0.902103
	H93	H	0.103304	0.393215	0.104416
	H94	H	0.907327	0.630739	0.095629
	H95	H	0.907959	0.394496	0.906210
	H96	H	0.414233	0.129516	0.600227
	H97	H	0.588493	0.899388	0.595106
	H98	H	0.595307	0.130505	0.411417
	H99	H	0.396266	0.892496	0.409390
	H100	H	0.592723	0.410632	0.123466
	H101	H	0.599336	0.603909	0.887416
	H102	H	0.408841	0.610377	0.121768
	H103	H	0.406343	0.418552	0.883864
	H104	H	0.126878	0.613784	0.404144
	H105	H	0.884190	0.603223	0.605301
	H106	H	0.119281	0.427288	0.595203
	H107	H	0.885772	0.421097	0.412402
	H108	H	0.913058	0.631535	0.102583
	H109	H	0.091753	0.398673	0.098886
	H110	H	0.086599	0.628217	0.909596
	H111	H	0.917129	0.397923	0.909277
	H112	H	0.092053	0.923654	0.618661
	H113	H	0.092997	0.105387	0.387205
	H114	H	0.907727	0.109099	0.622161
	H115	H	0.920090	0.906170	0.384430
	H116	H	0.619969	0.096575	0.907101
	H117	H	0.384738	0.116956	0.091867
	H118	H	0.619208	0.924468	0.092280
	H119	H	0.382347	0.916137	0.905054
	C120	C	0.381264	0.021650	0.625206
	C121	C	0.624852	1.004872	0.625626
	C122	C	0.624367	0.022829	0.382043
	C123	C	0.381030	1.004937	0.380789
	C124	C	0.625807	0.392574	0.012733
	C125	C	0.626541	0.636817	0.994835
	C126	C	0.382896	0.636929	0.011954
	C127	C	0.383178	0.392904	0.995066
	C128	C	0.013000	0.634254	0.383505
	C129	C	0.994903	0.634947	0.625566
	C130	C	0.012392	0.391519	0.625178
	C131	C	0.994537	0.391725	0.382795
	C132	C	0.883225	0.522001	0.126049
	C133	C	0.126857	0.504943	0.126699
	C134	C	0.126033	0.522718	0.881829
	C135	C	0.882493	0.505174	0.882136
	C136	C	0.124708	0.891353	0.512302
	C137	C	0.124151	0.134793	0.494769
	C138	C	0.880987	0.135668	0.512641
	C139	C	0.881258	0.891208	0.494133
	C140	C	0.512577	0.135849	0.882553
	C141	C	0.495106	0.136422	0.125232
	C142	C	0.512277	0.893235	0.124686
	C143	C	0.494891	0.892925	0.882930
	C144	C	0.383438	0.898905	0.680742
	C145	C	0.622783	0.128054	0.681254
	C146	C	0.622736	0.899405	0.326245
	C147	C	0.383145	0.128651	0.327170
	C148	C	0.680175	0.395609	0.888508
	C149	C	0.680754	0.633486	0.119098
	C150	C	0.327319	0.634047	0.888292
	C151	C	0.329818	0.397608	0.119427
	C152	C	0.888225	0.688783	0.385028
	C153	C	0.119054	0.690751	0.624169
	C154	C	0.887829	0.337212	0.623152
	C155	C	0.118481	0.335751	0.384672
	C156	C	0.887974	0.394550	0.680095
	C157	C	0.119581	0.632442	0.680528
	C158	C	0.888407	0.631854	0.328051
	C159	C	0.119249	0.394027	0.328560
	C160	C	0.384957	0.691460	0.888142
	C161	C	0.624189	0.691843	0.118820
	C162	C	0.624383	0.336747	0.889251
	C163	C	0.385047	0.338358	0.118685
	C164	C	0.679129	0.898950	0.384426
	C165	C	0.679894	0.127934	0.623238
	C166	C	0.327423	0.898221	0.621154
	C167	C	0.325846	0.128456	0.384767
	C168	C	0.885187	0.398763	0.180468
	C169	C	0.124072	0.628117	0.182461
	C170	C	0.125130	0.399379	0.826741
	C171	C	0.884060	0.628261	0.826869
	C172	C	0.178889	0.893783	0.388551
	C173	C	0.179535	0.131383	0.618787
	C174	C	0.826430	0.132101	0.388423
	C175	C	0.827169	0.895139	0.618207
	C176	C	0.388412	0.191349	0.884689
	C177	C	0.619657	0.191123	0.123195
	C178	C	0.388281	0.838271	0.121992
	C179	C	0.619287	0.838284	0.884766
	C180	C	0.387360	0.896971	0.177994
	C181	C	0.619448	0.133776	0.180788
	C182	C	0.388034	0.133968	0.827763
	C183	C	0.619256	0.895101	0.827721
	C184	C	0.882899	0.190411	0.388920
	C185	C	0.123455	0.190217	0.618425
	C186	C	0.122914	0.835479	0.389170
	C187	C	0.883308	0.836724	0.617794
	C188	C	0.181792	0.399502	0.885062
	C189	C	0.180450	0.628935	0.123255
	C190	C	0.827834	0.399116	0.122765
	C191	C	0.827705	0.628659	0.885414
	C192	C	0.403728	0.107839	0.603155
	C193	C	0.602441	0.918987	0.603540
	C194	C	0.602280	0.108729	0.404283
	C195	C	0.403063	0.918641	0.401859
	C196	C	0.603949	0.414629	0.099396
	C197	C	0.604692	0.614956	0.908314
	C198	C	0.405382	0.614897	0.098116
	C199	C	0.405236	0.414660	0.908707
	C200	C	0.099513	0.612158	0.405948
	C201	C	0.908278	0.612678	0.603188
	C202	C	0.098992	0.413568	0.602704
	C203	C	0.907735	0.413822	0.404530
	C204	C	0.905791	0.608113	0.104449
	C205	C	0.105706	0.418569	0.104603
	C206	C	0.103160	0.608858	0.904052
	C207	C	0.904863	0.419021	0.903971
	C208	C	0.102325	0.914236	0.598619
	C209	C	0.101642	0.112805	0.408457
	C210	C	0.903217	0.113972	0.598959
	C211	C	0.903016	0.912323	0.407341
	C212	C	0.599517	0.113559	0.904553
	C213	C	0.408112	0.114833	0.103068
	C214	C	0.599325	0.915128	0.102763
	C215	C	0.408122	0.914998	0.905009
	Zn216	Zn	0.503079	0.013913	0.754848
	Zn217	Zn	0.503484	0.014280	0.253044
	Zn218	Zn	0.754086	0.513911	0.004249
	Zn219	Zn	0.254681	0.514413	0.003805
	Zn220	Zn	0.003370	0.763203	0.503810
	Zn221	Zn	0.003026	0.263765	0.503955
	Zn222	Zn	0.004230	0.513347	0.753327
	Zn223	Zn	0.004542	0.513492	0.255118
	Zn224	Zn	0.504851	0.764827	0.003158
	Zn225	Zn	0.504216	0.264320	0.003874
	Zn226	Zn	0.753060	0.013201	0.503253
	Zn227	Zn	0.252490	0.013112	0.502999
	N228	N	0.416114	0.976970	0.683401
	N229	N	0.589111	0.050373	0.682904
	N230	N	0.589328	0.977035	0.324576
	N231	N	0.416515	0.050892	0.324458
	N232	N	0.681001	0.429760	0.966340
	N233	N	0.682278	0.600006	0.041163
	N234	N	0.325949	0.600678	0.966206
	N235	N	0.328390	0.430818	0.041504
	N236	N	0.966465	0.690574	0.418920
	N237	N	0.040562	0.692545	0.590713
	N238	N	0.966227	0.335220	0.589671
	N239	N	0.040080	0.334369	0.417658
	N240	N	0.966328	0.427840	0.681671
	N241	N	0.041449	0.598584	0.681456
	N242	N	0.966905	0.598825	0.326679
	N243	N	0.041160	0.428212	0.327212
	N244	N	0.418475	0.693572	0.966099
	N245	N	0.591245	0.693997	0.040479
	N246	N	0.591346	0.334827	0.967297
	N247	N	0.417585	0.335699	0.040412
	N248	N	0.680288	0.976545	0.418454
	N249	N	0.681441	0.050452	0.589578
	N250	N	0.326038	0.975730	0.587548
	N251	N	0.324253	0.050479	0.417323
	N252	N	0.919015	0.476260	0.182397
	N253	N	0.091618	0.550113	0.184510
	N254	N	0.091392	0.477006	0.824707
	N255	N	0.917431	0.550358	0.824644
	N256	N	0.179922	0.928021	0.466090
	N257	N	0.180253	0.097683	0.540751
	N258	N	0.825310	0.098586	0.466224
	N259	N	0.825759	0.928356	0.540240
	N260	N	0.466974	0.192754	0.917682
	N261	N	0.541378	0.192935	0.089450
	N262	N	0.467099	0.835890	0.089506
	N263	N	0.540948	0.836718	0.918328
	N264	N	0.465498	0.930411	0.179566
	N265	N	0.541082	0.100473	0.182142
	N266	N	0.466301	0.100006	0.826203
	N267	N	0.540904	0.928542	0.826383
	N268	N	0.916167	0.192744	0.467142
	N269	N	0.089906	0.192379	0.540598
	N270	N	0.089910	0.833926	0.467383
	N271	N	0.916161	0.834223	0.539609
	N272	N	0.182646	0.477243	0.918569
	N273	N	0.182444	0.551245	0.089421
	N274	N	0.826584	0.476820	0.089522
	N275	N	0.826605	0.551097	0.919044
	O276	O	0.530193	0.449353	0.544454
	H277	H	0.533903	0.445215	0.540961
	H278	H	0.530332	0.450300	0.526721
	O279	O	0.410656	0.462390	0.573216
	H280	H	0.404766	0.459658	0.583813
	H281	H	0.404626	0.458753	0.569995
	O282	O	0.507445	0.499346	0.531889
	H283	H	0.507360	0.489992	0.525703
	H284	H	0.505983	0.493742	0.536112
	O285	O	0.026179	0.988664	0.988536
	H286	H	0.022419	0.982208	0.993130
	H287	H	0.017884	0.987537	0.993475
	O288	O	0.489141	0.454249	0.494480
	H289	H	0.489893	0.453759	0.491372
	H290	H	0.490938	0.461479	0.491543
	O291	O	0.003427	0.003273	0.959818
	H292	H	-0.001672	-0.001269	0.966458
	H293	H	0.008408	-0.000315	0.949367
	O294	O	0.456364	0.477691	0.517042
	H295	H	0.450903	0.474615	0.518170
	H296	H	0.457734	0.471150	0.520143
	O297	O	0.530748	0.516311	0.435543
	H298	H	0.524515	0.527703	0.426797
	H299	H	0.531131	0.528076	0.438699
	O300	O	0.479783	0.535308	0.524253
	H301	H	0.483576	0.544593	0.520113
	H302	H	0.481577	0.531290	0.521386
	O303	O	0.448948	0.588365	0.535112
	H304	H	0.452694	0.583609	0.545807
	H305	H	0.452531	0.591942	0.539693
	O306	O	0.995692	0.041142	1.016501
	H307	H	0.987855	0.043226	1.017548
	H308	H	0.985864	0.042666	1.023250
	O309	O	0.030833	0.029220	-0.047148
	H310	H	0.038957	0.040705	-0.051816
	H311	H	0.033627	0.024861	-0.048880
	O312	O	0.508261	0.593501	0.533800
	H313	H	0.495773	0.593787	0.535072
	H314	H	0.501022	0.600013	0.529421
	O315	O	1.048117	0.016829	0.939606
	H316	H	1.051686	0.018607	0.938673
	H317	H	1.045750	0.021449	0.946168
	O318	O	0.005171	-0.004454	-0.050450
	H319	H	0.013145	-0.002035	-0.056677
	H320	H	0.009825	-0.003415	-0.059729
	O321	O	0.485970	0.444030	0.573817
	H322	H	0.493916	0.449915	0.571448
	H323	H	0.479554	0.439777	0.585366
	O324	O	1.484337	-0.499579	-0.424149
	H325	H	1.490724	-0.505280	-0.426580
	H326	H	1.476901	-0.504360	-0.424379
	O327	O	0.496881	0.567960	0.510751
	H328	H	0.504447	0.568455	0.523122
	H329	H	0.492462	0.562851	0.512941
	O330	O	0.575391	0.571499	0.484224
	H331	H	0.573672	0.578047	0.484994
	H332	H	0.588626	0.568167	0.496248
	O333	O	-0.020069	0.035921	0.037354
	H334	H	-0.014925	0.033324	0.034753
	H335	H	-0.028841	0.036400	0.032135
