data_Molecule from HDF5

_cell_length_a		16.598751
_cell_length_b		16.643987
_cell_length_c		16.477638
_cell_angle_alpha	90.052394
_cell_angle_beta	89.960253
_cell_angle_gamma	89.948792
_symmetry_space_group_name_H-M	'P 1'
_symmetry_Int_Tables_number		1

loop_
	_symmetry_equiv_pos_as_xyz
	x,y,z

loop_
	_atom_site_label
	_atom_site_type_symbol
	_atom_site_fract_x
	_atom_site_fract_y
	_atom_site_fract_z
	H0	H	0.396575	0.851163	0.738454
	H1	H	0.607271	0.161829	0.733848
	H2	H	0.604094	0.845924	0.297319
	H3	H	0.401192	0.161095	0.294810
	H4	H	0.723661	0.398849	0.856931
	H5	H	0.718929	0.604325	0.173096
	H6	H	0.279910	0.611831	0.858167
	H7	H	0.282822	0.400466	0.171709
	H8	H	0.846210	0.723439	0.412803
	H9	H	0.159030	0.727081	0.622263
	H10	H	0.846478	0.283030	0.619674
	H11	H	0.160042	0.283432	0.409407
	H12	H	0.846835	0.400031	0.736125
	H13	H	0.160771	0.607192	0.734611
	H14	H	0.845832	0.606386	0.296873
	H15	H	0.162109	0.404089	0.297126
	H16	H	0.394914	0.727842	0.858556
	H17	H	0.604313	0.722395	0.172355
	H18	H	0.611354	0.279654	0.859081
	H19	H	0.399494	0.284691	0.171514
	H20	H	0.721863	0.847202	0.411985
	H21	H	0.723493	0.161750	0.616982
	H22	H	0.279104	0.851135	0.623581
	H23	H	0.281122	0.159976	0.408341
	H24	H	0.902746	0.347119	0.232667
	H25	H	0.106124	0.661283	0.233903
	H26	H	0.106052	0.347465	0.794960
	H27	H	0.899914	0.660606	0.794973
	H28	H	0.223457	0.900284	0.357714
	H29	H	0.226903	0.112549	0.671301
	H30	H	0.789287	0.103634	0.353346
	H31	H	0.784576	0.902569	0.672967
	H32	H	0.348385	0.228011	0.906229
	H33	H	0.658417	0.225954	0.120856
	H34	H	0.345600	0.785242	0.117529
	H35	H	0.659735	0.784133	0.910457
	H36	H	0.344889	0.903231	0.232240
	H37	H	0.661377	0.105069	0.231846
	H38	H	0.347612	0.110487	0.791373
	H39	H	0.660665	0.900724	0.794603
	H40	H	0.903904	0.220859	0.354205
	H41	H	0.110907	0.228645	0.670929
	H42	H	0.107800	0.784450	0.357918
	H43	H	0.900291	0.786555	0.673760
	H44	H	0.225872	0.349043	0.908519
	H45	H	0.224750	0.659655	0.119763
	H46	H	0.784545	0.347416	0.117190
	H47	H	0.781334	0.659858	0.909906
	H48	H	0.425674	0.110336	0.594634
	H49	H	0.593535	0.893815	0.602925
	H50	H	0.596936	0.116062	0.426804
	H51	H	0.414611	0.893863	0.426332
	H52	H	0.588109	0.413866	0.125181
	H53	H	0.594581	0.597898	0.898511
	H54	H	0.413513	0.589032	0.125693
	H55	H	0.414636	0.418747	0.901892
	H56	H	0.119388	0.594868	0.416080
	H57	H	0.893101	0.601947	0.593843
	H58	H	0.116134	0.414662	0.606206
	H59	H	0.891265	0.414964	0.421659
	H60	H	0.113664	0.412588	0.598444
	H61	H	0.895441	0.582974	0.603743
	H62	H	0.117014	0.603931	0.429590
	H63	H	0.889544	0.411218	0.422031
	H64	H	0.418618	0.594877	0.126018
	H65	H	0.595278	0.592204	0.899704
	H66	H	0.594976	0.410505	0.129855
	H67	H	0.418097	0.416471	0.903374
	H68	H	0.601663	0.121236	0.418800
	H69	H	0.597062	0.892859	0.603526
	H70	H	0.407201	0.114881	0.594073
	H71	H	0.410352	0.892142	0.425442
	H72	H	0.912784	0.616387	0.104326
	H73	H	0.096245	0.392048	0.102470
	H74	H	0.095867	0.617669	0.924908
	H75	H	0.915453	0.393371	0.926087
	H76	H	0.083180	0.919836	0.624012
	H77	H	0.096916	0.091257	0.401340
	H78	H	0.910749	0.094637	0.627824
	H79	H	0.910831	0.913818	0.400514
	H80	H	0.616337	0.094836	0.921801
	H81	H	0.390446	0.092284	0.107228
	H82	H	0.617579	0.910777	0.109610
	H83	H	0.387883	0.904623	0.924722
	H84	H	0.615905	0.908823	0.102210
	H85	H	0.389432	0.098518	0.103181
	H86	H	0.613887	0.096345	0.931446
	H87	H	0.396168	0.919280	0.937178
	H88	H	0.915730	0.093651	0.626310
	H89	H	0.087714	0.089613	0.405390
	H90	H	0.091620	0.908517	0.629709
	H91	H	0.915226	0.914725	0.402103
	H92	H	0.089446	0.615220	0.923659
	H93	H	0.092912	0.391774	0.106925
	H94	H	0.906629	0.618184	0.104206
	H95	H	0.913487	0.393637	0.927046
	H96	H	0.417136	0.118049	0.610137
	H97	H	0.594402	0.892392	0.606188
	H98	H	0.591550	0.117720	0.418300
	H99	H	0.414029	0.892115	0.422225
	H100	H	0.594777	0.418794	0.126766
	H101	H	0.590602	0.594835	0.901850
	H102	H	0.411052	0.596307	0.128429
	H103	H	0.415410	0.414482	0.901590
	H104	H	0.112457	0.588469	0.429228
	H105	H	0.886600	0.599575	0.614778
	H106	H	0.112319	0.420297	0.601133
	H107	H	0.891524	0.412846	0.425982
	H108	H	0.910172	0.618807	0.109819
	H109	H	0.090917	0.393539	0.101958
	H110	H	0.092301	0.614392	0.930458
	H111	H	0.913270	0.392462	0.925107
	H112	H	0.097190	0.922336	0.628465
	H113	H	0.090268	0.099081	0.402510
	H114	H	0.913928	0.098584	0.627856
	H115	H	0.913944	0.909868	0.400570
	H116	H	0.612188	0.087030	0.927087
	H117	H	0.392993	0.092553	0.100002
	H118	H	0.614458	0.915977	0.104732
	H119	H	0.391474	0.923861	0.916467
	C120	C	0.382743	0.013083	0.634805
	C121	C	0.625859	0.996746	0.635671
	C122	C	0.625910	0.013344	0.391691
	C123	C	0.381685	0.996038	0.392794
	C124	C	0.625009	0.382231	0.023263
	C125	C	0.623837	0.625425	1.005130
	C126	C	0.381633	0.625867	0.023024
	C127	C	0.383303	0.384073	1.006013
	C128	C	0.012097	0.626114	0.394015
	C129	C	0.994831	0.626433	0.636881
	C130	C	0.010814	0.383702	0.634749
	C131	C	0.995149	0.382996	0.392772
	C132	C	0.880729	0.513293	0.136731
	C133	C	0.124867	0.495755	0.135596
	C134	C	0.124785	0.512727	0.893524
	C135	C	0.881202	0.495477	0.893219
	C136	C	0.123560	0.884355	0.523745
	C137	C	0.125002	0.126464	0.506326
	C138	C	0.883392	0.125471	0.522077
	C139	C	0.882069	0.882941	0.506143
	C140	C	0.511541	0.125756	0.893347
	C141	C	0.494473	0.125417	0.135621
	C142	C	0.511548	0.881844	0.136271
	C143	C	0.494858	0.883611	0.893302
	C144	C	0.379061	0.897068	0.697099
	C145	C	0.626124	0.114855	0.694280
	C146	C	0.623961	0.893805	0.335809
	C147	C	0.381423	0.114042	0.333868
	C148	C	0.684167	0.380384	0.904501
	C149	C	0.680620	0.624604	0.125230
	C150	C	0.320523	0.629172	0.905199
	C151	C	0.322939	0.381982	0.124344
	C152	C	0.893475	0.684181	0.393441
	C153	C	0.112401	0.686418	0.639688
	C154	C	0.893345	0.323426	0.637690
	C155	C	0.113402	0.324101	0.391618
	C156	C	0.893574	0.381560	0.695573
	C157	C	0.113117	0.627141	0.696005
	C158	C	0.893270	0.625871	0.335989
	C159	C	0.114437	0.383786	0.335590
	C160	C	0.377779	0.686924	0.905353
	C161	C	0.623896	0.683301	0.124708
	C162	C	0.628320	0.321119	0.905486
	C163	C	0.380796	0.324421	0.124290
	C164	C	0.682858	0.894460	0.392673
	C165	C	0.684110	0.114789	0.636315
	C166	C	0.320507	0.897121	0.639937
	C167	C	0.321904	0.113456	0.390268
	C168	C	0.882198	0.394552	0.193991
	C169	C	0.125505	0.613997	0.194737
	C170	C	0.125643	0.394662	0.834279
	C171	C	0.880192	0.613408	0.834296
	C172	C	0.183821	0.881718	0.405306
	C173	C	0.186209	0.130165	0.624122
	C174	C	0.827452	0.123601	0.401654
	C175	C	0.823953	0.883440	0.625430
	C176	C	0.394773	0.186940	0.889336
	C177	C	0.612066	0.185134	0.138154
	C178	C	0.392967	0.824161	0.136865
	C179	C	0.612785	0.823966	0.891804
	C180	C	0.392573	0.882795	0.194079
	C181	C	0.613407	0.125288	0.193789
	C182	C	0.394445	0.128513	0.832045
	C183	C	0.613207	0.882056	0.834232
	C184	C	0.884251	0.182105	0.401984
	C185	C	0.128455	0.187905	0.623998
	C186	C	0.126301	0.824096	0.405323
	C187	C	0.881580	0.825665	0.625837
	C188	C	0.185088	0.395443	0.890628
	C189	C	0.184219	0.613215	0.137750
	C190	C	0.823594	0.394659	0.136608
	C191	C	0.821312	0.612919	0.891270
	C192	C	0.409324	0.093410	0.607671
	C193	C	0.601718	0.914490	0.611308
	C194	C	0.603363	0.096572	0.414658
	C195	C	0.406189	0.913979	0.417651
	C196	C	0.599848	0.407216	0.105784
	C197	C	0.600158	0.601810	0.921663
	C198	C	0.407099	0.600504	0.105196
	C199	C	0.408859	0.409324	0.923632
	C200	C	0.094837	0.602461	0.418208
	C201	C	0.912990	0.601783	0.611443
	C202	C	0.092706	0.408655	0.609123
	C203	C	0.912257	0.406300	0.416431
	C204	C	0.903474	0.596208	0.113051
	C205	C	0.100358	0.413810	0.110963
	C206	C	0.099657	0.594392	0.918972
	C207	C	0.906609	0.414304	0.918710
	C208	C	0.098085	0.909675	0.605978
	C209	C	0.099121	0.100525	0.424426
	C210	C	0.906772	0.102359	0.605720
	C211	C	0.906100	0.906333	0.422786
	C212	C	0.592931	0.100079	0.919290
	C213	C	0.412373	0.101327	0.110709
	C214	C	0.594389	0.905186	0.112247
	C215	C	0.413167	0.908715	0.918584
	Zn216	Zn	0.504081	0.004937	0.764169
	Zn217	Zn	0.503305	0.004019	0.263821
	Zn218	Zn	0.752164	0.503734	0.014567
	Zn219	Zn	0.253981	0.504173	0.014548
	Zn220	Zn	0.003480	0.755084	0.515732
	Zn221	Zn	0.003429	0.254381	0.514174
	Zn222	Zn	0.003217	0.504005	0.765078
	Zn223	Zn	0.003713	0.504658	0.264694
	Zn224	Zn	0.502732	0.753687	0.013852
	Zn225	Zn	0.503254	0.254596	0.014551
	Zn226	Zn	0.754261	0.005241	0.513774
	Zn227	Zn	0.252745	0.004772	0.514955
	N228	N	0.417366	0.969940	0.693882
	N229	N	0.590843	0.040188	0.694076
	N230	N	0.589382	0.968856	0.334884
	N231	N	0.417763	0.039907	0.335223
	N232	N	0.682217	0.417481	0.978787
	N233	N	0.681117	0.589664	0.049670
	N234	N	0.322656	0.591777	0.979450
	N235	N	0.324108	0.418206	0.049450
	N236	N	0.968515	0.684760	0.428576
	N237	N	0.037757	0.686258	0.603721
	N238	N	0.967606	0.324308	0.600960
	N239	N	0.038141	0.323374	0.426322
	N240	N	0.967596	0.418260	0.693735
	N241	N	0.039004	0.590563	0.694642
	N242	N	0.968065	0.590582	0.336132
	N243	N	0.039987	0.419654	0.336265
	N244	N	0.415198	0.684945	0.979595
	N245	N	0.589552	0.684130	0.048939
	N246	N	0.592178	0.321912	0.980669
	N247	N	0.417389	0.325593	0.049607
	N248	N	0.684375	0.969986	0.426530
	N249	N	0.684393	0.040264	0.600815
	N250	N	0.322637	0.970169	0.601835
	N251	N	0.321887	0.039014	0.426243
	N252	N	0.916609	0.469668	0.194604
	N253	N	0.089433	0.539824	0.193806
	N254	N	0.089231	0.468811	0.835765
	N255	N	0.916653	0.539364	0.835173
	N256	N	0.182475	0.918445	0.479957
	N257	N	0.184180	0.092813	0.549808
	N258	N	0.826502	0.089361	0.477532
	N259	N	0.823852	0.918140	0.549781
	N260	N	0.468623	0.185534	0.926584
	N261	N	0.537263	0.185347	0.102657
	N262	N	0.468014	0.823396	0.101822
	N263	N	0.538173	0.824604	0.927772
	N264	N	0.467598	0.917520	0.194151
	N265	N	0.539194	0.088806	0.192465
	N266	N	0.468254	0.091323	0.834208
	N267	N	0.538888	0.918256	0.834820
	N268	N	0.918085	0.183582	0.478020
	N269	N	0.090960	0.185790	0.549694
	N270	N	0.089510	0.825457	0.480024
	N271	N	0.916826	0.825044	0.550491
	N272	N	0.184846	0.469932	0.926477
	N273	N	0.183919	0.538893	0.101702
	N274	N	0.822321	0.469617	0.101991
	N275	N	0.821657	0.538478	0.927043
	O276	O	-0.707417	0.588731	-0.687446
	H277	H	-0.709733	0.567845	-0.661606
	H278	H	-0.711181	0.565518	-0.691001
	O279	O	0.538997	0.300779	0.376027
	H280	H	0.544650	0.285396	0.381720
	H281	H	0.531785	0.305206	0.375510
	O282	O	0.784041	-0.040216	1.231002
	H283	H	0.782396	-0.034932	1.241219
	H284	H	0.777337	-0.050652	1.242809
	O285	O	0.230501	0.031687	-0.098696
	H286	H	0.245160	0.034203	-0.109291
	H287	H	0.219709	0.053891	-0.086821
	O288	O	0.360024	0.384656	0.323655
	H289	H	0.370418	0.389299	0.329180
	H290	H	0.379701	0.389612	0.342343
	O291	O	0.243085	0.242082	0.246152
	H292	H	0.268410	0.261801	0.270322
	H293	H	0.233354	0.238189	0.248775
	O294	O	1.216078	0.043123	1.221326
	H295	H	1.208911	0.057422	1.236437
	H296	H	1.224846	0.048576	1.233777
	O297	O	0.120325	-0.119143	1.055693
	H298	H	0.130907	-0.125067	1.056945
	H299	H	0.134547	-0.111858	1.057764
	O300	O	-0.217570	0.037191	0.795433
	H301	H	-0.207484	0.056790	0.795459
	H302	H	-0.240028	0.051887	0.768760
	O303	O	0.507814	0.408302	0.479187
	H304	H	0.498254	0.409877	0.474843
	H305	H	0.521421	0.412554	0.481048
	O306	O	1.421868	0.558487	0.501167
	H307	H	1.419016	0.562189	0.509639
	H308	H	1.436844	0.549096	0.500782
	O309	O	0.467180	0.365241	0.494021
	H310	H	0.474357	0.378672	0.506645
	H311	H	0.447629	0.359855	0.498618
	O312	O	0.557327	0.316553	0.606085
	H313	H	0.564268	0.323741	0.601199
	H314	H	0.565858	0.329130	0.593955
	O315	O	0.805273	0.874696	0.895824
	H316	H	0.813531	0.872529	0.899458
	H317	H	0.811380	0.883467	0.912286
	O318	O	0.274009	0.546700	0.558891
	H319	H	0.274001	0.546211	0.574385
	H320	H	0.275309	0.560585	0.560697
	O321	O	0.202066	0.891358	0.031707
	H322	H	0.190503	0.896689	0.051992
	H323	H	0.202693	0.883550	0.030481
	O324	O	0.708467	0.707086	-0.280039
	H325	H	0.716960	0.694675	-0.307116
	H326	H	0.727295	0.704421	-0.271051
	O327	O	-0.027161	0.221526	0.797782
	H328	H	-0.032798	0.214289	0.798686
	H329	H	-0.034595	0.242420	0.780063
	O330	O	0.540677	0.568904	0.488779
	H331	H	0.535547	0.560104	0.494677
	H332	H	0.533115	0.584408	0.495704
	O333	O	0.693426	0.692129	0.325679
	H334	H	0.674071	0.668482	0.341330
	H335	H	0.675928	0.673795	0.344345
	O336	O	1.685569	0.374497	-0.392425
	H337	H	1.689376	0.362444	-0.406938
	H338	H	1.689806	0.380946	-0.417439
	O339	O	1.281217	-0.532989	0.728379
	H340	H	1.302021	-0.512523	0.738844
	H341	H	1.266545	-0.521491	0.754254
	O342	O	0.152934	-0.024671	-0.130759
	H343	H	0.142960	-0.012075	-0.131742
	H344	H	0.162448	-0.015840	-0.138402
	O345	O	-0.205050	0.792197	1.222299
	H346	H	-0.205267	0.811284	1.219260
	H347	H	-0.227219	0.764821	1.251433
	O348	O	0.550700	-0.526938	0.726083
	H349	H	0.544857	-0.542127	0.706881
	H350	H	0.555655	-0.522569	0.732499
	O351	O	0.786338	0.967180	-0.033086
	H352	H	0.800955	0.968134	-0.039106
	H353	H	0.780998	0.956393	-0.038273
	O354	O	0.053013	0.161522	1.046352
	H355	H	0.057771	0.156799	1.051891
	H356	H	0.049399	0.155680	1.044391
	O357	O	0.283176	0.283557	0.541710
	H358	H	0.254657	0.252596	0.547162
	H359	H	0.293164	0.289614	0.582942
	O360	O	0.295728	0.299159	0.718837
	H361	H	0.303914	0.280919	0.738442
	H362	H	0.287148	0.349861	0.722058
	O363	O	-0.219377	-0.219436	0.051034
	H364	H	-0.230488	-0.224439	0.065398
	H365	H	-0.234891	-0.234498	0.067394
	O366	O	1.141913	0.867000	0.192998
	H367	H	1.122674	0.857388	0.194281
	H368	H	1.151431	0.874738	0.180155
	O369	O	0.268498	0.741080	0.282663
	H370	H	0.270831	0.693272	0.285822
	H371	H	0.248812	0.755501	0.268610
	O372	O	1.165495	1.007345	-0.002991
	H373	H	1.169960	1.007056	0.003207
	H374	H	1.165041	1.002269	0.006257
	O375	O	0.806674	0.202107	-0.176446
	H376	H	0.819673	0.208304	-0.147127
	H377	H	0.798610	0.202663	-0.184450
	O378	O	0.341466	0.713316	0.536498
	H379	H	0.346275	0.713512	0.528376
	H380	H	0.340173	0.719989	0.533575
	O381	O	-0.011793	0.864309	0.796731
	H382	H	0.000333	0.850159	0.792070
	H383	H	0.006685	0.851317	0.793822
	O384	O	1.040090	-0.010383	1.067096
	H385	H	1.044828	-0.010491	1.058659
	H386	H	1.049443	-0.003946	1.070826
	O387	O	0.784386	1.209218	-0.008963
	H388	H	0.783226	1.189789	-0.003889
	H389	H	0.766712	1.221801	-0.010466
	O390	O	0.463678	0.723612	0.299025
	H391	H	0.424769	0.724144	0.300678
	H392	H	0.452442	0.748835	0.280482
	O393	O	0.048805	0.068845	-0.215697
	H394	H	0.037614	0.061102	-0.208891
	H395	H	0.038688	0.071678	-0.221886
	O396	O	-0.437165	1.727264	0.463782
	H397	H	-0.449398	1.729725	0.467424
	H398	H	-0.457391	1.730042	0.452301
	O399	O	0.721683	0.467625	0.298060
	H400	H	0.735059	0.454685	0.282042
	H401	H	0.736607	0.474846	0.299647
	O402	O	0.735388	0.504622	0.537138
	H403	H	0.728017	0.507143	0.544761
	H404	H	0.740273	0.497331	0.543723
	O405	O	1.165678	0.171765	0.850004
	H406	H	1.152500	0.169466	0.865017
	H407	H	1.155762	0.168478	0.863529
	O408	O	0.123967	-0.205601	-0.192155
	H409	H	0.140706	-0.208792	-0.211999
	H410	H	0.150392	-0.197275	-0.185628
	O411	O	-0.547396	1.368906	1.301190
	H412	H	-0.537350	1.373708	1.300945
	H413	H	-0.543214	1.362546	1.304972
	O414	O	0.528100	0.733312	0.735074
	H415	H	0.556973	0.743720	0.750321
	H416	H	0.551528	0.742102	0.746056
	O417	O	0.720166	0.722498	0.552009
	H418	H	0.717158	0.724138	0.532705
	H419	H	0.724232	0.743812	0.554329
	O420	O	0.685071	0.430591	0.715888
	H421	H	0.688871	0.437591	0.720139
	H422	H	0.671616	0.425377	0.711963
	O423	O	0.683723	-0.510001	0.625225
	H424	H	0.684597	-0.516287	0.634230
	H425	H	0.686962	-0.521035	0.612769
	O426	O	-0.146036	0.055752	0.078474
	H427	H	-0.151699	0.040302	0.076350
	H428	H	-0.135290	0.053968	0.070400
	O429	O	1.022254	1.203925	1.214936
	H430	H	1.034877	1.210242	1.221861
	H431	H	1.037130	1.196906	1.213634
	O432	O	0.970035	0.966732	-0.132662
	H433	H	0.951328	0.964955	-0.129361
	H434	H	0.980737	0.942664	-0.135964
	O435	O	-0.031969	1.218737	0.041071
	H436	H	-0.029275	1.216284	0.042399
	H437	H	-0.038395	1.216038	0.038888
	O438	O	-0.166854	0.186989	0.197924
	H439	H	-0.147111	0.169195	0.183785
	H440	H	-0.151957	0.172099	0.178945
	O441	O	0.225378	0.224382	0.039012
	H442	H	0.221603	0.231533	0.057317
	H443	H	0.238705	0.235654	0.043697
	O444	O	0.472107	0.286185	0.735921
	H445	H	0.464494	0.286610	0.736412
	H446	H	0.470927	0.264654	0.745912
	O447	O	0.056552	0.860950	1.030452
	H448	H	0.070532	0.853448	1.014945
	H449	H	0.053005	0.858270	1.020576
	O450	O	-0.451577	0.539042	1.312982
	H451	H	-0.456646	0.560206	1.309699
	H452	H	-0.446522	0.531503	1.314009
	O453	O	0.383412	0.725569	0.523598
	H454	H	0.394421	0.724113	0.538251
	H455	H	0.360879	0.746112	0.538873
	O456	O	-0.031995	-0.182668	1.005376
	H457	H	-0.035273	-0.183740	0.998008
	H458	H	-0.040914	-0.179204	0.997440
	O459	O	0.977368	1.080369	0.228404
	H460	H	0.973141	1.080680	0.233775
	H461	H	0.978008	1.081340	0.215022
	O462	O	0.386560	0.613755	0.712294
	H463	H	0.413761	0.601435	0.725645
	H464	H	0.380977	0.630299	0.704251
	O465	O	1.049263	0.012850	0.131986
	H466	H	1.042559	-0.002284	0.131313
	H467	H	1.037475	0.017821	0.130058
	O468	O	0.726362	0.282118	0.478726
	H469	H	0.744926	0.264014	0.457934
	H470	H	0.731424	0.277596	0.451151
	O471	O	-0.032632	-0.216009	1.231365
	H472	H	-0.049402	-0.225316	1.234149
	H473	H	-0.043246	-0.227536	1.240517
	O474	O	0.387172	0.480606	0.631166
	H475	H	0.384968	0.501101	0.632645
	H476	H	0.393385	0.479213	0.621120
	O477	O	0.668562	0.541220	1.427327
	H478	H	0.671855	0.537503	1.425874
	H479	H	0.672318	0.528868	1.446506
	O480	O	0.336011	0.501772	0.414839
	H481	H	0.331392	0.489030	0.427467
	H482	H	0.337469	0.506881	0.421698
	O483	O	0.726946	1.277391	1.291076
	H484	H	0.707766	1.289807	1.281014
	H485	H	0.755242	1.247879	1.257744
	O486	O	0.946457	-0.134047	1.003460
	H487	H	0.924421	-0.139154	0.997971
	H488	H	0.940530	-0.134758	1.018370
	O489	O	1.266283	0.747977	-0.248971
	H490	H	1.274424	0.742861	-0.229350
	H491	H	1.279487	0.760962	-0.259639
