data_Molecule from HDF5

_cell_length_a		16.632596
_cell_length_b		16.715116
_cell_length_c		16.546407
_cell_angle_alpha	89.937971
_cell_angle_beta	89.973507
_cell_angle_gamma	89.835069
_symmetry_space_group_name_H-M	'P 1'
_symmetry_Int_Tables_number		1

loop_
	_symmetry_equiv_pos_as_xyz
	x,y,z

loop_
	_atom_site_label
	_atom_site_type_symbol
	_atom_site_fract_x
	_atom_site_fract_y
	_atom_site_fract_z
	H0	H	0.397407	0.843621	0.714073
	H1	H	0.610535	0.150727	0.713034
	H2	H	0.612096	0.845616	0.266133
	H3	H	0.398812	0.152746	0.269516
	H4	H	0.724513	0.393631	0.833979
	H5	H	0.725283	0.601726	0.146613
	H6	H	0.285557	0.601485	0.833656
	H7	H	0.283770	0.392236	0.146920
	H8	H	0.851208	0.721553	0.380899
	H9	H	0.158016	0.718716	0.596180
	H10	H	0.847549	0.278009	0.594769
	H11	H	0.158591	0.274167	0.385044
	H12	H	0.847699	0.394997	0.710278
	H13	H	0.160630	0.598711	0.708315
	H14	H	0.850056	0.603574	0.267119
	H15	H	0.159879	0.390856	0.269297
	H16	H	0.397832	0.719494	0.835423
	H17	H	0.610852	0.719308	0.145892
	H18	H	0.609703	0.277641	0.833505
	H19	H	0.399341	0.276387	0.146693
	H20	H	0.729981	0.845499	0.380633
	H21	H	0.727929	0.150093	0.598086
	H22	H	0.279233	0.844635	0.600353
	H23	H	0.282549	0.152276	0.385915
	H24	H	0.900693	0.341433	0.210524
	H25	H	0.114233	0.648647	0.216355
	H26	H	0.108373	0.341614	0.771875
	H27	H	0.900044	0.653031	0.770502
	H28	H	0.226320	0.892120	0.335305
	H29	H	0.225515	0.103034	0.646063
	H30	H	0.782820	0.102449	0.334035
	H31	H	0.784158	0.892661	0.646449
	H32	H	0.349132	0.218189	0.886157
	H33	H	0.659961	0.219120	0.097300
	H34	H	0.350068	0.775394	0.098093
	H35	H	0.657700	0.773026	0.883522
	H36	H	0.349423	0.893431	0.212771
	H37	H	0.659849	0.101856	0.212559
	H38	H	0.348440	0.099127	0.772580
	H39	H	0.660205	0.892399	0.770399
	H40	H	0.896493	0.220187	0.334490
	H41	H	0.108281	0.217156	0.647191
	H42	H	0.112461	0.774581	0.335732
	H43	H	0.897315	0.774555	0.644954
	H44	H	0.225475	0.342593	0.887045
	H45	H	0.226369	0.651379	0.098091
	H46	H	0.782420	0.342641	0.096627
	H47	H	0.782744	0.651501	0.885188
	H48	H	0.413130	0.109864	0.583192
	H49	H	0.593209	0.884931	0.583889
	H50	H	0.591444	0.108479	0.399975
	H51	H	0.419096	0.886526	0.399131
	H52	H	0.595589	0.409967	0.103415
	H53	H	0.591838	0.585896	0.878987
	H54	H	0.419661	0.591392	0.103566
	H55	H	0.409839	0.406342	0.875242
	H56	H	0.114538	0.581614	0.401453
	H57	H	0.888674	0.591428	0.583915
	H58	H	0.117479	0.402082	0.580597
	H59	H	0.891041	0.409439	0.396259
	H60	H	0.115149	0.405872	0.578100
	H61	H	0.894200	0.588566	0.570739
	H62	H	0.116219	0.587377	0.403456
	H63	H	0.891148	0.403141	0.403139
	H64	H	0.410299	0.586882	0.105780
	H65	H	0.591892	0.585411	0.878998
	H66	H	0.590347	0.408034	0.101235
	H67	H	0.416352	0.413178	0.881431
	H68	H	0.588195	0.105748	0.406304
	H69	H	0.590215	0.888453	0.576959
	H70	H	0.419273	0.105484	0.579902
	H71	H	0.415557	0.888440	0.406667
	H72	H	0.914056	0.607426	0.075597
	H73	H	0.096475	0.386629	0.078692
	H74	H	0.095118	0.608517	0.903120
	H75	H	0.916474	0.386541	0.899897
	H76	H	0.095598	0.905752	0.604731
	H77	H	0.091815	0.086138	0.378514
	H78	H	0.917869	0.088753	0.601962
	H79	H	0.915966	0.915406	0.381148
	H80	H	0.616787	0.085158	0.902334
	H81	H	0.394896	0.088536	0.073774
	H82	H	0.613926	0.913474	0.076824
	H83	H	0.395224	0.912127	0.905601
	H84	H	0.616905	0.907976	0.081441
	H85	H	0.393529	0.083103	0.081981
	H86	H	0.617546	0.088106	0.898845
	H87	H	0.393005	0.910556	0.900452
	H88	H	0.912663	0.088137	0.602777
	H89	H	0.091721	0.087119	0.377492
	H90	H	0.091561	0.914883	0.599614
	H91	H	0.923668	0.907034	0.379917
	H92	H	0.098221	0.610659	0.898719
	H93	H	0.091417	0.386555	0.080332
	H94	H	0.915449	0.608283	0.081216
	H95	H	0.915949	0.386758	0.902378
	H96	H	0.412615	0.107836	0.575265
	H97	H	0.598083	0.885738	0.576977
	H98	H	0.595234	0.107500	0.406286
	H99	H	0.410737	0.885129	0.400805
	H100	H	0.593883	0.404043	0.103929
	H101	H	0.591431	0.584998	0.879516
	H102	H	0.417694	0.581481	0.100582
	H103	H	0.420048	0.403034	0.877770
	H104	H	0.112861	0.583301	0.407383
	H105	H	0.893650	0.578143	0.580815
	H106	H	0.116889	0.406353	0.582761
	H107	H	0.895011	0.411286	0.404669
	H108	H	0.919427	0.606256	0.077390
	H109	H	0.092811	0.387745	0.075491
	H110	H	0.092132	0.609806	0.898091
	H111	H	0.913839	0.385181	0.900566
	H112	H	0.085305	0.905984	0.600774
	H113	H	0.093048	0.086354	0.378183
	H114	H	0.915409	0.084091	0.601315
	H115	H	0.913287	0.906005	0.375322
	H116	H	0.617332	0.090237	0.902848
	H117	H	0.390989	0.092607	0.082400
	H118	H	0.614709	0.906724	0.074116
	H119	H	0.392316	0.906299	0.904451
	C120	C	0.382313	0.006073	0.612691
	C121	C	0.626579	0.988044	0.612478
	C122	C	0.625483	0.006131	0.369838
	C123	C	0.382735	0.989087	0.369530
	C124	C	0.625637	0.375990	-0.000869
	C125	C	0.624966	0.618028	0.981871
	C126	C	0.383402	0.618810	-0.000173
	C127	C	0.383544	0.375983	0.981612
	C128	C	0.013111	0.617903	0.369234
	C129	C	0.995314	0.617633	0.610444
	C130	C	0.012825	0.374863	0.612086
	C131	C	0.995615	0.375318	0.369485
	C132	C	0.883144	0.505434	0.111465
	C133	C	0.126569	0.488470	0.111942
	C134	C	0.126322	0.506411	0.868794
	C135	C	0.883283	0.488827	0.869047
	C136	C	0.124965	0.876299	0.499063
	C137	C	0.124625	0.118456	0.481881
	C138	C	0.882639	0.118754	0.498877
	C139	C	0.883984	0.876516	0.481498
	C140	C	0.513897	0.119046	0.869392
	C141	C	0.496074	0.119621	0.112067
	C142	C	0.512949	0.876583	0.111720
	C143	C	0.495754	0.876476	0.870172
	C144	C	0.379486	0.890001	0.673892
	C145	C	0.628942	0.104342	0.672925
	C146	C	0.630041	0.891374	0.306989
	C147	C	0.380735	0.106004	0.309850
	C148	C	0.685398	0.374520	0.881225
	C149	C	0.685399	0.620190	0.099543
	C150	C	0.324158	0.620533	0.881816
	C151	C	0.323992	0.374157	0.099736
	C152	C	0.897383	0.680134	0.364096
	C153	C	0.112174	0.677525	0.613402
	C154	C	0.894657	0.317266	0.613444
	C155	C	0.112448	0.314558	0.367028
	C156	C	0.894863	0.375253	0.670915
	C157	C	0.113253	0.618112	0.669377
	C158	C	0.896975	0.621743	0.307063
	C159	C	0.112928	0.372846	0.309786
	C160	C	0.380209	0.679176	0.882271
	C161	C	0.628260	0.678295	0.099236
	C162	C	0.627953	0.317079	0.880976
	C163	C	0.381450	0.316392	0.099761
	C164	C	0.688374	0.891218	0.364052
	C165	C	0.687178	0.103977	0.615795
	C166	C	0.320749	0.890679	0.617208
	C167	C	0.322757	0.105940	0.367314
	C168	C	0.881698	0.388292	0.171069
	C169	C	0.130677	0.603307	0.174672
	C170	C	0.127227	0.388732	0.810909
	C171	C	0.881545	0.605985	0.810115
	C172	C	0.186228	0.873652	0.382151
	C173	C	0.185076	0.120960	0.599257
	C174	C	0.822491	0.121064	0.381101
	C175	C	0.823679	0.874078	0.599025
	C176	C	0.396156	0.178081	0.867678
	C177	C	0.612966	0.179029	0.115220
	C178	C	0.396490	0.816041	0.115786
	C179	C	0.611905	0.814506	0.866165
	C180	C	0.396164	0.874538	0.172750
	C181	C	0.613102	0.120833	0.172540
	C182	C	0.395570	0.118981	0.811384
	C183	C	0.612788	0.873656	0.809729
	C184	C	0.879173	0.179416	0.381369
	C185	C	0.126603	0.177627	0.599767
	C186	C	0.129468	0.815321	0.382338
	C187	C	0.879981	0.815283	0.598389
	C188	C	0.185620	0.389361	0.868041
	C189	C	0.186913	0.604406	0.115793
	C190	C	0.822865	0.389121	0.114407
	C191	C	0.823235	0.605289	0.867110
	C192	C	0.407783	0.086787	0.586685
	C193	C	0.601055	0.907272	0.586745
	C194	C	0.598943	0.086374	0.396730
	C195	C	0.407802	0.907957	0.394885
	C196	C	0.600414	0.400437	0.081458
	C197	C	0.599213	0.592674	0.900382
	C198	C	0.408720	0.593907	0.081884
	C199	C	0.408331	0.400545	0.899510
	C200	C	0.093593	0.591521	0.396332
	C201	C	0.913462	0.593177	0.585400
	C202	C	0.095012	0.398227	0.587553
	C203	C	0.913791	0.400625	0.394280
	C204	C	0.908855	0.586208	0.085517
	C205	C	0.100855	0.408046	0.085580
	C206	C	0.102108	0.588311	0.892925
	C207	C	0.908322	0.407303	0.894072
	C208	C	0.098377	0.901775	0.580615
	C209	C	0.099462	0.093495	0.399464
	C210	C	0.907974	0.093989	0.580656
	C211	C	0.910189	0.902169	0.400067
	C212	C	0.596062	0.094746	0.894000
	C213	C	0.414507	0.095029	0.086718
	C214	C	0.594070	0.902010	0.085245
	C215	C	0.414614	0.902129	0.896249
	Zn216	Zn	0.504659	-0.002885	0.740871
	Zn217	Zn	0.504310	-0.001705	0.240621
	Zn218	Zn	0.753932	0.497262	-0.009855
	Zn219	Zn	0.255480	0.497711	-0.009020
	Zn220	Zn	0.004313	0.747514	0.490159
	Zn221	Zn	0.003591	0.246501	0.490578
	Zn222	Zn	0.004113	0.497217	0.740153
	Zn223	Zn	0.004663	0.496500	0.240497
	Zn224	Zn	0.504141	0.747380	-0.008916
	Zn225	Zn	0.505042	0.247876	-0.009632
	Zn226	Zn	0.754850	-0.002777	0.489994
	Zn227	Zn	0.253629	-0.002583	0.490781
	N228	N	0.417303	0.962802	0.671154
	N229	N	0.591713	0.031168	0.670881
	N230	N	0.591589	0.963849	0.310383
	N231	N	0.417293	0.032326	0.310934
	N232	N	0.684253	0.410541	0.955776
	N233	N	0.683461	0.583377	0.025461
	N234	N	0.325810	0.583897	0.956080
	N235	N	0.324890	0.410574	0.025336
	N236	N	0.970640	0.678086	0.402037
	N237	N	0.037719	0.677432	0.577586
	N238	N	0.969253	0.316621	0.577820
	N239	N	0.038237	0.315968	0.403342
	N240	N	0.969467	0.410165	0.670592
	N241	N	0.039463	0.581640	0.667827
	N242	N	0.970075	0.583658	0.310019
	N243	N	0.039265	0.409884	0.310974
	N244	N	0.416370	0.678555	0.956921
	N245	N	0.591328	0.677331	0.025099
	N246	N	0.591940	0.317531	0.955700
	N247	N	0.417533	0.317063	0.025120
	N248	N	0.685435	0.963603	0.402777
	N249	N	0.686041	0.030613	0.579016
	N250	N	0.322253	0.963863	0.579794
	N251	N	0.323802	0.032183	0.403758
	N252	N	0.918463	0.461845	0.169622
	N253	N	0.093714	0.530051	0.172555
	N254	N	0.091144	0.462689	0.811038
	N255	N	0.918129	0.532390	0.811136
	N256	N	0.183737	0.910959	0.455934
	N257	N	0.183976	0.084921	0.524767
	N258	N	0.824281	0.084230	0.455160
	N259	N	0.825708	0.911329	0.525137
	N260	N	0.470879	0.178351	0.902835
	N261	N	0.539088	0.178504	0.078465
	N262	N	0.470326	0.816796	0.078817
	N263	N	0.538069	0.815955	0.902791
	N264	N	0.469799	0.911408	0.170562
	N265	N	0.539142	0.084640	0.170947
	N266	N	0.469919	0.083159	0.812043
	N267	N	0.539393	0.911223	0.811821
	N268	N	0.915812	0.178295	0.455697
	N269	N	0.089619	0.176310	0.525453
	N270	N	0.091987	0.816975	0.456110
	N271	N	0.916640	0.816437	0.524201
	N272	N	0.185499	0.463669	0.903228
	N273	N	0.184663	0.531906	0.077641
	N274	N	0.823522	0.462984	0.078055
	N275	N	0.824138	0.531324	0.903055
	O276	O	0.050733	1.009594	0.005413
	H277	H	0.038766	0.993571	0.008256
	H278	H	0.049534	1.021316	0.009486
	O279	O	0.393824	0.578131	0.396283
	H280	H	0.405942	0.578476	0.405143
	H281	H	0.387112	0.564842	0.404818
	O282	O	1.018958	-0.026468	1.093902
	H283	H	1.016798	-0.047437	1.094229
	H284	H	1.028970	-0.021257	1.098129
	O285	O	0.480947	0.572365	0.685743
	H286	H	0.493820	0.574309	0.687102
	H287	H	0.495417	0.569704	0.685165
	O288	O	0.543539	0.734416	0.424474
	H289	H	0.558045	0.744220	0.450378
	H290	H	0.539493	0.731316	0.422910
	O291	O	0.373047	0.321460	0.550277
	H292	H	0.366424	0.313996	0.551728
	H293	H	0.375335	0.315123	0.553581
	O294	O	0.787093	0.216372	0.961347
	H295	H	0.786479	0.230181	0.968945
	H296	H	0.783330	0.224592	0.974433
	O297	O	0.377868	0.718402	0.270250
	H298	H	0.378121	0.745327	0.255826
	H299	H	0.387922	0.718064	0.296828
	O300	O	0.195984	0.191885	0.798679
	H301	H	0.192831	0.166714	0.825830
	H302	H	0.175157	0.183394	0.810744
	O303	O	0.659103	0.626339	0.480790
	H304	H	0.683721	0.633975	0.483384
	H305	H	0.643858	0.602876	0.491851
	O306	O	0.566676	0.260631	0.543550
	H307	H	0.565691	0.260024	0.551083
	H308	H	0.564125	0.258121	0.572596
	O309	O	0.312025	0.687881	0.678694
	H310	H	0.315480	0.665369	0.656357
	H311	H	0.338939	0.673041	0.661400
	O312	O	0.366072	0.671886	0.505538
	H313	H	0.350062	0.678993	0.508881
	H314	H	0.376118	0.664159	0.498280
	O315	O	0.930605	1.025687	0.877584
	H316	H	0.934564	1.029403	0.861461
	H317	H	0.926346	1.017018	0.886423
	O318	O	0.710335	0.649713	0.700592
	H319	H	0.707473	0.653209	0.687555
	H320	H	0.718222	0.641160	0.711248
	O321	O	0.208432	0.781188	0.780477
	H322	H	0.243930	0.751192	0.750336
	H323	H	0.218935	0.787016	0.821910
	O324	O	0.960901	0.783304	0.118915
	H325	H	0.958540	0.776438	0.132302
	H326	H	0.965610	0.776577	0.109413
	O327	O	-0.041740	0.179911	0.767509
	H328	H	-0.062064	0.179093	0.770105
	H329	H	-0.039083	0.202101	0.754774
	O330	O	0.513624	0.350591	0.438278
	H331	H	0.526694	0.346152	0.440562
	H332	H	0.520129	0.344210	0.442146
	O333	O	0.469657	0.268196	0.712543
	H334	H	0.455614	0.242798	0.742188
	H335	H	0.450713	0.285746	0.716919
	O336	O	0.722302	0.272584	0.462014
	H337	H	0.728982	0.259256	0.470238
	H338	H	0.723273	0.261520	0.458306
	O339	O	0.958441	0.022808	1.044539
	H340	H	0.958284	0.021581	1.042029
	H341	H	0.960106	0.008225	1.054290
	O342	O	-0.210673	0.031609	-0.225297
	H343	H	-0.212100	0.018892	-0.239119
	H344	H	-0.204811	0.017014	-0.232648
	O345	O	-0.047769	0.836763	0.923673
	H346	H	-0.048784	0.827120	0.904405
	H347	H	-0.056952	0.848473	0.914777
	O348	O	0.060630	-0.238020	0.046744
	H349	H	0.057930	-0.240733	0.062769
	H350	H	0.047862	-0.240794	0.032185
	O351	O	0.708643	0.608901	0.454235
	H352	H	0.704583	0.608490	0.448165
	H353	H	0.710593	0.597163	0.455587
	O354	O	-0.060471	0.222786	1.023669
	H355	H	-0.047859	0.221755	1.029788
	H356	H	-0.057352	0.216814	1.038703
	O357	O	0.533579	0.721393	0.712287
	H358	H	0.545669	0.748019	0.744490
	H359	H	0.557820	0.707241	0.700618
	O360	O	0.295808	0.290456	0.696614
	H361	H	0.265949	0.267105	0.725822
	H362	H	0.303989	0.291892	0.668161
	O363	O	0.046665	0.216298	0.153906
	H364	H	0.069395	0.218352	0.164630
	H365	H	0.037377	0.215693	0.169353
	O366	O	0.486350	0.449352	0.709707
	H367	H	0.480235	0.452174	0.700109
	H368	H	0.504292	0.453993	0.706247
	O369	O	0.709957	0.290232	0.290522
	H370	H	0.706040	0.322064	0.286205
	H371	H	0.701445	0.292920	0.314360
	O372	O	0.792077	0.782790	0.200928
	H373	H	0.792006	0.790308	0.204349
	H374	H	0.794429	0.788761	0.206982
	O375	O	0.848591	0.113119	0.181753
	H376	H	0.844048	0.098913	0.173955
	H377	H	0.832251	0.110791	0.196699
	O378	O	0.535928	0.436018	0.487154
	H379	H	0.536800	0.430618	0.483287
	H380	H	0.537534	0.434599	0.483741
	O381	O	0.035020	0.778080	0.766017
	H382	H	0.062571	0.768877	0.756956
	H383	H	0.057668	0.763660	0.755305
	O384	O	0.823249	-0.132990	0.908784
	H385	H	0.826404	-0.117147	0.916084
	H386	H	0.839894	-0.132568	0.912984
	O387	O	0.839123	1.005524	0.129844
	H388	H	0.842223	1.005027	0.109016
	H389	H	0.843251	1.020287	0.122195
	O390	O	0.533770	0.275320	0.274858
	H391	H	0.542714	0.292670	0.277288
	H392	H	0.536919	0.249622	0.245841
	O393	O	0.281559	0.462860	0.711551
	H394	H	0.270159	0.453109	0.733685
	H395	H	0.283960	0.439039	0.720780
	O396	O	0.179577	0.962276	0.827250
	H397	H	0.173510	0.940608	0.839254
	H398	H	0.199641	0.946148	0.827618
	O399	O	0.042083	-0.066560	0.866620
	H400	H	0.056905	-0.064572	0.863384
	H401	H	0.058996	-0.055668	0.873496
	O402	O	0.280592	0.538079	0.556089
	H403	H	0.275851	0.517490	0.578418
	H404	H	0.283747	0.525293	0.551492
	O405	O	1.094103	0.044245	0.886614
	H406	H	1.102158	0.052332	0.894664
	H407	H	1.099474	0.051449	0.885652
	O408	O	0.225953	0.217000	0.018987
	H409	H	0.231779	0.227185	0.037041
	H410	H	0.243966	0.213383	0.020089
	O411	O	0.779461	0.769949	0.759572
	H412	H	0.786662	0.758962	0.743903
	H413	H	0.804988	0.796936	0.774629
	O414	O	0.704457	0.376257	0.607572
	H415	H	0.714749	0.351101	0.622972
	H416	H	0.697858	0.381903	0.599148
	O417	O	0.629287	0.531964	0.555335
	H418	H	0.624327	0.534747	0.551744
	H419	H	0.645295	0.519644	0.561518
	O420	O	0.486299	0.657210	0.521727
	H421	H	0.468617	0.651221	0.530868
	H422	H	0.487428	0.659377	0.533212
	O423	O	0.098934	-0.114987	1.145392
	H424	H	0.100783	-0.119560	1.167349
	H425	H	0.074733	-0.107168	1.135123
	O426	O	0.592123	0.518627	0.394100
	H427	H	0.595208	0.527744	0.380411
	H428	H	0.574631	0.529588	0.389418
	O429	O	0.783595	0.776977	1.018567
	H430	H	0.783514	0.777233	1.029215
	H431	H	0.764697	0.764433	1.021842
	O432	O	0.410881	0.501874	0.351965
	H433	H	0.408349	0.511794	0.349572
	H434	H	0.411592	0.514545	0.356574
	O435	O	0.216070	0.793186	0.031735
	H436	H	0.227851	0.805855	0.044411
	H437	H	0.225578	0.772681	0.033564
	O438	O	0.077992	0.003415	0.218910
	H439	H	0.078314	0.003350	0.226031
	H440	H	0.085932	0.019318	0.218182
	O441	O	0.211146	0.203413	0.193533
	H442	H	0.236720	0.216330	0.221292
	H443	H	0.178652	0.211840	0.179574
	O444	O	0.284679	0.354417	0.466929
	H445	H	0.295056	0.342939	0.470876
	H446	H	0.275425	0.355095	0.465492
	O447	O	0.046262	1.220049	0.889679
	H448	H	0.042421	1.209741	0.890129
	H449	H	0.041428	1.230110	0.890182
	O450	O	0.194911	0.803808	1.104468
	H451	H	0.190048	0.807566	1.110577
	H452	H	0.188798	0.799996	1.093549
	O453	O	0.443241	0.418581	0.280249
	H454	H	0.435363	0.431596	0.291769
	H455	H	0.443102	0.427220	0.273961
	O456	O	0.097875	-0.069010	1.034396
	H457	H	0.089724	-0.058813	1.049680
	H458	H	0.096140	-0.081734	1.034814
	O459	O	0.692123	0.685808	0.301975
	H460	H	0.702565	0.690830	0.310156
	H461	H	0.672474	0.670231	0.313796
	O462	O	0.724648	0.494338	0.325646
	H463	H	0.721315	0.499012	0.323180
	H464	H	0.733685	0.500449	0.327850
	O465	O	0.777409	0.031077	-0.004556
	H466	H	0.789008	0.022795	-0.009704
	H467	H	0.782603	0.027564	-0.008701
	O468	O	0.284240	0.517853	0.267785
	H469	H	0.275777	0.525255	0.279604
	H470	H	0.263316	0.535496	0.252232
	O471	O	0.495208	0.634473	0.324247
	H472	H	0.496725	0.662116	0.313183
	H473	H	0.486520	0.613115	0.320269
	O474	O	0.298489	0.700225	0.383184
	H475	H	0.325141	0.697510	0.390274
	H476	H	0.299211	0.698710	0.384768
	O477	O	0.678437	0.420807	1.642557
	H478	H	0.682773	0.404933	1.663853
	H479	H	0.658049	0.422307	1.635623
	O480	O	0.337548	0.295038	0.329792
	H481	H	0.352268	0.312933	0.331880
	H482	H	0.363301	0.304565	0.347808
	O483	O	0.673637	0.501321	0.708897
	H484	H	0.672579	0.509936	0.690560
	H485	H	0.681273	0.509404	0.724809
	O486	O	0.796471	0.198419	0.789171
	H487	H	0.803600	0.195513	0.821898
	H488	H	0.798138	0.160121	0.796583
	O489	O	1.078242	1.038572	-0.154078
	H490	H	1.081046	1.036213	-0.162909
	H491	H	1.078580	1.042964	-0.165657
	O492	O	0.227230	0.036862	0.134113
	H493	H	0.225396	0.040198	0.111997
	H494	H	0.241912	0.035392	0.159057
	O495	O	-0.125020	0.989215	1.137764
	H496	H	-0.135548	0.992760	1.142185
	H497	H	-0.124645	0.983311	1.127297
	O498	O	1.098048	1.059983	0.984306
	H499	H	1.114102	1.066741	1.002892
	H500	H	1.084970	1.072358	0.990245
	O501	O	0.526690	0.487963	0.419975
	H502	H	0.522108	0.470835	0.411536
	H503	H	0.532721	0.484709	0.438876
