data_Molecule from HDF5

_cell_length_a		16.022272
_cell_length_b		16.188193
_cell_length_c		16.330146
_cell_angle_alpha	89.760541
_cell_angle_beta	91.310696
_cell_angle_gamma	89.235662
_symmetry_space_group_name_H-M	'P 1'
_symmetry_Int_Tables_number		1

loop_
	_symmetry_equiv_pos_as_xyz
	x,y,z

loop_
	_atom_site_label
	_atom_site_type_symbol
	_atom_site_fract_x
	_atom_site_fract_y
	_atom_site_fract_z
	H0	H	0.399276	0.835759	0.716353
	H1	H	0.597448	0.163045	0.717952
	H2	H	0.596519	0.835202	0.285874
	H3	H	0.386875	0.162964	0.282343
	H4	H	0.703445	0.400849	0.834292
	H5	H	0.713860	0.595200	0.162693
	H6	H	0.271978	0.600764	0.838453
	H7	H	0.290176	0.404823	0.166441
	H8	H	0.829565	0.713919	0.397894
	H9	H	0.161942	0.704334	0.602283
	H10	H	0.828013	0.285192	0.596759
	H11	H	0.160318	0.282438	0.408338
	H12	H	0.827910	0.398115	0.710658
	H13	H	0.157791	0.596106	0.721699
	H14	H	0.830503	0.602002	0.280977
	H15	H	0.161128	0.395161	0.293011
	H16	H	0.388643	0.716219	0.837012
	H17	H	0.596877	0.713053	0.164206
	H18	H	0.593152	0.280769	0.837556
	H19	H	0.401584	0.285389	0.164448
	H20	H	0.704230	0.831606	0.409856
	H21	H	0.708880	0.163205	0.599842
	H22	H	0.291969	0.830189	0.592979
	H23	H	0.274794	0.162223	0.399325
	H24	H	0.896973	0.333898	0.216126
	H25	H	0.094871	0.661433	0.219913
	H26	H	0.094779	0.333586	0.789808
	H27	H	0.885530	0.660268	0.778927
	H28	H	0.203158	0.900373	0.334714
	H29	H	0.211332	0.089194	0.664266
	H30	H	0.773400	0.096948	0.337439
	H31	H	0.787855	0.900231	0.665770
	H32	H	0.327967	0.214684	0.899210
	H33	H	0.661447	0.207673	0.100851
	H34	H	0.327059	0.789949	0.094452
	H35	H	0.658879	0.783661	0.905963
	H36	H	0.327588	0.902258	0.209546
	H37	H	0.658741	0.098238	0.220132
	H38	H	0.329930	0.104706	0.779333
	H39	H	0.660651	0.898223	0.793117
	H40	H	0.887660	0.215887	0.338029
	H41	H	0.097542	0.209181	0.665117
	H42	H	0.092343	0.780662	0.336951
	H43	H	0.901798	0.782282	0.663920
	H44	H	0.206102	0.333072	0.911473
	H45	H	0.205573	0.664622	0.100592
	H46	H	0.787526	0.331708	0.093089
	H47	H	0.777644	0.662955	0.899430
	H48	H	0.392613	0.118181	0.589615
	H49	H	0.592442	0.881780	0.592342
	H50	H	0.581373	0.115549	0.409482
	H51	H	0.403503	0.879626	0.399367
	H52	H	0.601198	0.403542	0.118607
	H53	H	0.583452	0.596327	0.882406
	H54	H	0.409324	0.608274	0.119794
	H55	H	0.398384	0.416260	0.885906
	H56	H	0.113594	0.587342	0.414970
	H57	H	0.873737	0.591776	0.592809
	H58	H	0.114802	0.402445	0.600650
	H59	H	0.875877	0.414677	0.400595
	H60	H	0.112985	0.401733	0.595091
	H61	H	0.873792	0.595351	0.585784
	H62	H	0.114834	0.585068	0.408096
	H63	H	0.872746	0.401617	0.402560
	H64	H	0.390150	0.595260	0.121862
	H65	H	0.584303	0.591524	0.883268
	H66	H	0.588395	0.412204	0.113587
	H67	H	0.405897	0.401936	0.884707
	H68	H	0.581243	0.115405	0.410475
	H69	H	0.595648	0.877775	0.604085
	H70	H	0.407481	0.117706	0.598852
	H71	H	0.403696	0.881128	0.405975
	H72	H	0.900971	0.614759	0.088947
	H73	H	0.088461	0.382652	0.094104
	H74	H	0.090219	0.619320	0.908759
	H75	H	0.903959	0.379566	0.901462
	H76	H	0.089473	0.903524	0.615353
	H77	H	0.085594	0.092145	0.383037
	H78	H	0.909983	0.087568	0.614921
	H79	H	0.892831	0.910656	0.384382
	H80	H	0.610518	0.089485	0.918969
	H81	H	0.372047	0.103855	0.092157
	H82	H	0.615713	0.908224	0.109079
	H83	H	0.375016	0.907917	0.910813
	H84	H	0.614813	0.895308	0.089129
	H85	H	0.377363	0.091839	0.081550
	H86	H	0.613884	0.084679	0.904761
	H87	H	0.375640	0.917717	0.901650
	H88	H	0.904763	0.100440	0.619617
	H89	H	0.080923	0.087353	0.385213
	H90	H	0.094473	0.891096	0.619513
	H91	H	0.905512	0.906343	0.386367
	H92	H	0.075763	0.616588	0.899905
	H93	H	0.099765	0.377944	0.098120
	H94	H	0.902309	0.616648	0.095689
	H95	H	0.900448	0.380287	0.908044
	H96	H	0.408167	0.112323	0.582868
	H97	H	0.584341	0.881569	0.601906
	H98	H	0.582728	0.115648	0.408850
	H99	H	0.398559	0.878766	0.402166
	H100	H	0.587854	0.397113	0.117005
	H101	H	0.580286	0.593358	0.884646
	H102	H	0.409884	0.585794	0.112830
	H103	H	0.390240	0.404416	0.880887
	H104	H	0.116179	0.591295	0.409710
	H105	H	0.877320	0.587366	0.586616
	H106	H	0.112867	0.406724	0.597994
	H107	H	0.876786	0.408871	0.413194
	H108	H	0.907179	0.614326	0.091923
	H109	H	0.090217	0.378297	0.105896
	H110	H	0.075787	0.612567	0.916249
	H111	H	0.897532	0.378623	0.902801
	H112	H	0.102298	0.901865	0.618736
	H113	H	0.079622	0.094137	0.384555
	H114	H	0.895957	0.089610	0.618893
	H115	H	0.896693	0.897204	0.380506
	H116	H	0.616828	0.098395	0.908137
	H117	H	0.373715	0.087907	0.097778
	H118	H	0.607558	0.917736	0.089771
	H119	H	0.371886	0.906941	0.897425
	C120	C	0.376026	0.007123	0.619392
	C121	C	0.618988	0.989659	0.626348
	C122	C	0.612778	0.006918	0.381692
	C123	C	0.370618	0.988999	0.374962
	C124	C	0.618012	0.375928	0.007859
	C125	C	0.614847	0.621229	0.991479
	C126	C	0.370492	0.624400	0.010016
	C127	C	0.373867	0.379011	0.992415
	C128	C	0.005003	0.619039	0.379352
	C129	C	0.985300	0.618024	0.620662
	C130	C	0.003391	0.375680	0.623214
	C131	C	0.985371	0.377603	0.380488
	C132	C	0.875335	0.506244	0.120149
	C133	C	0.119232	0.489133	0.126936
	C134	C	0.111859	0.507307	0.882031
	C135	C	0.870081	0.488416	0.875194
	C136	C	0.119920	0.872213	0.509014
	C137	C	0.114335	0.118048	0.492494
	C138	C	0.871098	0.121169	0.509564
	C139	C	0.873743	0.876188	0.492224
	C140	C	0.503985	0.121650	0.878765
	C141	C	0.484633	0.121132	0.121629
	C142	C	0.502731	0.879116	0.121893
	C143	C	0.484328	0.879785	0.878695
	C144	C	0.379357	0.883916	0.676515
	C145	C	0.617260	0.113546	0.680428
	C146	C	0.614075	0.883594	0.325417
	C147	C	0.368892	0.113267	0.320012
	C148	C	0.668552	0.379308	0.884211
	C149	C	0.674223	0.616754	0.114328
	C150	C	0.311076	0.621572	0.887314
	C151	C	0.324536	0.383069	0.116789
	C152	C	0.879499	0.675664	0.378591
	C153	C	0.111112	0.669495	0.621780
	C154	C	0.877824	0.322117	0.617939
	C155	C	0.110663	0.320369	0.386561
	C156	C	0.877762	0.378508	0.674511
	C157	C	0.109108	0.615362	0.681179
	C158	C	0.880045	0.620214	0.320386
	C159	C	0.111024	0.376390	0.329103
	C160	C	0.369171	0.679123	0.886446
	C161	C	0.616238	0.675527	0.114786
	C162	C	0.613460	0.319544	0.885811
	C163	C	0.379923	0.323532	0.115612
	C164	C	0.667728	0.881649	0.386939
	C165	C	0.672480	0.113794	0.621394
	C166	C	0.325915	0.881236	0.615181
	C167	C	0.312613	0.112980	0.378144
	C168	C	0.877705	0.382545	0.176513
	C169	C	0.115210	0.612842	0.181707
	C170	C	0.112922	0.382802	0.828149
	C171	C	0.867835	0.611534	0.817982
	C172	C	0.168874	0.877707	0.384571
	C173	C	0.172971	0.112141	0.615613
	C174	C	0.811942	0.118365	0.386534
	C175	C	0.823633	0.879353	0.616320
	C176	C	0.377936	0.177350	0.879084
	C177	C	0.610834	0.172648	0.121303
	C178	C	0.377242	0.825996	0.116360
	C179	C	0.609573	0.822493	0.884807
	C180	C	0.377495	0.882099	0.173420
	C181	C	0.609285	0.118288	0.180770
	C182	C	0.379158	0.122770	0.819322
	C183	C	0.610371	0.879689	0.828757
	C184	C	0.868814	0.177524	0.386823
	C185	C	0.115986	0.171495	0.616001
	C186	C	0.113483	0.818356	0.385675
	C187	C	0.880158	0.820355	0.615244
	C188	C	0.168512	0.382421	0.888313
	C189	C	0.170394	0.614387	0.122548
	C190	C	0.823218	0.381416	0.115432
	C191	C	0.814093	0.613058	0.877952
	C192	C	0.396632	0.093655	0.596913
	C193	C	0.597359	0.902800	0.605590
	C194	C	0.588692	0.093201	0.403191
	C195	C	0.394715	0.902250	0.396121
	C196	C	0.598216	0.397854	0.094193
	C197	C	0.589930	0.600176	0.905547
	C198	C	0.395723	0.602741	0.095804
	C199	C	0.392660	0.400926	0.906185
	C200	C	0.092230	0.594903	0.403706
	C201	C	0.897557	0.597467	0.595606
	C202	C	0.090859	0.397218	0.603711
	C203	C	0.897774	0.401517	0.399667
	C204	C	0.896906	0.592866	0.098565
	C205	C	0.099034	0.402081	0.105825
	C206	C	0.087788	0.593623	0.902401
	C207	C	0.893739	0.401825	0.897367
	C208	C	0.101190	0.892672	0.595538
	C209	C	0.089343	0.097393	0.406563
	C210	C	0.896200	0.099094	0.595507
	C211	C	0.892764	0.898145	0.406043
	C212	C	0.591166	0.097799	0.903549
	C213	C	0.397053	0.100498	0.097495
	C214	C	0.590240	0.900548	0.101760
	C215	C	0.396976	0.903609	0.897822
	Zn216	Zn	0.495760	0.000326	0.751524
	Zn217	Zn	0.493372	-0.000432	0.248958
	Zn218	Zn	0.745589	0.497986	-0.001589
	Zn219	Zn	0.243412	0.500061	0.002644
	Zn220	Zn	-0.003900	0.745777	0.500119
	Zn221	Zn	-0.005979	0.250136	0.501691
	Zn222	Zn	-0.008102	0.497754	0.749285
	Zn223	Zn	-0.004101	0.497454	0.252614
	Zn224	Zn	0.493107	0.752449	0.000328
	Zn225	Zn	0.494769	0.248190	0.000620
	Zn226	Zn	0.743574	-0.002410	0.502381
	Zn227	Zn	0.245769	-0.003604	0.498770
	N228	N	0.409719	0.963057	0.679101
	N229	N	0.584844	0.035366	0.683685
	N230	N	0.580577	0.962519	0.322025
	N231	N	0.404103	0.035172	0.317761
	N232	N	0.671597	0.413596	0.961266
	N233	N	0.673516	0.583814	0.036679
	N234	N	0.311605	0.588347	0.965238
	N235	N	0.320398	0.416790	0.039207
	N236	N	0.958142	0.675103	0.414483
	N237	N	0.032927	0.671406	0.584847
	N238	N	0.956951	0.320192	0.586927
	N239	N	0.031518	0.321029	0.417692
	N240	N	0.956732	0.411345	0.677930
	N241	N	0.029592	0.584196	0.680586
	N242	N	0.959054	0.585529	0.320946
	N243	N	0.032105	0.411425	0.325235
	N244	N	0.405163	0.681275	0.963772
	N245	N	0.580100	0.678417	0.037421
	N246	N	0.582825	0.317200	0.963865
	N247	N	0.409818	0.320679	0.037247
	N248	N	0.667173	0.959297	0.421112
	N249	N	0.673769	0.035498	0.588588
	N250	N	0.323662	0.958743	0.580003
	N251	N	0.313549	0.034760	0.411727
	N252	N	0.909483	0.461216	0.179404
	N253	N	0.084343	0.533885	0.184749
	N254	N	0.078328	0.461165	0.824153
	N255	N	0.901728	0.532945	0.816261
	N256	N	0.173106	0.910471	0.462227
	N257	N	0.172221	0.079634	0.537850
	N258	N	0.813096	0.084215	0.463954
	N259	N	0.819260	0.913212	0.538794
	N260	N	0.456526	0.177033	0.915145
	N261	N	0.532246	0.174711	0.085301
	N262	N	0.456387	0.823920	0.085018
	N263	N	0.530161	0.822311	0.915072
	N264	N	0.456662	0.914191	0.177123
	N265	N	0.529767	0.087152	0.181028
	N266	N	0.458605	0.089082	0.818995
	N267	N	0.531517	0.914707	0.824733
	N268	N	0.904854	0.179445	0.464321
	N269	N	0.080236	0.174968	0.538529
	N270	N	0.083917	0.814758	0.464124
	N271	N	0.910778	0.818336	0.537176
	N272	N	0.168079	0.460731	0.921096
	N273	N	0.172940	0.536537	0.089062
	N274	N	0.821558	0.459370	0.081117
	N275	N	0.815026	0.535442	0.912678
	O276	O	-0.055922	-0.075725	-0.047520
	H277	H	-0.051257	-0.062596	-0.053143
	H278	H	-0.054551	-0.070903	-0.041819
	O279	O	0.427292	0.412635	0.490114
	H280	H	0.428417	0.413687	0.487706
	H281	H	0.434757	0.420911	0.498122
	O282	O	0.398668	0.494418	0.573715
	H283	H	0.392989	0.506551	0.570233
	H284	H	0.394517	0.499658	0.569837
	O285	O	0.013806	1.003289	0.954346
	H286	H	0.022483	1.005036	0.960371
	H287	H	0.012167	1.000748	0.947835
	O288	O	0.630843	0.480964	0.348860
	H289	H	0.638035	0.474615	0.350856
	H290	H	0.643851	0.463065	0.343149
	O291	O	0.954750	0.993097	1.044943
	H292	H	0.949071	0.986349	1.042884
	H293	H	0.949955	0.990232	1.041998
	O294	O	0.940686	0.976787	0.951042
	H295	H	0.944046	0.977015	0.943479
	H296	H	0.925272	0.976257	0.941385
	O297	O	0.962816	0.102115	0.964603
	H298	H	0.966672	0.109335	0.972013
	H299	H	0.973511	0.114863	0.962761
	O300	O	0.546457	0.598470	0.476784
	H301	H	0.549913	0.602919	0.479872
	H302	H	0.548358	0.602641	0.478130
	O303	O	1.024286	0.061861	-0.044198
	H304	H	1.022616	0.042607	-0.045432
	H305	H	1.024161	0.071814	-0.042343
	O306	O	0.101052	0.967913	1.013253
	H307	H	0.112810	0.961243	1.014244
	H308	H	0.102172	0.960189	1.017360
	O309	O	0.488825	0.367708	0.581649
	H310	H	0.490808	0.376289	0.583636
	H311	H	0.471785	0.377919	0.596016
	O312	O	1.390386	0.515798	0.483584
	H313	H	1.391936	0.511721	0.476654
	H314	H	1.400894	0.518265	0.476333
	O315	O	0.407310	0.602739	0.453944
	H316	H	0.414688	0.600577	0.448803
	H317	H	0.422465	0.596537	0.451950
	O318	O	0.607860	0.462799	0.453002
	H319	H	0.609579	0.472003	0.455935
	H320	H	0.610912	0.462313	0.447582
	O321	O	0.988802	1.024153	1.000474
	H322	H	0.989438	1.032578	0.991672
	H323	H	0.986142	1.015977	1.013947
	O324	O	0.559259	0.541605	0.624520
	H325	H	0.561095	0.547986	0.621367
	H326	H	0.549795	0.534429	0.630940
	O327	O	0.454998	0.429280	0.462747
	H328	H	0.439248	0.421770	0.469093
	H329	H	0.455735	0.427818	0.445340
	O330	O	0.917857	0.006934	0.894352
	H331	H	0.918744	0.020100	0.903587
	H332	H	0.911320	0.011044	0.875825
	O333	O	0.996529	0.941990	0.102623
	H334	H	0.990033	0.953820	0.096241
	H335	H	0.997928	0.942789	0.111852
	O336	O	0.539720	0.598940	0.383836
	H337	H	0.550618	0.583904	0.375381
	H338	H	0.525006	0.595934	0.383543
	O339	O	0.560531	0.602647	0.617157
	H340	H	0.566124	0.602526	0.618877
	H341	H	0.568176	0.611306	0.625843
	O342	O	-0.017024	1.033244	0.001023
	H343	H	-0.019072	1.038655	-0.000232
	H344	H	-0.022746	1.038522	-0.008622
	O345	O	0.038012	0.027035	-0.063990
	H346	H	0.044166	0.021554	-0.051484
	H347	H	0.036794	0.026625	-0.064809
	O348	O	0.635038	0.388014	0.493391
	H349	H	0.624453	0.383817	0.518767
	H350	H	0.635642	0.384375	0.494904
	O351	O	0.466834	0.348079	0.518453
	H352	H	0.470327	0.331406	0.514904
	H353	H	0.467444	0.358522	0.515428
	O354	O	0.450028	0.514224	0.429294
	H355	H	0.454121	0.527518	0.420977
	H356	H	0.443939	0.521720	0.424640
	O357	O	0.473415	0.577350	0.603725
	H358	H	0.467297	0.578372	0.595491
	H359	H	0.477497	0.573121	0.596621
	O360	O	-0.037131	0.019750	-0.065858
	H361	H	-0.035229	0.017017	-0.060690
	H362	H	-0.041118	0.016568	-0.067543
	O363	O	0.366451	0.564226	0.465909
	H364	H	0.363996	0.572518	0.467750
	H365	H	0.357205	0.572478	0.460985
	O366	O	0.075444	0.060038	1.103521
	H367	H	0.095048	0.064668	1.107499
	H368	H	0.062662	0.055703	1.097764
	O369	O	0.515396	0.417262	0.499571
	H370	H	0.527184	0.413138	0.501440
	H371	H	0.515936	0.431687	0.508548
