data_Molecule from HDF5

_cell_length_a		16.350205
_cell_length_b		16.518820
_cell_length_c		16.385954
_cell_angle_alpha	89.921634
_cell_angle_beta	90.178706
_cell_angle_gamma	89.940784
_symmetry_space_group_name_H-M	'P 1'
_symmetry_Int_Tables_number		1

loop_
	_symmetry_equiv_pos_as_xyz
	x,y,z

loop_
	_atom_site_label
	_atom_site_type_symbol
	_atom_site_fract_x
	_atom_site_fract_y
	_atom_site_fract_z
	H0	H	0.401935	0.843374	0.724631
	H1	H	0.611732	0.159872	0.727713
	H2	H	0.613432	0.844563	0.281311
	H3	H	0.396650	0.158276	0.280638
	H4	H	0.724489	0.398609	0.844503
	H5	H	0.725767	0.602754	0.165487
	H6	H	0.284371	0.609995	0.847287
	H7	H	0.285754	0.398778	0.163545
	H8	H	0.845716	0.722124	0.393926
	H9	H	0.163668	0.721865	0.607621
	H10	H	0.846715	0.278556	0.611269
	H11	H	0.163270	0.276829	0.397033
	H12	H	0.846298	0.394390	0.726602
	H13	H	0.164170	0.606726	0.724188
	H14	H	0.845737	0.604090	0.280943
	H15	H	0.165883	0.396125	0.284197
	H16	H	0.401600	0.724389	0.847484
	H17	H	0.613753	0.722638	0.164988
	H18	H	0.613483	0.277926	0.846418
	H19	H	0.394226	0.276635	0.159898
	H20	H	0.725529	0.842796	0.400613
	H21	H	0.727956	0.159540	0.610535
	H22	H	0.283487	0.844139	0.611019
	H23	H	0.279550	0.158217	0.396408
	H24	H	0.903440	0.341415	0.222892
	H25	H	0.112719	0.657880	0.227685
	H26	H	0.113543	0.344021	0.781439
	H27	H	0.899901	0.657565	0.781048
	H28	H	0.224160	0.899196	0.344041
	H29	H	0.227884	0.107200	0.663461
	H30	H	0.785661	0.103522	0.345653
	H31	H	0.790489	0.900248	0.664686
	H32	H	0.346093	0.227597	0.892834
	H33	H	0.661469	0.224821	0.110870
	H34	H	0.348163	0.777995	0.113764
	H35	H	0.664005	0.782884	0.901741
	H36	H	0.346532	0.895482	0.226659
	H37	H	0.663658	0.106214	0.224741
	H38	H	0.344559	0.108326	0.781485
	H39	H	0.663868	0.899374	0.786759
	H40	H	0.899736	0.222631	0.346686
	H41	H	0.113573	0.223617	0.662895
	H42	H	0.108747	0.782050	0.342941
	H43	H	0.900069	0.778322	0.660535
	H44	H	0.232199	0.345814	0.895688
	H45	H	0.226134	0.660269	0.109391
	H46	H	0.784953	0.342340	0.107095
	H47	H	0.784136	0.658875	0.899010
	H48	H	0.415955	0.117616	0.600906
	H49	H	0.597654	0.886864	0.602371
	H50	H	0.592168	0.112236	0.417918
	H51	H	0.417023	0.892577	0.424315
	H52	H	0.594613	0.416879	0.115892
	H53	H	0.594744	0.598483	0.889611
	H54	H	0.416045	0.590073	0.118461
	H55	H	0.414708	0.421361	0.891859
	H56	H	0.119393	0.590643	0.412506
	H57	H	0.891487	0.588183	0.590059
	H58	H	0.118983	0.411714	0.593753
	H59	H	0.893639	0.414428	0.414571
	H60	H	0.116806	0.411025	0.589649
	H61	H	0.891552	0.588315	0.592304
	H62	H	0.118894	0.592865	0.416194
	H63	H	0.890362	0.410241	0.411520
	H64	H	0.419892	0.590120	0.118746
	H65	H	0.598698	0.591730	0.890412
	H66	H	0.587981	0.412305	0.115650
	H67	H	0.425384	0.415693	0.894434
	H68	H	0.596886	0.115012	0.416084
	H69	H	0.591270	0.890168	0.595539
	H70	H	0.424509	0.109119	0.589234
	H71	H	0.409380	0.887121	0.414126
	H72	H	0.912014	0.614973	0.093462
	H73	H	0.105523	0.386509	0.089284
	H74	H	0.091886	0.613770	0.911482
	H75	H	0.911701	0.386162	0.911923
	H76	H	0.091282	0.922673	0.613107
	H77	H	0.090115	0.083568	0.395270
	H78	H	0.918266	0.097650	0.620921
	H79	H	0.914125	0.909859	0.388538
	H80	H	0.612766	0.082639	0.919211
	H81	H	0.394156	0.084561	0.088369
	H82	H	0.619748	0.913292	0.095806
	H83	H	0.390714	0.915526	0.916925
	H84	H	0.619090	0.911175	0.093456
	H85	H	0.389477	0.088089	0.096736
	H86	H	0.620161	0.092951	0.908759
	H87	H	0.389905	0.910600	0.914426
	H88	H	0.910663	0.087241	0.620366
	H89	H	0.085512	0.092332	0.393321
	H90	H	0.082917	0.901759	0.615907
	H91	H	0.912601	0.911344	0.387948
	H92	H	0.091884	0.611915	0.917784
	H93	H	0.092677	0.387224	0.102306
	H94	H	0.919695	0.613104	0.096680
	H95	H	0.921250	0.389262	0.912695
	H96	H	0.409184	0.114175	0.586407
	H97	H	0.600425	0.888985	0.593312
	H98	H	0.592402	0.114141	0.412601
	H99	H	0.422462	0.890420	0.411567
	H100	H	0.595190	0.409789	0.118642
	H101	H	0.590833	0.592562	0.893664
	H102	H	0.417809	0.593203	0.120504
	H103	H	0.416773	0.409535	0.888843
	H104	H	0.117993	0.588655	0.416469
	H105	H	0.890968	0.589825	0.590650
	H106	H	0.116827	0.414936	0.592192
	H107	H	0.892800	0.409204	0.416908
	H108	H	0.917501	0.610721	0.088879
	H109	H	0.089495	0.394202	0.085378
	H110	H	0.097532	0.614965	0.915023
	H111	H	0.915477	0.389650	0.921135
	H112	H	0.104490	0.905994	0.622134
	H113	H	0.095322	0.090373	0.390832
	H114	H	0.923314	0.086385	0.615420
	H115	H	0.914435	0.911609	0.389056
	H116	H	0.616630	0.097497	0.924254
	H117	H	0.390605	0.094503	0.088467
	H118	H	0.618633	0.914261	0.093059
	H119	H	0.390881	0.911475	0.919757
	C120	C	0.383686	0.010042	0.625635
	C121	C	0.627821	0.993387	0.628311
	C122	C	0.626382	0.009527	0.383601
	C123	C	0.382691	0.993657	0.383075
	C124	C	0.625255	0.380514	0.011942
	C125	C	0.627616	0.624430	0.996808
	C126	C	0.385059	0.624372	0.014546
	C127	C	0.384323	0.381489	0.995653
	C128	C	0.013602	0.622355	0.381504
	C129	C	0.996586	0.621336	0.623345
	C130	C	0.013348	0.379345	0.625377
	C131	C	0.997410	0.379266	0.382705
	C132	C	0.884396	0.508471	0.125047
	C133	C	0.127772	0.493391	0.125214
	C134	C	0.127819	0.510253	0.881643
	C135	C	0.883752	0.492490	0.882765
	C136	C	0.125236	0.879395	0.511769
	C137	C	0.125436	0.122229	0.496755
	C138	C	0.884152	0.122460	0.513895
	C139	C	0.882982	0.879027	0.493931
	C140	C	0.511952	0.124134	0.882782
	C141	C	0.495607	0.122554	0.124869
	C142	C	0.514566	0.879915	0.127502
	C143	C	0.496114	0.881922	0.885730
	C144	C	0.382473	0.890971	0.685391
	C145	C	0.629584	0.112496	0.687409
	C146	C	0.630037	0.891465	0.322580
	C147	C	0.378778	0.111263	0.321194
	C148	C	0.685238	0.379153	0.892397
	C149	C	0.687054	0.623427	0.117204
	C150	C	0.324508	0.627770	0.895083
	C151	C	0.324482	0.379611	0.115230
	C152	C	0.893479	0.681887	0.377197
	C153	C	0.115791	0.681975	0.625746
	C154	C	0.894166	0.318587	0.629097
	C155	C	0.116505	0.318233	0.380018
	C156	C	0.894257	0.376169	0.686686
	C157	C	0.116294	0.624486	0.683939
	C158	C	0.893684	0.623207	0.320771
	C159	C	0.117601	0.377162	0.323325
	C160	C	0.382747	0.684784	0.895361
	C161	C	0.630736	0.682731	0.117174
	C162	C	0.629687	0.319097	0.893498
	C163	C	0.378693	0.318846	0.113546
	C164	C	0.686020	0.890536	0.382241
	C165	C	0.687674	0.112405	0.629200
	C166	C	0.323422	0.891481	0.628761
	C167	C	0.320275	0.111007	0.378851
	C168	C	0.884022	0.389031	0.183557
	C169	C	0.130567	0.611212	0.186781
	C170	C	0.131440	0.391554	0.821251
	C171	C	0.881369	0.610937	0.821795
	C172	C	0.184527	0.879815	0.391610
	C173	C	0.187556	0.125253	0.615825
	C174	C	0.824724	0.123313	0.393532
	C175	C	0.827369	0.879336	0.615764
	C176	C	0.393364	0.186377	0.876885
	C177	C	0.614216	0.184061	0.128665
	C178	C	0.395369	0.818729	0.131153
	C179	C	0.616256	0.822852	0.883807
	C180	C	0.394606	0.877296	0.187281
	C181	C	0.615342	0.125247	0.185379
	C182	C	0.392512	0.126939	0.821112
	C183	C	0.616033	0.880836	0.826470
	C184	C	0.881333	0.182317	0.394165
	C185	C	0.130894	0.183574	0.615570
	C186	C	0.127133	0.821278	0.391213
	C187	C	0.882032	0.819003	0.613571
	C188	C	0.190518	0.392552	0.878429
	C189	C	0.186963	0.612408	0.127611
	C190	C	0.825166	0.389537	0.125968
	C191	C	0.823738	0.611286	0.880273
	C192	C	0.409274	0.092295	0.599746
	C193	C	0.603431	0.910525	0.604215
	C194	C	0.600975	0.092217	0.408550
	C195	C	0.408980	0.911545	0.409246
	C196	C	0.599715	0.405743	0.094997
	C197	C	0.602175	0.601159	0.913246
	C198	C	0.410511	0.598505	0.097638
	C199	C	0.411312	0.407739	0.912987
	C200	C	0.097003	0.597699	0.407536
	C201	C	0.913036	0.595975	0.598094
	C202	C	0.096089	0.404980	0.599485
	C203	C	0.914068	0.404291	0.407298
	C204	C	0.909504	0.591507	0.100172
	C205	C	0.102963	0.410749	0.099653
	C206	C	0.101424	0.592209	0.907352
	C207	C	0.908940	0.409921	0.907992
	C208	C	0.100129	0.903116	0.595082
	C209	C	0.098195	0.096262	0.414575
	C210	C	0.909827	0.097635	0.597118
	C211	C	0.906757	0.903784	0.410420
	C212	C	0.594885	0.098440	0.909566
	C213	C	0.412870	0.096550	0.098662
	C214	C	0.597467	0.905454	0.101600
	C215	C	0.412232	0.905689	0.910069
	Zn216	Zn	0.504055	0.002222	0.755994
	Zn217	Zn	0.505146	0.001652	0.254380
	Zn218	Zn	0.754340	0.500957	0.004174
	Zn219	Zn	0.256690	0.502819	0.004573
	Zn220	Zn	0.003967	0.750464	0.502193
	Zn221	Zn	0.005642	0.251149	0.505036
	Zn222	Zn	0.005039	0.500747	0.753073
	Zn223	Zn	0.005981	0.500158	0.254176
	Zn224	Zn	0.505893	0.752759	0.006839
	Zn225	Zn	0.503653	0.252064	0.003752
	Zn226	Zn	0.755668	0.001256	0.505063
	Zn227	Zn	0.253583	0.001365	0.505077
	N228	N	0.418967	0.965886	0.683759
	N229	N	0.593301	0.037511	0.687221
	N230	N	0.593165	0.966313	0.323557
	N231	N	0.416691	0.037051	0.323468
	N232	N	0.682500	0.416616	0.967103
	N233	N	0.685295	0.587912	0.041470
	N234	N	0.325704	0.591037	0.970178
	N235	N	0.327996	0.417843	0.040740
	N236	N	0.969086	0.681473	0.414177
	N237	N	0.040199	0.680166	0.588773
	N238	N	0.969167	0.320513	0.591635
	N239	N	0.040811	0.319311	0.416197
	N240	N	0.969498	0.412948	0.684719
	N241	N	0.041130	0.587274	0.682458
	N242	N	0.969483	0.587030	0.323192
	N243	N	0.042677	0.414629	0.325036
	N244	N	0.419438	0.682948	0.970851
	N245	N	0.594728	0.683721	0.041216
	N246	N	0.592829	0.320015	0.968779
	N247	N	0.414790	0.319888	0.037923
	N248	N	0.683783	0.964991	0.419646
	N249	N	0.686849	0.037340	0.593204
	N250	N	0.323814	0.966504	0.592493
	N251	N	0.322388	0.036663	0.416386
	N252	N	0.920038	0.464296	0.183156
	N253	N	0.094620	0.536100	0.185663
	N254	N	0.093145	0.465692	0.823171
	N255	N	0.917991	0.536047	0.823228
	N256	N	0.183924	0.914806	0.467564
	N257	N	0.184581	0.087937	0.541016
	N258	N	0.826043	0.087385	0.469126
	N259	N	0.827713	0.915899	0.540442
	N260	N	0.468593	0.184558	0.914572
	N261	N	0.538733	0.182514	0.091794
	N262	N	0.471016	0.820296	0.094751
	N263	N	0.540597	0.823287	0.920099
	N264	N	0.469677	0.914603	0.185177
	N265	N	0.540416	0.087775	0.183257
	N266	N	0.467342	0.089147	0.824536
	N267	N	0.540445	0.917016	0.827754
	N268	N	0.917090	0.182324	0.470204
	N269	N	0.093134	0.181891	0.540527
	N270	N	0.091245	0.820705	0.466924
	N271	N	0.915352	0.818407	0.536672
	N272	N	0.188806	0.467416	0.915009
	N273	N	0.185387	0.538078	0.090088
	N274	N	0.825461	0.465007	0.090682
	N275	N	0.825308	0.536823	0.917482
	O276	O	0.525489	0.288069	0.288862
	H277	H	0.522714	0.273383	0.281803
	H278	H	0.529811	0.297048	0.277142
	O279	O	0.811098	0.133559	0.816700
	H280	H	0.797662	0.134351	0.846950
	H281	H	0.836317	0.145412	0.806239
	O282	O	0.613099	0.425456	0.516914
	H283	H	0.620895	0.437320	0.530571
	H284	H	0.612942	0.426532	0.528391
	O285	O	0.406347	0.420194	0.385948
	H286	H	0.400069	0.431688	0.386345
	H287	H	0.426998	0.433214	0.387484
	O288	O	0.283481	0.724686	0.477276
	H289	H	0.288103	0.717070	0.431405
	H290	H	0.251244	0.752943	0.466889
	O291	O	0.460526	0.301160	0.446074
	H292	H	0.478819	0.309213	0.450369
	H293	H	0.468523	0.297689	0.437773
	O294	O	0.118484	0.055922	0.809500
	H295	H	0.139302	0.062243	0.798885
	H296	H	0.107164	0.060202	0.804266
	O297	O	0.320059	0.519299	0.306240
	H298	H	0.312509	0.520946	0.284307
	H299	H	0.326364	0.507463	0.333664
	O300	O	0.673406	0.301554	0.512063
	H301	H	0.687160	0.304825	0.519730
	H302	H	0.685970	0.296540	0.512991
	O303	O	0.286340	0.386813	0.509234
	H304	H	0.268927	0.373628	0.501392
	H305	H	0.299259	0.393475	0.502564
	O306	O	0.478661	0.714637	0.293908
	H307	H	0.501032	0.722902	0.309260
	H308	H	0.491037	0.731041	0.277065
	O309	O	0.881494	0.841560	-0.111894
	H310	H	0.895643	0.858734	-0.102748
	H311	H	0.882770	0.845835	-0.110794
	O312	O	0.041794	1.170488	0.943826
	H313	H	0.036411	1.167235	0.966559
	H314	H	0.060335	1.168481	0.944073
	O315	O	0.191748	-0.191479	0.814531
	H316	H	0.192155	-0.197484	0.812337
	H317	H	0.199189	-0.162486	0.831043
	O318	O	1.220765	0.219522	0.026175
	H319	H	1.258398	0.253279	0.032511
	H320	H	1.213371	0.200701	0.054612
	O321	O	-0.192911	0.188591	-0.034399
	H322	H	-0.200115	0.188480	-0.028510
	H323	H	-0.191702	0.173020	-0.036263
	O324	O	0.319406	0.541883	0.555762
	H325	H	0.325497	0.556786	0.564920
	H326	H	0.324107	0.526662	0.555511
	O327	O	0.548474	0.555259	0.426046
	H328	H	0.543499	0.545647	0.433715
	H329	H	0.556357	0.549778	0.425585
	O330	O	0.188824	1.002645	0.015321
	H331	H	0.196372	0.991527	0.026393
	H332	H	0.186023	1.034666	0.003137
	O333	O	0.714107	0.527665	0.706245
	H334	H	0.705628	0.536482	0.706868
	H335	H	0.725247	0.537188	0.727597
	O336	O	0.162838	0.102723	0.202347
	H337	H	0.164351	0.092546	0.218438
	H338	H	0.157788	0.081006	0.201287
	O339	O	-0.018307	0.789790	1.210021
	H340	H	-0.016628	0.765436	1.230439
	H341	H	-0.028803	0.783192	1.189532
	O342	O	0.087532	0.971616	1.061410
	H343	H	0.082602	0.970582	1.059361
	H344	H	0.097548	0.963959	1.059115
	O345	O	0.831862	0.978662	-0.150807
	H346	H	0.806000	0.985681	-0.175212
	H347	H	0.838965	1.008755	-0.144462
	O348	O	0.612027	0.582892	0.447436
	H349	H	0.612627	0.584404	0.476262
	H350	H	0.631992	0.584425	0.457366
	O351	O	0.096423	1.155910	1.205992
	H352	H	0.097305	1.143869	1.201731
	H353	H	0.110230	1.159230	1.207941
	O354	O	0.112014	0.990123	0.161578
	H355	H	0.106595	0.984600	0.145547
	H356	H	0.134136	0.968660	0.175544
	O357	O	-0.112916	0.159601	1.185750
	H358	H	-0.104365	0.153466	1.173208
	H359	H	-0.133454	0.171289	1.202645
	O360	O	0.479482	0.699332	0.626318
	H361	H	0.468848	0.686177	0.624826
	H362	H	0.466438	0.708152	0.628689
	O363	O	-0.704320	0.492776	0.693200
	H364	H	-0.711776	0.491044	0.714325
	H365	H	-0.713345	0.479354	0.693437
	O366	O	0.032821	0.979979	-0.082800
	H367	H	0.022498	0.982574	-0.094553
	H368	H	0.032667	0.988582	-0.086133
	O369	O	0.714728	0.713416	0.616704
	H370	H	0.748965	0.748076	0.633629
	H371	H	0.682663	0.708176	0.637601
	O372	O	1.180336	0.048300	0.851508
	H373	H	1.186668	0.044813	0.851098
	H374	H	1.177450	0.045766	0.839953
	O375	O	0.707857	0.473753	0.304292
	H376	H	0.711478	0.474150	0.309762
	H377	H	0.701056	0.474026	0.291606
	O378	O	0.901504	0.817024	0.915054
	H379	H	0.905458	0.829692	0.922982
	H380	H	0.906467	0.813529	0.918033
	O381	O	0.702148	0.305682	0.306150
	H382	H	0.668148	0.305917	0.313131
	H383	H	0.706659	0.325402	0.331067
	O384	O	0.801507	-0.209276	0.026115
	H385	H	0.798060	-0.212992	0.031441
	H386	H	0.792919	-0.212036	0.032940
	O387	O	-0.044559	0.184591	0.797876
	H388	H	-0.044903	0.203900	0.791150
	H389	H	-0.023865	0.187210	0.802715
	O390	O	0.061213	-0.035101	0.095879
	H391	H	0.065068	-0.038122	0.074244
	H392	H	0.068255	-0.035966	0.108708
	O393	O	1.086524	0.790394	1.002500
	H394	H	1.099000	0.777736	1.006627
	H395	H	1.081124	0.797720	0.994128
	O396	O	0.957120	0.117695	0.059293
	H397	H	0.956966	0.123835	0.081125
	H398	H	0.954270	0.117968	0.067850
	O399	O	0.314776	0.686746	0.315578
	H400	H	0.319671	0.654136	0.305627
	H401	H	0.355394	0.683911	0.305609
	O402	O	1.055831	1.006380	0.937036
	H403	H	1.033037	1.027692	0.941123
	H404	H	1.059896	1.012330	0.945678
	O405	O	0.477064	1.522148	0.582170
	H406	H	0.477006	1.521337	0.592752
	H407	H	0.471537	1.525944	0.583306
	O408	O	1.819961	-0.180745	-0.814627
	H409	H	1.825639	-0.173559	-0.838001
	H410	H	1.827364	-0.158183	-0.805917
	O411	O	1.510806	1.612338	0.418597
	H412	H	1.515655	1.627224	0.419142
	H413	H	1.490030	1.625862	0.423448
	O414	O	0.685121	0.353131	0.569982
	H415	H	0.695019	0.354095	0.559381
	H416	H	0.687059	0.367418	0.565189
	O417	O	-0.193720	0.026601	0.143625
	H418	H	-0.198703	0.038692	0.145443
	H419	H	-0.188737	0.030189	0.140763
	O420	O	0.514713	0.476791	0.623854
	H421	H	0.510364	0.467438	0.611114
	H422	H	0.499448	0.491873	0.637532
	O423	O	0.462511	0.365487	0.699116
	H424	H	0.464456	0.370775	0.694636
	H425	H	0.472256	0.357309	0.718559
	O426	O	0.479023	0.444591	0.720673
	H427	H	0.451916	0.437008	0.717592
	H428	H	0.464930	0.421511	0.729395
	O429	O	0.558268	0.719093	0.443881
	H430	H	0.585293	0.721860	0.455867
	H431	H	0.552894	0.718495	0.466137
	O432	O	0.410474	0.363972	0.514831
	H433	H	0.407189	0.358551	0.507902
	H434	H	0.416891	0.376621	0.510488
	O435	O	-0.049310	0.142052	1.192546
	H436	H	-0.034966	0.160561	1.193482
	H437	H	-0.053002	0.127036	1.196484
	O438	O	-0.425191	-0.296463	-0.298398
	H439	H	-0.425288	-0.307941	-0.287538
	H440	H	-0.431657	-0.303706	-0.298657
	O441	O	1.212875	-0.147451	-0.018552
	H442	H	1.210760	-0.144153	-0.034652
	H443	H	1.214348	-0.161231	-0.019710
	O444	O	0.051092	0.824205	0.801372
	H445	H	0.066667	0.825632	0.793690
	H446	H	0.051689	0.831711	0.804840
	O447	O	0.805183	0.028722	1.022397
	H448	H	0.809142	0.016672	1.015849
	H449	H	0.803505	0.026438	1.026710
	O450	O	0.324571	0.324728	0.680459
	H451	H	0.345911	0.331329	0.678721
	H452	H	0.312384	0.323629	0.637907
	O453	O	0.678386	0.524305	0.495496
	H454	H	0.687574	0.528807	0.499872
	H455	H	0.667185	0.528823	0.488864
