data_Molecule from HDF5

_cell_length_a		16.531688
_cell_length_b		16.425834
_cell_length_c		16.470031
_cell_angle_alpha	90.057971
_cell_angle_beta	89.851450
_cell_angle_gamma	89.959550
_symmetry_space_group_name_H-M	'P 1'
_symmetry_Int_Tables_number		1

loop_
	_symmetry_equiv_pos_as_xyz
	x,y,z

loop_
	_atom_site_label
	_atom_site_type_symbol
	_atom_site_fract_x
	_atom_site_fract_y
	_atom_site_fract_z
	H0	H	0.416089	0.834444	0.701883
	H1	H	0.623069	0.151320	0.707991
	H2	H	0.620778	0.834687	0.264362
	H3	H	0.415802	0.153595	0.268139
	H4	H	0.735135	0.390051	0.826465
	H5	H	0.736311	0.599719	0.143777
	H6	H	0.298766	0.595195	0.824767
	H7	H	0.294948	0.391028	0.142121
	H8	H	0.859101	0.716581	0.379181
	H9	H	0.174157	0.712149	0.586705
	H10	H	0.856633	0.273963	0.588429
	H11	H	0.174722	0.277037	0.385138
	H12	H	0.856488	0.390209	0.704361
	H13	H	0.172806	0.597682	0.705124
	H14	H	0.859163	0.601342	0.261190
	H15	H	0.173661	0.393081	0.265676
	H16	H	0.414517	0.712838	0.825734
	H17	H	0.617456	0.712841	0.145079
	H18	H	0.620659	0.272933	0.827400
	H19	H	0.413184	0.275668	0.143728
	H20	H	0.738342	0.834912	0.379123
	H21	H	0.738542	0.151497	0.591439
	H22	H	0.298282	0.834633	0.587134
	H23	H	0.299060	0.153698	0.384964
	H24	H	0.912529	0.334073	0.202921
	H25	H	0.117320	0.652704	0.203285
	H26	H	0.114598	0.333434	0.768654
	H27	H	0.912641	0.652420	0.765412
	H28	H	0.238975	0.888876	0.326684
	H29	H	0.233296	0.097160	0.644386
	H30	H	0.795414	0.098756	0.326521
	H31	H	0.795180	0.887842	0.641036
	H32	H	0.360230	0.215835	0.880209
	H33	H	0.673023	0.216679	0.091957
	H34	H	0.356725	0.774869	0.089854
	H35	H	0.673935	0.773662	0.882585
	H36	H	0.357857	0.889527	0.207294
	H37	H	0.673890	0.099383	0.207504
	H38	H	0.360082	0.099855	0.764134
	H39	H	0.673410	0.888797	0.764062
	H40	H	0.912407	0.214241	0.326450
	H41	H	0.114179	0.210759	0.645075
	H42	H	0.121729	0.772927	0.325172
	H43	H	0.914261	0.774776	0.642441
	H44	H	0.235103	0.335775	0.880543
	H45	H	0.234739	0.652778	0.088252
	H46	H	0.794351	0.335190	0.089132
	H47	H	0.794460	0.652342	0.881186
	H48	H	0.425442	0.109199	0.577666
	H49	H	0.607425	0.879758	0.573435
	H50	H	0.611392	0.108268	0.396351
	H51	H	0.421017	0.880370	0.400835
	H52	H	0.610599	0.401801	0.101335
	H53	H	0.601437	0.588569	0.872146
	H54	H	0.417585	0.580004	0.099461
	H55	H	0.423862	0.410968	0.872920
	H56	H	0.125695	0.577657	0.396599
	H57	H	0.902601	0.582881	0.573915
	H58	H	0.129206	0.401028	0.577559
	H59	H	0.902587	0.404809	0.396516
	H60	H	0.127559	0.401652	0.575671
	H61	H	0.903587	0.582823	0.573725
	H62	H	0.129933	0.581720	0.388572
	H63	H	0.900876	0.405378	0.391088
	H64	H	0.429494	0.581569	0.095386
	H65	H	0.610945	0.583180	0.871112
	H66	H	0.606341	0.413254	0.095485
	H67	H	0.433504	0.403158	0.872722
	H68	H	0.600243	0.105505	0.392794
	H69	H	0.603815	0.880796	0.575289
	H70	H	0.425159	0.108632	0.574896
	H71	H	0.426004	0.877465	0.389077
	H72	H	0.922643	0.605142	0.066301
	H73	H	0.104505	0.381815	0.070457
	H74	H	0.103004	0.606682	0.896347
	H75	H	0.922278	0.381961	0.903697
	H76	H	0.112119	0.906834	0.597724
	H77	H	0.102118	0.076835	0.375997
	H78	H	0.939020	0.088007	0.594741
	H79	H	0.931208	0.908690	0.372738
	H80	H	0.628184	0.085074	0.900991
	H81	H	0.401126	0.088985	0.080961
	H82	H	0.624721	0.908963	0.069268
	H83	H	0.400522	0.899034	0.891142
	H84	H	0.629450	0.907597	0.082699
	H85	H	0.406046	0.085691	0.068019
	H86	H	0.627541	0.076765	0.897642
	H87	H	0.404685	0.902966	0.900119
	H88	H	0.916136	0.091705	0.604093
	H89	H	0.103337	0.095267	0.369291
	H90	H	0.101591	0.904787	0.595128
	H91	H	0.929498	0.903662	0.370958
	H92	H	0.109032	0.608931	0.896351
	H93	H	0.109194	0.379124	0.072962
	H94	H	0.922278	0.609806	0.078231
	H95	H	0.916930	0.376155	0.889729
	H96	H	0.423189	0.109087	0.576359
	H97	H	0.604686	0.882394	0.571332
	H98	H	0.604162	0.103252	0.403962
	H99	H	0.433557	0.883103	0.398045
	H100	H	0.597983	0.403093	0.097075
	H101	H	0.601890	0.577967	0.874569
	H102	H	0.423228	0.590930	0.100801
	H103	H	0.422547	0.399095	0.868180
	H104	H	0.128290	0.587306	0.396843
	H105	H	0.902739	0.582604	0.573973
	H106	H	0.128369	0.403416	0.577341
	H107	H	0.901160	0.400293	0.393750
	H108	H	0.933029	0.604297	0.073881
	H109	H	0.103892	0.380136	0.076284
	H110	H	0.105254	0.608993	0.890990
	H111	H	0.932330	0.380624	0.890749
	H112	H	0.107276	0.896692	0.599422
	H113	H	0.119020	0.083388	0.368395
	H114	H	0.922299	0.069300	0.594108
	H115	H	0.926594	0.907480	0.371400
	H116	H	0.630687	0.083347	0.892721
	H117	H	0.405845	0.075649	0.078243
	H118	H	0.630024	0.896194	0.073471
	H119	H	0.403561	0.909397	0.891394
	C120	C	0.394280	0.003234	0.607204
	C121	C	0.637674	0.985549	0.605830
	C122	C	0.637899	0.001643	0.364090
	C123	C	0.395629	0.985477	0.364927
	C124	C	0.636887	0.373260	-0.006098
	C125	C	0.636225	0.615184	0.977352
	C126	C	0.393332	0.615329	-0.006490
	C127	C	0.394830	0.373001	0.976036
	C128	C	0.024351	0.615491	0.361797
	C129	C	1.007418	0.614295	0.605268
	C130	C	0.023560	0.371575	0.607198
	C131	C	1.006778	0.372792	0.363686
	C132	C	0.894040	0.501796	0.105291
	C133	C	0.136759	0.485385	0.104688
	C134	C	0.136089	0.502760	0.863519
	C135	C	0.892944	0.485041	0.863408
	C136	C	0.138691	0.871646	0.492551
	C137	C	0.137057	0.115098	0.476864
	C138	C	0.893875	0.115728	0.493341
	C139	C	0.896603	0.873676	0.475560
	C140	C	0.525508	0.114805	0.864299
	C141	C	0.508522	0.115637	0.107652
	C142	C	0.523645	0.872764	0.106938
	C143	C	0.507685	0.872345	0.863824
	C144	C	0.395462	0.882475	0.663901
	C145	C	0.640716	0.104112	0.667115
	C146	C	0.639630	0.882271	0.304011
	C147	C	0.395909	0.105748	0.306969
	C148	C	0.695752	0.371320	0.874203
	C149	C	0.696050	0.617667	0.096313
	C150	C	0.336981	0.615215	0.872817
	C151	C	0.334801	0.371753	0.094924
	C152	C	0.906170	0.676487	0.360123
	C153	C	0.126347	0.673024	0.606075
	C154	C	0.903971	0.313553	0.607067
	C155	C	0.126945	0.315797	0.364700
	C156	C	0.903855	0.371395	0.664893
	C157	C	0.125752	0.615969	0.665041
	C158	C	0.906111	0.619172	0.301610
	C159	C	0.126711	0.373162	0.305562
	C160	C	0.394564	0.673278	0.873141
	C161	C	0.636782	0.673991	0.097173
	C162	C	0.638826	0.312946	0.874909
	C163	C	0.393302	0.314286	0.095546
	C164	C	0.698377	0.882559	0.360779
	C165	C	0.697903	0.104266	0.608733
	C166	C	0.337161	0.882817	0.606642
	C167	C	0.338115	0.105821	0.365160
	C168	C	0.893003	0.382193	0.164213
	C169	C	0.136890	0.604924	0.163949
	C170	C	0.134991	0.381861	0.806782
	C171	C	0.892903	0.604897	0.804933
	C172	C	0.198443	0.870850	0.373691
	C173	C	0.194030	0.115639	0.596832
	C174	C	0.835086	0.117160	0.374013
	C175	C	0.835908	0.870271	0.594157
	C176	C	0.407423	0.175494	0.861975
	C177	C	0.626228	0.176567	0.110295
	C178	C	0.404574	0.814087	0.108535
	C179	C	0.626509	0.813122	0.863293
	C180	C	0.405197	0.871062	0.167350
	C181	C	0.626516	0.118144	0.167839
	C182	C	0.407378	0.118063	0.803916
	C183	C	0.626393	0.870285	0.804319
	C184	C	0.893056	0.174790	0.374115
	C185	C	0.134978	0.172227	0.597083
	C186	C	0.140546	0.812729	0.373097
	C187	C	0.894959	0.813927	0.594769
	C188	C	0.194845	0.382990	0.862300
	C189	C	0.195121	0.605079	0.106401
	C190	C	0.834338	0.382823	0.107414
	C191	C	0.834179	0.604759	0.862090
	C192	C	0.417866	0.087006	0.583440
	C193	C	0.612600	0.902572	0.580540
	C194	C	0.612617	0.084260	0.390244
	C195	C	0.419775	0.901983	0.389006
	C196	C	0.612022	0.398637	0.076485
	C197	C	0.611829	0.590399	0.894450
	C198	C	0.416635	0.591210	0.076802
	C199	C	0.419554	0.397398	0.892957
	C200	C	0.106413	0.589552	0.386709
	C201	C	0.924451	0.589917	0.580895
	C202	C	0.106747	0.395297	0.583635
	C203	C	0.923443	0.396577	0.386987
	C204	C	0.918927	0.584916	0.080125
	C205	C	0.112647	0.401947	0.080145
	C206	C	0.112451	0.586525	0.887468
	C207	C	0.916772	0.401400	0.887642
	C208	C	0.113921	0.895776	0.575731
	C209	C	0.114612	0.091941	0.392864
	C210	C	0.918617	0.090249	0.576117
	C211	C	0.921885	0.899233	0.393113
	C212	C	0.607553	0.089013	0.889690
	C213	C	0.425777	0.090528	0.082749
	C214	C	0.606500	0.897223	0.082038
	C215	C	0.424625	0.896850	0.887607
	Zn216	Zn	0.516651	-0.006039	0.734488
	Zn217	Zn	0.516697	-0.006195	0.235963
	Zn218	Zn	0.765171	0.494024	-0.014679
	Zn219	Zn	0.265330	0.493881	-0.016288
	Zn220	Zn	0.016187	0.743800	0.483766
	Zn221	Zn	0.015484	0.243757	0.485271
	Zn222	Zn	0.014775	0.493767	0.735250
	Zn223	Zn	0.015098	0.493487	0.233691
	Zn224	Zn	0.514592	0.743628	-0.014278
	Zn225	Zn	0.516587	0.243955	-0.014372
	Zn226	Zn	0.766496	-0.006493	0.484681
	Zn227	Zn	0.266173	-0.005556	0.485515
	N228	N	0.430148	0.958541	0.664578
	N229	N	0.603883	0.029273	0.665409
	N230	N	0.603164	0.957341	0.305603
	N231	N	0.430747	0.029791	0.306591
	N232	N	0.694857	0.408052	0.949154
	N233	N	0.696039	0.581933	0.020850
	N234	N	0.335944	0.580300	0.948533
	N235	N	0.335615	0.407258	0.019537
	N236	N	0.980573	0.674289	0.396874
	N237	N	0.051681	0.672157	0.569563
	N238	N	0.979303	0.313519	0.572049
	N239	N	0.051278	0.315150	0.399480
	N240	N	0.979180	0.406838	0.665176
	N241	N	0.050726	0.580215	0.664686
	N242	N	0.980556	0.582081	0.302416
	N243	N	0.050858	0.407353	0.304512
	N244	N	0.428413	0.673962	0.949254
	N245	N	0.600601	0.672939	0.022052
	N246	N	0.602838	0.314104	0.950278
	N247	N	0.429704	0.314649	0.020468
	N248	N	0.697505	0.957778	0.397306
	N249	N	0.696254	0.029437	0.571401
	N250	N	0.336105	0.959121	0.572611
	N251	N	0.337702	0.029942	0.400003
	N252	N	0.929295	0.457364	0.163235
	N253	N	0.100992	0.529579	0.162832
	N254	N	0.099352	0.457421	0.807134
	N255	N	0.928439	0.529376	0.805615
	N256	N	0.197852	0.906272	0.449239
	N257	N	0.195332	0.080809	0.521098
	N258	N	0.835341	0.081332	0.449390
	N259	N	0.836657	0.906605	0.519095
	N260	N	0.481905	0.173743	0.898734
	N261	N	0.551769	0.174886	0.073426
	N262	N	0.479281	0.814957	0.071937
	N263	N	0.551717	0.814312	0.899512
	N264	N	0.480347	0.906925	0.166479
	N265	N	0.552081	0.081107	0.166318
	N266	N	0.481933	0.081111	0.805000
	N267	N	0.551350	0.906264	0.804391
	N268	N	0.928674	0.174031	0.449356
	N269	N	0.100206	0.172101	0.521453
	N270	N	0.103899	0.813275	0.448019
	N271	N	0.931689	0.815686	0.520001
	N272	N	0.195977	0.459274	0.896461
	N273	N	0.195096	0.529631	0.070228
	N274	N	0.834937	0.458364	0.071711
	N275	N	0.834097	0.529150	0.897432
	O276	O	0.562330	0.568650	0.684781
	H277	H	0.541017	0.570305	0.674568
	H278	H	0.557564	0.557389	0.694319
	O279	O	0.791438	1.277231	1.261697
	H280	H	0.789065	1.276133	1.260749
	H281	H	0.780207	1.265582	1.247959
	O282	O	0.821606	0.808123	0.174382
	H283	H	0.816148	0.810520	0.178501
	H284	H	0.849664	0.823412	0.181869
	O285	O	0.217230	-0.209118	0.781595
	H286	H	0.215870	-0.226274	0.776394
	H287	H	0.196645	-0.204638	0.771201
	O288	O	-0.103121	-0.116286	0.185449
	H289	H	-0.096243	-0.114753	0.207618
	H290	H	-0.079137	-0.112391	0.169548
	O291	O	0.892697	0.781006	-0.027286
	H292	H	0.896726	0.790236	-0.019785
	H293	H	0.872480	0.771615	-0.018904
	O294	O	0.561475	0.473018	-0.481855
	H295	H	0.565620	0.466651	-0.478404
	H296	H	0.575628	0.482275	-0.477281
	O297	O	0.398396	0.544031	0.476117
	H298	H	0.398855	0.541462	0.480092
	H299	H	0.400915	0.544126	0.476686
	O300	O	0.576816	0.701039	0.501900
	H301	H	0.582107	0.715340	0.505565
	H302	H	0.574377	0.696634	0.494641
	O303	O	1.005560	0.034735	0.002166
	H304	H	1.008732	0.020031	0.025450
	H305	H	1.004986	0.020345	-0.002234
	O306	O	0.007830	1.058151	1.095983
	H307	H	0.007773	1.037707	1.103685
	H308	H	0.027474	1.064084	1.093981
	O309	O	0.544452	0.589534	0.311596
	H310	H	0.536655	0.585915	0.318580
	H311	H	0.552967	0.609787	0.306365
	O312	O	0.724756	0.513798	0.468912
	H313	H	0.731064	0.518321	0.464862
	H314	H	0.730081	0.522605	0.476254
	O315	O	0.333142	-0.418973	1.311248
	H316	H	0.337212	-0.422346	1.301682
	H317	H	0.332922	-0.448333	1.318347
	O318	O	-0.835585	0.111356	-0.172426
	H319	H	-0.829742	0.117854	-0.170045
	H320	H	-0.833071	0.096221	-0.159513
	O321	O	0.841066	0.183555	0.987683
	H322	H	0.842528	0.181095	0.978967
	H323	H	0.847620	0.165383	0.991705
	O324	O	0.719683	0.432449	0.277729
	H325	H	0.733877	0.430816	0.260602
	H326	H	0.728660	0.418834	0.286931
	O327	O	0.856534	0.108015	0.862088
	H328	H	0.840334	0.122778	0.858233
	H329	H	0.849960	0.112839	0.868346
	O330	O	-0.006562	0.125858	-0.008101
	H331	H	-0.016471	0.124809	0.009996
	H332	H	-0.006863	0.132559	0.000894
	O333	O	0.822414	1.127635	0.791136
	H334	H	0.815775	1.132966	0.795647
	H335	H	0.835710	1.127345	0.806348
	O336	O	1.232211	-0.220124	0.952547
	H337	H	1.245680	-0.232030	0.925709
	H338	H	1.248500	-0.218428	0.947871
	O339	O	0.330400	0.562592	0.584990
	H340	H	0.337549	0.553791	0.573036
	H341	H	0.336131	0.559156	0.592556
	O342	O	0.445686	0.673587	0.417190
	H343	H	0.429925	0.662097	0.409271
	H344	H	0.449575	0.678329	0.405252
	O345	O	0.121561	-0.050682	0.001555
	H346	H	0.120666	-0.061808	0.007541
	H347	H	0.113612	-0.057921	0.002475
	O348	O	0.729393	0.279877	0.457172
	H349	H	0.752028	0.266634	0.437981
	H350	H	0.739324	0.285320	0.462340
	O351	O	1.027400	1.207357	0.188021
	H352	H	1.024262	1.217574	0.201546
	H353	H	1.053777	1.212150	0.184891
	O354	O	0.578297	0.374542	0.508344
	H355	H	0.578886	0.377450	0.515335
	H356	H	0.588452	0.369015	0.519723
	O357	O	1.030693	0.826388	1.095106
	H358	H	1.037704	0.823373	1.100442
	H359	H	1.028780	0.826573	1.094194
	O360	O	0.160770	0.848300	1.088544
	H361	H	0.177962	0.843632	1.084396
	H362	H	0.148221	0.839912	1.067305
	O363	O	0.625967	0.505885	0.508108
	H364	H	0.631715	0.513280	0.517066
	H365	H	0.634666	0.502393	0.485840
	O366	O	1.004060	-0.162833	0.860275
	H367	H	1.000405	-0.170619	0.855529
	H368	H	1.000817	-0.148015	0.869084
	O369	O	0.540704	0.300358	0.283278
	H370	H	0.556098	0.300660	0.282778
	H371	H	0.531945	0.304646	0.277124
	O372	O	0.237137	-0.040047	0.766555
	H373	H	0.259329	-0.045982	0.747900
	H374	H	0.235099	-0.063412	0.762051
	O375	O	-0.169541	0.809703	0.796643
	H376	H	-0.156240	0.841644	0.802232
	H377	H	-0.147828	0.817424	0.823912
	O378	O	1.230282	1.206854	0.013595
	H379	H	1.250401	1.219853	0.023158
	H380	H	1.234146	1.190837	0.004989
	O381	O	1.564697	-0.539082	0.695476
	H382	H	1.561443	-0.517531	0.692536
	H383	H	1.569311	-0.528020	0.691729
	O384	O	0.145991	0.180856	0.855960
	H385	H	0.157638	0.161418	0.864374
	H386	H	0.148732	0.196840	0.850410
	O387	O	-0.603232	1.391729	1.457631
	H388	H	-0.599623	1.387303	1.463374
	H389	H	-0.603568	1.381200	1.450386
	O390	O	0.396874	0.514024	1.403404
	H391	H	0.398982	0.510042	1.404054
	H392	H	0.410461	0.504530	1.413263
	O393	O	-0.069128	1.130331	0.090079
	H394	H	-0.064521	1.147830	0.074045
	H395	H	-0.051566	1.113514	0.094749
	O396	O	0.728842	0.600814	0.624947
	H397	H	0.754918	0.606387	0.648164
	H398	H	0.716557	0.596383	0.637701
	O399	O	0.324250	0.683121	0.669259
	H400	H	0.349682	0.672317	0.655725
	H401	H	0.324218	0.679679	0.661219
	O402	O	0.226600	0.200401	1.190069
	H403	H	0.220874	0.203940	1.205587
	H404	H	0.241454	0.215503	1.173065
	O405	O	0.586000	0.605355	-0.439477
	H406	H	0.602084	0.606565	-0.430394
	H407	H	0.590774	0.618113	-0.437172
	O408	O	0.801147	1.071505	1.076923
	H409	H	0.821808	1.064530	1.074114
	H410	H	0.779266	1.053937	1.102882
	O411	O	0.317621	0.303641	0.590868
	H412	H	0.312885	0.305213	0.608578
	H413	H	0.317003	0.289830	0.602071
	O414	O	0.330609	0.311933	0.298798
	H415	H	0.334535	0.319810	0.320255
	H416	H	0.356152	0.327330	0.301118
	O417	O	0.618243	0.699587	0.665896
	H418	H	0.603726	0.713831	0.662192
	H419	H	0.644849	0.719265	0.682179
	O420	O	0.384329	0.286577	0.693764
	H421	H	0.399865	0.277512	0.687619
	H422	H	0.387850	0.289269	0.698738
	O423	O	-0.072522	0.951154	-0.001660
	H424	H	-0.071313	0.946356	-0.006469
	H425	H	-0.049312	0.952796	0.015519
	O426	O	1.015519	0.976963	0.834759
	H427	H	1.007536	0.990355	0.832230
	H428	H	1.013796	0.976790	0.840706
	O429	O	0.565548	0.355924	0.566799
	H430	H	0.579255	0.357266	0.581941
	H431	H	0.567069	0.356978	0.582182
	O432	O	0.112092	-0.136934	0.863861
	H433	H	0.105926	-0.128203	0.880605
	H434	H	0.108992	-0.138189	0.860734
	O435	O	0.098862	-0.069489	0.199581
	H436	H	0.108448	-0.077731	0.204265
	H437	H	0.126641	-0.070657	0.198405
	O438	O	0.800420	-0.115066	0.010836
	H439	H	0.787693	-0.127894	0.007365
	H440	H	0.806375	-0.121219	0.039800
	O441	O	0.355196	0.593714	0.280678
	H442	H	0.370031	0.563337	0.280581
	H443	H	0.365765	0.595762	0.307547
	O444	O	0.236094	1.030184	1.200959
	H445	H	0.264875	1.038289	1.225832
	H446	H	0.235652	1.046556	1.188269
	O447	O	0.542891	0.295160	0.647894
	H448	H	0.534908	0.287053	0.629599
	H449	H	0.558044	0.304861	0.648865
	O450	O	0.574604	0.677472	0.318060
	H451	H	0.575303	0.686368	0.316185
	H452	H	0.566480	0.682919	0.326987
	O453	O	-0.052042	0.930177	-0.147543
	H454	H	-0.037653	0.935079	-0.144689
	H455	H	-0.060022	0.941692	-0.157505
	O456	O	0.051021	1.135640	-0.153170
	H457	H	0.047100	1.136087	-0.135183
	H458	H	0.075257	1.133029	-0.159693
	O459	O	0.475035	0.380438	0.344073
	H460	H	0.481793	0.387456	0.349940
	H461	H	0.480111	0.385962	0.347761
	O462	O	0.659236	0.689001	0.557988
	H463	H	0.669910	0.669661	0.553040
	H464	H	0.683137	0.704378	0.577425
	O465	O	0.305914	0.452063	0.689190
	H466	H	0.306453	0.437480	0.697620
	H467	H	0.297168	0.465298	0.697274
