data_Molecule from HDF5

_cell_length_a		16.214065
_cell_length_b		16.318432
_cell_length_c		16.216460
_cell_angle_alpha	90.000735
_cell_angle_beta	90.123765
_cell_angle_gamma	90.044076
_symmetry_space_group_name_H-M	'P 1'
_symmetry_Int_Tables_number		1

loop_
	_symmetry_equiv_pos_as_xyz
	x,y,z

loop_
	_atom_site_label
	_atom_site_type_symbol
	_atom_site_fract_x
	_atom_site_fract_y
	_atom_site_fract_z
	H0	H	0.394972	0.832403	0.712547
	H1	H	0.591653	0.159849	0.711364
	H2	H	0.590875	0.832213	0.283110
	H3	H	0.395412	0.159584	0.283523
	H4	H	0.704815	0.400134	0.831878
	H5	H	0.707650	0.593946	0.161659
	H6	H	0.280501	0.594001	0.831999
	H7	H	0.281556	0.399759	0.161539
	H8	H	0.830240	0.710605	0.396030
	H9	H	0.157655	0.710019	0.594966
	H10	H	0.829737	0.280955	0.594895
	H11	H	0.157715	0.282184	0.397261
	H12	H	0.829041	0.397788	0.708808
	H13	H	0.157803	0.594275	0.710443
	H14	H	0.829065	0.592088	0.283604
	H15	H	0.158257	0.399090	0.284004
	H16	H	0.393730	0.711210	0.833396
	H17	H	0.593391	0.710882	0.161512
	H18	H	0.593004	0.281402	0.832744
	H19	H	0.395001	0.281946	0.160578
	H20	H	0.707013	0.832103	0.400048
	H21	H	0.708061	0.159226	0.595740
	H22	H	0.278787	0.831960	0.596583
	H23	H	0.279403	0.159183	0.399961
	H24	H	0.895815	0.331701	0.209957
	H25	H	0.092617	0.658305	0.211142
	H26	H	0.091021	0.331798	0.782792
	H27	H	0.893841	0.659773	0.780920
	H28	H	0.205848	0.899581	0.332239
	H29	H	0.206654	0.092625	0.661792
	H30	H	0.779788	0.093423	0.332835
	H31	H	0.781076	0.898032	0.662618
	H32	H	0.330209	0.210194	0.898167
	H33	H	0.657793	0.210077	0.096102
	H34	H	0.329566	0.781769	0.096978
	H35	H	0.657222	0.780901	0.898268
	H36	H	0.328563	0.899645	0.209691
	H37	H	0.658102	0.092885	0.210780
	H38	H	0.328971	0.093318	0.784167
	H39	H	0.658129	0.898418	0.785122
	H40	H	0.896112	0.209179	0.332545
	H41	H	0.092814	0.209906	0.661071
	H42	H	0.093457	0.780988	0.333109
	H43	H	0.895786	0.780733	0.660836
	H44	H	0.208586	0.332600	0.897947
	H45	H	0.207376	0.659121	0.094013
	H46	H	0.780437	0.331770	0.093155
	H47	H	0.778226	0.659044	0.898468
	H48	H	0.396000	0.112661	0.590845
	H49	H	0.585358	0.879270	0.592839
	H50	H	0.592545	0.112992	0.406405
	H51	H	0.396841	0.880184	0.411211
	H52	H	0.576320	0.408364	0.109308
	H53	H	0.586983	0.578459	0.883503
	H54	H	0.389918	0.586022	0.116094
	H55	H	0.400424	0.406641	0.880334
	H56	H	0.113780	0.587814	0.395497
	H57	H	0.876770	0.593005	0.583728
	H58	H	0.109174	0.408144	0.590960
	H59	H	0.873808	0.398224	0.398794
	H60	H	0.113034	0.399888	0.593781
	H61	H	0.877934	0.582495	0.587310
	H62	H	0.112401	0.596673	0.406621
	H63	H	0.876534	0.399112	0.407621
	H64	H	0.409121	0.582261	0.109746
	H65	H	0.574547	0.595099	0.881650
	H66	H	0.585705	0.389352	0.117839
	H67	H	0.405054	0.399829	0.879879
	H68	H	0.585390	0.113619	0.397993
	H69	H	0.585498	0.880467	0.589184
	H70	H	0.402949	0.112473	0.594764
	H71	H	0.393984	0.875766	0.397216
	H72	H	0.894918	0.616010	0.099561
	H73	H	0.091093	0.378568	0.085722
	H74	H	0.088523	0.611966	0.903968
	H75	H	0.897684	0.379552	0.902781
	H76	H	0.080401	0.898779	0.613215
	H77	H	0.088451	0.093761	0.377949
	H78	H	0.901396	0.082499	0.612687
	H79	H	0.889855	0.901010	0.376881
	H80	H	0.610570	0.089467	0.907632
	H81	H	0.375469	0.093639	0.088026
	H82	H	0.608707	0.903740	0.084152
	H83	H	0.375310	0.901308	0.903369
	H84	H	0.610080	0.908139	0.093389
	H85	H	0.377157	0.086708	0.088731
	H86	H	0.611025	0.087247	0.904253
	H87	H	0.376372	0.902131	0.907500
	H88	H	0.907465	0.092991	0.612796
	H89	H	0.089396	0.086267	0.379668
	H90	H	0.091110	0.900222	0.616850
	H91	H	0.902611	0.912308	0.383674
	H92	H	0.087046	0.612832	0.900120
	H93	H	0.089013	0.376704	0.094845
	H94	H	0.910983	0.609089	0.090484
	H95	H	0.899260	0.379998	0.900888
	H96	H	0.402038	0.110430	0.586365
	H97	H	0.589006	0.878968	0.591006
	H98	H	0.581506	0.109691	0.408301
	H99	H	0.407525	0.880376	0.401128
	H100	H	0.598437	0.408460	0.116109
	H101	H	0.594297	0.596666	0.876223
	H102	H	0.403828	0.600804	0.117507
	H103	H	0.396682	0.399794	0.877088
	H104	H	0.108075	0.583977	0.407592
	H105	H	0.874827	0.590300	0.593845
	H106	H	0.110299	0.400179	0.584256
	H107	H	0.877665	0.406539	0.402625
	H108	H	0.893871	0.611872	0.080826
	H109	H	0.082276	0.380086	0.088890
	H110	H	0.084740	0.611490	0.902934
	H111	H	0.900111	0.380667	0.903267
	H112	H	0.085148	0.908453	0.611993
	H113	H	0.082642	0.089871	0.379985
	H114	H	0.895873	0.093022	0.617137
	H115	H	0.907285	0.894601	0.379636
	H116	H	0.612041	0.091472	0.903294
	H117	H	0.373971	0.090625	0.094775
	H118	H	0.613483	0.897933	0.092201
	H119	H	0.376538	0.904982	0.904370
	C120	C	0.371711	0.003794	0.619188
	C121	C	0.615424	0.987562	0.619854
	C122	C	0.614703	0.004237	0.375874
	C123	C	0.371531	0.986955	0.375547
	C124	C	0.614948	0.374503	0.005582
	C125	C	0.614694	0.618025	0.989066
	C126	C	0.372125	0.617970	0.005718
	C127	C	0.372840	0.374804	0.988006
	C128	C	0.002582	0.617375	0.374777
	C129	C	0.985174	0.617111	0.617315
	C130	C	0.002194	0.374255	0.617806
	C131	C	0.984953	0.373817	0.374957
	C132	C	0.872014	0.504028	0.117925
	C133	C	0.115499	0.486706	0.117906
	C134	C	0.115061	0.504102	0.874136
	C135	C	0.870624	0.487705	0.873702
	C136	C	0.114497	0.874620	0.505467
	C137	C	0.115708	0.117896	0.488194
	C138	C	0.872452	0.117682	0.505371
	C139	C	0.871710	0.873808	0.488760
	C140	C	0.502379	0.117421	0.875851
	C141	C	0.484703	0.118214	0.119210
	C142	C	0.502014	0.875233	0.118390
	C143	C	0.484881	0.874279	0.876211
	C144	C	0.374418	0.881006	0.674712
	C145	C	0.612434	0.110825	0.674124
	C146	C	0.611816	0.880985	0.320929
	C147	C	0.374291	0.110502	0.321004
	C148	C	0.668576	0.378344	0.881187
	C149	C	0.670269	0.614938	0.112522
	C150	C	0.317768	0.614844	0.881441
	C151	C	0.318528	0.378481	0.112219
	C152	C	0.879160	0.672669	0.376190
	C153	C	0.108539	0.672169	0.615312
	C154	C	0.878647	0.318931	0.615286
	C155	C	0.108666	0.319742	0.377481
	C156	C	0.878193	0.377058	0.671926
	C157	C	0.108660	0.614540	0.672602
	C158	C	0.878279	0.613531	0.320535
	C159	C	0.109037	0.378104	0.321289
	C160	C	0.374282	0.673034	0.882143
	C161	C	0.613156	0.672889	0.112610
	C162	C	0.612820	0.319323	0.881791
	C163	C	0.374607	0.319694	0.111720
	C164	C	0.669443	0.881088	0.378942
	C165	C	0.670517	0.110422	0.617087
	C166	C	0.316646	0.880624	0.617117
	C167	C	0.316941	0.110408	0.378903
	C168	C	0.875210	0.380472	0.172104
	C169	C	0.112792	0.609839	0.172960
	C170	C	0.111553	0.380602	0.820589
	C171	C	0.873310	0.610704	0.818738
	C172	C	0.168788	0.878119	0.381521
	C173	C	0.169947	0.114248	0.612195
	C174	C	0.817403	0.114247	0.381901
	C175	C	0.818052	0.877018	0.613094
	C176	C	0.378931	0.172060	0.878099
	C177	C	0.608794	0.172068	0.116352
	C178	C	0.378456	0.819789	0.116928
	C179	C	0.608362	0.819119	0.878479
	C180	C	0.377978	0.878493	0.172627
	C181	C	0.608994	0.113978	0.173233
	C182	C	0.378432	0.113841	0.821607
	C183	C	0.608779	0.877217	0.821921
	C184	C	0.875099	0.171744	0.381702
	C185	C	0.113404	0.172652	0.611993
	C186	C	0.112891	0.819532	0.381869
	C187	C	0.874637	0.818403	0.611956
	C188	C	0.170070	0.381081	0.877681
	C189	C	0.169818	0.610243	0.114738
	C190	C	0.817645	0.380737	0.114404
	C191	C	0.816270	0.610647	0.877218
	C192	C	0.393676	0.089607	0.597078
	C193	C	0.593295	0.901684	0.597573
	C194	C	0.592887	0.089909	0.397785
	C195	C	0.393052	0.901102	0.396898
	C196	C	0.593333	0.395905	0.092195
	C197	C	0.591966	0.596402	0.902815
	C198	C	0.394260	0.595929	0.092086
	C199	C	0.394386	0.395862	0.901435
	C200	C	0.089163	0.595734	0.396687
	C201	C	0.898693	0.594942	0.594773
	C202	C	0.088464	0.396319	0.595988
	C203	C	0.898382	0.395066	0.396585
	C204	C	0.893625	0.589985	0.096757
	C205	C	0.093822	0.400810	0.096353
	C206	C	0.093181	0.589987	0.895823
	C207	C	0.892715	0.401995	0.895745
	C208	C	0.092187	0.896291	0.591656
	C209	C	0.093229	0.096524	0.401571
	C210	C	0.894940	0.095844	0.591958
	C211	C	0.893418	0.896026	0.402405
	C212	C	0.589262	0.095789	0.898385
	C213	C	0.397960	0.096723	0.097014
	C214	C	0.588297	0.896957	0.096430
	C215	C	0.398486	0.896302	0.898507
	Zn216	Zn	0.493442	-0.004156	0.748226
	Zn217	Zn	0.493185	-0.004006	0.246697
	Zn218	Zn	0.742786	0.496095	-0.003177
	Zn219	Zn	0.244193	0.495889	-0.003640
	Zn220	Zn	-0.006389	0.745437	0.495988
	Zn221	Zn	-0.006064	0.245976	0.496669
	Zn222	Zn	-0.007103	0.495871	0.745831
	Zn223	Zn	-0.006367	0.495428	0.246823
	Zn224	Zn	0.493239	0.746380	-0.002201
	Zn225	Zn	0.493920	0.246091	-0.002831
	Zn226	Zn	0.743589	-0.004092	0.498017
	Zn227	Zn	0.243136	-0.004898	0.497330
	N228	N	0.407728	0.958477	0.676225
	N229	N	0.578756	0.033370	0.675926
	N230	N	0.578514	0.958470	0.318935
	N231	N	0.407709	0.033007	0.318949
	N232	N	0.670046	0.411692	0.959043
	N233	N	0.671242	0.581431	0.034726
	N234	N	0.316294	0.581318	0.959247
	N235	N	0.316975	0.411648	0.034213
	N236	N	0.957328	0.674816	0.409238
	N237	N	0.030720	0.673673	0.581639
	N238	N	0.956832	0.316898	0.582569
	N239	N	0.030324	0.317044	0.410035
	N240	N	0.956011	0.410864	0.673472
	N241	N	0.030795	0.580905	0.673735
	N242	N	0.956136	0.579900	0.319249
	N243	N	0.031191	0.410968	0.319413
	N244	N	0.407111	0.675334	0.960551
	N245	N	0.579552	0.675123	0.034745
	N246	N	0.580218	0.316869	0.960168
	N247	N	0.407663	0.317355	0.033765
	N248	N	0.671342	0.958475	0.412498
	N249	N	0.672376	0.032756	0.584034
	N250	N	0.314832	0.957961	0.583219
	N251	N	0.315099	0.032711	0.412197
	N252	N	0.908256	0.458102	0.174641
	N253	N	0.079804	0.532119	0.175256
	N254	N	0.078095	0.457969	0.818297
	N255	N	0.906788	0.533185	0.816829
	N256	N	0.169927	0.911696	0.459380
	N257	N	0.171385	0.080787	0.534461
	N258	N	0.815673	0.081404	0.460106
	N259	N	0.816100	0.910813	0.535420
	N260	N	0.457080	0.174088	0.911415
	N261	N	0.530364	0.175056	0.083803
	N262	N	0.456453	0.817655	0.083949
	N263	N	0.530197	0.817084	0.911433
	N264	N	0.455796	0.912156	0.173769
	N265	N	0.530875	0.081080	0.174852
	N266	N	0.456410	0.080734	0.820219
	N267	N	0.531011	0.910817	0.820345
	N268	N	0.908544	0.173908	0.459519
	N269	N	0.080401	0.174938	0.533667
	N270	N	0.079645	0.817287	0.459677
	N271	N	0.907217	0.816488	0.533694
	N272	N	0.172256	0.458876	0.910383
	N273	N	0.171448	0.532871	0.081211
	N274	N	0.815652	0.458399	0.081522
	N275	N	0.814296	0.533261	0.910511
	O276	O	0.519683	0.484338	0.503956
	H277	H	0.525990	0.475611	0.501970
	H278	H	0.515952	0.493670	0.501411
	O279	O	0.511653	0.486382	0.541900
	H280	H	0.516298	0.482833	0.540360
	H281	H	0.505272	0.485523	0.541603
	O282	O	0.529682	0.469532	0.543911
	H283	H	0.535604	0.461539	0.556870
	H284	H	0.528655	0.476728	0.544913
	O285	O	0.516141	0.497802	0.522614
	H286	H	0.521845	0.497440	0.528413
	H287	H	0.519164	0.502968	0.516543
	O288	O	0.499431	0.491348	0.546117
	H289	H	0.489736	0.504837	0.540203
	H290	H	0.507837	0.488763	0.539967
	O291	O	-0.029371	0.976792	0.971447
	H292	H	-0.030201	0.974131	0.975860
	H293	H	-0.030117	0.976980	0.970254
	O294	O	0.560661	0.538943	0.579400
	H295	H	0.557581	0.534034	0.576915
	H296	H	0.564912	0.534717	0.587878
	O297	O	1.540933	0.493306	0.551983
	H298	H	1.537784	0.495216	0.557528
	H299	H	1.537994	0.489367	0.554283
