data_Molecule from HDF5

_cell_length_a		16.132395
_cell_length_b		16.448005
_cell_length_c		16.179437
_cell_angle_alpha	89.866924
_cell_angle_beta	90.056119
_cell_angle_gamma	90.171856
_symmetry_space_group_name_H-M	'P 1'
_symmetry_Int_Tables_number		1

loop_
	_symmetry_equiv_pos_as_xyz
	x,y,z

loop_
	_atom_site_label
	_atom_site_type_symbol
	_atom_site_fract_x
	_atom_site_fract_y
	_atom_site_fract_z
	H0	H	0.394809	0.843505	0.712933
	H1	H	0.599008	0.166704	0.714768
	H2	H	0.598583	0.844112	0.279188
	H3	H	0.395062	0.165812	0.275999
	H4	H	0.711005	0.405123	0.833955
	H5	H	0.710543	0.603597	0.161629
	H6	H	0.283611	0.600212	0.832315
	H7	H	0.281660	0.404964	0.161518
	H8	H	0.832941	0.724383	0.395428
	H9	H	0.160981	0.724387	0.600175
	H10	H	0.833902	0.287156	0.601901
	H11	H	0.159548	0.289211	0.393250
	H12	H	0.831267	0.408747	0.711068
	H13	H	0.163275	0.602440	0.710097
	H14	H	0.831895	0.606629	0.281691
	H15	H	0.160983	0.409161	0.283235
	H16	H	0.390699	0.722255	0.834614
	H17	H	0.601128	0.723348	0.159390
	H18	H	0.599781	0.287940	0.834925
	H19	H	0.391222	0.284705	0.158798
	H20	H	0.714746	0.844866	0.395815
	H21	H	0.714082	0.168006	0.596491
	H22	H	0.278517	0.845351	0.596431
	H23	H	0.281146	0.168274	0.393328
	H24	H	0.893501	0.345554	0.218434
	H25	H	0.097904	0.668393	0.213233
	H26	H	0.096365	0.344570	0.780509
	H27	H	0.895357	0.667809	0.781924
	H28	H	0.209320	0.910282	0.330575
	H29	H	0.213961	0.106680	0.660078
	H30	H	0.784123	0.106090	0.332248
	H31	H	0.783590	0.908316	0.659907
	H32	H	0.333725	0.222805	0.890600
	H33	H	0.658155	0.224173	0.102275
	H34	H	0.333559	0.785285	0.101272
	H35	H	0.659399	0.785660	0.894209
	H36	H	0.332437	0.903839	0.212481
	H37	H	0.661894	0.100993	0.208363
	H38	H	0.331897	0.101125	0.781634
	H39	H	0.661760	0.905728	0.783283
	H40	H	0.893797	0.226047	0.335355
	H41	H	0.102587	0.224405	0.659431
	H42	H	0.101661	0.788260	0.334407
	H43	H	0.894314	0.790981	0.659341
	H44	H	0.210896	0.343324	0.898107
	H45	H	0.214960	0.666532	0.097385
	H46	H	0.777734	0.344558	0.101617
	H47	H	0.779382	0.666852	0.898679
	H48	H	0.411427	0.120212	0.593494
	H49	H	0.591253	0.889445	0.593556
	H50	H	0.598403	0.123146	0.402319
	H51	H	0.404065	0.891073	0.403155
	H52	H	0.579555	0.404719	0.115337
	H53	H	0.586372	0.597017	0.880579
	H54	H	0.400389	0.591953	0.114552
	H55	H	0.406252	0.412894	0.881361
	H56	H	0.112680	0.604279	0.414782
	H57	H	0.877666	0.602056	0.594054
	H58	H	0.111513	0.414456	0.582732
	H59	H	0.879142	0.410038	0.410560
	H60	H	0.112794	0.419715	0.591732
	H61	H	0.879120	0.604937	0.585659
	H62	H	0.110023	0.592415	0.408175
	H63	H	0.882490	0.418382	0.414209
	H64	H	0.412260	0.593275	0.110735
	H65	H	0.585804	0.593740	0.882001
	H66	H	0.593843	0.412452	0.116854
	H67	H	0.404838	0.409914	0.879621
	H68	H	0.583507	0.121501	0.395086
	H69	H	0.585673	0.893107	0.587470
	H70	H	0.409080	0.116949	0.583198
	H71	H	0.404989	0.891184	0.405205
	H72	H	0.899632	0.622809	0.091282
	H73	H	0.084655	0.392986	0.090642
	H74	H	0.084535	0.616664	0.911485
	H75	H	0.905500	0.392815	0.908541
	H76	H	0.074984	0.925618	0.605322
	H77	H	0.088864	0.104783	0.378340
	H78	H	0.901386	0.100583	0.615996
	H79	H	0.907572	0.914981	0.378771
	H80	H	0.615570	0.100872	0.902363
	H81	H	0.378277	0.089279	0.093797
	H82	H	0.613784	0.911414	0.085604
	H83	H	0.381833	0.917229	0.910313
	H84	H	0.612579	0.912435	0.085450
	H85	H	0.376928	0.104879	0.084931
	H86	H	0.613773	0.100236	0.909950
	H87	H	0.377926	0.912730	0.900327
	H88	H	0.907467	0.091432	0.611943
	H89	H	0.090557	0.097212	0.380396
	H90	H	0.084112	0.898475	0.617107
	H91	H	0.908023	0.914370	0.379207
	H92	H	0.099831	0.622461	0.905974
	H93	H	0.089152	0.390892	0.088955
	H94	H	0.909575	0.618435	0.091257
	H95	H	0.898960	0.389087	0.904478
	H96	H	0.400510	0.122509	0.588884
	H97	H	0.593040	0.890784	0.584689
	H98	H	0.586049	0.117295	0.410834
	H99	H	0.402867	0.890828	0.405692
	H100	H	0.581106	0.419271	0.110060
	H101	H	0.583563	0.595932	0.881745
	H102	H	0.406359	0.603129	0.116006
	H103	H	0.402374	0.412621	0.879126
	H104	H	0.116330	0.603195	0.400908
	H105	H	0.881471	0.597041	0.587964
	H106	H	0.115534	0.409996	0.590493
	H107	H	0.878967	0.418011	0.404527
	H108	H	0.903842	0.618563	0.082695
	H109	H	0.087731	0.390422	0.094142
	H110	H	0.085586	0.622802	0.895490
	H111	H	0.906862	0.390334	0.901005
	H112	H	0.103736	0.921719	0.615735
	H113	H	0.082380	0.100491	0.381522
	H114	H	0.912636	0.102741	0.613413
	H115	H	0.906997	0.913750	0.378724
	H116	H	0.612173	0.094199	0.905915
	H117	H	0.384116	0.090304	0.076474
	H118	H	0.613520	0.912495	0.086274
	H119	H	0.379791	0.906657	0.909300
	C120	C	0.375194	0.013967	0.618456
	C121	C	0.620037	0.997637	0.618404
	C122	C	0.619215	0.014160	0.373843
	C123	C	0.374462	0.997701	0.373511
	C124	C	0.616081	0.383117	0.006073
	C125	C	0.616186	0.625316	0.989006
	C126	C	0.375345	0.625500	0.005767
	C127	C	0.373940	0.382048	0.988096
	C128	C	0.004782	0.629128	0.376877
	C129	C	0.988392	0.629573	0.619179
	C130	C	0.005086	0.384803	0.618676
	C131	C	0.988287	0.386346	0.378355
	C132	C	0.873647	0.513837	0.120184
	C133	C	0.118308	0.497719	0.120310
	C134	C	0.118560	0.513786	0.875340
	C135	C	0.873451	0.497126	0.875342
	C136	C	0.118025	0.886003	0.504744
	C137	C	0.118593	0.129489	0.488150
	C138	C	0.876872	0.127964	0.505811
	C139	C	0.876441	0.885414	0.487028
	C140	C	0.505159	0.126631	0.875331
	C141	C	0.487868	0.124838	0.116177
	C142	C	0.505641	0.881872	0.117840
	C143	C	0.488137	0.882794	0.876432
	C144	C	0.375144	0.892230	0.674631
	C145	C	0.619030	0.118637	0.675851
	C146	C	0.618300	0.892409	0.317848
	C147	C	0.375495	0.118247	0.314978
	C148	C	0.673117	0.385070	0.883121
	C149	C	0.672981	0.623993	0.112468
	C150	C	0.319943	0.622160	0.881922
	C151	C	0.318616	0.384227	0.111800
	C152	C	0.881685	0.685693	0.376390
	C153	C	0.112259	0.685533	0.619051
	C154	C	0.882394	0.326818	0.619907
	C155	C	0.110849	0.328769	0.376020
	C156	C	0.880989	0.387438	0.674176
	C157	C	0.113160	0.625055	0.673985
	C158	C	0.881218	0.627115	0.319883
	C159	C	0.111731	0.388403	0.321213
	C160	C	0.373502	0.682816	0.883141
	C161	C	0.618514	0.683780	0.111144
	C162	C	0.617409	0.326973	0.883345
	C163	C	0.372929	0.324175	0.110353
	C164	C	0.676327	0.893036	0.375811
	C165	C	0.676030	0.119378	0.616756
	C166	C	0.317540	0.893154	0.616297
	C167	C	0.318889	0.119385	0.373618
	C168	C	0.873990	0.393366	0.178922
	C169	C	0.117559	0.619615	0.175523
	C170	C	0.116136	0.392364	0.819370
	C171	C	0.874903	0.619041	0.819560
	C172	C	0.173165	0.888745	0.380667
	C173	C	0.175929	0.127056	0.610958
	C174	C	0.821110	0.126725	0.382059
	C175	C	0.820693	0.887645	0.610606
	C176	C	0.382248	0.183257	0.873098
	C177	C	0.609824	0.184062	0.119008
	C178	C	0.382755	0.824124	0.119613
	C179	C	0.610952	0.825467	0.876032
	C180	C	0.381904	0.883308	0.174882
	C181	C	0.611889	0.122858	0.171930
	C182	C	0.381312	0.123017	0.818735
	C183	C	0.612262	0.885181	0.820678
	C184	C	0.876178	0.186021	0.383503
	C185	C	0.120770	0.185918	0.610758
	C186	C	0.119066	0.828246	0.382530
	C187	C	0.875783	0.829204	0.610224
	C188	C	0.173164	0.391807	0.877936
	C189	C	0.175858	0.618858	0.117848
	C190	C	0.816440	0.392659	0.120761
	C191	C	0.817219	0.618643	0.877784
	C192	C	0.399719	0.098225	0.595392
	C193	C	0.596809	0.913106	0.595406
	C194	C	0.595946	0.098678	0.396081
	C195	C	0.397287	0.913029	0.397589
	C196	C	0.591941	0.405360	0.091764
	C197	C	0.592309	0.602219	0.903597
	C198	C	0.399458	0.602869	0.091548
	C199	C	0.397605	0.404932	0.902285
	C200	C	0.090725	0.606669	0.400964
	C201	C	0.902074	0.607645	0.596076
	C202	C	0.090931	0.408000	0.595178
	C203	C	0.902482	0.408994	0.402668
	C204	C	0.897376	0.598013	0.095646
	C205	C	0.094453	0.413215	0.097931
	C206	C	0.096556	0.598564	0.897744
	C207	C	0.896904	0.412802	0.897951
	C208	C	0.094438	0.908597	0.590431
	C209	C	0.094394	0.107151	0.402349
	C210	C	0.900392	0.104929	0.591655
	C211	C	0.900331	0.907940	0.401102
	C212	C	0.591170	0.104831	0.899003
	C213	C	0.402057	0.101536	0.092129
	C214	C	0.591049	0.905297	0.093146
	C215	C	0.402020	0.905525	0.899839
	Zn216	Zn	0.497552	0.004484	0.747867
	Zn217	Zn	0.496999	0.004529	0.244828
	Zn218	Zn	0.744355	0.504124	-0.001949
	Zn219	Zn	0.247286	0.504970	-0.002679
	Zn220	Zn	-0.002854	0.757947	0.497218
	Zn221	Zn	-0.002599	0.256639	0.498030
	Zn222	Zn	-0.003597	0.506524	0.746211
	Zn223	Zn	-0.003618	0.506751	0.249542
	Zn224	Zn	0.496019	0.753841	-0.003193
	Zn225	Zn	0.495903	0.254299	-0.003201
	Zn226	Zn	0.749413	0.006677	0.495817
	Zn227	Zn	0.246051	0.007501	0.495261
	N228	N	0.410282	0.968358	0.676158
	N229	N	0.585033	0.041808	0.677345
	N230	N	0.583523	0.968594	0.316610
	N231	N	0.409314	0.041453	0.314845
	N232	N	0.672618	0.419258	0.960519
	N233	N	0.672017	0.588495	0.035617
	N234	N	0.321020	0.587241	0.959214
	N235	N	0.318971	0.419376	0.034657
	N236	N	0.959606	0.687142	0.411051
	N237	N	0.033609	0.688704	0.585980
	N238	N	0.960648	0.325060	0.586266
	N239	N	0.033068	0.327250	0.410842
	N240	N	0.958236	0.422823	0.673495
	N241	N	0.035119	0.591296	0.674331
	N242	N	0.958772	0.592615	0.320183
	N243	N	0.034527	0.423742	0.322582
	N244	N	0.406990	0.685005	0.961242
	N245	N	0.583829	0.684642	0.033469
	N246	N	0.582681	0.325570	0.960849
	N247	N	0.406602	0.322575	0.032313
	N248	N	0.677094	0.969691	0.409707
	N249	N	0.677065	0.043126	0.582133
	N250	N	0.317258	0.969944	0.582216
	N251	N	0.318210	0.043382	0.409250
	N252	N	0.908665	0.469791	0.178839
	N253	N	0.082522	0.543269	0.177070
	N254	N	0.083059	0.469208	0.817510
	N255	N	0.909195	0.542558	0.817897
	N256	N	0.172738	0.924014	0.457674
	N257	N	0.174872	0.092695	0.533526
	N258	N	0.821525	0.091351	0.459090
	N259	N	0.820965	0.921833	0.532989
	N260	N	0.460244	0.185906	0.907540
	N261	N	0.531637	0.185331	0.084916
	N262	N	0.460618	0.823033	0.085064
	N263	N	0.532601	0.823731	0.909551
	N264	N	0.459391	0.918459	0.174232
	N265	N	0.535037	0.086578	0.170283
	N266	N	0.458757	0.088580	0.819772
	N267	N	0.534802	0.920139	0.820641
	N268	N	0.910149	0.186973	0.461555
	N269	N	0.085725	0.187489	0.533406
	N270	N	0.085720	0.826377	0.460839
	N271	N	0.909852	0.827772	0.532324
	N272	N	0.174582	0.468208	0.912314
	N273	N	0.176672	0.542070	0.084357
	N274	N	0.816293	0.468590	0.084720
	N275	N	0.816137	0.541890	0.911683
	O276	O	-0.116181	0.047060	-0.111644
	H277	H	-0.111783	0.046414	-0.114462
	H278	H	-0.115158	0.036311	-0.111239
	O279	O	0.663498	0.407120	0.451232
	H280	H	0.672965	0.412072	0.462553
	H281	H	0.665442	0.404777	0.445364
	O282	O	0.418016	-0.417686	-0.357237
	H283	H	0.422190	-0.435881	-0.351554
	H284	H	0.427022	-0.405498	-0.339313
	O285	O	-0.007317	1.003545	-0.154649
	H286	H	-0.003149	1.019649	-0.147438
	H287	H	-0.011531	1.004193	-0.166644
	O288	O	0.572584	0.382058	0.343717
	H289	H	0.581551	0.383352	0.347187
	H290	H	0.570107	0.384811	0.334631
	O291	O	0.894021	-0.120137	0.974072
	H292	H	0.900530	-0.131852	0.991887
	H293	H	0.896028	-0.126213	0.979081
	O294	O	1.054317	1.029041	1.140577
	H295	H	1.063040	1.027383	1.154242
	H296	H	1.046878	1.017554	1.143770
	O297	O	0.118742	-0.001971	0.032983
	H298	H	0.124799	0.004629	0.013808
	H299	H	0.107742	-0.010348	0.039454
	O300	O	0.520503	0.553794	0.560044
	H301	H	0.517829	0.554219	0.563303
	H302	H	0.528023	0.562613	0.564425
	O303	O	-0.050581	1.001129	0.864611
	H304	H	-0.047859	1.000663	0.849689
	H305	H	-0.045864	0.991565	0.871161
	O306	O	0.544280	0.557772	0.515180
	H307	H	0.546601	0.544990	0.526090
	H308	H	0.535440	0.541914	0.499795
	O309	O	1.019181	0.040371	-0.020644
	H310	H	1.010243	0.040623	-0.019067
	H311	H	1.026968	0.050672	-0.017140
	O312	O	0.078959	-0.003345	1.012256
	H313	H	0.067550	0.001164	1.002702
	H314	H	0.097088	-0.004369	1.018626
	O315	O	0.551948	0.458123	0.585114
	H316	H	0.554688	0.464622	0.585102
	H317	H	0.535511	0.461453	0.583096
	O318	O	0.906024	0.798509	0.861353
	H319	H	0.900970	0.800821	0.872179
	H320	H	0.920652	0.802837	0.845780
	O321	O	0.325895	0.596827	0.330565
	H322	H	0.316060	0.601094	0.314088
	H323	H	0.319560	0.609096	0.350117
	O324	O	0.489511	0.386523	0.358956
	H325	H	0.484271	0.372799	0.369077
	H326	H	0.503000	0.382997	0.372000
	O327	O	0.016573	1.104354	1.126384
	H328	H	0.014356	1.098368	1.122761
	H329	H	0.018866	1.097183	1.115421
	O330	O	-0.097945	0.103497	-0.033229
	H331	H	-0.105305	0.108574	-0.032179
	H332	H	-0.083711	0.104988	-0.023069
	O333	O	0.012814	1.130102	0.964549
	H334	H	0.013163	1.139366	0.970304
	H335	H	0.002229	1.127308	0.964618
	O336	O	1.057653	0.919284	0.948649
	H337	H	1.067117	0.930719	0.938793
	H338	H	1.060416	0.918189	0.953152
	O339	O	0.546972	0.410126	0.451728
	H340	H	0.539969	0.419051	0.462060
	H341	H	0.553363	0.413542	0.443399
	O342	O	0.870557	0.021733	-0.029778
	H343	H	0.876232	0.020068	-0.028285
	H344	H	0.871775	0.020248	-0.030694
	O345	O	0.605054	0.528882	0.512546
	H346	H	0.607072	0.545152	0.517033
	H347	H	0.602469	0.528191	0.500597
	O348	O	1.023666	0.858559	1.009026
	H349	H	1.022959	0.849421	1.002877
	H350	H	1.030803	0.855997	1.007919
	O351	O	1.029683	0.966288	0.050690
	H352	H	1.043678	0.970162	0.048877
	H353	H	1.024217	0.975404	0.049178
	O354	O	0.435812	0.539336	0.448083
	H355	H	0.430919	0.543093	0.450220
	H356	H	0.442017	0.546801	0.453921
	O357	O	0.497277	0.639591	0.487656
	H358	H	0.497967	0.639246	0.481482
	H359	H	0.493217	0.631204	0.478127
	O360	O	0.040762	-0.085003	-0.162129
	H361	H	0.036799	-0.083900	-0.159692
	H362	H	0.053359	-0.074006	-0.169782
	O363	O	0.551277	0.418719	0.604152
	H364	H	0.548926	0.431579	0.598762
	H365	H	0.548185	0.406792	0.608542
	O366	O	0.498287	0.634943	0.511208
	H367	H	0.502707	0.640037	0.501841
	H368	H	0.505426	0.618251	0.513334
	O369	O	0.379276	0.451013	0.594700
	H370	H	0.392901	0.447015	0.600470
	H371	H	0.372059	0.449919	0.590088
	O372	O	0.419490	0.569557	0.510753
	H373	H	0.416366	0.580327	0.517581
	H374	H	0.416629	0.580014	0.512230
	O375	O	0.507505	0.608487	0.540733
	H376	H	0.494110	0.600581	0.537799
	H377	H	0.506672	0.607504	0.552690
	O378	O	0.623100	0.538607	0.389112
	H379	H	0.619538	0.548134	0.399631
	H380	H	0.628990	0.539198	0.379633
	O381	O	0.490657	0.452375	0.535923
	H382	H	0.496457	0.450930	0.548415
	H383	H	0.490241	0.454434	0.526432
	O384	O	0.177062	1.142055	0.026992
	H385	H	0.176343	1.145763	0.045408
	H386	H	0.185668	1.153444	0.035546
	O387	O	0.994959	-0.028304	1.124334
	H388	H	0.987701	-0.029399	1.136962
	H389	H	0.985975	-0.026773	1.120412
	O390	O	-0.111265	1.100207	-0.085166
	H391	H	-0.111719	1.110177	-0.097368
	H392	H	-0.122076	1.091884	-0.101150
	O393	O	1.008839	0.921195	0.106282
	H394	H	1.009056	0.911820	0.111720
	H395	H	1.008450	0.922773	0.109354
	O396	O	0.354467	0.627353	0.449744
	H397	H	0.354536	0.619402	0.445144
	H398	H	0.358565	0.635831	0.445481
	O399	O	0.462723	0.352757	1.622182
	H400	H	0.465370	0.356832	1.620412
	H401	H	0.471963	0.354221	1.613984
	O402	O	0.918881	1.107400	1.037906
	H403	H	0.907778	1.112931	1.040335
	H404	H	0.918241	1.117771	1.028661
	O405	O	0.460303	0.449000	0.417884
	H406	H	0.461270	0.451188	0.415409
	H407	H	0.448117	0.444567	0.422188
