data_Molecule from HDF5

_cell_length_a		16.042837
_cell_length_b		16.417712
_cell_length_c		16.431253
_cell_angle_alpha	89.961356
_cell_angle_beta	89.989788
_cell_angle_gamma	90.155099
_symmetry_space_group_name_H-M	'P 1'
_symmetry_Int_Tables_number		1

loop_
	_symmetry_equiv_pos_as_xyz
	x,y,z

loop_
	_atom_site_label
	_atom_site_type_symbol
	_atom_site_fract_x
	_atom_site_fract_y
	_atom_site_fract_z
	H0	H	0.384748	0.814855	0.735711
	H1	H	0.598469	0.133009	0.740695
	H2	H	0.593099	0.813979	0.297739
	H3	H	0.382336	0.132080	0.294347
	H4	H	0.704468	0.378582	0.856447
	H5	H	0.700554	0.574515	0.180451
	H6	H	0.271040	0.573969	0.856401
	H7	H	0.271806	0.375767	0.179905
	H8	H	0.824594	0.691950	0.419849
	H9	H	0.152562	0.693949	0.621410
	H10	H	0.827344	0.256123	0.623824
	H11	H	0.152890	0.262004	0.416425
	H12	H	0.824038	0.375362	0.734164
	H13	H	0.151546	0.581129	0.738309
	H14	H	0.824255	0.579488	0.303063
	H15	H	0.150429	0.373942	0.300191
	H16	H	0.384204	0.694459	0.857415
	H17	H	0.593292	0.696341	0.176572
	H18	H	0.594018	0.254701	0.858099
	H19	H	0.379232	0.251852	0.175922
	H20	H	0.704392	0.812393	0.419278
	H21	H	0.706572	0.136471	0.616640
	H22	H	0.272833	0.813521	0.615496
	H23	H	0.272230	0.135201	0.414649
	H24	H	0.881211	0.317199	0.240777
	H25	H	0.094349	0.635706	0.239126
	H26	H	0.094810	0.317915	0.796259
	H27	H	0.879002	0.635656	0.796556
	H28	H	0.202405	0.877495	0.355175
	H29	H	0.207516	0.074692	0.678919
	H30	H	0.772610	0.076806	0.356016
	H31	H	0.771648	0.875311	0.679259
	H32	H	0.324338	0.192094	0.911644
	H33	H	0.650874	0.193536	0.119640
	H34	H	0.324638	0.758693	0.118430
	H35	H	0.652076	0.758153	0.914964
	H36	H	0.325857	0.869637	0.235663
	H37	H	0.651647	0.077696	0.234240
	H38	H	0.324942	0.076011	0.799078
	H39	H	0.652556	0.872594	0.799838
	H40	H	0.885678	0.197867	0.359024
	H41	H	0.098750	0.198203	0.676821
	H42	H	0.096423	0.752954	0.360381
	H43	H	0.883262	0.756046	0.678238
	H44	H	0.203446	0.314751	0.917881
	H45	H	0.207298	0.636207	0.119635
	H46	H	0.771293	0.314149	0.118151
	H47	H	0.772595	0.639640	0.921570
	H48	H	0.399459	0.090857	0.612377
	H49	H	0.590296	0.860175	0.599305
	H50	H	0.577242	0.088793	0.423121
	H51	H	0.390143	0.857114	0.424433
	H52	H	0.576392	0.377058	0.133394
	H53	H	0.575793	0.580914	0.899866
	H54	H	0.400132	0.562755	0.130366
	H55	H	0.399275	0.375011	0.902260
	H56	H	0.108775	0.569131	0.421862
	H57	H	0.875060	0.564551	0.600112
	H58	H	0.101928	0.391630	0.601724
	H59	H	0.870658	0.382093	0.431607
	H60	H	0.106777	0.394407	0.617360
	H61	H	0.870648	0.559631	0.616454
	H62	H	0.105092	0.570234	0.435154
	H63	H	0.873044	0.390242	0.435447
	H64	H	0.403323	0.571181	0.130936
	H65	H	0.591271	0.563473	0.899795
	H66	H	0.581624	0.385105	0.132633
	H67	H	0.389272	0.385965	0.901969
	H68	H	0.579697	0.088707	0.425695
	H69	H	0.580796	0.855373	0.623264
	H70	H	0.405669	0.087887	0.608774
	H71	H	0.404211	0.858926	0.419338
	H72	H	0.901161	0.592286	0.120184
	H73	H	0.072716	0.363464	0.111591
	H74	H	0.078006	0.593032	0.922985
	H75	H	0.897014	0.361865	0.923533
	H76	H	0.086745	0.879859	0.635712
	H77	H	0.078831	0.070296	0.403269
	H78	H	0.900839	0.065208	0.630970
	H79	H	0.894724	0.883573	0.402977
	H80	H	0.603900	0.064543	0.929851
	H81	H	0.372280	0.061496	0.103406
	H82	H	0.604728	0.893843	0.112283
	H83	H	0.374351	0.892335	0.925751
	H84	H	0.609801	0.876806	0.110755
	H85	H	0.371408	0.061302	0.108747
	H86	H	0.604766	0.064256	0.927470
	H87	H	0.368101	0.881464	0.919039
	H88	H	0.901802	0.068101	0.630985
	H89	H	0.080265	0.070559	0.404029
	H90	H	0.080717	0.893161	0.630291
	H91	H	0.903031	0.886708	0.405446
	H92	H	0.071156	0.586962	0.929660
	H93	H	0.076855	0.363252	0.108933
	H94	H	0.900009	0.588719	0.106300
	H95	H	0.902218	0.364482	0.927484
	H96	H	0.399020	0.088541	0.604778
	H97	H	0.564819	0.867069	0.605552
	H98	H	0.580775	0.089473	0.422515
	H99	H	0.400481	0.863874	0.432963
	H100	H	0.571716	0.384204	0.130311
	H101	H	0.568378	0.560435	0.908642
	H102	H	0.394771	0.569426	0.133935
	H103	H	0.403414	0.388893	0.906746
	H104	H	0.103073	0.557767	0.428301
	H105	H	0.867968	0.576314	0.611204
	H106	H	0.108978	0.380169	0.610529
	H107	H	0.870882	0.389268	0.426671
	H108	H	0.888621	0.593678	0.113382
	H109	H	0.076572	0.360890	0.113336
	H110	H	0.081399	0.589919	0.933246
	H111	H	0.895430	0.362825	0.930697
	H112	H	0.071866	0.880187	0.631090
	H113	H	0.079662	0.069717	0.402990
	H114	H	0.898563	0.067229	0.632056
	H115	H	0.901945	0.878087	0.402619
	H116	H	0.605280	0.066639	0.928541
	H117	H	0.370406	0.065735	0.106370
	H118	H	0.603011	0.885265	0.097044
	H119	H	0.371889	0.880574	0.932108
	C120	C	0.368944	-0.017054	0.638385
	C121	C	0.611536	0.966357	0.639988
	C122	C	0.610525	-0.017199	0.394687
	C123	C	0.367055	0.965553	0.394621
	C124	C	0.608632	0.353225	0.026027
	C125	C	0.609145	0.597834	1.008955
	C126	C	0.366934	0.597430	0.025778
	C127	C	0.365344	0.352833	1.009366
	C128	C	-0.002369	0.597071	0.398230
	C129	C	0.979384	0.598207	0.640547
	C130	C	-0.001955	0.356344	0.640422
	C131	C	0.979440	0.356867	0.399345
	C132	C	0.865011	0.485273	0.142794
	C133	C	0.108559	0.467734	0.141455
	C134	C	0.108330	0.484488	0.897436
	C135	C	0.866319	0.469096	0.897391
	C136	C	0.110417	0.854249	0.526446
	C137	C	0.112303	0.099554	0.509202
	C138	C	0.868530	0.097885	0.525801
	C139	C	0.867989	0.853238	0.509946
	C140	C	0.496820	0.096008	0.895981
	C141	C	0.479295	0.094895	0.137537
	C142	C	0.497571	0.854110	0.137294
	C143	C	0.479627	0.853981	0.895511
	C144	C	0.366480	0.862682	0.696439
	C145	C	0.614849	0.086085	0.699456
	C146	C	0.611290	0.861819	0.337520
	C147	C	0.364746	0.085038	0.334947
	C148	C	0.666711	0.356301	0.904970
	C149	C	0.664463	0.595348	0.131118
	C150	C	0.309060	0.595082	0.904704
	C151	C	0.309014	0.354810	0.131074
	C152	C	0.873761	0.654004	0.399459
	C153	C	0.103075	0.655779	0.641170
	C154	C	0.875600	0.296316	0.641725
	C155	C	0.103198	0.299828	0.397487
	C156	C	0.873910	0.355527	0.696826
	C157	C	0.102691	0.599489	0.699193
	C158	C	0.873482	0.597916	0.341645
	C159	C	0.102017	0.355772	0.339735
	C160	C	0.365311	0.654977	0.905232
	C161	C	0.610612	0.656078	0.129274
	C162	C	0.611405	0.295217	0.905537
	C163	C	0.362769	0.293208	0.129032
	C164	C	0.667122	0.861161	0.397591
	C165	C	0.669032	0.087547	0.638066
	C166	C	0.310743	0.862001	0.636442
	C167	C	0.309562	0.086249	0.394649
	C168	C	0.863115	0.364729	0.200928
	C169	C	0.111863	0.587889	0.199617
	C170	C	0.111301	0.365073	0.837285
	C171	C	0.862846	0.588642	0.837877
	C172	C	0.165981	0.856296	0.404543
	C173	C	0.170143	0.096484	0.630099
	C174	C	0.811039	0.097263	0.404725
	C175	C	0.809554	0.854632	0.630791
	C176	C	0.373785	0.153385	0.893759
	C177	C	0.601853	0.154600	0.139032
	C178	C	0.373967	0.796690	0.137667
	C179	C	0.603095	0.796740	0.895865
	C180	C	0.374698	0.851752	0.196296
	C181	C	0.602291	0.096622	0.195652
	C182	C	0.373970	0.095571	0.837511
	C183	C	0.603471	0.853633	0.838656
	C184	C	0.866961	0.157742	0.406401
	C185	C	0.115764	0.157833	0.629253
	C186	C	0.113213	0.794148	0.407115
	C187	C	0.865714	0.795589	0.630450
	C188	C	0.165789	0.363565	0.897939
	C189	C	0.168255	0.588202	0.140250
	C190	C	0.808330	0.363404	0.139913
	C191	C	0.809532	0.590447	0.900099
	C192	C	0.394273	0.067181	0.615298
	C193	C	0.585956	0.882574	0.616224
	C194	C	0.586351	0.067151	0.417163
	C195	C	0.391477	0.881635	0.418668
	C196	C	0.583820	0.375593	0.110170
	C197	C	0.585321	0.574973	0.924692
	C198	C	0.391928	0.574496	0.109953
	C199	C	0.390031	0.376481	0.925451
	C200	C	0.083337	0.573045	0.421559
	C201	C	0.893534	0.574045	0.616479
	C202	C	0.083559	0.381493	0.616798
	C203	C	0.893862	0.380357	0.424082
	C204	C	0.889500	0.569680	0.119910
	C205	C	0.082806	0.384295	0.118163
	C206	C	0.083779	0.568213	0.921521
	C207	C	0.891242	0.384754	0.920461
	C208	C	0.086529	0.877592	0.610543
	C209	C	0.087057	0.076874	0.425262
	C210	C	0.893140	0.073805	0.609629
	C211	C	0.892812	0.876132	0.425707
	C212	C	0.582456	0.072022	0.921170
	C213	C	0.393658	0.070137	0.113188
	C214	C	0.583490	0.878308	0.113504
	C215	C	0.393672	0.877850	0.918832
	Zn216	Zn	0.489331	-0.025317	0.769084
	Zn217	Zn	0.488535	-0.026106	0.265095
	Zn218	Zn	0.737627	0.476832	0.018973
	Zn219	Zn	0.237381	0.475277	0.018767
	Zn220	Zn	-0.010851	0.724956	0.518760
	Zn221	Zn	-0.009611	0.229079	0.519080
	Zn222	Zn	-0.012336	0.477131	0.767956
	Zn223	Zn	-0.012797	0.476760	0.271254
	Zn224	Zn	0.488562	0.727016	0.017333
	Zn225	Zn	0.486384	0.223233	0.017044
	Zn226	Zn	0.739351	-0.025205	0.517012
	Zn227	Zn	0.239167	-0.024881	0.516710
	N228	N	0.402002	0.938951	0.697603
	N229	N	0.579917	0.009543	0.700893
	N230	N	0.577221	0.938595	0.335258
	N231	N	0.399736	0.008909	0.334736
	N232	N	0.665370	0.391357	0.980836
	N233	N	0.663857	0.559991	0.055318
	N234	N	0.310041	0.560191	0.980780
	N235	N	0.310298	0.390870	0.055593
	N236	N	0.951935	0.653872	0.433912
	N237	N	0.025530	0.655060	0.605374
	N238	N	0.953874	0.296637	0.607503
	N239	N	0.026068	0.300407	0.434072
	N240	N	0.951074	0.391962	0.696339
	N241	N	0.024596	0.564809	0.699240
	N242	N	0.951463	0.563507	0.340622
	N243	N	0.024138	0.390479	0.340753
	N244	N	0.400022	0.656912	0.981693
	N245	N	0.576977	0.657929	0.052274
	N246	N	0.576083	0.292909	0.981879
	N247	N	0.397092	0.291944	0.052308
	N248	N	0.666812	0.937360	0.432361
	N249	N	0.667046	0.012186	0.601794
	N250	N	0.312042	0.937904	0.601012
	N251	N	0.311018	0.010931	0.431253
	N252	N	0.897346	0.441697	0.203086
	N253	N	0.075034	0.512305	0.200260
	N254	N	0.076374	0.441350	0.836689
	N255	N	0.897999	0.512215	0.836463
	N256	N	0.164364	0.892882	0.479712
	N257	N	0.168226	0.061023	0.554382
	N258	N	0.811836	0.060736	0.479948
	N259	N	0.811166	0.889891	0.554862
	N260	N	0.451339	0.153718	0.929363
	N261	N	0.524307	0.153477	0.103462
	N262	N	0.451434	0.797924	0.101925
	N263	N	0.524909	0.796667	0.930541
	N264	N	0.452488	0.887108	0.195946
	N265	N	0.524979	0.060344	0.194917
	N266	N	0.451854	0.060741	0.838597
	N267	N	0.525746	0.888431	0.838424
	N268	N	0.901837	0.158387	0.482881
	N269	N	0.080694	0.160086	0.552972
	N270	N	0.079566	0.792492	0.484016
	N271	N	0.901076	0.794520	0.554246
	N272	N	0.164027	0.438809	0.934715
	N273	N	0.166345	0.512561	0.104691
	N274	N	0.809410	0.439335	0.104633
	N275	N	0.811815	0.515041	0.936397
	O276	O	0.366467	0.418612	0.410894
	H277	H	0.372967	0.406354	0.406926
	H278	H	0.384456	0.417744	0.409412
	O279	O	0.534462	0.335544	0.464473
	H280	H	0.542427	0.337989	0.469037
	H281	H	0.541433	0.333746	0.459623
	O282	O	0.894631	0.047263	0.917197
	H283	H	0.918035	0.045767	0.912406
	H284	H	0.895164	0.051797	0.911431
	O285	O	0.483456	0.408134	0.589503
	H286	H	0.486472	0.408853	0.588969
	H287	H	0.481388	0.408616	0.592480
	O288	O	0.917318	1.057294	0.879702
	H289	H	0.907807	1.061486	0.882439
	H290	H	0.916228	1.066187	0.886027
	O291	O	0.366691	1.644940	-0.639366
	H292	H	0.361365	1.632548	-0.640111
	H293	H	0.375794	1.649560	-0.627014
	O294	O	0.542210	0.576943	0.511826
	H295	H	0.546929	0.582240	0.514700
	H296	H	0.530214	0.581317	0.521854
	O297	O	0.507537	0.358889	0.367855
	H298	H	0.514723	0.366956	0.364548
	H299	H	0.505973	0.373217	0.372272
	O300	O	0.411836	0.519836	0.389171
	H301	H	0.400948	0.530351	0.399101
	H302	H	0.420426	0.506842	0.390512
	O303	O	1.031511	0.948273	-0.144816
	H304	H	1.029169	0.962732	-0.138218
	H305	H	1.034665	0.948631	-0.156628
	O306	O	0.556693	0.433665	0.511817
	H307	H	0.552661	0.424706	0.512143
	H308	H	0.562887	0.440172	0.513747
	O309	O	0.456234	0.275121	0.485877
	H310	H	0.448138	0.252315	0.487066
	H311	H	0.467541	0.278165	0.470903
	O312	O	0.664453	0.426742	-0.582803
	H313	H	0.664598	0.421042	-0.582169
	H314	H	0.654753	0.441432	-0.585097
	O315	O	0.489702	0.574205	0.658277
	H316	H	0.475463	0.588278	0.646059
	H317	H	0.494970	0.572302	0.654589
	O318	O	0.156303	0.867809	0.929009
	H319	H	0.162994	0.858491	0.905153
	H320	H	0.167948	0.875856	0.943046
	O321	O	0.365841	0.515335	0.640405
	H322	H	0.367575	0.511249	0.639196
	H323	H	0.377715	0.520316	0.647972
	O324	O	-0.015123	0.867907	-0.021017
	H325	H	-0.000868	0.856812	-0.032407
	H326	H	-0.013111	0.878500	-0.012383
	O327	O	-0.007173	-0.154326	0.079062
	H328	H	-0.009042	-0.149602	0.072471
	H329	H	0.005945	-0.156229	0.074500
	O330	O	-0.013513	0.165602	1.150440
	H331	H	-0.022118	0.155830	1.151098
	H332	H	-0.024283	0.169894	1.139535
	O333	O	-0.093964	-0.021929	0.994008
	H334	H	-0.094214	-0.017932	1.005188
	H335	H	-0.087271	-0.043627	0.996699
	O336	O	0.527064	0.277364	0.594464
	H337	H	0.532757	0.264037	0.601419
	H338	H	0.504632	0.288787	0.584667
	O339	O	1.090148	-0.205164	-0.117212
	H340	H	1.077708	-0.190848	-0.123862
	H341	H	1.080901	-0.200222	-0.132604
	O342	O	0.054058	0.050951	-0.150190
	H343	H	0.048347	0.064620	-0.150022
	H344	H	0.051570	0.065077	-0.134796
	O345	O	0.929181	0.176011	0.868342
	H346	H	0.911408	0.191764	0.850453
	H347	H	0.918498	0.177350	0.864797
	O348	O	0.941043	0.785710	0.174502
	H349	H	0.961597	0.786644	0.148361
	H350	H	0.957356	0.771639	0.193380
	O351	O	0.318953	0.302615	0.603934
	H352	H	0.323873	0.307338	0.607923
	H353	H	0.314445	0.297767	0.593078
	O354	O	0.991958	0.041906	0.951407
	H355	H	0.992798	0.049645	0.945176
	H356	H	0.992224	0.050196	0.954891
	O357	O	0.553198	0.406834	0.525842
	H358	H	0.552148	0.402987	0.522113
	H359	H	0.557182	0.395232	0.526880
	O360	O	1.182004	1.139594	1.042392
	H361	H	1.190326	1.142782	1.060241
	H362	H	1.195154	1.145932	1.062133
	O363	O	-0.000686	1.123041	0.934838
	H364	H	-0.017885	1.114841	0.939566
	H365	H	0.016321	1.129507	0.960772
	O366	O	0.558936	0.392698	0.543679
	H367	H	0.558442	0.381448	0.553089
	H368	H	0.576979	0.392983	0.538231
	O369	O	-0.087321	0.954408	-0.045058
	H370	H	-0.082558	0.955500	-0.049506
	H371	H	-0.081910	0.957774	-0.042623
	O372	O	0.202094	0.179218	0.272284
	H373	H	0.170495	0.186326	0.275843
	H374	H	0.205276	0.148035	0.269349
	O375	O	0.852382	0.899942	0.101365
	H376	H	0.842506	0.880060	0.111100
	H377	H	0.845128	0.893196	0.107818
	O378	O	1.126094	0.959911	0.164797
	H379	H	1.134790	0.953009	0.179181
	H380	H	1.133455	0.958225	0.167033
	O381	O	0.323742	0.515579	-0.495097
	H382	H	0.326563	0.506615	-0.490015
	H383	H	0.322409	0.500692	-0.509082
	O384	O	1.395331	1.556383	-0.512066
	H385	H	1.388468	1.535013	-0.506382
	H386	H	1.387672	1.568393	-0.513262
	O387	O	0.120768	-0.161683	0.023713
	H388	H	0.112901	-0.152426	-0.015767
	H389	H	0.146318	-0.177061	0.019924
	O390	O	-0.188275	0.818883	0.187903
	H391	H	-0.199039	0.817185	0.179480
	H392	H	-0.161133	0.806894	0.183005
	O393	O	0.533848	0.592614	0.470753
	H394	H	0.517707	0.591025	0.482589
	H395	H	0.533488	0.588417	0.469507
	O396	O	0.618420	0.556789	0.573254
	H397	H	0.611075	0.567524	0.575453
	H398	H	0.622518	0.559273	0.583605
	O399	O	0.445816	1.595472	1.574226
	H400	H	0.451966	1.596614	1.564455
	H401	H	0.447962	1.596743	1.574847
	O402	O	0.555544	0.595077	0.673852
	H403	H	0.542121	0.598724	0.682906
	H404	H	0.551703	0.589231	0.682196
	O405	O	1.094765	0.977537	0.212245
	H406	H	1.097273	0.973340	0.224486
	H407	H	1.069636	0.966914	0.215150
	O408	O	0.828601	0.836729	-0.028487
	H409	H	0.827769	0.840842	-0.024430
	H410	H	0.831620	0.840038	-0.035125
	O411	O	0.984832	0.045145	1.205563
	H412	H	0.974003	0.051962	1.224885
	H413	H	0.959898	0.047376	1.195248
	O414	O	0.822041	1.123651	0.989779
	H415	H	0.815533	1.107998	0.989653
	H416	H	0.803773	1.115870	0.982408
	O417	O	0.522160	0.430664	0.458267
	H418	H	0.512622	0.445893	0.447997
	H419	H	0.531206	0.427188	0.458568
