data_Molecule from HDF5

_cell_length_a		16.699613
_cell_length_b		16.569495
_cell_length_c		16.637356
_cell_angle_alpha	89.896343
_cell_angle_beta	89.963218
_cell_angle_gamma	90.031787
_symmetry_space_group_name_H-M	'P 1'
_symmetry_Int_Tables_number		1

loop_
	_symmetry_equiv_pos_as_xyz
	x,y,z

loop_
	_atom_site_label
	_atom_site_type_symbol
	_atom_site_fract_x
	_atom_site_fract_y
	_atom_site_fract_z
	H0	H	0.392880	0.853695	0.715455
	H1	H	0.597828	0.168566	0.716724
	H2	H	0.599813	0.856332	0.277525
	H3	H	0.390755	0.168221	0.276441
	H4	H	0.721251	0.402548	0.843531
	H5	H	0.720896	0.620249	0.150283
	H6	H	0.271623	0.621342	0.844964
	H7	H	0.277000	0.407343	0.153440
	H8	H	0.838955	0.730560	0.395738
	H9	H	0.153505	0.729783	0.597581
	H10	H	0.842167	0.288083	0.605889
	H11	H	0.149966	0.291048	0.393198
	H12	H	0.842287	0.404595	0.721729
	H13	H	0.153066	0.613747	0.714744
	H14	H	0.839714	0.615984	0.277423
	H15	H	0.150649	0.408045	0.276946
	H16	H	0.390375	0.735249	0.843002
	H17	H	0.604706	0.735113	0.151449
	H18	H	0.602215	0.290077	0.841585
	H19	H	0.392730	0.291647	0.153032
	H20	H	0.716923	0.856823	0.392559
	H21	H	0.715578	0.167463	0.601861
	H22	H	0.277986	0.853469	0.598469
	H23	H	0.274327	0.167578	0.391814
	H24	H	0.891735	0.356617	0.218785
	H25	H	0.100788	0.668877	0.216805
	H26	H	0.101910	0.356492	0.776682
	H27	H	0.893065	0.669063	0.777963
	H28	H	0.211248	0.911767	0.338651
	H29	H	0.216898	0.117291	0.652831
	H30	H	0.773549	0.119437	0.343025
	H31	H	0.775885	0.908683	0.654340
	H32	H	0.339315	0.232176	0.893798
	H33	H	0.649128	0.234523	0.102472
	H34	H	0.341885	0.789490	0.103106
	H35	H	0.650924	0.792662	0.894155
	H36	H	0.341671	0.904924	0.219360
	H37	H	0.649746	0.118611	0.219984
	H38	H	0.339091	0.117110	0.777052
	H39	H	0.650380	0.907558	0.776464
	H40	H	0.892649	0.232524	0.341820
	H41	H	0.103639	0.235184	0.651834
	H42	H	0.093581	0.797864	0.338383
	H43	H	0.894139	0.794513	0.654733
	H44	H	0.217709	0.356347	0.893364
	H45	H	0.215428	0.669178	0.099883
	H46	H	0.774768	0.357095	0.102994
	H47	H	0.773693	0.666917	0.890635
	H48	H	0.400650	0.125411	0.588808
	H49	H	0.591277	0.896759	0.589417
	H50	H	0.584774	0.123165	0.410408
	H51	H	0.405072	0.899922	0.410421
	H52	H	0.580998	0.419123	0.108054
	H53	H	0.583766	0.601698	0.886750
	H54	H	0.402588	0.595501	0.108413
	H55	H	0.408993	0.421801	0.885431
	H56	H	0.108853	0.604193	0.402204
	H57	H	0.885217	0.603099	0.583985
	H58	H	0.109658	0.420500	0.591885
	H59	H	0.883404	0.419337	0.406300
	H60	H	0.104463	0.420686	0.577989
	H61	H	0.885090	0.598667	0.590846
	H62	H	0.107689	0.607299	0.406070
	H63	H	0.885574	0.424165	0.412991
	H64	H	0.413314	0.599985	0.106094
	H65	H	0.586019	0.599322	0.885979
	H66	H	0.590545	0.424253	0.108693
	H67	H	0.403901	0.421203	0.884281
	H68	H	0.586222	0.125632	0.407850
	H69	H	0.577947	0.900398	0.591199
	H70	H	0.407049	0.124190	0.589423
	H71	H	0.403474	0.898375	0.406893
	H72	H	0.907894	0.623308	0.080363
	H73	H	0.080728	0.404266	0.080949
	H74	H	0.083751	0.624117	0.905691
	H75	H	0.905128	0.400437	0.912919
	H76	H	0.093259	0.920564	0.611815
	H77	H	0.080935	0.100207	0.388283
	H78	H	0.903382	0.097380	0.609488
	H79	H	0.908528	0.918988	0.385422
	H80	H	0.607257	0.105719	0.908156
	H81	H	0.387398	0.097832	0.080914
	H82	H	0.605204	0.925290	0.083026
	H83	H	0.382656	0.921762	0.906853
	H84	H	0.606745	0.926537	0.089650
	H85	H	0.385025	0.096160	0.091628
	H86	H	0.603980	0.097648	0.909729
	H87	H	0.383508	0.921868	0.907645
	H88	H	0.909322	0.097569	0.606352
	H89	H	0.085863	0.104417	0.384364
	H90	H	0.085735	0.924492	0.607903
	H91	H	0.898892	0.920903	0.383240
	H92	H	0.085880	0.623572	0.910358
	H93	H	0.095974	0.397096	0.085139
	H94	H	0.903233	0.626105	0.087508
	H95	H	0.907380	0.399200	0.904741
	H96	H	0.404230	0.123267	0.583456
	H97	H	0.584226	0.901927	0.578705
	H98	H	0.582343	0.124023	0.407420
	H99	H	0.407004	0.900484	0.406479
	H100	H	0.582178	0.429240	0.103989
	H101	H	0.583334	0.598238	0.888397
	H102	H	0.404930	0.606647	0.111946
	H103	H	0.405641	0.425589	0.886417
	H104	H	0.106190	0.602317	0.406303
	H105	H	0.882927	0.606803	0.591172
	H106	H	0.102645	0.432623	0.586819
	H107	H	0.884661	0.427557	0.405538
	H108	H	0.911417	0.623532	0.088631
	H109	H	0.083395	0.397834	0.096804
	H110	H	0.088191	0.625324	0.906620
	H111	H	0.912429	0.402557	0.910344
	H112	H	0.085005	0.915399	0.610441
	H113	H	0.087269	0.097614	0.386548
	H114	H	0.907180	0.102808	0.609787
	H115	H	0.904167	0.927581	0.387093
	H116	H	0.607771	0.099145	0.902031
	H117	H	0.383217	0.106369	0.087020
	H118	H	0.607760	0.920250	0.086856
	H119	H	0.383292	0.922477	0.906812
	C120	C	0.373728	0.019793	0.617790
	C121	C	0.615701	1.003271	0.618152
	C122	C	0.616773	0.021016	0.376151
	C123	C	0.373974	1.003154	0.376098
	C124	C	0.617525	0.390577	0.005298
	C125	C	0.617637	0.633198	0.988913
	C126	C	0.374942	0.633683	0.006464
	C127	C	0.374766	0.390976	0.988719
	C128	C	0.003766	0.634477	0.375279
	C129	C	0.988152	0.633389	0.618602
	C130	C	0.004387	0.390320	0.619636
	C131	C	0.987032	0.391675	0.376613
	C132	C	0.875157	0.521212	0.118035
	C133	C	0.117974	0.503543	0.118943
	C134	C	0.118180	0.520945	0.875927
	C135	C	0.875737	0.503612	0.876418
	C136	C	0.116684	0.890858	0.505120
	C137	C	0.117382	0.133318	0.489192
	C138	C	0.874585	0.132840	0.506179
	C139	C	0.873792	0.891257	0.489071
	C140	C	0.503399	0.133248	0.875210
	C141	C	0.487471	0.132900	0.118381
	C142	C	0.504556	0.890761	0.118980
	C143	C	0.486295	0.890740	0.875683
	C144	C	0.373878	0.900994	0.675911
	C145	C	0.616912	0.121268	0.677267
	C146	C	0.618484	0.903367	0.317103
	C147	C	0.372550	0.121288	0.316722
	C148	C	0.679495	0.386014	0.889444
	C149	C	0.679809	0.637402	0.104214
	C150	C	0.313395	0.638255	0.890438
	C151	C	0.316136	0.389000	0.106367
	C152	C	0.885963	0.691828	0.375951
	C153	C	0.106313	0.690420	0.617151
	C154	C	0.888524	0.328649	0.623784
	C155	C	0.103693	0.331720	0.374868
	C156	C	0.888678	0.386657	0.681372
	C157	C	0.106151	0.632793	0.675333
	C158	C	0.886063	0.634424	0.317562
	C159	C	0.103935	0.389740	0.317009
	C160	C	0.371959	0.695086	0.889690
	C161	C	0.621896	0.694681	0.104732
	C162	C	0.620486	0.329797	0.888596
	C163	C	0.373737	0.331326	0.105906
	C164	C	0.676571	0.903548	0.374321
	C165	C	0.675325	0.120929	0.620212
	C166	C	0.316521	0.901137	0.618051
	C167	C	0.314705	0.121130	0.374013
	C168	C	0.873064	0.403591	0.178361
	C169	C	0.119066	0.621704	0.177378
	C170	C	0.120135	0.403201	0.816808
	C171	C	0.873911	0.621653	0.817021
	C172	C	0.172830	0.892185	0.386159
	C173	C	0.177472	0.135787	0.605727
	C174	C	0.814147	0.136769	0.389483
	C175	C	0.815798	0.890259	0.607390
	C176	C	0.386189	0.192649	0.874615
	C177	C	0.603397	0.193940	0.120667
	C178	C	0.388516	0.829670	0.121585
	C179	C	0.603999	0.832130	0.874921
	C180	C	0.388240	0.887249	0.179359
	C181	C	0.603424	0.136602	0.179139
	C182	C	0.386097	0.135365	0.816391
	C183	C	0.603581	0.889328	0.816405
	C184	C	0.873175	0.193202	0.388924
	C185	C	0.120612	0.194161	0.605564
	C186	C	0.114030	0.835816	0.385866
	C187	C	0.874281	0.833247	0.607432
	C188	C	0.177806	0.403179	0.874446
	C189	C	0.176099	0.622013	0.119184
	C190	C	0.815087	0.403647	0.120963
	C191	C	0.814779	0.620591	0.873162
	C192	C	0.397272	0.102720	0.593929
	C193	C	0.591338	0.920943	0.593557
	C194	C	0.591746	0.102972	0.401301
	C195	C	0.398321	0.921153	0.400701
	C196	C	0.591819	0.416582	0.085903
	C197	C	0.591576	0.607162	0.907940
	C198	C	0.399825	0.607901	0.087693
	C199	C	0.399196	0.416008	0.906556
	C200	C	0.086061	0.611184	0.398267
	C201	C	0.905783	0.609600	0.595286
	C202	C	0.084801	0.416999	0.593046
	C203	C	0.905601	0.416282	0.401417
	C204	C	0.900310	0.602994	0.092675
	C205	C	0.093746	0.421216	0.094659
	C206	C	0.093154	0.602996	0.900553
	C207	C	0.901017	0.421900	0.901842
	C208	C	0.094364	0.913634	0.588448
	C209	C	0.092078	0.107973	0.407765
	C210	C	0.899544	0.106835	0.587454
	C211	C	0.897036	0.915498	0.406806
	C212	C	0.585024	0.108089	0.899696
	C213	C	0.406535	0.107390	0.093653
	C214	C	0.585602	0.916592	0.093737
	C215	C	0.404430	0.914995	0.899945
	Zn216	Zn	0.494304	0.011880	0.746693
	Zn217	Zn	0.495285	0.012016	0.247673
	Zn218	Zn	0.746294	0.511847	-0.003251
	Zn219	Zn	0.246144	0.512286	-0.002223
	Zn220	Zn	-0.004389	0.762914	0.497158
	Zn221	Zn	-0.004497	0.261862	0.497986
	Zn222	Zn	-0.003567	0.511937	0.748194
	Zn223	Zn	-0.004412	0.512726	0.246670
	Zn224	Zn	0.496612	0.761809	-0.002356
	Zn225	Zn	0.496142	0.261970	-0.003301
	Zn226	Zn	0.745290	0.012190	0.497762
	Zn227	Zn	0.245351	0.011802	0.496974
	N228	N	0.408691	0.976125	0.676132
	N229	N	0.580520	0.047014	0.676132
	N230	N	0.582071	0.977504	0.318031
	N231	N	0.408756	0.046947	0.317746
	N232	N	0.677835	0.423205	0.962917
	N233	N	0.677425	0.599746	0.030986
	N234	N	0.315253	0.600544	0.963789
	N235	N	0.316495	0.425268	0.032083
	N236	N	0.960300	0.692235	0.411010
	N237	N	0.031523	0.691380	0.582845
	N238	N	0.961606	0.330786	0.586092
	N239	N	0.030036	0.332802	0.411281
	N240	N	0.961979	0.424111	0.679247
	N241	N	0.031525	0.598234	0.676539
	N242	N	0.960451	0.599795	0.316725
	N243	N	0.030303	0.426271	0.317728
	N244	N	0.409693	0.692428	0.962858
	N245	N	0.583755	0.691989	0.031950
	N246	N	0.582215	0.332481	0.961642
	N247	N	0.409434	0.332306	0.031637
	N248	N	0.675977	0.978052	0.410090
	N249	N	0.674849	0.046432	0.584193
	N250	N	0.316196	0.976122	0.582865
	N251	N	0.315272	0.046681	0.410140
	N252	N	0.909633	0.477673	0.176608
	N253	N	0.083462	0.546914	0.177458
	N254	N	0.084017	0.477532	0.817441
	N255	N	0.910904	0.547684	0.818670
	N256	N	0.174775	0.925541	0.461617
	N257	N	0.175794	0.098741	0.532065
	N258	N	0.814821	0.099916	0.463363
	N259	N	0.814973	0.925198	0.532700
	N260	N	0.460268	0.191647	0.910456
	N261	N	0.530318	0.191901	0.083766
	N262	N	0.461907	0.831580	0.084844
	N263	N	0.529952	0.832612	0.910957
	N264	N	0.461709	0.924438	0.178192
	N265	N	0.530420	0.099256	0.178043
	N266	N	0.460119	0.099146	0.816475
	N267	N	0.529249	0.924562	0.816376
	N268	N	0.910039	0.191033	0.462658
	N269	N	0.083747	0.192753	0.531972
	N270	N	0.080058	0.834606	0.460962
	N271	N	0.909619	0.833625	0.532841
	N272	N	0.177151	0.477722	0.910230
	N273	N	0.175713	0.547381	0.083728
	N274	N	0.815973	0.477905	0.084224
	N275	N	0.815646	0.546063	0.909217
	O276	O	0.222915	1.045188	0.215581
	H277	H	0.228831	1.068275	0.226917
	H278	H	0.233784	1.050938	0.228432
	O279	O	0.291726	0.313533	0.700174
	H280	H	0.315296	0.337821	0.705239
	H281	H	0.307545	0.327740	0.700383
	O282	O	0.796780	0.244331	0.789089
	H283	H	0.817323	0.245134	0.795177
	H284	H	0.794077	0.227998	0.790327
	O285	O	0.626900	0.582554	0.590135
	H286	H	0.616732	0.582016	0.578827
	H287	H	0.643307	0.583301	0.584215
	O288	O	0.724770	0.557710	0.438270
	H289	H	0.718005	0.570974	0.430892
	H290	H	0.719544	0.564151	0.443308
	O291	O	0.273518	0.732912	0.460114
	H292	H	0.284695	0.730575	0.418020
	H293	H	0.245211	0.758744	0.456002
	O294	O	0.924373	0.036898	0.950549
	H295	H	0.932534	0.031471	0.951315
	H296	H	0.925084	0.045050	0.956947
	O297	O	-0.115799	0.813978	-0.012807
	H298	H	-0.123651	0.800825	-0.004906
	H299	H	-0.104708	0.820741	0.003531
	O300	O	0.359566	0.497310	0.434389
	H301	H	0.356276	0.497237	0.444007
	H302	H	0.355849	0.497300	0.438609
	O303	O	0.559931	0.725729	0.495575
	H304	H	0.552582	0.721109	0.499205
	H305	H	0.569049	0.739148	0.503233
	O306	O	0.431535	0.473651	0.261937
	H307	H	0.452438	0.463549	0.269302
	H308	H	0.414052	0.470027	0.255832
	O309	O	0.441651	0.513512	0.571599
	H310	H	0.447237	0.505197	0.571858
	H311	H	0.423748	0.517969	0.583335
	O312	O	0.684633	0.463105	0.547335
	H313	H	0.686655	0.479796	0.547627
	H314	H	0.690166	0.466228	0.526169
	O315	O	1.039541	1.225255	1.213186
	H316	H	1.027751	1.255396	1.226186
	H317	H	1.038494	1.212434	1.191729
	O318	O	0.274613	0.290408	0.522178
	H319	H	0.258029	0.273308	0.541437
	H320	H	0.271784	0.288180	0.549020
	O321	O	0.472049	0.470488	0.471042
	H322	H	0.463104	0.469855	0.467758
	H323	H	0.475004	0.468679	0.455861
	O324	O	1.278318	1.550156	-0.718636
	H325	H	1.267758	1.531503	-0.704563
	H326	H	1.267282	1.535348	-0.730783
	O327	O	-0.090523	0.022968	1.087920
	H328	H	-0.087456	0.012003	1.081848
	H329	H	-0.071258	0.019844	1.086395
	O330	O	1.140247	0.133594	0.843412
	H331	H	1.128238	0.128940	0.839956
	H332	H	1.151244	0.156396	0.837379
	O333	O	0.761476	0.110923	0.027964
	H334	H	0.753438	0.121633	0.026684
	H335	H	0.757338	0.106192	0.032971
	O336	O	0.318301	0.525436	0.551373
	H337	H	0.324812	0.535826	0.565332
	H338	H	0.316846	0.543259	0.549977
	O339	O	1.186170	-0.171402	1.186904
	H340	H	1.168976	-0.168653	1.181540
	H341	H	1.184871	-0.157122	1.176791
	O342	O	-0.043254	-0.211598	0.219010
	H343	H	-0.058606	-0.225532	0.228230
	H344	H	-0.055441	-0.217306	0.233273
	O345	O	0.175033	1.056951	0.897997
	H346	H	0.181208	1.076239	0.896204
	H347	H	0.180004	1.047334	0.875289
	O348	O	0.120553	0.095200	-0.017739
	H349	H	0.129087	0.092925	-0.034467
	H350	H	0.131650	0.103507	-0.013670
	O351	O	1.214773	-0.024684	0.774234
	H352	H	1.221697	-0.049902	0.765687
	H353	H	1.231222	-0.036240	0.762560
	O354	O	0.034054	-0.211329	0.771132
	H355	H	0.064910	-0.214358	0.763424
	H356	H	0.053698	-0.232182	0.753508
	O357	O	0.429896	0.544611	0.698748
	H358	H	0.453878	0.544959	0.691517
	H359	H	0.450605	0.548151	0.696332
	O360	O	0.466093	0.730659	0.273327
	H361	H	0.457196	0.758468	0.246631
	H362	H	0.461425	0.722027	0.282753
	O363	O	-0.097882	0.069770	0.199113
	H364	H	-0.082802	0.059619	0.184548
	H365	H	-0.094587	0.061007	0.182519
	O366	O	0.695524	0.331176	0.669478
	H367	H	0.697633	0.314168	0.662369
	H368	H	0.709496	0.343338	0.658876
	O369	O	1.300830	0.321581	0.308403
	H370	H	1.315773	0.339558	0.332493
	H371	H	1.322139	0.332938	0.326636
	O372	O	0.719981	0.738449	0.533704
	H373	H	0.742499	0.761096	0.539905
	H374	H	0.721147	0.739846	0.573997
	O375	O	1.022413	0.073589	-0.234424
	H376	H	1.036968	0.070220	-0.230447
	H377	H	1.034106	0.082019	-0.238332
	O378	O	0.959933	0.058728	0.211384
	H379	H	0.968226	0.076326	0.206900
	H380	H	0.983276	0.049415	0.213670
	O381	O	0.207341	1.220318	1.203260
	H382	H	0.236426	1.252779	1.238699
	H383	H	0.169159	1.212378	1.210533
	O384	O	0.945962	0.236104	1.082192
	H385	H	0.954277	0.231983	1.052039
	H386	H	0.943049	0.240273	1.079609
	O387	O	1.057395	1.218882	-0.078388
	H388	H	1.066146	1.222238	-0.077568
	H389	H	1.068000	1.211350	-0.075222
	O390	O	0.563539	0.462236	0.729407
	H391	H	0.567125	0.455827	0.724494
	H392	H	0.574482	0.460478	0.715129
	O393	O	0.474341	0.300099	0.365567
	H394	H	0.499361	0.299569	0.360471
	H395	H	0.471545	0.294753	0.357487
	O396	O	0.212547	0.893232	1.032052
	H397	H	0.216365	0.914361	1.020362
	H398	H	0.215778	0.898225	1.055423
	O399	O	-0.071659	-0.075438	0.796302
	H400	H	-0.055361	-0.072425	0.792997
	H401	H	-0.049730	-0.073303	0.786936
	O402	O	0.716803	0.546152	0.721517
	H403	H	0.719352	0.546011	0.719935
	H404	H	0.725250	0.540610	0.741689
	O405	O	1.041399	-0.133658	1.027814
	H406	H	1.029173	-0.143761	1.033932
	H407	H	1.039423	-0.138719	1.018574
	O408	O	-0.042129	0.203227	-0.197520
	H409	H	-0.051828	0.207376	-0.198088
	H410	H	-0.046650	0.210025	-0.211888
	O411	O	0.520675	0.726196	0.706794
	H412	H	0.536789	0.746713	0.717382
	H413	H	0.535174	0.737831	0.698293
	O414	O	0.557448	0.571899	0.261016
	H415	H	0.553467	0.584160	0.258304
	H416	H	0.557547	0.571630	0.262632
	O417	O	0.712690	0.486086	0.281813
	H418	H	0.703939	0.494175	0.273814
	H419	H	0.725396	0.478397	0.273386
	O420	O	0.492378	0.297529	0.326099
	H421	H	0.512568	0.277581	0.308135
	H422	H	0.501967	0.293592	0.339868
	O423	O	0.051890	-0.120071	1.143569
	H424	H	0.059092	-0.126126	1.139388
	H425	H	0.049924	-0.124973	1.143902
	O426	O	0.658607	0.353609	0.335216
	H427	H	0.673505	0.335817	0.315037
	H428	H	0.657499	0.386005	0.336050
	O429	O	0.869472	0.805408	0.994359
	H430	H	0.849816	0.797315	0.991277
	H431	H	0.866281	0.804891	0.975703
	O432	O	0.571520	0.295875	0.594602
	H433	H	0.569890	0.299179	0.584857
	H434	H	0.582095	0.303411	0.587839
	O435	O	0.013818	0.926340	-0.003582
	H436	H	0.024606	0.930040	-0.021383
	H437	H	0.006403	0.918353	-0.008743
	O438	O	-0.175754	-0.175737	-0.155923
	H439	H	-0.157957	-0.157626	-0.142695
	H440	H	-0.163315	-0.161111	-0.139495
	O441	O	-0.226771	0.016754	-0.164626
	H442	H	-0.231355	0.019747	-0.171566
	H443	H	-0.227462	0.018764	-0.149502
	O444	O	0.766099	0.243032	0.225683
	H445	H	0.793061	0.215670	0.211863
	H446	H	0.774592	0.247089	0.219538
	O447	O	0.213660	0.857087	0.982787
	H448	H	0.222735	0.850779	0.989855
	H449	H	0.209639	0.880255	0.998597
	O450	O	-0.275384	0.741883	0.726527
	H451	H	-0.246053	0.770219	0.758436
	H452	H	-0.272625	0.703882	0.737783
	O453	O	0.375395	0.625814	0.606240
	H454	H	0.372602	0.645617	0.592631
	H455	H	0.403036	0.629882	0.594166
	O456	O	-0.229658	-0.020343	1.217983
	H457	H	-0.204516	-0.008892	1.230132
	H458	H	-0.251665	-0.020044	1.237952
	O459	O	0.709980	0.296037	0.465219
	H460	H	0.721078	0.286871	0.458666
	H461	H	0.713510	0.297924	0.449002
	O462	O	0.465578	0.720407	0.515621
	H463	H	0.475960	0.709587	0.501333
	H464	H	0.454631	0.720816	0.520254
	O465	O	0.684420	-0.301987	0.309366
	H466	H	0.669983	-0.303802	0.336268
	H467	H	0.680902	-0.314766	0.305843
	O468	O	0.348301	0.431492	0.471859
	H469	H	0.344880	0.434468	0.487306
	H470	H	0.341698	0.415866	0.491233
	O471	O	0.305758	0.698079	0.692518
	H472	H	0.310077	0.679986	0.658868
	H473	H	0.340112	0.680278	0.689506
	O474	O	0.201650	0.804081	0.787262
	H475	H	0.235820	0.770331	0.761879
	H476	H	0.208786	0.807788	0.831725
	O477	O	0.460440	0.302731	1.713203
	H478	H	0.484421	0.299562	1.699491
	H479	H	0.468263	0.295928	1.728627
	O480	O	0.218599	0.231211	0.032102
	H481	H	0.236165	0.244343	0.047771
	H482	H	0.224068	0.239314	0.063070
	O483	O	0.276192	0.483314	0.722153
	H484	H	0.280344	0.494176	0.744620
	H485	H	0.279525	0.493995	0.739676
	O486	O	0.937585	0.195137	0.880680
	H487	H	0.938081	0.177474	0.891694
	H488	H	0.959774	0.194004	0.873930
	O489	O	0.773479	0.991820	-0.109385
	H490	H	0.785844	0.982315	-0.105525
	H491	H	0.767209	0.983878	-0.104996
	O492	O	-0.150164	0.179785	-0.001033
	H493	H	-0.144703	0.176768	-0.017596
	H494	H	-0.157857	0.186960	-0.006607
	O495	O	0.294789	0.716080	1.288576
	H496	H	0.272175	0.712302	1.268278
	H497	H	0.314003	0.688498	1.280873
	O498	O	0.785023	0.802437	1.204071
	H499	H	0.791305	0.830075	1.212809
	H500	H	0.765993	0.795336	1.206874
	O501	O	0.580708	0.524585	0.407562
	H502	H	0.573413	0.522573	0.409754
	H503	H	0.588844	0.523949	0.415175
