data_Molecule from HDF5

_cell_length_a		16.253202
_cell_length_b		16.252668
_cell_length_c		16.264444
_cell_angle_alpha	90.067916
_cell_angle_beta	89.857075
_cell_angle_gamma	89.919711
_symmetry_space_group_name_H-M	'P 1'
_symmetry_Int_Tables_number		1

loop_
	_symmetry_equiv_pos_as_xyz
	x,y,z

loop_
	_atom_site_label
	_atom_site_type_symbol
	_atom_site_fract_x
	_atom_site_fract_y
	_atom_site_fract_z
	H0	H	0.390612	0.830651	0.721830
	H1	H	0.587189	0.158908	0.720853
	H2	H	0.588410	0.830204	0.292229
	H3	H	0.392087	0.159049	0.295583
	H4	H	0.702707	0.397069	0.843240
	H5	H	0.703492	0.594388	0.170810
	H6	H	0.275749	0.593163	0.843214
	H7	H	0.274123	0.397534	0.170883
	H8	H	0.825361	0.708483	0.409068
	H9	H	0.153782	0.706518	0.604603
	H10	H	0.825209	0.278641	0.607180
	H11	H	0.152441	0.279122	0.408677
	H12	H	0.825099	0.395699	0.720880
	H13	H	0.152916	0.591653	0.721081
	H14	H	0.825705	0.592588	0.293108
	H15	H	0.152960	0.393948	0.291543
	H16	H	0.390009	0.709977	0.843541
	H17	H	0.586769	0.709511	0.171219
	H18	H	0.587982	0.279500	0.844343
	H19	H	0.389841	0.281275	0.171414
	H20	H	0.704398	0.829480	0.407820
	H21	H	0.703558	0.158226	0.605836
	H22	H	0.274936	0.829621	0.606062
	H23	H	0.275168	0.158192	0.410323
	H24	H	0.890129	0.329780	0.220238
	H25	H	0.086916	0.657618	0.221881
	H26	H	0.087062	0.329830	0.794030
	H27	H	0.891247	0.658161	0.793315
	H28	H	0.203992	0.894420	0.342539
	H29	H	0.201930	0.090965	0.670767
	H30	H	0.775925	0.091556	0.342249
	H31	H	0.774215	0.895900	0.670861
	H32	H	0.324434	0.208550	0.910432
	H33	H	0.653121	0.209059	0.105625
	H34	H	0.325278	0.781735	0.105589
	H35	H	0.652424	0.779918	0.907819
	H36	H	0.324757	0.898167	0.220683
	H37	H	0.654011	0.092491	0.220568
	H38	H	0.325389	0.094529	0.792430
	H39	H	0.652769	0.896284	0.791981
	H40	H	0.890479	0.207814	0.343519
	H41	H	0.086952	0.207608	0.671015
	H42	H	0.087463	0.778890	0.343507
	H43	H	0.890792	0.780529	0.671745
	H44	H	0.204565	0.331466	0.907861
	H45	H	0.202007	0.658664	0.105088
	H46	H	0.773947	0.329949	0.104775
	H47	H	0.775137	0.659001	0.909860
	H48	H	0.403322	0.109687	0.602546
	H49	H	0.573879	0.879205	0.602607
	H50	H	0.577739	0.108901	0.415935
	H51	H	0.398049	0.880176	0.422133
	H52	H	0.583936	0.401798	0.125007
	H53	H	0.583149	0.581683	0.892143
	H54	H	0.388584	0.579443	0.123421
	H55	H	0.398399	0.395040	0.889415
	H56	H	0.108563	0.589809	0.407670
	H57	H	0.871702	0.586023	0.603151
	H58	H	0.106089	0.395780	0.595810
	H59	H	0.873807	0.410159	0.410699
	H60	H	0.103723	0.406124	0.599062
	H61	H	0.871706	0.590124	0.600243
	H62	H	0.105845	0.589882	0.421144
	H63	H	0.868064	0.394148	0.408198
	H64	H	0.405612	0.588189	0.120460
	H65	H	0.576047	0.589683	0.892077
	H66	H	0.580823	0.404176	0.123620
	H67	H	0.389393	0.403206	0.888966
	H68	H	0.586179	0.110155	0.417791
	H69	H	0.583864	0.880021	0.591428
	H70	H	0.392848	0.109181	0.591680
	H71	H	0.386982	0.873176	0.410401
	H72	H	0.890126	0.612821	0.101741
	H73	H	0.082138	0.379548	0.091260
	H74	H	0.085395	0.614590	0.909133
	H75	H	0.890267	0.377343	0.916846
	H76	H	0.085889	0.897409	0.625619
	H77	H	0.085897	0.085781	0.388857
	H78	H	0.891636	0.085945	0.624152
	H79	H	0.891282	0.901973	0.389500
	H80	H	0.605957	0.083473	0.909833
	H81	H	0.372679	0.081264	0.107176
	H82	H	0.605444	0.903292	0.097389
	H83	H	0.369222	0.894179	0.913060
	H84	H	0.605754	0.903268	0.101376
	H85	H	0.368402	0.096523	0.106091
	H86	H	0.607985	0.092763	0.912193
	H87	H	0.374993	0.905265	0.921611
	H88	H	0.898613	0.083557	0.622368
	H89	H	0.080316	0.084059	0.391726
	H90	H	0.083133	0.905352	0.622211
	H91	H	0.901055	0.903907	0.393132
	H92	H	0.076704	0.610498	0.912351
	H93	H	0.088462	0.374634	0.102185
	H94	H	0.898807	0.611144	0.105077
	H95	H	0.895344	0.375599	0.908614
	H96	H	0.388472	0.114205	0.605924
	H97	H	0.588286	0.875266	0.604631
	H98	H	0.582875	0.111952	0.409803
	H99	H	0.403652	0.876802	0.405889
	H100	H	0.580286	0.400351	0.123829
	H101	H	0.585700	0.591725	0.888211
	H102	H	0.389851	0.598130	0.128298
	H103	H	0.400888	0.406455	0.892904
	H104	H	0.103544	0.578507	0.413770
	H105	H	0.873057	0.585694	0.597855
	H106	H	0.108119	0.398253	0.606279
	H107	H	0.874456	0.398605	0.422495
	H108	H	0.896800	0.609515	0.096133
	H109	H	0.075215	0.378207	0.103199
	H110	H	0.084577	0.610333	0.918773
	H111	H	0.900102	0.379627	0.916135
	H112	H	0.077544	0.898860	0.623286
	H113	H	0.080987	0.090164	0.389596
	H114	H	0.897309	0.090349	0.624700
	H115	H	0.898231	0.894906	0.389364
	H116	H	0.603764	0.086824	0.918537
	H117	H	0.374579	0.089050	0.093016
	H118	H	0.606629	0.899691	0.099605
	H119	H	0.371381	0.907306	0.907431
	C120	C	0.366913	0.002506	0.628870
	C121	C	0.610372	0.986550	0.628237
	C122	C	0.611296	0.002163	0.385426
	C123	C	0.367667	0.985420	0.385518
	C124	C	0.610093	0.373390	0.016080
	C125	C	0.610113	0.616691	0.998940
	C126	C	0.366631	0.617158	0.015721
	C127	C	0.367382	0.373738	0.998952
	C128	C	-0.002299	0.615125	0.385697
	C129	C	0.980465	0.615692	0.628929
	C130	C	-0.002642	0.371675	0.628957
	C131	C	0.980431	0.372266	0.385278
	C132	C	0.866764	0.502608	0.128768
	C133	C	0.109887	0.486094	0.127416
	C134	C	0.110814	0.503375	0.884831
	C135	C	0.867017	0.485847	0.885620
	C136	C	0.110700	0.872005	0.515265
	C137	C	0.110397	0.115145	0.498454
	C138	C	0.867517	0.115016	0.515158
	C139	C	0.867798	0.872156	0.499143
	C140	C	0.497229	0.116180	0.886032
	C141	C	0.480609	0.117196	0.130076
	C142	C	0.497507	0.874071	0.128056
	C143	C	0.480287	0.873642	0.885564
	C144	C	0.369915	0.879283	0.683709
	C145	C	0.607417	0.109911	0.683002
	C146	C	0.608914	0.878865	0.330215
	C147	C	0.370951	0.109602	0.332273
	C148	C	0.665171	0.376122	0.892333
	C149	C	0.665133	0.614461	0.122187
	C150	C	0.312650	0.614243	0.892263
	C151	C	0.311986	0.376800	0.122058
	C152	C	0.874198	0.670348	0.388778
	C153	C	0.104422	0.669542	0.625844
	C154	C	0.874198	0.316742	0.626669
	C155	C	0.103836	0.316957	0.387684
	C156	C	0.874298	0.374559	0.683888
	C157	C	0.103991	0.612261	0.683570
	C158	C	0.874342	0.612916	0.330939
	C159	C	0.103887	0.373730	0.329435
	C160	C	0.369756	0.671924	0.892505
	C161	C	0.607210	0.671871	0.122250
	C162	C	0.608081	0.317927	0.892704
	C163	C	0.369512	0.319129	0.122384
	C164	C	0.666208	0.878545	0.388038
	C165	C	0.665414	0.109630	0.625879
	C166	C	0.312492	0.878812	0.626010
	C167	C	0.313177	0.109178	0.389434
	C168	C	0.869572	0.378826	0.182840
	C169	C	0.107103	0.608936	0.183378
	C170	C	0.107616	0.379242	0.831068
	C171	C	0.870390	0.609443	0.831087
	C172	C	0.165875	0.874342	0.391797
	C173	C	0.164436	0.112057	0.621905
	C174	C	0.813438	0.111841	0.391633
	C175	C	0.812655	0.875321	0.622420
	C176	C	0.373384	0.170913	0.889443
	C177	C	0.604115	0.171653	0.126474
	C178	C	0.373961	0.819461	0.125939
	C179	C	0.603705	0.818089	0.887498
	C180	C	0.373819	0.877486	0.182943
	C181	C	0.604503	0.113977	0.184011
	C182	C	0.373756	0.114235	0.831056
	C183	C	0.603939	0.875980	0.830151
	C184	C	0.869963	0.170028	0.392078
	C185	C	0.107299	0.169940	0.621933
	C186	C	0.108426	0.816678	0.392143
	C187	C	0.870122	0.817394	0.622360
	C188	C	0.166131	0.380015	0.887339
	C189	C	0.164346	0.609622	0.125350
	C190	C	0.811699	0.379082	0.125508
	C191	C	0.812846	0.609827	0.888933
	C192	C	0.388695	0.088767	0.606587
	C193	C	0.588372	0.900305	0.606167
	C194	C	0.588831	0.088135	0.407877
	C195	C	0.389733	0.899008	0.406529
	C196	C	0.588152	0.395467	0.101932
	C197	C	0.588097	0.594417	0.912926
	C198	C	0.388410	0.595076	0.101859
	C199	C	0.389615	0.395268	0.912773
	C200	C	0.083650	0.592530	0.407676
	C201	C	0.894210	0.593732	0.606885
	C202	C	0.083795	0.393522	0.606878
	C203	C	0.894456	0.394402	0.407373
	C204	C	0.888798	0.588920	0.107338
	C205	C	0.088315	0.399552	0.105404
	C206	C	0.088742	0.589528	0.906714
	C207	C	0.888718	0.399648	0.907434
	C208	C	0.088580	0.894100	0.601440
	C209	C	0.088752	0.093122	0.412370
	C210	C	0.889319	0.093159	0.601506
	C211	C	0.890194	0.893983	0.412761
	C212	C	0.583459	0.094216	0.907204
	C213	C	0.394206	0.095328	0.108524
	C214	C	0.583700	0.895651	0.105994
	C215	C	0.394197	0.895811	0.907535
	Zn216	Zn	0.488480	-0.005095	0.756896
	Zn217	Zn	0.489608	-0.005360	0.257330
	Zn218	Zn	0.738401	0.494958	0.007533
	Zn219	Zn	0.238595	0.495464	0.006521
	Zn220	Zn	-0.010299	0.743569	0.507385
	Zn221	Zn	-0.011377	0.243581	0.506868
	Zn222	Zn	-0.010909	0.494025	0.757122
	Zn223	Zn	-0.011205	0.493630	0.256827
	Zn224	Zn	0.488463	0.745310	0.007195
	Zn225	Zn	0.488613	0.244766	0.007473
	Zn226	Zn	0.739062	-0.005894	0.507264
	Zn227	Zn	0.239313	-0.006283	0.506755
	N228	N	0.402966	0.957180	0.685640
	N229	N	0.573982	0.032136	0.684677
	N230	N	0.575321	0.956627	0.328384
	N231	N	0.404416	0.031663	0.329814
	N232	N	0.666383	0.410028	0.969943
	N233	N	0.667045	0.580885	0.044643
	N234	N	0.310918	0.580614	0.969821
	N235	N	0.310635	0.410042	0.044308
	N236	N	0.951964	0.671960	0.422020
	N237	N	0.026673	0.671836	0.592709
	N238	N	0.951951	0.315085	0.593047
	N239	N	0.026230	0.315757	0.421628
	N240	N	0.951973	0.408065	0.685362
	N241	N	0.025926	0.579514	0.685593
	N242	N	0.951910	0.579060	0.329213
	N243	N	0.026302	0.407578	0.327932
	N244	N	0.402535	0.673981	0.970270
	N245	N	0.573445	0.673015	0.044637
	N246	N	0.574709	0.316110	0.970471
	N247	N	0.403055	0.316974	0.044688
	N248	N	0.667718	0.956282	0.421510
	N249	N	0.667126	0.031927	0.592518
	N250	N	0.310543	0.956524	0.592654
	N251	N	0.310958	0.031075	0.421735
	N252	N	0.902914	0.456560	0.184992
	N253	N	0.073817	0.531226	0.184428
	N254	N	0.073738	0.456840	0.829671
	N255	N	0.903271	0.531426	0.828944
	N256	N	0.167512	0.908109	0.469518
	N257	N	0.166511	0.078779	0.544244
	N258	N	0.811625	0.078486	0.469419
	N259	N	0.810962	0.908387	0.544665
	N260	N	0.451050	0.172078	0.922987
	N261	N	0.526150	0.173774	0.093846
	N262	N	0.451717	0.817260	0.092548
	N263	N	0.525956	0.816391	0.921056
	N264	N	0.451498	0.910773	0.184371
	N265	N	0.526587	0.080897	0.186357
	N266	N	0.451628	0.081021	0.828677
	N267	N	0.526276	0.909833	0.828808
	N268	N	0.903062	0.171901	0.469734
	N269	N	0.074400	0.171942	0.544030
	N270	N	0.075098	0.815213	0.469804
	N271	N	0.903921	0.815685	0.544758
	N272	N	0.168305	0.458054	0.920060
	N273	N	0.166119	0.532116	0.091380
	N274	N	0.809723	0.457114	0.092639
	N275	N	0.810799	0.532036	0.922227
	O276	O	1.546327	0.439712	0.507683
	H277	H	1.539741	0.435828	0.514318
	H278	H	1.556012	0.430599	0.510839
	O279	O	0.547576	0.452275	0.518784
	H280	H	0.554598	0.455105	0.519396
	H281	H	0.554818	0.450029	0.516247
	O282	O	1.556868	1.457372	-0.492633
	H283	H	1.552375	1.450862	-0.495911
	H284	H	1.565566	1.456936	-0.492706
	O285	O	0.541256	0.455107	0.533296
	H286	H	0.535071	0.465920	0.530127
	H287	H	0.532766	0.463024	0.532599
