data_Molecule from HDF5

_cell_length_a		16.507100
_cell_length_b		16.566643
_cell_length_c		16.514757
_cell_angle_alpha	89.893463
_cell_angle_beta	90.016985
_cell_angle_gamma	90.070152
_symmetry_space_group_name_H-M	'P 1'
_symmetry_Int_Tables_number		1

loop_
	_symmetry_equiv_pos_as_xyz
	x,y,z

loop_
	_atom_site_label
	_atom_site_type_symbol
	_atom_site_fract_x
	_atom_site_fract_y
	_atom_site_fract_z
	H0	H	0.423403	0.874936	0.719175
	H1	H	0.634445	0.187439	0.720183
	H2	H	0.634477	0.875461	0.276453
	H3	H	0.425842	0.189457	0.277326
	H4	H	0.746446	0.428561	0.840759
	H5	H	0.747932	0.634486	0.155220
	H6	H	0.304959	0.638440	0.842685
	H7	H	0.305307	0.426013	0.154776
	H8	H	0.871372	0.753262	0.393957
	H9	H	0.187054	0.751243	0.602082
	H10	H	0.872594	0.309687	0.603951
	H11	H	0.184985	0.309627	0.390657
	H12	H	0.871097	0.428546	0.717583
	H13	H	0.186265	0.635828	0.719828
	H14	H	0.870991	0.637752	0.276528
	H15	H	0.184353	0.425556	0.274100
	H16	H	0.421307	0.755888	0.842955
	H17	H	0.632121	0.751329	0.156426
	H18	H	0.631915	0.310534	0.841666
	H19	H	0.419759	0.307546	0.153790
	H20	H	0.751873	0.875571	0.392088
	H21	H	0.751405	0.187364	0.604911
	H22	H	0.309169	0.874090	0.600573
	H23	H	0.308618	0.189514	0.393626
	H24	H	0.922127	0.374861	0.219595
	H25	H	0.134939	0.686896	0.221268
	H26	H	0.132808	0.374468	0.777560
	H27	H	0.924786	0.688910	0.777909
	H28	H	0.246883	0.930459	0.338757
	H29	H	0.250010	0.136122	0.656040
	H30	H	0.808143	0.135987	0.341175
	H31	H	0.809007	0.927670	0.655754
	H32	H	0.369929	0.252762	0.893509
	H33	H	0.685482	0.253740	0.103466
	H34	H	0.372107	0.809696	0.106052
	H35	H	0.685110	0.812871	0.895925
	H36	H	0.372063	0.927155	0.220352
	H37	H	0.685835	0.138063	0.219627
	H38	H	0.370475	0.137589	0.776420
	H39	H	0.685189	0.928213	0.778406
	H40	H	0.925211	0.251465	0.340770
	H41	H	0.136742	0.254703	0.654767
	H42	H	0.133017	0.811471	0.340039
	H43	H	0.923863	0.810613	0.655378
	H44	H	0.250597	0.375511	0.892217
	H45	H	0.252266	0.686407	0.106007
	H46	H	0.806360	0.374226	0.102200
	H47	H	0.808005	0.689194	0.894902
	H48	H	0.439604	0.143137	0.582892
	H49	H	0.616474	0.917027	0.595312
	H50	H	0.612247	0.141468	0.408779
	H51	H	0.436406	0.918973	0.408745
	H52	H	0.609613	0.448248	0.106874
	H53	H	0.613979	0.624627	0.885651
	H54	H	0.443361	0.628888	0.112523
	H55	H	0.434643	0.438307	0.882795
	H56	H	0.138829	0.619286	0.413158
	H57	H	0.914530	0.620691	0.593351
	H58	H	0.141859	0.441532	0.585299
	H59	H	0.915278	0.444516	0.406599
	H60	H	0.140519	0.445955	0.586644
	H61	H	0.914597	0.626959	0.585765
	H62	H	0.140260	0.617470	0.405736
	H63	H	0.915831	0.439193	0.410536
	H64	H	0.431887	0.617647	0.112768
	H65	H	0.618840	0.625680	0.884648
	H66	H	0.613213	0.433658	0.112744
	H67	H	0.437432	0.450529	0.887527
	H68	H	0.620612	0.142775	0.414549
	H69	H	0.611448	0.922296	0.584222
	H70	H	0.434430	0.146033	0.589536
	H71	H	0.437932	0.918437	0.405803
	H72	H	0.939969	0.643772	0.086297
	H73	H	0.113719	0.422482	0.081538
	H74	H	0.114180	0.642568	0.910543
	H75	H	0.938060	0.420228	0.912631
	H76	H	0.125599	0.935445	0.614041
	H77	H	0.119505	0.118080	0.387070
	H78	H	0.941909	0.121067	0.610378
	H79	H	0.933026	0.936907	0.381089
	H80	H	0.643975	0.126443	0.903794
	H81	H	0.415814	0.123695	0.084572
	H82	H	0.639944	0.945790	0.086472
	H83	H	0.413581	0.938658	0.909982
	H84	H	0.642708	0.940622	0.090436
	H85	H	0.418497	0.116640	0.083827
	H86	H	0.638005	0.124433	0.916843
	H87	H	0.416984	0.945655	0.914486
	H88	H	0.939698	0.122511	0.611845
	H89	H	0.114512	0.121164	0.387398
	H90	H	0.120522	0.947746	0.609224
	H91	H	0.938711	0.953896	0.388079
	H92	H	0.118532	0.643651	0.910424
	H93	H	0.119490	0.418046	0.086235
	H94	H	0.935621	0.643591	0.085674
	H95	H	0.929975	0.416443	0.907070
	H96	H	0.443178	0.144013	0.590786
	H97	H	0.624224	0.918569	0.584217
	H98	H	0.620392	0.145573	0.405127
	H99	H	0.439565	0.919688	0.408119
	H100	H	0.624142	0.445488	0.112906
	H101	H	0.617331	0.620753	0.885446
	H102	H	0.446477	0.614517	0.106085
	H103	H	0.446771	0.440731	0.888569
	H104	H	0.142269	0.624964	0.408223
	H105	H	0.918333	0.617993	0.584859
	H106	H	0.142330	0.442751	0.589595
	H107	H	0.918100	0.444771	0.412823
	H108	H	0.937036	0.644785	0.089137
	H109	H	0.111705	0.420064	0.089751
	H110	H	0.116056	0.643803	0.906832
	H111	H	0.939837	0.418000	0.902273
	H112	H	0.111649	0.936980	0.610410
	H113	H	0.119050	0.123245	0.384418
	H114	H	0.939473	0.119344	0.611111
	H115	H	0.951075	0.939245	0.388038
	H116	H	0.637954	0.113707	0.907193
	H117	H	0.415271	0.118781	0.090563
	H118	H	0.641434	0.939083	0.084468
	H119	H	0.414469	0.946435	0.905555
	C120	C	0.407306	0.040311	0.619144
	C121	C	0.649967	1.022693	0.620051
	C122	C	0.650424	0.040179	0.377008
	C123	C	0.406829	1.023330	0.375959
	C124	C	0.647387	0.411030	0.006697
	C125	C	0.648729	0.653677	0.989588
	C126	C	0.406819	0.653621	0.007440
	C127	C	0.406273	0.410339	0.989799
	C128	C	0.036566	0.652675	0.376602
	C129	C	1.020225	0.653154	0.619784
	C130	C	0.037606	0.410992	0.619163
	C131	C	1.020041	0.410416	0.376666
	C132	C	0.905416	0.540291	0.119245
	C133	C	0.148642	0.523290	0.119268
	C134	C	0.148994	0.539934	0.877011
	C135	C	0.905253	0.522701	0.876196
	C136	C	0.150232	0.909873	0.506324
	C137	C	0.150416	0.153042	0.490177
	C138	C	0.908192	0.152956	0.507053
	C139	C	0.908282	0.910836	0.489627
	C140	C	0.535904	0.153195	0.876859
	C141	C	0.520238	0.152944	0.119047
	C142	C	0.537254	0.910400	0.119808
	C143	C	0.519047	0.911391	0.878039
	C144	C	0.405194	0.921819	0.678827
	C145	C	0.652800	0.140296	0.680152
	C146	C	0.652832	0.922393	0.316587
	C147	C	0.406295	0.142178	0.316995
	C148	C	0.707005	0.409616	0.888052
	C149	C	0.708098	0.653562	0.108227
	C150	C	0.345201	0.657010	0.889779
	C151	C	0.345535	0.407614	0.107915
	C152	C	0.918390	0.713023	0.375038
	C153	C	0.139363	0.711867	0.621245
	C154	C	0.919408	0.350514	0.621607
	C155	C	0.137894	0.349985	0.373037
	C156	C	0.918623	0.409521	0.678045
	C157	C	0.138918	0.654406	0.679702
	C158	C	0.918208	0.655714	0.316734
	C159	C	0.137575	0.407580	0.314906
	C160	C	0.402959	0.715167	0.889733
	C161	C	0.650951	0.711953	0.108685
	C162	C	0.650056	0.351029	0.888407
	C163	C	0.402354	0.348811	0.107223
	C164	C	0.711222	0.922453	0.374106
	C165	C	0.711034	0.140291	0.622551
	C166	C	0.348853	0.921247	0.619516
	C167	C	0.348518	0.142395	0.375338
	C168	C	0.903485	0.421979	0.179451
	C169	C	0.152545	0.640317	0.180634
	C170	C	0.151157	0.421612	0.817496
	C171	C	0.905249	0.641607	0.817525
	C172	C	0.207971	0.910764	0.386556
	C173	C	0.210539	0.155018	0.608548
	C174	C	0.848555	0.154516	0.388349
	C175	C	0.848549	0.908906	0.608350
	C176	C	0.417169	0.212674	0.875139
	C177	C	0.638411	0.213649	0.121427
	C178	C	0.419090	0.850155	0.123455
	C179	C	0.637830	0.852353	0.876774
	C180	C	0.419257	0.908560	0.180338
	C181	C	0.638547	0.156032	0.179328
	C182	C	0.417694	0.155880	0.816384
	C183	C	0.637865	0.909843	0.818571
	C184	C	0.906889	0.211968	0.388061
	C185	C	0.154341	0.214257	0.607651
	C186	C	0.151377	0.851535	0.387081
	C187	C	0.906079	0.850836	0.608091
	C188	C	0.209880	0.422257	0.874386
	C189	C	0.211071	0.639802	0.123573
	C190	C	0.846222	0.421603	0.120973
	C191	C	0.847124	0.641692	0.875468
	C192	C	0.432037	0.122770	0.594797
	C193	C	0.624593	0.940598	0.594929
	C194	C	0.625093	0.121980	0.402361
	C195	C	0.431002	0.940740	0.400315
	C196	C	0.622565	0.435409	0.089488
	C197	C	0.623667	0.630217	0.906777
	C198	C	0.433051	0.627610	0.089162
	C199	C	0.432140	0.435970	0.907702
	C200	C	0.119012	0.627599	0.401840
	C201	C	0.937474	0.628951	0.594933
	C202	C	0.120112	0.435952	0.594412
	C203	C	0.937861	0.435721	0.402587
	C204	C	0.930331	0.622573	0.094272
	C205	C	0.122487	0.441482	0.093157
	C206	C	0.123725	0.621945	0.902217
	C207	C	0.929053	0.439750	0.900437
	C208	C	0.126141	0.933253	0.589485
	C209	C	0.124976	0.128076	0.407846
	C210	C	0.932984	0.128069	0.589681
	C211	C	0.933660	0.936084	0.407256
	C212	C	0.618372	0.128656	0.901942
	C213	C	0.437886	0.127153	0.093641
	C214	C	0.619916	0.934902	0.094409
	C215	C	0.436577	0.936420	0.902908
	Zn216	Zn	0.527563	0.031745	0.748446
	Zn217	Zn	0.529392	0.032021	0.247811
	Zn218	Zn	0.776653	0.531664	-0.001980
	Zn219	Zn	0.277924	0.531585	-0.001812
	Zn220	Zn	0.029124	0.781432	0.497622
	Zn221	Zn	0.029246	0.282179	0.498459
	Zn222	Zn	0.028414	0.531345	0.748649
	Zn223	Zn	0.027180	0.531338	0.247558
	Zn224	Zn	0.527922	0.782252	-0.001038
	Zn225	Zn	0.527711	0.281508	-0.001489
	Zn226	Zn	0.779023	0.031503	0.498363
	Zn227	Zn	0.278525	0.031972	0.498064
	N228	N	0.440678	0.996883	0.678836
	N229	N	0.615706	0.066152	0.678929
	N230	N	0.615730	0.996559	0.318247
	N231	N	0.441798	0.067335	0.317277
	N232	N	0.705280	0.446437	0.962472
	N233	N	0.706910	0.618122	0.033240
	N234	N	0.347230	0.619592	0.963946
	N235	N	0.347987	0.445433	0.033895
	N236	N	0.993049	0.711283	0.411436
	N237	N	0.064432	0.711538	0.584985
	N238	N	0.994459	0.351271	0.585817
	N239	N	0.063841	0.351635	0.410633
	N240	N	0.993257	0.446263	0.676872
	N241	N	0.063783	0.618666	0.678946
	N242	N	0.992858	0.619112	0.317280
	N243	N	0.063043	0.444561	0.317042
	N244	N	0.440388	0.713112	0.963973
	N245	N	0.614548	0.712092	0.033911
	N246	N	0.613615	0.351985	0.963223
	N247	N	0.439431	0.350563	0.032907
	N248	N	0.709873	0.996660	0.410960
	N249	N	0.709530	0.066034	0.585911
	N250	N	0.349972	0.995729	0.583141
	N251	N	0.348529	0.067401	0.410947
	N252	N	0.939722	0.496741	0.178615
	N253	N	0.114623	0.566542	0.178316
	N254	N	0.114316	0.495909	0.818822
	N255	N	0.940538	0.566503	0.817598
	N256	N	0.207673	0.946031	0.461737
	N257	N	0.208416	0.117862	0.534344
	N258	N	0.848990	0.118732	0.463455
	N259	N	0.849687	0.945388	0.533655
	N260	N	0.491870	0.211574	0.911731
	N261	N	0.563579	0.211913	0.084898
	N262	N	0.493554	0.851355	0.086382
	N263	N	0.562912	0.853104	0.912918
	N264	N	0.493672	0.945462	0.178112
	N265	N	0.564018	0.119051	0.178031
	N266	N	0.492444	0.119571	0.817400
	N267	N	0.562984	0.945817	0.819287
	N268	N	0.942919	0.211452	0.463014
	N269	N	0.117773	0.213370	0.532935
	N270	N	0.116605	0.850520	0.462689
	N271	N	0.942312	0.851551	0.533180
	N272	N	0.208771	0.496875	0.910628
	N273	N	0.208746	0.565957	0.086254
	N274	N	0.847094	0.496159	0.084581
	N275	N	0.846859	0.566749	0.910849
	O276	O	1.134197	1.188320	0.982530
	H277	H	1.124172	1.185446	0.987991
	H278	H	1.141295	1.200175	0.985977
	O279	O	0.048996	0.095735	1.027208
	H280	H	0.060913	0.092513	1.032705
	H281	H	0.046041	0.103872	1.032193
	O282	O	0.618085	0.312254	0.455978
	H283	H	0.617310	0.298316	0.463559
	H284	H	0.595151	0.304687	0.464590
	O285	O	0.130883	-0.184311	1.081588
	H286	H	0.137565	-0.182319	1.061923
	H287	H	0.136798	-0.193640	1.080037
	O288	O	0.844531	-0.195781	0.816225
	H289	H	0.855317	-0.182159	0.834626
	H290	H	0.860459	-0.183963	0.831465
	O291	O	0.238549	0.151519	0.170982
	H292	H	0.250269	0.150155	0.168365
	H293	H	0.236669	0.163074	0.173778
	O294	O	-0.128865	0.177367	0.112845
	H295	H	-0.123005	0.152550	0.114613
	H296	H	-0.140993	0.173724	0.114599
	O297	O	0.691873	-0.300853	0.315596
	H298	H	0.701159	-0.297633	0.311578
	H299	H	0.676091	-0.326948	0.320161
	O300	O	0.219771	0.027391	0.003250
	H301	H	0.232572	0.037331	-0.008296
	H302	H	0.228594	0.053341	0.020140
	O303	O	-0.006722	0.044431	0.097406
	H304	H	0.007789	0.041854	0.090838
	H305	H	0.002413	0.043167	0.100427
	O306	O	1.011393	-0.094155	0.134269
	H307	H	0.999225	-0.099940	0.133427
	H308	H	1.025914	-0.107010	0.136515
	O309	O	0.352154	0.572812	0.562522
	H310	H	0.359321	0.580099	0.556468
	H311	H	0.346770	0.596527	0.580368
	O312	O	-0.984114	-1.137619	0.918853
	H313	H	-0.974605	-1.111334	0.918447
	H314	H	-0.967603	-1.142559	0.915533
	O315	O	0.440121	0.525609	0.552853
	H316	H	0.436870	0.535398	0.548452
	H317	H	0.434596	0.539184	0.541798
	O318	O	1.035841	1.182292	-0.043426
	H319	H	1.027713	1.185853	-0.039606
	H320	H	1.025813	1.187959	-0.037543
	O321	O	0.066690	0.847776	0.778262
	H322	H	0.081973	0.844395	0.779692
	H323	H	0.056767	0.835302	0.757478
	O324	O	1.161823	0.074351	1.211448
	H325	H	1.181603	0.072081	1.225613
	H326	H	1.173441	0.089457	1.197300
	O327	O	0.437646	0.502482	0.498520
	H328	H	0.434818	0.506831	0.512559
	H329	H	0.449130	0.513217	0.497497
	O330	O	0.436529	0.344592	0.386821
	H331	H	0.425615	0.341977	0.398452
	H332	H	0.438689	0.334748	0.369038
	O333	O	0.511626	0.644473	0.347534
	H334	H	0.519563	0.634459	0.347619
	H335	H	0.524210	0.643865	0.345672
	O336	O	0.311484	0.750057	0.469636
	H337	H	0.292530	0.776613	0.459496
	H338	H	0.309193	0.744086	0.436134
	O339	O	0.514986	0.559183	0.403776
	H340	H	0.507484	0.562757	0.401760
	H341	H	0.522517	0.556485	0.416133
	O342	O	-0.267338	0.563087	-0.295487
	H343	H	-0.269029	0.559801	-0.294780
	H344	H	-0.263460	0.558713	-0.283407
	O345	O	0.307302	0.561843	0.283269
	H346	H	0.280237	0.565594	0.255358
	H347	H	0.320901	0.568650	0.286120
	O348	O	0.558222	0.755468	0.477817
	H349	H	0.561749	0.761983	0.487850
	H350	H	0.567128	0.752552	0.478556
	O351	O	-0.812210	-0.756529	1.832278
	H352	H	-0.792439	-0.734325	1.814692
	H353	H	-0.833921	-0.745760	1.840294
	O354	O	0.833026	0.164937	0.914774
	H355	H	0.852594	0.165364	0.923525
	H356	H	0.823666	0.147611	0.926360
	O357	O	0.562190	0.551762	0.372970
	H358	H	0.563387	0.532736	0.368933
	H359	H	0.570097	0.546083	0.384341
	O360	O	0.412447	0.466490	0.623210
	H361	H	0.426589	0.482633	0.626168
	H362	H	0.394145	0.466513	0.648967
	O363	O	1.330355	0.431149	0.480431
	H364	H	1.347350	0.451530	0.490387
	H365	H	1.335833	0.454361	0.489130
	O366	O	-0.184397	0.015786	1.198312
	H367	H	-0.165797	-0.002628	1.197423
	H368	H	-0.203306	0.004365	1.220719
	O369	O	-0.156241	-0.179442	1.170228
	H370	H	-0.154501	-0.184071	1.149972
	H371	H	-0.160731	-0.173416	1.164759
	O372	O	-0.272508	1.327805	1.297481
	H373	H	-0.291539	1.319132	1.291708
	H374	H	-0.265320	1.339846	1.328976
	O375	O	1.194069	0.137110	-0.011993
	H376	H	1.193729	0.132736	-0.006686
	H377	H	1.182595	0.143303	-0.005006
	O378	O	0.551520	0.317832	0.282114
	H379	H	0.555149	0.317272	0.270319
	H380	H	0.556343	0.315678	0.277801
	O381	O	0.226799	0.850359	-0.192719
	H382	H	0.228609	0.871068	-0.187216
	H383	H	0.222165	0.852970	-0.207557
	O384	O	0.395672	0.480690	0.373028
	H385	H	0.389879	0.496394	0.379458
	H386	H	0.387214	0.486710	0.366526
	O387	O	0.738613	0.505161	0.286931
	H388	H	0.752429	0.486237	0.291438
	H389	H	0.744045	0.498262	0.280280
	O390	O	-0.001792	0.974095	0.781278
	H391	H	0.006908	0.985888	0.779249
	H392	H	0.000568	0.972554	0.779286
	O393	O	0.997013	-0.185030	0.211243
	H394	H	0.993159	-0.202903	0.214167
	H395	H	0.989832	-0.198107	0.211336
	O396	O	0.576961	0.533069	0.660919
	H397	H	0.589857	0.531267	0.644803
	H398	H	0.584680	0.535189	0.663163
	O399	O	0.442254	0.727865	0.482984
	H400	H	0.460307	0.727245	0.483875
	H401	H	0.462561	0.730506	0.476378
	O402	O	1.022116	0.168661	0.850432
	H403	H	1.020806	0.185340	0.826170
	H404	H	1.004833	0.172584	0.850958
	O405	O	1.038862	0.059164	0.099523
	H406	H	1.042703	0.047854	0.104059
	H407	H	1.047568	0.053628	0.113742
	O408	O	1.228373	0.899208	1.133471
	H409	H	1.224224	0.914593	1.127156
	H410	H	1.219626	0.888495	1.112068
	O411	O	0.679788	1.308881	0.509025
	H412	H	0.678052	1.301140	0.526756
	H413	H	0.669651	1.310097	0.499124
	O414	O	-0.169858	-0.112390	0.002316
	H415	H	-0.164787	-0.115994	-0.015074
	H416	H	-0.175142	-0.101703	-0.010632
	O417	O	0.329991	0.730763	0.301989
	H418	H	0.352860	0.708955	0.293638
	H419	H	0.343519	0.747667	0.287583
	O420	O	0.743174	-0.250905	0.532611
	H421	H	0.752186	-0.240313	0.543374
	H422	H	0.757533	-0.251752	0.544334
	O423	O	1.235262	0.817052	-0.042583
	H424	H	1.240206	0.814241	-0.054563
	H425	H	1.243857	0.814104	-0.052945
	O426	O	0.354012	0.331411	0.702255
	H427	H	0.359382	0.338702	0.691690
	H428	H	0.355369	0.354020	0.683779
	O429	O	0.743722	0.329689	0.703500
	H430	H	0.730634	0.319302	0.697243
	H431	H	0.741197	0.350148	0.695801
	O432	O	1.023293	0.238815	1.123498
	H433	H	1.020717	0.244707	1.133834
	H434	H	1.027059	0.221912	1.134584
	O435	O	0.725746	0.731911	0.697212
	H436	H	0.743717	0.734376	0.695882
	H437	H	0.728898	0.721835	0.710997
	O438	O	0.834610	1.240354	-0.172468
	H439	H	0.811080	1.251583	-0.180164
	H440	H	0.828243	1.241429	-0.131167
	O441	O	0.732639	0.560805	0.449936
	H442	H	0.738185	0.569290	0.443797
	H443	H	0.722789	0.560696	0.458400
	O444	O	0.341864	0.795478	0.791234
	H445	H	0.351799	0.807710	0.789995
	H446	H	0.354136	0.798415	0.779926
	O447	O	-0.121237	1.120915	-0.216230
	H448	H	-0.134523	1.132053	-0.224768
	H449	H	-0.131896	1.140885	-0.224554
	O450	O	0.743452	-0.501501	-0.462512
	H451	H	0.743249	-0.506313	-0.461743
	H452	H	0.741679	-0.509175	-0.468527
	O453	O	0.548740	0.743785	0.701564
	H454	H	0.568438	0.746291	0.694475
	H455	H	0.558158	0.761114	0.713577
	O456	O	0.138493	1.233315	1.198145
	H457	H	0.127608	1.218841	1.180218
	H458	H	0.135715	1.228974	1.215164
	O459	O	0.473262	0.728283	0.540224
	H460	H	0.469321	0.736285	0.530375
	H461	H	0.468716	0.731452	0.549032
	O462	O	0.571662	0.485504	0.709826
	H463	H	0.579747	0.481954	0.716990
	H464	H	0.568109	0.482657	0.706025
	O465	O	0.509682	0.315300	0.682292
	H466	H	0.496383	0.315703	0.681450
	H467	H	0.497596	0.309354	0.687558
	O468	O	-0.173886	-0.012518	0.022888
	H469	H	-0.174297	-0.005702	0.049604
	H470	H	-0.166654	-0.015248	0.012885
	O471	O	0.147699	0.065658	-0.223780
	H472	H	0.145850	0.089119	-0.228756
	H473	H	0.165277	0.073905	-0.230826
	O474	O	0.835623	1.003232	-0.067897
	H475	H	0.831149	1.015680	-0.062066
	H476	H	0.845210	1.020666	-0.080380
	O477	O	0.313602	0.315278	0.524526
	H478	H	0.301876	0.318445	0.528493
	H479	H	0.290834	0.321684	0.515806
