data_Molecule from HDF5

_cell_length_a		16.338843
_cell_length_b		16.243308
_cell_length_c		16.200080
_cell_angle_alpha	89.995807
_cell_angle_beta	89.971348
_cell_angle_gamma	90.057364
_symmetry_space_group_name_H-M	'P 1'
_symmetry_Int_Tables_number		1

loop_
	_symmetry_equiv_pos_as_xyz
	x,y,z

loop_
	_atom_site_label
	_atom_site_type_symbol
	_atom_site_fract_x
	_atom_site_fract_y
	_atom_site_fract_z
	H0	H	0.403225	0.834948	0.712918
	H1	H	0.595762	0.164885	0.712131
	H2	H	0.597621	0.835428	0.286032
	H3	H	0.402988	0.164784	0.287374
	H4	H	0.715116	0.400620	0.836170
	H5	H	0.714162	0.598656	0.164563
	H6	H	0.285439	0.599887	0.835700
	H7	H	0.285796	0.401498	0.164095
	H8	H	0.836950	0.714547	0.401603
	H9	H	0.162924	0.715346	0.599137
	H10	H	0.836216	0.284977	0.597852
	H11	H	0.163802	0.285419	0.401556
	H12	H	0.836798	0.401693	0.714541
	H13	H	0.163366	0.598012	0.713337
	H14	H	0.836192	0.596591	0.287218
	H15	H	0.164255	0.403650	0.287012
	H16	H	0.402997	0.713069	0.835450
	H17	H	0.597280	0.713046	0.164540
	H18	H	0.597179	0.287089	0.835817
	H19	H	0.402447	0.287456	0.164803
	H20	H	0.715773	0.836501	0.399826
	H21	H	0.714608	0.163456	0.599313
	H22	H	0.285165	0.835703	0.599147
	H23	H	0.285810	0.163510	0.401676
	H24	H	0.902699	0.335913	0.213376
	H25	H	0.095065	0.665354	0.211695
	H26	H	0.097884	0.335875	0.786154
	H27	H	0.903376	0.664164	0.786485
	H28	H	0.213606	0.901718	0.335705
	H29	H	0.214610	0.098983	0.664033
	H30	H	0.785612	0.098962	0.335616
	H31	H	0.785292	0.900790	0.663940
	H32	H	0.336804	0.214668	0.901580
	H33	H	0.663202	0.215338	0.098931
	H34	H	0.336410	0.784845	0.099353
	H35	H	0.662889	0.785390	0.901780
	H36	H	0.336845	0.902974	0.214034
	H37	H	0.663467	0.098422	0.214050
	H38	H	0.336227	0.096987	0.786408
	H39	H	0.663187	0.902824	0.786461
	H40	H	0.902891	0.213116	0.335192
	H41	H	0.096373	0.212044	0.665009
	H42	H	0.096140	0.788192	0.335022
	H43	H	0.902005	0.786596	0.664989
	H44	H	0.215712	0.337074	0.900207
	H45	H	0.215309	0.663832	0.100134
	H46	H	0.784527	0.336160	0.099864
	H47	H	0.785100	0.663461	0.900732
	H48	H	0.404173	0.117504	0.594595
	H49	H	0.597813	0.881743	0.592033
	H50	H	0.591115	0.117207	0.402187
	H51	H	0.410262	0.883515	0.407429
	H52	H	0.589487	0.413510	0.114509
	H53	H	0.603896	0.598736	0.877646
	H54	H	0.414416	0.594831	0.115848
	H55	H	0.402623	0.408935	0.881441
	H56	H	0.114511	0.596204	0.414787
	H57	H	0.882618	0.597649	0.591951
	H58	H	0.112218	0.416700	0.589680
	H59	H	0.882329	0.408033	0.400501
	H60	H	0.120112	0.404227	0.604234
	H61	H	0.884976	0.590667	0.589436
	H62	H	0.115796	0.586116	0.403334
	H63	H	0.883039	0.399520	0.410244
	H64	H	0.401107	0.597579	0.120170
	H65	H	0.594980	0.581204	0.885634
	H66	H	0.589863	0.401747	0.118150
	H67	H	0.409758	0.409507	0.884026
	H68	H	0.590264	0.114837	0.411941
	H69	H	0.591094	0.882629	0.596991
	H70	H	0.408900	0.116407	0.593741
	H71	H	0.403104	0.882554	0.409913
	H72	H	0.906535	0.616648	0.093986
	H73	H	0.094347	0.384351	0.088336
	H74	H	0.095671	0.619146	0.902151
	H75	H	0.898225	0.382285	0.911687
	H76	H	0.091487	0.898551	0.619535
	H77	H	0.084322	0.089369	0.385595
	H78	H	0.914508	0.092827	0.614747
	H79	H	0.903376	0.905200	0.380836
	H80	H	0.614846	0.085090	0.902052
	H81	H	0.382268	0.101591	0.092038
	H82	H	0.617631	0.906702	0.098350
	H83	H	0.383086	0.913548	0.899556
	H84	H	0.616613	0.901706	0.090048
	H85	H	0.386145	0.089231	0.087536
	H86	H	0.620132	0.101853	0.901525
	H87	H	0.380033	0.895790	0.903695
	H88	H	0.902335	0.099504	0.620688
	H89	H	0.095327	0.102872	0.379101
	H90	H	0.102331	0.910749	0.619244
	H91	H	0.906125	0.912027	0.384530
	H92	H	0.089469	0.615773	0.907358
	H93	H	0.096444	0.381349	0.094966
	H94	H	0.906581	0.617306	0.092292
	H95	H	0.907594	0.380586	0.898454
	H96	H	0.405702	0.116066	0.589924
	H97	H	0.590612	0.885001	0.588782
	H98	H	0.599457	0.117925	0.408469
	H99	H	0.404095	0.881047	0.402544
	H100	H	0.599848	0.408540	0.119885
	H101	H	0.583380	0.599620	0.883783
	H102	H	0.404866	0.584921	0.116070
	H103	H	0.407461	0.403000	0.880974
	H104	H	0.119822	0.600858	0.400842
	H105	H	0.883172	0.592001	0.596789
	H106	H	0.116606	0.396710	0.585156
	H107	H	0.887215	0.411459	0.412067
	H108	H	0.905318	0.617727	0.093733
	H109	H	0.089402	0.384259	0.094062
	H110	H	0.097866	0.617590	0.910871
	H111	H	0.913709	0.386251	0.912411
	H112	H	0.086984	0.913107	0.614425
	H113	H	0.102195	0.086351	0.382207
	H114	H	0.902084	0.084771	0.616668
	H115	H	0.911419	0.906012	0.383761
	H116	H	0.613528	0.095152	0.916249
	H117	H	0.382481	0.090729	0.100237
	H118	H	0.614396	0.910818	0.090668
	H119	H	0.386504	0.907630	0.917033
	C120	C	0.378119	0.007902	0.621335
	C121	C	0.621269	0.991531	0.621191
	C122	C	0.621636	0.007959	0.378919
	C123	C	0.378375	0.991498	0.378425
	C124	C	0.621388	0.379041	0.008770
	C125	C	0.622042	0.621268	0.991340
	C126	C	0.378656	0.621071	0.008546
	C127	C	0.378740	0.378807	0.991433
	C128	C	0.008329	0.622025	0.378265
	C129	C	0.991613	0.621918	0.621217
	C130	C	0.008181	0.377753	0.621695
	C131	C	0.992062	0.377990	0.378352
	C132	C	0.878269	0.508469	0.121795
	C133	C	0.121519	0.491753	0.121421
	C134	C	0.122072	0.508951	0.878438
	C135	C	0.878518	0.491542	0.878676
	C136	C	0.121287	0.879300	0.508798
	C137	C	0.121566	0.120883	0.491285
	C138	C	0.878290	0.121071	0.508448
	C139	C	0.878152	0.878517	0.491733
	C140	C	0.508141	0.121825	0.878304
	C141	C	0.491927	0.121959	0.121677
	C142	C	0.508404	0.878225	0.121484
	C143	C	0.491193	0.877976	0.878196
	C144	C	0.381688	0.884160	0.675874
	C145	C	0.617597	0.115473	0.675334
	C146	C	0.618608	0.884486	0.323551
	C147	C	0.382354	0.115548	0.324539
	C148	C	0.676258	0.381205	0.884853
	C149	C	0.676528	0.619003	0.115367
	C150	C	0.323989	0.619095	0.884720
	C151	C	0.323564	0.381107	0.115063
	C152	C	0.885491	0.676594	0.381009
	C153	C	0.114388	0.677117	0.618871
	C154	C	0.885148	0.322790	0.618869
	C155	C	0.115060	0.323414	0.380890
	C156	C	0.885203	0.381097	0.676394
	C157	C	0.114450	0.619108	0.676099
	C158	C	0.885231	0.618125	0.324041
	C159	C	0.115268	0.382192	0.323958
	C160	C	0.382200	0.675518	0.884440
	C161	C	0.618422	0.675815	0.115493
	C162	C	0.618118	0.324465	0.884794
	C163	C	0.381814	0.324759	0.115492
	C164	C	0.677320	0.885006	0.380118
	C165	C	0.676715	0.114779	0.619472
	C166	C	0.322962	0.884627	0.619269
	C167	C	0.323879	0.114890	0.381302
	C168	C	0.881477	0.384887	0.176367
	C169	C	0.117111	0.615976	0.175309
	C170	C	0.118809	0.385089	0.823464
	C171	C	0.881827	0.615140	0.823881
	C172	C	0.176084	0.881350	0.384756
	C173	C	0.176416	0.119014	0.615180
	C174	C	0.823783	0.118719	0.384698
	C175	C	0.823140	0.880607	0.615217
	C176	C	0.385424	0.176625	0.880908
	C177	C	0.614533	0.177514	0.119309
	C178	C	0.385227	0.823145	0.119538
	C179	C	0.614323	0.823455	0.881365
	C180	C	0.385196	0.881801	0.176277
	C181	C	0.614890	0.119169	0.176142
	C182	C	0.384943	0.118032	0.823952
	C183	C	0.614442	0.881379	0.823756
	C184	C	0.881866	0.175608	0.384356
	C185	C	0.117843	0.175087	0.615722
	C186	C	0.117766	0.825080	0.384407
	C187	C	0.881195	0.824093	0.615604
	C188	C	0.177148	0.385477	0.880328
	C189	C	0.176614	0.615290	0.119633
	C190	C	0.822894	0.385277	0.119842
	C191	C	0.823247	0.614763	0.880605
	C192	C	0.399793	0.094393	0.599326
	C193	C	0.599575	0.905212	0.599055
	C194	C	0.599990	0.094304	0.401049
	C195	C	0.399680	0.904836	0.400053
	C196	C	0.599628	0.401327	0.095084
	C197	C	0.600600	0.599574	0.904684
	C198	C	0.400301	0.598992	0.095074
	C199	C	0.400201	0.400726	0.904647
	C200	C	0.094564	0.600673	0.399995
	C201	C	0.905762	0.599930	0.599216
	C202	C	0.094066	0.399452	0.599720
	C203	C	0.906313	0.399701	0.400984
	C204	C	0.899752	0.595037	0.099783
	C205	C	0.099852	0.405622	0.099144
	C206	C	0.100632	0.595031	0.900307
	C207	C	0.900128	0.405402	0.900881
	C208	C	0.099828	0.900963	0.595239
	C209	C	0.100213	0.099243	0.404768
	C210	C	0.899941	0.099035	0.595002
	C211	C	0.900407	0.900933	0.405152
	C212	C	0.593961	0.100408	0.900010
	C213	C	0.405863	0.100390	0.099672
	C214	C	0.593924	0.899882	0.099425
	C215	C	0.405433	0.899506	0.900183
	Zn216	Zn	0.500003	0.000016	0.749555
	Zn217	Zn	0.500126	0.000048	0.250043
	Zn218	Zn	0.750073	0.499732	0.000136
	Zn219	Zn	0.250433	0.500388	-0.000066
	Zn220	Zn	-0.000260	0.750830	0.500066
	Zn221	Zn	0.000094	0.248714	0.499830
	Zn222	Zn	0.000064	0.500171	0.750215
	Zn223	Zn	0.000141	0.499976	0.249910
	Zn224	Zn	0.499831	0.749113	0.000169
	Zn225	Zn	0.500036	0.250774	0.000186
	Zn226	Zn	0.750245	-0.000197	0.500399
	Zn227	Zn	0.249696	-0.000252	0.500113
	N228	N	0.415339	0.961782	0.677229
	N229	N	0.583897	0.037960	0.676479
	N230	N	0.584853	0.961972	0.322435
	N231	N	0.415842	0.037776	0.322865
	N232	N	0.678439	0.414402	0.962855
	N233	N	0.678679	0.585781	0.037394
	N234	N	0.321806	0.585784	0.962845
	N235	N	0.321696	0.414015	0.036966
	N236	N	0.963105	0.679150	0.413899
	N237	N	0.036956	0.679167	0.585658
	N238	N	0.962574	0.320678	0.585505
	N239	N	0.037575	0.320738	0.414113
	N240	N	0.962633	0.414508	0.678190
	N241	N	0.037273	0.585163	0.677439
	N242	N	0.962745	0.585244	0.322178
	N243	N	0.037757	0.415159	0.322215
	N244	N	0.415642	0.676656	0.962296
	N245	N	0.585110	0.677372	0.037392
	N246	N	0.584617	0.323060	0.962770
	N247	N	0.415304	0.322994	0.037544
	N248	N	0.679157	0.962765	0.413779
	N249	N	0.678987	0.036754	0.586421
	N250	N	0.320852	0.962652	0.586138
	N251	N	0.321291	0.036783	0.413856
	N252	N	0.915193	0.462515	0.177606
	N253	N	0.083510	0.538295	0.176479
	N254	N	0.085070	0.462674	0.822358
	N255	N	0.915387	0.537566	0.822570
	N256	N	0.178319	0.914212	0.462836
	N257	N	0.178985	0.086307	0.536937
	N258	N	0.821282	0.085837	0.462882
	N259	N	0.821408	0.913850	0.537212
	N260	N	0.462859	0.178928	0.914162
	N261	N	0.536913	0.179327	0.086175
	N262	N	0.462429	0.820845	0.086002
	N263	N	0.536747	0.821182	0.914360
	N264	N	0.462639	0.915289	0.177744
	N265	N	0.537670	0.085323	0.177636
	N266	N	0.462215	0.084583	0.822312
	N267	N	0.537021	0.914524	0.821765
	N268	N	0.915099	0.177060	0.462295
	N269	N	0.084451	0.176576	0.537708
	N270	N	0.084097	0.823612	0.462405
	N271	N	0.914942	0.822826	0.537784
	N272	N	0.179337	0.463238	0.913668
	N273	N	0.179234	0.537305	0.086759
	N274	N	0.820856	0.463119	0.086670
	N275	N	0.821201	0.536969	0.913864
