data_Molecule from HDF5

_cell_length_a		16.272776
_cell_length_b		16.180157
_cell_length_c		16.309571
_cell_angle_alpha	90.335609
_cell_angle_beta	89.756358
_cell_angle_gamma	90.380788
_symmetry_space_group_name_H-M	'P 1'
_symmetry_Int_Tables_number		1

loop_
	_symmetry_equiv_pos_as_xyz
	x,y,z

loop_
	_atom_site_label
	_atom_site_type_symbol
	_atom_site_fract_x
	_atom_site_fract_y
	_atom_site_fract_z
	H0	H	0.394375	0.840919	0.708186
	H1	H	0.598929	0.168141	0.711666
	H2	H	0.599915	0.843400	0.274129
	H3	H	0.399912	0.170203	0.280438
	H4	H	0.712491	0.404608	0.832510
	H5	H	0.712853	0.608634	0.157868
	H6	H	0.280634	0.606037	0.832601
	H7	H	0.277124	0.403420	0.156728
	H8	H	0.833135	0.718275	0.396966
	H9	H	0.159378	0.724013	0.596204
	H10	H	0.834849	0.287290	0.592673
	H11	H	0.160951	0.291028	0.390777
	H12	H	0.833704	0.401853	0.710436
	H13	H	0.158644	0.610675	0.714107
	H14	H	0.833403	0.603160	0.279629
	H15	H	0.158088	0.403289	0.273954
	H16	H	0.397547	0.718712	0.831414
	H17	H	0.595868	0.724038	0.157303
	H18	H	0.594802	0.289933	0.831532
	H19	H	0.393947	0.290454	0.157171
	H20	H	0.711643	0.841174	0.392867
	H21	H	0.713644	0.169191	0.596003
	H22	H	0.279181	0.842178	0.595200
	H23	H	0.284299	0.170270	0.396049
	H24	H	0.893863	0.340037	0.209296
	H25	H	0.097374	0.668293	0.211939
	H26	H	0.097721	0.341845	0.774601
	H27	H	0.897142	0.668292	0.780036
	H28	H	0.215802	0.903260	0.333201
	H29	H	0.212726	0.107300	0.657792
	H30	H	0.781183	0.106378	0.332677
	H31	H	0.778003	0.904119	0.656568
	H32	H	0.331958	0.219041	0.895116
	H33	H	0.659631	0.224230	0.093939
	H34	H	0.333205	0.790817	0.093167
	H35	H	0.659508	0.790165	0.894736
	H36	H	0.335637	0.903469	0.212644
	H37	H	0.660273	0.110431	0.210847
	H38	H	0.333865	0.104346	0.777784
	H39	H	0.659984	0.904064	0.776995
	H40	H	0.902087	0.215693	0.329712
	H41	H	0.098307	0.223641	0.655863
	H42	H	0.097993	0.788808	0.332442
	H43	H	0.895653	0.789845	0.657195
	H44	H	0.212452	0.341243	0.891116
	H45	H	0.213072	0.668857	0.095518
	H46	H	0.777686	0.341761	0.095079
	H47	H	0.785526	0.670240	0.898270
	H48	H	0.408803	0.121398	0.587184
	H49	H	0.587950	0.888612	0.583337
	H50	H	0.601933	0.128847	0.392180
	H51	H	0.405084	0.887290	0.397473
	H52	H	0.582666	0.410394	0.111416
	H53	H	0.598839	0.591063	0.879102
	H54	H	0.396933	0.591307	0.111018
	H55	H	0.407495	0.419355	0.882449
	H56	H	0.110822	0.591669	0.404319
	H57	H	0.878821	0.600561	0.591975
	H58	H	0.111950	0.420633	0.586036
	H59	H	0.879018	0.415394	0.393957
	H60	H	0.115346	0.413590	0.589794
	H61	H	0.882957	0.598196	0.580679
	H62	H	0.113459	0.595215	0.397952
	H63	H	0.878333	0.400387	0.401014
	H64	H	0.412553	0.593895	0.107291
	H65	H	0.582589	0.594473	0.882229
	H66	H	0.593169	0.416013	0.111806
	H67	H	0.408139	0.404833	0.877577
	H68	H	0.575386	0.118874	0.398278
	H69	H	0.589425	0.887615	0.585613
	H70	H	0.405921	0.121566	0.585391
	H71	H	0.412663	0.891480	0.403736
	H72	H	0.906746	0.621930	0.090915
	H73	H	0.079604	0.389505	0.090697
	H74	H	0.099142	0.626416	0.898243
	H75	H	0.904731	0.389299	0.904849
	H76	H	0.088975	0.919358	0.608396
	H77	H	0.094767	0.096462	0.377337
	H78	H	0.904232	0.095048	0.609826
	H79	H	0.904435	0.911602	0.378332
	H80	H	0.612850	0.096819	0.898273
	H81	H	0.384083	0.090820	0.084685
	H82	H	0.612957	0.916762	0.084554
	H83	H	0.378775	0.906334	0.903106
	H84	H	0.613198	0.914995	0.084345
	H85	H	0.378222	0.096348	0.096588
	H86	H	0.612132	0.101377	0.904791
	H87	H	0.383004	0.916183	0.904775
	H88	H	0.907900	0.095917	0.609865
	H89	H	0.091935	0.095029	0.378739
	H90	H	0.084871	0.912830	0.610905
	H91	H	0.904862	0.913505	0.377973
	H92	H	0.077854	0.619709	0.897457
	H93	H	0.083778	0.392192	0.075146
	H94	H	0.906491	0.620668	0.085987
	H95	H	0.900202	0.386335	0.902238
	H96	H	0.407184	0.122974	0.589398
	H97	H	0.586520	0.888718	0.585528
	H98	H	0.595636	0.119562	0.418731
	H99	H	0.402358	0.890017	0.407755
	H100	H	0.584422	0.420679	0.107850
	H101	H	0.592458	0.606014	0.875334
	H102	H	0.403350	0.606432	0.112952
	H103	H	0.395447	0.412526	0.875918
	H104	H	0.112767	0.599858	0.404593
	H105	H	0.882943	0.588817	0.588778
	H106	H	0.111782	0.413374	0.581053
	H107	H	0.883866	0.413464	0.410306
	H108	H	0.902398	0.621894	0.088740
	H109	H	0.094360	0.385045	0.085873
	H110	H	0.089319	0.617650	0.916139
	H111	H	0.905766	0.387766	0.898992
	H112	H	0.092867	0.913467	0.612499
	H113	H	0.092139	0.098182	0.377529
	H114	H	0.905174	0.099135	0.610379
	H115	H	0.906314	0.911853	0.379281
	H116	H	0.610056	0.093621	0.904875
	H117	H	0.379767	0.104214	0.084624
	H118	H	0.613056	0.915617	0.083379
	H119	H	0.378868	0.913518	0.895788
	C120	C	0.376197	0.013914	0.616385
	C121	C	0.618039	0.996385	0.615113
	C122	C	0.620292	0.014460	0.372093
	C123	C	0.377734	0.997957	0.374017
	C124	C	0.617288	0.384622	0.003499
	C125	C	0.619752	0.628148	0.986359
	C126	C	0.375321	0.626341	0.002961
	C127	C	0.373389	0.382781	0.985792
	C128	C	0.004996	0.625267	0.373461
	C129	C	0.988515	0.627285	0.617172
	C130	C	0.005556	0.383897	0.614983
	C131	C	0.988341	0.381814	0.371221
	C132	C	0.874453	0.513299	0.117359
	C133	C	0.116758	0.496739	0.115046
	C134	C	0.118598	0.513423	0.872425
	C135	C	0.875127	0.496542	0.873822
	C136	C	0.119196	0.884475	0.503558
	C137	C	0.121610	0.127610	0.485181
	C138	C	0.877181	0.125607	0.502432
	C139	C	0.874528	0.882561	0.485843
	C140	C	0.504162	0.126241	0.873176
	C141	C	0.488528	0.128272	0.116890
	C142	C	0.505422	0.885338	0.114640
	C143	C	0.488049	0.882702	0.871486
	C144	C	0.375592	0.890300	0.671172
	C145	C	0.618000	0.119504	0.672715
	C146	C	0.619064	0.891828	0.313718
	C147	C	0.379905	0.121156	0.318414
	C148	C	0.674025	0.384945	0.880962
	C149	C	0.674944	0.628304	0.108870
	C150	C	0.319220	0.625155	0.881022
	C151	C	0.315778	0.383800	0.107859
	C152	C	0.881966	0.681017	0.376082
	C153	C	0.110555	0.685311	0.616136
	C154	C	0.883353	0.325642	0.613259
	C155	C	0.111555	0.327910	0.371738
	C156	C	0.882821	0.382955	0.671721
	C157	C	0.110265	0.628586	0.674599
	C158	C	0.881926	0.623528	0.317869
	C159	C	0.110141	0.383539	0.313121
	C160	C	0.377394	0.681466	0.880358
	C161	C	0.616652	0.685496	0.108749
	C162	C	0.615327	0.327970	0.880487
	C163	C	0.373819	0.327386	0.108193
	C164	C	0.674933	0.890995	0.372623
	C165	C	0.675236	0.120074	0.615236
	C166	C	0.318175	0.890945	0.614837
	C167	C	0.322398	0.121107	0.376106
	C168	C	0.874359	0.389586	0.171971
	C169	C	0.116918	0.619477	0.173068
	C170	C	0.117455	0.390709	0.813799
	C171	C	0.877469	0.619876	0.818524
	C172	C	0.176722	0.884072	0.381482
	C173	C	0.176030	0.127370	0.608295
	C174	C	0.820597	0.124891	0.380575
	C175	C	0.816961	0.884007	0.607945
	C176	C	0.381316	0.181334	0.875150
	C177	C	0.611015	0.186059	0.114480
	C178	C	0.382412	0.828712	0.113565
	C179	C	0.610866	0.827662	0.873644
	C180	C	0.383513	0.884909	0.172809
	C181	C	0.611367	0.129235	0.172518
	C182	C	0.382085	0.124284	0.816677
	C183	C	0.610760	0.884290	0.815119
	C184	C	0.880680	0.179471	0.379080
	C185	C	0.119242	0.185460	0.607363
	C186	C	0.118106	0.827082	0.381070
	C187	C	0.875748	0.827426	0.608336
	C188	C	0.174644	0.390482	0.871775
	C189	C	0.174459	0.619791	0.115286
	C190	C	0.816408	0.390497	0.115283
	C191	C	0.821488	0.620532	0.877015
	C192	C	0.400358	0.099723	0.594065
	C193	C	0.594759	0.910739	0.591639
	C194	C	0.597621	0.100283	0.395966
	C195	C	0.400154	0.911752	0.396520
	C196	C	0.593744	0.408484	0.088285
	C197	C	0.597732	0.604136	0.901120
	C198	C	0.397654	0.603752	0.088252
	C199	C	0.396946	0.405446	0.900690
	C200	C	0.090133	0.602403	0.395729
	C201	C	0.903711	0.602784	0.594044
	C202	C	0.090891	0.408496	0.592409
	C203	C	0.902719	0.403380	0.394809
	C204	C	0.898302	0.599208	0.095050
	C205	C	0.092954	0.411107	0.090789
	C206	C	0.095507	0.598883	0.896790
	C207	C	0.897138	0.410225	0.895641
	C208	C	0.095801	0.908018	0.588679
	C209	C	0.099710	0.103441	0.400014
	C210	C	0.899377	0.103172	0.587823
	C211	C	0.898144	0.905629	0.400761
	C212	C	0.589438	0.103841	0.895983
	C213	C	0.402903	0.104181	0.095045
	C214	C	0.591072	0.908971	0.091054
	C215	C	0.402281	0.905484	0.894425
	Zn216	Zn	0.496853	0.004610	0.743567
	Zn217	Zn	0.498381	0.006288	0.244203
	Zn218	Zn	0.747049	0.505634	-0.004739
	Zn219	Zn	0.246603	0.505004	-0.005735
	Zn220	Zn	-0.002671	0.754975	0.494532
	Zn221	Zn	-0.000974	0.254522	0.493144
	Zn222	Zn	-0.004005	0.505312	0.745189
	Zn223	Zn	-0.004159	0.503946	0.244577
	Zn224	Zn	0.496161	0.755131	-0.005746
	Zn225	Zn	0.495495	0.255392	-0.005128
	Zn226	Zn	0.747292	0.005525	0.494303
	Zn227	Zn	0.249118	0.005596	0.495150
	N228	N	0.411107	0.967724	0.672250
	N229	N	0.583210	0.041823	0.672791
	N230	N	0.585657	0.969591	0.313357
	N231	N	0.413478	0.043369	0.316904
	N232	N	0.675508	0.419401	0.958190
	N233	N	0.676842	0.593313	0.031802
	N234	N	0.317831	0.591518	0.958165
	N235	N	0.315335	0.417499	0.030588
	N236	N	0.959375	0.682299	0.409816
	N237	N	0.033851	0.684728	0.581076
	N238	N	0.960625	0.326091	0.578713
	N239	N	0.034714	0.326664	0.407307
	N240	N	0.959809	0.418520	0.672909
	N241	N	0.033320	0.593410	0.675585
	N242	N	0.959149	0.589483	0.316318
	N243	N	0.032661	0.416400	0.312878
	N244	N	0.411797	0.682328	0.957294
	N245	N	0.583403	0.685832	0.031448
	N246	N	0.580708	0.327698	0.957624
	N247	N	0.408637	0.326173	0.031312
	N248	N	0.675859	0.968295	0.408281
	N249	N	0.675344	0.042634	0.579991
	N250	N	0.318340	0.968748	0.581541
	N251	N	0.320954	0.043397	0.409944
	N252	N	0.909392	0.467031	0.173550
	N253	N	0.081874	0.541839	0.173195
	N254	N	0.083245	0.468297	0.814042
	N255	N	0.909911	0.541693	0.816329
	N256	N	0.177470	0.918986	0.458563
	N257	N	0.177860	0.092387	0.531222
	N258	N	0.818299	0.092229	0.458029
	N259	N	0.816010	0.917515	0.530685
	N260	N	0.458287	0.182682	0.909779
	N261	N	0.533656	0.185481	0.080709
	N262	N	0.459248	0.829042	0.078062
	N263	N	0.533505	0.826405	0.907888
	N264	N	0.461120	0.919316	0.173531
	N265	N	0.534078	0.094322	0.174258
	N266	N	0.459560	0.090927	0.815155
	N267	N	0.533167	0.917586	0.813847
	N268	N	0.915172	0.180319	0.456103
	N269	N	0.086253	0.186006	0.529895
	N270	N	0.083059	0.827175	0.457894
	N271	N	0.910705	0.826333	0.531391
	N272	N	0.175494	0.467798	0.907335
	N273	N	0.174429	0.542497	0.079919
	N274	N	0.816185	0.468574	0.082202
	N275	N	0.820079	0.542810	0.910803
	O276	O	-0.074898	0.139326	-0.075306
	H277	H	-0.068156	0.135724	-0.053285
	H278	H	-0.070832	0.154693	-0.084674
	O279	O	0.415014	0.422264	0.484527
	H280	H	0.408750	0.421864	0.496111
	H281	H	0.404284	0.409041	0.480117
	O282	O	0.449935	-0.620973	-0.428175
	H283	H	0.451961	-0.619919	-0.424539
	H284	H	0.460500	-0.610174	-0.410593
	O285	O	0.038176	0.943506	-0.083165
	H286	H	0.033178	0.943782	-0.089439
	H287	H	0.026497	0.935606	-0.081478
	O288	O	0.541449	0.406174	0.652844
	H289	H	0.526501	0.427520	0.648384
	H290	H	0.571785	0.404301	0.667631
	O291	O	0.879231	-0.080283	1.042535
	H292	H	0.870739	-0.096152	1.039602
	H293	H	0.879704	-0.087987	1.047308
	O294	O	0.910095	1.064492	1.129710
	H295	H	0.901764	1.054943	1.139192
	H296	H	0.916380	1.069111	1.138986
	O297	O	0.095009	0.013802	0.063473
	H298	H	0.100968	0.025254	0.060841
	H299	H	0.091779	-0.002953	0.058634
	O300	O	0.371274	0.496426	0.495333
	H301	H	0.366169	0.492624	0.506522
	H302	H	0.381386	0.497588	0.494339
	O303	O	0.094397	1.044332	1.086910
	H304	H	0.104401	1.042964	1.089702
	H305	H	0.091699	1.044950	1.082981
	O306	O	0.424630	0.576459	0.405702
	H307	H	0.423491	0.579609	0.407028
	H308	H	0.418120	0.574172	0.414667
	O309	O	1.019111	0.045416	-0.178883
	H310	H	1.021325	0.058423	-0.175751
	H311	H	1.020444	0.052898	-0.184249
	O312	O	0.167168	0.157174	1.076509
	H313	H	0.161521	0.163694	1.071717
	H314	H	0.178654	0.146670	1.080631
	O315	O	0.367383	0.614476	0.536529
	H316	H	0.358235	0.632495	0.534207
	H317	H	0.379050	0.612901	0.543232
	O318	O	1.035677	1.130908	0.918759
	H319	H	1.031765	1.126073	0.907534
	H320	H	1.032956	1.132368	0.917817
	O321	O	0.611517	0.379745	0.470707
	H322	H	0.607062	0.395041	0.464977
	H323	H	0.600691	0.365595	0.466468
	O324	O	0.508852	0.352026	0.533275
	H325	H	0.511434	0.345177	0.558608
	H326	H	0.516495	0.354899	0.526848
	O327	O	0.048041	1.157369	0.906300
	H328	H	0.060385	1.161641	0.912009
	H329	H	0.043217	1.165640	0.917743
	O330	O	-0.135864	-0.016962	0.003214
	H331	H	-0.139629	-0.010467	-0.012707
	H332	H	-0.148550	-0.014241	-0.000376
	O333	O	-0.077339	1.087586	0.877056
	H334	H	-0.076605	1.102001	0.898337
	H335	H	-0.081919	1.078666	0.870333
	O336	O	0.991143	0.942175	0.938942
	H337	H	0.996426	0.931507	0.951937
	H338	H	0.981698	0.948874	0.930183
	O339	O	0.591097	0.654084	0.505919
	H340	H	0.597036	0.662318	0.498559
	H341	H	0.589353	0.637377	0.516523
	O342	O	1.008837	0.177528	0.053494
	H343	H	1.022452	0.177139	0.053595
	H344	H	1.003657	0.183739	0.064990
	O345	O	0.370736	0.512288	0.477241
	H346	H	0.381134	0.516856	0.497004
	H347	H	0.368554	0.491770	0.478021
	O348	O	0.917102	0.828457	1.011781
	H349	H	0.919240	0.829312	1.018109
	H350	H	0.914426	0.832580	1.021171
	O351	O	0.993171	0.840997	-0.083810
	H352	H	1.001402	0.841564	-0.099441
	H353	H	0.976995	0.856554	-0.083976
	O354	O	0.577753	0.524404	0.366732
	H355	H	0.580159	0.515401	0.351513
	H356	H	0.587483	0.522950	0.368466
	O357	O	0.562036	0.608307	0.452639
	H358	H	0.568564	0.598107	0.464681
	H359	H	0.576791	0.610019	0.454260
	O360	O	-0.012622	-0.032253	-0.058083
	H361	H	-0.001628	-0.028132	-0.044557
	H362	H	-0.018575	-0.012603	-0.061600
	O363	O	0.670047	0.481621	0.563251
	H364	H	0.681714	0.492799	0.550744
	H365	H	0.665523	0.465106	0.539137
	O366	O	0.514370	0.534358	0.442207
	H367	H	0.523084	0.527302	0.441156
	H368	H	0.512452	0.546481	0.448439
	O369	O	0.626223	0.421841	0.379756
	H370	H	0.600006	0.419598	0.380036
	H371	H	0.623330	0.430998	0.372087
	O372	O	0.562496	0.600076	0.602022
	H373	H	0.564573	0.591642	0.617767
	H374	H	0.561128	0.588450	0.609466
	O375	O	0.303630	0.476904	0.561948
	H376	H	0.278455	0.471447	0.577193
	H377	H	0.298204	0.482990	0.547922
	O378	O	0.626266	0.565133	0.515991
	H379	H	0.625362	0.580981	0.518745
	H380	H	0.626892	0.573701	0.513682
	O381	O	0.512723	0.599380	0.533258
	H382	H	0.509518	0.609325	0.539156
	H383	H	0.515473	0.601408	0.531334
	O384	O	0.072956	1.044183	0.044216
	H385	H	0.076506	1.041045	0.039210
	H386	H	0.081352	1.022686	0.046266
	O387	O	1.041124	-0.078884	1.113133
	H388	H	1.028092	-0.082725	1.096049
	H389	H	1.035622	-0.074316	1.117000
	O390	O	-0.100889	0.939509	0.130780
	H391	H	-0.095689	0.930039	0.128753
	H392	H	-0.098862	0.927242	0.144365
	O393	O	1.052303	0.899625	-0.078111
	H394	H	1.040957	0.909174	-0.082207
	H395	H	1.053475	0.909947	-0.083389
	O396	O	0.489034	0.485897	0.565924
	H397	H	0.480285	0.491988	0.561722
	H398	H	0.489036	0.482799	0.568636
	O399	O	0.412874	0.512881	1.467394
	H400	H	0.403689	0.512476	1.453058
	H401	H	0.407861	0.515605	1.455726
	O402	O	0.862602	0.894834	1.097681
	H403	H	0.880895	0.893676	1.111307
	H404	H	0.856310	0.896720	1.087465
	O405	O	0.373529	0.523149	0.417725
	H406	H	0.375553	0.522916	0.408244
	H407	H	0.361679	0.526817	0.419275
