data_Molecule from HDF5

_cell_length_a		16.194870
_cell_length_b		16.142600
_cell_length_c		16.295032
_cell_angle_alpha	89.998765
_cell_angle_beta	89.719095
_cell_angle_gamma	90.443162
_symmetry_space_group_name_H-M	'P 1'
_symmetry_Int_Tables_number		1

loop_
	_symmetry_equiv_pos_as_xyz
	x,y,z

loop_
	_atom_site_label
	_atom_site_type_symbol
	_atom_site_fract_x
	_atom_site_fract_y
	_atom_site_fract_z
	H0	H	0.400931	0.832609	0.710107
	H1	H	0.604071	0.161469	0.705831
	H2	H	0.604601	0.833228	0.276943
	H3	H	0.405542	0.161071	0.278451
	H4	H	0.720613	0.397722	0.831267
	H5	H	0.719369	0.597029	0.157740
	H6	H	0.291577	0.593294	0.829477
	H7	H	0.287748	0.395298	0.156649
	H8	H	0.838567	0.707151	0.397311
	H9	H	0.167573	0.712052	0.591042
	H10	H	0.838883	0.282192	0.591116
	H11	H	0.169098	0.285262	0.394595
	H12	H	0.840573	0.393827	0.710884
	H13	H	0.168011	0.596796	0.706811
	H14	H	0.840209	0.596322	0.278379
	H15	H	0.168234	0.398878	0.278289
	H16	H	0.408337	0.709541	0.829757
	H17	H	0.603453	0.712609	0.156965
	H18	H	0.602051	0.284129	0.829115
	H19	H	0.403627	0.280108	0.156800
	H20	H	0.715652	0.831273	0.393651
	H21	H	0.718278	0.160788	0.590260
	H22	H	0.288535	0.831448	0.591183
	H23	H	0.293504	0.162862	0.396884
	H24	H	0.902069	0.331646	0.210055
	H25	H	0.105485	0.660944	0.207871
	H26	H	0.103703	0.331751	0.777830
	H27	H	0.906881	0.660673	0.779391
	H28	H	0.219881	0.896134	0.330288
	H29	H	0.218227	0.095897	0.657245
	H30	H	0.791519	0.093149	0.329087
	H31	H	0.785549	0.894974	0.656203
	H32	H	0.338773	0.206484	0.897621
	H33	H	0.669238	0.212428	0.089844
	H34	H	0.340337	0.780803	0.092757
	H35	H	0.669668	0.785111	0.894251
	H36	H	0.341398	0.894350	0.209986
	H37	H	0.669395	0.099587	0.207719
	H38	H	0.340373	0.095659	0.780220
	H39	H	0.668417	0.898210	0.777292
	H40	H	0.906887	0.210278	0.329576
	H41	H	0.102084	0.210992	0.656792
	H42	H	0.101286	0.782564	0.329503
	H43	H	0.902561	0.781182	0.656968
	H44	H	0.215173	0.329884	0.896259
	H45	H	0.219373	0.660757	0.091750
	H46	H	0.788062	0.331237	0.093015
	H47	H	0.793401	0.661733	0.896428
	H48	H	0.407907	0.114043	0.581979
	H49	H	0.590281	0.879655	0.583965
	H50	H	0.593361	0.110506	0.409933
	H51	H	0.405366	0.877810	0.403195
	H52	H	0.590137	0.411139	0.107211
	H53	H	0.591187	0.593446	0.877620
	H54	H	0.409715	0.581008	0.108566
	H55	H	0.403023	0.402073	0.874431
	H56	H	0.119600	0.592620	0.408465
	H57	H	0.887631	0.589717	0.579263
	H58	H	0.119011	0.409469	0.578896
	H59	H	0.887093	0.405375	0.403576
	H60	H	0.123215	0.408803	0.595867
	H61	H	0.887807	0.578585	0.591063
	H62	H	0.120010	0.581414	0.398026
	H63	H	0.885545	0.403444	0.397443
	H64	H	0.419263	0.590470	0.108515
	H65	H	0.606535	0.595381	0.873821
	H66	H	0.591261	0.395400	0.112150
	H67	H	0.412690	0.406217	0.878160
	H68	H	0.609989	0.119201	0.399897
	H69	H	0.596457	0.877138	0.584145
	H70	H	0.408297	0.117365	0.592611
	H71	H	0.412988	0.877928	0.394499
	H72	H	0.921974	0.610880	0.085998
	H73	H	0.090981	0.379912	0.087465
	H74	H	0.098004	0.615416	0.894880
	H75	H	0.913913	0.377963	0.899078
	H76	H	0.095407	0.900479	0.609882
	H77	H	0.092145	0.087371	0.379080
	H78	H	0.907313	0.092495	0.611557
	H79	H	0.908523	0.897603	0.375042
	H80	H	0.625269	0.100757	0.898969
	H81	H	0.388185	0.084782	0.087446
	H82	H	0.622873	0.897531	0.082343
	H83	H	0.383847	0.900726	0.895237
	H84	H	0.618661	0.913726	0.079217
	H85	H	0.386711	0.088566	0.089518
	H86	H	0.619444	0.086182	0.905811
	H87	H	0.387931	0.898721	0.907350
	H88	H	0.907486	0.083677	0.609119
	H89	H	0.100165	0.097827	0.373714
	H90	H	0.098316	0.906849	0.610740
	H91	H	0.906479	0.905800	0.375960
	H92	H	0.094878	0.612102	0.902751
	H93	H	0.097018	0.378611	0.083170
	H94	H	0.907238	0.614022	0.079952
	H95	H	0.912647	0.380158	0.904635
	H96	H	0.418160	0.112850	0.587815
	H97	H	0.593294	0.877782	0.589388
	H98	H	0.592556	0.115849	0.389350
	H99	H	0.416253	0.881950	0.404816
	H100	H	0.604769	0.405064	0.112348
	H101	H	0.601691	0.581055	0.879340
	H102	H	0.405496	0.593832	0.113048
	H103	H	0.412021	0.394834	0.875360
	H104	H	0.123352	0.595627	0.394013
	H105	H	0.882515	0.593261	0.593855
	H106	H	0.123945	0.394337	0.585647
	H107	H	0.885562	0.398772	0.401815
	H108	H	0.911176	0.617269	0.095889
	H109	H	0.097175	0.376090	0.090634
	H110	H	0.103476	0.615400	0.902456
	H111	H	0.908254	0.376499	0.900831
	H112	H	0.092752	0.906185	0.608721
	H113	H	0.105368	0.085962	0.375840
	H114	H	0.914836	0.088731	0.608920
	H115	H	0.914223	0.902929	0.378439
	H116	H	0.624047	0.086907	0.890292
	H117	H	0.386963	0.088883	0.085900
	H118	H	0.624133	0.908807	0.095729
	H119	H	0.389931	0.910206	0.902872
	C120	C	0.381583	0.005504	0.616004
	C121	C	0.623670	0.987220	0.614199
	C122	C	0.626538	0.006030	0.370825
	C123	C	0.383492	0.988540	0.372447
	C124	C	0.624978	0.375296	0.002279
	C125	C	0.627701	0.618920	0.985159
	C126	C	0.383828	0.616607	0.001786
	C127	C	0.381092	0.372628	0.984270
	C128	C	0.012189	0.618232	0.371837
	C129	C	0.994808	0.617563	0.615403
	C130	C	0.013289	0.374240	0.615996
	C131	C	0.995157	0.374882	0.372021
	C132	C	0.883075	0.505065	0.115811
	C133	C	0.125254	0.487249	0.115409
	C134	C	0.126338	0.504903	0.871760
	C135	C	0.883849	0.487429	0.873048
	C136	C	0.124771	0.875171	0.501905
	C137	C	0.126869	0.118936	0.484601
	C138	C	0.882345	0.116956	0.501653
	C139	C	0.880271	0.873402	0.484756
	C140	C	0.513518	0.118550	0.871565
	C141	C	0.496114	0.118259	0.115225
	C142	C	0.513712	0.875485	0.115421
	C143	C	0.495873	0.875394	0.871816
	C144	C	0.381693	0.881782	0.671881
	C145	C	0.623473	0.111922	0.668661
	C146	C	0.623956	0.881977	0.315268
	C147	C	0.385852	0.112190	0.316887
	C148	C	0.681251	0.377762	0.879570
	C149	C	0.681971	0.617009	0.108450
	C150	C	0.329222	0.613967	0.878363
	C151	C	0.325562	0.374905	0.107755
	C152	C	0.888247	0.671300	0.375680
	C153	C	0.118560	0.674042	0.612023
	C154	C	0.888763	0.319004	0.612908
	C155	C	0.119456	0.321745	0.374219
	C156	C	0.889649	0.374677	0.672303
	C157	C	0.118757	0.616707	0.669409
	C158	C	0.889071	0.615874	0.316629
	C159	C	0.119024	0.378088	0.316090
	C160	C	0.387337	0.671706	0.878383
	C161	C	0.624036	0.674206	0.108302
	C162	C	0.622386	0.321322	0.878546
	C163	C	0.383410	0.317914	0.107830
	C164	C	0.679371	0.881102	0.373264
	C165	C	0.680335	0.111437	0.611205
	C166	C	0.325967	0.881045	0.612591
	C167	C	0.329476	0.112851	0.375170
	C168	C	0.883037	0.380652	0.171471
	C169	C	0.124829	0.611454	0.170215
	C170	C	0.123601	0.380776	0.816284
	C171	C	0.886479	0.611598	0.817509
	C172	C	0.181520	0.876309	0.378978
	C173	C	0.180968	0.116458	0.608038
	C174	C	0.828367	0.114413	0.378155
	C175	C	0.823693	0.874841	0.607448
	C176	C	0.388757	0.170769	0.876021
	C177	C	0.619968	0.174732	0.111257
	C178	C	0.389919	0.818599	0.113462
	C179	C	0.620076	0.821893	0.873740
	C180	C	0.390269	0.875408	0.171544
	C181	C	0.620076	0.118457	0.169728
	C182	C	0.389732	0.115789	0.817187
	C183	C	0.619329	0.878068	0.815384
	C184	C	0.886129	0.172230	0.378288
	C185	C	0.123224	0.173702	0.607801
	C186	C	0.122473	0.819859	0.378835
	C187	C	0.882187	0.818516	0.607984
	C188	C	0.179029	0.379763	0.874982
	C189	C	0.181602	0.611516	0.112352
	C190	C	0.826667	0.380399	0.113155
	C191	C	0.830352	0.612227	0.875895
	C192	C	0.404715	0.092422	0.594037
	C193	C	0.600242	0.900699	0.592332
	C194	C	0.605098	0.092798	0.393161
	C195	C	0.405138	0.901643	0.394466
	C196	C	0.602124	0.397430	0.088479
	C197	C	0.606257	0.596468	0.899058
	C198	C	0.405222	0.594687	0.087718
	C199	C	0.402912	0.394510	0.898333
	C200	C	0.098781	0.596326	0.393615
	C201	C	0.908256	0.594157	0.594291
	C202	C	0.099901	0.397451	0.593563
	C203	C	0.908385	0.396151	0.394303
	C204	C	0.906610	0.591404	0.093805
	C205	C	0.101775	0.400665	0.093459
	C206	C	0.105360	0.591661	0.893618
	C207	C	0.905284	0.400853	0.894973
	C208	C	0.102024	0.897782	0.587566
	C209	C	0.105548	0.096730	0.398468
	C210	C	0.903806	0.094863	0.587519
	C211	C	0.903073	0.895630	0.398945
	C212	C	0.600287	0.097606	0.892279
	C213	C	0.409651	0.094272	0.093920
	C214	C	0.599882	0.899553	0.092498
	C215	C	0.409537	0.896870	0.894908
	Zn216	Zn	0.504159	-0.003129	0.743687
	Zn217	Zn	0.505385	-0.002831	0.243870
	Zn218	Zn	0.755161	0.496514	-0.005607
	Zn219	Zn	0.253721	0.495302	-0.006418
	Zn220	Zn	0.002910	0.745864	0.493682
	Zn221	Zn	0.004441	0.246858	0.493214
	Zn222	Zn	0.004967	0.495959	0.743943
	Zn223	Zn	0.004051	0.496211	0.243993
	Zn224	Zn	0.505353	0.747387	-0.006413
	Zn225	Zn	0.503859	0.245992	-0.006953
	Zn226	Zn	0.752153	-0.004496	0.492805
	Zn227	Zn	0.254527	-0.003031	0.493184
	N228	N	0.415622	0.960276	0.674189
	N229	N	0.588816	0.033805	0.670583
	N230	N	0.591586	0.960644	0.313657
	N231	N	0.418703	0.033660	0.314933
	N232	N	0.682932	0.410611	0.957502
	N233	N	0.684075	0.583225	0.030887
	N234	N	0.326709	0.580691	0.956170
	N235	N	0.323868	0.408249	0.030017
	N236	N	0.965819	0.672658	0.409402
	N237	N	0.040395	0.674611	0.579001
	N238	N	0.966541	0.318541	0.578627
	N239	N	0.041489	0.319855	0.408215
	N240	N	0.968155	0.408287	0.674154
	N241	N	0.040838	0.582321	0.671606
	N242	N	0.967506	0.583863	0.313948
	N243	N	0.040595	0.410335	0.314461
	N244	N	0.420344	0.673694	0.956072
	N245	N	0.591446	0.675944	0.030416
	N246	N	0.588016	0.319846	0.956014
	N247	N	0.417019	0.316369	0.030121
	N248	N	0.680897	0.959134	0.407155
	N249	N	0.680671	0.032949	0.578045
	N250	N	0.325985	0.958962	0.578507
	N251	N	0.327977	0.034807	0.409102
	N252	N	0.917348	0.458947	0.173315
	N253	N	0.090476	0.533160	0.172025
	N254	N	0.091723	0.459607	0.814036
	N255	N	0.919191	0.533343	0.815694
	N256	N	0.182757	0.910269	0.456387
	N257	N	0.183405	0.083128	0.530335
	N258	N	0.826037	0.080578	0.455619
	N259	N	0.822568	0.908493	0.529965
	N260	N	0.466665	0.172666	0.909187
	N261	N	0.541873	0.174847	0.078323
	N262	N	0.467766	0.818708	0.079169
	N263	N	0.542369	0.819905	0.908177
	N264	N	0.468277	0.910054	0.172800
	N265	N	0.541964	0.083863	0.172206
	N266	N	0.468310	0.083957	0.814310
	N267	N	0.540986	0.910710	0.814142
	N268	N	0.918964	0.174087	0.456090
	N269	N	0.090188	0.175311	0.530140
	N270	N	0.087871	0.819032	0.456176
	N271	N	0.916613	0.817214	0.530604
	N272	N	0.180981	0.457886	0.908819
	N273	N	0.182065	0.533250	0.078940
	N274	N	0.826368	0.458532	0.079387
	N275	N	0.828401	0.534041	0.909722
	O276	O	0.954998	0.932996	-0.006615
	H277	H	0.953297	0.925925	-0.006631
	H278	H	0.958699	0.926024	-0.003746
	O279	O	0.008342	0.053599	1.025544
	H280	H	0.008587	0.048551	1.022774
	H281	H	0.014230	0.046234	1.032335
	O282	O	-0.000425	0.053076	0.010296
	H283	H	-0.006285	0.045749	0.005278
	H284	H	-0.007462	0.054572	0.011403
	O285	O	0.466100	0.543612	0.559892
	H286	H	0.473291	0.525897	0.562362
	H287	H	0.461045	0.541846	0.568122
	O288	O	0.039748	-0.019008	-0.028777
	H289	H	0.035122	-0.022845	-0.040242
	H290	H	0.038565	-0.020096	-0.026464
	O291	O	0.014623	1.073315	-0.033021
	H292	H	0.010372	1.071039	-0.027461
	H293	H	0.008965	1.073634	-0.042159
	O294	O	0.012159	1.009979	-0.035332
	H295	H	0.009705	1.003801	-0.040295
	H296	H	0.015898	1.011919	-0.036889
	O297	O	0.514772	0.568109	0.466034
	H298	H	0.514735	0.560297	0.460889
	H299	H	0.508505	0.568318	0.458851
	O300	O	0.451967	0.509333	0.487530
	H301	H	0.449107	0.513279	0.476567
	H302	H	0.452000	0.513832	0.486603
	O303	O	1.002519	-0.141332	1.050761
	H304	H	1.009315	-0.136873	1.046420
	H305	H	1.000860	-0.143167	1.054570
	O306	O	0.026334	1.043745	1.012653
	H307	H	0.020307	1.043917	1.008679
	H308	H	0.027879	1.049505	1.025190
	O309	O	0.047426	1.028438	1.054014
	H310	H	0.041691	1.032865	1.056586
	H311	H	0.054663	1.040834	1.056723
	O312	O	0.040879	-0.081803	0.967242
	H313	H	0.050962	-0.080483	0.970509
	H314	H	0.047897	-0.082385	0.968771
	O315	O	0.560972	0.479655	0.453844
	H316	H	0.560954	0.477833	0.459970
	H317	H	0.567619	0.483471	0.455402
	O318	O	0.004913	-0.081211	0.982152
	H319	H	0.005897	-0.090450	0.968700
	H320	H	0.019176	-0.077340	0.989689
	O321	O	0.213849	0.756208	0.770024
	H322	H	0.212662	0.758251	0.767174
	H323	H	0.218036	0.741640	0.773689
	O324	O	1.029920	0.013895	0.958050
	H325	H	1.031977	0.019683	0.968387
	H326	H	1.025555	0.019999	0.953697
	O327	O	1.041457	1.011098	1.001398
	H328	H	1.039288	1.013070	0.995776
	H329	H	1.045965	1.003622	1.003321
	O330	O	0.548125	0.451419	0.451780
	H331	H	0.545709	0.453373	0.454484
	H332	H	0.550938	0.452493	0.457834
	O333	O	0.434449	0.530388	0.518450
	H334	H	0.432282	0.537905	0.518220
	H335	H	0.430053	0.530035	0.520214
	O336	O	0.495495	0.498744	0.486256
	H337	H	0.496876	0.495535	0.485960
	H338	H	0.495020	0.504515	0.485976
	O339	O	0.495168	0.482840	0.518551
	H340	H	0.506252	0.481342	0.519323
	H341	H	0.505532	0.475769	0.516630
	O342	O	0.518724	0.511755	0.459123
	H343	H	0.504353	0.511840	0.460640
	H344	H	0.522720	0.514376	0.455556
	O345	O	0.469554	0.488520	0.445872
	H346	H	0.473874	0.499032	0.441354
	H347	H	0.457815	0.489855	0.443421
