data_Molecule from HDF5

_cell_length_a		16.493787
_cell_length_b		16.500995
_cell_length_c		16.443542
_cell_angle_alpha	89.933667
_cell_angle_beta	90.064667
_cell_angle_gamma	89.852171
_symmetry_space_group_name_H-M	'P 1'
_symmetry_Int_Tables_number		1

loop_
	_symmetry_equiv_pos_as_xyz
	x,y,z

loop_
	_atom_site_label
	_atom_site_type_symbol
	_atom_site_fract_x
	_atom_site_fract_y
	_atom_site_fract_z
	H0	H	0.400026	0.835231	0.720063
	H1	H	0.612601	0.148051	0.724094
	H2	H	0.612504	0.838112	0.275305
	H3	H	0.395136	0.150148	0.272375
	H4	H	0.727805	0.386878	0.841212
	H5	H	0.727410	0.597468	0.155796
	H6	H	0.281135	0.603506	0.841521
	H7	H	0.283500	0.389204	0.155480
	H8	H	0.850448	0.719389	0.389216
	H9	H	0.163571	0.716395	0.602703
	H10	H	0.850356	0.271288	0.604093
	H11	H	0.162890	0.269577	0.388979
	H12	H	0.849697	0.388903	0.718688
	H13	H	0.162457	0.600853	0.719077
	H14	H	0.848384	0.599295	0.275730
	H15	H	0.164464	0.388754	0.276034
	H16	H	0.397644	0.717179	0.841326
	H17	H	0.610128	0.712908	0.156545
	H18	H	0.612305	0.269727	0.842091
	H19	H	0.395824	0.269599	0.154480
	H20	H	0.730293	0.839421	0.389357
	H21	H	0.729185	0.149521	0.607756
	H22	H	0.282597	0.836890	0.604874
	H23	H	0.280068	0.150593	0.388926
	H24	H	0.898754	0.337122	0.221609
	H25	H	0.111062	0.651043	0.219315
	H26	H	0.114701	0.339034	0.772058
	H27	H	0.897910	0.651093	0.774192
	H28	H	0.230941	0.884994	0.341280
	H29	H	0.230570	0.104421	0.653118
	H30	H	0.779158	0.104095	0.341654
	H31	H	0.783542	0.887596	0.654195
	H32	H	0.350879	0.220688	0.886693
	H33	H	0.661106	0.218872	0.107800
	H34	H	0.348520	0.768552	0.107579
	H35	H	0.661818	0.769535	0.891651
	H36	H	0.347711	0.886215	0.222314
	H37	H	0.661077	0.099929	0.222035
	H38	H	0.349764	0.100930	0.774844
	H39	H	0.660955	0.884072	0.774553
	H40	H	0.895433	0.219571	0.340889
	H41	H	0.113466	0.217748	0.652979
	H42	H	0.113399	0.772838	0.339816
	H43	H	0.900352	0.772114	0.653490
	H44	H	0.231284	0.339721	0.888286
	H45	H	0.228703	0.650955	0.105079
	H46	H	0.784231	0.336074	0.104389
	H47	H	0.781982	0.650177	0.891104
	H48	H	0.415144	0.106952	0.588356
	H49	H	0.591449	0.882469	0.585748
	H50	H	0.591501	0.107132	0.409670
	H51	H	0.422349	0.883927	0.408349
	H52	H	0.593081	0.405567	0.110814
	H53	H	0.590375	0.577896	0.887917
	H54	H	0.421288	0.579555	0.109500
	H55	H	0.417565	0.411890	0.887084
	H56	H	0.120827	0.585490	0.403769
	H57	H	0.891935	0.587868	0.585852
	H58	H	0.118592	0.406466	0.585302
	H59	H	0.894934	0.412176	0.405942
	H60	H	0.118393	0.405327	0.583076
	H61	H	0.894747	0.583863	0.579247
	H62	H	0.118159	0.587382	0.411165
	H63	H	0.892144	0.401527	0.407874
	H64	H	0.416431	0.585162	0.112580
	H65	H	0.591867	0.587741	0.882972
	H66	H	0.594425	0.407054	0.110291
	H67	H	0.423147	0.407293	0.887580
	H68	H	0.591087	0.105668	0.411079
	H69	H	0.595728	0.882078	0.583145
	H70	H	0.420273	0.104950	0.588587
	H71	H	0.419819	0.885586	0.416320
	H72	H	0.909810	0.607820	0.086989
	H73	H	0.096373	0.378540	0.092598
	H74	H	0.096008	0.607155	0.911828
	H75	H	0.920169	0.382737	0.909567
	H76	H	0.093882	0.901975	0.611000
	H77	H	0.089572	0.082636	0.386111
	H78	H	0.909866	0.075130	0.610140
	H79	H	0.919333	0.910737	0.386246
	H80	H	0.620182	0.081493	0.904472
	H81	H	0.394279	0.082465	0.082348
	H82	H	0.616030	0.907056	0.089449
	H83	H	0.391763	0.903219	0.907733
	H84	H	0.617954	0.900982	0.087632
	H85	H	0.394154	0.079533	0.084947
	H86	H	0.617256	0.086727	0.917584
	H87	H	0.393448	0.902886	0.914030
	H88	H	0.927045	0.080503	0.605587
	H89	H	0.095313	0.081361	0.383916
	H90	H	0.097768	0.907688	0.610362
	H91	H	0.919190	0.906207	0.384172
	H92	H	0.092352	0.607838	0.904547
	H93	H	0.085920	0.385630	0.083582
	H94	H	0.919840	0.606203	0.090306
	H95	H	0.913725	0.380777	0.910337
	H96	H	0.417624	0.104622	0.583733
	H97	H	0.595064	0.880320	0.587675
	H98	H	0.592546	0.107006	0.410983
	H99	H	0.414486	0.881519	0.410809
	H100	H	0.592475	0.406527	0.109875
	H101	H	0.600203	0.580480	0.883503
	H102	H	0.413626	0.577564	0.110991
	H103	H	0.417107	0.404918	0.884920
	H104	H	0.118335	0.579562	0.408543
	H105	H	0.893586	0.580106	0.586268
	H106	H	0.117840	0.407773	0.583586
	H107	H	0.897197	0.408089	0.415699
	H108	H	0.916949	0.603418	0.080541
	H109	H	0.100400	0.383008	0.078289
	H110	H	0.087956	0.604658	0.910884
	H111	H	0.917441	0.380295	0.904326
	H112	H	0.091309	0.908249	0.607964
	H113	H	0.091624	0.076749	0.386369
	H114	H	0.915318	0.092084	0.613543
	H115	H	0.915339	0.909055	0.383955
	H116	H	0.613824	0.073228	0.914429
	H117	H	0.393043	0.083063	0.085821
	H118	H	0.615284	0.904804	0.083364
	H119	H	0.394454	0.908038	0.910674
	C120	C	0.384390	0.001788	0.619581
	C121	C	0.627204	0.984727	0.619949
	C122	C	0.625676	0.003200	0.377147
	C123	C	0.383826	0.986171	0.376954
	C124	C	0.626761	0.372530	0.007020
	C125	C	0.626856	0.614265	0.989333
	C126	C	0.383713	0.614982	0.007049
	C127	C	0.384092	0.373224	0.989332
	C128	C	0.015230	0.617008	0.374798
	C129	C	0.997233	0.616493	0.617428
	C130	C	0.014844	0.373235	0.617669
	C131	C	0.998289	0.372889	0.375737
	C132	C	0.884015	0.501698	0.118829
	C133	C	0.126518	0.486102	0.117810
	C134	C	0.126489	0.503353	0.875317
	C135	C	0.883757	0.485046	0.875253
	C136	C	0.127616	0.872789	0.506027
	C137	C	0.126193	0.114565	0.488806
	C138	C	0.883382	0.116587	0.506394
	C139	C	0.885174	0.874524	0.488505
	C140	C	0.514189	0.114775	0.877431
	C141	C	0.496794	0.115408	0.119026
	C142	C	0.512844	0.871055	0.120407
	C143	C	0.496580	0.871136	0.877580
	C144	C	0.381342	0.883082	0.680307
	C145	C	0.630608	0.101711	0.682851
	C146	C	0.630143	0.885426	0.315476
	C147	C	0.378195	0.103338	0.313622
	C148	C	0.687761	0.368657	0.888489
	C149	C	0.687422	0.616491	0.108322
	C150	C	0.322058	0.620303	0.888839
	C151	C	0.322799	0.370253	0.107722
	C152	C	0.897246	0.678442	0.371274
	C153	C	0.116013	0.676386	0.620503
	C154	C	0.897202	0.312146	0.621419
	C155	C	0.115717	0.310540	0.371512
	C156	C	0.896765	0.370427	0.678624
	C157	C	0.115595	0.618717	0.678423
	C158	C	0.896377	0.618718	0.314872
	C159	C	0.116804	0.370147	0.315425
	C160	C	0.380379	0.676731	0.888637
	C161	C	0.629082	0.673838	0.108658
	C162	C	0.630328	0.310773	0.888817
	C163	C	0.379080	0.310896	0.107171
	C164	C	0.689104	0.886260	0.372194
	C165	C	0.688414	0.102444	0.624886
	C166	C	0.322993	0.883874	0.622795
	C167	C	0.320917	0.103551	0.371937
	C168	C	0.881444	0.383878	0.180593
	C169	C	0.129228	0.603959	0.179123
	C170	C	0.131489	0.385845	0.813115
	C171	C	0.880069	0.603504	0.814431
	C172	C	0.189679	0.868501	0.388102
	C173	C	0.189203	0.120524	0.605957
	C174	C	0.820319	0.121328	0.388765
	C175	C	0.824051	0.870256	0.606749
	C176	C	0.397689	0.178692	0.871011
	C177	C	0.614177	0.177335	0.124326
	C178	C	0.395282	0.809479	0.124596
	C179	C	0.614494	0.809790	0.873974
	C180	C	0.394975	0.868197	0.181774
	C181	C	0.614460	0.118301	0.181261
	C182	C	0.396907	0.118928	0.814997
	C183	C	0.614178	0.866823	0.815561
	C184	C	0.878489	0.178622	0.388301
	C185	C	0.130939	0.177282	0.605951
	C186	C	0.131173	0.812167	0.387359
	C187	C	0.882017	0.812543	0.606513
	C188	C	0.189651	0.386296	0.870879
	C189	C	0.187665	0.603980	0.122173
	C190	C	0.823983	0.383444	0.122226
	C191	C	0.822602	0.603243	0.872976
	C192	C	0.410271	0.083937	0.594176
	C193	C	0.601444	0.902920	0.593093
	C194	C	0.599085	0.085027	0.403165
	C195	C	0.411174	0.904861	0.404220
	C196	C	0.600691	0.398826	0.088736
	C197	C	0.601578	0.589223	0.906624
	C198	C	0.409655	0.588501	0.089451
	C199	C	0.411395	0.400200	0.907974
	C200	C	0.097655	0.591518	0.400558
	C201	C	0.914998	0.591248	0.591388
	C202	C	0.096844	0.399037	0.591478
	C203	C	0.915988	0.399411	0.402114
	C204	C	0.908503	0.584307	0.093117
	C205	C	0.101334	0.403762	0.091969
	C206	C	0.099633	0.585152	0.901579
	C207	C	0.909750	0.402778	0.900599
	C208	C	0.101700	0.898526	0.588233
	C209	C	0.099552	0.087806	0.406882
	C210	C	0.909947	0.090108	0.588302
	C211	C	0.910769	0.900946	0.406244
	C212	C	0.595806	0.088007	0.904657
	C213	C	0.415078	0.089193	0.091989
	C214	C	0.594937	0.896920	0.094059
	C215	C	0.414579	0.897453	0.903400
	Zn216	Zn	0.505563	-0.007588	0.748832
	Zn217	Zn	0.504569	-0.005967	0.247832
	Zn218	Zn	0.755336	0.493134	-0.002242
	Zn219	Zn	0.255530	0.495162	-0.002808
	Zn220	Zn	0.006381	0.745422	0.496649
	Zn221	Zn	0.006099	0.244057	0.496619
	Zn222	Zn	0.005875	0.494888	0.745962
	Zn223	Zn	0.006281	0.493648	0.247140
	Zn224	Zn	0.504803	0.742302	-0.001277
	Zn225	Zn	0.505476	0.244654	-0.001775
	Zn226	Zn	0.755344	-0.005408	0.498013
	Zn227	Zn	0.255366	-0.005953	0.497741
	N228	N	0.418745	0.957515	0.678630
	N229	N	0.593463	0.027368	0.679988
	N230	N	0.591557	0.959268	0.318201
	N231	N	0.416310	0.029267	0.316280
	N232	N	0.685828	0.406199	0.963039
	N233	N	0.686267	0.580331	0.033188
	N234	N	0.324083	0.582753	0.963421
	N235	N	0.325672	0.408192	0.033367
	N236	N	0.972345	0.677752	0.407448
	N237	N	0.041413	0.675270	0.583359
	N238	N	0.971617	0.313732	0.584325
	N239	N	0.040696	0.312082	0.408037
	N240	N	0.970994	0.407780	0.676396
	N241	N	0.040719	0.582314	0.676689
	N242	N	0.970922	0.581597	0.316844
	N243	N	0.042388	0.407877	0.317768
	N244	N	0.417941	0.673608	0.963285
	N245	N	0.592364	0.672610	0.033722
	N246	N	0.593344	0.312843	0.963479
	N247	N	0.416214	0.312286	0.032419
	N248	N	0.686517	0.960551	0.409704
	N249	N	0.686182	0.028722	0.586204
	N250	N	0.324575	0.958742	0.586039
	N251	N	0.324191	0.029608	0.410291
	N252	N	0.917936	0.458585	0.178801
	N253	N	0.092003	0.529608	0.176649
	N254	N	0.092872	0.459679	0.815747
	N255	N	0.917215	0.528853	0.815458
	N256	N	0.187798	0.905348	0.462968
	N257	N	0.186491	0.082100	0.531889
	N258	N	0.822800	0.083796	0.463402
	N259	N	0.825886	0.907904	0.532306
	N260	N	0.471866	0.176377	0.909098
	N261	N	0.539819	0.175842	0.086599
	N262	N	0.469815	0.811023	0.087435
	N263	N	0.540383	0.812124	0.911695
	N264	N	0.469206	0.905775	0.179436
	N265	N	0.540408	0.080636	0.178002
	N266	N	0.470413	0.079847	0.818877
	N267	N	0.539773	0.904446	0.817800
	N268	N	0.916932	0.175938	0.462381
	N269	N	0.092252	0.173473	0.532184
	N270	N	0.093204	0.814581	0.461608
	N271	N	0.919302	0.815094	0.531854
	N272	N	0.186630	0.460406	0.908798
	N273	N	0.186135	0.529645	0.084796
	N274	N	0.825773	0.457741	0.084348
	N275	N	0.824270	0.528496	0.909596
	O276	O	0.488637	0.281469	0.481948
	H277	H	0.489362	0.287643	0.493151
	H278	H	0.491466	0.281303	0.459658
	O279	O	1.204121	0.955141	1.021213
	H280	H	1.202829	0.937094	1.033167
	H281	H	1.193375	0.950458	1.035532
	O282	O	0.787586	1.201711	-0.024489
	H283	H	0.782564	1.204922	-0.023225
	H284	H	0.767891	1.201423	-0.016043
	O285	O	-0.211131	-0.053876	0.993316
	H286	H	-0.224942	-0.075706	0.983966
	H287	H	-0.202373	-0.052175	0.989798
	O288	O	0.073187	-0.105699	0.183606
	H289	H	0.052175	-0.086337	0.173970
	H290	H	0.101527	-0.087116	0.184650
	O291	O	1.022922	0.808174	-0.001078
	H292	H	1.030297	0.789638	-0.003863
	H293	H	1.019258	0.817935	0.016801
	O294	O	-0.203688	1.002032	-0.208938
	H295	H	-0.215484	1.021710	-0.219075
	H296	H	-0.203240	1.005706	-0.203002
	O297	O	0.467534	0.535294	0.721888
	H298	H	0.482408	0.531853	0.720962
	H299	H	0.448391	0.512652	0.725807
	O300	O	0.295671	0.530758	0.638025
	H301	H	0.289378	0.524401	0.613395
	H302	H	0.282118	0.530281	0.646316
	O303	O	0.682304	0.311738	0.318844
	H304	H	0.672385	0.308594	0.358479
	H305	H	0.694298	0.364270	0.306153
	O306	O	-0.164216	0.852566	1.071163
	H307	H	-0.150350	0.851662	1.076888
	H308	H	-0.187861	0.827777	1.090700
	O309	O	0.716174	0.706550	0.517627
	H310	H	0.714316	0.725830	0.527238
	H311	H	0.705439	0.721757	0.519766
	O312	O	0.491956	0.687209	0.285128
	H313	H	0.487315	0.717784	0.254022
	H314	H	0.451758	0.676901	0.292776
	O315	O	0.337478	-0.296392	1.447184
	H316	H	0.338295	-0.287363	1.458424
	H317	H	0.334384	-0.277432	1.447788
	O318	O	-0.399690	0.537404	-0.575542
	H319	H	-0.399048	0.526498	-0.549605
	H320	H	-0.388916	0.550029	-0.580268
	O321	O	0.510323	0.706517	0.619945
	H322	H	0.516779	0.717782	0.642853
	H323	H	0.494605	0.689172	0.624058
	O324	O	0.435077	0.496310	0.582079
	H325	H	0.421295	0.489094	0.580858
	H326	H	0.438539	0.507235	0.580365
	O327	O	1.027407	-0.215888	0.788470
	H328	H	1.008737	-0.229202	0.791783
	H329	H	1.008371	-0.207585	0.774852
	O330	O	0.891244	0.109904	-0.200677
	H331	H	0.911487	0.110411	-0.208631
	H332	H	0.908047	0.104861	-0.185877
	O333	O	0.902450	0.874543	0.947395
	H334	H	0.904559	0.876678	0.960903
	H335	H	0.909233	0.864100	0.968194
	O336	O	1.191128	-0.188379	0.817903
	H337	H	1.167002	-0.183217	0.807703
	H338	H	1.173972	-0.190987	0.836463
	O339	O	0.378735	0.349162	0.555529
	H340	H	0.371650	0.348341	0.560067
	H341	H	0.389523	0.337493	0.545043
	O342	O	0.693846	0.683666	0.685319
	H343	H	0.691611	0.695480	0.699573
	H344	H	0.698999	0.660195	0.669619
	O345	O	0.030035	0.209026	0.214791
	H346	H	0.022149	0.228036	0.242739
	H347	H	0.005376	0.195815	0.214130
	O348	O	0.694753	0.231456	0.759793
	H349	H	0.725250	0.225353	0.771299
	H350	H	0.698667	0.235834	0.784180
	O351	O	1.213371	0.779016	-0.017633
	H352	H	1.219392	0.759693	-0.026232
	H353	H	1.213944	0.778125	-0.024568
	O354	O	0.527111	0.273321	0.279314
	H355	H	0.549369	0.279627	0.274553
	H356	H	0.544022	0.256991	0.256187
	O357	O	1.017216	0.820977	1.075806
	H358	H	1.014225	0.828402	1.092220
	H359	H	1.008835	0.808142	1.067328
	O360	O	0.040601	1.203196	0.969902
	H361	H	0.032873	1.183278	0.970354
	H362	H	0.045799	1.211289	0.996449
	O363	O	0.571712	0.583556	0.318585
	H364	H	0.571795	0.584526	0.330495
	H365	H	0.561035	0.608536	0.322021
	O366	O	1.113962	-0.010416	0.885524
	H367	H	1.116353	-0.017071	0.888124
	H368	H	1.124169	-0.019265	0.895646
	O369	O	0.457780	0.292855	0.669968
	H370	H	0.447943	0.294776	0.675606
	H371	H	0.460963	0.304676	0.673620
	O372	O	0.423360	0.471666	0.482553
	H373	H	0.413286	0.471290	0.497154
	H374	H	0.418375	0.468043	0.487122
	O375	O	0.219428	1.194582	1.010708
	H376	H	0.245325	1.216552	1.016187
	H377	H	0.229300	1.155945	0.983110
	O378	O	0.842672	0.983801	0.210337
	H379	H	0.820195	0.973906	0.219976
	H380	H	0.852907	0.957890	0.211895
	O381	O	1.045298	0.035961	0.114291
	H382	H	1.056975	0.059589	0.115840
	H383	H	1.030116	0.043303	0.095561
	O384	O	-0.080533	0.015468	0.971685
	H385	H	-0.085590	0.019027	0.975523
	H386	H	-0.075234	0.013936	0.976809
	O387	O	-0.114169	0.851564	0.822265
	H388	H	-0.124437	0.874335	0.826466
	H389	H	-0.094553	0.868229	0.820203
	O390	O	0.021830	0.198615	0.987976
	H391	H	0.030445	0.191064	1.004135
	H392	H	0.022816	0.202331	0.997932
	O393	O	0.313435	1.432833	-0.437340
	H394	H	0.312746	1.419617	-0.457074
	H395	H	0.325292	1.431400	-0.442566
	O396	O	0.722573	0.276450	0.475537
	H397	H	0.738318	0.261377	0.470662
	H398	H	0.713423	0.263066	0.478028
	O399	O	0.722093	0.595542	0.383801
	H400	H	0.716947	0.578968	0.402081
	H401	H	0.710863	0.611117	0.411531
	O402	O	-0.131748	0.061750	1.062705
	H403	H	-0.129392	0.043640	1.057164
	H404	H	-0.130937	0.058912	1.066131
	O405	O	0.720429	0.521295	-0.286063
	H406	H	0.714456	0.512760	-0.300443
	H407	H	0.748002	0.523916	-0.263409
	O408	O	0.816250	0.809940	1.183820
	H409	H	0.802344	0.804938	1.179742
	H410	H	0.857333	0.795339	1.194678
	O411	O	0.320717	0.679589	0.309312
	H412	H	0.311355	0.668074	0.339594
	H413	H	0.302864	0.652085	0.298860
	O414	O	0.439491	0.359690	0.360571
	H415	H	0.459302	0.370526	0.350990
	H416	H	0.441727	0.364597	0.357376
	O417	O	0.520654	0.297896	0.604436
	H418	H	0.518923	0.280464	0.623027
	H419	H	0.513607	0.308229	0.612257
	O420	O	0.510484	0.598343	0.618303
	H421	H	0.529989	0.595584	0.620107
	H422	H	0.502517	0.604064	0.629252
	O423	O	-0.099845	1.120823	0.184521
	H424	H	-0.113115	1.102433	0.179771
	H425	H	-0.104370	1.107575	0.170183
	O426	O	0.982744	1.203610	0.783619
	H427	H	1.002540	1.214012	0.815631
	H428	H	0.989795	1.222067	0.761520
	O429	O	0.676315	0.467040	0.566655
	H430	H	0.657055	0.462113	0.562835
	H431	H	0.684277	0.443570	0.574268
	O432	O	0.099144	0.074470	0.879321
	H433	H	0.090100	0.071118	0.868358
	H434	H	0.100857	0.073132	0.893221
	O435	O	0.225399	0.023260	-0.125447
	H436	H	0.231695	-0.001804	-0.107252
	H437	H	0.229400	0.012301	-0.162441
	O438	O	1.223298	0.012102	0.215509
	H439	H	1.213830	0.061880	0.202253
	H440	H	1.257847	0.019167	0.247761
	O441	O	0.710866	0.470693	0.285907
	H442	H	0.729249	0.482690	0.285141
	H443	H	0.713719	0.490216	0.299803
	O444	O	-0.024503	0.777345	1.214951
	H445	H	-0.020869	0.747448	1.248232
	H446	H	-0.002931	0.807056	1.219223
	O447	O	0.473261	0.608963	0.539209
	H448	H	0.457401	0.608183	0.529293
	H449	H	0.467749	0.608200	0.532014
	O450	O	0.189902	0.170692	0.182788
	H451	H	0.189599	0.185978	0.139922
	H452	H	0.146711	0.184679	0.185084
	O453	O	0.386006	0.682698	0.597159
	H454	H	0.395736	0.673370	0.611441
	H455	H	0.411201	0.679427	0.591474
	O456	O	0.628531	0.387466	0.655330
	H457	H	0.646857	0.368741	0.659334
	H458	H	0.627267	0.388938	0.653070
	O459	O	0.367714	0.490507	0.293371
	H460	H	0.386558	0.474148	0.297741
	H461	H	0.361108	0.480556	0.278383
	O462	O	0.304473	0.388328	0.427385
	H463	H	0.328563	0.376487	0.403821
	H464	H	0.294024	0.356677	0.439360
	O465	O	1.135487	-0.034067	-0.221651
	H466	H	1.145876	-0.041785	-0.219435
	H467	H	1.134542	-0.028225	-0.237790
