data_Molecule from HDF5

_cell_length_a		16.276207
_cell_length_b		16.268751
_cell_length_c		16.195092
_cell_angle_alpha	89.913970
_cell_angle_beta	89.929420
_cell_angle_gamma	90.239459
_symmetry_space_group_name_H-M	'P 1'
_symmetry_Int_Tables_number		1

loop_
	_symmetry_equiv_pos_as_xyz
	x,y,z

loop_
	_atom_site_label
	_atom_site_type_symbol
	_atom_site_fract_x
	_atom_site_fract_y
	_atom_site_fract_z
	H0	H	0.416199	0.832388	0.720617
	H1	H	0.613496	0.160004	0.719939
	H2	H	0.611661	0.831967	0.293144
	H3	H	0.418269	0.159821	0.292579
	H4	H	0.726887	0.398660	0.841963
	H5	H	0.729428	0.595087	0.170335
	H6	H	0.301537	0.593707	0.841578
	H7	H	0.298935	0.395573	0.170621
	H8	H	0.850357	0.709781	0.407426
	H9	H	0.178277	0.710647	0.604464
	H10	H	0.851098	0.280519	0.604966
	H11	H	0.178540	0.283467	0.407400
	H12	H	0.850415	0.397548	0.720025
	H13	H	0.178711	0.594380	0.719775
	H14	H	0.850193	0.593582	0.291990
	H15	H	0.177791	0.398469	0.291012
	H16	H	0.416883	0.710702	0.842080
	H17	H	0.611868	0.707968	0.172082
	H18	H	0.611709	0.283399	0.841983
	H19	H	0.414714	0.280682	0.170334
	H20	H	0.728326	0.832504	0.407953
	H21	H	0.731047	0.159117	0.605261
	H22	H	0.298104	0.833078	0.606503
	H23	H	0.300342	0.159264	0.405513
	H24	H	0.914762	0.332822	0.220845
	H25	H	0.112331	0.660294	0.218753
	H26	H	0.111555	0.331985	0.792568
	H27	H	0.918874	0.660562	0.793792
	H28	H	0.227320	0.899762	0.341252
	H29	H	0.229600	0.095886	0.670793
	H30	H	0.801736	0.093914	0.341786
	H31	H	0.800417	0.897068	0.670517
	H32	H	0.350667	0.210653	0.906509
	H33	H	0.678345	0.210693	0.104869
	H34	H	0.350948	0.781433	0.106555
	H35	H	0.678850	0.782011	0.908188
	H36	H	0.351320	0.898003	0.221270
	H37	H	0.678431	0.092803	0.218948
	H38	H	0.351722	0.094953	0.790275
	H39	H	0.679102	0.898477	0.791952
	H40	H	0.917268	0.209901	0.341804
	H41	H	0.113722	0.210955	0.670585
	H42	H	0.112483	0.783429	0.341141
	H43	H	0.915246	0.781111	0.670400
	H44	H	0.228467	0.332273	0.906859
	H45	H	0.228892	0.658951	0.104838
	H46	H	0.798513	0.332360	0.104849
	H47	H	0.801051	0.660276	0.906971
	H48	H	0.420490	0.111920	0.591646
	H49	H	0.620763	0.877129	0.592975
	H50	H	0.617774	0.114874	0.418337
	H51	H	0.421048	0.881243	0.421769
	H52	H	0.606647	0.404236	0.124067
	H53	H	0.604753	0.605893	0.884804
	H54	H	0.418485	0.582544	0.122481
	H55	H	0.414840	0.412225	0.889973
	H56	H	0.129612	0.587248	0.413197
	H57	H	0.896474	0.590288	0.601784
	H58	H	0.129358	0.406719	0.597493
	H59	H	0.897184	0.398611	0.415677
	H60	H	0.132672	0.403952	0.604057
	H61	H	0.897990	0.590481	0.597326
	H62	H	0.131987	0.591153	0.409255
	H63	H	0.899072	0.406379	0.416443
	H64	H	0.427261	0.590999	0.122948
	H65	H	0.622380	0.584090	0.885952
	H66	H	0.605918	0.403069	0.124461
	H67	H	0.431791	0.402873	0.891977
	H68	H	0.610323	0.115852	0.402903
	H69	H	0.605441	0.875486	0.613901
	H70	H	0.418059	0.114984	0.602776
	H71	H	0.413136	0.876162	0.411152
	H72	H	0.928985	0.610418	0.097474
	H73	H	0.096582	0.382163	0.096215
	H74	H	0.105484	0.612787	0.911059
	H75	H	0.914316	0.376194	0.908188
	H76	H	0.096184	0.898896	0.620954
	H77	H	0.097754	0.086531	0.393280
	H78	H	0.918337	0.092258	0.625636
	H79	H	0.931447	0.902328	0.391242
	H80	H	0.630643	0.087450	0.912487
	H81	H	0.396254	0.099738	0.093491
	H82	H	0.633895	0.893130	0.097763
	H83	H	0.395398	0.902976	0.904664
	H84	H	0.628582	0.908193	0.093985
	H85	H	0.403003	0.078394	0.091639
	H86	H	0.633224	0.091804	0.911251
	H87	H	0.398508	0.894885	0.921609
	H88	H	0.921200	0.081696	0.622324
	H89	H	0.110114	0.101091	0.385178
	H90	H	0.115225	0.896386	0.628118
	H91	H	0.915737	0.893697	0.384292
	H92	H	0.107506	0.610884	0.917247
	H93	H	0.114378	0.379025	0.092533
	H94	H	0.916587	0.612867	0.092442
	H95	H	0.926012	0.380437	0.911714
	H96	H	0.428689	0.111250	0.600372
	H97	H	0.596423	0.884838	0.591341
	H98	H	0.601116	0.110162	0.416446
	H99	H	0.426545	0.879953	0.409194
	H100	H	0.607326	0.403163	0.123843
	H101	H	0.595650	0.581000	0.895175
	H102	H	0.415737	0.593165	0.126500
	H103	H	0.416194	0.393393	0.884583
	H104	H	0.131287	0.593343	0.414767
	H105	H	0.898870	0.586171	0.600096
	H106	H	0.132103	0.400047	0.597366
	H107	H	0.896734	0.403441	0.408833
	H108	H	0.919440	0.615215	0.105317
	H109	H	0.107595	0.374955	0.108942
	H110	H	0.111693	0.613591	0.911923
	H111	H	0.916910	0.380405	0.920242
	H112	H	0.109004	0.915011	0.621395
	H113	H	0.116958	0.082558	0.388544
	H114	H	0.928666	0.089519	0.622597
	H115	H	0.915347	0.912050	0.389373
	H116	H	0.630061	0.092035	0.915795
	H117	H	0.394144	0.086006	0.111596
	H118	H	0.634075	0.904216	0.108997
	H119	H	0.402857	0.912685	0.918075
	C120	C	0.392839	0.004622	0.627729
	C121	C	0.636483	0.987517	0.627549
	C122	C	0.637075	0.005027	0.384720
	C123	C	0.392802	0.987277	0.384790
	C124	C	0.635084	0.375249	0.015240
	C125	C	0.635967	0.618108	0.997697
	C126	C	0.392781	0.617603	0.015163
	C127	C	0.392236	0.373982	0.997753
	C128	C	0.022721	0.618395	0.384249
	C129	C	1.006155	0.617639	0.628025
	C130	C	0.023092	0.374355	0.628032
	C131	C	1.005857	0.374646	0.384523
	C132	C	0.892154	0.504680	0.127525
	C133	C	0.135558	0.487250	0.127620
	C134	C	0.136024	0.504098	0.884746
	C135	C	0.892079	0.487743	0.884813
	C136	C	0.135381	0.875396	0.514418
	C137	C	0.136678	0.118375	0.497861
	C138	C	0.894103	0.116723	0.514624
	C139	C	0.892678	0.873822	0.497264
	C140	C	0.523078	0.118409	0.884437
	C141	C	0.505828	0.117043	0.127376
	C142	C	0.523869	0.873719	0.129061
	C143	C	0.506969	0.874487	0.885301
	C144	C	0.395104	0.881488	0.683229
	C145	C	0.634122	0.110994	0.682319
	C146	C	0.632703	0.881086	0.330526
	C147	C	0.396830	0.110737	0.329646
	C148	C	0.689248	0.378473	0.891013
	C149	C	0.691353	0.615334	0.121379
	C150	C	0.338731	0.614612	0.890985
	C151	C	0.336702	0.375613	0.121353
	C152	C	0.899335	0.672365	0.387062
	C153	C	0.129291	0.673301	0.625554
	C154	C	0.899820	0.318807	0.625218
	C155	C	0.129325	0.320394	0.386947
	C156	C	0.899378	0.376950	0.682424
	C157	C	0.129627	0.615105	0.682628
	C158	C	0.899233	0.614674	0.329525
	C159	C	0.129211	0.377993	0.329419
	C160	C	0.395832	0.672822	0.891286
	C161	C	0.633274	0.671753	0.122353
	C162	C	0.632013	0.321120	0.891046
	C163	C	0.394123	0.318460	0.121309
	C164	C	0.690798	0.881344	0.387366
	C165	C	0.692380	0.110620	0.625352
	C166	C	0.336719	0.881818	0.626444
	C167	C	0.338611	0.110657	0.386352
	C168	C	0.893956	0.381416	0.182910
	C169	C	0.132989	0.610986	0.181660
	C170	C	0.132323	0.380783	0.830262
	C171	C	0.896925	0.611415	0.830540
	C172	C	0.190150	0.878739	0.390525
	C173	C	0.191473	0.115981	0.621587
	C174	C	0.839338	0.114430	0.390889
	C175	C	0.837944	0.875984	0.621349
	C176	C	0.399690	0.172600	0.886573
	C177	C	0.629201	0.172883	0.125266
	C178	C	0.400075	0.819179	0.126600
	C179	C	0.630082	0.819965	0.887822
	C180	C	0.400165	0.876781	0.183808
	C181	C	0.629578	0.114264	0.181757
	C182	C	0.400035	0.115020	0.829027
	C183	C	0.630085	0.877549	0.829757
	C184	C	0.896631	0.172174	0.391010
	C185	C	0.134032	0.173328	0.621559
	C186	C	0.133051	0.820790	0.390612
	C187	C	0.895068	0.818610	0.621228
	C188	C	0.190464	0.381002	0.886946
	C189	C	0.191084	0.610233	0.125133
	C190	C	0.836513	0.381410	0.125114
	C191	C	0.838095	0.611056	0.886609
	C192	C	0.415734	0.090514	0.605019
	C193	C	0.614095	0.901486	0.605723
	C194	C	0.616031	0.091195	0.406226
	C195	C	0.414044	0.901333	0.407143
	C196	C	0.612960	0.397058	0.101707
	C197	C	0.614058	0.596860	0.911228
	C198	C	0.414236	0.595543	0.101692
	C199	C	0.414349	0.396276	0.911161
	C200	C	0.108780	0.596805	0.405951
	C201	C	0.920169	0.595666	0.606132
	C202	C	0.109106	0.396933	0.606154
	C203	C	0.919685	0.396409	0.406962
	C204	C	0.915011	0.590603	0.105183
	C205	C	0.112876	0.401057	0.105823
	C206	C	0.114655	0.590322	0.906922
	C207	C	0.912931	0.401320	0.906896
	C208	C	0.113413	0.897219	0.601090
	C209	C	0.114614	0.096518	0.411402
	C210	C	0.916225	0.094300	0.601085
	C211	C	0.914600	0.895872	0.410906
	C212	C	0.609111	0.096925	0.906539
	C213	C	0.420085	0.094621	0.105589
	C214	C	0.610025	0.895384	0.106893
	C215	C	0.421109	0.896898	0.907971
	Zn216	Zn	0.514740	-0.003579	0.756190
	Zn217	Zn	0.515100	-0.004148	0.256678
	Zn218	Zn	0.763286	0.496367	0.005880
	Zn219	Zn	0.264371	0.495296	0.006614
	Zn220	Zn	0.014219	0.746441	0.506037
	Zn221	Zn	0.014852	0.245886	0.506109
	Zn222	Zn	0.014336	0.495827	0.756866
	Zn223	Zn	0.014216	0.496035	0.256017
	Zn224	Zn	0.514571	0.746010	0.007466
	Zn225	Zn	0.514066	0.246651	0.006343
	Zn226	Zn	0.765503	-0.004172	0.506421
	Zn227	Zn	0.264552	-0.003342	0.506434
	N228	N	0.429327	0.959001	0.683982
	N229	N	0.600065	0.033664	0.683661
	N230	N	0.599715	0.958921	0.328893
	N231	N	0.430029	0.033032	0.328638
	N232	N	0.691344	0.411482	0.969266
	N233	N	0.693278	0.582735	0.042982
	N234	N	0.336340	0.581130	0.969126
	N235	N	0.335514	0.409527	0.043355
	N236	N	0.976881	0.674483	0.420567
	N237	N	0.051589	0.674996	0.592220
	N238	N	0.977731	0.317157	0.592179
	N239	N	0.051643	0.318384	0.420563
	N240	N	0.976979	0.410714	0.684352
	N241	N	0.051971	0.581360	0.684327
	N242	N	0.976946	0.581770	0.327525
	N243	N	0.051450	0.410866	0.327687
	N244	N	0.428626	0.674656	0.969367
	N245	N	0.599279	0.673433	0.044594
	N246	N	0.599150	0.319061	0.969256
	N247	N	0.427987	0.317474	0.043489
	N248	N	0.693699	0.959223	0.420210
	N249	N	0.693766	0.032880	0.591812
	N250	N	0.335138	0.959490	0.592888
	N251	N	0.335931	0.032992	0.419803
	N252	N	0.927948	0.459008	0.184618
	N253	N	0.099089	0.533350	0.183323
	N254	N	0.099287	0.458555	0.828809
	N255	N	0.929561	0.533511	0.828969
	N256	N	0.191783	0.911960	0.468616
	N257	N	0.193399	0.082706	0.543621
	N258	N	0.837654	0.080850	0.468926
	N259	N	0.836223	0.909710	0.543509
	N260	N	0.477210	0.174754	0.920334
	N261	N	0.551340	0.174827	0.092199
	N262	N	0.477991	0.817206	0.093412
	N263	N	0.552497	0.817999	0.921659
	N264	N	0.477983	0.910096	0.185476
	N265	N	0.552040	0.080187	0.183180
	N266	N	0.477613	0.081889	0.827651
	N267	N	0.552408	0.910806	0.828098
	N268	N	0.929800	0.173799	0.469081
	N269	N	0.100546	0.174973	0.543539
	N270	N	0.099857	0.818540	0.468738
	N271	N	0.928305	0.817206	0.543067
	N272	N	0.192849	0.458754	0.920163
	N273	N	0.192863	0.532249	0.092346
	N274	N	0.835262	0.459201	0.091511
	N275	N	0.835158	0.533177	0.919756
	O276	O	0.495710	0.551491	0.466571
	H277	H	0.500541	0.556173	0.460443
	H278	H	0.488442	0.539720	0.463208
	O279	O	-0.519951	0.491917	-0.462498
	H280	H	-0.513914	0.499538	-0.451423
	H281	H	-0.526884	0.482468	-0.457742
	O282	O	0.453698	0.504962	0.530297
	H283	H	0.454324	0.511761	0.519748
	H284	H	0.462307	0.508129	0.529451
	O285	O	0.074275	1.006225	0.961416
	H286	H	0.069040	1.010959	0.963445
	H287	H	0.078396	0.998340	0.963781
	O288	O	1.049435	-0.025970	-0.026237
	H289	H	1.053847	-0.022455	-0.027999
	H290	H	1.049007	-0.023735	-0.026878
	O291	O	-0.915239	1.005628	-1.032695
	H292	H	-0.912023	1.005377	-1.037760
	H293	H	-0.910353	0.999425	-1.034474
	O294	O	0.498729	0.505535	0.562528
	H295	H	0.499197	0.509154	0.565619
	H296	H	0.497384	0.510420	0.554730
	O297	O	0.035288	0.962215	-0.021211
	H298	H	0.033477	0.963882	-0.016475
	H299	H	0.022217	0.961928	-0.024225
	O300	O	1.019904	0.019901	0.997799
	H301	H	1.025014	0.022800	0.994620
	H302	H	1.025713	0.024883	0.992407
	O303	O	0.472249	0.469208	0.487154
	H304	H	0.467954	0.460440	0.491766
	H305	H	0.471790	0.466204	0.493089
	O306	O	0.044238	0.982432	0.988523
	H307	H	0.048945	0.982260	0.977999
	H308	H	0.041897	0.973627	0.990835
	O309	O	0.459859	0.488368	0.548991
	H310	H	0.461387	0.496547	0.542705
	H311	H	0.454520	0.492314	0.550570
