data_Molecule from HDF5

_cell_length_a		16.132119
_cell_length_b		16.179002
_cell_length_c		16.280633
_cell_angle_alpha	90.176637
_cell_angle_beta	89.930544
_cell_angle_gamma	89.661105
_symmetry_space_group_name_H-M	'P 1'
_symmetry_Int_Tables_number		1

loop_
	_symmetry_equiv_pos_as_xyz
	x,y,z

loop_
	_atom_site_label
	_atom_site_type_symbol
	_atom_site_fract_x
	_atom_site_fract_y
	_atom_site_fract_z
	H0	H	0.417420	0.830448	0.716164
	H1	H	0.616211	0.158253	0.718829
	H2	H	0.619139	0.830285	0.287396
	H3	H	0.418405	0.158606	0.287264
	H4	H	0.735698	0.391973	0.839700
	H5	H	0.730356	0.592998	0.166442
	H6	H	0.301727	0.592488	0.838680
	H7	H	0.305002	0.398244	0.167041
	H8	H	0.852669	0.709111	0.408085
	H9	H	0.182758	0.709743	0.602601
	H10	H	0.852466	0.284457	0.602209
	H11	H	0.182767	0.282024	0.404206
	H12	H	0.853892	0.398092	0.718846
	H13	H	0.182409	0.595382	0.719504
	H14	H	0.853803	0.598849	0.288861
	H15	H	0.182358	0.395045	0.289874
	H16	H	0.418163	0.707086	0.837637
	H17	H	0.614436	0.709328	0.165500
	H18	H	0.618263	0.277837	0.838464
	H19	H	0.418311	0.280411	0.166225
	H20	H	0.732462	0.830336	0.404760
	H21	H	0.727633	0.161250	0.599692
	H22	H	0.305103	0.831008	0.598682
	H23	H	0.306886	0.161654	0.406538
	H24	H	0.919176	0.330973	0.220236
	H25	H	0.116301	0.659486	0.217376
	H26	H	0.120203	0.332096	0.787113
	H27	H	0.915748	0.659710	0.791010
	H28	H	0.232054	0.896339	0.337885
	H29	H	0.231658	0.095095	0.666251
	H30	H	0.803575	0.095010	0.338361
	H31	H	0.802868	0.898756	0.665887
	H32	H	0.352399	0.207680	0.904520
	H33	H	0.681915	0.208035	0.101376
	H34	H	0.350285	0.785343	0.097032
	H35	H	0.681100	0.777238	0.901446
	H36	H	0.353161	0.895112	0.216506
	H37	H	0.682656	0.092390	0.215370
	H38	H	0.353403	0.095992	0.787337
	H39	H	0.681602	0.891504	0.786333
	H40	H	0.918664	0.211773	0.339312
	H41	H	0.114501	0.208815	0.667406
	H42	H	0.117508	0.779183	0.339938
	H43	H	0.918641	0.783927	0.666784
	H44	H	0.230171	0.329579	0.906148
	H45	H	0.229358	0.659017	0.101264
	H46	H	0.805792	0.328702	0.101795
	H47	H	0.801883	0.658732	0.906966
	H48	H	0.416350	0.115446	0.597668
	H49	H	0.604152	0.883531	0.582071
	H50	H	0.609479	0.114238	0.402024
	H51	H	0.423694	0.878487	0.418915
	H52	H	0.624161	0.410700	0.119799
	H53	H	0.607521	0.585133	0.886575
	H54	H	0.426738	0.589454	0.117874
	H55	H	0.422699	0.407872	0.886599
	H56	H	0.137511	0.585453	0.406498
	H57	H	0.901435	0.594627	0.587730
	H58	H	0.135786	0.401975	0.595277
	H59	H	0.901518	0.404044	0.415522
	H60	H	0.135300	0.405009	0.596029
	H61	H	0.902530	0.579227	0.600130
	H62	H	0.138023	0.592328	0.409537
	H63	H	0.899793	0.409185	0.409527
	H64	H	0.421748	0.595062	0.121787
	H65	H	0.611027	0.587573	0.884576
	H66	H	0.595020	0.406821	0.112636
	H67	H	0.430222	0.398495	0.886829
	H68	H	0.606589	0.111633	0.409567
	H69	H	0.625897	0.873545	0.594114
	H70	H	0.431192	0.113633	0.603800
	H71	H	0.417000	0.872806	0.401373
	H72	H	0.922180	0.610860	0.093302
	H73	H	0.118255	0.374826	0.096943
	H74	H	0.107901	0.610386	0.918488
	H75	H	0.925208	0.376336	0.909116
	H76	H	0.116258	0.904049	0.621193
	H77	H	0.112205	0.088119	0.385560
	H78	H	0.921679	0.079250	0.616533
	H79	H	0.932174	0.907939	0.388549
	H80	H	0.635202	0.091673	0.916392
	H81	H	0.394452	0.095186	0.103688
	H82	H	0.635288	0.890967	0.083498
	H83	H	0.398058	0.895643	0.907231
	H84	H	0.630515	0.914699	0.092394
	H85	H	0.402115	0.090763	0.085210
	H86	H	0.631942	0.075158	0.912079
	H87	H	0.400128	0.904267	0.912460
	H88	H	0.934027	0.097092	0.618839
	H89	H	0.109210	0.090054	0.385349
	H90	H	0.109956	0.909028	0.618128
	H91	H	0.928048	0.894270	0.384307
	H92	H	0.116898	0.616367	0.910231
	H93	H	0.108543	0.375046	0.105138
	H94	H	0.920550	0.613973	0.099866
	H95	H	0.929112	0.376670	0.908822
	H96	H	0.428025	0.110169	0.587691
	H97	H	0.602555	0.875772	0.605626
	H98	H	0.614112	0.113747	0.409249
	H99	H	0.434988	0.878970	0.404400
	H100	H	0.611210	0.384267	0.123808
	H101	H	0.610869	0.582851	0.885463
	H102	H	0.418838	0.586439	0.120124
	H103	H	0.418828	0.396461	0.883128
	H104	H	0.134874	0.585997	0.413350
	H105	H	0.894920	0.597251	0.607575
	H106	H	0.137635	0.402790	0.598308
	H107	H	0.897740	0.401552	0.407900
	H108	H	0.928035	0.610646	0.098669
	H109	H	0.106764	0.378637	0.092823
	H110	H	0.104437	0.613161	0.905426
	H111	H	0.927797	0.378237	0.912269
	H112	H	0.107851	0.900449	0.618922
	H113	H	0.112482	0.091797	0.384308
	H114	H	0.912068	0.096706	0.625156
	H115	H	0.918039	0.905813	0.384443
	H116	H	0.638966	0.086553	0.899734
	H117	H	0.401417	0.075827	0.098267
	H118	H	0.641037	0.896715	0.107916
	H119	H	0.397669	0.904661	0.902231
	C120	C	0.396338	0.004172	0.624096
	C121	C	0.638706	0.986438	0.623418
	C122	C	0.639607	0.004072	0.379273
	C123	C	0.396752	0.986107	0.380682
	C124	C	0.639920	0.370857	0.011036
	C125	C	0.638051	0.614859	0.993651
	C126	C	0.394064	0.617257	0.011116
	C127	C	0.395696	0.372878	0.993899
	C128	C	0.027165	0.617306	0.382299
	C129	C	1.008686	0.618483	0.626614
	C130	C	0.026955	0.374867	0.625198
	C131	C	1.008952	0.375138	0.382461
	C132	C	0.895445	0.503115	0.126569
	C133	C	0.138916	0.485642	0.125737
	C134	C	0.139173	0.504214	0.882571
	C135	C	0.897077	0.485935	0.882637
	C136	C	0.140192	0.874231	0.511380
	C137	C	0.139531	0.118358	0.493802
	C138	C	0.894422	0.119513	0.511558
	C139	C	0.897250	0.875356	0.494151
	C140	C	0.526373	0.114554	0.880978
	C141	C	0.508489	0.115397	0.123640
	C142	C	0.526141	0.872869	0.122756
	C143	C	0.507779	0.871955	0.879159
	C144	C	0.398154	0.880037	0.678286
	C145	C	0.636238	0.109673	0.679912
	C146	C	0.638819	0.879667	0.324811
	C147	C	0.398558	0.110055	0.325631
	C148	C	0.696719	0.372352	0.888168
	C149	C	0.692437	0.612971	0.117349
	C150	C	0.339216	0.613269	0.887743
	C151	C	0.341811	0.376769	0.117864
	C152	C	0.902065	0.671871	0.386640
	C153	C	0.133360	0.672729	0.623561
	C154	C	0.902336	0.321191	0.622522
	C155	C	0.133119	0.319637	0.384405
	C156	C	0.902845	0.377927	0.680552
	C157	C	0.133200	0.615889	0.681586
	C158	C	0.902807	0.616910	0.327395
	C159	C	0.132993	0.375942	0.327319
	C160	C	0.396699	0.670849	0.887301
	C161	C	0.635064	0.671055	0.116639
	C162	C	0.638428	0.315372	0.887740
	C163	C	0.398341	0.318230	0.117316
	C164	C	0.695511	0.879933	0.382873
	C165	C	0.691567	0.111164	0.620607
	C166	C	0.342171	0.880073	0.619834
	C167	C	0.343195	0.111531	0.385075
	C168	C	0.898717	0.379790	0.182073
	C169	C	0.136395	0.609946	0.180030
	C170	C	0.139115	0.380746	0.825896
	C171	C	0.897020	0.610042	0.828389
	C172	C	0.194553	0.876340	0.387421
	C173	C	0.194035	0.115490	0.617468
	C174	C	0.840367	0.116162	0.387815
	C175	C	0.841278	0.878618	0.617262
	C176	C	0.402186	0.170576	0.883552
	C177	C	0.632783	0.170063	0.121298
	C178	C	0.400764	0.820695	0.118684
	C179	C	0.631973	0.815509	0.881485
	C180	C	0.401926	0.875569	0.177968
	C181	C	0.632884	0.112724	0.178323
	C182	C	0.402479	0.114676	0.825528
	C183	C	0.632144	0.872306	0.824022
	C184	C	0.897744	0.174223	0.388391
	C185	C	0.135640	0.172110	0.617886
	C186	C	0.137817	0.817732	0.388484
	C187	C	0.898718	0.821180	0.617700
	C188	C	0.193966	0.379475	0.884783
	C189	C	0.192538	0.609836	0.122109
	C190	C	0.842356	0.378586	0.123066
	C191	C	0.840192	0.609664	0.885932
	C192	C	0.418404	0.090684	0.602735
	C193	C	0.617110	0.899895	0.600589
	C194	C	0.616748	0.090719	0.400670
	C195	C	0.418544	0.899161	0.402051
	C196	C	0.616835	0.393930	0.096771
	C197	C	0.616368	0.591836	0.907655
	C198	C	0.415845	0.596277	0.097641
	C199	C	0.417526	0.394337	0.907664
	C200	C	0.114103	0.594820	0.403637
	C201	C	0.922071	0.596685	0.604933
	C202	C	0.113839	0.396794	0.603225
	C203	C	0.922097	0.398323	0.404630
	C204	C	0.917031	0.589610	0.103878
	C205	C	0.117532	0.398785	0.104558
	C206	C	0.116358	0.590895	0.904825
	C207	C	0.920484	0.399406	0.903858
	C208	C	0.117799	0.897590	0.597249
	C209	C	0.117869	0.096539	0.407428
	C210	C	0.916135	0.097529	0.597801
	C211	C	0.919589	0.896491	0.407967
	C212	C	0.613116	0.091141	0.902998
	C213	C	0.421645	0.093640	0.101837
	C214	C	0.613261	0.894435	0.100888
	C215	C	0.421108	0.894819	0.900885
	Zn216	Zn	0.517537	-0.006036	0.752379
	Zn217	Zn	0.517367	-0.006221	0.251683
	Zn218	Zn	0.767791	0.493438	0.003024
	Zn219	Zn	0.266244	0.494364	0.003206
	Zn220	Zn	0.017822	0.745465	0.503846
	Zn221	Zn	0.017599	0.247156	0.503151
	Zn222	Zn	0.018388	0.495939	0.754394
	Zn223	Zn	0.018218	0.495506	0.254770
	Zn224	Zn	0.516172	0.744663	0.001597
	Zn225	Zn	0.517359	0.243113	0.001889
	Zn226	Zn	0.767142	-0.004086	0.501889
	Zn227	Zn	0.268361	-0.003629	0.502114
	N228	N	0.431170	0.958168	0.680908
	N229	N	0.604079	0.031052	0.681687
	N230	N	0.605053	0.957986	0.322135
	N231	N	0.431011	0.031240	0.322915
	N232	N	0.697788	0.406118	0.965924
	N233	N	0.694339	0.578585	0.039909
	N234	N	0.337170	0.580900	0.965833
	N235	N	0.340224	0.410175	0.040283
	N236	N	0.980348	0.672218	0.420114
	N237	N	0.055004	0.674442	0.590045
	N238	N	0.980643	0.319184	0.588833
	N239	N	0.054842	0.318836	0.417874
	N240	N	0.981338	0.410716	0.682166
	N241	N	0.054813	0.582844	0.683704
	N242	N	0.981493	0.583583	0.324593
	N243	N	0.054550	0.409962	0.326112
	N244	N	0.430290	0.673117	0.964915
	N245	N	0.602142	0.672373	0.038851
	N246	N	0.603964	0.314363	0.965115
	N247	N	0.431178	0.315590	0.039169
	N248	N	0.696076	0.958260	0.416043
	N249	N	0.693117	0.033516	0.586060
	N250	N	0.340694	0.958193	0.586909
	N251	N	0.341863	0.033366	0.418526
	N252	N	0.930789	0.458225	0.184299
	N253	N	0.103699	0.531755	0.182435
	N254	N	0.105955	0.459309	0.824167
	N255	N	0.931631	0.532066	0.826009
	N256	N	0.196121	0.910994	0.464908
	N257	N	0.196498	0.082634	0.539359
	N258	N	0.838201	0.082874	0.465421
	N259	N	0.840128	0.911490	0.539406
	N260	N	0.480104	0.170333	0.917595
	N261	N	0.554474	0.171944	0.087894
	N262	N	0.479083	0.818968	0.085001
	N263	N	0.553794	0.815164	0.915086
	N264	N	0.480954	0.907049	0.180861
	N265	N	0.554524	0.079483	0.180093
	N266	N	0.480872	0.080567	0.823722
	N267	N	0.553990	0.906883	0.822405
	N268	N	0.930489	0.176565	0.466444
	N269	N	0.102660	0.174057	0.539924
	N270	N	0.104952	0.816272	0.466503
	N271	N	0.932922	0.819234	0.540243
	N272	N	0.193882	0.457163	0.919441
	N273	N	0.194450	0.531441	0.089233
	N274	N	0.839795	0.456620	0.089330
	N275	N	0.840137	0.531496	0.918879
	O276	O	-0.492760	0.493178	-0.567718
	H277	H	-0.488933	0.489347	-0.570102
	H278	H	-0.491897	0.488742	-0.571621
	O279	O	-0.026796	1.001615	1.032944
	H280	H	-0.027829	1.004340	1.022464
	H281	H	-0.015908	1.003830	1.034649
	O282	O	0.509011	0.432039	0.505728
	H283	H	0.509833	0.432424	0.516206
	H284	H	0.510132	0.429124	0.509550
	O285	O	0.789236	-0.240820	1.189039
	H286	H	0.801348	-0.239758	1.190784
	H287	H	0.784757	-0.232923	1.190018
	O288	O	0.994239	0.057436	-0.058379
	H289	H	0.993652	0.050811	-0.049445
	H290	H	0.994303	0.058268	-0.047422
	O291	O	0.594621	0.486248	0.477007
	H292	H	0.602791	0.482174	0.485248
	H293	H	0.606499	0.489036	0.480886
	O294	O	0.974523	-0.043657	0.974448
	H295	H	0.978953	-0.058057	0.972398
	H296	H	0.972931	-0.040966	0.977581
	O297	O	-0.011892	-0.094499	0.013239
	H298	H	-0.015076	-0.092865	0.018299
	H299	H	-0.026400	-0.103616	0.018116
	O300	O	0.482792	0.539744	0.474336
	H301	H	0.491180	0.534536	0.464832
	H302	H	0.490961	0.545305	0.474247
	O303	O	0.636402	0.407063	0.476718
	H304	H	0.636546	0.401896	0.480227
	H305	H	0.626025	0.409401	0.483591
	O306	O	1.001862	0.010718	0.063202
	H307	H	0.999871	0.001919	0.065011
	H308	H	1.003737	0.017015	0.052100
	O309	O	0.103419	-0.032905	0.956612
	H310	H	0.098989	-0.032594	0.952466
	H311	H	0.108485	-0.043162	0.952356
	O312	O	1.023804	0.936100	0.944049
	H313	H	1.018927	0.937740	0.946695
	H314	H	1.017815	0.928039	0.943944
	O315	O	0.491214	0.516716	0.509841
	H316	H	0.496398	0.533181	0.504982
	H317	H	0.483641	0.519946	0.513903
	O318	O	0.027955	1.007548	-0.020507
	H319	H	0.022322	1.002372	-0.021064
	H320	H	0.020469	1.009293	-0.025886
	O321	O	0.072073	0.995742	0.943619
	H322	H	0.062499	0.997667	0.944255
	H323	H	0.070813	0.994389	0.923916
	O324	O	0.499029	0.573391	0.506084
	H325	H	0.494850	0.561961	0.504336
	H326	H	0.481972	0.575029	0.504657
	O327	O	0.008690	1.010970	-0.067939
	H328	H	0.007681	1.011623	-0.074200
	H329	H	0.011977	1.017202	-0.064848
	O330	O	0.563566	0.511966	0.499322
	H331	H	0.564828	0.512791	0.503000
	H332	H	0.564714	0.514915	0.492393
	O333	O	0.477301	0.415908	0.505397
	H334	H	0.471588	0.405619	0.503528
	H335	H	0.473028	0.423476	0.507048
	O336	O	0.474330	0.564946	0.496310
	H337	H	0.469272	0.563981	0.493410
	H338	H	0.476524	0.567573	0.496602
	O339	O	0.987029	0.944168	0.099801
	H340	H	0.995605	0.942231	0.105148
	H341	H	0.981431	0.946823	0.096056
	O342	O	0.525696	0.500233	0.511112
	H343	H	0.527759	0.501418	0.500445
	H344	H	0.529211	0.491886	0.501937
	O345	O	0.522387	0.444030	0.468447
	H346	H	0.519711	0.443268	0.466691
	H347	H	0.524279	0.445500	0.469367
	O348	O	0.044498	0.055720	0.062288
	H349	H	0.050333	0.055739	0.072958
	H350	H	0.045984	0.054725	0.061467
	O351	O	-0.037585	1.009773	1.022064
	H352	H	-0.039218	1.004767	1.024641
	H353	H	-0.028074	1.010188	1.024192
	O354	O	0.463408	0.535019	0.482095
	H355	H	0.464737	0.537283	0.495072
	H356	H	0.464815	0.530140	0.471817
	O357	O	-0.001987	1.026728	1.025531
	H358	H	0.002831	1.030711	1.021414
	H359	H	-0.001496	1.022651	1.026688
