data_Molecule from HDF5

_cell_length_a		16.134659
_cell_length_b		16.522587
_cell_length_c		16.352511
_cell_angle_alpha	90.092854
_cell_angle_beta	89.953158
_cell_angle_gamma	89.750552
_symmetry_space_group_name_H-M	'P 1'
_symmetry_Int_Tables_number		1

loop_
	_symmetry_equiv_pos_as_xyz
	x,y,z

loop_
	_atom_site_label
	_atom_site_type_symbol
	_atom_site_fract_x
	_atom_site_fract_y
	_atom_site_fract_z
	H0	H	0.392632	0.839746	0.723711
	H1	H	0.607226	0.154820	0.722028
	H2	H	0.605198	0.837708	0.279717
	H3	H	0.395376	0.156661	0.281256
	H4	H	0.717202	0.397442	0.836143
	H5	H	0.716533	0.596286	0.161008
	H6	H	0.283624	0.598949	0.837148
	H7	H	0.285416	0.399181	0.160354
	H8	H	0.839947	0.716977	0.394932
	H9	H	0.162995	0.717905	0.605455
	H10	H	0.840128	0.280273	0.602525
	H11	H	0.163942	0.275965	0.392626
	H12	H	0.840366	0.394907	0.716563
	H13	H	0.163201	0.600850	0.718092
	H14	H	0.837737	0.597732	0.283442
	H15	H	0.164827	0.395252	0.281754
	H16	H	0.393522	0.721148	0.840207
	H17	H	0.606020	0.717413	0.159638
	H18	H	0.608770	0.274372	0.840575
	H19	H	0.396106	0.279070	0.158864
	H20	H	0.718713	0.836566	0.399804
	H21	H	0.718172	0.157283	0.600450
	H22	H	0.282833	0.837226	0.601682
	H23	H	0.282669	0.157184	0.399529
	H24	H	0.897574	0.338469	0.219038
	H25	H	0.108235	0.654700	0.222055
	H26	H	0.108988	0.339458	0.776268
	H27	H	0.893814	0.655122	0.774941
	H28	H	0.218779	0.896878	0.338100
	H29	H	0.217013	0.096352	0.661977
	H30	H	0.785934	0.094680	0.337620
	H31	H	0.786717	0.898459	0.661590
	H32	H	0.340409	0.218823	0.893867
	H33	H	0.663375	0.216301	0.103994
	H34	H	0.339085	0.778415	0.106495
	H35	H	0.662883	0.778532	0.896059
	H36	H	0.336755	0.899811	0.215305
	H37	H	0.664822	0.097589	0.215902
	H38	H	0.339241	0.101992	0.779904
	H39	H	0.662610	0.892196	0.780358
	H40	H	0.895572	0.217977	0.340274
	H41	H	0.108756	0.219417	0.658264
	H42	H	0.108095	0.775928	0.339746
	H43	H	0.893478	0.774361	0.657868
	H44	H	0.221539	0.338523	0.895844
	H45	H	0.217617	0.657794	0.100048
	H46	H	0.785363	0.337048	0.097694
	H47	H	0.781731	0.657509	0.896721
	H48	H	0.415805	0.106079	0.585523
	H49	H	0.592979	0.882615	0.590967
	H50	H	0.594071	0.111488	0.408198
	H51	H	0.419101	0.884731	0.403156
	H52	H	0.593993	0.408622	0.113389
	H53	H	0.596288	0.593772	0.880772
	H54	H	0.406751	0.589488	0.114221
	H55	H	0.412248	0.403559	0.882544
	H56	H	0.117561	0.589921	0.412815
	H57	H	0.889040	0.585218	0.578905
	H58	H	0.116313	0.411974	0.586910
	H59	H	0.886664	0.408137	0.409092
	H60	H	0.120756	0.403952	0.590849
	H61	H	0.886999	0.580645	0.590298
	H62	H	0.115868	0.583388	0.410484
	H63	H	0.884290	0.405398	0.406917
	H64	H	0.414312	0.586806	0.111426
	H65	H	0.589438	0.581431	0.887243
	H66	H	0.588162	0.406040	0.112191
	H67	H	0.410879	0.410019	0.885189
	H68	H	0.593251	0.112282	0.405303
	H69	H	0.589312	0.884804	0.592140
	H70	H	0.405341	0.111011	0.589043
	H71	H	0.410271	0.885652	0.414348
	H72	H	0.908620	0.610204	0.085328
	H73	H	0.084904	0.385807	0.091604
	H74	H	0.089718	0.611571	0.904102
	H75	H	0.910795	0.384416	0.905300
	H76	H	0.089258	0.908786	0.613032
	H77	H	0.085570	0.087940	0.386508
	H78	H	0.920077	0.090425	0.611872
	H79	H	0.916614	0.901849	0.385157
	H80	H	0.612952	0.077744	0.912232
	H81	H	0.387968	0.083358	0.086132
	H82	H	0.616614	0.906952	0.086806
	H83	H	0.385183	0.907704	0.912151
	H84	H	0.616842	0.909231	0.091883
	H85	H	0.382174	0.089207	0.097056
	H86	H	0.619833	0.088844	0.904557
	H87	H	0.386524	0.910141	0.914198
	H88	H	0.908815	0.097448	0.618001
	H89	H	0.092042	0.091570	0.383436
	H90	H	0.087034	0.903068	0.613184
	H91	H	0.908279	0.902873	0.382511
	H92	H	0.085709	0.608304	0.908878
	H93	H	0.094823	0.385133	0.083198
	H94	H	0.905492	0.613969	0.095562
	H95	H	0.913284	0.384883	0.906458
	H96	H	0.414694	0.111149	0.596293
	H97	H	0.590937	0.885248	0.588224
	H98	H	0.591242	0.110990	0.406941
	H99	H	0.405129	0.880170	0.402558
	H100	H	0.592683	0.402390	0.115602
	H101	H	0.581427	0.594200	0.886281
	H102	H	0.413352	0.594465	0.114357
	H103	H	0.417228	0.407344	0.885121
	H104	H	0.119466	0.587325	0.406915
	H105	H	0.884914	0.592292	0.588232
	H106	H	0.118024	0.403961	0.581916
	H107	H	0.886602	0.404680	0.410336
	H108	H	0.915430	0.609992	0.093884
	H109	H	0.097068	0.380896	0.095269
	H110	H	0.092298	0.610758	0.910711
	H111	H	0.911320	0.384617	0.907861
	H112	H	0.093497	0.904098	0.614603
	H113	H	0.092140	0.083758	0.385233
	H114	H	0.907525	0.083772	0.614013
	H115	H	0.912114	0.909808	0.386026
	H116	H	0.616052	0.091351	0.919317
	H117	H	0.384332	0.096520	0.085742
	H118	H	0.618184	0.903279	0.090580
	H119	H	0.386204	0.910862	0.910732
	C120	C	0.379977	0.004657	0.621628
	C121	C	0.623150	0.988657	0.622052
	C122	C	0.623617	0.005625	0.376720
	C123	C	0.379586	0.988969	0.377257
	C124	C	0.623117	0.375108	0.007517
	C125	C	0.621397	0.619557	0.990902
	C126	C	0.379485	0.620914	0.007427
	C127	C	0.381060	0.377233	0.990170
	C128	C	0.010159	0.617869	0.378319
	C129	C	0.993141	0.618208	0.619165
	C130	C	0.011228	0.376483	0.618552
	C131	C	0.993101	0.374983	0.377174
	C132	C	0.879600	0.505731	0.120871
	C133	C	0.123212	0.489051	0.120959
	C134	C	0.122614	0.505631	0.876220
	C135	C	0.879207	0.489359	0.875442
	C136	C	0.122725	0.874763	0.508103
	C137	C	0.122142	0.118530	0.491169
	C138	C	0.880364	0.119598	0.508606
	C139	C	0.880705	0.874858	0.490885
	C140	C	0.509570	0.118326	0.879338
	C141	C	0.492458	0.119336	0.120475
	C142	C	0.509380	0.876646	0.121194
	C143	C	0.492553	0.876783	0.879669
	C144	C	0.376350	0.886661	0.682596
	C145	C	0.625247	0.107558	0.681820
	C146	C	0.623780	0.885506	0.319124
	C147	C	0.377531	0.109033	0.320345
	C148	C	0.680319	0.376632	0.885546
	C149	C	0.678729	0.617159	0.112481
	C150	C	0.321943	0.619460	0.885913
	C151	C	0.323555	0.378895	0.111945
	C152	C	0.888130	0.677020	0.376458
	C153	C	0.114458	0.677927	0.622581
	C154	C	0.888884	0.318936	0.620672
	C155	C	0.115100	0.315767	0.374876
	C156	C	0.888828	0.375953	0.677476
	C157	C	0.114823	0.619638	0.678781
	C158	C	0.887278	0.617721	0.321011
	C159	C	0.115672	0.375034	0.319408
	C160	C	0.376521	0.680489	0.887426
	C161	C	0.623685	0.677514	0.111838
	C162	C	0.626178	0.315535	0.887444
	C163	C	0.378491	0.318839	0.110934
	C164	C	0.680663	0.884873	0.378665
	C165	C	0.680686	0.108762	0.621245
	C166	C	0.321440	0.885208	0.621768
	C167	C	0.321093	0.108976	0.379081
	C168	C	0.879503	0.385898	0.178609
	C169	C	0.125355	0.607941	0.180840
	C170	C	0.126236	0.386659	0.816772
	C171	C	0.876697	0.608209	0.816082
	C172	C	0.180672	0.876262	0.386553
	C173	C	0.179547	0.117146	0.613027
	C174	C	0.823530	0.116577	0.386499
	C175	C	0.823609	0.876783	0.612456
	C176	C	0.388602	0.178557	0.876048
	C177	C	0.614845	0.176911	0.121829
	C178	C	0.387400	0.818546	0.123591
	C179	C	0.614377	0.817648	0.877705
	C180	C	0.386164	0.878883	0.177882
	C181	C	0.615578	0.117904	0.177463
	C182	C	0.387908	0.120227	0.819558
	C183	C	0.614250	0.874579	0.820297
	C184	C	0.878038	0.177741	0.387772
	C185	C	0.125404	0.178257	0.611112
	C186	C	0.125688	0.816170	0.387566
	C187	C	0.877188	0.815420	0.610725
	C188	C	0.182347	0.386259	0.876527
	C189	C	0.180148	0.609336	0.120235
	C190	C	0.823084	0.385230	0.118578
	C191	C	0.820492	0.609359	0.876201
	C192	C	0.404702	0.087807	0.597217
	C193	C	0.598265	0.905647	0.597474
	C194	C	0.599833	0.089629	0.399990
	C195	C	0.404252	0.905400	0.400265
	C196	C	0.598601	0.398672	0.091743
	C197	C	0.596431	0.596588	0.906656
	C198	C	0.404329	0.597187	0.091499
	C199	C	0.406162	0.400276	0.906361
	C200	C	0.095394	0.593872	0.402986
	C201	C	0.908811	0.593296	0.593184
	C202	C	0.096032	0.400098	0.593795
	C203	C	0.907844	0.399131	0.401753
	C204	C	0.902950	0.589683	0.098150
	C205	C	0.099114	0.405516	0.097032
	C206	C	0.096559	0.588584	0.900705
	C207	C	0.904413	0.406137	0.899695
	C208	C	0.097293	0.898441	0.591868
	C209	C	0.097119	0.094691	0.407069
	C210	C	0.904943	0.096961	0.592696
	C211	C	0.905366	0.898094	0.406414
	C212	C	0.594224	0.093314	0.904854
	C213	C	0.407020	0.096281	0.096577
	C214	C	0.594771	0.899731	0.096731
	C215	C	0.407918	0.902208	0.905068
	Zn216	Zn	0.501297	-0.003041	0.751620
	Zn217	Zn	0.500985	-0.001606	0.248469
	Zn218	Zn	0.749914	0.498297	-0.001657
	Zn219	Zn	0.251520	0.498135	-0.001302
	Zn220	Zn	0.001616	0.746317	0.499240
	Zn221	Zn	0.002412	0.248558	0.499402
	Zn222	Zn	0.002025	0.497230	0.746311
	Zn223	Zn	0.002011	0.497615	0.250369
	Zn224	Zn	0.500787	0.749154	0.000191
	Zn225	Zn	0.501290	0.247505	-0.000931
	Zn226	Zn	0.752650	-0.003313	0.499985
	Zn227	Zn	0.250531	-0.003014	0.499749
	N228	N	0.412007	0.962229	0.682594
	N229	N	0.590373	0.031810	0.682469
	N230	N	0.589166	0.961831	0.317631
	N231	N	0.413127	0.033349	0.318793
	N232	N	0.678681	0.412866	0.961319
	N233	N	0.677505	0.581883	0.036271
	N234	N	0.323276	0.583382	0.961598
	N235	N	0.324690	0.414245	0.036015
	N236	N	0.965553	0.677395	0.411159
	N237	N	0.037632	0.677219	0.586415
	N238	N	0.965912	0.319043	0.584717
	N239	N	0.037628	0.315581	0.410030
	N240	N	0.965814	0.410856	0.676661
	N241	N	0.038423	0.583189	0.676675
	N242	N	0.964221	0.581565	0.322261
	N243	N	0.038823	0.411224	0.320718
	N244	N	0.411328	0.681547	0.964112
	N245	N	0.588765	0.679102	0.035313
	N246	N	0.591800	0.314165	0.964370
	N247	N	0.413285	0.317327	0.034153
	N248	N	0.680671	0.960520	0.413700
	N249	N	0.679793	0.033682	0.584968
	N250	N	0.323462	0.959592	0.584607
	N251	N	0.322095	0.033281	0.413808
	N252	N	0.913776	0.461932	0.180173
	N253	N	0.090658	0.532154	0.181412
	N254	N	0.089828	0.462131	0.816579
	N255	N	0.912310	0.532371	0.815325
	N256	N	0.179176	0.912015	0.462512
	N257	N	0.177596	0.080593	0.537428
	N258	N	0.824655	0.081231	0.462469
	N259	N	0.825581	0.912957	0.536841
	N260	N	0.465308	0.177340	0.912436
	N261	N	0.537149	0.178016	0.087031
	N262	N	0.465036	0.817149	0.089043
	N263	N	0.537520	0.819055	0.913896
	N264	N	0.463212	0.914173	0.176773
	N265	N	0.538452	0.083058	0.176953
	N266	N	0.464341	0.083324	0.821616
	N267	N	0.537345	0.910646	0.821351
	N268	N	0.912657	0.179857	0.464549
	N269	N	0.090643	0.179162	0.534449
	N270	N	0.090605	0.814902	0.464099
	N271	N	0.911954	0.814285	0.534101
	N272	N	0.180275	0.461315	0.912716
	N273	N	0.179089	0.534338	0.083901
	N274	N	0.822956	0.460748	0.083414
	N275	N	0.822052	0.534434	0.912450
	O276	O	0.664033	0.534841	0.425680
	H277	H	0.668856	0.554211	0.431904
	H278	H	0.649485	0.532417	0.410728
	O279	O	0.418193	0.517820	0.325313
	H280	H	0.432106	0.516158	0.318136
	H281	H	0.430485	0.513889	0.320464
	O282	O	0.479873	0.314572	0.486462
	H283	H	0.486270	0.312274	0.488638
	H284	H	0.478440	0.317745	0.482590
	O285	O	1.012379	-0.080589	0.000413
	H286	H	1.012010	-0.071251	-0.004779
	H287	H	1.017332	-0.077578	-0.000493
	O288	O	-0.065154	0.105001	0.814852
	H289	H	-0.084963	0.091070	0.823860
	H290	H	-0.048743	0.130454	0.805734
	O291	O	0.708968	0.533404	0.364934
	H292	H	0.713810	0.528933	0.375706
	H293	H	0.721251	0.539782	0.356385
	O294	O	0.510256	0.296547	0.586533
	H295	H	0.504759	0.309723	0.587253
	H296	H	0.507099	0.275182	0.592221
	O297	O	1.010583	1.114633	0.890659
	H298	H	1.015793	1.103155	0.885820
	H299	H	1.004533	1.129180	0.888291
	O300	O	-0.154092	-0.153864	0.150394
	H301	H	-0.147154	-0.141842	0.152280
	H302	H	-0.158425	-0.155914	0.140688
	O303	O	0.401577	0.584148	0.473631
	H304	H	0.400791	0.585437	0.466935
	H305	H	0.407726	0.564065	0.468116
	O306	O	1.110701	0.036995	0.148743
	H307	H	1.115881	0.036081	0.164611
	H308	H	1.120605	0.024416	0.137955
	O309	O	0.426326	0.393767	0.431198
	H310	H	0.419998	0.384733	0.434520
	H311	H	0.435522	0.398675	0.409242
	O312	O	0.868453	0.860144	0.022319
	H313	H	0.869754	0.862182	0.033234
	H314	H	0.866637	0.869082	0.028002
	O315	O	0.468153	0.471245	0.616643
	H316	H	0.490770	0.467694	0.621317
	H317	H	0.466530	0.478361	0.609071
	O318	O	0.386956	0.680112	0.548936
	H319	H	0.385251	0.689304	0.551293
	H320	H	0.398756	0.667791	0.547796
	O321	O	0.941971	0.170054	1.125673
	H322	H	0.942725	0.168338	1.126131
	H323	H	0.934330	0.166408	1.121188
	O324	O	-0.027955	0.009915	1.107718
	H325	H	-0.016896	0.004170	1.108439
	H326	H	-0.033546	-0.007659	1.103577
	O327	O	0.432061	0.572144	0.596127
	H328	H	0.427074	0.565612	0.595240
	H329	H	0.434522	0.570462	0.624793
	O330	O	0.553441	0.678778	0.701131
	H331	H	0.549923	0.698500	0.711661
	H332	H	0.536089	0.670208	0.698767
	O333	O	1.138773	0.809983	0.893135
	H334	H	1.150250	0.791284	0.898629
	H335	H	1.133448	0.832578	0.870961
	O336	O	0.594245	0.296621	0.337315
	H337	H	0.594817	0.290070	0.325839
	H338	H	0.618642	0.296876	0.350979
	O339	O	0.634433	0.446280	0.551776
	H340	H	0.626256	0.470136	0.538816
	H341	H	0.623233	0.442048	0.553383
	O342	O	0.171475	0.929562	0.886857
	H343	H	0.176496	0.933349	0.876979
	H344	H	0.173250	0.940624	0.893092
	O345	O	0.110863	0.833771	0.980091
	H346	H	0.102823	0.841376	0.998103
	H347	H	0.088592	0.830905	0.964591
	O348	O	0.425365	0.581099	0.382153
	H349	H	0.423418	0.605156	0.383811
	H350	H	0.400841	0.582398	0.366208
	O351	O	0.054146	0.153490	0.130288
	H352	H	0.052484	0.145951	0.136479
	H353	H	0.036707	0.156498	0.133041
	O354	O	1.104715	1.161724	0.017900
	H355	H	1.112134	1.174088	0.023293
	H356	H	1.097134	1.155910	0.005223
	O357	O	0.117108	0.952417	-0.122479
	H358	H	0.136039	0.965894	-0.126519
	H359	H	0.114693	0.960614	-0.119350
	O360	O	0.558692	0.401550	0.680310
	H361	H	0.564242	0.403746	0.670657
	H362	H	0.567034	0.407042	0.675738
	O363	O	0.442065	0.524833	0.389013
	H364	H	0.451874	0.513457	0.388350
	H365	H	0.436842	0.515720	0.379112
	O366	O	0.580716	0.607222	0.440159
	H367	H	0.557912	0.604188	0.451442
	H368	H	0.584955	0.625029	0.442217
	O369	O	0.694367	0.338516	0.307877
	H370	H	0.714505	0.344977	0.296915
	H371	H	0.700648	0.324787	0.348145
	O372	O	0.689199	0.377843	0.510996
	H373	H	0.678011	0.393570	0.517673
	H374	H	0.697798	0.367140	0.519693
	O375	O	0.348091	0.316071	0.618150
	H376	H	0.343210	0.330534	0.617669
	H377	H	0.350171	0.308795	0.596506
	O378	O	0.690490	0.584934	0.678924
	H379	H	0.699509	0.579641	0.687379
	H380	H	0.687361	0.587523	0.680346
	O381	O	0.631772	0.626498	0.575484
	H382	H	0.627819	0.633816	0.578545
	H383	H	0.636692	0.618960	0.563456
	O384	O	-0.092907	0.910156	0.860170
	H385	H	-0.102815	0.901945	0.844552
	H386	H	-0.091485	0.926385	0.872563
	O387	O	0.991113	0.789378	0.175134
	H388	H	0.983579	0.786241	0.164064
	H389	H	0.979687	0.770423	0.184729
	O390	O	0.366653	0.349977	0.434274
	H391	H	0.356498	0.340491	0.427814
	H392	H	0.375263	0.356043	0.419713
	O393	O	0.831233	0.078059	0.979258
	H394	H	0.844860	0.053789	0.967648
	H395	H	0.821048	0.097813	0.980957
	O396	O	-0.076377	0.942479	0.855655
	H397	H	-0.077746	0.948599	0.858296
	H398	H	-0.082875	0.931507	0.860498
	O399	O	0.326373	0.504222	0.670591
	H400	H	0.336880	0.514362	0.677541
	H401	H	0.320965	0.502880	0.670455
	O402	O	0.801555	0.028674	0.882591
	H403	H	0.791421	0.037321	0.883869
	H404	H	0.804153	0.033164	0.883135
	O405	O	-0.083826	-0.029412	0.131405
	H406	H	-0.086839	-0.006586	0.132337
	H407	H	-0.075174	-0.037784	0.132315
	O408	O	1.172060	0.968453	1.100737
	H409	H	1.185897	0.966306	1.091278
	H410	H	1.175827	0.958428	1.081533
	O411	O	0.840410	1.029482	0.022355
	H412	H	0.845660	1.029222	0.030854
	H413	H	0.848023	1.032494	0.026198
	O414	O	-0.007092	0.196478	0.892941
	H415	H	-0.002629	0.206138	0.893387
	H416	H	0.011724	0.191812	0.909546
	O417	O	0.428746	0.676391	0.379376
	H418	H	0.421306	0.664872	0.374731
	H419	H	0.423307	0.693624	0.372419
	O420	O	0.168252	1.054141	0.072661
	H421	H	0.192010	1.043954	0.069525
	H422	H	0.156148	1.046441	0.055130
	O423	O	0.950206	-0.036823	0.124462
	H424	H	0.947566	-0.032155	0.124591
	H425	H	0.943831	-0.037973	0.107270
	O426	O	0.055332	0.101989	0.822268
	H427	H	0.050811	0.106914	0.824416
	H428	H	0.052598	0.108391	0.827062
	O429	O	0.341340	0.629695	0.393185
	H430	H	0.350914	0.633316	0.389142
	H431	H	0.335015	0.632945	0.412788
