data_Molecule from HDF5

_cell_length_a		16.157988
_cell_length_b		16.305279
_cell_length_c		16.223641
_cell_angle_alpha	89.691826
_cell_angle_beta	90.059617
_cell_angle_gamma	89.967385
_symmetry_space_group_name_H-M	'P 1'
_symmetry_Int_Tables_number		1

loop_
	_symmetry_equiv_pos_as_xyz
	x,y,z

loop_
	_atom_site_label
	_atom_site_type_symbol
	_atom_site_fract_x
	_atom_site_fract_y
	_atom_site_fract_z
	H0	H	0.408003	0.859602	0.707035
	H1	H	0.608388	0.185398	0.703406
	H2	H	0.607883	0.858393	0.273649
	H3	H	0.407156	0.184956	0.272408
	H4	H	0.717082	0.425128	0.823885
	H5	H	0.720558	0.619080	0.153592
	H6	H	0.292727	0.621274	0.824206
	H7	H	0.295088	0.425503	0.154415
	H8	H	0.843114	0.737132	0.387865
	H9	H	0.172979	0.733353	0.585789
	H10	H	0.844121	0.304214	0.589798
	H11	H	0.171835	0.306035	0.387985
	H12	H	0.842027	0.421456	0.701209
	H13	H	0.171720	0.619319	0.702155
	H14	H	0.840744	0.618719	0.275652
	H15	H	0.171967	0.423222	0.274705
	H16	H	0.403303	0.741169	0.826284
	H17	H	0.605099	0.736214	0.153480
	H18	H	0.606553	0.308009	0.825245
	H19	H	0.406268	0.305526	0.152060
	H20	H	0.720357	0.856933	0.392648
	H21	H	0.723182	0.184797	0.586929
	H22	H	0.293546	0.857793	0.588570
	H23	H	0.291923	0.185042	0.388967
	H24	H	0.907166	0.357131	0.204148
	H25	H	0.104086	0.685293	0.201178
	H26	H	0.103748	0.356824	0.776646
	H27	H	0.906823	0.684627	0.772029
	H28	H	0.221776	0.923796	0.324314
	H29	H	0.220407	0.117382	0.653121
	H30	H	0.794703	0.118389	0.323829
	H31	H	0.795041	0.921642	0.654111
	H32	H	0.341816	0.236185	0.888784
	H33	H	0.671925	0.236366	0.085840
	H34	H	0.341147	0.809445	0.089152
	H35	H	0.670139	0.807709	0.889791
	H36	H	0.342315	0.924776	0.203811
	H37	H	0.672410	0.120862	0.202174
	H38	H	0.343062	0.121354	0.773860
	H39	H	0.672565	0.926592	0.778326
	H40	H	0.908488	0.237355	0.325649
	H41	H	0.108313	0.235158	0.652322
	H42	H	0.107841	0.807359	0.324042
	H43	H	0.908507	0.804515	0.651790
	H44	H	0.220731	0.358049	0.891609
	H45	H	0.219061	0.685447	0.085913
	H46	H	0.792601	0.356565	0.085353
	H47	H	0.790508	0.684607	0.889224
	H48	H	0.416134	0.134815	0.572697
	H49	H	0.596712	0.908398	0.576976
	H50	H	0.602230	0.135447	0.403525
	H51	H	0.406356	0.901463	0.392884
	H52	H	0.607113	0.431200	0.107133
	H53	H	0.599789	0.617903	0.871266
	H54	H	0.414448	0.622650	0.107638
	H55	H	0.418462	0.423196	0.871180
	H56	H	0.117449	0.606864	0.410064
	H57	H	0.889466	0.619664	0.573376
	H58	H	0.126381	0.429391	0.588156
	H59	H	0.890085	0.431736	0.391297
	H60	H	0.126441	0.422216	0.578462
	H61	H	0.892490	0.606069	0.576562
	H62	H	0.126594	0.603655	0.378898
	H63	H	0.887902	0.422219	0.397643
	H64	H	0.406918	0.614044	0.107831
	H65	H	0.595343	0.612619	0.874180
	H66	H	0.591023	0.433510	0.102382
	H67	H	0.405906	0.429227	0.869150
	H68	H	0.606836	0.141107	0.390017
	H69	H	0.609440	0.902460	0.583828
	H70	H	0.406794	0.140546	0.582257
	H71	H	0.423839	0.906378	0.390644
	H72	H	0.908217	0.639369	0.085905
	H73	H	0.098870	0.404559	0.083960
	H74	H	0.093112	0.635558	0.896234
	H75	H	0.902741	0.401549	0.892445
	H76	H	0.089419	0.918709	0.604200
	H77	H	0.087648	0.105697	0.377544
	H78	H	0.915493	0.110406	0.605080
	H79	H	0.909135	0.930855	0.370639
	H80	H	0.624350	0.116446	0.897417
	H81	H	0.393354	0.114754	0.068521
	H82	H	0.623500	0.927782	0.078911
	H83	H	0.390136	0.936198	0.896328
	H84	H	0.623672	0.931103	0.082049
	H85	H	0.391334	0.104494	0.088325
	H86	H	0.625176	0.116687	0.894307
	H87	H	0.387910	0.928778	0.894056
	H88	H	0.918162	0.116285	0.605649
	H89	H	0.095782	0.130262	0.367966
	H90	H	0.111961	0.920504	0.610736
	H91	H	0.918635	0.931204	0.373420
	H92	H	0.102097	0.637865	0.897477
	H93	H	0.099610	0.404856	0.080735
	H94	H	0.916600	0.636540	0.083582
	H95	H	0.915946	0.403279	0.888035
	H96	H	0.420345	0.138501	0.586309
	H97	H	0.595899	0.904693	0.592240
	H98	H	0.593031	0.136877	0.392329
	H99	H	0.415783	0.909002	0.406275
	H100	H	0.596569	0.418909	0.108973
	H101	H	0.593131	0.619388	0.872879
	H102	H	0.417333	0.611781	0.103379
	H103	H	0.415925	0.436644	0.874586
	H104	H	0.130651	0.633235	0.392990
	H105	H	0.887496	0.614513	0.586546
	H106	H	0.121858	0.434249	0.578218
	H107	H	0.892014	0.431682	0.402421
	H108	H	0.910468	0.636704	0.077153
	H109	H	0.101952	0.404206	0.083302
	H110	H	0.098213	0.639675	0.889357
	H111	H	0.912734	0.407093	0.901057
	H112	H	0.100454	0.938892	0.602582
	H113	H	0.113702	0.109435	0.368233
	H114	H	0.911072	0.115347	0.607877
	H115	H	0.915109	0.923428	0.370627
	H116	H	0.625561	0.118864	0.896123
	H117	H	0.384479	0.125575	0.085626
	H118	H	0.625495	0.926627	0.083148
	H119	H	0.389362	0.929738	0.900849
	C120	C	0.385919	0.030186	0.610437
	C121	C	0.629372	1.013256	0.611461
	C122	C	0.629398	0.029524	0.367340
	C123	C	0.385663	1.013440	0.366720
	C124	C	0.626400	0.400666	-0.002578
	C125	C	0.626139	0.644004	0.981141
	C126	C	0.383703	0.644948	-0.002261
	C127	C	0.384637	0.400817	0.980135
	C128	C	0.015478	0.643216	0.365950
	C129	C	0.998844	0.641741	0.607959
	C130	C	0.015944	0.399429	0.610019
	C131	C	0.998775	0.399794	0.367703
	C132	C	0.883340	0.529284	0.110756
	C133	C	0.127545	0.513110	0.110332
	C134	C	0.127253	0.529749	0.866691
	C135	C	0.882689	0.512399	0.865313
	C136	C	0.129432	0.898700	0.497168
	C137	C	0.128398	0.142757	0.479755
	C138	C	0.886266	0.142617	0.497555
	C139	C	0.885522	0.898931	0.479989
	C140	C	0.515794	0.145193	0.866843
	C141	C	0.498934	0.143536	0.109829
	C142	C	0.515387	0.900603	0.110721
	C143	C	0.497943	0.902391	0.868513
	C144	C	0.388168	0.907921	0.667664
	C145	C	0.627792	0.136682	0.665315
	C146	C	0.627686	0.907040	0.311770
	C147	C	0.387432	0.136113	0.310859
	C148	C	0.680551	0.404281	0.873478
	C149	C	0.682686	0.640171	0.104370
	C150	C	0.329156	0.642102	0.873738
	C151	C	0.331094	0.403824	0.104433
	C152	C	0.891946	0.698937	0.368035
	C153	C	0.123208	0.696351	0.605930
	C154	C	0.892690	0.343068	0.608645
	C155	C	0.122637	0.344363	0.368567
	C156	C	0.891798	0.401207	0.664442
	C157	C	0.122593	0.639819	0.664235
	C158	C	0.890904	0.640358	0.311829
	C159	C	0.122672	0.402667	0.312309
	C160	C	0.384489	0.701755	0.874705
	C161	C	0.625095	0.698299	0.104545
	C162	C	0.625344	0.345895	0.874141
	C163	C	0.386185	0.344032	0.103336
	C164	C	0.683629	0.906184	0.371012
	C165	C	0.685165	0.136127	0.607755
	C166	C	0.331110	0.906958	0.608852
	C167	C	0.329969	0.136125	0.368879
	C168	C	0.886612	0.405933	0.165781
	C169	C	0.124353	0.636330	0.163992
	C170	C	0.124353	0.406059	0.813563
	C171	C	0.885753	0.635538	0.809715
	C172	C	0.183978	0.902893	0.373133
	C173	C	0.183429	0.138827	0.603789
	C174	C	0.831367	0.139913	0.373493
	C175	C	0.831619	0.901136	0.604309
	C176	C	0.391544	0.199220	0.868749
	C177	C	0.622673	0.198788	0.106777
	C178	C	0.390733	0.846823	0.109140
	C179	C	0.621439	0.846022	0.870268
	C180	C	0.391209	0.903914	0.166185
	C181	C	0.623070	0.141127	0.164377
	C182	C	0.391957	0.141899	0.811603
	C183	C	0.622892	0.905378	0.815038
	C184	C	0.888358	0.198540	0.374136
	C185	C	0.127882	0.197382	0.603354
	C186	C	0.127061	0.844984	0.373242
	C187	C	0.887671	0.842565	0.603111
	C188	C	0.182620	0.406824	0.870550
	C189	C	0.181955	0.636355	0.106837
	C190	C	0.829715	0.405676	0.106891
	C191	C	0.828188	0.635755	0.868095
	C192	C	0.407930	0.115942	0.587314
	C193	C	0.607199	0.927445	0.590547
	C194	C	0.607242	0.115600	0.388935
	C195	C	0.408581	0.927508	0.389661
	C196	C	0.604631	0.421691	0.083916
	C197	C	0.602886	0.622782	0.895126
	C198	C	0.406137	0.622655	0.083935
	C199	C	0.406769	0.423164	0.894017
	C200	C	0.102412	0.621046	0.387589
	C201	C	0.912140	0.619842	0.585503
	C202	C	0.102477	0.422075	0.587930
	C203	C	0.912262	0.421794	0.390498
	C204	C	0.905233	0.615295	0.088794
	C205	C	0.106131	0.426892	0.089142
	C206	C	0.104528	0.615510	0.888175
	C207	C	0.904191	0.426245	0.887386
	C208	C	0.107180	0.919878	0.583591
	C209	C	0.105777	0.121462	0.393482
	C210	C	0.908398	0.120625	0.583831
	C211	C	0.907606	0.921887	0.393857
	C212	C	0.602733	0.123609	0.889158
	C213	C	0.412162	0.121350	0.087410
	C214	C	0.601949	0.922120	0.088011
	C215	C	0.411514	0.924813	0.890679
	Zn216	Zn	0.508014	0.023102	0.740063
	Zn217	Zn	0.507861	0.021566	0.238181
	Zn218	Zn	0.754347	0.520992	-0.011589
	Zn219	Zn	0.256379	0.522100	-0.010945
	Zn220	Zn	0.007666	0.771017	0.487730
	Zn221	Zn	0.008260	0.271733	0.489227
	Zn222	Zn	0.006476	0.520777	0.737273
	Zn223	Zn	0.006444	0.520949	0.239166
	Zn224	Zn	0.505203	0.773685	-0.010496
	Zn225	Zn	0.506261	0.272556	-0.011618
	Zn226	Zn	0.757753	0.020568	0.489553
	Zn227	Zn	0.256720	0.021254	0.488621
	N228	N	0.421422	0.985597	0.668803
	N229	N	0.593744	0.059431	0.667915
	N230	N	0.594217	0.984747	0.309712
	N231	N	0.421580	0.058783	0.309673
	N232	N	0.681352	0.437664	0.951208
	N233	N	0.683432	0.607158	0.026516
	N234	N	0.328562	0.607504	0.951306
	N235	N	0.330090	0.438507	0.026970
	N236	N	0.970624	0.701000	0.400567
	N237	N	0.045143	0.697719	0.571988
	N238	N	0.971081	0.341997	0.575368
	N239	N	0.044608	0.342706	0.402603
	N240	N	0.969381	0.435785	0.665262
	N241	N	0.044347	0.606456	0.665668
	N242	N	0.968715	0.606274	0.310531
	N243	N	0.044719	0.436708	0.311876
	N244	N	0.417479	0.703735	0.952722
	N245	N	0.590974	0.701049	0.026982
	N246	N	0.592153	0.343764	0.952154
	N247	N	0.418780	0.342013	0.024984
	N248	N	0.684735	0.983371	0.404805
	N249	N	0.686262	0.058446	0.574905
	N250	N	0.329678	0.984027	0.573860
	N251	N	0.328971	0.058707	0.403096
	N252	N	0.919256	0.483911	0.168269
	N253	N	0.091096	0.558744	0.166119
	N254	N	0.090766	0.483694	0.810957
	N255	N	0.918956	0.557809	0.807988
	N256	N	0.185645	0.935547	0.451070
	N257	N	0.184049	0.105460	0.525961
	N258	N	0.829886	0.105903	0.451166
	N259	N	0.830308	0.935640	0.526543
	N260	N	0.469756	0.201544	0.902112
	N261	N	0.544217	0.200351	0.073675
	N262	N	0.468963	0.844455	0.075722
	N263	N	0.542793	0.844306	0.902963
	N264	N	0.469644	0.936742	0.167158
	N265	N	0.544932	0.107694	0.166416
	N266	N	0.470314	0.109171	0.810356
	N267	N	0.545284	0.939549	0.813758
	N268	N	0.921485	0.200514	0.452271
	N269	N	0.094216	0.199842	0.525470
	N270	N	0.093842	0.842451	0.451480
	N271	N	0.920445	0.841052	0.525030
	N272	N	0.184483	0.484592	0.903192
	N273	N	0.184115	0.558720	0.074140
	N274	N	0.827515	0.483424	0.073521
	N275	N	0.826062	0.558315	0.901882
	O276	O	0.404486	0.411562	0.599799
	H277	H	0.396556	0.404927	0.598556
	H278	H	0.402509	0.407320	0.595059
	O279	O	0.397773	0.530476	0.510171
	H280	H	0.391360	0.520853	0.507757
	H281	H	0.401665	0.528844	0.519426
	O282	O	0.588619	0.482461	0.519702
	H283	H	0.589150	0.484617	0.518394
	H284	H	0.595471	0.482453	0.520940
	O285	O	0.542291	0.527368	1.432507
	H286	H	0.545416	0.523491	1.432561
	H287	H	0.543840	0.525862	1.440624
	O288	O	0.592589	0.498131	0.384586
	H289	H	0.591191	0.503093	0.380576
	H290	H	0.605747	0.488742	0.376537
	O291	O	-0.405057	-0.388053	1.364811
	H292	H	-0.405092	-0.379225	1.364968
	H293	H	-0.401766	-0.397595	1.370334
	O294	O	0.529566	0.608215	0.450588
	H295	H	0.536607	0.607379	0.447839
	H296	H	0.524400	0.609381	0.456648
	O297	O	0.488138	0.530492	0.515524
	H298	H	0.481802	0.542828	0.521177
	H299	H	0.486337	0.536524	0.510647
	O300	O	0.544909	0.584596	0.377501
	H301	H	0.543517	0.587521	0.384928
	H302	H	0.538909	0.596820	0.388035
	O303	O	0.467294	0.544272	0.543079
	H304	H	0.462054	0.542647	0.544231
	H305	H	0.470902	0.526078	0.530236
	O306	O	0.577193	-0.469725	1.581882
	H307	H	0.570636	-0.479968	1.575115
	H308	H	0.575740	-0.461257	1.587064
	O309	O	-0.512119	0.585154	0.530858
	H310	H	-0.500939	0.582574	0.529712
	H311	H	-0.504326	0.589067	0.536234
	O312	O	0.432431	0.402348	0.502348
	H313	H	0.435029	0.404900	0.496803
	H314	H	0.424951	0.404000	0.498370
	O315	O	0.806234	0.106178	1.220316
	H316	H	0.800159	0.103149	1.229596
	H317	H	0.800277	0.094863	1.219504
	O318	O	-0.013971	-0.021027	0.016145
	H319	H	-0.015963	-0.025792	0.019000
	H320	H	-0.011495	-0.023833	0.016496
	O321	O	0.595676	0.494941	0.511474
	H322	H	0.612468	0.501375	0.510950
	H323	H	0.586527	0.496354	0.508966
	O324	O	1.657374	-0.463069	-0.528723
	H325	H	1.663640	-0.474186	-0.530315
	H326	H	1.658572	-0.472372	-0.539569
	O327	O	0.459172	0.552304	0.483052
	H328	H	0.457327	0.544792	0.494056
	H329	H	0.468056	0.561945	0.479263
	O330	O	0.436370	0.542252	0.450512
	H331	H	0.431894	0.542913	0.444131
	H332	H	0.429978	0.539001	0.452743
	O333	O	0.454344	-0.471054	0.501016
	H334	H	0.458616	-0.463456	0.498010
	H335	H	0.458026	-0.468444	0.506221
