data_Molecule from HDF5

_cell_length_a		15.982715
_cell_length_b		16.229319
_cell_length_c		16.405829
_cell_angle_alpha	90.158393
_cell_angle_beta	90.043800
_cell_angle_gamma	89.940464
_symmetry_space_group_name_H-M	'P 1'
_symmetry_Int_Tables_number		1

loop_
	_symmetry_equiv_pos_as_xyz
	x,y,z

loop_
	_atom_site_label
	_atom_site_type_symbol
	_atom_site_fract_x
	_atom_site_fract_y
	_atom_site_fract_z
	H0	H	0.398998	0.837081	0.709011
	H1	H	0.606131	0.162297	0.708462
	H2	H	0.606271	0.838213	0.271587
	H3	H	0.398362	0.163153	0.273270
	H4	H	0.715166	0.404890	0.826435
	H5	H	0.715670	0.598037	0.153732
	H6	H	0.288304	0.597810	0.827011
	H7	H	0.290157	0.405683	0.153774
	H8	H	0.836863	0.712211	0.393029
	H9	H	0.170105	0.710498	0.588598
	H10	H	0.836039	0.287445	0.587761
	H11	H	0.169808	0.287182	0.394138
	H12	H	0.837086	0.399380	0.704363
	H13	H	0.167301	0.600933	0.707831
	H14	H	0.836597	0.599125	0.277363
	H15	H	0.167722	0.397197	0.275533
	H16	H	0.402105	0.716748	0.828329
	H17	H	0.604063	0.717279	0.152368
	H18	H	0.602857	0.284149	0.827927
	H19	H	0.400802	0.283924	0.152392
	H20	H	0.713855	0.834477	0.394176
	H21	H	0.713831	0.164589	0.585273
	H22	H	0.293353	0.833397	0.585032
	H23	H	0.291362	0.164974	0.397141
	H24	H	0.901004	0.336058	0.206694
	H25	H	0.105500	0.661686	0.210052
	H26	H	0.105553	0.337374	0.773558
	H27	H	0.897790	0.661811	0.772788
	H28	H	0.217589	0.902268	0.327448
	H29	H	0.214841	0.094388	0.655813
	H30	H	0.789190	0.096257	0.327573
	H31	H	0.788853	0.902756	0.653712
	H32	H	0.335955	0.212248	0.892654
	H33	H	0.669752	0.213127	0.087893
	H34	H	0.336713	0.787220	0.089179
	H35	H	0.668566	0.786747	0.892412
	H36	H	0.337418	0.900994	0.204431
	H37	H	0.668552	0.103036	0.205748
	H38	H	0.336810	0.099747	0.776486
	H39	H	0.667746	0.896834	0.775141
	H40	H	0.902195	0.216099	0.328626
	H41	H	0.104759	0.217197	0.653268
	H42	H	0.105348	0.781733	0.328663
	H43	H	0.900832	0.782608	0.652472
	H44	H	0.214436	0.335226	0.895077
	H45	H	0.213742	0.665326	0.088106
	H46	H	0.791165	0.334903	0.084661
	H47	H	0.793698	0.666737	0.897809
	H48	H	0.415115	0.115131	0.585846
	H49	H	0.594302	0.882559	0.582712
	H50	H	0.590738	0.119265	0.386589
	H51	H	0.408646	0.883361	0.398834
	H52	H	0.595165	0.403863	0.107390
	H53	H	0.608717	0.592636	0.871143
	H54	H	0.414113	0.594100	0.104598
	H55	H	0.409690	0.404473	0.874505
	H56	H	0.124545	0.593270	0.393159
	H57	H	0.884031	0.589247	0.584391
	H58	H	0.118188	0.419488	0.581457
	H59	H	0.881099	0.401182	0.397864
	H60	H	0.125598	0.406540	0.594579
	H61	H	0.882139	0.593534	0.584018
	H62	H	0.121508	0.593477	0.403425
	H63	H	0.886310	0.410473	0.403241
	H64	H	0.408503	0.599865	0.107630
	H65	H	0.589420	0.586671	0.878486
	H66	H	0.598246	0.405977	0.106911
	H67	H	0.408048	0.404687	0.873511
	H68	H	0.588651	0.113490	0.403685
	H69	H	0.594725	0.881150	0.586594
	H70	H	0.408535	0.116348	0.582998
	H71	H	0.410867	0.880481	0.389966
	H72	H	0.910318	0.616277	0.082252
	H73	H	0.079469	0.383538	0.094755
	H74	H	0.092580	0.616548	0.898969
	H75	H	0.917102	0.387412	0.906763
	H76	H	0.098763	0.900490	0.608817
	H77	H	0.106813	0.093061	0.371806
	H78	H	0.909632	0.090896	0.606028
	H79	H	0.910039	0.911661	0.377008
	H80	H	0.619560	0.085687	0.898192
	H81	H	0.386970	0.085034	0.081144
	H82	H	0.620344	0.905854	0.072491
	H83	H	0.382248	0.903300	0.899449
	H84	H	0.619482	0.919797	0.084861
	H85	H	0.381544	0.094227	0.089761
	H86	H	0.625097	0.095449	0.891494
	H87	H	0.385463	0.912270	0.900929
	H88	H	0.913448	0.096401	0.606059
	H89	H	0.091614	0.084196	0.379629
	H90	H	0.099868	0.907951	0.606652
	H91	H	0.917043	0.902074	0.375607
	H92	H	0.093676	0.618256	0.897387
	H93	H	0.094659	0.387748	0.068220
	H94	H	0.906804	0.619426	0.089998
	H95	H	0.896711	0.378724	0.897383
	H96	H	0.410130	0.118885	0.589558
	H97	H	0.591133	0.883575	0.585247
	H98	H	0.605256	0.120336	0.397746
	H99	H	0.417297	0.884674	0.395735
	H100	H	0.594740	0.407589	0.105348
	H101	H	0.592220	0.607952	0.871999
	H102	H	0.405883	0.591906	0.106231
	H103	H	0.408295	0.406354	0.874126
	H104	H	0.120410	0.584162	0.398374
	H105	H	0.884523	0.591832	0.580530
	H106	H	0.122088	0.400350	0.576933
	H107	H	0.882989	0.411605	0.392293
	H108	H	0.915839	0.616688	0.089582
	H109	H	0.109956	0.375504	0.092789
	H110	H	0.090702	0.617234	0.897138
	H111	H	0.916470	0.381322	0.884465
	H112	H	0.093170	0.905250	0.604921
	H113	H	0.090626	0.102196	0.374875
	H114	H	0.907484	0.096036	0.608525
	H115	H	0.906060	0.902279	0.372712
	H116	H	0.623250	0.096926	0.903535
	H117	H	0.384581	0.097434	0.077495
	H118	H	0.626289	0.902485	0.088890
	H119	H	0.381587	0.909653	0.892794
	C120	C	0.381705	0.008177	0.613332
	C121	C	0.623489	0.990735	0.612981
	C122	C	0.624337	0.008990	0.367983
	C123	C	0.382264	0.991613	0.368085
	C124	C	0.624897	0.377972	-0.001269
	C125	C	0.624918	0.623619	0.981577
	C126	C	0.380218	0.623387	-0.001178
	C127	C	0.380368	0.378017	0.981898
	C128	C	0.012126	0.619729	0.369866
	C129	C	0.993561	0.620797	0.612476
	C130	C	0.011871	0.379155	0.612314
	C131	C	0.993325	0.378136	0.369633
	C132	C	0.881356	0.508645	0.113857
	C133	C	0.124123	0.490808	0.113709
	C134	C	0.122937	0.509058	0.869324
	C135	C	0.881246	0.491435	0.869094
	C136	C	0.126359	0.876019	0.499405
	C137	C	0.125809	0.121747	0.483066
	C138	C	0.880978	0.122279	0.499265
	C139	C	0.881192	0.877093	0.482161
	C140	C	0.511845	0.120616	0.869829
	C141	C	0.494273	0.121923	0.111599
	C142	C	0.511699	0.880188	0.110737
	C143	C	0.493167	0.879020	0.869358
	C144	C	0.381728	0.885227	0.669119
	C145	C	0.624149	0.113783	0.669239
	C146	C	0.624415	0.886274	0.311414
	C147	C	0.381090	0.114611	0.312577
	C148	C	0.678820	0.382865	0.875669
	C149	C	0.678585	0.619551	0.104986
	C150	C	0.325318	0.619521	0.876070
	C151	C	0.326896	0.383347	0.104958
	C152	C	0.886628	0.674805	0.372582
	C153	C	0.119570	0.674674	0.609784
	C154	C	0.886225	0.324291	0.608616
	C155	C	0.119468	0.323611	0.372694
	C156	C	0.886417	0.379834	0.666740
	C157	C	0.118087	0.620372	0.669288
	C158	C	0.886559	0.618501	0.315057
	C159	C	0.118510	0.378272	0.313982
	C160	C	0.382101	0.678312	0.876482
	C161	C	0.623128	0.678823	0.104023
	C162	C	0.622768	0.323055	0.876271
	C163	C	0.381868	0.322876	0.104087
	C164	C	0.678022	0.884459	0.372484
	C165	C	0.677910	0.114993	0.607991
	C166	C	0.328623	0.883456	0.607791
	C167	C	0.327428	0.115540	0.373776
	C168	C	0.881873	0.384975	0.168138
	C169	C	0.123837	0.613415	0.170515
	C170	C	0.123656	0.385900	0.812928
	C171	C	0.880856	0.614102	0.812738
	C172	C	0.180563	0.880450	0.376360
	C173	C	0.179471	0.117130	0.606229
	C174	C	0.826049	0.118147	0.376514
	C175	C	0.825906	0.881118	0.604785
	C176	C	0.385930	0.175003	0.872451
	C177	C	0.619703	0.176639	0.108769
	C178	C	0.386501	0.824983	0.108909
	C179	C	0.618733	0.823940	0.871849
	C180	C	0.387101	0.881421	0.166460
	C181	C	0.619076	0.121343	0.167109
	C182	C	0.386374	0.118998	0.814650
	C183	C	0.618210	0.878889	0.813564
	C184	C	0.882472	0.177594	0.377057
	C185	C	0.124383	0.177832	0.605106
	C186	C	0.124728	0.820557	0.376914
	C187	C	0.882172	0.821678	0.604200
	C188	C	0.177750	0.384863	0.873368
	C189	C	0.177558	0.615287	0.109621
	C190	C	0.827394	0.384333	0.107543
	C191	C	0.828679	0.616478	0.874861
	C192	C	0.404340	0.094468	0.592124
	C193	C	0.600252	0.904738	0.591318
	C194	C	0.601786	0.095260	0.389746
	C195	C	0.405393	0.905114	0.388782
	C196	C	0.602707	0.399455	0.084415
	C197	C	0.603204	0.601895	0.896094
	C198	C	0.402873	0.601846	0.084268
	C199	C	0.402233	0.399014	0.896172
	C200	C	0.099593	0.596964	0.391885
	C201	C	0.906074	0.598216	0.589881
	C202	C	0.099386	0.402052	0.590807
	C203	C	0.906077	0.401060	0.391393
	C204	C	0.904304	0.595178	0.093387
	C205	C	0.101282	0.404438	0.091808
	C206	C	0.099179	0.595085	0.891256
	C207	C	0.903539	0.404866	0.890033
	C208	C	0.103984	0.897975	0.584680
	C209	C	0.102969	0.099633	0.397599
	C210	C	0.903551	0.100817	0.584879
	C211	C	0.904263	0.898837	0.397192
	C212	C	0.599816	0.098998	0.891484
	C213	C	0.406867	0.098818	0.089341
	C214	C	0.599429	0.902622	0.088465
	C215	C	0.405717	0.901758	0.891225
	Zn216	Zn	0.502383	-0.000499	0.742472
	Zn217	Zn	0.503154	0.001130	0.238972
	Zn218	Zn	0.753544	0.501183	-0.009368
	Zn219	Zn	0.251098	0.500641	-0.009665
	Zn220	Zn	0.003441	0.747354	0.490874
	Zn221	Zn	0.003355	0.251854	0.491028
	Zn222	Zn	0.001735	0.499293	0.740154
	Zn223	Zn	0.002614	0.498780	0.242636
	Zn224	Zn	0.502715	0.752259	-0.009789
	Zn225	Zn	0.502604	0.248463	-0.009394
	Zn226	Zn	0.751887	-0.000356	0.490483
	Zn227	Zn	0.254730	-0.000785	0.491067
	N228	N	0.413923	0.963745	0.672676
	N229	N	0.590969	0.035532	0.672410
	N230	N	0.592021	0.964806	0.308217
	N231	N	0.414735	0.036457	0.309192
	N232	N	0.680449	0.416419	0.952911
	N233	N	0.680240	0.586047	0.027993
	N234	N	0.323922	0.586204	0.953081
	N235	N	0.325762	0.416877	0.028065
	N236	N	0.965693	0.675881	0.405736
	N237	N	0.040995	0.675200	0.575290
	N238	N	0.965384	0.323734	0.575587
	N239	N	0.040918	0.323520	0.406831
	N240	N	0.965346	0.413551	0.668810
	N241	N	0.038738	0.587483	0.671209
	N242	N	0.965654	0.584749	0.313392
	N243	N	0.039295	0.411458	0.312008
	N244	N	0.415328	0.681041	0.953918
	N245	N	0.590378	0.681389	0.026351
	N246	N	0.590219	0.319822	0.953833
	N247	N	0.414703	0.319586	0.026563
	N248	N	0.678094	0.961951	0.406915
	N249	N	0.677723	0.037631	0.573594
	N250	N	0.328527	0.960978	0.573761
	N251	N	0.327785	0.038060	0.407361
	N252	N	0.914528	0.463217	0.172011
	N253	N	0.091154	0.535016	0.173088
	N254	N	0.090199	0.464023	0.810291
	N255	N	0.912694	0.535345	0.809168
	N256	N	0.181676	0.914231	0.453348
	N257	N	0.180677	0.083214	0.529230
	N258	N	0.825082	0.084463	0.453456
	N259	N	0.825031	0.914881	0.527975
	N260	N	0.464903	0.176178	0.906011
	N261	N	0.540969	0.176962	0.074802
	N262	N	0.465304	0.824148	0.075069
	N263	N	0.539964	0.823643	0.905812
	N264	N	0.466092	0.914990	0.167788
	N265	N	0.539854	0.088055	0.168968
	N266	N	0.465665	0.086027	0.812865
	N267	N	0.539108	0.912556	0.812051
	N268	N	0.915874	0.180320	0.454439
	N269	N	0.091755	0.180880	0.527463
	N270	N	0.091716	0.817709	0.454399
	N271	N	0.915975	0.819082	0.527058
	N272	N	0.177336	0.462336	0.907828
	N273	N	0.177639	0.538087	0.074786
	N274	N	0.826895	0.462179	0.074374
	N275	N	0.828973	0.539311	0.909466
	O276	O	0.988426	1.013221	0.017376
	H277	H	0.980925	1.019111	0.006876
	H278	H	0.986159	1.023724	0.013014
	O279	O	0.013343	-0.068917	1.066941
	H280	H	0.020765	-0.067615	1.064190
	H281	H	0.016019	-0.060791	1.067403
	O282	O	-0.027213	-0.012732	0.038476
	H283	H	-0.032349	-0.007714	0.043297
	H284	H	-0.035784	-0.015800	0.034420
	O285	O	0.513541	0.490998	0.465479
	H286	H	0.507017	0.499008	0.449337
	H287	H	0.514237	0.491535	0.463201
	O288	O	0.002130	-0.035946	-0.035624
	H289	H	0.009324	-0.040392	-0.033208
	H290	H	0.003091	-0.045089	-0.042464
	O291	O	-0.043455	0.988627	0.027585
	H292	H	-0.042165	0.987489	0.023901
	H293	H	-0.039318	0.988708	0.029693
	O294	O	0.081910	1.028699	-0.050349
	H295	H	0.083192	1.043534	-0.040841
	H296	H	0.087998	1.017060	-0.051746
	O297	O	0.521003	0.504544	0.498998
	H298	H	0.526917	0.506987	0.494510
	H299	H	0.524566	0.507202	0.502171
	O300	O	0.469598	0.514319	0.414608
	H301	H	0.464692	0.504692	0.414473
	H302	H	0.471381	0.520089	0.409059
	O303	O	0.945837	0.049445	1.050239
	H304	H	0.953317	0.028375	1.053820
	H305	H	0.937978	0.051081	1.064547
	O306	O	0.057213	0.978892	0.930508
	H307	H	0.059998	0.969016	0.917083
	H308	H	0.060933	0.967408	0.931354
	O309	O	0.066828	0.997803	1.017783
	H310	H	0.070142	1.000173	1.016432
	H311	H	0.067631	0.991526	1.009195
	O312	O	0.003501	0.016241	0.921238
	H313	H	0.007502	0.011641	0.920084
	H314	H	0.001357	0.017052	0.933738
	O315	O	0.511588	0.493328	0.436614
	H316	H	0.510953	0.487008	0.441361
	H317	H	0.505308	0.494297	0.439638
	O318	O	-0.058052	0.015719	0.949779
	H319	H	-0.055737	0.013698	0.952501
	H320	H	-0.062589	0.017164	0.952980
	O321	O	0.085587	0.938442	0.892241
	H322	H	0.074794	0.940244	0.888446
	H323	H	0.085509	0.938480	0.883465
	O324	O	1.061565	-0.035867	1.028911
	H325	H	1.064598	-0.035083	1.029013
	H326	H	1.058447	-0.033150	1.027828
	O327	O	0.974771	0.939633	0.866699
	H328	H	0.973120	0.945181	0.871809
	H329	H	0.967765	0.940689	0.879836
	O330	O	1.009988	-0.042434	1.093551
	H331	H	1.008814	-0.046198	1.096033
	H332	H	1.010612	-0.047318	1.090955
	O333	O	0.465263	0.446013	0.475758
	H334	H	0.462730	0.434156	0.473108
	H335	H	0.469483	0.436339	0.469962
	O336	O	0.472603	0.500012	0.456262
	H337	H	0.475627	0.497390	0.449444
	H338	H	0.471056	0.501603	0.447878
	O339	O	0.491518	0.533120	0.456374
	H340	H	0.497006	0.531396	0.460631
	H341	H	0.494447	0.525917	0.452060
	O342	O	0.473602	0.489780	0.480023
	H343	H	0.468989	0.496179	0.486641
	H344	H	0.481334	0.494291	0.482761
	O345	O	0.519758	0.430455	0.495162
	H346	H	0.514437	0.433022	0.499496
	H347	H	0.509961	0.421624	0.501722
