data_Molecule from HDF5

_cell_length_a		16.160567
_cell_length_b		16.232337
_cell_length_c		16.312882
_cell_angle_alpha	90.144723
_cell_angle_beta	90.016365
_cell_angle_gamma	89.850586
_symmetry_space_group_name_H-M	'P 1'
_symmetry_Int_Tables_number		1

loop_
	_symmetry_equiv_pos_as_xyz
	x,y,z

loop_
	_atom_site_label
	_atom_site_type_symbol
	_atom_site_fract_x
	_atom_site_fract_y
	_atom_site_fract_z
	H0	H	0.409903	0.837409	0.725712
	H1	H	0.608388	0.165185	0.724863
	H2	H	0.609915	0.838052	0.294073
	H3	H	0.409809	0.165311	0.296324
	H4	H	0.722569	0.402741	0.847199
	H5	H	0.721593	0.599196	0.175031
	H6	H	0.294895	0.597767	0.846836
	H7	H	0.297650	0.405923	0.176100
	H8	H	0.844625	0.713579	0.413476
	H9	H	0.174911	0.714216	0.608786
	H10	H	0.843636	0.288431	0.609359
	H11	H	0.174523	0.289043	0.415763
	H12	H	0.843776	0.403725	0.724519
	H13	H	0.174158	0.599480	0.725907
	H14	H	0.845751	0.601384	0.296648
	H15	H	0.174249	0.400990	0.296415
	H16	H	0.409727	0.715805	0.847068
	H17	H	0.607594	0.716405	0.174747
	H18	H	0.608510	0.284734	0.848177
	H19	H	0.411643	0.288066	0.174782
	H20	H	0.723286	0.837517	0.411710
	H21	H	0.720605	0.166641	0.606231
	H22	H	0.296673	0.836302	0.607144
	H23	H	0.296306	0.165999	0.414619
	H24	H	0.909818	0.337377	0.225936
	H25	H	0.107638	0.665016	0.225534
	H26	H	0.108043	0.336667	0.795937
	H27	H	0.907780	0.664859	0.795692
	H28	H	0.222670	0.903999	0.345708
	H29	H	0.223147	0.098945	0.674301
	H30	H	0.796234	0.099391	0.345864
	H31	H	0.796879	0.906317	0.674189
	H32	H	0.344312	0.214260	0.912987
	H33	H	0.674865	0.212747	0.107182
	H34	H	0.344302	0.789368	0.108797
	H35	H	0.673994	0.786174	0.912767
	H36	H	0.345169	0.903817	0.224037
	H37	H	0.673507	0.101306	0.225639
	H38	H	0.345121	0.099623	0.797115
	H39	H	0.674936	0.902019	0.797128
	H40	H	0.910592	0.216576	0.347349
	H41	H	0.107079	0.215189	0.674680
	H42	H	0.109453	0.785165	0.346925
	H43	H	0.911486	0.787407	0.673956
	H44	H	0.222018	0.335606	0.913772
	H45	H	0.220347	0.666304	0.107996
	H46	H	0.796722	0.336219	0.107590
	H47	H	0.795126	0.665849	0.914425
	H48	H	0.416216	0.118856	0.606640
	H49	H	0.601377	0.884004	0.603451
	H50	H	0.601542	0.116957	0.421615
	H51	H	0.415702	0.886625	0.426792
	H52	H	0.600444	0.406036	0.127896
	H53	H	0.594495	0.598722	0.895173
	H54	H	0.415109	0.594661	0.127194
	H55	H	0.425932	0.404998	0.896296
	H56	H	0.130749	0.593553	0.411011
	H57	H	0.891368	0.596311	0.602943
	H58	H	0.127859	0.410357	0.610380
	H59	H	0.894416	0.412538	0.423957
	H60	H	0.127588	0.402511	0.602067
	H61	H	0.893384	0.592918	0.603098
	H62	H	0.127892	0.597586	0.422679
	H63	H	0.890794	0.413785	0.410907
	H64	H	0.415453	0.598483	0.128181
	H65	H	0.608078	0.596251	0.891698
	H66	H	0.604029	0.404544	0.129005
	H67	H	0.409114	0.399111	0.890339
	H68	H	0.605523	0.120660	0.414988
	H69	H	0.603374	0.884502	0.602365
	H70	H	0.418579	0.116406	0.602544
	H71	H	0.408043	0.879066	0.409552
	H72	H	0.914790	0.620173	0.110103
	H73	H	0.103563	0.383948	0.100998
	H74	H	0.099370	0.618096	0.913955
	H75	H	0.922576	0.385000	0.912808
	H76	H	0.092725	0.913232	0.622058
	H77	H	0.108164	0.102654	0.389807
	H78	H	0.907156	0.099523	0.629725
	H79	H	0.917591	0.905720	0.393692
	H80	H	0.628738	0.095985	0.913953
	H81	H	0.393015	0.091294	0.101642
	H82	H	0.630300	0.900413	0.104539
	H83	H	0.391706	0.906015	0.919017
	H84	H	0.623920	0.911343	0.094671
	H85	H	0.390015	0.093920	0.109696
	H86	H	0.627258	0.095815	0.920276
	H87	H	0.393365	0.912734	0.918372
	H88	H	0.914900	0.087519	0.624715
	H89	H	0.106164	0.087343	0.395185
	H90	H	0.102134	0.897387	0.629379
	H91	H	0.915219	0.906063	0.392940
	H92	H	0.098360	0.616052	0.920250
	H93	H	0.105170	0.381975	0.107688
	H94	H	0.920930	0.616804	0.103561
	H95	H	0.915837	0.386227	0.923482
	H96	H	0.413658	0.118833	0.602495
	H97	H	0.603090	0.883127	0.604315
	H98	H	0.596860	0.117628	0.414637
	H99	H	0.427757	0.885228	0.410439
	H100	H	0.604425	0.408359	0.127689
	H101	H	0.600522	0.586305	0.896949
	H102	H	0.411951	0.596687	0.128718
	H103	H	0.411184	0.416591	0.896280
	H104	H	0.124873	0.586079	0.419280
	H105	H	0.891748	0.594000	0.606235
	H106	H	0.123705	0.412837	0.600039
	H107	H	0.888992	0.401776	0.417269
	H108	H	0.911609	0.617948	0.101500
	H109	H	0.098425	0.384492	0.106169
	H110	H	0.105225	0.619066	0.918655
	H111	H	0.910633	0.380919	0.912754
	H112	H	0.111630	0.914396	0.626991
	H113	H	0.093113	0.097719	0.395528
	H114	H	0.922201	0.100837	0.626926
	H115	H	0.915841	0.908266	0.393453
	H116	H	0.626836	0.090270	0.916438
	H117	H	0.390314	0.099865	0.102532
	H118	H	0.627108	0.915442	0.110044
	H119	H	0.391722	0.909820	0.913229
	C120	C	0.387355	0.009654	0.632295
	C121	C	0.630495	0.992799	0.631471
	C122	C	0.630770	0.010109	0.387975
	C123	C	0.388361	0.992709	0.388514
	C124	C	0.631049	0.378607	0.019810
	C125	C	0.629801	0.622462	1.003126
	C126	C	0.385755	0.624383	0.019583
	C127	C	0.387879	0.379627	1.002761
	C128	C	0.018765	0.621706	0.389724
	C129	C	1.000853	0.622797	0.632806
	C130	C	0.017460	0.380055	0.632458
	C131	C	1.000757	0.380344	0.389614
	C132	C	0.887661	0.509378	0.132796
	C133	C	0.130422	0.492537	0.133063
	C134	C	0.130151	0.509165	0.889287
	C135	C	0.887244	0.492709	0.888642
	C136	C	0.131583	0.879231	0.518293
	C137	C	0.130855	0.123689	0.502130
	C138	C	0.887128	0.123809	0.518568
	C139	C	0.887995	0.878906	0.501519
	C140	C	0.518501	0.122488	0.889086
	C141	C	0.500218	0.123241	0.132633
	C142	C	0.517894	0.881183	0.131265
	C143	C	0.501159	0.880046	0.888647
	C144	C	0.389732	0.886358	0.687613
	C145	C	0.628341	0.116421	0.686421
	C146	C	0.629456	0.886743	0.332496
	C147	C	0.390027	0.116354	0.334535
	C148	C	0.685469	0.381862	0.896273
	C149	C	0.684423	0.619661	0.126027
	C150	C	0.331767	0.619861	0.895914
	C151	C	0.334343	0.384309	0.126765
	C152	C	0.894323	0.676792	0.392810
	C153	C	0.125645	0.676697	0.629791
	C154	C	0.892960	0.325787	0.629778
	C155	C	0.125080	0.325428	0.393331
	C156	C	0.893181	0.382942	0.687067
	C157	C	0.125296	0.619815	0.687876
	C158	C	0.894814	0.620887	0.334604
	C159	C	0.124940	0.381352	0.334521
	C160	C	0.388895	0.678531	0.896232
	C161	C	0.627472	0.677953	0.125915
	C162	C	0.628498	0.323375	0.896544
	C163	C	0.390971	0.325540	0.126199
	C164	C	0.686011	0.886518	0.390777
	C165	C	0.684085	0.117103	0.627647
	C166	C	0.333410	0.885677	0.628592
	C167	C	0.333635	0.116621	0.393366
	C168	C	0.889941	0.386058	0.187624
	C169	C	0.127697	0.616083	0.187853
	C170	C	0.128186	0.385487	0.834170
	C171	C	0.888548	0.616081	0.833974
	C172	C	0.185971	0.882522	0.394964
	C173	C	0.185231	0.119806	0.625429
	C174	C	0.833333	0.120142	0.395083
	C175	C	0.833812	0.883871	0.625024
	C176	C	0.393859	0.177094	0.892357
	C177	C	0.625152	0.176352	0.128686
	C178	C	0.393652	0.826786	0.128921
	C179	C	0.625087	0.824047	0.891796
	C180	C	0.394051	0.883641	0.186245
	C181	C	0.624743	0.120737	0.187083
	C182	C	0.394208	0.120091	0.834516
	C183	C	0.625332	0.881057	0.833924
	C184	C	0.890012	0.178473	0.395803
	C185	C	0.127637	0.177621	0.625567
	C186	C	0.129848	0.823379	0.395638
	C187	C	0.890878	0.825013	0.625059
	C188	C	0.184654	0.384908	0.892747
	C189	C	0.183818	0.616709	0.129416
	C190	C	0.833444	0.385586	0.129031
	C191	C	0.832218	0.616347	0.892718
	C192	C	0.409619	0.095808	0.610497
	C193	C	0.608986	0.906360	0.609790
	C194	C	0.608030	0.096150	0.410478
	C195	C	0.410685	0.905886	0.409274
	C196	C	0.609414	0.399981	0.106067
	C197	C	0.607618	0.600288	0.916815
	C198	C	0.407577	0.603144	0.105800
	C199	C	0.408938	0.400965	0.916720
	C200	C	0.105362	0.599330	0.411353
	C201	C	0.914519	0.600876	0.610622
	C202	C	0.103920	0.401882	0.610488
	C203	C	0.913884	0.402706	0.411200
	C204	C	0.909295	0.595984	0.111458
	C205	C	0.108814	0.405922	0.111297
	C206	C	0.107622	0.595412	0.911195
	C207	C	0.909773	0.406370	0.910070
	C208	C	0.108921	0.901704	0.604117
	C209	C	0.108862	0.102345	0.415802
	C210	C	0.908549	0.102338	0.604959
	C211	C	0.909841	0.900184	0.415488
	C212	C	0.605153	0.100552	0.910524
	C213	C	0.413542	0.101528	0.111034
	C214	C	0.604778	0.902774	0.109435
	C215	C	0.414671	0.902996	0.910513
	Zn216	Zn	0.509967	0.001227	0.760434
	Zn217	Zn	0.509630	0.001631	0.259623
	Zn218	Zn	0.759007	0.501028	0.011295
	Zn219	Zn	0.258193	0.500881	0.011359
	Zn220	Zn	0.010495	0.749847	0.510005
	Zn221	Zn	0.008396	0.252046	0.510898
	Zn222	Zn	0.009109	0.501587	0.760501
	Zn223	Zn	0.009527	0.501199	0.261119
	Zn224	Zn	0.509064	0.752264	0.010802
	Zn225	Zn	0.509185	0.250286	0.011313
	Zn226	Zn	0.759135	0.001884	0.509845
	Zn227	Zn	0.259703	0.000888	0.510333
	N228	N	0.422417	0.964481	0.689985
	N229	N	0.595886	0.038124	0.688943
	N230	N	0.595928	0.964599	0.330777
	N231	N	0.423270	0.038311	0.331570
	N232	N	0.687053	0.415613	0.973823
	N233	N	0.685643	0.585640	0.048555
	N234	N	0.329841	0.586812	0.973641
	N235	N	0.332241	0.417211	0.049119
	N236	N	0.972481	0.677491	0.426267
	N237	N	0.047507	0.678749	0.596409
	N238	N	0.971224	0.323781	0.596516
	N239	N	0.046847	0.324565	0.426670
	N240	N	0.971516	0.415928	0.689007
	N241	N	0.046692	0.587288	0.689985
	N242	N	0.972873	0.586831	0.332815
	N243	N	0.046522	0.414621	0.331901
	N244	N	0.421717	0.681366	0.974009
	N245	N	0.594223	0.679667	0.048260
	N246	N	0.595575	0.321370	0.974262
	N247	N	0.423330	0.322519	0.048232
	N248	N	0.687128	0.964220	0.424563
	N249	N	0.685845	0.039205	0.594212
	N250	N	0.331687	0.963397	0.595108
	N251	N	0.332443	0.038543	0.426190
	N252	N	0.922961	0.464058	0.189988
	N253	N	0.095146	0.537863	0.189975
	N254	N	0.095022	0.463682	0.831915
	N255	N	0.921876	0.538072	0.831238
	N256	N	0.187057	0.916521	0.472397
	N257	N	0.187524	0.087005	0.547602
	N258	N	0.831354	0.086916	0.472602
	N259	N	0.831818	0.916623	0.547203
	N260	N	0.472100	0.178595	0.925674
	N261	N	0.546972	0.177937	0.095539
	N262	N	0.471712	0.825103	0.095400
	N263	N	0.546816	0.823159	0.924885
	N264	N	0.472474	0.916638	0.187874
	N265	N	0.545969	0.088531	0.189868
	N266	N	0.472635	0.087098	0.832153
	N267	N	0.547222	0.915058	0.831820
	N268	N	0.922769	0.180574	0.473534
	N269	N	0.094685	0.180043	0.547784
	N270	N	0.096706	0.821313	0.473250
	N271	N	0.923694	0.821728	0.547275
	N272	N	0.185919	0.462818	0.926312
	N273	N	0.185486	0.538927	0.095868
	N274	N	0.832177	0.463311	0.095591
	N275	N	0.831362	0.538617	0.926009
	O276	O	0.524311	0.477165	0.543084
	H277	H	0.512781	0.473656	0.534048
	H278	H	0.518590	0.472103	0.548923
	O279	O	-0.512637	0.454869	-0.492439
	H280	H	-0.512836	0.460032	-0.495416
	H281	H	-0.504756	0.457227	-0.500124
	O282	O	0.545902	0.463456	0.560533
	H283	H	0.546766	0.460293	0.572029
	H284	H	0.541354	0.466969	0.558269
	O285	O	0.502810	0.514028	0.518127
	H286	H	0.509762	0.506438	0.519477
	H287	H	0.499136	0.512045	0.521611
	O288	O	1.069744	-0.024738	-0.101365
	H289	H	1.068425	-0.020622	-0.115253
	H290	H	1.064505	-0.030920	-0.104157
	O291	O	-0.954900	0.962611	-1.079999
	H292	H	-0.944454	0.960229	-1.084347
	H293	H	-0.954498	0.965243	-1.079987
	O294	O	0.522733	0.472877	0.545315
	H295	H	0.527288	0.477962	0.549323
	H296	H	0.516133	0.476575	0.552378
	O297	O	0.054487	1.000000	-0.095862
	H298	H	0.060720	0.998968	-0.095857
	H299	H	0.058548	0.998540	-0.100627
	O300	O	1.086340	-0.074042	0.930817
	H301	H	1.087638	-0.076637	0.935672
	H302	H	1.088525	-0.079534	0.936847
	O303	O	0.560568	0.553719	0.534425
	H304	H	0.565596	0.555278	0.537652
	H305	H	0.565147	0.557975	0.539765
	O306	O	0.100066	0.933261	0.920009
	H307	H	0.100073	0.939245	0.910776
	H308	H	0.094863	0.929602	0.925591
	O309	O	0.463352	0.447979	0.556767
	H310	H	0.464477	0.444483	0.557079
	H311	H	0.466099	0.451366	0.550079
