data_Molecule from HDF5

_cell_length_a		16.313652
_cell_length_b		16.011305
_cell_length_c		16.268916
_cell_angle_alpha	90.221144
_cell_angle_beta	90.127772
_cell_angle_gamma	90.462294
_symmetry_space_group_name_H-M	'P 1'
_symmetry_Int_Tables_number		1

loop_
	_symmetry_equiv_pos_as_xyz
	x,y,z

loop_
	_atom_site_label
	_atom_site_type_symbol
	_atom_site_fract_x
	_atom_site_fract_y
	_atom_site_fract_z
	H0	H	0.402383	0.833590	0.702846
	H1	H	0.602107	0.165292	0.704354
	H2	H	0.600015	0.834529	0.275799
	H3	H	0.406453	0.166374	0.278463
	H4	H	0.719761	0.398392	0.827161
	H5	H	0.722293	0.603906	0.153194
	H6	H	0.287452	0.599858	0.827277
	H7	H	0.286584	0.397878	0.153561
	H8	H	0.839534	0.709872	0.393779
	H9	H	0.168612	0.713294	0.586845
	H10	H	0.840260	0.284810	0.586200
	H11	H	0.168998	0.288096	0.394808
	H12	H	0.840889	0.396999	0.705108
	H13	H	0.167344	0.600781	0.706957
	H14	H	0.840809	0.598182	0.274764
	H15	H	0.166330	0.397854	0.272450
	H16	H	0.409827	0.708653	0.824467
	H17	H	0.602232	0.715074	0.154525
	H18	H	0.596112	0.287998	0.825588
	H19	H	0.407985	0.288462	0.156105
	H20	H	0.714929	0.833928	0.389509
	H21	H	0.718900	0.165478	0.590725
	H22	H	0.288945	0.833879	0.587540
	H23	H	0.291244	0.166463	0.391363
	H24	H	0.902945	0.333325	0.202001
	H25	H	0.104639	0.665031	0.205797
	H26	H	0.101194	0.332610	0.777813
	H27	H	0.906111	0.664455	0.776639
	H28	H	0.219128	0.897877	0.327221
	H29	H	0.221583	0.103603	0.653427
	H30	H	0.788001	0.100200	0.327288
	H31	H	0.785781	0.897513	0.652384
	H32	H	0.338201	0.209175	0.895286
	H33	H	0.667231	0.213545	0.087470
	H34	H	0.339266	0.784550	0.086204
	H35	H	0.668384	0.789093	0.893871
	H36	H	0.340075	0.898288	0.205518
	H37	H	0.666022	0.102334	0.206541
	H38	H	0.340697	0.098395	0.773468
	H39	H	0.666053	0.898319	0.773756
	H40	H	0.908020	0.210069	0.325429
	H41	H	0.101549	0.213370	0.655203
	H42	H	0.098330	0.786726	0.325349
	H43	H	0.907642	0.787696	0.655149
	H44	H	0.215553	0.332601	0.891905
	H45	H	0.219888	0.664785	0.091781
	H46	H	0.788406	0.334911	0.089518
	H47	H	0.792594	0.665719	0.891201
	H48	H	0.416661	0.116520	0.579740
	H49	H	0.591810	0.877735	0.591786
	H50	H	0.592015	0.115966	0.404077
	H51	H	0.408197	0.877681	0.387474
	H52	H	0.590499	0.407806	0.105349
	H53	H	0.604005	0.596150	0.871135
	H54	H	0.396730	0.585749	0.109675
	H55	H	0.423427	0.398289	0.875719
	H56	H	0.120630	0.587838	0.393141
	H57	H	0.885609	0.593543	0.589516
	H58	H	0.116787	0.418418	0.580366
	H59	H	0.887596	0.404937	0.397653
	H60	H	0.124976	0.407392	0.597225
	H61	H	0.887367	0.594383	0.580823
	H62	H	0.122188	0.596495	0.395269
	H63	H	0.887743	0.405914	0.393900
	H64	H	0.421076	0.580900	0.101690
	H65	H	0.601078	0.585960	0.873522
	H66	H	0.602783	0.402626	0.110830
	H67	H	0.395189	0.393434	0.866464
	H68	H	0.606192	0.121307	0.401410
	H69	H	0.586463	0.886223	0.574774
	H70	H	0.407989	0.118645	0.580317
	H71	H	0.418932	0.883984	0.399789
	H72	H	0.913516	0.617284	0.077674
	H73	H	0.094408	0.379514	0.087015
	H74	H	0.085767	0.615080	0.897561
	H75	H	0.903843	0.373994	0.884713
	H76	H	0.106821	0.906480	0.610119
	H77	H	0.102669	0.096434	0.370467
	H78	H	0.910477	0.088641	0.606840
	H79	H	0.907971	0.903979	0.372269
	H80	H	0.620394	0.093955	0.900301
	H81	H	0.386494	0.084608	0.090669
	H82	H	0.615856	0.921617	0.086966
	H83	H	0.387196	0.911123	0.891925
	H84	H	0.625171	0.901991	0.094512
	H85	H	0.382040	0.099380	0.089836
	H86	H	0.618897	0.088742	0.896948
	H87	H	0.384526	0.897372	0.892258
	H88	H	0.912819	0.092394	0.606577
	H89	H	0.100996	0.086590	0.373882
	H90	H	0.095713	0.915610	0.604378
	H91	H	0.906913	0.907502	0.372827
	H92	H	0.103532	0.616571	0.908874
	H93	H	0.089863	0.383485	0.079318
	H94	H	0.908873	0.621087	0.085340
	H95	H	0.924924	0.384435	0.898024
	H96	H	0.413718	0.120435	0.588464
	H97	H	0.605032	0.878693	0.577777
	H98	H	0.595240	0.121325	0.390361
	H99	H	0.402026	0.881209	0.404126
	H100	H	0.602071	0.416405	0.106848
	H101	H	0.594255	0.593932	0.874463
	H102	H	0.414430	0.605269	0.110443
	H103	H	0.402854	0.421855	0.876535
	H104	H	0.119190	0.591797	0.401366
	H105	H	0.888960	0.585930	0.585042
	H106	H	0.121367	0.398228	0.577979
	H107	H	0.886815	0.403495	0.394944
	H108	H	0.918103	0.618805	0.086513
	H109	H	0.099447	0.380074	0.077730
	H110	H	0.103970	0.622047	0.888731
	H111	H	0.900382	0.381153	0.909667
	H112	H	0.093165	0.901667	0.607319
	H113	H	0.093312	0.093843	0.374993
	H114	H	0.907929	0.091849	0.608366
	H115	H	0.909614	0.906882	0.373073
	H116	H	0.620438	0.094161	0.894192
	H117	H	0.388233	0.092438	0.076902
	H118	H	0.617980	0.903449	0.072509
	H119	H	0.388805	0.904625	0.903089
	C120	C	0.382792	0.008565	0.610717
	C121	C	0.624497	0.990495	0.611368
	C122	C	0.624677	0.009313	0.369410
	C123	C	0.381913	0.991069	0.369014
	C124	C	0.625485	0.379412	-0.000865
	C125	C	0.628062	0.622459	0.981425
	C126	C	0.382737	0.619458	-0.001282
	C127	C	0.380273	0.376606	0.981746
	C128	C	0.012145	0.619880	0.368562
	C129	C	0.995752	0.621209	0.613315
	C130	C	0.012755	0.377625	0.612587
	C131	C	0.995696	0.376998	0.367812
	C132	C	0.883223	0.509024	0.111145
	C133	C	0.124800	0.490515	0.111484
	C134	C	0.125054	0.507648	0.869902
	C135	C	0.882448	0.490037	0.868937
	C136	C	0.125409	0.878797	0.498934
	C137	C	0.126743	0.121636	0.481892
	C138	C	0.882264	0.120148	0.499075
	C139	C	0.880220	0.876832	0.481080
	C140	C	0.511617	0.120388	0.869069
	C141	C	0.493954	0.122029	0.113795
	C142	C	0.511535	0.878273	0.112617
	C143	C	0.495028	0.876823	0.867585
	C144	C	0.383133	0.883266	0.665409
	C145	C	0.622732	0.115684	0.666704
	C146	C	0.620887	0.884041	0.313727
	C147	C	0.385386	0.116625	0.315121
	C148	C	0.680403	0.379645	0.875765
	C149	C	0.683608	0.622656	0.104574
	C150	C	0.326794	0.618657	0.875677
	C151	C	0.325219	0.378549	0.105073
	C152	C	0.888641	0.673168	0.372334
	C153	C	0.119208	0.676421	0.608975
	C154	C	0.889416	0.321896	0.608158
	C155	C	0.119732	0.324493	0.372753
	C156	C	0.889674	0.377699	0.667168
	C157	C	0.118445	0.620623	0.668787
	C158	C	0.889386	0.617657	0.313110
	C159	C	0.118171	0.378899	0.311869
	C160	C	0.387370	0.672923	0.874318
	C161	C	0.623933	0.677886	0.105173
	C162	C	0.619413	0.324524	0.875032
	C163	C	0.385530	0.324133	0.106326
	C164	C	0.678250	0.883844	0.370114
	C165	C	0.680537	0.115583	0.610256
	C166	C	0.326677	0.883505	0.608222
	C167	C	0.328506	0.116604	0.371684
	C168	C	0.883809	0.383339	0.164811
	C169	C	0.124169	0.615195	0.167813
	C170	C	0.121724	0.382140	0.815385
	C171	C	0.885653	0.615071	0.814063
	C172	C	0.180388	0.879323	0.375732
	C173	C	0.182973	0.121785	0.604770
	C174	C	0.826894	0.118895	0.375847
	C175	C	0.824438	0.877878	0.603950
	C176	C	0.387672	0.173059	0.873440
	C177	C	0.617762	0.176787	0.109531
	C178	C	0.388418	0.822117	0.108060
	C179	C	0.618778	0.824749	0.872089
	C180	C	0.388809	0.878577	0.167462
	C181	C	0.617181	0.121283	0.168543
	C182	C	0.388845	0.117833	0.813014
	C183	C	0.617517	0.878914	0.811983
	C184	C	0.886736	0.173712	0.374914
	C185	C	0.123104	0.176449	0.605770
	C186	C	0.120295	0.824270	0.374575
	C187	C	0.885272	0.823417	0.605252
	C188	C	0.178602	0.382214	0.871988
	C189	C	0.181576	0.615256	0.111006
	C190	C	0.826486	0.384257	0.108929
	C191	C	0.829199	0.615575	0.870971
	C192	C	0.406042	0.095902	0.589252
	C193	C	0.601343	0.903483	0.588253
	C194	C	0.604027	0.096826	0.391956
	C195	C	0.403305	0.903602	0.390792
	C196	C	0.604669	0.402343	0.085330
	C197	C	0.606301	0.599132	0.895451
	C198	C	0.404430	0.597274	0.084869
	C199	C	0.400950	0.398226	0.895280
	C200	C	0.098515	0.598387	0.390307
	C201	C	0.909548	0.598281	0.591633
	C202	C	0.098780	0.401180	0.591449
	C203	C	0.909677	0.398284	0.389326
	C204	C	0.906660	0.596512	0.089396
	C205	C	0.101313	0.403352	0.088198
	C206	C	0.103888	0.595236	0.891962
	C207	C	0.903337	0.402606	0.891071
	C208	C	0.104691	0.901185	0.585213
	C209	C	0.105235	0.099059	0.395504
	C210	C	0.904065	0.097797	0.585263
	C211	C	0.901715	0.899300	0.395071
	C212	C	0.597604	0.098744	0.890726
	C213	C	0.407916	0.098888	0.092284
	C214	C	0.597403	0.901910	0.091027
	C215	C	0.408937	0.898243	0.889214
	Zn216	Zn	0.503142	-0.001558	0.738973
	Zn217	Zn	0.503112	0.000299	0.242044
	Zn218	Zn	0.756238	0.500628	-0.009454
	Zn219	Zn	0.252716	0.498838	-0.009441
	Zn220	Zn	0.003370	0.749258	0.490014
	Zn221	Zn	0.004430	0.248620	0.490730
	Zn222	Zn	0.004111	0.498330	0.742366
	Zn223	Zn	0.003215	0.498896	0.238833
	Zn224	Zn	0.504125	0.748677	-0.010387
	Zn225	Zn	0.502673	0.249531	-0.008558
	Zn226	Zn	0.752694	-0.000478	0.489924
	Zn227	Zn	0.254923	0.000474	0.490233
	N228	N	0.417636	0.962040	0.667011
	N229	N	0.588603	0.036860	0.667602
	N230	N	0.588327	0.963006	0.313113
	N231	N	0.418285	0.037694	0.313515
	N232	N	0.684063	0.412916	0.953736
	N233	N	0.686025	0.588788	0.026847
	N234	N	0.323555	0.586457	0.954107
	N235	N	0.321911	0.410299	0.026618
	N236	N	0.966012	0.674706	0.406236
	N237	N	0.041720	0.676891	0.575183
	N238	N	0.966940	0.321721	0.574816
	N239	N	0.042556	0.322900	0.406754
	N240	N	0.967331	0.411790	0.669965
	N241	N	0.040611	0.587005	0.671590
	N242	N	0.967256	0.585323	0.310722
	N243	N	0.039973	0.410605	0.308571
	N244	N	0.421642	0.673497	0.951688
	N245	N	0.590193	0.678180	0.027518
	N246	N	0.585940	0.324140	0.952699
	N247	N	0.419019	0.322832	0.028759
	N248	N	0.680732	0.962713	0.404031
	N249	N	0.682010	0.036509	0.576577
	N250	N	0.326484	0.962299	0.574972
	N251	N	0.326047	0.037431	0.404152
	N252	N	0.918509	0.461922	0.166192
	N253	N	0.089309	0.536610	0.167903
	N254	N	0.089026	0.461157	0.813872
	N255	N	0.917954	0.535960	0.812520
	N256	N	0.183553	0.912581	0.453805
	N257	N	0.185463	0.088607	0.526542
	N258	N	0.823948	0.086525	0.454067
	N259	N	0.821208	0.910458	0.525764
	N260	N	0.464993	0.174896	0.907500
	N261	N	0.540349	0.177346	0.076169
	N262	N	0.465810	0.821820	0.074592
	N263	N	0.541516	0.823171	0.905849
	N264	N	0.466601	0.912497	0.170497
	N265	N	0.539063	0.087908	0.171304
	N266	N	0.466853	0.085841	0.810092
	N267	N	0.539429	0.910803	0.809233
	N268	N	0.920489	0.174747	0.452595
	N269	N	0.088980	0.176571	0.528335
	N270	N	0.086703	0.823663	0.452108
	N271	N	0.919253	0.822663	0.527857
	N272	N	0.180871	0.461435	0.905087
	N273	N	0.182175	0.536566	0.076759
	N274	N	0.826070	0.463539	0.076396
	N275	N	0.827049	0.536788	0.904350
	O276	O	0.958980	1.001794	-0.006387
	H277	H	0.956726	0.996442	-0.010066
	H278	H	0.955304	0.993374	-0.004061
	O279	O	-0.029661	-0.039193	1.051742
	H280	H	-0.035942	-0.031639	1.055050
	H281	H	-0.023264	-0.044246	1.052618
	O282	O	-0.033230	-0.048640	0.045944
	H283	H	-0.034925	-0.032787	0.049588
	H284	H	-0.033246	-0.050025	0.056073
	O285	O	0.537060	0.513043	0.491983
	H286	H	0.524522	0.512396	0.489896
	H287	H	0.536937	0.507328	0.489473
	O288	O	0.087250	0.030574	-0.032209
	H289	H	0.089774	0.027402	-0.037850
	H290	H	0.083518	0.025912	-0.044047
	O291	O	-0.085829	1.000417	-0.023596
	H292	H	-0.088482	1.009480	-0.024934
	H293	H	-0.082275	1.000805	-0.027855
	O294	O	-0.000011	1.075917	0.038730
	H295	H	0.003859	1.067011	0.034877
	H296	H	0.006900	1.083939	0.046527
	O297	O	0.522885	0.505163	0.518511
	H298	H	0.531763	0.511253	0.511400
	H299	H	0.522558	0.499956	0.518145
	O300	O	0.514071	0.557343	0.508638
	H301	H	0.511360	0.557168	0.509832
	H302	H	0.515018	0.554729	0.515656
	O303	O	1.049046	-0.055338	0.948941
	H304	H	1.048333	-0.073204	0.947729
	H305	H	1.042769	-0.054152	0.952163
	O306	O	0.000776	0.993607	1.000287
	H307	H	-0.004653	1.007546	0.997467
	H308	H	0.000149	0.997951	1.009206
	O309	O	0.016820	1.018501	0.996915
	H310	H	0.014163	1.014691	1.003015
	H311	H	0.020560	1.014393	0.996825
	O312	O	-0.012288	0.023488	0.952799
	H313	H	-0.006371	0.022909	0.955728
	H314	H	-0.006439	0.024759	0.956393
	O315	O	0.524233	0.456713	0.453729
	H316	H	0.523117	0.463966	0.453417
	H317	H	0.527383	0.460551	0.460534
	O318	O	0.061057	-0.018163	1.058943
	H319	H	0.056282	-0.012762	1.050709
	H320	H	0.063192	-0.016555	1.053332
	O321	O	-0.252292	0.659745	0.715089
	H322	H	-0.254168	0.654288	0.719444
	H323	H	-0.261389	0.671493	0.719116
	O324	O	0.950484	0.045930	0.981981
	H325	H	0.951139	0.040211	0.976476
	H326	H	0.947379	0.044753	0.968312
	O327	O	1.016515	0.911264	0.888891
	H328	H	1.011042	0.911442	0.883152
	H329	H	1.019933	0.915187	0.890519
	O330	O	1.064455	0.062425	0.956788
	H331	H	1.063435	0.051174	0.959096
	H332	H	1.070421	0.064885	0.951192
	O333	O	0.537812	0.537103	0.502810
	H334	H	0.528973	0.539685	0.493229
	H335	H	0.552239	0.541518	0.505556
	O336	O	0.492430	0.490471	0.518915
	H337	H	0.499610	0.496846	0.524066
	H338	H	0.491843	0.489154	0.519482
	O339	O	0.525390	0.529134	0.473409
	H340	H	0.519660	0.533819	0.477712
	H341	H	0.522364	0.527042	0.470304
	O342	O	0.506677	0.519718	0.494318
	H343	H	0.509564	0.515169	0.496845
	H344	H	0.508494	0.519322	0.493725
	O345	O	0.509219	0.487781	0.517426
	H346	H	0.508882	0.484041	0.521153
	H347	H	0.514681	0.487363	0.518819
