data_Molecule from HDF5

_cell_length_a		16.164577
_cell_length_b		16.084598
_cell_length_c		16.353616
_cell_angle_alpha	90.576249
_cell_angle_beta	90.222753
_cell_angle_gamma	89.618466
_symmetry_space_group_name_H-M	'P 1'
_symmetry_Int_Tables_number		1

loop_
	_symmetry_equiv_pos_as_xyz
	x,y,z

loop_
	_atom_site_label
	_atom_site_type_symbol
	_atom_site_fract_x
	_atom_site_fract_y
	_atom_site_fract_z
	H0	H	0.401278	0.832819	0.707279
	H1	H	0.601314	0.161907	0.713596
	H2	H	0.601162	0.833991	0.277814
	H3	H	0.396234	0.162966	0.282000
	H4	H	0.714221	0.395436	0.831862
	H5	H	0.714029	0.599164	0.157891
	H6	H	0.280192	0.601108	0.832080
	H7	H	0.282647	0.403529	0.157401
	H8	H	0.833626	0.709889	0.397974
	H9	H	0.164313	0.709092	0.592249
	H10	H	0.832865	0.288010	0.587327
	H11	H	0.163954	0.283291	0.395162
	H12	H	0.834934	0.397078	0.708643
	H13	H	0.161355	0.600757	0.712568
	H14	H	0.834673	0.598606	0.278970
	H15	H	0.161972	0.393777	0.275102
	H16	H	0.400377	0.711495	0.830497
	H17	H	0.595044	0.713539	0.158526
	H18	H	0.597639	0.280755	0.832397
	H19	H	0.399500	0.286735	0.158828
	H20	H	0.712737	0.832556	0.396795
	H21	H	0.712519	0.163645	0.596677
	H22	H	0.289011	0.831778	0.590070
	H23	H	0.284523	0.163253	0.398317
	H24	H	0.897540	0.333976	0.206114
	H25	H	0.097885	0.662187	0.212620
	H26	H	0.099288	0.333823	0.778705
	H27	H	0.895216	0.663263	0.778941
	H28	H	0.214877	0.895801	0.331791
	H29	H	0.213223	0.096843	0.658032
	H30	H	0.781144	0.096906	0.331935
	H31	H	0.785629	0.900864	0.657655
	H32	H	0.332923	0.210755	0.898937
	H33	H	0.664308	0.211747	0.093653
	H34	H	0.331469	0.790681	0.087965
	H35	H	0.664439	0.783608	0.898697
	H36	H	0.334392	0.899264	0.209115
	H37	H	0.662238	0.099603	0.213858
	H38	H	0.335136	0.099814	0.778350
	H39	H	0.664014	0.894159	0.779277
	H40	H	0.900156	0.208579	0.328838
	H41	H	0.098891	0.215662	0.656650
	H42	H	0.097682	0.781134	0.330988
	H43	H	0.903812	0.786184	0.658162
	H44	H	0.214132	0.335085	0.893977
	H45	H	0.206518	0.666032	0.093002
	H46	H	0.788311	0.332746	0.088917
	H47	H	0.784292	0.664884	0.899465
	H48	H	0.407991	0.117042	0.588956
	H49	H	0.591196	0.879573	0.586791
	H50	H	0.589749	0.116090	0.405083
	H51	H	0.417445	0.879117	0.391223
	H52	H	0.582651	0.407581	0.108692
	H53	H	0.595403	0.583724	0.878966
	H54	H	0.408707	0.606146	0.112607
	H55	H	0.407826	0.411518	0.881271
	H56	H	0.111615	0.584677	0.417700
	H57	H	0.881611	0.595552	0.578442
	H58	H	0.113783	0.410453	0.582977
	H59	H	0.881387	0.408099	0.396391
	H60	H	0.116446	0.408559	0.590051
	H61	H	0.883892	0.581934	0.587673
	H62	H	0.115518	0.573856	0.389835
	H63	H	0.879098	0.401842	0.393654
	H64	H	0.390088	0.595393	0.114702
	H65	H	0.584255	0.590258	0.880367
	H66	H	0.597760	0.397141	0.114807
	H67	H	0.409840	0.402700	0.879224
	H68	H	0.588838	0.116514	0.402968
	H69	H	0.593062	0.880498	0.585721
	H70	H	0.407072	0.115486	0.588083
	H71	H	0.409477	0.882996	0.411456
	H72	H	0.896878	0.616909	0.077450
	H73	H	0.094374	0.382481	0.075611
	H74	H	0.094609	0.619662	0.901946
	H75	H	0.908033	0.380406	0.895710
	H76	H	0.101975	0.901973	0.613574
	H77	H	0.100759	0.081780	0.377896
	H78	H	0.905550	0.082968	0.607863
	H79	H	0.897803	0.899911	0.375370
	H80	H	0.615819	0.083379	0.901426
	H81	H	0.376758	0.093566	0.101068
	H82	H	0.612754	0.910951	0.083356
	H83	H	0.385205	0.912107	0.905744
	H84	H	0.617749	0.909243	0.094992
	H85	H	0.380147	0.102323	0.081946
	H86	H	0.617552	0.091626	0.900289
	H87	H	0.379580	0.911033	0.889091
	H88	H	0.915733	0.097116	0.608567
	H89	H	0.082980	0.084257	0.381884
	H90	H	0.094192	0.910860	0.609314
	H91	H	0.905224	0.911317	0.379771
	H92	H	0.084463	0.618586	0.895533
	H93	H	0.097647	0.377349	0.090848
	H94	H	0.901095	0.622099	0.100397
	H95	H	0.910597	0.381998	0.901076
	H96	H	0.407165	0.116297	0.588909
	H97	H	0.593382	0.879865	0.587218
	H98	H	0.588658	0.116634	0.404649
	H99	H	0.396202	0.874084	0.396002
	H100	H	0.600261	0.416108	0.110844
	H101	H	0.594753	0.596436	0.876802
	H102	H	0.406994	0.584918	0.106623
	H103	H	0.401966	0.405412	0.878231
	H104	H	0.122761	0.602710	0.396502
	H105	H	0.876951	0.596140	0.594825
	H106	H	0.116689	0.403252	0.584461
	H107	H	0.880635	0.402499	0.400587
	H108	H	0.919543	0.612760	0.086927
	H109	H	0.082352	0.382383	0.086510
	H110	H	0.084024	0.614552	0.907752
	H111	H	0.904702	0.380292	0.900548
	H112	H	0.090464	0.899755	0.610819
	H113	H	0.093838	0.098354	0.374862
	H114	H	0.898723	0.098709	0.613395
	H115	H	0.911632	0.898264	0.378067
	H116	H	0.614257	0.089469	0.907352
	H117	H	0.385748	0.082054	0.085830
	H118	H	0.617527	0.899548	0.086706
	H119	H	0.378939	0.896575	0.899360
	C120	C	0.379243	0.006649	0.615668
	C121	C	0.621267	0.989169	0.616872
	C122	C	0.619147	0.006911	0.374538
	C123	C	0.377440	0.988506	0.372633
	C124	C	0.621839	0.375932	0.003551
	C125	C	0.619984	0.620131	0.986728
	C126	C	0.374213	0.623254	0.003257
	C127	C	0.376897	0.378964	0.986834
	C128	C	0.007689	0.617185	0.373171
	C129	C	0.989474	0.620248	0.616441
	C130	C	0.006904	0.378228	0.613526
	C131	C	0.989612	0.374804	0.369259
	C132	C	0.877671	0.507694	0.115014
	C133	C	0.118852	0.490186	0.114694
	C134	C	0.119170	0.508546	0.871944
	C135	C	0.876606	0.489670	0.871469
	C136	C	0.122909	0.874327	0.503135
	C137	C	0.121378	0.119135	0.485760
	C138	C	0.876996	0.120398	0.502008
	C139	C	0.877413	0.875996	0.485757
	C140	C	0.507252	0.118691	0.874146
	C141	C	0.490012	0.121184	0.118448
	C142	C	0.506942	0.878337	0.115647
	C143	C	0.490654	0.876115	0.871313
	C144	C	0.381772	0.881940	0.669390
	C145	C	0.620324	0.112902	0.674788
	C146	C	0.619632	0.882874	0.317109
	C147	C	0.376798	0.113263	0.318785
	C148	C	0.676550	0.375984	0.880948
	C149	C	0.675466	0.618823	0.109424
	C150	C	0.318464	0.620901	0.880725
	C151	C	0.321086	0.382936	0.109111
	C152	C	0.883406	0.673159	0.376390
	C153	C	0.114211	0.673739	0.613787
	C154	C	0.882742	0.323865	0.609477
	C155	C	0.114189	0.320303	0.373596
	C156	C	0.883618	0.378372	0.669835
	C157	C	0.112698	0.619752	0.673632
	C158	C	0.883736	0.617489	0.317386
	C159	C	0.112945	0.374956	0.313588
	C160	C	0.378512	0.675762	0.879750
	C161	C	0.616398	0.675785	0.109590
	C162	C	0.618409	0.318834	0.881126
	C163	C	0.379035	0.324561	0.109723
	C164	C	0.675315	0.882223	0.376258
	C165	C	0.675487	0.113807	0.616347
	C166	C	0.325830	0.881358	0.611393
	C167	C	0.321039	0.113348	0.376649
	C168	C	0.879075	0.383098	0.168151
	C169	C	0.116870	0.613772	0.172951
	C170	C	0.119052	0.383825	0.816241
	C171	C	0.876654	0.614230	0.817279
	C172	C	0.177355	0.875792	0.380453
	C173	C	0.176200	0.117765	0.608881
	C174	C	0.819884	0.117408	0.380101
	C175	C	0.823103	0.879967	0.608923
	C176	C	0.383021	0.174347	0.877175
	C177	C	0.614621	0.174876	0.115318
	C178	C	0.381651	0.825992	0.110474
	C179	C	0.614799	0.820414	0.876630
	C180	C	0.382857	0.880392	0.170457
	C181	C	0.613453	0.119589	0.175101
	C182	C	0.384134	0.118900	0.817359
	C183	C	0.614605	0.875418	0.817040
	C184	C	0.879371	0.172808	0.378516
	C185	C	0.119183	0.176956	0.608141
	C186	C	0.118765	0.818876	0.379951
	C187	C	0.881716	0.822795	0.609203
	C188	C	0.175861	0.384252	0.873725
	C189	C	0.171307	0.615391	0.113729
	C190	C	0.824493	0.382563	0.110019
	C191	C	0.821308	0.614999	0.876777
	C192	C	0.400978	0.093652	0.594663
	C193	C	0.599117	0.902447	0.593337
	C194	C	0.595731	0.093908	0.397508
	C195	C	0.400845	0.901525	0.393350
	C196	C	0.599961	0.400064	0.089196
	C197	C	0.597890	0.596901	0.900933
	C198	C	0.395790	0.601909	0.089152
	C199	C	0.399843	0.400324	0.901638
	C200	C	0.094382	0.593786	0.394896
	C201	C	0.903184	0.597937	0.593749
	C202	C	0.093338	0.400735	0.592053
	C203	C	0.902826	0.397418	0.390551
	C204	C	0.899427	0.594729	0.094400
	C205	C	0.097769	0.402864	0.091233
	C206	C	0.094849	0.595332	0.894937
	C207	C	0.900550	0.403285	0.892774
	C208	C	0.101798	0.897384	0.588957
	C209	C	0.099010	0.095254	0.400325
	C210	C	0.899936	0.099151	0.587694
	C211	C	0.898669	0.896772	0.400004
	C212	C	0.593660	0.095102	0.896520
	C213	C	0.403439	0.099081	0.096226
	C214	C	0.593444	0.900073	0.094702
	C215	C	0.403773	0.899662	0.891867
	Zn216	Zn	0.500084	-0.002390	0.743660
	Zn217	Zn	0.498220	-0.001424	0.245765
	Zn218	Zn	0.750185	0.498412	-0.005194
	Zn219	Zn	0.246135	0.500657	-0.005554
	Zn220	Zn	-0.000545	0.746348	0.494461
	Zn221	Zn	-0.001224	0.248664	0.492725
	Zn222	Zn	-0.001387	0.498454	0.743666
	Zn223	Zn	-0.002138	0.497481	0.242705
	Zn224	Zn	0.497751	0.749689	-0.005789
	Zn225	Zn	0.498671	0.248281	-0.004321
	Zn226	Zn	0.747887	-0.001176	0.495466
	Zn227	Zn	0.251277	-0.002915	0.494636
	N228	N	0.414326	0.960811	0.672180
	N229	N	0.587678	0.034217	0.675376
	N230	N	0.585500	0.961581	0.315968
	N231	N	0.411161	0.034735	0.316115
	N232	N	0.678798	0.410818	0.958178
	N233	N	0.677836	0.584987	0.031836
	N234	N	0.315725	0.589022	0.958585
	N235	N	0.319518	0.415880	0.031710
	N236	N	0.961493	0.673029	0.410396
	N237	N	0.036708	0.674103	0.578899
	N238	N	0.960422	0.323619	0.575230
	N239	N	0.036432	0.319710	0.407247
	N240	N	0.961916	0.411338	0.672560
	N241	N	0.034166	0.587001	0.675453
	N242	N	0.961952	0.583615	0.315258
	N243	N	0.034342	0.408136	0.310776
	N244	N	0.412536	0.677331	0.956774
	N245	N	0.582646	0.676726	0.032189
	N246	N	0.585196	0.318740	0.958547
	N247	N	0.413176	0.322105	0.032871
	N248	N	0.675092	0.960385	0.411218
	N249	N	0.676298	0.035925	0.581001
	N250	N	0.323972	0.959899	0.578828
	N251	N	0.321472	0.034832	0.409597
	N252	N	0.911399	0.461914	0.171582
	N253	N	0.084812	0.534736	0.173495
	N254	N	0.084441	0.462184	0.815140
	N255	N	0.910401	0.535388	0.813949
	N256	N	0.180240	0.909449	0.458080
	N257	N	0.177665	0.082542	0.531845
	N258	N	0.818306	0.085656	0.457885
	N259	N	0.820222	0.912344	0.531390
	N260	N	0.460639	0.174344	0.911753
	N261	N	0.536829	0.176240	0.081164
	N262	N	0.459545	0.824749	0.076947
	N263	N	0.536573	0.820683	0.909656
	N264	N	0.461756	0.912200	0.173917
	N265	N	0.534925	0.086913	0.177119
	N266	N	0.462462	0.084711	0.815435
	N267	N	0.536267	0.909174	0.813599
	N268	N	0.914205	0.174978	0.455483
	N269	N	0.085949	0.177910	0.530648
	N270	N	0.085619	0.817716	0.457217
	N271	N	0.914749	0.820296	0.531760
	N272	N	0.176030	0.462811	0.907725
	N273	N	0.172548	0.537432	0.078198
	N274	N	0.823326	0.461159	0.077705
	N275	N	0.821131	0.536652	0.909772
	O276	O	0.026701	0.020846	-0.009507
	H277	H	0.026581	0.013722	-0.010925
	H278	H	0.028505	0.014836	-0.008785
	O279	O	0.458606	0.546922	0.451105
	H280	H	0.469177	0.546406	0.449474
	H281	H	0.455923	0.547277	0.452339
	O282	O	0.547758	0.565996	0.558899
	H283	H	0.553890	0.579069	0.552567
	H284	H	0.549249	0.579226	0.578030
	O285	O	-0.006333	0.977211	1.011559
	H286	H	0.005692	0.975020	1.013566
	H287	H	-0.012453	0.981450	1.012079
	O288	O	0.464956	0.463936	0.505300
	H289	H	0.462696	0.468921	0.514075
	H290	H	0.466984	0.461300	0.506240
	O291	O	1.010738	1.042931	1.021951
	H292	H	1.016541	1.048202	1.027237
	H293	H	1.010264	1.039857	1.016317
	O294	O	1.090849	1.000588	0.950278
	H295	H	1.090162	1.013578	0.961369
	H296	H	1.091214	0.997361	0.954441
	O297	O	0.928662	0.071278	0.916128
	H298	H	0.931014	0.077390	0.918632
	H299	H	0.925723	0.070334	0.914155
	O300	O	0.391959	0.455741	0.601149
	H301	H	0.399150	0.451306	0.607471
	H302	H	0.385612	0.441545	0.592799
	O303	O	1.059208	0.070014	0.053747
	H304	H	1.056587	0.075162	0.057296
	H305	H	1.063537	0.068466	0.061713
	O306	O	0.006118	0.950506	1.002817
	H307	H	0.008898	0.930663	0.996298
	H308	H	0.008782	0.957563	0.990096
	O309	O	0.501815	0.507208	0.543488
	H310	H	0.499516	0.521844	0.531957
	H311	H	0.501992	0.500390	0.552859
	O312	O	1.580010	0.462945	0.417046
	H313	H	1.583519	0.475710	0.415575
	H314	H	1.578206	0.461985	0.422426
	O315	O	0.406040	0.476835	0.468051
	H316	H	0.392671	0.471014	0.464814
	H317	H	0.406982	0.480025	0.471314
	O318	O	0.512620	0.438903	0.487235
	H319	H	0.521203	0.437522	0.481296
	H320	H	0.501470	0.433484	0.485750
	O321	O	1.071748	1.027083	1.026058
	H322	H	1.069696	1.023841	1.026041
	H323	H	1.067111	1.029656	1.023998
	O324	O	0.525882	0.403573	0.401265
	H325	H	0.529532	0.404464	0.397422
	H326	H	0.523353	0.392312	0.391340
	O327	O	0.546065	0.554657	0.474463
	H328	H	0.546074	0.555259	0.467228
	H329	H	0.550720	0.549743	0.478361
	O330	O	0.980698	0.061251	0.971535
	H331	H	0.994827	0.068892	0.979615
	H332	H	0.986608	0.059355	0.970512
	O333	O	1.008710	0.980271	-0.079821
	H334	H	1.012784	0.982915	-0.085511
	H335	H	1.011471	0.981513	-0.078469
	O336	O	0.486074	0.572031	0.510309
	H337	H	0.485818	0.574503	0.508914
	H338	H	0.485802	0.578288	0.515878
	O339	O	0.553339	0.394771	0.534586
	H340	H	0.549618	0.396586	0.533065
	H341	H	0.555135	0.393904	0.528276
	O342	O	0.023376	1.057411	0.007944
	H343	H	0.018781	1.049204	-0.000905
	H344	H	0.020832	1.065996	0.020644
	O345	O	-0.028409	-0.048326	0.002718
	H346	H	-0.038324	-0.039258	0.001401
	H347	H	-0.035254	-0.053382	-0.008743
	O348	O	-0.008005	0.993017	0.992761
	H349	H	-0.009511	0.995485	0.991616
	H350	H	-0.007347	0.992648	0.996350
	O351	O	0.576496	0.608410	0.558731
	H352	H	0.569464	0.609192	0.558355
	H353	H	0.579568	0.597380	0.569572
	O354	O	0.338981	0.581788	0.503570
	H355	H	0.330717	0.580416	0.510042
	H356	H	0.348305	0.573899	0.502613
	O357	O	0.545348	0.450481	0.412865
	H358	H	0.540902	0.443770	0.410511
	H359	H	0.565244	0.444856	0.406474
	O360	O	-0.051493	0.011408	-0.146954
	H361	H	-0.048618	0.013328	-0.152856
	H362	H	-0.042111	0.007513	-0.147814
	O363	O	0.602668	0.437829	0.483096
	H364	H	0.601719	0.455884	0.471661
	H365	H	0.611415	0.435970	0.501841
	O366	O	-0.455600	-0.501561	1.612184
	H367	H	-0.455235	-0.491588	1.613255
	H368	H	-0.457444	-0.500732	1.616936
	O369	O	0.470359	0.447735	0.487335
	H370	H	0.469571	0.439288	0.482849
	H371	H	0.479612	0.450420	0.487413
