data_Molecule from HDF5

_cell_length_a		16.309391
_cell_length_b		16.231875
_cell_length_c		16.192390
_cell_angle_alpha	90.435858
_cell_angle_beta	90.135700
_cell_angle_gamma	90.074943
_symmetry_space_group_name_H-M	'P 1'
_symmetry_Int_Tables_number		1

loop_
	_symmetry_equiv_pos_as_xyz
	x,y,z

loop_
	_atom_site_label
	_atom_site_type_symbol
	_atom_site_fract_x
	_atom_site_fract_y
	_atom_site_fract_z
	H0	H	0.410941	0.832928	0.718911
	H1	H	0.603682	0.163278	0.723672
	H2	H	0.602891	0.833878	0.295033
	H3	H	0.408870	0.162627	0.295298
	H4	H	0.720793	0.397326	0.844344
	H5	H	0.719900	0.596773	0.173494
	H6	H	0.290989	0.595107	0.844848
	H7	H	0.292954	0.400789	0.174143
	H8	H	0.843097	0.711269	0.410204
	H9	H	0.169882	0.714657	0.609221
	H10	H	0.842853	0.285113	0.606408
	H11	H	0.170140	0.283335	0.409833
	H12	H	0.842086	0.402044	0.719737
	H13	H	0.169657	0.597682	0.724588
	H14	H	0.842945	0.595021	0.294890
	H15	H	0.170074	0.399608	0.293678
	H16	H	0.410058	0.708571	0.842692
	H17	H	0.604576	0.712350	0.173315
	H18	H	0.602145	0.284746	0.843561
	H19	H	0.408584	0.284681	0.173565
	H20	H	0.720780	0.834987	0.407440
	H21	H	0.721932	0.162884	0.610706
	H22	H	0.291874	0.833843	0.605376
	H23	H	0.292825	0.162944	0.411020
	H24	H	0.908762	0.333266	0.220687
	H25	H	0.104045	0.663147	0.223698
	H26	H	0.102866	0.333884	0.793627
	H27	H	0.909526	0.662995	0.796563
	H28	H	0.219393	0.898022	0.344060
	H29	H	0.221266	0.099227	0.672382
	H30	H	0.792081	0.096002	0.344034
	H31	H	0.792932	0.902171	0.673229
	H32	H	0.343543	0.211748	0.910143
	H33	H	0.670578	0.213801	0.108349
	H34	H	0.343336	0.785417	0.104622
	H35	H	0.670774	0.782575	0.908438
	H36	H	0.343143	0.902213	0.219502
	H37	H	0.670111	0.098630	0.225184
	H38	H	0.342867	0.094014	0.795910
	H39	H	0.671192	0.900264	0.794438
	H40	H	0.908917	0.210147	0.342999
	H41	H	0.104290	0.213409	0.673512
	H42	H	0.103311	0.783703	0.344251
	H43	H	0.908474	0.786820	0.673411
	H44	H	0.220085	0.333532	0.908539
	H45	H	0.220572	0.662970	0.109229
	H46	H	0.791626	0.334335	0.105886
	H47	H	0.792676	0.662919	0.911261
	H48	H	0.415284	0.115807	0.606867
	H49	H	0.597821	0.883895	0.595122
	H50	H	0.594304	0.115226	0.411335
	H51	H	0.411662	0.880381	0.408682
	H52	H	0.604330	0.400284	0.129672
	H53	H	0.599319	0.579882	0.894746
	H54	H	0.409546	0.584991	0.125223
	H55	H	0.413939	0.401354	0.890979
	H56	H	0.123814	0.593157	0.417358
	H57	H	0.888249	0.590874	0.609898
	H58	H	0.123551	0.402261	0.598985
	H59	H	0.890800	0.407771	0.413145
	H60	H	0.121638	0.409683	0.599955
	H61	H	0.888047	0.600633	0.600377
	H62	H	0.122565	0.589809	0.418166
	H63	H	0.888231	0.400526	0.411151
	H64	H	0.421678	0.594064	0.123499
	H65	H	0.591005	0.595791	0.891309
	H66	H	0.603281	0.415350	0.124509
	H67	H	0.408166	0.404655	0.890511
	H68	H	0.597517	0.113120	0.424454
	H69	H	0.605073	0.880689	0.599321
	H70	H	0.415270	0.113495	0.597920
	H71	H	0.415608	0.882860	0.415895
	H72	H	0.905487	0.617735	0.105362
	H73	H	0.096894	0.383919	0.097171
	H74	H	0.101326	0.616179	0.914774
	H75	H	0.915770	0.379992	0.907754
	H76	H	0.090400	0.905413	0.623146
	H77	H	0.095418	0.086191	0.393224
	H78	H	0.921757	0.096125	0.625150
	H79	H	0.909149	0.909679	0.391483
	H80	H	0.623850	0.085665	0.910897
	H81	H	0.391036	0.100996	0.090911
	H82	H	0.626934	0.903452	0.107806
	H83	H	0.395007	0.913600	0.918973
	H84	H	0.624701	0.899601	0.097247
	H85	H	0.395423	0.079409	0.098801
	H86	H	0.626447	0.098997	0.913742
	H87	H	0.386523	0.902250	0.899659
	H88	H	0.906173	0.099531	0.629571
	H89	H	0.097264	0.096449	0.390037
	H90	H	0.105957	0.899593	0.629782
	H91	H	0.918373	0.904888	0.392788
	H92	H	0.096676	0.614700	0.917461
	H93	H	0.104596	0.380413	0.100228
	H94	H	0.918746	0.615117	0.108223
	H95	H	0.914872	0.383998	0.919351
	H96	H	0.408187	0.116648	0.601263
	H97	H	0.597465	0.881816	0.603467
	H98	H	0.607325	0.118589	0.415350
	H99	H	0.407715	0.880315	0.416081
	H100	H	0.590651	0.405720	0.123995
	H101	H	0.608988	0.593251	0.886800
	H102	H	0.408230	0.599777	0.129633
	H103	H	0.413474	0.407810	0.892671
	H104	H	0.122754	0.591270	0.414513
	H105	H	0.893328	0.588145	0.596877
	H106	H	0.124271	0.405978	0.605665
	H107	H	0.890635	0.402794	0.418250
	H108	H	0.913072	0.613327	0.095155
	H109	H	0.097569	0.380325	0.105154
	H110	H	0.101749	0.615014	0.920521
	H111	H	0.904786	0.378822	0.914142
	H112	H	0.104376	0.916306	0.624700
	H113	H	0.104850	0.089036	0.389484
	H114	H	0.910179	0.084553	0.623636
	H115	H	0.910856	0.900020	0.388980
	H116	H	0.621254	0.090954	0.923312
	H117	H	0.386149	0.095314	0.113076
	H118	H	0.622147	0.911094	0.100342
	H119	H	0.389173	0.890734	0.920566
	C120	C	0.384749	0.006534	0.629677
	C121	C	0.628248	0.990580	0.629756
	C122	C	0.627737	0.007115	0.387373
	C123	C	0.384038	0.990121	0.386394
	C124	C	0.627319	0.377664	0.016858
	C125	C	0.627940	0.619154	0.999961
	C126	C	0.385116	0.620038	0.017157
	C127	C	0.384323	0.376693	1.000562
	C128	C	0.015072	0.619502	0.387585
	C129	C	0.997807	0.621425	0.631079
	C130	C	0.014731	0.377636	0.629484
	C131	C	0.998200	0.375785	0.385987
	C132	C	0.884454	0.506539	0.130548
	C133	C	0.127839	0.490218	0.130613
	C134	C	0.127541	0.506693	0.887809
	C135	C	0.884045	0.489783	0.886640
	C136	C	0.127629	0.877563	0.517433
	C137	C	0.127395	0.120119	0.499884
	C138	C	0.884920	0.120411	0.516767
	C139	C	0.884789	0.877615	0.499881
	C140	C	0.515560	0.119316	0.887643
	C141	C	0.498826	0.120948	0.130564
	C142	C	0.515667	0.877279	0.128995
	C143	C	0.498737	0.874641	0.885130
	C144	C	0.388986	0.882397	0.682254
	C145	C	0.624674	0.114128	0.685733
	C146	C	0.624135	0.883142	0.332393
	C147	C	0.387760	0.113603	0.332408
	C148	C	0.682216	0.378259	0.893211
	C149	C	0.682494	0.617295	0.124187
	C150	C	0.329729	0.615850	0.893388
	C151	C	0.329955	0.379516	0.124680
	C152	C	0.891730	0.673797	0.390048
	C153	C	0.121102	0.676718	0.629395
	C154	C	0.891567	0.322989	0.626411
	C155	C	0.121294	0.321165	0.389026
	C156	C	0.891252	0.380796	0.683160
	C157	C	0.121035	0.618498	0.686587
	C158	C	0.891702	0.616049	0.332628
	C159	C	0.121344	0.379080	0.331496
	C160	C	0.388430	0.672222	0.892301
	C161	C	0.625044	0.674496	0.124180
	C162	C	0.623167	0.322585	0.892681
	C163	C	0.387733	0.322375	0.124540
	C164	C	0.683015	0.883925	0.388220
	C165	C	0.683412	0.114068	0.629550
	C166	C	0.329927	0.882864	0.625952
	C167	C	0.330061	0.113702	0.389912
	C168	C	0.888244	0.382559	0.183769
	C169	C	0.124683	0.614133	0.185823
	C170	C	0.123993	0.382747	0.831586
	C171	C	0.888280	0.613896	0.833712
	C172	C	0.181796	0.878490	0.393149
	C173	C	0.183169	0.119180	0.623437
	C174	C	0.830035	0.116676	0.392918
	C175	C	0.830359	0.881147	0.624130
	C176	C	0.392247	0.173797	0.889566
	C177	C	0.621568	0.176513	0.129143
	C178	C	0.392153	0.823373	0.125292
	C179	C	0.621914	0.820368	0.888101
	C180	C	0.392149	0.881237	0.182387
	C181	C	0.621485	0.118809	0.186693
	C182	C	0.391791	0.115235	0.833059
	C183	C	0.622038	0.878632	0.831354
	C184	C	0.888021	0.173554	0.392487
	C185	C	0.124932	0.175723	0.623933
	C186	C	0.124033	0.821592	0.393287
	C187	C	0.887689	0.823616	0.624152
	C188	C	0.182578	0.382786	0.888241
	C189	C	0.183043	0.613820	0.129353
	C190	C	0.829829	0.383024	0.126885
	C191	C	0.830282	0.613856	0.890705
	C192	C	0.406633	0.092972	0.608371
	C193	C	0.606335	0.904387	0.606334
	C194	C	0.606077	0.093490	0.410299
	C195	C	0.405167	0.903482	0.407363
	C196	C	0.605705	0.400404	0.103644
	C197	C	0.606212	0.596468	0.913339
	C198	C	0.406771	0.599356	0.103615
	C199	C	0.405594	0.398116	0.913871
	C200	C	0.100905	0.597725	0.409886
	C201	C	0.912096	0.599600	0.608894
	C202	C	0.100839	0.399479	0.607907
	C203	C	0.912042	0.397432	0.407622
	C204	C	0.906134	0.593226	0.109295
	C205	C	0.106101	0.403863	0.107525
	C206	C	0.106150	0.592685	0.910684
	C207	C	0.905461	0.403340	0.907478
	C208	C	0.106588	0.900374	0.603612
	C209	C	0.105489	0.097258	0.413280
	C210	C	0.906471	0.099574	0.603753
	C211	C	0.906384	0.898686	0.413429
	C212	C	0.601468	0.098101	0.909508
	C213	C	0.413063	0.098360	0.107639
	C214	C	0.602177	0.898403	0.107954
	C215	C	0.412469	0.895892	0.906657
	Zn216	Zn	0.506966	-0.002087	0.758389
	Zn217	Zn	0.506889	-0.001696	0.258146
	Zn218	Zn	0.756080	0.498143	0.008454
	Zn219	Zn	0.256100	0.497944	0.009629
	Zn220	Zn	0.006129	0.749297	0.508751
	Zn221	Zn	0.006136	0.248367	0.508395
	Zn222	Zn	0.006236	0.498588	0.758621
	Zn223	Zn	0.006522	0.498370	0.258619
	Zn224	Zn	0.507389	0.747820	0.007973
	Zn225	Zn	0.506873	0.248954	0.008832
	Zn226	Zn	0.756452	-0.000956	0.508623
	Zn227	Zn	0.255767	-0.001249	0.507954
	N228	N	0.422190	0.960202	0.684731
	N229	N	0.591365	0.036195	0.686084
	N230	N	0.590399	0.960736	0.331734
	N231	N	0.420916	0.035714	0.330339
	N232	N	0.684773	0.411861	0.971524
	N233	N	0.684430	0.583617	0.045972
	N234	N	0.327304	0.584040	0.971795
	N235	N	0.327856	0.412645	0.046698
	N236	N	0.969378	0.676106	0.423571
	N237	N	0.043626	0.678710	0.595592
	N238	N	0.969345	0.320779	0.593831
	N239	N	0.043639	0.319059	0.421921
	N240	N	0.968748	0.414358	0.684953
	N241	N	0.043508	0.585136	0.687972
	N242	N	0.969203	0.582984	0.331226
	N243	N	0.043723	0.412278	0.329477
	N244	N	0.422245	0.674986	0.970297
	N245	N	0.591923	0.675804	0.045873
	N246	N	0.589739	0.322287	0.970669
	N247	N	0.420585	0.320445	0.046275
	N248	N	0.685328	0.962044	0.421890
	N249	N	0.685820	0.036198	0.595361
	N250	N	0.327133	0.961247	0.594012
	N251	N	0.327628	0.035845	0.422629
	N252	N	0.921316	0.460602	0.186219
	N253	N	0.091416	0.536295	0.186885
	N254	N	0.090633	0.460722	0.830844
	N255	N	0.920987	0.536027	0.831066
	N256	N	0.184082	0.912758	0.471186
	N257	N	0.184621	0.084912	0.545356
	N258	N	0.828144	0.084378	0.471262
	N259	N	0.828321	0.913788	0.546028
	N260	N	0.469865	0.176425	0.922854
	N261	N	0.544144	0.177967	0.095021
	N262	N	0.469956	0.820799	0.092739
	N263	N	0.544103	0.817488	0.920617
	N264	N	0.470065	0.913807	0.184866
	N265	N	0.544008	0.085099	0.187712
	N266	N	0.469425	0.082056	0.831544
	N267	N	0.544413	0.911688	0.829481
	N268	N	0.921260	0.176003	0.470635
	N269	N	0.091292	0.176635	0.545997
	N270	N	0.090816	0.821180	0.471254
	N271	N	0.920981	0.821338	0.546039
	N272	N	0.184714	0.460517	0.922725
	N273	N	0.184942	0.535681	0.095436
	N274	N	0.827753	0.460952	0.094363
	N275	N	0.827401	0.535466	0.922789
	O276	O	0.538260	0.502883	0.514586
	H277	H	0.542918	0.509795	0.512087
	H278	H	0.548667	0.499384	0.509058
	O279	O	-0.480363	0.517555	-0.504472
	H280	H	-0.483334	0.522492	-0.502413
	H281	H	-0.478108	0.518046	-0.506859
	O282	O	0.562193	0.512467	0.550681
	H283	H	0.560509	0.513658	0.555397
	H284	H	0.574423	0.508553	0.551501
	O285	O	0.586030	0.483114	0.502044
	H286	H	0.574766	0.484903	0.500711
	H287	H	0.581369	0.481483	0.510402
	O288	O	1.064075	0.036193	-0.012083
	H289	H	1.068532	0.036282	-0.014053
	H290	H	1.072074	0.044745	-0.021157
	O291	O	-0.899863	1.016880	-1.006346
	H292	H	-0.898875	1.028550	-1.005000
	H293	H	-0.908911	1.018913	-1.007052
	O294	O	0.622362	0.525202	0.530612
	H295	H	0.625722	0.524180	0.537489
	H296	H	0.630994	0.527594	0.528061
	O297	O	0.086625	0.979763	0.017734
	H298	H	0.084108	0.971325	0.008510
	H299	H	0.087023	0.978937	0.024890
	O300	O	1.103241	0.027482	1.019324
	H301	H	1.111907	0.024145	1.027344
	H302	H	1.110919	0.038883	1.015889
	O303	O	0.542486	0.490746	0.534633
	H304	H	0.538877	0.495803	0.533361
	H305	H	0.537665	0.487429	0.539199
	O306	O	0.102153	1.024677	1.011253
	H307	H	0.098791	1.016010	1.006203
	H308	H	0.102775	1.015885	1.023087
	O309	O	0.561259	0.490209	0.510273
	H310	H	0.558425	0.493343	0.507539
	H311	H	0.568909	0.486702	0.509151
