data_Molecule from HDF5

_cell_length_a		16.193881
_cell_length_b		16.334271
_cell_length_c		16.230285
_cell_angle_alpha	90.126765
_cell_angle_beta	90.022152
_cell_angle_gamma	90.010174
_symmetry_space_group_name_H-M	'P 1'
_symmetry_Int_Tables_number		1

loop_
	_symmetry_equiv_pos_as_xyz
	x,y,z

loop_
	_atom_site_label
	_atom_site_type_symbol
	_atom_site_fract_x
	_atom_site_fract_y
	_atom_site_fract_z
	H0	H	0.392875	0.830645	0.722188
	H1	H	0.588126	0.157753	0.723548
	H2	H	0.590740	0.830841	0.291881
	H3	H	0.392545	0.157168	0.294720
	H4	H	0.702688	0.397082	0.843628
	H5	H	0.704477	0.591633	0.172335
	H6	H	0.277194	0.590543	0.843612
	H7	H	0.275981	0.396854	0.172505
	H8	H	0.826633	0.708784	0.409373
	H9	H	0.154368	0.708389	0.608652
	H10	H	0.826687	0.277817	0.608406
	H11	H	0.154122	0.278876	0.408203
	H12	H	0.825401	0.395879	0.721325
	H13	H	0.154590	0.591182	0.722693
	H14	H	0.825435	0.591057	0.296153
	H15	H	0.155160	0.396405	0.295552
	H16	H	0.391019	0.708794	0.845142
	H17	H	0.591665	0.710066	0.171996
	H18	H	0.589958	0.277970	0.845199
	H19	H	0.388840	0.278217	0.171907
	H20	H	0.703257	0.829834	0.411646
	H21	H	0.705289	0.157533	0.607449
	H22	H	0.276416	0.831309	0.607153
	H23	H	0.275879	0.157053	0.410937
	H24	H	0.891018	0.329845	0.223273
	H25	H	0.088531	0.657048	0.223459
	H26	H	0.089283	0.330800	0.793608
	H27	H	0.892416	0.657033	0.794883
	H28	H	0.203405	0.897285	0.344077
	H29	H	0.203868	0.091968	0.673636
	H30	H	0.776464	0.090586	0.344583
	H31	H	0.777195	0.897033	0.673517
	H32	H	0.326235	0.207626	0.910470
	H33	H	0.654283	0.209272	0.108951
	H34	H	0.326361	0.779604	0.107784
	H35	H	0.654739	0.778961	0.908754
	H36	H	0.325525	0.896724	0.221437
	H37	H	0.655469	0.090874	0.221490
	H38	H	0.325501	0.090674	0.796501
	H39	H	0.655770	0.897124	0.795984
	H40	H	0.891325	0.207644	0.345080
	H41	H	0.090487	0.210172	0.672338
	H42	H	0.091216	0.777951	0.345413
	H43	H	0.891438	0.779686	0.672930
	H44	H	0.204635	0.330972	0.910052
	H45	H	0.204307	0.657312	0.106953
	H46	H	0.774507	0.330631	0.106829
	H47	H	0.776653	0.657531	0.911490
	H48	H	0.407030	0.108626	0.605028
	H49	H	0.595416	0.872724	0.607956
	H50	H	0.576235	0.108394	0.414523
	H51	H	0.401313	0.878069	0.413592
	H52	H	0.576396	0.398153	0.124675
	H53	H	0.579363	0.591388	0.890931
	H54	H	0.400721	0.579665	0.122671
	H55	H	0.391245	0.393820	0.887855
	H56	H	0.109550	0.596371	0.419944
	H57	H	0.870460	0.595561	0.602164
	H58	H	0.109719	0.401710	0.607499
	H59	H	0.875085	0.398350	0.423384
	H60	H	0.108126	0.394432	0.596645
	H61	H	0.874017	0.585676	0.596882
	H62	H	0.103190	0.580074	0.424066
	H63	H	0.874349	0.407231	0.413977
	H64	H	0.403492	0.594277	0.125655
	H65	H	0.587744	0.587312	0.889343
	H66	H	0.587977	0.398138	0.128092
	H67	H	0.395878	0.409222	0.893472
	H68	H	0.586585	0.109061	0.422901
	H69	H	0.573423	0.878926	0.609830
	H70	H	0.394736	0.108946	0.593977
	H71	H	0.396568	0.878292	0.418822
	H72	H	0.897216	0.608862	0.099803
	H73	H	0.081922	0.377155	0.102311
	H74	H	0.085719	0.612186	0.911313
	H75	H	0.892664	0.376718	0.918428
	H76	H	0.081536	0.895379	0.626331
	H77	H	0.088663	0.086290	0.390638
	H78	H	0.898146	0.081141	0.624024
	H79	H	0.900704	0.899500	0.392489
	H80	H	0.606546	0.085826	0.923379
	H81	H	0.373745	0.086264	0.102729
	H82	H	0.606919	0.899728	0.098081
	H83	H	0.371152	0.902455	0.906462
	H84	H	0.607294	0.904191	0.100985
	H85	H	0.372115	0.088382	0.103887
	H86	H	0.607688	0.082340	0.910681
	H87	H	0.371419	0.891455	0.919449
	H88	H	0.903886	0.090896	0.625170
	H89	H	0.081138	0.082165	0.393848
	H90	H	0.088127	0.900899	0.627513
	H91	H	0.896184	0.895894	0.390125
	H92	H	0.079705	0.609214	0.915503
	H93	H	0.084145	0.377570	0.100675
	H94	H	0.895220	0.610991	0.103655
	H95	H	0.896007	0.375768	0.910067
	H96	H	0.391358	0.114364	0.609733
	H97	H	0.584337	0.881610	0.590017
	H98	H	0.588244	0.112317	0.410098
	H99	H	0.394519	0.875908	0.412449
	H100	H	0.582721	0.408176	0.123437
	H101	H	0.580315	0.582815	0.893253
	H102	H	0.389503	0.588415	0.128130
	H103	H	0.407064	0.396503	0.893590
	H104	H	0.109972	0.583199	0.406806
	H105	H	0.871562	0.585430	0.608013
	H106	H	0.103875	0.406942	0.597040
	H107	H	0.869932	0.395148	0.411681
	H108	H	0.899570	0.609025	0.104030
	H109	H	0.085160	0.376004	0.103467
	H110	H	0.086478	0.609909	0.918699
	H111	H	0.901038	0.379362	0.916874
	H112	H	0.080689	0.903473	0.623968
	H113	H	0.080694	0.091111	0.391425
	H114	H	0.893051	0.089689	0.628726
	H115	H	0.895094	0.901193	0.392021
	H116	H	0.610669	0.095140	0.914645
	H117	H	0.372353	0.088869	0.101064
	H118	H	0.609353	0.899297	0.103193
	H119	H	0.376989	0.907297	0.921731
	C120	C	0.369229	0.002622	0.630992
	C121	C	0.612742	0.985665	0.631392
	C122	C	0.612182	0.002000	0.386995
	C123	C	0.369002	0.985262	0.386751
	C124	C	0.611297	0.372624	0.017014
	C125	C	0.611304	0.615363	0.999785
	C126	C	0.369024	0.615561	0.016937
	C127	C	0.368950	0.371907	1.000069
	C128	C	-0.000999	0.614775	0.388132
	C129	C	0.981374	0.615718	0.630259
	C130	C	-0.001374	0.371999	0.629751
	C131	C	0.981879	0.371875	0.387496
	C132	C	0.868513	0.501656	0.130751
	C133	C	0.111982	0.485140	0.130543
	C134	C	0.112057	0.502280	0.886937
	C135	C	0.868357	0.485224	0.886783
	C136	C	0.112296	0.871882	0.517328
	C137	C	0.112415	0.115621	0.500309
	C138	C	0.869320	0.115112	0.517571
	C139	C	0.869308	0.871849	0.500485
	C140	C	0.499207	0.115407	0.888177
	C141	C	0.481623	0.116165	0.130776
	C142	C	0.498903	0.872732	0.129641
	C143	C	0.481990	0.872202	0.886869
	C144	C	0.372131	0.879539	0.685023
	C145	C	0.609742	0.108773	0.686117
	C146	C	0.610055	0.879370	0.330875
	C147	C	0.372127	0.108504	0.332764
	C148	C	0.665656	0.375766	0.893020
	C149	C	0.666859	0.612651	0.123430
	C150	C	0.314409	0.611750	0.892957
	C151	C	0.313763	0.375750	0.123601
	C152	C	0.875370	0.670302	0.389643
	C153	C	0.105524	0.670158	0.628256
	C154	C	0.875298	0.316483	0.627974
	C155	C	0.105230	0.316736	0.388873
	C156	C	0.874830	0.374929	0.684503
	C157	C	0.105690	0.611753	0.684732
	C158	C	0.874926	0.611881	0.333382
	C159	C	0.105742	0.375315	0.332635
	C160	C	0.370763	0.670555	0.893654
	C161	C	0.610493	0.671242	0.123261
	C162	C	0.609613	0.316773	0.893776
	C163	C	0.369507	0.316535	0.123173
	C164	C	0.666281	0.878777	0.390090
	C165	C	0.667629	0.108588	0.628412
	C166	C	0.314549	0.879699	0.627619
	C167	C	0.313834	0.108331	0.390131
	C168	C	0.870697	0.378781	0.185447
	C169	C	0.109246	0.608098	0.185824
	C170	C	0.109380	0.379469	0.831727
	C171	C	0.871302	0.608235	0.832352
	C172	C	0.166837	0.875703	0.393695
	C173	C	0.166881	0.112999	0.624342
	C174	C	0.814407	0.111541	0.393492
	C175	C	0.814864	0.875817	0.624257
	C176	C	0.375091	0.169697	0.890538
	C177	C	0.605278	0.171341	0.128893
	C178	C	0.375449	0.817432	0.127645
	C179	C	0.605751	0.817094	0.888688
	C180	C	0.374974	0.875725	0.184069
	C181	C	0.606023	0.112405	0.184783
	C182	C	0.374913	0.111906	0.833623
	C183	C	0.606152	0.875449	0.832428
	C184	C	0.871241	0.169751	0.393890
	C185	C	0.110113	0.171372	0.623792
	C186	C	0.110769	0.816660	0.394043
	C187	C	0.871858	0.817866	0.624126
	C188	C	0.166746	0.379370	0.889694
	C189	C	0.166702	0.608420	0.127664
	C190	C	0.812941	0.378955	0.127579
	C191	C	0.814076	0.608564	0.890342
	C192	C	0.391270	0.088466	0.609378
	C193	C	0.590792	0.899877	0.609223
	C194	C	0.590329	0.087772	0.409316
	C195	C	0.390993	0.899509	0.408416
	C196	C	0.589019	0.395027	0.103096
	C197	C	0.589029	0.593794	0.913635
	C198	C	0.391278	0.593780	0.103286
	C199	C	0.391403	0.393546	0.913838
	C200	C	0.085240	0.592777	0.410270
	C201	C	0.894486	0.594981	0.608767
	C202	C	0.085080	0.394469	0.607263
	C203	C	0.895341	0.393665	0.409863
	C204	C	0.890677	0.587533	0.108879
	C205	C	0.090276	0.399000	0.108636
	C206	C	0.090246	0.588333	0.908686
	C207	C	0.890123	0.399493	0.908586
	C208	C	0.090043	0.893476	0.603709
	C209	C	0.089999	0.093130	0.414252
	C210	C	0.891752	0.093641	0.603710
	C211	C	0.890997	0.892744	0.413826
	C212	C	0.585853	0.094131	0.910007
	C213	C	0.395042	0.094297	0.108966
	C214	C	0.585659	0.894655	0.107361
	C215	C	0.395562	0.894136	0.909160
	Zn216	Zn	0.490569	-0.005962	0.759585
	Zn217	Zn	0.490633	-0.006114	0.258032
	Zn218	Zn	0.739904	0.493810	0.008714
	Zn219	Zn	0.240774	0.493957	0.008740
	Zn220	Zn	-0.009597	0.743309	0.508989
	Zn221	Zn	-0.009519	0.243726	0.508646
	Zn222	Zn	-0.009720	0.493803	0.757778
	Zn223	Zn	-0.009688	0.493191	0.259790
	Zn224	Zn	0.490670	0.743988	0.008310
	Zn225	Zn	0.490210	0.243861	0.009014
	Zn226	Zn	0.740948	-0.006355	0.508578
	Zn227	Zn	0.240635	-0.005845	0.509388
	N228	N	0.405749	0.956845	0.686821
	N229	N	0.576021	0.031514	0.687803
	N230	N	0.577351	0.957061	0.328845
	N231	N	0.405368	0.030992	0.330410
	N232	N	0.666793	0.410003	0.970624
	N233	N	0.667582	0.578588	0.045916
	N234	N	0.313410	0.578276	0.970705
	N235	N	0.313103	0.409277	0.046053
	N236	N	0.953591	0.672324	0.423143
	N237	N	0.027335	0.672533	0.595111
	N238	N	0.953330	0.314589	0.594890
	N239	N	0.027162	0.314787	0.422561
	N240	N	0.952656	0.409009	0.685517
	N241	N	0.027644	0.578700	0.686096
	N242	N	0.952602	0.578250	0.332221
	N243	N	0.027908	0.408717	0.331663
	N244	N	0.404080	0.672914	0.971661
	N245	N	0.576743	0.673048	0.045400
	N246	N	0.576375	0.314939	0.971732
	N247	N	0.403330	0.314416	0.045444
	N248	N	0.667796	0.955946	0.424372
	N249	N	0.669899	0.030909	0.595352
	N250	N	0.312725	0.957108	0.594605
	N251	N	0.312064	0.030826	0.423339
	N252	N	0.904600	0.456025	0.187280
	N253	N	0.076017	0.530561	0.187651
	N254	N	0.076202	0.457011	0.829791
	N255	N	0.904550	0.530760	0.830187
	N256	N	0.167850	0.909405	0.471526
	N257	N	0.168238	0.078858	0.546778
	N258	N	0.812931	0.078378	0.471342
	N259	N	0.813379	0.908828	0.546418
	N260	N	0.453457	0.172363	0.923393
	N261	N	0.526920	0.173661	0.096053
	N262	N	0.453732	0.815520	0.094488
	N263	N	0.527446	0.814640	0.921709
	N264	N	0.452850	0.909477	0.185366
	N265	N	0.527994	0.078872	0.186138
	N266	N	0.452930	0.078717	0.832036
	N267	N	0.528230	0.909065	0.831451
	N268	N	0.904776	0.171845	0.471826
	N269	N	0.077386	0.173437	0.545492
	N270	N	0.077702	0.813982	0.472032
	N271	N	0.904909	0.815271	0.546000
	N272	N	0.168378	0.456675	0.923426
	N273	N	0.168432	0.530940	0.094021
	N274	N	0.811364	0.456472	0.094506
	N275	N	0.812056	0.531011	0.923574
	O276	O	1.490187	0.485815	0.452843
	H277	H	1.481870	0.488007	0.460148
	H278	H	1.488659	0.483813	0.447977
	O279	O	0.467463	0.479787	0.464224
	H280	H	0.467470	0.482278	0.469795
	H281	H	0.465894	0.482827	0.468113
	O282	O	1.490821	1.476047	-0.569569
	H283	H	1.493610	1.478537	-0.578518
	H284	H	1.490266	1.475305	-0.572030
	O285	O	0.508399	0.447003	0.464970
	H286	H	0.516667	0.446417	0.462713
	H287	H	0.508451	0.443575	0.460900
