data_Molecule from HDF5

_cell_length_a		16.310137
_cell_length_b		16.253818
_cell_length_c		16.235356
_cell_angle_alpha	90.012351
_cell_angle_beta	89.965731
_cell_angle_gamma	89.922605
_symmetry_space_group_name_H-M	'P 1'
_symmetry_Int_Tables_number		1

loop_
	_symmetry_equiv_pos_as_xyz
	x,y,z

loop_
	_atom_site_label
	_atom_site_type_symbol
	_atom_site_fract_x
	_atom_site_fract_y
	_atom_site_fract_z
	H0	H	0.402037	0.835652	0.713235
	H1	H	0.596268	0.163316	0.712952
	H2	H	0.596539	0.835555	0.287514
	H3	H	0.402010	0.164473	0.287039
	H4	H	0.714921	0.401487	0.835959
	H5	H	0.713414	0.597621	0.164057
	H6	H	0.285453	0.599095	0.835955
	H7	H	0.286421	0.401839	0.163950
	H8	H	0.836404	0.715845	0.401807
	H9	H	0.163713	0.714558	0.597769
	H10	H	0.835993	0.286519	0.597220
	H11	H	0.163398	0.284607	0.401936
	H12	H	0.836691	0.402730	0.713861
	H13	H	0.163654	0.598474	0.713772
	H14	H	0.836399	0.598523	0.286058
	H15	H	0.164186	0.401549	0.286183
	H16	H	0.401701	0.714598	0.835862
	H17	H	0.596647	0.712860	0.164191
	H18	H	0.598514	0.285838	0.835691
	H19	H	0.401722	0.285167	0.164276
	H20	H	0.715065	0.836675	0.400774
	H21	H	0.714137	0.162911	0.599121
	H22	H	0.285219	0.836191	0.598510
	H23	H	0.285225	0.163840	0.401798
	H24	H	0.901522	0.335981	0.214379
	H25	H	0.096190	0.664591	0.213149
	H26	H	0.098309	0.336084	0.785862
	H27	H	0.903644	0.664684	0.787450
	H28	H	0.214345	0.902130	0.336435
	H29	H	0.213802	0.098540	0.664417
	H30	H	0.785585	0.099060	0.336663
	H31	H	0.786131	0.901522	0.664553
	H32	H	0.337506	0.215300	0.900858
	H33	H	0.663884	0.213132	0.097494
	H34	H	0.336972	0.785274	0.098341
	H35	H	0.663556	0.786430	0.902031
	H36	H	0.335677	0.902571	0.213849
	H37	H	0.662790	0.098161	0.214486
	H38	H	0.336025	0.097074	0.786970
	H39	H	0.663647	0.902421	0.785566
	H40	H	0.903707	0.213374	0.335763
	H41	H	0.097080	0.212816	0.664578
	H42	H	0.098117	0.786414	0.335976
	H43	H	0.902802	0.787239	0.664194
	H44	H	0.214795	0.336218	0.901438
	H45	H	0.214709	0.663551	0.099572
	H46	H	0.785954	0.335891	0.098367
	H47	H	0.785809	0.664215	0.902062
	H48	H	0.408097	0.113948	0.585331
	H49	H	0.594552	0.885293	0.579242
	H50	H	0.593537	0.117019	0.408731
	H51	H	0.393990	0.878026	0.401828
	H52	H	0.593886	0.414437	0.114329
	H53	H	0.596418	0.594697	0.881357
	H54	H	0.413245	0.590942	0.114128
	H55	H	0.407316	0.412541	0.884804
	H56	H	0.117492	0.587915	0.397730
	H57	H	0.883450	0.596812	0.590820
	H58	H	0.116860	0.398417	0.587371
	H59	H	0.883521	0.408333	0.403583
	H60	H	0.113214	0.414619	0.589270
	H61	H	0.884907	0.590038	0.594303
	H62	H	0.118753	0.603203	0.406487
	H63	H	0.882612	0.403377	0.406695
	H64	H	0.405083	0.598222	0.119190
	H65	H	0.593828	0.588955	0.883093
	H66	H	0.587188	0.401906	0.116111
	H67	H	0.411384	0.403077	0.883310
	H68	H	0.593722	0.117353	0.406253
	H69	H	0.605456	0.877085	0.599466
	H70	H	0.398551	0.119594	0.594805
	H71	H	0.417528	0.883927	0.398752
	H72	H	0.906731	0.622473	0.109626
	H73	H	0.105431	0.380525	0.091485
	H74	H	0.093771	0.616555	0.910249
	H75	H	0.910783	0.383629	0.905737
	H76	H	0.091384	0.903865	0.618092
	H77	H	0.106691	0.091090	0.379742
	H78	H	0.915736	0.092937	0.614746
	H79	H	0.900580	0.894748	0.376890
	H80	H	0.619135	0.096651	0.901629
	H81	H	0.381329	0.101498	0.089775
	H82	H	0.617658	0.905730	0.094172
	H83	H	0.387718	0.920523	0.905449
	H84	H	0.616072	0.905744	0.092293
	H85	H	0.387483	0.087594	0.087353
	H86	H	0.615912	0.095725	0.910949
	H87	H	0.377724	0.899801	0.895663
	H88	H	0.902350	0.102394	0.621155
	H89	H	0.086179	0.082705	0.387582
	H90	H	0.095899	0.907803	0.617309
	H91	H	0.897864	0.920271	0.384707
	H92	H	0.096577	0.618823	0.906086
	H93	H	0.088474	0.381518	0.103172
	H94	H	0.920592	0.609670	0.085654
	H95	H	0.905277	0.383623	0.910841
	H96	H	0.412002	0.117214	0.599778
	H97	H	0.581817	0.883485	0.600067
	H98	H	0.591457	0.116575	0.407370
	H99	H	0.407169	0.887685	0.419840
	H100	H	0.600792	0.403428	0.120533
	H101	H	0.590214	0.594616	0.883112
	H102	H	0.402758	0.587240	0.117067
	H103	H	0.401361	0.404868	0.880789
	H104	H	0.112687	0.588856	0.415032
	H105	H	0.881542	0.596090	0.597633
	H106	H	0.120056	0.405545	0.601957
	H107	H	0.884558	0.408040	0.408581
	H108	H	0.892226	0.618054	0.083400
	H109	H	0.087674	0.387596	0.083246
	H110	H	0.091025	0.616461	0.904735
	H111	H	0.903837	0.381355	0.904101
	H112	H	0.090746	0.909878	0.615949
	H113	H	0.088046	0.105032	0.381809
	H114	H	0.900454	0.085420	0.616954
	H115	H	0.921178	0.907785	0.387834
	H116	H	0.615521	0.088015	0.904604
	H117	H	0.381562	0.090873	0.101197
	H118	H	0.615830	0.907594	0.093967
	H119	H	0.385315	0.899933	0.919577
	C120	C	0.378001	0.008499	0.621598
	C121	C	0.621544	0.990575	0.621235
	C122	C	0.621429	0.008664	0.378409
	C123	C	0.378146	0.991645	0.378617
	C124	C	0.622022	0.378328	0.008242
	C125	C	0.621515	0.621173	0.991162
	C126	C	0.378540	0.621227	0.008276
	C127	C	0.378649	0.378434	0.991667
	C128	C	0.007990	0.621750	0.378437
	C129	C	0.991729	0.622000	0.621782
	C130	C	0.008533	0.378196	0.621317
	C131	C	0.991840	0.378000	0.377744
	C132	C	0.878381	0.507948	0.121455
	C133	C	0.121679	0.491755	0.121191
	C134	C	0.122070	0.508956	0.878376
	C135	C	0.878675	0.491500	0.878806
	C136	C	0.121391	0.878592	0.508714
	C137	C	0.121495	0.121438	0.491881
	C138	C	0.878059	0.121948	0.509192
	C139	C	0.878337	0.878970	0.491528
	C140	C	0.508950	0.121763	0.877663
	C141	C	0.491612	0.121588	0.121233
	C142	C	0.508189	0.877725	0.122188
	C143	C	0.491560	0.878333	0.878327
	C144	C	0.381021	0.884824	0.676296
	C145	C	0.617498	0.114538	0.675568
	C146	C	0.618062	0.884963	0.324030
	C147	C	0.381113	0.115449	0.324325
	C148	C	0.677092	0.380865	0.884887
	C149	C	0.676000	0.618575	0.115008
	C150	C	0.323703	0.618941	0.884865
	C151	C	0.323466	0.380734	0.114952
	C152	C	0.885117	0.677368	0.381327
	C153	C	0.114863	0.676699	0.618517
	C154	C	0.885168	0.323899	0.618379
	C155	C	0.114800	0.322915	0.381050
	C156	C	0.885292	0.381486	0.676272
	C157	C	0.114879	0.618955	0.676137
	C158	C	0.885006	0.619292	0.323752
	C159	C	0.115160	0.381066	0.323609
	C160	C	0.381550	0.676177	0.884559
	C161	C	0.618505	0.675914	0.115061
	C162	C	0.619059	0.323719	0.884723
	C163	C	0.381473	0.323390	0.115054
	C164	C	0.676621	0.885374	0.380665
	C165	C	0.675955	0.114201	0.619231
	C166	C	0.323196	0.884955	0.619026
	C167	C	0.322971	0.114947	0.381155
	C168	C	0.881239	0.384727	0.176341
	C169	C	0.118020	0.615348	0.175922
	C170	C	0.119122	0.384947	0.823800
	C171	C	0.882211	0.615522	0.824415
	C172	C	0.176395	0.881469	0.385274
	C173	C	0.176148	0.119007	0.615333
	C174	C	0.823357	0.119484	0.385460
	C175	C	0.823920	0.881640	0.615304
	C176	C	0.385669	0.176706	0.880485
	C177	C	0.614654	0.175907	0.118367
	C178	C	0.385304	0.823521	0.118825
	C179	C	0.614715	0.823571	0.880934
	C180	C	0.384997	0.881355	0.176544
	C181	C	0.614217	0.118939	0.176757
	C182	C	0.385190	0.118383	0.823478
	C183	C	0.614551	0.881138	0.823152
	C184	C	0.881898	0.176062	0.385036
	C185	C	0.118062	0.175716	0.615430
	C186	C	0.118612	0.824173	0.384846
	C187	C	0.881451	0.824351	0.615253
	C188	C	0.177271	0.385226	0.880821
	C189	C	0.176814	0.614994	0.119550
	C190	C	0.823662	0.384795	0.119032
	C191	C	0.824032	0.615323	0.881650
	C192	C	0.399728	0.094724	0.599686
	C193	C	0.600341	0.904312	0.599431
	C194	C	0.599549	0.094861	0.400842
	C195	C	0.399702	0.905466	0.400258
	C196	C	0.600220	0.400117	0.094695
	C197	C	0.599814	0.599246	0.905021
	C198	C	0.400587	0.598825	0.094573
	C199	C	0.400453	0.400250	0.905108
	C200	C	0.094140	0.599891	0.400391
	C201	C	0.905533	0.600605	0.600550
	C202	C	0.094476	0.399870	0.599477
	C203	C	0.905793	0.400068	0.399795
	C204	C	0.900104	0.594360	0.099559
	C205	C	0.099953	0.405322	0.099142
	C206	C	0.100212	0.595003	0.900482
	C207	C	0.900398	0.405075	0.900553
	C208	C	0.099140	0.900551	0.595086
	C209	C	0.099804	0.099522	0.405245
	C210	C	0.899696	0.100147	0.595376
	C211	C	0.900118	0.900921	0.405199
	C212	C	0.594627	0.100008	0.899092
	C213	C	0.405588	0.099597	0.099215
	C214	C	0.594393	0.899802	0.099926
	C215	C	0.405674	0.900281	0.900310
	Zn216	Zn	0.500040	-0.000282	0.749268
	Zn217	Zn	0.499594	0.000174	0.250072
	Zn218	Zn	0.750151	0.499969	0.000148
	Zn219	Zn	0.250180	0.500297	0.000085
	Zn220	Zn	0.000070	0.750800	0.500067
	Zn221	Zn	0.000161	0.249725	0.500228
	Zn222	Zn	0.000108	0.499873	0.750329
	Zn223	Zn	-0.000036	0.500019	0.249456
	Zn224	Zn	0.500144	0.749176	0.000106
	Zn225	Zn	0.500316	0.249998	-0.000098
	Zn226	Zn	0.749936	0.000086	0.500385
	Zn227	Zn	0.249390	0.000224	0.500423
	N228	N	0.414501	0.962417	0.677710
	N229	N	0.584284	0.036648	0.676878
	N230	N	0.584323	0.962734	0.322690
	N231	N	0.414734	0.037688	0.322582
	N232	N	0.678795	0.414297	0.962862
	N233	N	0.678269	0.585513	0.036991
	N234	N	0.321575	0.585630	0.962847
	N235	N	0.321836	0.414328	0.037117
	N236	N	0.962831	0.679016	0.414547
	N237	N	0.037157	0.678846	0.585429
	N238	N	0.962783	0.321818	0.585074
	N239	N	0.037084	0.320925	0.414028
	N240	N	0.962984	0.414764	0.678161
	N241	N	0.037385	0.585582	0.678140
	N242	N	0.962440	0.585539	0.321948
	N243	N	0.037429	0.414394	0.321383
	N244	N	0.414922	0.677543	0.962419
	N245	N	0.585150	0.677434	0.037245
	N246	N	0.585785	0.321873	0.962568
	N247	N	0.414939	0.321887	0.037219
	N248	N	0.678834	0.963271	0.413860
	N249	N	0.678517	0.036350	0.586115
	N250	N	0.321342	0.962927	0.585735
	N251	N	0.321259	0.037113	0.414521
	N252	N	0.914620	0.462461	0.177907
	N253	N	0.084574	0.537711	0.177162
	N254	N	0.085612	0.462752	0.821982
	N255	N	0.915787	0.537751	0.822901
	N256	N	0.177727	0.914754	0.463218
	N257	N	0.178302	0.085904	0.537369
	N258	N	0.820926	0.086536	0.463513
	N259	N	0.821963	0.914831	0.537349
	N260	N	0.463260	0.178835	0.913514
	N261	N	0.537178	0.177514	0.084589
	N262	N	0.463071	0.821328	0.085682
	N263	N	0.537112	0.821574	0.914608
	N264	N	0.462603	0.914350	0.178607
	N265	N	0.536742	0.085781	0.178429
	N266	N	0.462826	0.084863	0.821563
	N267	N	0.537183	0.914598	0.821519
	N268	N	0.915287	0.177679	0.462879
	N269	N	0.084849	0.177297	0.537505
	N270	N	0.085129	0.822275	0.462760
	N271	N	0.914937	0.822780	0.537379
	N272	N	0.178970	0.463091	0.914220
	N273	N	0.178864	0.537206	0.086053
	N274	N	0.821829	0.462648	0.085756
	N275	N	0.821692	0.537187	0.914511
