data_Molecule from HDF5

_cell_length_a		16.121203
_cell_length_b		16.403726
_cell_length_c		16.185789
_cell_angle_alpha	90.439156
_cell_angle_beta	90.312762
_cell_angle_gamma	89.946627
_symmetry_space_group_name_H-M	'P 1'
_symmetry_Int_Tables_number		1

loop_
	_symmetry_equiv_pos_as_xyz
	x,y,z

loop_
	_atom_site_label
	_atom_site_type_symbol
	_atom_site_fract_x
	_atom_site_fract_y
	_atom_site_fract_z
	H0	H	0.386951	0.833619	0.715375
	H1	H	0.588240	0.157566	0.720341
	H2	H	0.588521	0.835958	0.281129
	H3	H	0.385484	0.159039	0.286432
	H4	H	0.694010	0.396988	0.834791
	H5	H	0.698094	0.593929	0.164133
	H6	H	0.268371	0.594066	0.835619
	H7	H	0.271503	0.401983	0.165412
	H8	H	0.823424	0.713601	0.395110
	H9	H	0.150476	0.711634	0.602447
	H10	H	0.824227	0.279198	0.599912
	H11	H	0.149423	0.277848	0.394531
	H12	H	0.819468	0.399587	0.706036
	H13	H	0.148686	0.596688	0.717747
	H14	H	0.819560	0.591936	0.288269
	H15	H	0.149529	0.396682	0.283288
	H16	H	0.379408	0.713900	0.836841
	H17	H	0.587895	0.716206	0.162212
	H18	H	0.584675	0.277311	0.838274
	H19	H	0.381471	0.280678	0.164113
	H20	H	0.701673	0.834583	0.401380
	H21	H	0.701578	0.159028	0.602437
	H22	H	0.272391	0.833300	0.597528
	H23	H	0.268887	0.157910	0.399877
	H24	H	0.883015	0.334558	0.215282
	H25	H	0.085852	0.657373	0.219584
	H26	H	0.084275	0.334469	0.781260
	H27	H	0.880807	0.657652	0.781779
	H28	H	0.201141	0.895347	0.335277
	H29	H	0.201602	0.094567	0.664261
	H30	H	0.769817	0.095025	0.338300
	H31	H	0.773778	0.896829	0.664901
	H32	H	0.320422	0.211226	0.899416
	H33	H	0.647183	0.214858	0.105737
	H34	H	0.321521	0.780587	0.102597
	H35	H	0.646229	0.776147	0.894886
	H36	H	0.320751	0.898820	0.214435
	H37	H	0.649030	0.098296	0.216625
	H38	H	0.320652	0.093788	0.786596
	H39	H	0.649962	0.895917	0.788302
	H40	H	0.884002	0.210478	0.337733
	H41	H	0.094892	0.217974	0.661230
	H42	H	0.092378	0.775245	0.337327
	H43	H	0.885143	0.777688	0.661664
	H44	H	0.200855	0.334690	0.897095
	H45	H	0.200735	0.658107	0.102792
	H46	H	0.768141	0.333749	0.096989
	H47	H	0.765992	0.657923	0.899485
	H48	H	0.389873	0.109991	0.583602
	H49	H	0.576815	0.882526	0.593785
	H50	H	0.583967	0.115410	0.404818
	H51	H	0.399053	0.882450	0.406650
	H52	H	0.568496	0.405861	0.115542
	H53	H	0.573983	0.590500	0.881896
	H54	H	0.399744	0.581673	0.111874
	H55	H	0.392160	0.406880	0.884636
	H56	H	0.100147	0.581894	0.414413
	H57	H	0.867816	0.586794	0.591560
	H58	H	0.103627	0.407667	0.588698
	H59	H	0.868850	0.404112	0.407438
	H60	H	0.104913	0.406067	0.592783
	H61	H	0.866799	0.594133	0.589558
	H62	H	0.104576	0.584356	0.402556
	H63	H	0.866213	0.400975	0.405615
	H64	H	0.400363	0.600094	0.116998
	H65	H	0.573081	0.585926	0.882436
	H66	H	0.578437	0.397571	0.120152
	H67	H	0.397717	0.399904	0.884635
	H68	H	0.570803	0.111192	0.407640
	H69	H	0.580553	0.881205	0.589876
	H70	H	0.389649	0.116134	0.603415
	H71	H	0.393682	0.882061	0.409417
	H72	H	0.888134	0.612212	0.091015
	H73	H	0.067111	0.383671	0.091281
	H74	H	0.070682	0.610808	0.904976
	H75	H	0.892706	0.381771	0.905100
	H76	H	0.079202	0.897172	0.618111
	H77	H	0.073959	0.090877	0.383399
	H78	H	0.906988	0.093302	0.616486
	H79	H	0.893591	0.900584	0.381989
	H80	H	0.600430	0.088279	0.920079
	H81	H	0.367659	0.088278	0.088170
	H82	H	0.603484	0.900796	0.089982
	H83	H	0.364660	0.902003	0.902996
	H84	H	0.599787	0.907460	0.084499
	H85	H	0.366853	0.086927	0.095504
	H86	H	0.602356	0.082250	0.906122
	H87	H	0.367694	0.901808	0.914462
	H88	H	0.891942	0.094998	0.621946
	H89	H	0.080727	0.088145	0.381327
	H90	H	0.084025	0.908096	0.616254
	H91	H	0.893672	0.907921	0.384953
	H92	H	0.072440	0.609024	0.913581
	H93	H	0.081079	0.381491	0.083197
	H94	H	0.891360	0.611566	0.096181
	H95	H	0.882795	0.379351	0.903736
	H96	H	0.406297	0.107259	0.594973
	H97	H	0.581803	0.879458	0.595483
	H98	H	0.580973	0.110271	0.416661
	H99	H	0.394073	0.880004	0.402761
	H100	H	0.581057	0.410624	0.117174
	H101	H	0.569833	0.589061	0.883955
	H102	H	0.383334	0.589736	0.120167
	H103	H	0.388710	0.399529	0.881896
	H104	H	0.104113	0.593134	0.412175
	H105	H	0.869776	0.590065	0.584753
	H106	H	0.104637	0.402938	0.589194
	H107	H	0.869155	0.400541	0.409220
	H108	H	0.894100	0.610288	0.091693
	H109	H	0.080826	0.378045	0.097771
	H110	H	0.079347	0.612525	0.907971
	H111	H	0.889486	0.378387	0.896179
	H112	H	0.072390	0.905464	0.613015
	H113	H	0.075810	0.083519	0.384188
	H114	H	0.897268	0.081180	0.615647
	H115	H	0.900177	0.904155	0.384076
	H116	H	0.605593	0.097230	0.907977
	H117	H	0.365773	0.092561	0.092648
	H118	H	0.602473	0.909360	0.094713
	H119	H	0.368640	0.911522	0.908037
	C120	C	0.365539	0.004028	0.622163
	C121	C	0.609389	0.987690	0.624117
	C122	C	0.608949	0.005634	0.379040
	C123	C	0.364732	0.988172	0.377522
	C124	C	0.605015	0.374219	0.009323
	C125	C	0.604237	0.618297	0.990661
	C126	C	0.362724	0.619292	0.008699
	C127	C	0.362912	0.374590	0.992051
	C128	C	-0.005416	0.616115	0.378961
	C129	C	0.976472	0.619279	0.620631
	C130	C	-0.004571	0.376194	0.618772
	C131	C	0.976797	0.372936	0.376876
	C132	C	0.862276	0.504207	0.120919
	C133	C	0.105933	0.487994	0.121709
	C134	C	0.104802	0.504604	0.877681
	C135	C	0.859351	0.487158	0.874164
	C136	C	0.108655	0.873698	0.508048
	C137	C	0.108757	0.118087	0.490886
	C138	C	0.866811	0.118039	0.510182
	C139	C	0.866067	0.874705	0.491449
	C140	C	0.493900	0.117401	0.880707
	C141	C	0.475191	0.119106	0.122690
	C142	C	0.493846	0.876464	0.120626
	C143	C	0.475698	0.874825	0.879236
	C144	C	0.366849	0.882106	0.677360
	C145	C	0.608280	0.109231	0.681944
	C146	C	0.607648	0.884223	0.320773
	C147	C	0.365438	0.110284	0.323492
	C148	C	0.657849	0.376516	0.884742
	C149	C	0.660708	0.615481	0.114668
	C150	C	0.305963	0.615552	0.884942
	C151	C	0.308102	0.379529	0.116025
	C152	C	0.871787	0.673926	0.377569
	C153	C	0.100653	0.674529	0.621985
	C154	C	0.872298	0.318864	0.618185
	C155	C	0.100312	0.316817	0.376390
	C156	C	0.870122	0.378806	0.670985
	C157	C	0.099859	0.617017	0.679013
	C158	C	0.869777	0.613691	0.323920
	C159	C	0.100391	0.375836	0.320795
	C160	C	0.361387	0.675253	0.885735
	C161	C	0.605885	0.676084	0.113825
	C162	C	0.603430	0.316855	0.886587
	C163	C	0.362988	0.319565	0.115320
	C164	C	0.664282	0.883314	0.380411
	C165	C	0.664839	0.110034	0.623219
	C166	C	0.309768	0.882032	0.618666
	C167	C	0.307533	0.109580	0.380280
	C168	C	0.863032	0.382828	0.176679
	C169	C	0.105554	0.609182	0.180433
	C170	C	0.103995	0.382865	0.820124
	C171	C	0.861119	0.609041	0.819488
	C172	C	0.164051	0.875037	0.384369
	C173	C	0.165207	0.116100	0.614396
	C174	C	0.808565	0.115151	0.387105
	C175	C	0.811176	0.876590	0.615305
	C176	C	0.369818	0.172904	0.880615
	C177	C	0.598560	0.175916	0.123454
	C178	C	0.370696	0.819215	0.121614
	C179	C	0.598102	0.816206	0.877794
	C180	C	0.370232	0.878277	0.177206
	C181	C	0.599620	0.117946	0.178630
	C182	C	0.369949	0.114565	0.824285
	C183	C	0.600038	0.875598	0.824253
	C184	C	0.865480	0.172849	0.386942
	C185	C	0.111961	0.177432	0.612781
	C186	C	0.109814	0.815414	0.385549
	C187	C	0.866473	0.817200	0.613694
	C188	C	0.162075	0.382937	0.877781
	C189	C	0.162832	0.609554	0.122343
	C190	C	0.806161	0.382269	0.117523
	C191	C	0.803862	0.609278	0.878234
	C192	C	0.388524	0.089204	0.600338
	C193	C	0.586468	0.902979	0.600121
	C194	C	0.585538	0.090294	0.402845
	C195	C	0.388567	0.903242	0.399668
	C196	C	0.582685	0.397758	0.095473
	C197	C	0.579545	0.595347	0.905101
	C198	C	0.387171	0.597140	0.094245
	C199	C	0.385900	0.395673	0.905978
	C200	C	0.080764	0.593253	0.402855
	C201	C	0.890526	0.597023	0.595873
	C202	C	0.081994	0.398761	0.596752
	C203	C	0.890525	0.395133	0.400488
	C204	C	0.884738	0.589257	0.099271
	C205	C	0.082925	0.403153	0.097725
	C206	C	0.081149	0.589007	0.901685
	C207	C	0.881797	0.401895	0.895385
	C208	C	0.085451	0.896842	0.593420
	C209	C	0.084145	0.094413	0.405087
	C210	C	0.891515	0.096196	0.595761
	C211	C	0.889188	0.897535	0.405918
	C212	C	0.580524	0.095545	0.904383
	C213	C	0.389096	0.096063	0.099088
	C214	C	0.579637	0.899329	0.096818
	C215	C	0.389440	0.898432	0.901964
	Zn216	Zn	0.486511	-0.004252	0.752566
	Zn217	Zn	0.486004	-0.001942	0.249063
	Zn218	Zn	0.732316	0.495982	-0.001495
	Zn219	Zn	0.234791	0.496308	-0.000018
	Zn220	Zn	-0.012580	0.745950	0.498575
	Zn221	Zn	-0.012477	0.246859	0.500131
	Zn222	Zn	-0.016281	0.495904	0.746666
	Zn223	Zn	-0.015763	0.496140	0.250832
	Zn224	Zn	0.483974	0.748270	-0.000233
	Zn225	Zn	0.483788	0.245668	0.001838
	Zn226	Zn	0.738255	-0.003501	0.501922
	Zn227	Zn	0.235980	-0.004460	0.499650
	N228	N	0.400692	0.959059	0.679649
	N229	N	0.574570	0.032229	0.682760
	N230	N	0.574146	0.961473	0.319595
	N231	N	0.400188	0.033836	0.321599
	N232	N	0.658933	0.411579	0.962145
	N233	N	0.659945	0.580323	0.037131
	N234	N	0.306556	0.581352	0.962218
	N235	N	0.307788	0.413062	0.038384
	N236	N	0.950381	0.675548	0.411019
	N237	N	0.022961	0.676053	0.586408
	N238	N	0.951200	0.317109	0.586402
	N239	N	0.022388	0.314761	0.410327
	N240	N	0.947787	0.413706	0.671636
	N241	N	0.021673	0.583519	0.678483
	N242	N	0.947270	0.578585	0.324617
	N243	N	0.022323	0.409997	0.320833
	N244	N	0.395833	0.677615	0.963705
	N245	N	0.571738	0.678053	0.035830
	N246	N	0.571396	0.315262	0.965138
	N247	N	0.396472	0.316592	0.037289
	N248	N	0.665087	0.959633	0.416004
	N249	N	0.665940	0.033439	0.588094
	N250	N	0.308586	0.958949	0.585248
	N251	N	0.306827	0.032383	0.413080
	N252	N	0.897172	0.459603	0.178903
	N253	N	0.070915	0.532591	0.180206
	N254	N	0.069179	0.459304	0.819824
	N255	N	0.894937	0.532081	0.816772
	N256	N	0.163607	0.910957	0.461292
	N257	N	0.163229	0.079667	0.537419
	N258	N	0.809417	0.081468	0.464744
	N259	N	0.810583	0.911716	0.538410
	N260	N	0.447963	0.174707	0.914977
	N261	N	0.520155	0.176931	0.089390
	N262	N	0.448487	0.818007	0.087312
	N263	N	0.519733	0.815553	0.911251
	N264	N	0.447856	0.913278	0.176776
	N265	N	0.522097	0.083077	0.178210
	N266	N	0.448186	0.080846	0.824073
	N267	N	0.522863	0.911375	0.824817
	N268	N	0.900938	0.174766	0.464328
	N269	N	0.077771	0.178839	0.534748
	N270	N	0.076129	0.814188	0.463452
	N271	N	0.900108	0.816048	0.535764
	N272	N	0.162879	0.459665	0.913050
	N273	N	0.163118	0.533140	0.086469
	N274	N	0.805400	0.458768	0.083642
	N275	N	0.802474	0.532457	0.911284
	O276	O	1.008570	-0.092341	1.056839
	H277	H	1.017196	-0.086622	1.066757
	H278	H	1.003702	-0.108472	1.056950
	O279	O	0.433145	0.448701	0.556490
	H280	H	0.441513	0.445603	0.558303
	H281	H	0.433795	0.452416	0.565786
	O282	O	0.440309	0.463522	0.557282
	H283	H	0.438689	0.448544	0.549759
	H284	H	0.442321	0.474978	0.570608
	O285	O	0.446661	0.524517	0.491918
	H286	H	0.451766	0.520850	0.503904
	H287	H	0.439129	0.523970	0.493269
	O288	O	0.582382	0.478087	0.442610
	H289	H	0.592988	0.478831	0.439432
	H290	H	0.575557	0.484370	0.429546
	O291	O	-0.079054	0.153017	0.848530
	H292	H	-0.094874	0.148854	0.845455
	H293	H	-0.083848	0.169672	0.836036
	O294	O	1.006318	0.961221	0.021126
	H295	H	1.011805	0.963133	0.033418
	H296	H	1.004474	0.951719	0.028739
	O297	O	0.974712	0.862291	0.092461
	H298	H	0.977366	0.869341	0.081182
	H299	H	0.989736	0.861723	0.086574
	O300	O	0.441565	0.585297	0.433148
	H301	H	0.439353	0.574103	0.432449
	H302	H	0.448381	0.587086	0.436492
	O303	O	0.428342	0.503310	0.465268
	H304	H	0.417957	0.514748	0.471056
	H305	H	0.431056	0.509337	0.471244
	O306	O	1.026046	1.061868	0.989372
	H307	H	1.027843	1.037921	0.991871
	H308	H	1.019762	1.062453	0.985499
	O309	O	0.450171	0.575405	0.439551
	H310	H	0.437188	0.577907	0.438415
	H311	H	0.436743	0.586405	0.432093
	O312	O	0.996882	0.963348	0.845319
	H313	H	0.988428	0.976823	0.833384
	H314	H	0.987572	0.956537	0.837061
	O315	O	1.110502	0.829245	-0.172441
	H316	H	1.087264	0.824579	-0.181404
	H317	H	1.113247	0.850908	-0.183528
	O318	O	0.488499	0.667727	0.527162
	H319	H	0.480675	0.660091	0.531037
	H320	H	0.477874	0.680018	0.517003
	O321	O	0.449137	0.470449	0.514817
	H322	H	0.458706	0.474517	0.500698
	H323	H	0.447551	0.472579	0.521188
	O324	O	-0.112713	0.991591	0.993538
	H325	H	-0.112311	0.990579	0.998980
	H326	H	-0.110670	1.002678	1.003171
	O327	O	0.006924	1.117331	1.089692
	H328	H	0.003531	1.106699	1.100227
	H329	H	0.024010	1.123694	1.082699
	O330	O	0.180018	-0.176053	-0.060532
	H331	H	0.184382	-0.176822	-0.089625
	H332	H	0.186071	-0.177311	-0.067970
	O333	O	0.508817	0.404703	0.537306
	H334	H	0.515768	0.403457	0.525168
	H335	H	0.499943	0.409802	0.540788
	O336	O	0.076859	0.116948	0.069545
	H337	H	0.072275	0.118201	0.075039
	H338	H	0.081228	0.124085	0.091978
	O339	O	0.069650	0.155364	0.054079
	H340	H	0.074699	0.158869	0.049069
	H341	H	0.064653	0.150354	0.043677
	O342	O	0.539849	0.536117	0.508547
	H343	H	0.530279	0.523921	0.506994
	H344	H	0.546249	0.527009	0.500737
	O345	O	-0.046953	0.945300	1.049505
	H346	H	-0.038341	0.942297	1.035463
	H347	H	-0.049445	0.950936	1.055138
	O348	O	0.590805	0.489611	0.548830
	H349	H	0.599484	0.498061	0.551109
	H350	H	0.596645	0.482241	0.545631
	O351	O	0.455935	0.530023	0.565656
	H352	H	0.460802	0.529451	0.556952
	H353	H	0.442041	0.529278	0.585940
	O354	O	0.505842	0.442255	0.457832
	H355	H	0.516167	0.447577	0.472490
	H356	H	0.494267	0.429041	0.460197
	O357	O	0.988975	0.982077	0.028756
	H358	H	0.984196	0.970520	0.044436
	H359	H	1.011083	0.977607	0.031458
	O360	O	0.819816	0.007251	1.055700
	H361	H	0.825293	0.021592	1.056624
	H362	H	0.810282	-0.000626	1.063271
	O363	O	0.450643	0.477209	0.532294
	H364	H	0.453927	0.477298	0.534965
	H365	H	0.467598	0.470904	0.531597
	O366	O	0.851782	1.111959	-0.044148
	H367	H	0.848779	1.115363	-0.026402
	H368	H	0.854092	1.106835	-0.046570
	O369	O	0.889842	-0.010377	0.007022
	H370	H	0.897441	-0.019540	0.009671
	H371	H	0.880785	-0.007368	0.002319
	O372	O	0.545007	0.414510	0.470826
	H373	H	0.541713	0.412050	0.469810
	H374	H	0.539342	0.412813	0.474454
	O375	O	0.950093	-0.150816	1.041549
	H376	H	0.956865	-0.151274	1.044508
	H377	H	0.951442	-0.155337	1.041164
	O378	O	-0.083754	0.969549	0.023649
	H379	H	-0.096396	0.961191	0.032816
	H380	H	-0.080343	0.957743	0.023676
	O381	O	0.518515	0.574788	0.593189
	H382	H	0.526102	0.583310	0.582742
	H383	H	0.525447	0.572677	0.602861
	O384	O	0.881688	0.985129	-0.055759
	H385	H	0.882649	0.982430	-0.049629
	H386	H	0.870386	0.983750	-0.053572
	O387	O	1.062327	-0.006117	1.085208
	H388	H	1.067487	-0.001530	1.091171
	H389	H	1.070391	0.004951	1.068480
	O390	O	1.083056	1.109291	-0.044124
	H391	H	1.072730	1.115341	-0.033992
	H392	H	1.078115	1.118139	-0.055989
	O393	O	0.449293	0.474952	0.440873
	H394	H	0.444241	0.480114	0.434253
	H395	H	0.445576	0.476949	0.426214
