data_Molecule from HDF5

_cell_length_a		16.436064
_cell_length_b		16.375676
_cell_length_c		16.453837
_cell_angle_alpha	90.149923
_cell_angle_beta	89.983434
_cell_angle_gamma	90.108200
_symmetry_space_group_name_H-M	'P 1'
_symmetry_Int_Tables_number		1

loop_
	_symmetry_equiv_pos_as_xyz
	x,y,z

loop_
	_atom_site_label
	_atom_site_type_symbol
	_atom_site_fract_x
	_atom_site_fract_y
	_atom_site_fract_z
	H0	H	0.396391	0.844860	0.716218
	H1	H	0.608454	0.162660	0.720483
	H2	H	0.609071	0.845675	0.275062
	H3	H	0.394471	0.161172	0.274500
	H4	H	0.724879	0.397539	0.840237
	H5	H	0.725350	0.611022	0.156353
	H6	H	0.283608	0.608377	0.838826
	H7	H	0.280242	0.399405	0.155434
	H8	H	0.843358	0.726893	0.391869
	H9	H	0.161371	0.725220	0.599741
	H10	H	0.843386	0.281900	0.605690
	H11	H	0.159704	0.284574	0.392992
	H12	H	0.843740	0.399414	0.720106
	H13	H	0.161383	0.610264	0.717514
	H14	H	0.844675	0.614009	0.273347
	H15	H	0.160107	0.401390	0.277253
	H16	H	0.400956	0.721874	0.838154
	H17	H	0.607724	0.726743	0.156627
	H18	H	0.608791	0.282279	0.839884
	H19	H	0.397007	0.282953	0.155132
	H20	H	0.724542	0.847191	0.390612
	H21	H	0.723615	0.163823	0.604656
	H22	H	0.282100	0.844115	0.598657
	H23	H	0.280415	0.162529	0.391916
	H24	H	0.891596	0.347846	0.224035
	H25	H	0.108442	0.662796	0.220651
	H26	H	0.109066	0.346125	0.775130
	H27	H	0.897289	0.661775	0.777420
	H28	H	0.223749	0.898030	0.339572
	H29	H	0.226476	0.113594	0.654272
	H30	H	0.776093	0.114835	0.340746
	H31	H	0.779464	0.901561	0.653936
	H32	H	0.343244	0.223254	0.896236
	H33	H	0.659983	0.228150	0.105125
	H34	H	0.344980	0.781018	0.103691
	H35	H	0.660730	0.785243	0.893119
	H36	H	0.345965	0.894902	0.221125
	H37	H	0.659149	0.113602	0.222536
	H38	H	0.343559	0.109265	0.777421
	H39	H	0.659939	0.901344	0.776212
	H40	H	0.893961	0.228362	0.340030
	H41	H	0.108256	0.227727	0.655016
	H42	H	0.108694	0.781254	0.339874
	H43	H	0.898204	0.786561	0.655377
	H44	H	0.223096	0.345642	0.893324
	H45	H	0.224692	0.662584	0.104960
	H46	H	0.777470	0.346867	0.108106
	H47	H	0.780028	0.660846	0.891733
	H48	H	0.415688	0.116522	0.586453
	H49	H	0.597648	0.888306	0.586697
	H50	H	0.589245	0.118286	0.409526
	H51	H	0.418538	0.891584	0.405977
	H52	H	0.586489	0.420653	0.107777
	H53	H	0.593082	0.588978	0.886387
	H54	H	0.413594	0.590413	0.110078
	H55	H	0.411324	0.422022	0.886849
	H56	H	0.114024	0.596930	0.414890
	H57	H	0.887339	0.594928	0.591204
	H58	H	0.115343	0.412714	0.585196
	H59	H	0.890626	0.420949	0.411444
	H60	H	0.113095	0.418819	0.584155
	H61	H	0.887857	0.597051	0.586898
	H62	H	0.112102	0.587405	0.409637
	H63	H	0.887063	0.417181	0.406856
	H64	H	0.414812	0.596019	0.111024
	H65	H	0.588762	0.594756	0.885389
	H66	H	0.588156	0.413154	0.111293
	H67	H	0.419390	0.412248	0.885823
	H68	H	0.587743	0.117581	0.408918
	H69	H	0.584541	0.891954	0.591017
	H70	H	0.409908	0.118221	0.584307
	H71	H	0.412497	0.892243	0.414417
	H72	H	0.906123	0.619907	0.085960
	H73	H	0.088326	0.391754	0.088270
	H74	H	0.089719	0.617338	0.908342
	H75	H	0.907767	0.388014	0.911842
	H76	H	0.091271	0.916022	0.610535
	H77	H	0.084723	0.086976	0.389539
	H78	H	0.908740	0.081938	0.606712
	H79	H	0.913138	0.917148	0.384120
	H80	H	0.615248	0.092677	0.907415
	H81	H	0.392287	0.088894	0.083848
	H82	H	0.612415	0.921489	0.083097
	H83	H	0.385786	0.912282	0.903075
	H84	H	0.616983	0.917548	0.091406
	H85	H	0.389294	0.091341	0.089388
	H86	H	0.616534	0.093632	0.906990
	H87	H	0.388019	0.910770	0.909648
	H88	H	0.924180	0.094797	0.606580
	H89	H	0.087553	0.101395	0.382659
	H90	H	0.091658	0.917670	0.610391
	H91	H	0.913644	0.916556	0.383879
	H92	H	0.096696	0.618607	0.910198
	H93	H	0.088901	0.392438	0.083892
	H94	H	0.921227	0.617116	0.092855
	H95	H	0.917753	0.389326	0.902454
	H96	H	0.412205	0.120008	0.589886
	H97	H	0.588698	0.894691	0.577608
	H98	H	0.588849	0.116793	0.410338
	H99	H	0.408769	0.888236	0.405797
	H100	H	0.594096	0.418664	0.110916
	H101	H	0.595363	0.595176	0.883530
	H102	H	0.409648	0.593435	0.112173
	H103	H	0.407827	0.410549	0.881335
	H104	H	0.116863	0.595951	0.404836
	H105	H	0.889495	0.592731	0.587892
	H106	H	0.115001	0.416605	0.590359
	H107	H	0.888874	0.414298	0.413019
	H108	H	0.917571	0.612417	0.077340
	H109	H	0.091890	0.390796	0.086148
	H110	H	0.094385	0.620383	0.903285
	H111	H	0.920009	0.394233	0.915489
	H112	H	0.090053	0.916326	0.609438
	H113	H	0.099013	0.090304	0.382799
	H114	H	0.906554	0.100536	0.615087
	H115	H	0.912780	0.916639	0.383398
	H116	H	0.615708	0.093525	0.908318
	H117	H	0.389851	0.095244	0.084089
	H118	H	0.616307	0.911501	0.082880
	H119	H	0.389004	0.917580	0.907219
	C120	C	0.380159	0.012851	0.618185
	C121	C	0.622589	0.996631	0.618293
	C122	C	0.622479	0.013199	0.376370
	C123	C	0.380469	0.995027	0.375611
	C124	C	0.623469	0.383196	0.006282
	C125	C	0.624673	0.625975	0.989848
	C126	C	0.381317	0.625388	0.006188
	C127	C	0.380318	0.382408	0.988942
	C128	C	0.010121	0.626683	0.376532
	C129	C	0.993557	0.626979	0.619499
	C130	C	0.010138	0.382872	0.619751
	C131	C	0.992980	0.384297	0.376871
	C132	C	0.880653	0.512733	0.120239
	C133	C	0.122836	0.496433	0.118800
	C134	C	0.125112	0.513430	0.875680
	C135	C	0.882310	0.495115	0.877959
	C136	C	0.122638	0.884087	0.505440
	C137	C	0.123533	0.126370	0.488922
	C138	C	0.879527	0.126472	0.505624
	C139	C	0.880351	0.884504	0.487929
	C140	C	0.511020	0.125703	0.876242
	C141	C	0.494271	0.125652	0.119107
	C142	C	0.511422	0.882729	0.118915
	C143	C	0.492680	0.882683	0.875364
	C144	C	0.378230	0.892731	0.676864
	C145	C	0.625840	0.115561	0.679529
	C146	C	0.626498	0.893582	0.315528
	C147	C	0.377216	0.113819	0.314814
	C148	C	0.684895	0.379590	0.887802
	C149	C	0.684744	0.628850	0.108951
	C150	C	0.322487	0.627093	0.886652
	C151	C	0.320232	0.380463	0.107685
	C152	C	0.891140	0.687283	0.373386
	C153	C	0.113485	0.686018	0.619592
	C154	C	0.891122	0.322273	0.623119
	C155	C	0.112155	0.324330	0.374578
	C156	C	0.891300	0.380777	0.680411
	C157	C	0.113532	0.628727	0.678123
	C158	C	0.891777	0.630603	0.314712
	C159	C	0.112270	0.382460	0.317008
	C160	C	0.381239	0.683403	0.886174
	C161	C	0.626307	0.686599	0.109063
	C162	C	0.626759	0.322295	0.887489
	C163	C	0.378355	0.322738	0.107915
	C164	C	0.684163	0.894350	0.372820
	C165	C	0.683589	0.115823	0.621977
	C166	C	0.321224	0.892314	0.618561
	C167	C	0.320208	0.114394	0.373181
	C168	C	0.875325	0.394844	0.183002
	C169	C	0.126378	0.615457	0.180117
	C170	C	0.127264	0.393872	0.815424
	C171	C	0.879193	0.614285	0.817578
	C172	C	0.183144	0.880711	0.386685
	C173	C	0.185282	0.130603	0.607115
	C174	C	0.817514	0.131448	0.387631
	C175	C	0.820040	0.882689	0.606841
	C176	C	0.391004	0.184659	0.876190
	C177	C	0.612433	0.187719	0.122975
	C178	C	0.392602	0.821279	0.121812
	C179	C	0.612950	0.824556	0.874339
	C180	C	0.392998	0.878324	0.180248
	C181	C	0.612057	0.130309	0.181291
	C182	C	0.391073	0.127671	0.817520
	C183	C	0.612559	0.882195	0.816135
	C184	C	0.876299	0.188187	0.387354
	C185	C	0.126321	0.187535	0.607675
	C186	C	0.125760	0.822505	0.386829
	C187	C	0.878612	0.825339	0.607407
	C188	C	0.184043	0.393535	0.874092
	C189	C	0.184292	0.615193	0.122437
	C190	C	0.818256	0.394262	0.125135
	C191	C	0.820766	0.613584	0.874443
	C192	C	0.405365	0.096394	0.593818
	C193	C	0.597408	0.913379	0.592431
	C194	C	0.596071	0.095976	0.402047
	C195	C	0.405959	0.912212	0.401369
	C196	C	0.597124	0.409793	0.088510
	C197	C	0.599744	0.600491	0.906865
	C198	C	0.405774	0.600588	0.089265
	C199	C	0.405710	0.407626	0.906217
	C200	C	0.092749	0.601028	0.402266
	C201	C	0.910142	0.602251	0.595642
	C202	C	0.093008	0.408549	0.594090
	C203	C	0.910370	0.410043	0.402704
	C204	C	0.907348	0.594925	0.093253
	C205	C	0.097061	0.413322	0.093344
	C206	C	0.100817	0.596948	0.900373
	C207	C	0.907874	0.412241	0.902842
	C208	C	0.097840	0.909523	0.588567
	C209	C	0.097760	0.100449	0.406465
	C210	C	0.905770	0.100161	0.587977
	C211	C	0.905766	0.909512	0.405223
	C212	C	0.594211	0.100734	0.900558
	C213	C	0.411774	0.099193	0.093144
	C214	C	0.593709	0.909109	0.093095
	C215	C	0.409487	0.906746	0.899787
	Zn216	Zn	0.501368	0.004626	0.746954
	Zn217	Zn	0.502494	0.003735	0.247277
	Zn218	Zn	0.752895	0.503159	-0.001301
	Zn219	Zn	0.252307	0.504646	-0.002199
	Zn220	Zn	0.001500	0.755221	0.497501
	Zn221	Zn	0.001110	0.254881	0.497769
	Zn222	Zn	0.002830	0.504671	0.747934
	Zn223	Zn	0.001934	0.505175	0.247633
	Zn224	Zn	0.502324	0.754152	-0.002649
	Zn225	Zn	0.502752	0.254135	-0.002356
	Zn226	Zn	0.750771	0.005897	0.496835
	Zn227	Zn	0.252152	0.003899	0.497202
	N228	N	0.413999	0.968722	0.676974
	N229	N	0.588391	0.040474	0.677182
	N230	N	0.588939	0.968545	0.317491
	N231	N	0.414069	0.038398	0.316098
	N232	N	0.682866	0.416833	0.962727
	N233	N	0.683922	0.592149	0.033862
	N234	N	0.322210	0.591870	0.962490
	N235	N	0.321225	0.416671	0.032519
	N236	N	0.965643	0.684906	0.411123
	N237	N	0.037928	0.685109	0.584117
	N238	N	0.966272	0.323243	0.586220
	N239	N	0.036744	0.325210	0.410872
	N240	N	0.966444	0.417536	0.678405
	N241	N	0.037700	0.592897	0.678606
	N242	N	0.966701	0.593553	0.316412
	N243	N	0.036941	0.418536	0.317968
	N244	N	0.416990	0.682606	0.961591
	N245	N	0.589872	0.685068	0.033744
	N246	N	0.589562	0.324316	0.962313
	N247	N	0.414964	0.323701	0.032892
	N248	N	0.682079	0.969841	0.409667
	N249	N	0.681559	0.040805	0.584369
	N250	N	0.322143	0.968189	0.583106
	N251	N	0.321896	0.039381	0.409957
	N252	N	0.913446	0.469611	0.180092
	N253	N	0.088750	0.540659	0.177758
	N254	N	0.091456	0.469583	0.816097
	N255	N	0.916959	0.539601	0.819554
	N256	N	0.181257	0.918387	0.461414
	N257	N	0.183939	0.093339	0.532224
	N258	N	0.819740	0.093787	0.462044
	N259	N	0.820988	0.918682	0.531473
	N260	N	0.466618	0.183662	0.911546
	N261	N	0.538138	0.184698	0.084923
	N262	N	0.467176	0.823741	0.084329
	N263	N	0.537542	0.824459	0.910258
	N264	N	0.467868	0.915543	0.178653
	N265	N	0.537441	0.092444	0.179089
	N266	N	0.466692	0.091942	0.817229
	N267	N	0.536744	0.917370	0.816459
	N268	N	0.914141	0.185309	0.461890
	N269	N	0.088659	0.185028	0.533254
	N270	N	0.088625	0.824752	0.461628
	N271	N	0.915408	0.826378	0.532527
	N272	N	0.182916	0.468923	0.910610
	N273	N	0.182167	0.540126	0.084902
	N274	N	0.821329	0.468562	0.086917
	N275	N	0.822540	0.538572	0.911235
	O276	O	0.473509	0.290294	0.715798
	H277	H	0.460157	0.298782	0.707858
	H278	H	0.471810	0.263178	0.742795
	O279	O	0.959415	-0.097718	0.790390
	H280	H	0.963912	-0.093950	0.781116
	H281	H	0.965527	-0.104366	0.800671
	O282	O	0.711835	0.295216	0.476783
	H283	H	0.731786	0.289940	0.481470
	H284	H	0.720505	0.295201	0.465005
	O285	O	0.679993	0.569808	0.432749
	H286	H	0.678039	0.603077	0.441804
	H287	H	0.661468	0.561720	0.437201
	O288	O	0.297691	0.314175	0.512618
	H289	H	0.314908	0.310129	0.508545
	H290	H	0.282903	0.299748	0.528303
	O291	O	0.293626	0.492258	0.683055
	H292	H	0.276238	0.485405	0.689565
	H293	H	0.292339	0.481640	0.676858
	O294	O	0.155257	0.009475	0.953118
	H295	H	0.150001	0.006791	0.977021
	H296	H	0.156042	-0.004608	0.970331
	O297	O	0.710493	0.467345	0.543792
	H298	H	0.711180	0.461671	0.557104
	H299	H	0.705695	0.493484	0.532694
	O300	O	0.677956	0.708384	0.558807
	H301	H	0.670418	0.722649	0.549489
	H302	H	0.690770	0.722600	0.579431
	O303	O	0.416588	0.521837	0.294866
	H304	H	0.424819	0.506591	0.293628
	H305	H	0.423551	0.522230	0.292485
	O306	O	0.708913	0.489162	0.295222
	H307	H	0.736186	0.499358	0.287037
	H308	H	0.714290	0.507522	0.308340
	O309	O	0.416084	0.311388	0.418005
	H310	H	0.440477	0.315607	0.431942
	H311	H	0.429622	0.311689	0.437263
	O312	O	-0.038257	0.881543	0.801348
	H313	H	-0.040356	0.875384	0.811958
	H314	H	-0.029213	0.868194	0.802759
	O315	O	0.316586	0.316008	0.681401
	H316	H	0.332683	0.314765	0.659765
	H317	H	0.300565	0.322571	0.701256
	O318	O	1.155390	0.130626	0.034232
	H319	H	1.144776	0.131013	0.023801
	H320	H	1.163104	0.146302	0.021042
	O321	O	-0.163656	-0.180456	-0.164694
	H322	H	-0.168700	-0.160742	-0.142603
	H323	H	-0.134297	-0.174372	-0.145146
	O324	O	0.490948	0.305378	0.378007
	H325	H	0.482901	0.300989	0.368896
	H326	H	0.490051	0.299409	0.382039
	O327	O	0.678620	0.325696	0.319298
	H328	H	0.659637	0.313118	0.339668
	H329	H	0.689023	0.377945	0.307792
	O330	O	-0.214732	0.829313	0.069687
	H331	H	-0.216226	0.834659	0.097900
	H332	H	-0.238384	0.813240	0.081911
	O333	O	0.491296	0.606807	0.358656
	H334	H	0.499714	0.603645	0.347668
	H335	H	0.493573	0.620349	0.363778
	O336	O	-0.015955	0.137761	0.010794
	H337	H	-0.021180	0.117837	-0.002396
	H338	H	-0.028905	0.154244	0.016171
	O339	O	0.213284	0.986549	0.782648
	H340	H	0.199481	0.951511	0.793210
	H341	H	0.244006	0.970645	0.753557
	O342	O	-0.130092	0.833019	1.184692
	H343	H	-0.109102	0.845073	1.193794
	H344	H	-0.108554	0.856022	1.194516
	O345	O	1.027898	1.221862	0.217290
	H346	H	1.036976	1.224206	0.211130
	H347	H	1.042722	1.246938	0.240989
	O348	O	0.428770	0.629281	0.625718
	H349	H	0.453667	0.622481	0.641827
	H350	H	0.422394	0.617714	0.629406
	O351	O	0.113693	1.054810	0.912558
	H352	H	0.125981	1.045688	0.884768
	H353	H	0.104631	1.073301	0.930024
	O354	O	0.213430	0.791873	-0.036957
	H355	H	0.212293	0.798634	-0.015491
	H356	H	0.237166	0.780229	-0.022720
	O357	O	0.122991	0.017887	1.085391
	H358	H	0.114880	0.003945	1.062089
	H359	H	0.110534	0.028025	1.094820
	O360	O	0.699629	0.702226	0.652740
	H361	H	0.707110	0.701831	0.671045
	H362	H	0.718172	0.704714	0.656542
	O363	O	-0.394391	0.395615	0.634756
	H364	H	-0.384940	0.391539	0.639803
	H365	H	-0.404252	0.388980	0.641578
	O366	O	0.069194	1.135378	-0.031438
	H367	H	0.079279	1.159261	-0.036798
	H368	H	0.088632	1.133036	-0.037411
	O369	O	0.460673	0.716974	0.326256
	H370	H	0.455521	0.732613	0.312917
	H371	H	0.429684	0.721020	0.327922
	O372	O	1.050761	-0.116675	1.096139
	H373	H	1.049300	-0.116627	1.108439
	H374	H	1.057162	-0.096039	1.099101
	O375	O	0.559980	0.718371	0.704622
	H376	H	0.581034	0.718556	0.719282
	H377	H	0.580842	0.724231	0.721250
	O378	O	1.012144	1.117270	0.913672
	H379	H	1.017198	1.106029	0.906438
	H380	H	1.016200	1.110082	0.925185
	O381	O	0.402383	0.507136	0.523720
	H382	H	0.403897	0.494325	0.509088
	H383	H	0.411839	0.511932	0.520201
	O384	O	0.956584	-0.092746	-0.039040
	H385	H	0.970037	-0.102935	-0.029697
	H386	H	0.949219	-0.106528	-0.028914
	O387	O	-0.079860	-0.205146	0.995071
	H388	H	-0.071227	-0.205729	1.006796
	H389	H	-0.099962	-0.199988	1.011857
	O390	O	0.074722	-0.179636	0.121287
	H391	H	0.070557	-0.173044	0.128887
	H392	H	0.086799	-0.173132	0.134492
	O393	O	0.932414	1.147132	1.125948
	H394	H	0.945523	1.143555	1.124721
	H395	H	0.933610	1.157223	1.125438
	O396	O	0.791215	-0.049827	0.008797
	H397	H	0.784475	-0.064293	0.022492
	H398	H	0.792113	-0.059784	0.029651
	O399	O	0.856533	0.196746	0.808025
	H400	H	0.845980	0.178030	0.792697
	H401	H	0.880961	0.200007	0.814488
	O402	O	1.182574	0.822842	0.809461
	H403	H	1.170350	0.810155	0.833439
	H404	H	1.171960	0.805635	0.822650
	O405	O	0.814294	1.026696	-0.194403
	H406	H	0.836737	1.003892	-0.188947
	H407	H	0.809022	1.025399	-0.187079
	O408	O	0.793959	0.016408	0.099777
	H409	H	0.804063	0.029010	0.089560
	H410	H	0.781804	0.017747	0.116319
	O411	O	1.369907	1.430175	0.479220
	H412	H	1.378531	1.419701	0.471645
	H413	H	1.394788	1.431716	0.484831
	O414	O	0.512522	0.415990	0.398284
	H415	H	0.531352	0.391157	0.392801
	H416	H	0.531580	0.431285	0.400985
	O417	O	0.197295	0.203578	0.195378
	H418	H	0.188236	0.190601	0.177639
	H419	H	0.214623	0.223176	0.184603
	O420	O	0.459585	0.698167	0.485435
	H421	H	0.442346	0.688583	0.490055
	H422	H	0.457576	0.706950	0.497741
	O423	O	0.694129	0.497966	0.699634
	H424	H	0.687748	0.495880	0.704904
	H425	H	0.693851	0.488633	0.698400
	O426	O	0.477653	0.578408	0.520607
	H427	H	0.455178	0.560592	0.512905
	H428	H	0.476148	0.585455	0.507883
	O429	O	0.417879	0.426740	0.322238
	H430	H	0.418341	0.433153	0.327707
	H431	H	0.435001	0.421612	0.311108
	O432	O	0.500016	0.496562	0.676978
	H433	H	0.504830	0.504320	0.676084
	H434	H	0.499217	0.507879	0.685228
	O435	O	-0.182106	0.218872	0.978646
	H436	H	-0.171039	0.196691	0.962426
	H437	H	-0.214351	0.248097	0.962669
	O438	O	0.214139	-0.025939	0.146610
	H439	H	0.215461	-0.012015	0.170182
	H440	H	0.210144	-0.028833	0.145863
	O441	O	1.042106	0.145320	-0.128956
	H442	H	1.032163	0.148526	-0.123465
	H443	H	1.037738	0.146120	-0.136832
	O444	O	-0.039439	0.947816	1.194058
	H445	H	-0.017286	0.965768	1.206676
	H446	H	-0.046103	0.955190	1.184063
	O447	O	1.011211	0.132893	1.081194
	H448	H	1.017474	0.141630	1.077402
	H449	H	1.007806	0.141175	1.068275
	O450	O	0.314798	0.691607	0.314348
	H451	H	0.320818	0.684656	0.341624
	H452	H	0.307239	0.665038	0.329695
	O453	O	0.329854	0.592461	0.418413
	H454	H	0.330345	0.569828	0.423977
	H455	H	0.331502	0.594935	0.436471
