data_Molecule from HDF5

_cell_length_a		16.246932
_cell_length_b		16.189112
_cell_length_c		16.261613
_cell_angle_alpha	89.861026
_cell_angle_beta	90.140816
_cell_angle_gamma	89.659257
_symmetry_space_group_name_H-M	'P 1'
_symmetry_Int_Tables_number		1

loop_
	_symmetry_equiv_pos_as_xyz
	x,y,z

loop_
	_atom_site_label
	_atom_site_type_symbol
	_atom_site_fract_x
	_atom_site_fract_y
	_atom_site_fract_z
	H0	H	0.403787	0.831666	0.713213
	H1	H	0.598861	0.160299	0.711094
	H2	H	0.599309	0.831705	0.285328
	H3	H	0.400526	0.160301	0.280756
	H4	H	0.717043	0.396371	0.835404
	H5	H	0.714624	0.592581	0.162245
	H6	H	0.284259	0.596881	0.834927
	H7	H	0.288371	0.396983	0.161781
	H8	H	0.837057	0.710597	0.401147
	H9	H	0.165291	0.708917	0.598340
	H10	H	0.836914	0.284438	0.595950
	H11	H	0.165269	0.280326	0.401090
	H12	H	0.837646	0.397317	0.712852
	H13	H	0.164363	0.594189	0.714360
	H14	H	0.837198	0.595882	0.283861
	H15	H	0.165862	0.395649	0.284797
	H16	H	0.402694	0.710051	0.833194
	H17	H	0.600594	0.710230	0.161177
	H18	H	0.600472	0.282662	0.834151
	H19	H	0.405639	0.282249	0.162172
	H20	H	0.715306	0.831469	0.399847
	H21	H	0.712317	0.161589	0.595018
	H22	H	0.289512	0.830903	0.597057
	H23	H	0.284673	0.160398	0.397609
	H24	H	0.905060	0.331658	0.213110
	H25	H	0.100549	0.660170	0.213394
	H26	H	0.100565	0.332409	0.785010
	H27	H	0.900335	0.659768	0.783797
	H28	H	0.216950	0.895590	0.335192
	H29	H	0.217113	0.094902	0.662261
	H30	H	0.786774	0.095547	0.333831
	H31	H	0.787583	0.898428	0.662740
	H32	H	0.338133	0.210795	0.899043
	H33	H	0.666611	0.206979	0.094705
	H34	H	0.337737	0.782714	0.095253
	H35	H	0.665629	0.780974	0.900157
	H36	H	0.338573	0.896185	0.212931
	H37	H	0.665836	0.094219	0.211573
	H38	H	0.338300	0.097215	0.782310
	H39	H	0.666075	0.896440	0.783827
	H40	H	0.901721	0.211532	0.334719
	H41	H	0.099202	0.209360	0.663279
	H42	H	0.099888	0.780818	0.335366
	H43	H	0.906104	0.784646	0.663875
	H44	H	0.216932	0.332178	0.899013
	H45	H	0.215862	0.660682	0.098196
	H46	H	0.789805	0.331274	0.098135
	H47	H	0.786676	0.660147	0.900262
	H48	H	0.409615	0.111750	0.588406
	H49	H	0.589736	0.875858	0.604692
	H50	H	0.596469	0.114131	0.404520
	H51	H	0.407354	0.877515	0.401237
	H52	H	0.597222	0.397185	0.117796
	H53	H	0.599904	0.587362	0.879504
	H54	H	0.409466	0.587836	0.114182
	H55	H	0.406476	0.399917	0.879250
	H56	H	0.117436	0.589778	0.409832
	H57	H	0.880453	0.590538	0.600408
	H58	H	0.115442	0.400669	0.582574
	H59	H	0.886466	0.404559	0.410078
	H60	H	0.117043	0.411501	0.596773
	H61	H	0.884069	0.596806	0.585323
	H62	H	0.117385	0.584033	0.404381
	H63	H	0.884635	0.408615	0.400690
	H64	H	0.409586	0.590030	0.114932
	H65	H	0.591892	0.582513	0.882728
	H66	H	0.598151	0.403151	0.115667
	H67	H	0.405324	0.406857	0.881344
	H68	H	0.594273	0.114299	0.400484
	H69	H	0.587038	0.884335	0.579675
	H70	H	0.406885	0.112774	0.587350
	H71	H	0.413795	0.880001	0.405149
	H72	H	0.911223	0.614675	0.096565
	H73	H	0.091973	0.380242	0.090362
	H74	H	0.093892	0.614266	0.904438
	H75	H	0.910887	0.376009	0.899212
	H76	H	0.103357	0.915529	0.614070
	H77	H	0.094421	0.084176	0.383012
	H78	H	0.907860	0.090859	0.615006
	H79	H	0.907884	0.900545	0.380481
	H80	H	0.622789	0.094379	0.897340
	H81	H	0.386960	0.086443	0.082512
	H82	H	0.619138	0.901290	0.090803
	H83	H	0.381674	0.898255	0.900460
	H84	H	0.619000	0.902772	0.090670
	H85	H	0.384885	0.083591	0.094105
	H86	H	0.617658	0.091452	0.910830
	H87	H	0.387011	0.903789	0.911212
	H88	H	0.904357	0.092075	0.617237
	H89	H	0.088403	0.088461	0.383750
	H90	H	0.081379	0.902749	0.611295
	H91	H	0.905690	0.904361	0.381172
	H92	H	0.089100	0.613151	0.905599
	H93	H	0.098646	0.378602	0.090311
	H94	H	0.910197	0.611670	0.087145
	H95	H	0.915111	0.381201	0.910779
	H96	H	0.408119	0.113920	0.591695
	H97	H	0.610340	0.874667	0.588319
	H98	H	0.591423	0.113606	0.404664
	H99	H	0.406789	0.880155	0.408534
	H100	H	0.593152	0.400872	0.115006
	H101	H	0.591498	0.593402	0.880280
	H102	H	0.407260	0.589451	0.114629
	H103	H	0.412400	0.403387	0.882291
	H104	H	0.120842	0.591629	0.402046
	H105	H	0.886527	0.581856	0.588888
	H106	H	0.123121	0.394149	0.598142
	H107	H	0.881704	0.398365	0.402395
	H108	H	0.902788	0.615106	0.091595
	H109	H	0.095459	0.377923	0.095398
	H110	H	0.093415	0.612343	0.909239
	H111	H	0.901749	0.377082	0.909220
	H112	H	0.101847	0.890599	0.621436
	H113	H	0.094558	0.092130	0.380560
	H114	H	0.904803	0.088116	0.615784
	H115	H	0.909415	0.905007	0.382178
	H116	H	0.617943	0.080491	0.901166
	H117	H	0.383142	0.095548	0.090560
	H118	H	0.619221	0.902320	0.092383
	H119	H	0.385724	0.911104	0.900483
	C120	C	0.380591	0.003995	0.618609
	C121	C	0.623072	0.987329	0.618906
	C122	C	0.622873	0.005080	0.376199
	C123	C	0.379391	0.987771	0.375324
	C124	C	0.624439	0.373015	0.007515
	C125	C	0.622842	0.616580	0.989200
	C126	C	0.379563	0.617984	0.006343
	C127	C	0.380122	0.374263	0.989513
	C128	C	0.009781	0.617404	0.377355
	C129	C	0.992256	0.617587	0.620674
	C130	C	0.010204	0.374393	0.620726
	C131	C	0.992699	0.373999	0.376502
	C132	C	0.880457	0.504849	0.120554
	C133	C	0.123346	0.487599	0.120435
	C134	C	0.122008	0.504812	0.877690
	C135	C	0.879603	0.486991	0.877493
	C136	C	0.123880	0.874018	0.507672
	C137	C	0.121709	0.116743	0.490798
	C138	C	0.878079	0.118580	0.506814
	C139	C	0.879821	0.875276	0.490027
	C140	C	0.510800	0.118037	0.875185
	C141	C	0.493304	0.116637	0.118186
	C142	C	0.510400	0.873970	0.119145
	C143	C	0.493297	0.874722	0.875744
	C144	C	0.383427	0.880614	0.674873
	C145	C	0.619338	0.111487	0.673023
	C146	C	0.620011	0.880873	0.322434
	C147	C	0.380545	0.111450	0.319493
	C148	C	0.679395	0.375833	0.884187
	C149	C	0.677349	0.613882	0.113190
	C150	C	0.323059	0.616685	0.883292
	C151	C	0.326102	0.376821	0.113014
	C152	C	0.886109	0.672802	0.380153
	C153	C	0.115959	0.671908	0.618575
	C154	C	0.885998	0.321448	0.616709
	C155	C	0.116473	0.318341	0.380268
	C156	C	0.886558	0.377185	0.675279
	C157	C	0.115697	0.614582	0.676067
	C158	C	0.886264	0.615681	0.322068
	C159	C	0.116636	0.375337	0.322095
	C160	C	0.381634	0.673168	0.882652
	C161	C	0.620702	0.672058	0.112461
	C162	C	0.621152	0.319752	0.883311
	C163	C	0.384422	0.319736	0.113107
	C164	C	0.677457	0.880746	0.379604
	C165	C	0.675533	0.112144	0.615341
	C166	C	0.326908	0.880065	0.617107
	C167	C	0.323106	0.111411	0.377632
	C168	C	0.884374	0.380721	0.175297
	C169	C	0.120805	0.611120	0.175695
	C170	C	0.120867	0.381293	0.822483
	C171	C	0.880661	0.610622	0.821824
	C172	C	0.178643	0.875792	0.383952
	C173	C	0.178142	0.115154	0.613748
	C174	C	0.823926	0.115981	0.383204
	C175	C	0.825661	0.878163	0.613914
	C176	C	0.387218	0.173376	0.878277
	C177	C	0.617491	0.170190	0.115511
	C178	C	0.386669	0.820030	0.116041
	C179	C	0.616880	0.818958	0.879292
	C180	C	0.387363	0.876380	0.174701
	C181	C	0.616934	0.114057	0.173721
	C182	C	0.387099	0.116232	0.820693
	C183	C	0.617080	0.876466	0.821637
	C184	C	0.880908	0.173941	0.383608
	C185	C	0.119211	0.171276	0.614371
	C186	C	0.120876	0.818678	0.384205
	C187	C	0.884222	0.821451	0.614403
	C188	C	0.178342	0.381247	0.879745
	C189	C	0.178079	0.611385	0.118298
	C190	C	0.827068	0.380563	0.118127
	C191	C	0.824228	0.610835	0.879734
	C192	C	0.401905	0.090619	0.595849
	C193	C	0.601974	0.900700	0.597261
	C194	C	0.600720	0.091782	0.397215
	C195	C	0.402444	0.901500	0.398176
	C196	C	0.602577	0.394236	0.093722
	C197	C	0.601026	0.594362	0.903318
	C198	C	0.402139	0.595677	0.092301
	C199	C	0.401622	0.396681	0.903357
	C200	C	0.096275	0.594907	0.399024
	C201	C	0.905898	0.596154	0.598048
	C202	C	0.096262	0.395744	0.598925
	C203	C	0.906769	0.397063	0.397798
	C204	C	0.901730	0.591570	0.098171
	C205	C	0.101849	0.401170	0.098513
	C206	C	0.098973	0.591161	0.899964
	C207	C	0.902478	0.400341	0.899937
	C208	C	0.102025	0.896226	0.593360
	C209	C	0.099133	0.094725	0.404877
	C210	C	0.899506	0.096757	0.593602
	C211	C	0.901237	0.896994	0.403720
	C212	C	0.597115	0.095482	0.896581
	C213	C	0.407330	0.095031	0.095790
	C214	C	0.596828	0.895562	0.097745
	C215	C	0.406934	0.897636	0.897546
	Zn216	Zn	0.502097	-0.003864	0.746841
	Zn217	Zn	0.502012	-0.003406	0.247380
	Zn218	Zn	0.751829	0.495569	-0.000913
	Zn219	Zn	0.251265	0.496260	-0.001620
	Zn220	Zn	0.001174	0.746006	0.499120
	Zn221	Zn	0.000845	0.246319	0.499037
	Zn222	Zn	0.000792	0.496052	0.748839
	Zn223	Zn	0.002192	0.496125	0.248246
	Zn224	Zn	0.501447	0.745804	-0.002603
	Zn225	Zn	0.502801	0.245338	-0.002479
	Zn226	Zn	0.750659	-0.003612	0.497984
	Zn227	Zn	0.251320	-0.004424	0.498349
	N228	N	0.416312	0.958783	0.675762
	N229	N	0.587458	0.032910	0.675461
	N230	N	0.586575	0.959191	0.320305
	N231	N	0.414972	0.033708	0.318171
	N232	N	0.681432	0.408628	0.962178
	N233	N	0.678685	0.579893	0.035721
	N234	N	0.321518	0.583134	0.961222
	N235	N	0.323157	0.409760	0.035030
	N236	N	0.963868	0.674095	0.413623
	N237	N	0.038168	0.673783	0.584830
	N238	N	0.963867	0.319356	0.583659
	N239	N	0.038397	0.317061	0.413132
	N240	N	0.964626	0.409769	0.677815
	N241	N	0.037830	0.581692	0.677539
	N242	N	0.964484	0.582064	0.320153
	N243	N	0.038988	0.409358	0.319767
	N244	N	0.416229	0.673839	0.959956
	N245	N	0.587544	0.673868	0.034575
	N246	N	0.587773	0.317580	0.960985
	N247	N	0.417341	0.317951	0.035144
	N248	N	0.679459	0.959157	0.411994
	N249	N	0.677883	0.033950	0.582286
	N250	N	0.325057	0.957866	0.582817
	N251	N	0.322411	0.033380	0.411629
	N252	N	0.916802	0.458978	0.176803
	N253	N	0.087651	0.533209	0.177159
	N254	N	0.086472	0.459002	0.821303
	N255	N	0.914417	0.532376	0.820208
	N256	N	0.180685	0.909293	0.461581
	N257	N	0.179882	0.081908	0.536061
	N258	N	0.821970	0.082485	0.461069
	N259	N	0.822856	0.910802	0.535672
	N260	N	0.464935	0.174343	0.911836
	N261	N	0.539805	0.172068	0.081587
	N262	N	0.464188	0.818493	0.082213
	N263	N	0.538816	0.817858	0.912148
	N264	N	0.465304	0.909297	0.176585
	N265	N	0.538813	0.081647	0.175596
	N266	N	0.465008	0.082703	0.818397
	N267	N	0.539164	0.910360	0.819308
	N268	N	0.913925	0.175544	0.461520
	N269	N	0.084767	0.172435	0.536927
	N270	N	0.087567	0.817130	0.461951
	N271	N	0.917447	0.819618	0.536543
	N272	N	0.179055	0.459145	0.913418
	N273	N	0.179852	0.533502	0.084509
	N274	N	0.824560	0.458855	0.084591
	N275	N	0.823339	0.532915	0.913541
	O276	O	0.999370	0.996973	0.017742
	H277	H	0.994444	0.997798	0.004579
	H278	H	1.001117	0.995278	0.030049
	O279	O	0.065959	0.014437	-0.018843
	H280	H	0.069919	0.024035	-0.009517
	H281	H	0.064085	0.016997	-0.027797
	O282	O	0.055799	0.007577	1.033281
	H283	H	0.054652	0.008214	1.028609
	H284	H	0.058067	0.008627	1.027883
	O285	O	0.479909	0.520849	0.536964
	H286	H	0.485257	0.527613	0.535912
	H287	H	0.469709	0.522787	0.535206
	O288	O	0.457604	0.499427	0.508256
	H289	H	0.466239	0.501657	0.509623
	H290	H	0.445779	0.500847	0.511685
	O291	O	0.486761	0.557782	0.480392
	H292	H	0.493585	0.559331	0.475314
	H293	H	0.496028	0.561953	0.487006
	O294	O	0.005387	-0.005191	0.048515
	H295	H	-0.001061	-0.010036	0.053194
	H296	H	0.005743	-0.011374	0.056706
	O297	O	0.467209	0.501588	0.511242
	H298	H	0.464348	0.494824	0.509429
	H299	H	0.472111	0.499788	0.519668
	O300	O	-0.002676	1.003975	1.031171
	H301	H	0.003381	1.001397	1.024853
	H302	H	0.000055	1.008973	1.033820
	O303	O	0.413579	0.542304	0.489508
	H304	H	0.420653	0.531130	0.485651
	H305	H	0.398040	0.541906	0.485509
	O306	O	0.050053	0.017841	1.078796
	H307	H	0.051132	0.021840	1.075383
	H308	H	0.058589	0.011238	1.084001
	O309	O	1.029420	1.050304	1.068500
	H310	H	1.038601	1.044772	1.051898
	H311	H	1.032432	1.054142	1.066676
	O312	O	0.464815	0.494976	0.482336
	H313	H	0.456724	0.496420	0.478962
	H314	H	0.465769	0.503872	0.480944
	O315	O	0.443888	0.550565	0.462870
	H316	H	0.451849	0.553863	0.458315
	H317	H	0.435046	0.548529	0.465281
	O318	O	-0.008855	1.027605	0.012508
	H319	H	-0.010489	1.033735	0.017722
	H320	H	-0.011511	1.032558	0.012544
	O321	O	1.025784	0.973798	-0.020975
	H322	H	1.026381	0.974941	-0.016194
	H323	H	1.025902	0.975705	-0.012927
