data_Molecule from HDF5

_cell_length_a		16.501362
_cell_length_b		16.151127
_cell_length_c		16.150041
_cell_angle_alpha	89.840543
_cell_angle_beta	90.108688
_cell_angle_gamma	90.146186
_symmetry_space_group_name_H-M	'P 1'
_symmetry_Int_Tables_number		1

loop_
	_symmetry_equiv_pos_as_xyz
	x,y,z

loop_
	_atom_site_label
	_atom_site_type_symbol
	_atom_site_fract_x
	_atom_site_fract_y
	_atom_site_fract_z
	H0	H	0.401081	0.836909	0.705021
	H1	H	0.596203	0.166912	0.701280
	H2	H	0.597800	0.836699	0.277818
	H3	H	0.400882	0.165180	0.274329
	H4	H	0.718455	0.396169	0.826543
	H5	H	0.724792	0.607103	0.149485
	H6	H	0.282307	0.606208	0.826695
	H7	H	0.281304	0.393457	0.149677
	H8	H	0.840130	0.721736	0.382205
	H9	H	0.162110	0.719375	0.587054
	H10	H	0.839877	0.282964	0.590149
	H11	H	0.162066	0.284650	0.389028
	H12	H	0.840888	0.397405	0.707924
	H13	H	0.161545	0.603106	0.706400
	H14	H	0.840848	0.602213	0.267663
	H15	H	0.163015	0.402626	0.274146
	H16	H	0.402635	0.717314	0.825545
	H17	H	0.602287	0.714319	0.154207
	H18	H	0.596554	0.288253	0.824857
	H19	H	0.402913	0.287925	0.154002
	H20	H	0.717972	0.839854	0.386174
	H21	H	0.718823	0.163833	0.596285
	H22	H	0.280508	0.838852	0.594426
	H23	H	0.282072	0.164131	0.385883
	H24	H	0.905296	0.335810	0.201242
	H25	H	0.101576	0.664844	0.201144
	H26	H	0.098197	0.335581	0.774921
	H27	H	0.903715	0.664749	0.773376
	H28	H	0.217373	0.899106	0.327849
	H29	H	0.219504	0.106963	0.652041
	H30	H	0.779282	0.107418	0.328966
	H31	H	0.783003	0.896796	0.652765
	H32	H	0.338453	0.217130	0.890269
	H33	H	0.661290	0.217813	0.090521
	H34	H	0.341028	0.781371	0.090081
	H35	H	0.662589	0.784464	0.889473
	H36	H	0.338836	0.900267	0.205661
	H37	H	0.660602	0.102825	0.208907
	H38	H	0.338723	0.101390	0.772772
	H39	H	0.661895	0.902110	0.772840
	H40	H	0.904109	0.212988	0.323819
	H41	H	0.097282	0.214086	0.655019
	H42	H	0.096497	0.792441	0.323699
	H43	H	0.900881	0.784666	0.651948
	H44	H	0.218381	0.337426	0.883671
	H45	H	0.220679	0.662572	0.090039
	H46	H	0.784713	0.337717	0.091167
	H47	H	0.782257	0.661927	0.881207
	H48	H	0.409096	0.119336	0.585858
	H49	H	0.592339	0.883523	0.584281
	H50	H	0.591573	0.120937	0.392024
	H51	H	0.408124	0.886805	0.406749
	H52	H	0.603068	0.414660	0.107870
	H53	H	0.584436	0.586464	0.877129
	H54	H	0.407090	0.585663	0.105156
	H55	H	0.408543	0.396778	0.867629
	H56	H	0.116587	0.594483	0.386048
	H57	H	0.890082	0.585886	0.576225
	H58	H	0.115160	0.401692	0.574249
	H59	H	0.886572	0.409588	0.391919
	H60	H	0.111374	0.417393	0.577279
	H61	H	0.885897	0.593682	0.585021
	H62	H	0.116978	0.605535	0.397919
	H63	H	0.885286	0.404980	0.394987
	H64	H	0.412994	0.587669	0.103010
	H65	H	0.592587	0.601211	0.869547
	H66	H	0.588300	0.416866	0.103411
	H67	H	0.396416	0.417643	0.870198
	H68	H	0.583201	0.114037	0.404667
	H69	H	0.587428	0.886046	0.579939
	H70	H	0.411024	0.115121	0.575968
	H71	H	0.400237	0.882559	0.399808
	H72	H	0.913370	0.616136	0.074598
	H73	H	0.094312	0.382456	0.081840
	H74	H	0.098162	0.620899	0.890953
	H75	H	0.902983	0.381528	0.898074
	H76	H	0.096331	0.912192	0.608339
	H77	H	0.092148	0.096357	0.371538
	H78	H	0.904594	0.092519	0.608867
	H79	H	0.904414	0.913878	0.371310
	H80	H	0.614675	0.099790	0.902852
	H81	H	0.390930	0.087818	0.068434
	H82	H	0.618011	0.908540	0.093737
	H83	H	0.388150	0.912389	0.897474
	H84	H	0.616680	0.900467	0.079598
	H85	H	0.385068	0.084291	0.094814
	H86	H	0.612286	0.088299	0.897155
	H87	H	0.386604	0.906353	0.898556
	H88	H	0.907944	0.086592	0.604586
	H89	H	0.096048	0.090051	0.371391
	H90	H	0.089098	0.915564	0.604344
	H91	H	0.906501	0.916319	0.373811
	H92	H	0.084635	0.614512	0.897861
	H93	H	0.094023	0.383105	0.079172
	H94	H	0.908226	0.617522	0.074045
	H95	H	0.912504	0.382934	0.893961
	H96	H	0.401726	0.119456	0.578280
	H97	H	0.594654	0.885168	0.577056
	H98	H	0.598791	0.118637	0.406748
	H99	H	0.410860	0.883850	0.395735
	H100	H	0.593140	0.402998	0.108578
	H101	H	0.601676	0.585120	0.872525
	H102	H	0.409033	0.591500	0.106461
	H103	H	0.419931	0.416569	0.876260
	H104	H	0.111063	0.590746	0.400274
	H105	H	0.888003	0.597777	0.573550
	H106	H	0.117961	0.407978	0.589354
	H107	H	0.886814	0.409719	0.396931
	H108	H	0.910648	0.618376	0.078791
	H109	H	0.096393	0.382490	0.079243
	H110	H	0.098392	0.615639	0.906238
	H111	H	0.910183	0.386317	0.904452
	H112	H	0.089456	0.907760	0.607970
	H113	H	0.090346	0.090291	0.375161
	H114	H	0.912712	0.093435	0.605994
	H115	H	0.907672	0.912734	0.372660
	H116	H	0.616977	0.098244	0.889631
	H117	H	0.381069	0.108892	0.083156
	H118	H	0.611972	0.917001	0.080422
	H119	H	0.389377	0.909714	0.903176
	C120	C	0.377579	0.010034	0.611010
	C121	C	0.621170	0.992892	0.610929
	C122	C	0.620657	0.010030	0.370402
	C123	C	0.377476	0.992418	0.369502
	C124	C	0.622557	0.380618	-0.001896
	C125	C	0.624317	0.621968	0.980394
	C126	C	0.379960	0.620738	-0.002515
	C127	C	0.379038	0.379453	0.979553
	C128	C	0.009163	0.626095	0.363789
	C129	C	0.993100	0.623437	0.609414
	C130	C	0.008817	0.378589	0.610888
	C131	C	0.992791	0.379229	0.366303
	C132	C	0.881527	0.509323	0.107342
	C133	C	0.124149	0.491214	0.109422
	C134	C	0.122723	0.508813	0.867636
	C135	C	0.879389	0.491307	0.866798
	C136	C	0.120496	0.882423	0.498313
	C137	C	0.122292	0.123001	0.481020
	C138	C	0.878616	0.122285	0.498856
	C139	C	0.877504	0.881248	0.480263
	C140	C	0.508430	0.124555	0.867159
	C141	C	0.491833	0.123320	0.112265
	C142	C	0.509304	0.877813	0.113475
	C143	C	0.493508	0.879650	0.868774
	C144	C	0.379848	0.886353	0.667564
	C145	C	0.617540	0.117142	0.665474
	C146	C	0.618396	0.886534	0.314668
	C147	C	0.380118	0.115982	0.312284
	C148	C	0.679058	0.378826	0.875217
	C149	C	0.684175	0.624295	0.101749
	C150	C	0.322053	0.623749	0.875143
	C151	C	0.321309	0.376810	0.101794
	C152	C	0.888394	0.682530	0.363588
	C153	C	0.113967	0.680637	0.607993
	C154	C	0.888125	0.321566	0.610076
	C155	C	0.114007	0.323098	0.368792
	C156	C	0.888588	0.378758	0.668625
	C157	C	0.113602	0.623043	0.667379
	C158	C	0.888626	0.623044	0.306273
	C159	C	0.114489	0.381845	0.311470
	C160	C	0.382039	0.679001	0.874450
	C161	C	0.623321	0.677709	0.104130
	C162	C	0.618585	0.324774	0.874463
	C163	C	0.381770	0.324301	0.104161
	C164	C	0.678241	0.888039	0.368879
	C165	C	0.678801	0.115387	0.613026
	C166	C	0.319933	0.887343	0.612607
	C167	C	0.321149	0.115374	0.367940
	C168	C	0.883832	0.385315	0.163858
	C169	C	0.122258	0.615322	0.164304
	C170	C	0.119855	0.385340	0.811409
	C171	C	0.881980	0.614990	0.809984
	C172	C	0.177754	0.881720	0.375817
	C173	C	0.179576	0.124223	0.603673
	C174	C	0.820069	0.124534	0.376669
	C175	C	0.821347	0.878829	0.603513
	C176	C	0.386943	0.179696	0.869764
	C177	C	0.613086	0.179628	0.110749
	C178	C	0.388814	0.819914	0.111398
	C179	C	0.614340	0.822845	0.869303
	C180	C	0.387598	0.879416	0.168262
	C181	C	0.612754	0.122007	0.169470
	C182	C	0.387136	0.122113	0.811070
	C183	C	0.614137	0.881752	0.811605
	C184	C	0.881816	0.177362	0.374239
	C185	C	0.118628	0.177741	0.605163
	C186	C	0.117469	0.828807	0.373700
	C187	C	0.879917	0.822818	0.603160
	C188	C	0.179685	0.386283	0.865739
	C189	C	0.181516	0.614062	0.109036
	C190	C	0.824272	0.386409	0.108965
	C191	C	0.821830	0.613514	0.863984
	C192	C	0.400662	0.095797	0.587076
	C193	C	0.598341	0.907068	0.587156
	C194	C	0.597721	0.095617	0.394210
	C195	C	0.399811	0.906730	0.393771
	C196	C	0.601098	0.404544	0.084202
	C197	C	0.599888	0.597956	0.895084
	C198	C	0.403024	0.595489	0.082911
	C199	C	0.401752	0.403208	0.893899
	C200	C	0.093209	0.603600	0.387875
	C201	C	0.909519	0.599431	0.585153
	C202	C	0.092929	0.402274	0.587153
	C203	C	0.908354	0.401587	0.388108
	C204	C	0.904357	0.594940	0.082985
	C205	C	0.101470	0.405068	0.086905
	C206	C	0.100248	0.594637	0.891333
	C207	C	0.902113	0.405576	0.891591
	C208	C	0.098116	0.905043	0.584492
	C209	C	0.099542	0.099160	0.395027
	C210	C	0.901643	0.098097	0.584384
	C211	C	0.899848	0.906877	0.394700
	C212	C	0.592764	0.102107	0.889750
	C213	C	0.407442	0.100345	0.089020
	C214	C	0.593706	0.901614	0.091291
	C215	C	0.409763	0.902726	0.892770
	Zn216	Zn	0.500126	0.001685	0.737790
	Zn217	Zn	0.499639	0.000988	0.242319
	Zn218	Zn	0.751456	0.500785	-0.011949
	Zn219	Zn	0.251348	0.499332	-0.012069
	Zn220	Zn	-0.000098	0.754920	0.487752
	Zn221	Zn	0.000342	0.249618	0.488753
	Zn222	Zn	0.001273	0.500474	0.739936
	Zn223	Zn	0.001882	0.500813	0.235842
	Zn224	Zn	0.502404	0.748738	-0.009694
	Zn225	Zn	0.500052	0.253374	-0.009752
	Zn226	Zn	0.749130	0.001971	0.490838
	Zn227	Zn	0.249104	0.001087	0.490441
	N228	N	0.414946	0.963654	0.666902
	N229	N	0.582495	0.039882	0.664497
	N230	N	0.583170	0.963396	0.315508
	N231	N	0.414826	0.038668	0.313268
	N232	N	0.681578	0.412845	0.953156
	N233	N	0.684855	0.590301	0.023782
	N234	N	0.320843	0.588261	0.952500
	N235	N	0.319340	0.410402	0.023487
	N236	N	0.964364	0.684483	0.398597
	N237	N	0.038113	0.680968	0.572619
	N238	N	0.963909	0.321538	0.574664
	N239	N	0.037401	0.321297	0.402147
	N240	N	0.964699	0.413557	0.669097
	N241	N	0.037588	0.588043	0.668486
	N242	N	0.964820	0.588654	0.306124
	N243	N	0.038266	0.416135	0.309830
	N244	N	0.417553	0.677179	0.951739
	N245	N	0.586677	0.676321	0.027658
	N246	N	0.584164	0.325556	0.951909
	N247	N	0.417367	0.326062	0.027384
	N248	N	0.679768	0.966020	0.403047
	N249	N	0.681084	0.036987	0.579837
	N250	N	0.318532	0.965352	0.578351
	N251	N	0.319559	0.037742	0.402842
	N252	N	0.918748	0.462627	0.163034
	N253	N	0.087240	0.538011	0.164564
	N254	N	0.085067	0.462558	0.812524
	N255	N	0.916945	0.537865	0.811569
	N256	N	0.179819	0.914342	0.454416
	N257	N	0.181849	0.090907	0.525431
	N258	N	0.817852	0.091120	0.455032
	N259	N	0.819639	0.914258	0.525834
	N260	N	0.463378	0.181456	0.903727
	N261	N	0.536854	0.180744	0.076089
	N262	N	0.465537	0.818856	0.078209
	N263	N	0.538457	0.821539	0.904214
	N264	N	0.463602	0.914366	0.169995
	N265	N	0.536400	0.087761	0.170514
	N266	N	0.463540	0.088393	0.809322
	N267	N	0.537998	0.916405	0.811019
	N268	N	0.917591	0.176023	0.451149
	N269	N	0.083821	0.177171	0.527676
	N270	N	0.082330	0.829122	0.450773
	N271	N	0.913786	0.824082	0.525644
	N272	N	0.181587	0.464201	0.899918
	N273	N	0.182844	0.535866	0.075800
	N274	N	0.822363	0.464595	0.074985
	N275	N	0.819922	0.535438	0.898340
	O276	O	-0.017533	0.105747	0.015378
	H277	H	-0.023423	0.100042	0.011867
	H278	H	-0.017846	0.097756	0.033660
	O279	O	0.479291	0.649797	0.370581
	H280	H	0.489433	0.646456	0.377331
	H281	H	0.479368	0.659153	0.386558
	O282	O	0.431758	-0.409126	-0.621523
	H283	H	0.422931	-0.421673	-0.608788
	H284	H	0.427814	-0.397055	-0.630634
	O285	O	-0.078220	0.964779	0.023475
	H286	H	-0.075466	0.972830	0.001329
	H287	H	-0.075392	0.959923	0.014653
	O288	O	0.374156	0.535231	0.475578
	H289	H	0.377457	0.525568	0.461567
	H290	H	0.386784	0.542973	0.487680
	O291	O	1.663413	0.365370	0.502866
	H292	H	1.672185	0.370754	0.485366
	H293	H	1.654021	0.368803	0.501006
	O294	O	0.950363	1.000510	1.104419
	H295	H	0.939848	1.001839	1.101116
	H296	H	0.939202	0.992057	1.108766
	O297	O	-0.046047	0.104516	-0.000605
	H298	H	-0.053353	0.117351	-0.005454
	H299	H	-0.038666	0.094268	-0.005933
	O300	O	0.404657	0.523135	0.608950
	H301	H	0.398856	0.539202	0.594997
	H302	H	0.386989	0.512967	0.622837
	O303	O	-0.167695	0.827209	1.047985
	H304	H	-0.163894	0.825455	1.040805
	H305	H	-0.170578	0.828759	1.034789
	O306	O	0.544661	0.475574	0.477910
	H307	H	0.548257	0.479733	0.476228
	H308	H	0.539642	0.469351	0.469965
	O309	O	1.115186	-0.097091	-0.007058
	H310	H	1.123193	-0.101611	0.003104
	H311	H	1.129498	-0.077593	0.002007
	O312	O	-0.011367	0.109239	1.081838
	H313	H	-0.012898	0.094753	1.078747
	H314	H	-0.021045	0.112180	1.074201
	O315	O	0.435905	0.528664	0.548084
	H316	H	0.442448	0.520457	0.551477
	H317	H	0.431630	0.528363	0.546487
	O318	O	1.173515	0.893247	0.888894
	H319	H	1.180967	0.890724	0.898274
	H320	H	1.174791	0.893801	0.896959
	O321	O	0.622713	0.635622	0.519425
	H322	H	0.613213	0.635579	0.523554
	H323	H	0.617162	0.645503	0.518292
	O324	O	0.438891	0.432505	0.444928
	H325	H	0.428341	0.424169	0.447310
	H326	H	0.435171	0.426253	0.434639
	O327	O	-0.077146	0.972593	0.830774
	H328	H	-0.071569	0.972051	0.832154
	H329	H	-0.067043	0.967768	0.823989
	O330	O	-0.105947	0.086954	-0.011436
	H331	H	-0.104924	0.095767	-0.004764
	H332	H	-0.104910	0.082983	-0.019253
	O333	O	-0.675772	1.384439	1.578215
	H334	H	-0.684190	1.387729	1.583433
	H335	H	-0.675210	1.381634	1.579676
	O336	O	0.981915	0.929889	0.934121
	H337	H	0.987254	0.941118	0.938216
	H338	H	0.975187	0.928185	0.936902
	O339	O	0.592163	0.573263	0.351783
	H340	H	0.598784	0.584102	0.360306
	H341	H	0.595116	0.583487	0.344967
	O342	O	1.075455	0.129742	0.034512
	H343	H	1.051775	0.138380	0.037874
	H344	H	1.067344	0.142396	0.019824
	O345	O	0.614815	0.474691	0.620258
	H346	H	0.634670	0.474657	0.624075
	H347	H	0.608105	0.473123	0.614868
	O348	O	1.108566	1.104910	1.039982
	H349	H	1.103948	1.104804	1.040182
	H350	H	1.099830	1.100774	1.040784
	O351	O	0.885173	1.005459	-0.058851
	H352	H	0.878202	1.015903	-0.063073
	H353	H	0.896371	1.003541	-0.067920
	O354	O	0.664001	0.722513	0.691003
	H355	H	0.667899	0.721659	0.699011
	H356	H	0.657890	0.706980	0.704373
	O357	O	0.586234	0.334204	0.310497
	H358	H	0.572649	0.342045	0.309898
	H359	H	0.590947	0.327051	0.303314
	O360	O	-0.578867	0.527252	0.489928
	H361	H	-0.575774	0.524946	0.493813
	H362	H	-0.575278	0.521299	0.502811
	O363	O	0.676432	0.627134	0.480611
	H364	H	0.669653	0.627959	0.472781
	H365	H	0.668516	0.635326	0.497770
	O366	O	0.551300	0.438024	0.581550
	H367	H	0.565928	0.427970	0.587750
	H368	H	0.551432	0.443364	0.562061
	O369	O	0.337438	0.605760	0.405136
	H370	H	0.341729	0.613251	0.397999
	H371	H	0.333650	0.602678	0.389045
	O372	O	0.379570	0.414155	0.590344
	H373	H	0.371744	0.412762	0.603336
	H374	H	0.385432	0.401583	0.589416
	O375	O	0.430719	0.371538	0.586768
	H376	H	0.438382	0.375084	0.582638
	H377	H	0.424987	0.360930	0.596656
	O378	O	0.574012	0.395751	0.542728
	H379	H	0.579363	0.387274	0.518931
	H380	H	0.563965	0.378380	0.545569
	O381	O	0.406053	0.442055	0.365363
	H382	H	0.423013	0.453883	0.362797
	H383	H	0.407439	0.442632	0.355132
	O384	O	0.048370	1.076760	-0.079359
	H385	H	0.051461	1.079036	-0.081712
	H386	H	0.037358	1.089886	-0.071864
	O387	O	1.026367	-0.121744	1.140539
	H388	H	1.022565	-0.124725	1.150133
	H389	H	1.014333	-0.120840	1.150919
	O390	O	0.063493	0.990281	-0.077117
	H391	H	0.067480	0.977563	-0.075816
	H392	H	0.067364	0.993333	-0.078933
	O393	O	1.060428	0.859229	0.046745
	H394	H	1.050724	0.850330	0.051445
	H395	H	1.057794	0.856693	0.059182
	O396	O	0.611661	0.621128	0.601104
	H397	H	0.610897	0.620291	0.603213
	H398	H	0.605748	0.616223	0.610677
	O399	O	0.663052	0.445622	1.357627
	H400	H	0.649030	0.444870	1.358634
	H401	H	0.672000	0.446996	1.350691
	O402	O	0.891962	0.914383	1.042316
	H403	H	0.895160	0.920290	1.040457
	H404	H	0.882032	0.909104	1.027616
	O405	O	0.053576	-0.088022	0.870201
	H406	H	0.055967	-0.095638	0.863487
	H407	H	0.069484	-0.097882	0.881897
