data_Molecule from HDF5

_cell_length_a		16.017253
_cell_length_b		16.387352
_cell_length_c		16.288516
_cell_angle_alpha	89.677784
_cell_angle_beta	89.090829
_cell_angle_gamma	90.056496
_symmetry_space_group_name_H-M	'P 1'
_symmetry_Int_Tables_number		1

loop_
	_symmetry_equiv_pos_as_xyz
	x,y,z

loop_
	_atom_site_label
	_atom_site_type_symbol
	_atom_site_fract_x
	_atom_site_fract_y
	_atom_site_fract_z
	H0	H	0.381960	0.832308	0.712404
	H1	H	0.586498	0.155885	0.707731
	H2	H	0.590984	0.831909	0.275444
	H3	H	0.385923	0.155166	0.273146
	H4	H	0.704943	0.397084	0.829058
	H5	H	0.695772	0.587381	0.157960
	H6	H	0.281407	0.588697	0.827929
	H7	H	0.269914	0.393031	0.156049
	H8	H	0.823534	0.711936	0.393103
	H9	H	0.153502	0.711306	0.589768
	H10	H	0.821485	0.282156	0.596455
	H11	H	0.153180	0.280973	0.390900
	H12	H	0.822721	0.398711	0.710163
	H13	H	0.154947	0.595170	0.703008
	H14	H	0.821932	0.595362	0.280659
	H15	H	0.153451	0.395480	0.275026
	H16	H	0.386653	0.712662	0.831772
	H17	H	0.589945	0.711132	0.153854
	H18	H	0.593479	0.277547	0.829304
	H19	H	0.382974	0.273585	0.154694
	H20	H	0.705613	0.831798	0.392842
	H21	H	0.698465	0.158845	0.585166
	H22	H	0.269827	0.832025	0.593754
	H23	H	0.275975	0.158833	0.397323
	H24	H	0.883398	0.334081	0.215476
	H25	H	0.089633	0.657178	0.206575
	H26	H	0.092210	0.333569	0.772938
	H27	H	0.889476	0.657693	0.778163
	H28	H	0.203473	0.901321	0.329854
	H29	H	0.198348	0.092233	0.658461
	H30	H	0.780050	0.093279	0.326987
	H31	H	0.772222	0.898637	0.655760
	H32	H	0.323880	0.210742	0.891377
	H33	H	0.653564	0.207238	0.088954
	H34	H	0.322567	0.776898	0.097130
	H35	H	0.653143	0.780426	0.890495
	H36	H	0.322733	0.892442	0.211783
	H37	H	0.653771	0.091391	0.202092
	H38	H	0.321061	0.092029	0.781693
	H39	H	0.651828	0.893409	0.775030
	H40	H	0.887348	0.216184	0.331478
	H41	H	0.086714	0.211584	0.657024
	H42	H	0.095394	0.779839	0.331508
	H43	H	0.880436	0.775370	0.653658
	H44	H	0.203294	0.330812	0.893835
	H45	H	0.202431	0.657566	0.087445
	H46	H	0.771521	0.330802	0.093989
	H47	H	0.775683	0.657908	0.897623
	H48	H	0.389071	0.109728	0.579971
	H49	H	0.574393	0.879193	0.588015
	H50	H	0.581867	0.108846	0.402281
	H51	H	0.400654	0.879285	0.397380
	H52	H	0.578621	0.410201	0.105982
	H53	H	0.585433	0.587805	0.874229
	H54	H	0.402057	0.587691	0.108300
	H55	H	0.404268	0.394374	0.876564
	H56	H	0.108481	0.594327	0.397029
	H57	H	0.871111	0.584693	0.586504
	H58	H	0.105665	0.398459	0.577159
	H59	H	0.872950	0.415911	0.404185
	H60	H	0.105177	0.408411	0.581606
	H61	H	0.868660	0.588135	0.587906
	H62	H	0.103873	0.586381	0.405118
	H63	H	0.866638	0.399681	0.396857
	H64	H	0.389965	0.590047	0.111725
	H65	H	0.579741	0.584588	0.877166
	H66	H	0.565137	0.390895	0.106956
	H67	H	0.392341	0.399646	0.873983
	H68	H	0.587463	0.112590	0.392208
	H69	H	0.578099	0.880772	0.579673
	H70	H	0.389360	0.113988	0.596727
	H71	H	0.398262	0.882139	0.407807
	H72	H	0.889916	0.610731	0.087594
	H73	H	0.075184	0.379308	0.089362
	H74	H	0.079369	0.607480	0.903839
	H75	H	0.895072	0.378553	0.903695
	H76	H	0.076406	0.910501	0.607767
	H77	H	0.079884	0.088529	0.379340
	H78	H	0.884863	0.088429	0.610585
	H79	H	0.898627	0.903657	0.375214
	H80	H	0.605601	0.084177	0.899862
	H81	H	0.369883	0.086589	0.081268
	H82	H	0.603507	0.902593	0.078036
	H83	H	0.371304	0.908352	0.902801
	H84	H	0.606249	0.903198	0.088261
	H85	H	0.371239	0.080080	0.083744
	H86	H	0.605972	0.085180	0.896715
	H87	H	0.364940	0.895788	0.898468
	H88	H	0.897011	0.084641	0.607204
	H89	H	0.079882	0.093057	0.377447
	H90	H	0.066597	0.896786	0.608190
	H91	H	0.901452	0.903502	0.377330
	H92	H	0.094696	0.613180	0.896790
	H93	H	0.074878	0.380574	0.081609
	H94	H	0.895017	0.610765	0.088779
	H95	H	0.898307	0.379032	0.897117
	H96	H	0.403513	0.106741	0.588774
	H97	H	0.582780	0.876419	0.586247
	H98	H	0.576137	0.109018	0.391181
	H99	H	0.391764	0.877456	0.401636
	H100	H	0.587740	0.390698	0.114149
	H101	H	0.580019	0.591318	0.875655
	H102	H	0.392991	0.577954	0.108207
	H103	H	0.400803	0.406225	0.879087
	H104	H	0.105597	0.583788	0.394090
	H105	H	0.871891	0.587612	0.584703
	H106	H	0.109543	0.399692	0.587033
	H107	H	0.872263	0.400230	0.415734
	H108	H	0.894139	0.609061	0.084149
	H109	H	0.081212	0.378788	0.084886
	H110	H	0.079278	0.611523	0.887585
	H111	H	0.902048	0.380506	0.902669
	H112	H	0.082813	0.896738	0.614014
	H113	H	0.083786	0.090406	0.377196
	H114	H	0.895646	0.096224	0.610675
	H115	H	0.900296	0.901816	0.375330
	H116	H	0.606370	0.085494	0.899260
	H117	H	0.368006	0.085097	0.087718
	H118	H	0.608565	0.893505	0.082400
	H119	H	0.369906	0.897825	0.912251
	C120	C	0.363387	0.002678	0.617412
	C121	C	0.607802	0.986160	0.612660
	C122	C	0.611795	0.002662	0.367793
	C123	C	0.366900	0.986407	0.372155
	C124	C	0.609209	0.370302	0.001001
	C125	C	0.609651	0.615350	0.983967
	C126	C	0.367094	0.614492	0.001785
	C127	C	0.366557	0.370075	0.984030
	C128	C	-0.003412	0.617332	0.370773
	C129	C	0.979932	0.616705	0.613686
	C130	C	-0.003074	0.374209	0.613856
	C131	C	0.979574	0.375442	0.373258
	C132	C	0.863776	0.502885	0.117010
	C133	C	0.108193	0.486793	0.113139
	C134	C	0.112848	0.503137	0.868080
	C135	C	0.868263	0.486679	0.872361
	C136	C	0.108173	0.874001	0.502257
	C137	C	0.109420	0.118375	0.485737
	C138	C	0.865629	0.118507	0.501304
	C139	C	0.867387	0.873601	0.483462
	C140	C	0.496136	0.114185	0.870848
	C141	C	0.479173	0.113130	0.111731
	C142	C	0.496723	0.870819	0.114244
	C143	C	0.477824	0.872067	0.872400
	C144	C	0.363087	0.880724	0.673790
	C145	C	0.605984	0.108071	0.668509
	C146	C	0.610631	0.880538	0.313390
	C147	C	0.367172	0.107606	0.313465
	C148	C	0.666693	0.375237	0.877764
	C149	C	0.661475	0.610269	0.107819
	C150	C	0.315836	0.610754	0.877628
	C151	C	0.308213	0.372137	0.106991
	C152	C	0.872728	0.673728	0.373081
	C153	C	0.104235	0.672864	0.609930
	C154	C	0.871471	0.319733	0.615342
	C155	C	0.103778	0.319106	0.371931
	C156	C	0.872087	0.377559	0.671792
	C157	C	0.105098	0.614891	0.666313
	C158	C	0.871798	0.615417	0.317391
	C159	C	0.103976	0.376392	0.314427
	C160	C	0.368422	0.672311	0.879585
	C161	C	0.608559	0.671769	0.105836
	C162	C	0.611363	0.315830	0.878108
	C163	C	0.364486	0.312792	0.106168
	C164	C	0.667673	0.880430	0.371909
	C165	C	0.661790	0.109453	0.607734
	C166	C	0.307241	0.880706	0.614838
	C167	C	0.312648	0.109476	0.375544
	C168	C	0.864436	0.381780	0.175299
	C169	C	0.108331	0.608688	0.168322
	C170	C	0.111663	0.381611	0.811763
	C171	C	0.869856	0.609007	0.816602
	C172	C	0.166340	0.878907	0.379122
	C173	C	0.162443	0.114077	0.609176
	C174	C	0.814580	0.115113	0.377071
	C175	C	0.809445	0.876590	0.606461
	C176	C	0.372792	0.171701	0.872421
	C177	C	0.603971	0.169147	0.108935
	C178	C	0.372032	0.814739	0.115708
	C179	C	0.603064	0.817328	0.871309
	C180	C	0.372114	0.872330	0.172693
	C181	C	0.604190	0.111564	0.165160
	C182	C	0.371450	0.112507	0.817667
	C183	C	0.602409	0.873733	0.813789
	C184	C	0.868021	0.176255	0.379300
	C185	C	0.106699	0.173459	0.608378
	C186	C	0.112196	0.818582	0.379894
	C187	C	0.863490	0.815429	0.605398
	C188	C	0.166687	0.380051	0.872218
	C189	C	0.164476	0.608977	0.108793
	C190	C	0.808695	0.380020	0.114894
	C191	C	0.812645	0.609118	0.875680
	C192	C	0.387073	0.088085	0.595017
	C193	C	0.585277	0.901107	0.591012
	C194	C	0.588702	0.088094	0.388960
	C195	C	0.390070	0.901404	0.395490
	C196	C	0.584491	0.391167	0.086739
	C197	C	0.588009	0.594142	0.898114
	C198	C	0.388711	0.591844	0.087115
	C199	C	0.391785	0.393206	0.898617
	C200	C	0.083581	0.594778	0.392390
	C201	C	0.892864	0.593552	0.592527
	C202	C	0.084242	0.395771	0.589168
	C203	C	0.893108	0.398631	0.398123
	C204	C	0.886560	0.588050	0.093795
	C205	C	0.084072	0.401531	0.091649
	C206	C	0.090820	0.588465	0.889694
	C207	C	0.891597	0.401436	0.894762
	C208	C	0.082620	0.895232	0.587709
	C209	C	0.087606	0.096963	0.400215
	C210	C	0.886379	0.096261	0.587156
	C211	C	0.892720	0.896314	0.398233
	C212	C	0.583401	0.091503	0.892199
	C213	C	0.392180	0.090365	0.090509
	C214	C	0.583532	0.893219	0.090099
	C215	C	0.391095	0.894048	0.897301
	Zn216	Zn	0.486504	-0.007416	0.744453
	Zn217	Zn	0.488355	-0.006515	0.240487
	Zn218	Zn	0.736489	0.493598	-0.006853
	Zn219	Zn	0.239104	0.493802	-0.007702
	Zn220	Zn	-0.011664	0.744442	0.492221
	Zn221	Zn	-0.012495	0.246847	0.494123
	Zn222	Zn	-0.010213	0.495402	0.741063
	Zn223	Zn	-0.012091	0.495975	0.244157
	Zn224	Zn	0.487759	0.743537	-0.007492
	Zn225	Zn	0.488279	0.241249	-0.007948
	Zn226	Zn	0.738909	-0.004713	0.490849
	Zn227	Zn	0.236534	-0.004708	0.494804
	N228	N	0.397226	0.957773	0.675664
	N229	N	0.573043	0.030381	0.671786
	N230	N	0.576691	0.957531	0.310602
	N231	N	0.400315	0.030184	0.311375
	N232	N	0.665909	0.408154	0.955150
	N233	N	0.662147	0.576026	0.030921
	N234	N	0.314912	0.575358	0.954399
	N235	N	0.309393	0.407010	0.029915
	N236	N	0.951341	0.674880	0.405597
	N237	N	0.025257	0.674069	0.577810
	N238	N	0.950151	0.317681	0.580189
	N239	N	0.025482	0.318364	0.407832
	N240	N	0.951157	0.410518	0.671118
	N241	N	0.026703	0.580758	0.668779
	N242	N	0.950118	0.581196	0.315682
	N243	N	0.025616	0.410568	0.315064
	N244	N	0.399448	0.674884	0.957829
	N245	N	0.577150	0.675197	0.027672
	N246	N	0.576261	0.312645	0.955742
	N247	N	0.399851	0.311348	0.028690
	N248	N	0.668450	0.957533	0.404891
	N249	N	0.663017	0.032819	0.573772
	N250	N	0.307348	0.957554	0.580407
	N251	N	0.312630	0.033234	0.411490
	N252	N	0.897645	0.459200	0.176909
	N253	N	0.073986	0.531651	0.170944
	N254	N	0.079121	0.459142	0.808910
	N255	N	0.903895	0.531885	0.814573
	N256	N	0.163979	0.912646	0.456171
	N257	N	0.164254	0.080640	0.532040
	N258	N	0.812712	0.079966	0.454076
	N259	N	0.811532	0.911903	0.529692
	N260	N	0.451632	0.172814	0.904686
	N261	N	0.525211	0.170268	0.076560
	N262	N	0.450475	0.813376	0.080159
	N263	N	0.524576	0.816023	0.907224
	N264	N	0.450675	0.906074	0.172217
	N265	N	0.525600	0.077355	0.167053
	N266	N	0.449254	0.077459	0.816705
	N267	N	0.523694	0.906981	0.814489
	N268	N	0.898963	0.178454	0.457561
	N269	N	0.074604	0.176400	0.530570
	N270	N	0.076886	0.815223	0.457447
	N271	N	0.898678	0.813441	0.527914
	N272	N	0.167849	0.456707	0.906162
	N273	N	0.164695	0.532001	0.075471
	N274	N	0.808063	0.456427	0.079383
	N275	N	0.811678	0.532135	0.909594
	O276	O	0.881997	-0.168365	1.130784
	H277	H	0.876791	-0.176398	1.144587
	H278	H	0.884147	-0.168302	1.137436
	O279	O	0.521625	0.486732	0.524586
	H280	H	0.521838	0.484271	0.528257
	H281	H	0.511724	0.490413	0.527563
	O282	O	0.490171	0.451046	0.437464
	H283	H	0.497958	0.443742	0.447901
	H284	H	0.470112	0.438548	0.437560
	O285	O	0.384453	0.524399	0.616471
	H286	H	0.377723	0.528611	0.628997
	H287	H	0.392316	0.497542	0.609132
	O288	O	0.491292	0.433428	0.563636
	H289	H	0.502162	0.436334	0.561764
	H290	H	0.478704	0.438439	0.544325
	O291	O	-0.002980	-0.135164	1.134159
	H292	H	0.003391	-0.132026	1.119507
	H293	H	-0.014467	-0.144218	1.141695
	O294	O	0.351420	1.403596	0.579037
	H295	H	0.351273	1.403738	0.573058
	H296	H	0.347332	1.403528	0.574320
	O297	O	0.972892	1.141080	0.039514
	H298	H	0.977005	1.138794	0.029503
	H299	H	0.970344	1.134250	0.043726
	O300	O	0.491560	0.624893	0.397880
	H301	H	0.490237	0.630128	0.390785
	H302	H	0.500771	0.619241	0.404963
	O303	O	0.434191	0.512515	0.378433
	H304	H	0.426554	0.520327	0.369073
	H305	H	0.436423	0.516379	0.379792
	O306	O	1.007570	1.162260	1.079323
	H307	H	1.016405	1.171419	1.073089
	H308	H	1.034972	1.169296	1.094304
	O309	O	0.575775	0.443009	0.545168
	H310	H	0.580207	0.439822	0.537843
	H311	H	0.558634	0.441504	0.549648
	O312	O	0.928923	0.837728	0.916683
	H313	H	0.927479	0.835236	0.927436
	H314	H	0.925622	0.830002	0.926601
	O315	O	0.984473	1.033348	-0.030061
	H316	H	0.997841	1.028598	-0.021652
	H317	H	0.961144	1.027901	-0.037230
	O318	O	0.599225	0.550933	0.425278
	H319	H	0.593785	0.551884	0.434258
	H320	H	0.601942	0.547081	0.421160
	O321	O	0.654229	0.506627	0.532853
	H322	H	0.654189	0.504434	0.532482
	H323	H	0.652525	0.501220	0.537638
	O324	O	0.151252	1.072910	1.007677
	H325	H	0.139457	1.063623	1.003995
	H326	H	0.157998	1.071949	1.014020
	O327	O	-0.089903	0.996793	0.984095
	H328	H	-0.107941	1.010214	0.980010
	H329	H	-0.091359	1.007218	0.990625
	O330	O	0.030827	-0.082368	-0.186589
	H331	H	0.021011	-0.084467	-0.185037
	H332	H	0.041954	-0.100307	-0.196282
	O333	O	0.531039	0.448245	0.501577
	H334	H	0.525277	0.443840	0.496957
	H335	H	0.530097	0.445694	0.494122
	O336	O	-0.170607	0.099328	-0.009272
	H337	H	-0.178215	0.100365	-0.007915
	H338	H	-0.179344	0.098719	-0.012794
	O339	O	0.074455	-0.132701	-0.020694
	H340	H	0.073939	-0.137935	-0.031120
	H341	H	0.067319	-0.124286	-0.029973
	O342	O	0.587568	0.456971	0.391215
	H343	H	0.597825	0.451433	0.383977
	H344	H	0.592045	0.447212	0.391156
	O345	O	-0.018407	1.048210	1.130141
	H346	H	-0.012833	1.061959	1.121180
	H347	H	-0.024899	1.055880	1.130600
	O348	O	0.050518	0.023447	1.082898
	H349	H	0.064407	0.021232	1.085631
	H350	H	0.056308	0.018991	1.064840
	O351	O	0.399046	0.512838	0.491393
	H352	H	0.402756	0.522559	0.498526
	H353	H	0.397699	0.512436	0.490793
	O354	O	0.450477	0.564211	0.508906
	H355	H	0.452752	0.565038	0.501807
	H356	H	0.456714	0.559176	0.521410
	O357	O	1.092419	0.858083	-0.168975
	H358	H	1.082311	0.856807	-0.166031
	H359	H	1.094528	0.863181	-0.172098
	O360	O	1.001944	0.040262	0.866867
	H361	H	0.996484	0.042627	0.875460
	H362	H	0.986598	0.056152	0.859253
	O363	O	0.424703	0.485596	0.384570
	H364	H	0.420487	0.491349	0.391898
	H365	H	0.430024	0.482340	0.394075
	O366	O	1.011151	1.107382	-0.127035
	H367	H	1.001623	1.094290	-0.131148
	H368	H	1.014114	1.106161	-0.127954
	O369	O	1.514120	0.448867	0.445589
	H370	H	1.513799	0.458622	0.445609
	H371	H	1.510929	0.460298	0.450301
	O372	O	0.554430	0.599385	0.573776
	H373	H	0.558750	0.611372	0.583411
	H374	H	0.558458	0.599616	0.568751
	O375	O	0.987879	0.010521	1.043665
	H376	H	0.993255	0.024537	1.043774
	H377	H	0.992001	-0.004338	1.051098
	O378	O	0.059228	1.036500	0.114971
	H379	H	0.061438	1.029160	0.117627
	H380	H	0.060974	1.046585	0.104961
	O381	O	0.458722	0.364807	0.552003
	H382	H	0.440105	0.365156	0.540659
	H383	H	0.452342	0.363313	0.563278
	O384	O	0.802202	0.922574	0.041965
	H385	H	0.813689	0.902483	0.047444
	H386	H	0.792865	0.935955	0.050910
	O387	O	0.931298	-0.065408	0.949303
	H388	H	0.926528	-0.078670	0.949828
	H389	H	0.915166	-0.057059	0.946272
	O390	O	1.012442	1.071463	-0.094099
	H391	H	1.011337	1.088350	-0.086881
	H392	H	1.023203	1.079229	-0.084985
	O393	O	0.385214	0.543921	0.417770
	H394	H	0.384451	0.551394	0.418923
	H395	H	0.388184	0.550333	0.419870
