data_Molecule from HDF5

_cell_length_a		16.319011
_cell_length_b		16.288344
_cell_length_c		16.076518
_cell_angle_alpha	90.354696
_cell_angle_beta	90.074279
_cell_angle_gamma	89.802338
_symmetry_space_group_name_H-M	'P 1'
_symmetry_Int_Tables_number		1

loop_
	_symmetry_equiv_pos_as_xyz
	x,y,z

loop_
	_atom_site_label
	_atom_site_type_symbol
	_atom_site_fract_x
	_atom_site_fract_y
	_atom_site_fract_z
	H0	H	0.406393	0.836020	0.712822
	H1	H	0.597898	0.164572	0.717121
	H2	H	0.598227	0.835616	0.287072
	H3	H	0.403447	0.164637	0.290914
	H4	H	0.716213	0.400043	0.836542
	H5	H	0.716950	0.599559	0.166528
	H6	H	0.288451	0.599184	0.836924
	H7	H	0.288681	0.402321	0.166109
	H8	H	0.838727	0.716469	0.402436
	H9	H	0.164251	0.716661	0.602429
	H10	H	0.838420	0.285188	0.601132
	H11	H	0.164328	0.280770	0.399800
	H12	H	0.837914	0.404987	0.713764
	H13	H	0.166668	0.596142	0.713619
	H14	H	0.837579	0.596313	0.288175
	H15	H	0.166928	0.400397	0.287825
	H16	H	0.404285	0.712452	0.836166
	H17	H	0.601490	0.714437	0.167091
	H18	H	0.602876	0.283423	0.837251
	H19	H	0.404474	0.289886	0.167112
	H20	H	0.717917	0.836036	0.399808
	H21	H	0.716852	0.163208	0.604420
	H22	H	0.286264	0.837367	0.601759
	H23	H	0.285048	0.162162	0.403098
	H24	H	0.907504	0.334312	0.212040
	H25	H	0.098558	0.663288	0.215704
	H26	H	0.101180	0.336469	0.785664
	H27	H	0.906969	0.665161	0.790852
	H28	H	0.214933	0.899756	0.336769
	H29	H	0.214088	0.100177	0.666886
	H30	H	0.785212	0.099682	0.337162
	H31	H	0.788288	0.901809	0.667371
	H32	H	0.338564	0.217472	0.902235
	H33	H	0.664991	0.216383	0.104211
	H34	H	0.339508	0.784728	0.102379
	H35	H	0.664142	0.782614	0.900177
	H36	H	0.336716	0.906609	0.212718
	H37	H	0.665093	0.097520	0.217892
	H38	H	0.336606	0.096294	0.790514
	H39	H	0.665293	0.902145	0.788041
	H40	H	0.901506	0.212264	0.335175
	H41	H	0.097688	0.213476	0.666532
	H42	H	0.100876	0.784683	0.336716
	H43	H	0.902143	0.787022	0.667307
	H44	H	0.219006	0.337063	0.900304
	H45	H	0.216043	0.663348	0.102595
	H46	H	0.786287	0.337955	0.102161
	H47	H	0.785936	0.662567	0.900251
	H48	H	0.417250	0.114736	0.596336
	H49	H	0.590768	0.883933	0.598848
	H50	H	0.591492	0.112795	0.417918
	H51	H	0.399750	0.881248	0.410689
	H52	H	0.591489	0.400780	0.121774
	H53	H	0.598311	0.583481	0.884744
	H54	H	0.411458	0.597851	0.121270
	H55	H	0.406840	0.416655	0.884760
	H56	H	0.117694	0.595152	0.411790
	H57	H	0.886876	0.589169	0.596936
	H58	H	0.118548	0.408600	0.594933
	H59	H	0.885826	0.416649	0.396711
	H60	H	0.120299	0.401054	0.595170
	H61	H	0.882634	0.599565	0.599232
	H62	H	0.116810	0.590691	0.410530
	H63	H	0.881594	0.393031	0.405316
	H64	H	0.405668	0.592227	0.121576
	H65	H	0.585800	0.593964	0.885330
	H66	H	0.603945	0.411362	0.121824
	H67	H	0.419314	0.407155	0.885538
	H68	H	0.600977	0.117792	0.412273
	H69	H	0.595940	0.885354	0.587390
	H70	H	0.399897	0.116978	0.585445
	H71	H	0.408652	0.879936	0.399798
	H72	H	0.910898	0.616032	0.095152
	H73	H	0.090220	0.385451	0.092019
	H74	H	0.098476	0.619351	0.902827
	H75	H	0.908424	0.384065	0.910737
	H76	H	0.101871	0.905428	0.623957
	H77	H	0.107077	0.091596	0.378233
	H78	H	0.919199	0.099467	0.618038
	H79	H	0.904386	0.913826	0.383905
	H80	H	0.617535	0.096551	0.915626
	H81	H	0.382905	0.099036	0.099788
	H82	H	0.620781	0.902956	0.099031
	H83	H	0.386430	0.910053	0.908885
	H84	H	0.617374	0.904821	0.087010
	H85	H	0.384882	0.100188	0.092028
	H86	H	0.615183	0.087778	0.911546
	H87	H	0.383072	0.903527	0.905128
	H88	H	0.898824	0.099707	0.625411
	H89	H	0.089695	0.079060	0.387488
	H90	H	0.094428	0.917307	0.617321
	H91	H	0.916105	0.909333	0.386375
	H92	H	0.090725	0.614772	0.910677
	H93	H	0.102822	0.383233	0.085122
	H94	H	0.908593	0.615846	0.092249
	H95	H	0.907486	0.381906	0.905931
	H96	H	0.400580	0.121494	0.605538
	H97	H	0.602252	0.880538	0.596966
	H98	H	0.591138	0.116802	0.406195
	H99	H	0.412392	0.885597	0.412513
	H100	H	0.590359	0.415425	0.116203
	H101	H	0.599945	0.598513	0.879886
	H102	H	0.412489	0.590263	0.117586
	H103	H	0.405305	0.401338	0.879097
	H104	H	0.118786	0.593701	0.407766
	H105	H	0.886409	0.596745	0.588306
	H106	H	0.116676	0.405123	0.588387
	H107	H	0.891216	0.410505	0.421561
	H108	H	0.907736	0.617076	0.094705
	H109	H	0.101462	0.379227	0.099831
	H110	H	0.101798	0.617031	0.913677
	H111	H	0.911532	0.384347	0.906777
	H112	H	0.087221	0.903319	0.619616
	H113	H	0.085603	0.101580	0.381960
	H114	H	0.907801	0.081590	0.616647
	H115	H	0.907556	0.902487	0.381053
	H116	H	0.619166	0.094302	0.906056
	H117	H	0.387045	0.093291	0.095173
	H118	H	0.616526	0.914110	0.095787
	H119	H	0.385639	0.903774	0.913037
	C120	C	0.378740	0.009243	0.623808
	C121	C	0.623960	0.991611	0.624092
	C122	C	0.622955	0.007532	0.381240
	C123	C	0.379029	0.990976	0.380470
	C124	C	0.624029	0.379238	0.010661
	C125	C	0.623541	0.621310	0.992812
	C126	C	0.381366	0.621685	0.010755
	C127	C	0.381999	0.380522	0.992460
	C128	C	0.009952	0.621814	0.380430
	C129	C	0.993424	0.622989	0.623759
	C130	C	0.010356	0.377810	0.621952
	C131	C	0.993856	0.377275	0.378969
	C132	C	0.880882	0.508346	0.122527
	C133	C	0.125141	0.491076	0.122486
	C134	C	0.125515	0.508823	0.879406
	C135	C	0.880783	0.491624	0.879623
	C136	C	0.122952	0.879121	0.510753
	C137	C	0.121989	0.119927	0.492428
	C138	C	0.879350	0.121720	0.510221
	C139	C	0.880720	0.879953	0.493353
	C140	C	0.509603	0.121962	0.881464
	C141	C	0.492943	0.124415	0.125062
	C142	C	0.510127	0.879137	0.122733
	C143	C	0.492911	0.877636	0.880065
	C144	C	0.384216	0.885251	0.676530
	C145	C	0.619727	0.115291	0.679595
	C146	C	0.620162	0.884507	0.324843
	C147	C	0.382647	0.114973	0.327188
	C148	C	0.678944	0.379936	0.885976
	C149	C	0.679216	0.619953	0.117276
	C150	C	0.326330	0.619296	0.886126
	C151	C	0.326715	0.382699	0.117085
	C152	C	0.887153	0.677817	0.381759
	C153	C	0.116099	0.678039	0.622059
	C154	C	0.886939	0.323760	0.620328
	C155	C	0.116267	0.320161	0.380477
	C156	C	0.886826	0.383095	0.676510
	C157	C	0.117164	0.618240	0.677495
	C158	C	0.886851	0.618136	0.325078
	C159	C	0.117503	0.379468	0.324630
	C160	C	0.383975	0.675568	0.885805
	C161	C	0.621512	0.676611	0.117692
	C162	C	0.622574	0.322071	0.886499
	C163	C	0.384275	0.326875	0.117441
	C164	C	0.679594	0.885073	0.380904
	C165	C	0.678797	0.114626	0.623725
	C166	C	0.324912	0.885863	0.621053
	C167	C	0.323457	0.113896	0.382734
	C168	C	0.885186	0.384362	0.176241
	C169	C	0.120469	0.614500	0.178036
	C170	C	0.122305	0.385545	0.823445
	C171	C	0.885143	0.615592	0.826859
	C172	C	0.177392	0.880280	0.386090
	C173	C	0.176352	0.119250	0.617303
	C174	C	0.823293	0.119690	0.386207
	C175	C	0.825745	0.881721	0.617949
	C176	C	0.387070	0.178585	0.882725
	C177	C	0.616104	0.178465	0.123544
	C178	C	0.387785	0.823641	0.121706
	C179	C	0.615934	0.821965	0.881327
	C180	C	0.386307	0.884189	0.176290
	C181	C	0.616128	0.119614	0.180363
	C182	C	0.385824	0.118444	0.827124
	C183	C	0.616252	0.880993	0.825254
	C184	C	0.881330	0.175609	0.385403
	C185	C	0.118821	0.175670	0.617038
	C186	C	0.120789	0.822930	0.386147
	C187	C	0.883024	0.825076	0.617992
	C188	C	0.181063	0.385993	0.880270
	C189	C	0.178914	0.614350	0.121916
	C190	C	0.825091	0.385845	0.121311
	C191	C	0.824853	0.614246	0.881449
	C192	C	0.399644	0.095395	0.602262
	C193	C	0.602676	0.905513	0.601144
	C194	C	0.600671	0.093619	0.405047
	C195	C	0.400434	0.904606	0.401542
	C196	C	0.601827	0.402457	0.097434
	C197	C	0.601265	0.598640	0.905748
	C198	C	0.403336	0.599850	0.097743
	C199	C	0.404009	0.402024	0.905582
	C200	C	0.095542	0.599670	0.403307
	C201	C	0.907467	0.601525	0.601373
	C202	C	0.096109	0.398760	0.599469
	C203	C	0.908341	0.399971	0.401287
	C204	C	0.902664	0.594253	0.100422
	C205	C	0.104330	0.404886	0.099316
	C206	C	0.103492	0.595028	0.902422
	C207	C	0.902696	0.405519	0.901605
	C208	C	0.100940	0.902047	0.597793
	C209	C	0.100530	0.097383	0.405229
	C210	C	0.901938	0.099935	0.597468
	C211	C	0.902908	0.901973	0.406159
	C212	C	0.595268	0.099310	0.904325
	C213	C	0.406930	0.103589	0.102507
	C214	C	0.596050	0.900849	0.100461
	C215	C	0.407317	0.899341	0.902294
	Zn216	Zn	0.500847	0.000556	0.751888
	Zn217	Zn	0.500908	-0.000104	0.252431
	Zn218	Zn	0.751682	0.500190	0.001337
	Zn219	Zn	0.253858	0.500406	0.001636
	Zn220	Zn	0.001668	0.752192	0.501979
	Zn221	Zn	0.001167	0.248177	0.500505
	Zn222	Zn	0.002411	0.500077	0.751402
	Zn223	Zn	0.002973	0.499187	0.250473
	Zn224	Zn	0.502258	0.749160	0.001661
	Zn225	Zn	0.501888	0.252761	0.002293
	Zn226	Zn	0.752444	0.000318	0.502469
	Zn227	Zn	0.250243	-0.000313	0.501926
	N228	N	0.417180	0.962829	0.678347
	N229	N	0.586451	0.037702	0.680276
	N230	N	0.585867	0.961650	0.324836
	N231	N	0.416664	0.037448	0.325483
	N232	N	0.679966	0.414916	0.964086
	N233	N	0.680519	0.586069	0.038645
	N234	N	0.324491	0.586413	0.964829
	N235	N	0.325160	0.415528	0.038430
	N236	N	0.964614	0.680152	0.415417
	N237	N	0.038196	0.681165	0.589469
	N238	N	0.964608	0.320223	0.587277
	N239	N	0.038460	0.318678	0.413703
	N240	N	0.964481	0.415810	0.677934
	N241	N	0.039894	0.584574	0.678543
	N242	N	0.964162	0.584029	0.324249
	N243	N	0.040680	0.414484	0.323690
	N244	N	0.417515	0.676965	0.964172
	N245	N	0.587808	0.677559	0.039245
	N246	N	0.589294	0.321523	0.964962
	N247	N	0.418176	0.325587	0.039157
	N248	N	0.681407	0.962984	0.415168
	N249	N	0.681432	0.036858	0.589939
	N250	N	0.321301	0.964017	0.589213
	N251	N	0.321365	0.036065	0.415238
	N252	N	0.919271	0.461510	0.176938
	N253	N	0.087673	0.536965	0.178448
	N254	N	0.088350	0.462939	0.823018
	N255	N	0.919299	0.538367	0.825670
	N256	N	0.179021	0.914272	0.464674
	N257	N	0.178325	0.085150	0.538755
	N258	N	0.822039	0.086752	0.464823
	N259	N	0.824649	0.915465	0.539727
	N260	N	0.464948	0.180844	0.915782
	N261	N	0.538441	0.181734	0.090096
	N262	N	0.465721	0.820539	0.089053
	N263	N	0.538306	0.819543	0.914478
	N264	N	0.463549	0.917992	0.176990
	N265	N	0.538573	0.086662	0.181393
	N266	N	0.463070	0.084251	0.825949
	N267	N	0.539051	0.915229	0.824337
	N268	N	0.915281	0.177126	0.463812
	N269	N	0.085755	0.176215	0.538446
	N270	N	0.087367	0.822461	0.464580
	N271	N	0.916476	0.823780	0.539309
	N272	N	0.182879	0.463605	0.914462
	N273	N	0.181817	0.536583	0.088084
	N274	N	0.822281	0.463809	0.088725
	N275	N	0.822187	0.536083	0.913795
	O276	O	0.942025	1.010651	-0.019406
	H277	H	0.940776	1.010455	-0.021578
	H278	H	0.937607	1.009657	-0.016666
	O279	O	-0.040009	-0.003384	0.003778
	H280	H	-0.038864	-0.012146	0.003755
	H281	H	-0.049278	0.001231	-0.000207
	O282	O	0.005548	-0.026406	1.047410
	H283	H	0.010282	-0.023639	1.048400
	H284	H	0.006642	-0.018023	1.049762
	O285	O	0.534925	0.460546	0.489071
	H286	H	0.534167	0.462794	0.485722
	H287	H	0.540437	0.470212	0.495248
	O288	O	0.527976	0.415647	0.473617
	H289	H	0.537089	0.422506	0.474833
	H290	H	0.530353	0.415703	0.470645
	O291	O	0.538194	0.441494	0.509388
	H292	H	0.530753	0.438340	0.508333
	H293	H	0.535366	0.434651	0.509225
	O294	O	0.010520	0.006944	0.020127
	H295	H	0.014395	0.004194	0.019145
	H296	H	0.012328	0.011956	0.017351
	O297	O	0.522318	0.488516	0.422792
	H298	H	0.524496	0.487693	0.414424
	H299	H	0.523837	0.478161	0.417787
	O300	O	-0.029252	1.074601	0.931404
	H301	H	-0.031783	1.072552	0.931596
	H302	H	-0.031076	1.070663	0.929204
	O303	O	0.581748	0.449684	0.465741
	H304	H	0.579774	0.443585	0.467418
	H305	H	0.590895	0.450366	0.473400
	O306	O	-0.067879	-0.006529	0.978223
	H307	H	-0.066602	-0.003880	0.979379
	H308	H	-0.074321	-0.006537	0.972739
	O309	O	0.948618	0.951978	1.003375
	H310	H	0.948163	0.947143	1.000714
	H311	H	0.953866	0.949183	1.001377
	O312	O	0.525068	0.473680	0.483169
	H313	H	0.527090	0.483328	0.476282
	H314	H	0.525233	0.468907	0.477592
	O315	O	0.519228	0.399462	0.449368
	H316	H	0.526051	0.396596	0.456130
	H317	H	0.518283	0.384880	0.445696
	O318	O	-0.082123	0.991943	-0.067767
	H319	H	-0.082847	0.982240	-0.071119
	H320	H	-0.093060	0.994597	-0.069907
	O321	O	0.933340	0.984792	0.002971
	H322	H	0.938767	0.985040	0.004121
	H323	H	0.934966	0.989529	0.008640
