data_Molecule from HDF5

_cell_length_a		16.584816
_cell_length_b		16.600930
_cell_length_c		16.533818
_cell_angle_alpha	89.905488
_cell_angle_beta	89.992780
_cell_angle_gamma	90.168772
_symmetry_space_group_name_H-M	'P 1'
_symmetry_Int_Tables_number		1

loop_
	_symmetry_equiv_pos_as_xyz
	x,y,z

loop_
	_atom_site_label
	_atom_site_type_symbol
	_atom_site_fract_x
	_atom_site_fract_y
	_atom_site_fract_z
	H0	H	0.396491	0.847316	0.734017
	H1	H	0.605506	0.159367	0.735701
	H2	H	0.603680	0.846968	0.293945
	H3	H	0.393051	0.158136	0.290399
	H4	H	0.721456	0.398379	0.859832
	H5	H	0.718458	0.607509	0.172649
	H6	H	0.279753	0.607361	0.856977
	H7	H	0.280366	0.401359	0.172003
	H8	H	0.843410	0.726027	0.408444
	H9	H	0.154612	0.727829	0.621468
	H10	H	0.845577	0.281181	0.621177
	H11	H	0.154804	0.282112	0.407806
	H12	H	0.844689	0.398523	0.737287
	H13	H	0.154389	0.611220	0.738026
	H14	H	0.842948	0.608057	0.293993
	H15	H	0.156021	0.401019	0.294162
	H16	H	0.395767	0.724389	0.857304
	H17	H	0.602223	0.722899	0.172899
	H18	H	0.604700	0.282601	0.859315
	H19	H	0.392715	0.281509	0.170145
	H20	H	0.721319	0.847369	0.409112
	H21	H	0.722254	0.159137	0.619265
	H22	H	0.277315	0.848867	0.620188
	H23	H	0.274555	0.157580	0.403962
	H24	H	0.894202	0.348981	0.236576
	H25	H	0.101507	0.662203	0.232304
	H26	H	0.103411	0.350162	0.793503
	H27	H	0.891388	0.660151	0.791000
	H28	H	0.221529	0.899174	0.359041
	H29	H	0.223957	0.112431	0.669179
	H30	H	0.779194	0.107894	0.357298
	H31	H	0.777005	0.896960	0.671160
	H32	H	0.342705	0.224305	0.909044
	H33	H	0.654078	0.227114	0.120246
	H34	H	0.343089	0.782711	0.118939
	H35	H	0.657412	0.783482	0.910195
	H36	H	0.343500	0.899587	0.235079
	H37	H	0.656009	0.108497	0.235194
	H38	H	0.343925	0.108065	0.792554
	H39	H	0.657806	0.899906	0.793918
	H40	H	0.895123	0.224620	0.357305
	H41	H	0.109081	0.228521	0.668963
	H42	H	0.102504	0.784345	0.357548
	H43	H	0.890471	0.779046	0.670005
	H44	H	0.219936	0.349233	0.910111
	H45	H	0.220601	0.660627	0.117918
	H46	H	0.777479	0.349381	0.119976
	H47	H	0.777044	0.660987	0.908628
	H48	H	0.410693	0.115202	0.599926
	H49	H	0.587250	0.892721	0.601403
	H50	H	0.586352	0.116148	0.420645
	H51	H	0.410387	0.892337	0.426671
	H52	H	0.586279	0.416479	0.126109
	H53	H	0.588890	0.594261	0.902225
	H54	H	0.410657	0.591892	0.126166
	H55	H	0.407097	0.419001	0.902488
	H56	H	0.111543	0.592077	0.421947
	H57	H	0.887266	0.594007	0.603226
	H58	H	0.111698	0.418618	0.606364
	H59	H	0.888128	0.418508	0.424830
	H60	H	0.112415	0.413926	0.602512
	H61	H	0.889294	0.591304	0.599110
	H62	H	0.113119	0.598804	0.423698
	H63	H	0.885823	0.412077	0.423953
	H64	H	0.411057	0.596611	0.128338
	H65	H	0.588966	0.593181	0.902487
	H66	H	0.586384	0.415505	0.127123
	H67	H	0.414645	0.414691	0.903006
	H68	H	0.587153	0.112327	0.429681
	H69	H	0.592311	0.890577	0.602721
	H70	H	0.410077	0.116699	0.604414
	H71	H	0.412638	0.893505	0.427523
	H72	H	0.913602	0.616460	0.104912
	H73	H	0.093054	0.392174	0.101933
	H74	H	0.088250	0.616865	0.927425
	H75	H	0.913364	0.396221	0.931465
	H76	H	0.093321	0.914594	0.629477
	H77	H	0.084783	0.097735	0.402200
	H78	H	0.913619	0.098724	0.627754
	H79	H	0.910471	0.912976	0.402433
	H80	H	0.611668	0.090978	0.924110
	H81	H	0.387856	0.091537	0.101213
	H82	H	0.613164	0.914352	0.107907
	H83	H	0.387645	0.912767	0.922768
	H84	H	0.612578	0.909973	0.103670
	H85	H	0.387363	0.090441	0.103650
	H86	H	0.612384	0.097028	0.926907
	H87	H	0.388919	0.913209	0.926715
	H88	H	0.904807	0.091679	0.628698
	H89	H	0.092496	0.091815	0.400969
	H90	H	0.085770	0.920473	0.624568
	H91	H	0.908876	0.916895	0.402615
	H92	H	0.088117	0.616762	0.928019
	H93	H	0.092385	0.388987	0.109836
	H94	H	0.906556	0.617044	0.101178
	H95	H	0.904901	0.392570	0.927841
	H96	H	0.414473	0.115199	0.603188
	H97	H	0.588184	0.891396	0.607287
	H98	H	0.594961	0.117075	0.425616
	H99	H	0.411091	0.893367	0.429129
	H100	H	0.587491	0.416075	0.127020
	H101	H	0.587971	0.593708	0.902600
	H102	H	0.407014	0.593777	0.128070
	H103	H	0.407628	0.410967	0.899723
	H104	H	0.109973	0.594278	0.428306
	H105	H	0.888724	0.588716	0.603818
	H106	H	0.110249	0.418981	0.600395
	H107	H	0.888735	0.414105	0.430278
	H108	H	0.907430	0.619488	0.108105
	H109	H	0.085539	0.392297	0.105849
	H110	H	0.088973	0.616278	0.927990
	H111	H	0.912575	0.392828	0.922288
	H112	H	0.084170	0.910966	0.627409
	H113	H	0.084803	0.088954	0.405466
	H114	H	0.914306	0.088419	0.623601
	H115	H	0.912981	0.916122	0.403788
	H116	H	0.609455	0.092751	0.930441
	H117	H	0.387096	0.093311	0.103572
	H118	H	0.611219	0.915711	0.102408
	H119	H	0.389256	0.915880	0.923938
	C120	C	0.378988	0.012810	0.635172
	C121	C	0.621896	0.994821	0.636100
	C122	C	0.621441	0.011921	0.393141
	C123	C	0.378475	0.995320	0.393393
	C124	C	0.619400	0.383637	0.023600
	C125	C	0.620139	0.625276	1.006486
	C126	C	0.378222	0.625516	0.023222
	C127	C	0.377907	0.382757	1.005511
	C128	C	0.007990	0.626641	0.392733
	C129	C	0.991032	0.625081	0.635443
	C130	C	0.009008	0.383450	0.636398
	C131	C	0.991070	0.383402	0.393884
	C132	C	0.877352	0.513930	0.136734
	C133	C	0.121454	0.495196	0.136713
	C134	C	0.119983	0.513457	0.894862
	C135	C	0.877294	0.496454	0.893398
	C136	C	0.119829	0.883394	0.523329
	C137	C	0.121132	0.125786	0.505637
	C138	C	0.878892	0.124740	0.522885
	C139	C	0.877552	0.882051	0.506167
	C140	C	0.507862	0.125247	0.893809
	C141	C	0.490389	0.124973	0.136080
	C142	C	0.508592	0.881735	0.136221
	C143	C	0.492292	0.882677	0.893162
	C144	C	0.377150	0.894716	0.694730
	C145	C	0.624058	0.112482	0.695515
	C146	C	0.622513	0.893805	0.333819
	C147	C	0.374830	0.111569	0.330802
	C148	C	0.680301	0.380907	0.906231
	C149	C	0.678794	0.626036	0.125484
	C150	C	0.319316	0.626571	0.904313
	C151	C	0.319330	0.381626	0.124462
	C152	C	0.890257	0.685876	0.390586
	C153	C	0.107906	0.686959	0.639187
	C154	C	0.891974	0.321881	0.639453
	C155	C	0.108429	0.323092	0.390674
	C156	C	0.891587	0.380309	0.696864
	C157	C	0.107903	0.629290	0.697168
	C158	C	0.889897	0.627331	0.333560
	C159	C	0.108873	0.382277	0.334104
	C160	C	0.377016	0.684522	0.904434
	C161	C	0.621258	0.683658	0.125361
	C162	C	0.622239	0.323408	0.905995
	C163	C	0.375090	0.322198	0.123547
	C164	C	0.681059	0.894190	0.390973
	C165	C	0.682105	0.112448	0.637764
	C166	C	0.318226	0.895283	0.637884
	C167	C	0.316150	0.111356	0.387634
	C168	C	0.875311	0.396012	0.196833
	C169	C	0.121672	0.614311	0.194040
	C170	C	0.121775	0.396366	0.834149
	C171	C	0.874060	0.613399	0.831907
	C172	C	0.180488	0.880964	0.405487
	C173	C	0.183017	0.129643	0.622509
	C174	C	0.818871	0.126824	0.404712
	C175	C	0.816521	0.878327	0.623950
	C176	C	0.389849	0.184278	0.891077
	C177	C	0.607731	0.186267	0.138631
	C178	C	0.390336	0.822461	0.137829
	C179	C	0.610403	0.823570	0.891817
	C180	C	0.390406	0.880343	0.195637
	C181	C	0.608610	0.127299	0.195570
	C182	C	0.390524	0.126754	0.832894
	C183	C	0.610613	0.881542	0.833985
	C184	C	0.876435	0.185067	0.404723
	C185	C	0.125925	0.187526	0.622551
	C186	C	0.121936	0.823633	0.405077
	C187	C	0.873453	0.820113	0.623373
	C188	C	0.179968	0.395953	0.891526
	C189	C	0.180457	0.613941	0.137083
	C190	C	0.817702	0.396106	0.138760
	C191	C	0.816802	0.613671	0.890250
	C192	C	0.404343	0.094514	0.609619
	C193	C	0.596485	0.912800	0.610992
	C194	C	0.596774	0.093847	0.417997
	C195	C	0.404125	0.914207	0.420229
	C196	C	0.593980	0.408893	0.105576
	C197	C	0.595641	0.600816	0.923921
	C198	C	0.402573	0.601068	0.105995
	C199	C	0.402704	0.407712	0.923104
	C200	C	0.090170	0.602070	0.417507
	C201	C	0.909469	0.598801	0.609393
	C202	C	0.090167	0.409689	0.610532
	C203	C	0.908913	0.407951	0.419216
	C204	C	0.902053	0.596212	0.111938
	C205	C	0.097354	0.412800	0.112944
	C206	C	0.095351	0.595327	0.920561
	C207	C	0.902890	0.415173	0.919543
	C208	C	0.094911	0.908300	0.605519
	C209	C	0.094848	0.100144	0.424132
	C210	C	0.903726	0.100011	0.605032
	C211	C	0.903405	0.908028	0.424135
	C212	C	0.589676	0.100608	0.919732
	C213	C	0.408781	0.099181	0.110401
	C214	C	0.590762	0.906247	0.111653
	C215	C	0.410068	0.907040	0.917647
	Zn216	Zn	0.500517	0.003945	0.764327
	Zn217	Zn	0.499959	0.003339	0.264482
	Zn218	Zn	0.748658	0.504990	0.014852
	Zn219	Zn	0.249833	0.504439	0.014713
	Zn220	Zn	-0.001390	0.754465	0.515179
	Zn221	Zn	0.000093	0.254205	0.515069
	Zn222	Zn	-0.000414	0.505198	0.765521
	Zn223	Zn	-0.000960	0.504623	0.264593
	Zn224	Zn	0.499840	0.753741	0.014274
	Zn225	Zn	0.498736	0.254282	0.014402
	Zn226	Zn	0.750175	0.002986	0.514655
	Zn227	Zn	0.249498	0.004400	0.514308
	N228	N	0.414036	0.968874	0.693403
	N229	N	0.587521	0.038273	0.694537
	N230	N	0.586184	0.968019	0.334872
	N231	N	0.412951	0.038411	0.334220
	N232	N	0.678481	0.417988	0.980301
	N233	N	0.678589	0.590775	0.050261
	N234	N	0.319659	0.590856	0.979402
	N235	N	0.320696	0.418641	0.050056
	N236	N	0.964914	0.685786	0.426404
	N237	N	0.034094	0.684529	0.601609
	N238	N	0.966001	0.323472	0.602569
	N239	N	0.033979	0.323606	0.426878
	N240	N	0.965348	0.417745	0.695231
	N241	N	0.033976	0.591746	0.695174
	N242	N	0.964275	0.591224	0.334530
	N243	N	0.034745	0.419011	0.335759
	N244	N	0.412707	0.684114	0.979373
	N245	N	0.585704	0.683367	0.050413
	N246	N	0.584914	0.324973	0.980117
	N247	N	0.410680	0.322737	0.048579
	N248	N	0.680563	0.968602	0.427037
	N249	N	0.680753	0.038183	0.601485
	N250	N	0.318906	0.969778	0.601854
	N251	N	0.318194	0.038035	0.425899
	N252	N	0.911875	0.470383	0.195627
	N253	N	0.086085	0.539558	0.194318
	N254	N	0.085369	0.470503	0.836103
	N255	N	0.910786	0.539271	0.833340
	N256	N	0.179431	0.917042	0.480155
	N257	N	0.180297	0.091944	0.548788
	N258	N	0.819782	0.090370	0.479312
	N259	N	0.818865	0.915981	0.549949
	N260	N	0.463898	0.183613	0.928078
	N261	N	0.533245	0.185146	0.102458
	N262	N	0.464910	0.822968	0.101724
	N263	N	0.535604	0.823882	0.927623
	N264	N	0.464961	0.916353	0.194895
	N265	N	0.534584	0.090035	0.194170
	N266	N	0.464980	0.090496	0.834534
	N267	N	0.536150	0.917703	0.834613
	N268	N	0.912920	0.184137	0.479260
	N269	N	0.088140	0.185306	0.548794
	N270	N	0.085137	0.824841	0.479456
	N271	N	0.910500	0.822165	0.548988
	N272	N	0.179019	0.469796	0.928640
	N273	N	0.181067	0.538615	0.102658
	N274	N	0.818616	0.470497	0.102439
	N275	N	0.818260	0.539796	0.927456
	O276	O	-0.719148	0.544867	-0.705285
	H277	H	-0.724697	0.532493	-0.711096
	H278	H	-0.730096	0.531110	-0.713753
	O279	O	0.340032	0.434843	0.621197
	H280	H	0.338347	0.455102	0.617104
	H281	H	0.347324	0.437210	0.614008
	O282	O	0.784422	-0.030946	1.228345
	H283	H	0.786256	-0.033968	1.235192
	H284	H	0.772265	-0.044271	1.247889
	O285	O	0.220053	-0.026464	-0.205210
	H286	H	0.217200	-0.035841	-0.215018
	H287	H	0.234634	-0.040807	-0.222045
	O288	O	0.444625	0.544106	0.480282
	H289	H	0.454011	0.538886	0.477145
	H290	H	0.452871	0.555953	0.489390
	O291	O	0.421836	0.701367	0.562572
	H292	H	0.407935	0.704789	0.559416
	H293	H	0.423042	0.703732	0.568686
	O294	O	1.188155	0.003626	1.130984
	H295	H	1.180972	0.002698	1.108263
	H296	H	1.203111	0.021356	1.135399
	O297	O	0.247811	0.178387	0.838071
	H298	H	0.250456	0.187825	0.823361
	H299	H	0.249803	0.181565	0.837681
	O300	O	-0.194253	0.031391	0.802439
	H301	H	-0.213007	0.026262	0.783359
	H302	H	-0.176653	0.005490	0.805940
	O303	O	0.581233	0.285589	0.574537
	H304	H	0.576345	0.278548	0.592362
	H305	H	0.607763	0.280765	0.568852
	O306	O	1.289826	0.294917	0.305292
	H307	H	1.306117	0.315825	0.330014
	H308	H	1.312472	0.305809	0.306689
	O309	O	0.456540	0.572327	0.722926
	H310	H	0.459636	0.570033	0.709849
	H311	H	0.479700	0.593851	0.736986
	O312	O	0.560747	0.452362	0.740070
	H313	H	0.559965	0.459496	0.738914
	H314	H	0.574475	0.451768	0.744149
	O315	O	0.782014	1.020986	1.034797
	H316	H	0.779589	1.013308	1.052752
	H317	H	0.777611	0.997321	1.024353
	O318	O	0.303584	0.432679	0.439296
	H319	H	0.312456	0.434441	0.446939
	H320	H	0.304810	0.434014	0.451387
	O321	O	0.149907	0.850014	0.023735
	H322	H	0.149461	0.836761	0.028472
	H323	H	0.141989	0.861320	0.034321
	O324	O	0.694269	0.700514	-0.287736
	H325	H	0.702475	0.708879	-0.336716
	H326	H	0.711960	0.672735	-0.273317
	O327	O	0.011435	0.230824	0.874756
	H328	H	-0.000678	0.232536	0.874831
	H329	H	0.005687	0.245710	0.856733
	O330	O	0.446895	0.274710	0.439064
	H331	H	0.430758	0.274180	0.457208
	H332	H	0.453339	0.270443	0.444457
	O333	O	0.686895	0.675125	0.331202
	H334	H	0.681494	0.652162	0.353005
	H335	H	0.667005	0.672595	0.347791
	O336	O	1.697493	0.308799	-0.287019
	H337	H	1.713042	0.285183	-0.263784
	H338	H	1.684916	0.304369	-0.283985
	O339	O	1.277410	-0.471553	0.518226
	H340	H	1.284490	-0.461841	0.509853
	H341	H	1.282532	-0.460286	0.515723
	O342	O	0.154139	0.017714	-0.057137
	H343	H	0.158024	0.012762	-0.053621
	H344	H	0.162255	0.020511	-0.067730
	O345	O	-0.204378	0.801159	1.214879
	H346	H	-0.224800	0.795270	1.240798
	H347	H	-0.152783	0.795297	1.223622
	O348	O	0.532276	-0.279784	0.734043
	H349	H	0.541747	-0.253828	0.749894
	H350	H	0.571816	-0.277128	0.732927
	O351	O	0.935591	0.911226	-0.105332
	H352	H	0.940677	0.910246	-0.100020
	H353	H	0.950496	0.915626	-0.103816
	O354	O	-0.002115	0.219057	1.000499
	H355	H	0.004147	0.226200	1.007482
	H356	H	0.011207	0.224505	0.992731
	O357	O	0.283652	0.283312	0.532630
	H358	H	0.266451	0.279406	0.541784
	H359	H	0.270580	0.286061	0.549745
	O360	O	0.286726	0.359801	0.711128
	H361	H	0.309671	0.369083	0.705297
	H362	H	0.272127	0.377540	0.726973
	O363	O	-0.221201	-0.217035	0.046171
	H364	H	-0.246218	-0.243084	0.065546
	H365	H	-0.217176	-0.214410	0.081402
	O366	O	1.193618	0.834816	0.180179
	H367	H	1.190054	0.843647	0.168081
	H368	H	1.187593	0.851493	0.185313
	O369	O	0.292143	0.713124	0.311857
	H370	H	0.282264	0.680314	0.307636
	H371	H	0.284777	0.723338	0.299123
	O372	O	1.193060	0.789380	-0.001530
	H373	H	1.197627	0.787385	-0.013180
	H374	H	1.183955	0.783323	-0.014782
	O375	O	0.799539	0.204608	-0.188852
	H376	H	0.807602	0.196302	-0.160922
	H377	H	0.805627	0.167632	-0.182148
	O378	O	0.275707	0.729204	0.480523
	H379	H	0.246912	0.757410	0.478582
	H380	H	0.276338	0.721294	0.455068
	O381	O	-0.043997	1.109984	0.823609
	H382	H	-0.041903	1.129497	0.817534
	H383	H	-0.039586	1.083135	0.822669
	O384	O	1.178868	0.187878	1.210328
	H385	H	1.206520	0.221861	1.235937
	H386	H	1.169741	0.181144	1.187132
	O387	O	0.797445	1.144677	0.038984
	H388	H	0.809408	1.142686	0.043038
	H389	H	0.793454	1.136941	0.058210
	O390	O	0.465149	0.725821	0.297620
	H391	H	0.430432	0.725532	0.295437
	H392	H	0.463468	0.745236	0.275665
	O393	O	-0.040012	-0.080543	-0.156174
	H394	H	-0.039914	-0.067111	-0.146728
	H395	H	-0.050033	-0.078523	-0.152144
	O396	O	-0.558049	1.451082	0.297453
	H397	H	-0.557687	1.471797	0.286481
	H398	H	-0.529260	1.450545	0.305893
	O399	O	0.715971	0.473630	0.301639
	H400	H	0.721335	0.464669	0.297549
	H401	H	0.734013	0.479277	0.298239
	O402	O	0.729184	0.443397	0.577327
	H403	H	0.723690	0.420373	0.590471
	H404	H	0.730974	0.422883	0.577752
	O405	O	1.164514	0.136021	0.864281
	H406	H	1.155876	0.134235	0.871138
	H407	H	1.168879	0.137727	0.854539
	O408	O	-0.014837	-0.167069	-0.202043
	H409	H	-0.012412	-0.186212	-0.210831
	H410	H	-0.018536	-0.174223	-0.192939
	O411	O	-0.298374	1.301581	1.310148
	H412	H	-0.283176	1.292733	1.293451
	H413	H	-0.335596	1.313055	1.302111
	O414	O	0.492419	0.455422	0.512752
	H415	H	0.500952	0.449843	0.522311
	H416	H	0.508742	0.448496	0.499627
	O417	O	0.620977	0.673455	0.554498
	H418	H	0.617289	0.671893	0.545226
	H419	H	0.624475	0.680630	0.545579
	O420	O	0.716054	0.535935	0.731813
	H421	H	0.723700	0.525543	0.736559
	H422	H	0.734129	0.535713	0.740426
	O423	O	0.533696	-0.710985	0.301997
	H424	H	0.533472	-0.726469	0.286076
	H425	H	0.517753	-0.712300	0.311808
	O426	O	-0.014034	0.026869	0.062745
	H427	H	-0.012673	0.041588	0.055576
	H428	H	-0.010533	0.022199	0.055968
	O429	O	1.030748	1.225287	1.232731
	H430	H	1.054053	1.239554	1.253230
	H431	H	1.033809	1.219760	1.246166
	O432	O	0.951856	0.890673	-0.037230
	H433	H	0.958275	0.888526	-0.039060
	H434	H	0.954133	0.878002	-0.034876
	O435	O	-0.122612	1.213352	0.021413
	H436	H	-0.100366	1.215141	0.016081
	H437	H	-0.115647	1.215459	0.035897
	O438	O	-0.098048	0.103353	0.224866
	H439	H	-0.091745	0.096149	0.222287
	H440	H	-0.107350	0.106900	0.215664
	O441	O	0.214086	0.217360	0.053190
	H442	H	0.233418	0.219637	0.042432
	H443	H	0.219882	0.212778	0.058724
	O444	O	0.482791	0.290934	0.727199
	H445	H	0.479236	0.308943	0.730148
	H446	H	0.475857	0.267762	0.736914
	O447	O	-0.092107	0.928598	0.907398
	H448	H	-0.087131	0.915298	0.905677
	H449	H	-0.092919	0.924843	0.910000
	O450	O	-0.279293	0.611540	1.490812
	H451	H	-0.280100	0.609509	1.494966
	H452	H	-0.279342	0.601722	1.493871
	O453	O	0.551985	0.726061	0.478160
	H454	H	0.545736	0.724112	0.473454
	H455	H	0.542033	0.721142	0.464036
	O456	O	-0.029921	-0.215308	1.158123
	H457	H	-0.029559	-0.218522	1.167105
	H458	H	-0.024197	-0.196581	1.168521
	O459	O	1.002963	0.971786	0.214126
	H460	H	1.014673	0.979566	0.207002
	H461	H	0.999350	0.989768	0.205038
	O462	O	0.498529	0.611694	0.588851
	H463	H	0.510162	0.585999	0.602679
	H464	H	0.512052	0.620302	0.584077
	O465	O	1.156761	-0.003098	0.233513
	H466	H	1.163786	0.019057	0.237065
	H467	H	1.160878	0.009142	0.225522
	O468	O	0.722752	0.283820	0.479838
	H469	H	0.724912	0.277073	0.456279
	H470	H	0.737693	0.264568	0.458093
	O471	O	0.022802	-0.019399	0.999225
	H472	H	0.024550	-0.027004	0.999700
	H473	H	0.044833	-0.022286	0.993720
	O474	O	0.330597	0.586786	0.684989
	H475	H	0.359334	0.599042	0.689656
	H476	H	0.326654	0.582042	0.677734
	O477	O	0.541211	0.589926	1.316193
	H478	H	0.530500	0.603524	1.302228
	H479	H	0.549172	0.584680	1.323268
	O480	O	0.552429	0.431399	0.504245
	H481	H	0.551510	0.425784	0.514482
	H482	H	0.560549	0.425926	0.497827
	O483	O	0.854179	1.152887	1.107886
	H484	H	0.857080	1.146013	1.087033
	H485	H	0.866084	1.142416	1.100324
	O486	O	0.996220	-0.163399	1.062745
	H487	H	0.984066	-0.168503	1.073216
	H488	H	1.006240	-0.147495	1.072311
	O489	O	1.203545	0.803766	-0.186425
	H490	H	1.226486	0.786865	-0.203146
	H491	H	1.175895	0.804599	-0.173842
