data_Molecule from HDF5

_cell_length_a		16.241026
_cell_length_b		16.295502
_cell_length_c		16.226368
_cell_angle_alpha	89.812212
_cell_angle_beta	90.002173
_cell_angle_gamma	90.021261
_symmetry_space_group_name_H-M	'P 1'
_symmetry_Int_Tables_number		1

loop_
	_symmetry_equiv_pos_as_xyz
	x,y,z

loop_
	_atom_site_label
	_atom_site_type_symbol
	_atom_site_fract_x
	_atom_site_fract_y
	_atom_site_fract_z
	H0	H	0.405408	0.837134	0.717267
	H1	H	0.599900	0.165279	0.715668
	H2	H	0.601262	0.836952	0.289411
	H3	H	0.404540	0.164370	0.286863
	H4	H	0.716706	0.403764	0.837538
	H5	H	0.717680	0.598755	0.165560
	H6	H	0.289229	0.598911	0.837465
	H7	H	0.290031	0.401533	0.165540
	H8	H	0.838627	0.717465	0.401492
	H9	H	0.166509	0.714799	0.600124
	H10	H	0.838599	0.287211	0.600459
	H11	H	0.166819	0.286776	0.402619
	H12	H	0.838607	0.404419	0.715347
	H13	H	0.166801	0.598570	0.715012
	H14	H	0.838463	0.600193	0.286752
	H15	H	0.167406	0.403573	0.288880
	H16	H	0.402731	0.716414	0.838336
	H17	H	0.601874	0.713240	0.166103
	H18	H	0.602537	0.286651	0.837613
	H19	H	0.405320	0.286764	0.165488
	H20	H	0.717427	0.837334	0.405968
	H21	H	0.716623	0.165321	0.600426
	H22	H	0.288158	0.837313	0.601652
	H23	H	0.289031	0.164905	0.402900
	H24	H	0.905348	0.337694	0.216521
	H25	H	0.100696	0.664680	0.214967
	H26	H	0.101212	0.336951	0.788103
	H27	H	0.905070	0.664826	0.787472
	H28	H	0.216607	0.904644	0.337448
	H29	H	0.215566	0.097989	0.666979
	H30	H	0.787805	0.100598	0.338700
	H31	H	0.791193	0.903935	0.667130
	H32	H	0.339709	0.216001	0.901728
	H33	H	0.666313	0.215104	0.100871
	H34	H	0.337985	0.785636	0.101174
	H35	H	0.666824	0.786768	0.904064
	H36	H	0.338504	0.902435	0.216829
	H37	H	0.667264	0.096298	0.214460
	H38	H	0.339396	0.098462	0.788503
	H39	H	0.667430	0.902421	0.788922
	H40	H	0.904055	0.216342	0.337623
	H41	H	0.101153	0.214359	0.666177
	H42	H	0.101972	0.787076	0.337997
	H43	H	0.904584	0.786690	0.666043
	H44	H	0.215659	0.336442	0.904544
	H45	H	0.218125	0.663941	0.099346
	H46	H	0.789445	0.337291	0.099964
	H47	H	0.789309	0.664331	0.903437
	H48	H	0.408533	0.117418	0.594458
	H49	H	0.594232	0.883145	0.603783
	H50	H	0.591302	0.116235	0.407068
	H51	H	0.397979	0.883440	0.417283
	H52	H	0.593500	0.407203	0.117720
	H53	H	0.604703	0.591778	0.882810
	H54	H	0.412615	0.599549	0.119604
	H55	H	0.400886	0.401552	0.879192
	H56	H	0.119563	0.594710	0.407365
	H57	H	0.886016	0.595837	0.588752
	H58	H	0.117874	0.406700	0.586700
	H59	H	0.884723	0.410125	0.403848
	H60	H	0.119469	0.413853	0.600313
	H61	H	0.885749	0.589171	0.597441
	H62	H	0.119958	0.596298	0.409505
	H63	H	0.885235	0.402786	0.412171
	H64	H	0.403248	0.590920	0.120279
	H65	H	0.589811	0.588887	0.888605
	H66	H	0.596595	0.404863	0.119640
	H67	H	0.407957	0.417030	0.886470
	H68	H	0.598160	0.116633	0.413018
	H69	H	0.591438	0.887431	0.589972
	H70	H	0.407961	0.118765	0.597281
	H71	H	0.411012	0.881402	0.396967
	H72	H	0.907125	0.619036	0.097026
	H73	H	0.092602	0.386668	0.090937
	H74	H	0.093318	0.614188	0.915736
	H75	H	0.910430	0.383426	0.906795
	H76	H	0.085979	0.917779	0.613052
	H77	H	0.099724	0.091141	0.385269
	H78	H	0.901114	0.093585	0.621558
	H79	H	0.905879	0.904007	0.382576
	H80	H	0.621921	0.089951	0.901372
	H81	H	0.382772	0.099293	0.098566
	H82	H	0.619445	0.895359	0.084331
	H83	H	0.385423	0.906839	0.909301
	H84	H	0.615014	0.920791	0.092990
	H85	H	0.387855	0.095333	0.087742
	H86	H	0.622578	0.102985	0.909472
	H87	H	0.386791	0.907858	0.911391
	H88	H	0.915511	0.088493	0.616240
	H89	H	0.091470	0.093126	0.386533
	H90	H	0.090011	0.893251	0.621997
	H91	H	0.907696	0.916714	0.386063
	H92	H	0.105263	0.619470	0.908459
	H93	H	0.104101	0.381990	0.095491
	H94	H	0.913972	0.616842	0.095340
	H95	H	0.910683	0.385141	0.910165
	H96	H	0.410887	0.117598	0.596978
	H97	H	0.604746	0.883223	0.594162
	H98	H	0.599210	0.119768	0.404735
	H99	H	0.421444	0.890147	0.416839
	H100	H	0.597462	0.408981	0.118951
	H101	H	0.593814	0.603218	0.882146
	H102	H	0.415055	0.587881	0.115718
	H103	H	0.418795	0.402582	0.884752
	H104	H	0.117953	0.594097	0.410183
	H105	H	0.883435	0.599209	0.598456
	H106	H	0.123970	0.398986	0.599513
	H107	H	0.888697	0.412370	0.413763
	H108	H	0.908993	0.616204	0.090377
	H109	H	0.093523	0.382811	0.102913
	H110	H	0.092211	0.618409	0.901116
	H111	H	0.907288	0.383395	0.908389
	H112	H	0.110461	0.910825	0.622468
	H113	H	0.096520	0.098594	0.383758
	H114	H	0.914114	0.103728	0.620927
	H115	H	0.917907	0.908688	0.386971
	H116	H	0.617651	0.089218	0.916514
	H117	H	0.386237	0.087811	0.096848
	H118	H	0.624819	0.901154	0.110240
	H119	H	0.386341	0.908824	0.909280
	C120	C	0.381373	0.009515	0.624229
	C121	C	0.624679	0.993063	0.624121
	C122	C	0.624905	0.009457	0.380479
	C123	C	0.381574	0.992776	0.381073
	C124	C	0.624772	0.379122	0.010144
	C125	C	0.624654	0.622378	0.993102
	C126	C	0.381504	0.621500	0.010073
	C127	C	0.381523	0.378993	0.992625
	C128	C	0.010919	0.623697	0.379980
	C129	C	0.993861	0.622580	0.623138
	C130	C	0.011680	0.378934	0.623954
	C131	C	0.994792	0.380360	0.381062
	C132	C	0.881248	0.509663	0.123705
	C133	C	0.125213	0.491825	0.124040
	C134	C	0.124587	0.509070	0.880527
	C135	C	0.881571	0.492362	0.880168
	C136	C	0.124438	0.879694	0.510433
	C137	C	0.124414	0.122762	0.493608
	C138	C	0.881470	0.123883	0.510979
	C139	C	0.882113	0.880675	0.493738
	C140	C	0.511858	0.122185	0.880655
	C141	C	0.494236	0.121942	0.123107
	C142	C	0.511281	0.877452	0.124715
	C143	C	0.494370	0.879046	0.881029
	C144	C	0.384385	0.886101	0.679479
	C145	C	0.621489	0.116217	0.678851
	C146	C	0.622222	0.886027	0.326530
	C147	C	0.383915	0.115754	0.324961
	C148	C	0.679530	0.382376	0.886524
	C149	C	0.679946	0.619164	0.116655
	C150	C	0.326503	0.619588	0.886715
	C151	C	0.327393	0.381561	0.116328
	C152	C	0.887431	0.678956	0.381877
	C153	C	0.117741	0.676899	0.619991
	C154	C	0.887778	0.324686	0.621017
	C155	C	0.118059	0.325202	0.383123
	C156	C	0.887709	0.382946	0.677965
	C157	C	0.117769	0.619143	0.677409
	C158	C	0.887393	0.620733	0.325031
	C159	C	0.118267	0.383325	0.326309
	C160	C	0.383057	0.677920	0.887076
	C161	C	0.622109	0.676146	0.117067
	C162	C	0.622408	0.324614	0.886420
	C163	C	0.384722	0.324308	0.116337
	C164	C	0.679895	0.886354	0.384665
	C165	C	0.679198	0.116312	0.621441
	C166	C	0.326164	0.886293	0.622116
	C167	C	0.326731	0.116080	0.382847
	C168	C	0.884207	0.386423	0.178873
	C169	C	0.121469	0.615827	0.177554
	C170	C	0.121405	0.385822	0.825779
	C171	C	0.884745	0.615736	0.825394
	C172	C	0.179445	0.883149	0.386862
	C173	C	0.178789	0.119249	0.617477
	C174	C	0.826100	0.121266	0.387499
	C175	C	0.828188	0.883324	0.617860
	C176	C	0.388677	0.177745	0.882287
	C177	C	0.617558	0.177031	0.121161
	C178	C	0.387354	0.823179	0.121746
	C179	C	0.618004	0.824431	0.883822
	C180	C	0.387513	0.881215	0.179231
	C181	C	0.618043	0.117888	0.177405
	C182	C	0.388360	0.119409	0.825964
	C183	C	0.618222	0.881684	0.826417
	C184	C	0.883420	0.178899	0.387021
	C185	C	0.121625	0.176914	0.617127
	C186	C	0.122303	0.825162	0.386873
	C187	C	0.884278	0.824855	0.617227
	C188	C	0.178496	0.385385	0.883486
	C189	C	0.179836	0.615341	0.120265
	C190	C	0.826620	0.386366	0.121155
	C191	C	0.827075	0.615666	0.882927
	C192	C	0.402760	0.095758	0.602596
	C193	C	0.603078	0.906936	0.602550
	C194	C	0.602760	0.095391	0.401814
	C195	C	0.403534	0.907287	0.403823
	C196	C	0.602459	0.400936	0.096577
	C197	C	0.602624	0.600978	0.906824
	C198	C	0.403837	0.599166	0.096367
	C199	C	0.402931	0.400614	0.905799
	C200	C	0.096942	0.601568	0.402388
	C201	C	0.907470	0.601062	0.601196
	C202	C	0.098089	0.400257	0.602135
	C203	C	0.908443	0.402121	0.403313
	C204	C	0.903364	0.595329	0.101058
	C205	C	0.103236	0.406088	0.102840
	C206	C	0.103348	0.595306	0.902032
	C207	C	0.903009	0.406075	0.902007
	C208	C	0.102193	0.900937	0.596814
	C209	C	0.102363	0.100764	0.407329
	C210	C	0.903940	0.101718	0.597263
	C211	C	0.904107	0.903023	0.407478
	C212	C	0.598346	0.100431	0.902792
	C213	C	0.407837	0.100504	0.100962
	C214	C	0.597652	0.899171	0.102325
	C215	C	0.408289	0.901266	0.903306
	Zn216	Zn	0.503350	0.000969	0.753045
	Zn217	Zn	0.502449	0.000652	0.251768
	Zn218	Zn	0.752936	0.500881	0.001689
	Zn219	Zn	0.253166	0.499877	0.001509
	Zn220	Zn	0.002279	0.751470	0.501847
	Zn221	Zn	0.003128	0.251020	0.501522
	Zn222	Zn	0.003209	0.501154	0.751659
	Zn223	Zn	0.002885	0.501261	0.252506
	Zn224	Zn	0.502949	0.750072	0.002079
	Zn225	Zn	0.503119	0.251044	0.001234
	Zn226	Zn	0.753667	0.001671	0.503697
	Zn227	Zn	0.252429	0.001353	0.502380
	N228	N	0.417906	0.963615	0.680937
	N229	N	0.588249	0.038369	0.680673
	N230	N	0.588528	0.963368	0.323948
	N231	N	0.417418	0.038289	0.323927
	N232	N	0.681136	0.415551	0.964465
	N233	N	0.681424	0.586219	0.038702
	N234	N	0.325391	0.585285	0.964241
	N235	N	0.325345	0.414965	0.038319
	N236	N	0.965239	0.680984	0.415252
	N237	N	0.039724	0.679338	0.586895
	N238	N	0.965860	0.321955	0.588065
	N239	N	0.040310	0.323450	0.416568
	N240	N	0.965622	0.415861	0.679863
	N241	N	0.039821	0.586350	0.679426
	N242	N	0.965174	0.587325	0.323462
	N243	N	0.040470	0.416967	0.325078
	N244	N	0.416729	0.679121	0.964890
	N245	N	0.588573	0.678165	0.039269
	N246	N	0.589195	0.322521	0.964396
	N247	N	0.417881	0.322914	0.038390
	N248	N	0.681446	0.964096	0.417784
	N249	N	0.681364	0.038848	0.588510
	N250	N	0.324086	0.963950	0.588518
	N251	N	0.324728	0.038579	0.416751
	N252	N	0.917349	0.464088	0.180590
	N253	N	0.088217	0.538172	0.180096
	N254	N	0.088656	0.463817	0.823740
	N255	N	0.917771	0.538047	0.823500
	N256	N	0.180426	0.916464	0.464567
	N257	N	0.180478	0.086072	0.539643
	N258	N	0.824754	0.087728	0.465462
	N259	N	0.826733	0.917319	0.540154
	N260	N	0.466632	0.179428	0.915689
	N261	N	0.539734	0.179430	0.087799
	N262	N	0.465293	0.820836	0.088697
	N263	N	0.540098	0.822795	0.917273
	N264	N	0.465667	0.913967	0.181357
	N265	N	0.540360	0.084222	0.178398
	N266	N	0.465811	0.085454	0.825087
	N267	N	0.540346	0.915082	0.824542
	N268	N	0.917008	0.180423	0.464769
	N269	N	0.088707	0.179234	0.538989
	N270	N	0.088890	0.822790	0.464897
	N271	N	0.917328	0.823322	0.539184
	N272	N	0.180354	0.462733	0.917164
	N273	N	0.182272	0.537497	0.087889
	N274	N	0.824672	0.463924	0.087455
	N275	N	0.825025	0.537917	0.916256
	O276	O	-0.010073	-0.040644	0.983145
	H277	H	-0.008492	-0.037542	0.980098
	H278	H	-0.017658	-0.044795	0.987561
	O279	O	0.458505	0.587033	0.443738
	H280	H	0.459804	0.593146	0.433620
	H281	H	0.455899	0.587002	0.442441
	O282	O	0.464672	0.559706	0.397469
	H283	H	0.462924	0.551118	0.390286
	H284	H	0.459388	0.556596	0.397604
	O285	O	0.468974	0.564088	0.421520
	H286	H	0.468871	0.564784	0.418847
	H287	H	0.473701	0.559228	0.420942
	O288	O	0.461122	0.521238	0.422905
	H289	H	0.461714	0.527221	0.424500
	H290	H	0.457299	0.526998	0.421261
	O291	O	-0.032912	0.962928	0.967999
	H292	H	-0.029805	0.959356	0.966019
	H293	H	-0.036224	0.960825	0.964060
	O294	O	0.439798	0.545976	0.382268
	H295	H	0.442155	0.549860	0.388181
	H296	H	0.429673	0.547905	0.375342
	O297	O	0.961144	-0.035872	-0.038490
	H298	H	0.959698	-0.031027	-0.038025
	H299	H	0.961913	-0.040929	-0.038750
