data_Molecule from HDF5

_cell_length_a		16.313226
_cell_length_b		16.162479
_cell_length_c		16.198535
_cell_angle_alpha	89.055366
_cell_angle_beta	90.440699
_cell_angle_gamma	89.279603
_symmetry_space_group_name_H-M	'P 1'
_symmetry_Int_Tables_number		1

loop_
	_symmetry_equiv_pos_as_xyz
	x,y,z

loop_
	_atom_site_label
	_atom_site_type_symbol
	_atom_site_fract_x
	_atom_site_fract_y
	_atom_site_fract_z
	H0	H	0.400514	0.834614	0.720240
	H1	H	0.594545	0.162582	0.711726
	H2	H	0.599428	0.832267	0.292096
	H3	H	0.397426	0.161233	0.283850
	H4	H	0.714792	0.396265	0.839663
	H5	H	0.712480	0.591767	0.166754
	H6	H	0.277832	0.601560	0.841018
	H7	H	0.287942	0.394967	0.168241
	H8	H	0.837757	0.717133	0.398576
	H9	H	0.163954	0.705683	0.601043
	H10	H	0.835242	0.281621	0.604266
	H11	H	0.162041	0.280499	0.409113
	H12	H	0.834144	0.397110	0.719241
	H13	H	0.161198	0.591247	0.720406
	H14	H	0.836971	0.601340	0.284090
	H15	H	0.162237	0.395463	0.291720
	H16	H	0.395058	0.715443	0.839292
	H17	H	0.596574	0.705514	0.167771
	H18	H	0.595196	0.286748	0.836483
	H19	H	0.404178	0.279556	0.166354
	H20	H	0.717818	0.834056	0.403787
	H21	H	0.713567	0.161158	0.601718
	H22	H	0.286298	0.832527	0.605520
	H23	H	0.278835	0.159854	0.396840
	H24	H	0.902364	0.332640	0.221575
	H25	H	0.094899	0.660571	0.214995
	H26	H	0.096458	0.330707	0.795322
	H27	H	0.893422	0.659916	0.783810
	H28	H	0.214779	0.895961	0.338875
	H29	H	0.216876	0.095763	0.664222
	H30	H	0.780597	0.103379	0.339449
	H31	H	0.785051	0.893114	0.665997
	H32	H	0.335808	0.216532	0.899153
	H33	H	0.662433	0.205788	0.097634
	H34	H	0.335055	0.781502	0.103983
	H35	H	0.660490	0.777892	0.904995
	H36	H	0.336492	0.895919	0.220747
	H37	H	0.661041	0.095412	0.217379
	H38	H	0.335657	0.101886	0.782263
	H39	H	0.661761	0.896220	0.789104
	H40	H	0.895803	0.217861	0.340399
	H41	H	0.097115	0.204301	0.668074
	H42	H	0.098888	0.783631	0.338666
	H43	H	0.902242	0.778435	0.665869
	H44	H	0.216113	0.333698	0.905675
	H45	H	0.213413	0.659265	0.105155
	H46	H	0.786866	0.331491	0.106095
	H47	H	0.777449	0.659276	0.898852
	H48	H	0.410933	0.111819	0.587713
	H49	H	0.591208	0.878964	0.599397
	H50	H	0.591146	0.116827	0.405383
	H51	H	0.404962	0.877783	0.408263
	H52	H	0.599942	0.393641	0.123928
	H53	H	0.596222	0.581639	0.885152
	H54	H	0.408534	0.597125	0.122957
	H55	H	0.413900	0.407698	0.887693
	H56	H	0.119278	0.595203	0.407206
	H57	H	0.882697	0.597069	0.585236
	H58	H	0.112735	0.406347	0.599518
	H59	H	0.880832	0.401409	0.408791
	H60	H	0.117419	0.397978	0.607632
	H61	H	0.887353	0.578721	0.589833
	H62	H	0.114010	0.588145	0.416780
	H63	H	0.884688	0.408076	0.420272
	H64	H	0.395600	0.584331	0.122663
	H65	H	0.578085	0.584150	0.890268
	H66	H	0.595076	0.405742	0.118822
	H67	H	0.398286	0.402270	0.881908
	H68	H	0.584778	0.113360	0.407417
	H69	H	0.590110	0.881189	0.592899
	H70	H	0.398085	0.114817	0.583918
	H71	H	0.411326	0.880732	0.412445
	H72	H	0.899806	0.614682	0.093585
	H73	H	0.090972	0.378308	0.099744
	H74	H	0.094244	0.617127	0.907697
	H75	H	0.899053	0.377062	0.916795
	H76	H	0.103444	0.898598	0.623273
	H77	H	0.088373	0.079610	0.388523
	H78	H	0.900699	0.096797	0.624700
	H79	H	0.909158	0.918022	0.389294
	H80	H	0.615048	0.089423	0.906878
	H81	H	0.381098	0.095409	0.088924
	H82	H	0.613101	0.904108	0.095667
	H83	H	0.382799	0.917238	0.900351
	H84	H	0.615418	0.900036	0.098567
	H85	H	0.384417	0.083940	0.087870
	H86	H	0.615597	0.090542	0.904438
	H87	H	0.378555	0.896102	0.907825
	H88	H	0.898172	0.079071	0.620327
	H89	H	0.079851	0.096108	0.385419
	H90	H	0.091766	0.912332	0.616319
	H91	H	0.913825	0.902503	0.386470
	H92	H	0.079019	0.613007	0.905771
	H93	H	0.094982	0.377860	0.096783
	H94	H	0.906525	0.613783	0.095144
	H95	H	0.906774	0.376537	0.906433
	H96	H	0.402563	0.116871	0.596969
	H97	H	0.596419	0.879240	0.595995
	H98	H	0.589996	0.113050	0.412559
	H99	H	0.404697	0.879763	0.415245
	H100	H	0.586308	0.394564	0.119289
	H101	H	0.587883	0.597997	0.883204
	H102	H	0.412014	0.580244	0.117058
	H103	H	0.399827	0.417813	0.887289
	H104	H	0.114989	0.582718	0.404310
	H105	H	0.879559	0.589968	0.602556
	H106	H	0.114308	0.394005	0.596940
	H107	H	0.884316	0.414857	0.408013
	H108	H	0.904498	0.612402	0.088493
	H109	H	0.095082	0.377170	0.100570
	H110	H	0.085606	0.610696	0.920258
	H111	H	0.911615	0.381883	0.917435
	H112	H	0.085715	0.894365	0.618581
	H113	H	0.097115	0.093157	0.381852
	H114	H	0.914953	0.086917	0.617797
	H115	H	0.898427	0.907443	0.382648
	H116	H	0.615336	0.092244	0.906639
	H117	H	0.380884	0.087630	0.098278
	H118	H	0.614552	0.899011	0.093809
	H119	H	0.387802	0.911712	0.921769
	C120	C	0.376625	0.006230	0.621882
	C121	C	0.620413	0.988558	0.623517
	C122	C	0.619455	0.006123	0.381241
	C123	C	0.376255	0.987685	0.379695
	C124	C	0.621327	0.372410	0.011313
	C125	C	0.617270	0.615426	0.994313
	C126	C	0.374228	0.619520	0.012704
	C127	C	0.377422	0.376852	0.994317
	C128	C	0.008593	0.620381	0.379018
	C129	C	0.990962	0.615957	0.623165
	C130	C	0.006596	0.372182	0.628855
	C131	C	0.990533	0.376718	0.384101
	C132	C	0.876817	0.504954	0.124148
	C133	C	0.120480	0.486812	0.126115
	C134	C	0.117301	0.505093	0.883935
	C135	C	0.874819	0.487119	0.881785
	C136	C	0.122165	0.874048	0.511085
	C137	C	0.118354	0.116364	0.493993
	C138	C	0.875074	0.119385	0.512312
	C139	C	0.878759	0.876850	0.493877
	C140	C	0.507273	0.121131	0.876808
	C141	C	0.490051	0.116450	0.121108
	C142	C	0.506756	0.872890	0.125773
	C143	C	0.490180	0.876433	0.881323
	C144	C	0.380286	0.883043	0.680852
	C145	C	0.616272	0.113002	0.675995
	C146	C	0.619178	0.881660	0.328552
	C147	C	0.376820	0.111539	0.321698
	C148	C	0.676406	0.376331	0.888220
	C149	C	0.674512	0.612503	0.117840
	C150	C	0.316432	0.620832	0.889731
	C151	C	0.324986	0.376069	0.118599
	C152	C	0.886446	0.678295	0.379473
	C153	C	0.114388	0.668816	0.621541
	C154	C	0.883728	0.318972	0.624705
	C155	C	0.113430	0.319296	0.387888
	C156	C	0.883305	0.376323	0.682344
	C157	C	0.112994	0.612148	0.681045
	C158	C	0.885819	0.620466	0.322487
	C159	C	0.113404	0.376308	0.329530
	C160	C	0.375025	0.677051	0.888980
	C161	C	0.616437	0.668747	0.118410
	C162	C	0.616989	0.321623	0.886697
	C163	C	0.382287	0.318337	0.117534
	C164	C	0.678167	0.882687	0.383958
	C165	C	0.675113	0.112180	0.620790
	C166	C	0.323310	0.881997	0.623847
	C167	C	0.318334	0.111218	0.378341
	C168	C	0.881135	0.381568	0.182633
	C169	C	0.116376	0.611172	0.178909
	C170	C	0.116668	0.380624	0.831380
	C171	C	0.874347	0.610753	0.822695
	C172	C	0.177028	0.876524	0.387777
	C173	C	0.177093	0.114517	0.616159
	C174	C	0.818589	0.121724	0.388935
	C175	C	0.823404	0.874866	0.617131
	C176	C	0.384588	0.178490	0.878482
	C177	C	0.613286	0.169449	0.118879
	C178	C	0.384377	0.818508	0.124148
	C179	C	0.611967	0.817313	0.883862
	C180	C	0.384870	0.875571	0.182189
	C181	C	0.612544	0.114139	0.178235
	C182	C	0.384596	0.121413	0.820348
	C183	C	0.612712	0.876458	0.826594
	C184	C	0.875994	0.178924	0.389481
	C185	C	0.117142	0.168393	0.618228
	C186	C	0.119350	0.820390	0.387705
	C187	C	0.881565	0.817746	0.616858
	C188	C	0.176224	0.382119	0.886204
	C189	C	0.175013	0.610429	0.124299
	C190	C	0.823757	0.380959	0.124943
	C191	C	0.816571	0.610449	0.879874
	C192	C	0.397582	0.092361	0.596802
	C193	C	0.598963	0.902196	0.602432
	C194	C	0.595581	0.092133	0.402162
	C195	C	0.400016	0.901549	0.404648
	C196	C	0.600123	0.392144	0.098230
	C197	C	0.594143	0.594187	0.908534
	C198	C	0.398436	0.594621	0.098610
	C199	C	0.398096	0.401755	0.907924
	C200	C	0.093958	0.595843	0.402492
	C201	C	0.905448	0.594919	0.599394
	C202	C	0.092603	0.393101	0.607697
	C203	C	0.905286	0.401023	0.405891
	C204	C	0.897502	0.591181	0.099571
	C205	C	0.099796	0.400374	0.105229
	C206	C	0.093483	0.591205	0.905098
	C207	C	0.898835	0.400952	0.906412
	C208	C	0.100052	0.895525	0.597206
	C209	C	0.095083	0.095604	0.407437
	C210	C	0.898077	0.094745	0.598554
	C211	C	0.900630	0.902071	0.408228
	C212	C	0.593052	0.097579	0.899489
	C213	C	0.404308	0.095184	0.098190
	C214	C	0.592167	0.894709	0.102849
	C215	C	0.405050	0.901245	0.903448
	Zn216	Zn	0.498386	-0.001558	0.750137
	Zn217	Zn	0.498797	-0.003657	0.252316
	Zn218	Zn	0.747229	0.495503	0.003224
	Zn219	Zn	0.246897	0.497162	0.004643
	Zn220	Zn	0.000446	0.747304	0.501867
	Zn221	Zn	-0.001608	0.245393	0.505095
	Zn222	Zn	-0.002606	0.495378	0.755119
	Zn223	Zn	-0.000601	0.496800	0.252738
	Zn224	Zn	0.497599	0.745201	0.003691
	Zn225	Zn	0.498802	0.246626	0.001139
	Zn226	Zn	0.747971	-0.002690	0.502864
	Zn227	Zn	0.248573	-0.003893	0.501565
	N228	N	0.412771	0.961249	0.679874
	N229	N	0.582936	0.035275	0.677929
	N230	N	0.583423	0.959222	0.326515
	N231	N	0.412027	0.033743	0.322390
	N232	N	0.679185	0.407075	0.966891
	N233	N	0.675191	0.579793	0.039932
	N234	N	0.315748	0.585727	0.967829
	N235	N	0.321771	0.411718	0.040762
	N236	N	0.963800	0.678386	0.413742
	N237	N	0.037294	0.671476	0.586379
	N238	N	0.961474	0.316009	0.592253
	N239	N	0.036088	0.319352	0.421305
	N240	N	0.960835	0.408494	0.685079
	N241	N	0.035227	0.580094	0.682053
	N242	N	0.962945	0.585071	0.321961
	N243	N	0.036154	0.411505	0.327153
	N244	N	0.409824	0.676584	0.966500
	N245	N	0.581709	0.670892	0.040731
	N246	N	0.583519	0.318961	0.964367
	N247	N	0.414174	0.318707	0.039127
	N248	N	0.678529	0.960955	0.415995
	N249	N	0.677858	0.033668	0.589113
	N250	N	0.321086	0.959462	0.587726
	N251	N	0.317680	0.033029	0.413386
	N252	N	0.913501	0.459704	0.182075
	N253	N	0.083052	0.533359	0.180336
	N254	N	0.080418	0.457977	0.830050
	N255	N	0.909708	0.532928	0.823624
	N256	N	0.179019	0.909175	0.465745
	N257	N	0.178039	0.082949	0.537729
	N258	N	0.817955	0.085452	0.466251
	N259	N	0.821457	0.911065	0.539633
	N260	N	0.461918	0.178573	0.912721
	N261	N	0.536320	0.170851	0.083900
	N262	N	0.461243	0.816761	0.089859
	N263	N	0.534701	0.817134	0.917093
	N264	N	0.462064	0.908535	0.183476
	N265	N	0.534874	0.081778	0.179699
	N266	N	0.461961	0.086534	0.819141
	N267	N	0.535738	0.912474	0.824772
	N268	N	0.910362	0.177781	0.467457
	N269	N	0.081016	0.169552	0.541285
	N270	N	0.085986	0.818748	0.465294
	N271	N	0.915134	0.818832	0.539268
	N272	N	0.176605	0.460394	0.918308
	N273	N	0.177854	0.532191	0.092183
	N274	N	0.821029	0.458733	0.089068
	N275	N	0.816612	0.532615	0.915583
	O276	O	0.956610	1.021105	-0.033590
	H277	H	0.948078	1.041032	-0.032057
	H278	H	0.954058	1.020851	-0.043769
	O279	O	0.612678	0.435771	0.522655
	H280	H	0.621227	0.434831	0.514215
	H281	H	0.602911	0.429635	0.519192
	O282	O	0.884486	0.966637	-0.016717
	H283	H	0.876537	0.976538	-0.021740
	H284	H	0.902141	0.968349	-0.018172
	O285	O	0.908371	-0.076562	1.043415
	H286	H	0.909979	-0.070623	1.039173
	H287	H	0.918518	-0.077803	1.048968
	O288	O	0.490437	0.470644	0.521476
	H289	H	0.493154	0.487790	0.508332
	H290	H	0.490438	0.467988	0.514197
	O291	O	0.487942	0.567397	0.575572
	H292	H	0.505853	0.571899	0.587831
	H293	H	0.492806	0.570690	0.571596
	O294	O	0.488797	0.590358	0.405331
	H295	H	0.488926	0.580933	0.406311
	H296	H	0.489409	0.594934	0.406517
	O297	O	0.086533	0.077349	1.008320
	H298	H	0.088033	0.071312	1.005490
	H299	H	0.077520	0.082177	0.990085
	O300	O	0.546688	0.584902	0.550566
	H301	H	0.557634	0.585767	0.553293
	H302	H	0.541185	0.585169	0.550257
	O303	O	1.043592	1.030744	-0.050287
	H304	H	1.049833	1.019701	-0.043152
	H305	H	1.038746	1.036247	-0.051710
	O306	O	0.094407	1.013659	1.102477
	H307	H	0.096629	1.018535	1.095216
	H308	H	0.099702	1.016734	1.089597
	O309	O	0.383286	0.538967	0.459918
	H310	H	0.380783	0.537484	0.466462
	H311	H	0.379279	0.543023	0.454957
	O312	O	0.005726	-0.003937	-0.156762
	H313	H	0.001985	-0.006086	-0.157741
	H314	H	-0.005900	-0.002359	-0.155740
	O315	O	1.079987	0.110558	0.067887
	H316	H	1.080326	0.113830	0.062009
	H317	H	1.081765	0.118982	0.058676
	O318	O	0.933288	0.866369	1.014814
	H319	H	0.930410	0.856665	1.019923
	H320	H	0.927589	0.873226	1.015241
	O321	O	0.008658	-0.054035	0.969100
	H322	H	0.017785	-0.049373	0.961108
	H323	H	-0.003670	-0.052762	0.964672
	O324	O	0.495310	0.437329	0.473353
	H325	H	0.502678	0.454237	0.462055
	H326	H	0.486240	0.445940	0.477722
	O327	O	0.022164	-0.163727	-0.028754
	H328	H	0.019179	-0.167581	-0.032130
	H329	H	0.030612	-0.168143	-0.032644
	O330	O	0.483761	0.527873	0.532460
	H331	H	0.487835	0.532217	0.536002
	H332	H	0.483605	0.523849	0.532265
	O333	O	0.099014	0.954354	1.108782
	H334	H	0.104373	0.935593	1.111904
	H335	H	0.099260	0.956578	1.107905
	O336	O	-0.071347	0.118148	-0.123136
	H337	H	-0.068723	0.132738	-0.121723
	H338	H	-0.081928	0.114059	-0.111293
	O339	O	0.563477	0.459310	0.466135
	H340	H	0.576711	0.447815	0.460517
	H341	H	0.565559	0.459373	0.466062
	O342	O	1.031459	0.961869	0.969665
	H343	H	1.032940	0.957636	0.970342
	H344	H	1.031318	0.955559	0.967052
	O345	O	1.025956	0.992766	-0.097015
	H346	H	1.018393	0.986987	-0.095730
	H347	H	1.026972	0.989610	-0.089691
	O348	O	0.499028	0.436477	0.587473
	H349	H	0.496102	0.425412	0.596776
	H350	H	0.488922	0.433904	0.592150
	O351	O	0.409965	0.642578	0.385986
	H352	H	0.407702	0.642800	0.391470
	H353	H	0.395858	0.642459	0.393600
	O354	O	0.448996	0.446429	0.442166
	H355	H	0.441850	0.448849	0.443181
	H356	H	0.452767	0.449667	0.451258
	O357	O	0.887642	0.027985	1.107178
	H358	H	0.896126	0.006505	1.113053
	H359	H	0.884346	0.025572	1.122551
	O360	O	0.505352	0.503644	0.616511
	H361	H	0.512239	0.509982	0.620223
	H362	H	0.511505	0.499101	0.621427
	O363	O	0.435615	0.634904	0.485138
	H364	H	0.432000	0.622138	0.487422
	H365	H	0.447081	0.638314	0.495708
	O366	O	0.932365	1.008691	1.090749
	H367	H	0.937963	1.000483	1.098551
	H368	H	0.933930	1.008774	1.098029
	O369	O	1.029029	0.003352	0.907687
	H370	H	1.029598	0.005560	0.909907
	H371	H	1.039465	0.003813	0.909573
	O372	O	0.049641	0.110837	0.028259
	H373	H	0.057028	0.115666	0.042834
	H374	H	0.038159	0.114943	0.031499
	O375	O	0.947900	-0.116041	0.082794
	H376	H	0.958637	-0.122475	0.089694
	H377	H	0.948951	-0.116936	0.068330
	O378	O	0.456840	0.495008	0.507647
	H379	H	0.449979	0.494009	0.500596
	H380	H	0.461229	0.502379	0.497448
	O381	O	0.592253	0.534935	0.462786
	H382	H	0.587252	0.533164	0.459659
	H383	H	0.598473	0.538707	0.462167
