data_Molecule from HDF5

_cell_length_a		16.512587
_cell_length_b		16.523415
_cell_length_c		16.550723
_cell_angle_alpha	89.805680
_cell_angle_beta	90.037977
_cell_angle_gamma	89.981591
_symmetry_space_group_name_H-M	'P 1'
_symmetry_Int_Tables_number		1

loop_
	_symmetry_equiv_pos_as_xyz
	x,y,z

loop_
	_atom_site_label
	_atom_site_type_symbol
	_atom_site_fract_x
	_atom_site_fract_y
	_atom_site_fract_z
	H0	H	0.404115	0.863977	0.729067
	H1	H	0.617128	0.176745	0.728512
	H2	H	0.614866	0.863996	0.286112
	H3	H	0.405669	0.177753	0.283508
	H4	H	0.733155	0.416762	0.849237
	H5	H	0.731391	0.623601	0.162335
	H6	H	0.288576	0.627186	0.848997
	H7	H	0.290250	0.414791	0.162335
	H8	H	0.854568	0.740781	0.401936
	H9	H	0.167035	0.746010	0.614931
	H10	H	0.855251	0.300588	0.610284
	H11	H	0.169795	0.299138	0.400772
	H12	H	0.855350	0.416026	0.727926
	H13	H	0.168204	0.628601	0.729809
	H14	H	0.855687	0.626271	0.284618
	H15	H	0.169805	0.415717	0.284190
	H16	H	0.403821	0.744785	0.848897
	H17	H	0.614577	0.739541	0.162469
	H18	H	0.615432	0.300838	0.847957
	H19	H	0.403874	0.296280	0.160974
	H20	H	0.731342	0.864271	0.403359
	H21	H	0.731754	0.178673	0.610673
	H22	H	0.287612	0.864398	0.613523
	H23	H	0.289899	0.178119	0.400833
	H24	H	0.907680	0.364324	0.227387
	H25	H	0.117889	0.677845	0.227130
	H26	H	0.119515	0.365386	0.782368
	H27	H	0.904175	0.677791	0.782503
	H28	H	0.233644	0.914391	0.350621
	H29	H	0.235244	0.127962	0.662250
	H30	H	0.790762	0.126211	0.349422
	H31	H	0.788139	0.916100	0.663133
	H32	H	0.353994	0.243272	0.898769
	H33	H	0.669744	0.238144	0.105978
	H34	H	0.354506	0.798266	0.111139
	H35	H	0.669036	0.800010	0.900595
	H36	H	0.354501	0.914314	0.227185
	H37	H	0.668316	0.123634	0.224971
	H38	H	0.353424	0.127053	0.782787
	H39	H	0.669190	0.916872	0.785339
	H40	H	0.907877	0.242369	0.349186
	H41	H	0.117786	0.243258	0.662690
	H42	H	0.115638	0.799225	0.351013
	H43	H	0.902570	0.797116	0.662720
	H44	H	0.233221	0.364052	0.900847
	H45	H	0.234680	0.677542	0.111343
	H46	H	0.790504	0.364390	0.111034
	H47	H	0.787994	0.677581	0.898240
	H48	H	0.424907	0.134190	0.600711
	H49	H	0.604114	0.907652	0.595219
	H50	H	0.599970	0.134992	0.410160
	H51	H	0.422447	0.909244	0.419052
	H52	H	0.600452	0.435062	0.116261
	H53	H	0.605654	0.611894	0.891203
	H54	H	0.425590	0.607073	0.115376
	H55	H	0.416387	0.439368	0.893232
	H56	H	0.125685	0.613686	0.418615
	H57	H	0.900785	0.609022	0.593503
	H58	H	0.124804	0.434515	0.595930
	H59	H	0.899533	0.430629	0.414252
	H60	H	0.125084	0.431267	0.594493
	H61	H	0.901170	0.606478	0.594360
	H62	H	0.123404	0.608161	0.420839
	H63	H	0.900088	0.430798	0.416273
	H64	H	0.424068	0.611994	0.117658
	H65	H	0.598490	0.604654	0.894722
	H66	H	0.595549	0.425807	0.117848
	H67	H	0.430884	0.435062	0.897253
	H68	H	0.598775	0.133067	0.416958
	H69	H	0.595536	0.909353	0.598365
	H70	H	0.430703	0.127303	0.588609
	H71	H	0.419485	0.907407	0.414681
	H72	H	0.924488	0.633067	0.095044
	H73	H	0.097264	0.411028	0.090822
	H74	H	0.092579	0.630668	0.915808
	H75	H	0.920234	0.408151	0.917633
	H76	H	0.101992	0.931281	0.619955
	H77	H	0.104814	0.106398	0.394108
	H78	H	0.924359	0.109501	0.617875
	H79	H	0.920775	0.933726	0.394845
	H80	H	0.623966	0.114602	0.917120
	H81	H	0.399532	0.104621	0.094284
	H82	H	0.626031	0.929806	0.099994
	H83	H	0.399049	0.933459	0.915099
	H84	H	0.623335	0.928270	0.091545
	H85	H	0.396158	0.111803	0.097173
	H86	H	0.620580	0.106134	0.919494
	H87	H	0.398766	0.930541	0.916537
	H88	H	0.922369	0.112899	0.619699
	H89	H	0.095824	0.107984	0.396257
	H90	H	0.098763	0.938760	0.616560
	H91	H	0.923622	0.931113	0.395734
	H92	H	0.101010	0.630679	0.924967
	H93	H	0.105914	0.407610	0.093892
	H94	H	0.920063	0.633587	0.092937
	H95	H	0.924081	0.408803	0.915789
	H96	H	0.416029	0.132856	0.588464
	H97	H	0.597968	0.911685	0.589405
	H98	H	0.604863	0.136374	0.414823
	H99	H	0.424868	0.908309	0.414346
	H100	H	0.605539	0.427419	0.120133
	H101	H	0.595522	0.614610	0.892555
	H102	H	0.419915	0.607690	0.117090
	H103	H	0.420895	0.424601	0.890204
	H104	H	0.125562	0.608569	0.414821
	H105	H	0.899441	0.608428	0.595825
	H106	H	0.122953	0.433697	0.592908
	H107	H	0.900358	0.432510	0.415348
	H108	H	0.920871	0.635485	0.097503
	H109	H	0.098303	0.407842	0.099853
	H110	H	0.103814	0.635912	0.914059
	H111	H	0.923557	0.410479	0.919566
	H112	H	0.093686	0.931997	0.616638
	H113	H	0.101302	0.114844	0.393054
	H114	H	0.920523	0.109105	0.619363
	H115	H	0.920532	0.929428	0.393522
	H116	H	0.624292	0.107810	0.910443
	H117	H	0.399040	0.111340	0.089352
	H118	H	0.622623	0.935937	0.095691
	H119	H	0.399720	0.932886	0.918486
	C120	C	0.390254	0.028498	0.626323
	C121	C	0.631901	1.012654	0.626877
	C122	C	0.632332	0.029910	0.384093
	C123	C	0.389649	1.012244	0.383918
	C124	C	0.632501	0.398855	0.014011
	C125	C	0.631871	0.641546	0.996794
	C126	C	0.390055	0.642290	0.013492
	C127	C	0.389872	0.399301	0.996882
	C128	C	0.020876	0.642066	0.385717
	C129	C	1.003294	0.642089	0.627987
	C130	C	0.020635	0.400474	0.626980
	C131	C	1.004028	0.399369	0.383899
	C132	C	0.890323	0.530037	0.127355
	C133	C	0.133341	0.512407	0.127194
	C134	C	0.132659	0.529349	0.884990
	C135	C	0.889764	0.512822	0.884236
	C136	C	0.131484	0.900396	0.515065
	C137	C	0.133605	0.142526	0.497773
	C138	C	0.890665	0.142621	0.514921
	C139	C	0.888801	0.898919	0.498268
	C140	C	0.519191	0.142242	0.883079
	C141	C	0.502618	0.140543	0.124951
	C142	C	0.520074	0.898794	0.127541
	C143	C	0.503249	0.899840	0.884280
	C144	C	0.386497	0.910905	0.688230
	C145	C	0.634878	0.130251	0.687739
	C146	C	0.633687	0.911089	0.325770
	C147	C	0.387430	0.130701	0.323778
	C148	C	0.692481	0.397889	0.895911
	C149	C	0.691464	0.642520	0.115228
	C150	C	0.328954	0.645517	0.895985
	C151	C	0.329831	0.396305	0.114953
	C152	C	0.902009	0.701181	0.383530
	C153	C	0.120640	0.704616	0.632089
	C154	C	0.902402	0.340338	0.629134
	C155	C	0.122657	0.339450	0.382279
	C156	C	0.902404	0.397773	0.687471
	C157	C	0.121026	0.646455	0.689658
	C158	C	0.902804	0.644456	0.324865
	C159	C	0.122520	0.397374	0.324248
	C160	C	0.386295	0.704008	0.895965
	C161	C	0.633392	0.700068	0.115438
	C162	C	0.634128	0.340169	0.895407
	C163	C	0.386631	0.337557	0.114268
	C164	C	0.691513	0.911333	0.383876
	C165	C	0.692028	0.131011	0.629290
	C166	C	0.328523	0.910965	0.630740
	C167	C	0.330174	0.130994	0.382364
	C168	C	0.888657	0.411661	0.187602
	C169	C	0.136205	0.630579	0.187184
	C170	C	0.136644	0.411970	0.823493
	C171	C	0.886667	0.630621	0.823188
	C172	C	0.192658	0.896708	0.397572
	C173	C	0.194719	0.145590	0.615457
	C174	C	0.830784	0.144840	0.396642
	C175	C	0.828309	0.897229	0.616167
	C176	C	0.401049	0.202783	0.880601
	C177	C	0.622112	0.198948	0.125491
	C178	C	0.401578	0.838615	0.129269
	C179	C	0.621846	0.840136	0.882371
	C180	C	0.401661	0.896326	0.187064
	C181	C	0.621442	0.142107	0.184521
	C182	C	0.400972	0.145200	0.822607
	C183	C	0.621727	0.898240	0.824802
	C184	C	0.889103	0.202316	0.396392
	C185	C	0.136582	0.203108	0.615771
	C186	C	0.134036	0.839531	0.397559
	C187	C	0.885113	0.837985	0.615928
	C188	C	0.193551	0.411276	0.882070
	C189	C	0.194459	0.630276	0.129839
	C190	C	0.830511	0.411612	0.129832
	C191	C	0.828692	0.630562	0.880820
	C192	C	0.416411	0.110174	0.599974
	C193	C	0.606478	0.930661	0.601481
	C194	C	0.608085	0.113156	0.407375
	C195	C	0.414866	0.929812	0.408955
	C196	C	0.607741	0.422823	0.096606
	C197	C	0.607033	0.617409	0.914430
	C198	C	0.415973	0.616463	0.095376
	C199	C	0.415333	0.425440	0.914943
	C200	C	0.103352	0.617344	0.410980
	C201	C	0.921735	0.615472	0.602082
	C202	C	0.102955	0.425834	0.601553
	C203	C	0.921336	0.424198	0.408232
	C204	C	0.914861	0.612443	0.102288
	C205	C	0.107838	0.430283	0.102165
	C206	C	0.106639	0.611002	0.910861
	C207	C	0.915419	0.430551	0.910282
	C208	C	0.105509	0.926589	0.596619
	C209	C	0.107794	0.117023	0.415975
	C210	C	0.915346	0.117641	0.597506
	C211	C	0.914301	0.924251	0.416015
	C212	C	0.601400	0.116786	0.908303
	C213	C	0.419923	0.116224	0.100593
	C214	C	0.602533	0.923859	0.102650
	C215	C	0.420595	0.924979	0.909443
	Zn216	Zn	0.510721	0.020171	0.755358
	Zn217	Zn	0.510959	0.020589	0.255570
	Zn218	Zn	0.761667	0.520910	0.005460
	Zn219	Zn	0.261278	0.520797	0.005455
	Zn220	Zn	0.010733	0.770847	0.507386
	Zn221	Zn	0.012432	0.271213	0.506247
	Zn222	Zn	0.011890	0.521176	0.756221
	Zn223	Zn	0.012552	0.521402	0.256023
	Zn224	Zn	0.511743	0.771167	0.005240
	Zn225	Zn	0.511242	0.270295	0.004964
	Zn226	Zn	0.760997	0.021984	0.505799
	Zn227	Zn	0.261394	0.020645	0.505988
	N228	N	0.424131	0.984853	0.685669
	N229	N	0.598284	0.055777	0.686397
	N230	N	0.597710	0.985995	0.325849
	N231	N	0.423367	0.055772	0.324576
	N232	N	0.691643	0.433628	0.970749
	N233	N	0.690842	0.606910	0.040376
	N234	N	0.331198	0.607679	0.969969
	N235	N	0.331694	0.434097	0.040937
	N236	N	0.976484	0.700078	0.420603
	N237	N	0.046331	0.702311	0.594725
	N238	N	0.976926	0.341839	0.592625
	N239	N	0.047892	0.340584	0.418806
	N240	N	0.977133	0.434465	0.686303
	N241	N	0.047183	0.608432	0.687107
	N242	N	0.977744	0.608474	0.325873
	N243	N	0.047669	0.433712	0.325038
	N244	N	0.423438	0.702222	0.970181
	N245	N	0.597098	0.699508	0.040854
	N246	N	0.597765	0.340667	0.969915
	N247	N	0.423347	0.339297	0.039785
	N248	N	0.690813	0.986298	0.419377
	N249	N	0.690464	0.056768	0.592180
	N250	N	0.330586	0.985279	0.593179
	N251	N	0.331110	0.056159	0.418880
	N252	N	0.924907	0.486388	0.186561
	N253	N	0.098973	0.556275	0.185708
	N254	N	0.099548	0.486335	0.825091
	N255	N	0.923893	0.556218	0.824968
	N256	N	0.191245	0.933705	0.471716
	N257	N	0.193200	0.109052	0.541143
	N258	N	0.831563	0.108535	0.471317
	N259	N	0.830350	0.934336	0.541788
	N260	N	0.475571	0.201277	0.917197
	N261	N	0.547085	0.198455	0.089491
	N262	N	0.476325	0.839922	0.092964
	N263	N	0.546983	0.840922	0.918664
	N264	N	0.476286	0.933073	0.186121
	N265	N	0.546167	0.106586	0.184398
	N266	N	0.475491	0.108120	0.823936
	N267	N	0.546855	0.934471	0.825985
	N268	N	0.925220	0.201483	0.471237
	N269	N	0.099367	0.201520	0.541485
	N270	N	0.096596	0.841877	0.471627
	N271	N	0.922030	0.839182	0.541557
	N272	N	0.191159	0.485282	0.919583
	N273	N	0.192997	0.555665	0.093486
	N274	N	0.831180	0.486245	0.093257
	N275	N	0.830429	0.556092	0.917898
	O276	O	1.399478	1.321606	0.401997
	H277	H	1.394578	1.318898	0.405561
	H278	H	1.425226	1.318568	0.404947
	O279	O	-0.204072	0.233877	0.975445
	H280	H	-0.227233	0.250753	0.962825
	H281	H	-0.203231	0.234961	0.947862
	O282	O	0.480794	0.708277	0.528656
	H283	H	0.477339	0.710598	0.531730
	H284	H	0.464887	0.707249	0.545911
	O285	O	0.084184	0.233937	0.929871
	H286	H	0.070586	0.235891	0.903619
	H287	H	0.094372	0.226803	0.943766
	O288	O	0.986844	-0.111993	0.793804
	H289	H	0.992122	-0.134005	0.772176
	H290	H	1.019576	-0.106590	0.808285
	O291	O	0.299277	0.446071	0.434468
	H292	H	0.301797	0.431846	0.435839
	H293	H	0.303165	0.456932	0.407054
	O294	O	0.207589	0.215434	0.200839
	H295	H	0.203191	0.226408	0.180824
	H296	H	0.180129	0.224533	0.202509
	O297	O	1.231375	0.043050	0.215532
	H298	H	1.234898	0.063122	0.227928
	H299	H	1.240572	0.066520	0.229347
	O300	O	0.222323	-0.191768	-0.029167
	H301	H	0.227789	-0.178043	-0.009094
	H302	H	0.234028	-0.206702	-0.019128
	O303	O	-0.052569	0.080258	0.226553
	H304	H	-0.035027	0.077306	0.221286
	H305	H	-0.067885	0.074594	0.230965
	O306	O	1.042167	0.231839	0.216478
	H307	H	1.026878	0.232561	0.224338
	H308	H	1.029978	0.245938	0.209626
	O309	O	0.678047	0.375106	0.426336
	H310	H	0.680104	0.397086	0.432582
	H311	H	0.690651	0.361939	0.434637
	O312	O	-0.284778	-0.362518	0.690117
	H313	H	-0.298659	-0.372348	0.699027
	H314	H	-0.273418	-0.346814	0.711671
	O315	O	0.439318	0.736199	0.339180
	H316	H	0.450447	0.743461	0.350175
	H317	H	0.442018	0.741440	0.334372
	O318	O	0.966846	1.213112	0.062840
	H319	H	0.946844	1.212921	0.057604
	H320	H	0.986056	1.209598	0.042506
	O321	O	0.224344	0.980903	1.041318
	H322	H	0.225929	0.982812	1.066698
	H323	H	0.223347	0.996559	1.041728
	O324	O	0.562834	0.301157	1.284694
	H325	H	0.593200	0.311587	1.289194
	H326	H	0.577914	0.271731	1.262170
	O327	O	0.564834	0.408571	0.391666
	H328	H	0.571699	0.404010	0.388432
	H329	H	0.574141	0.402580	0.403499
	O330	O	0.197564	0.828959	0.810929
	H331	H	0.196595	0.857436	0.816486
	H332	H	0.211535	0.830709	0.845201
	O333	O	0.710231	0.336834	0.300363
	H334	H	0.728160	0.344642	0.287728
	H335	H	0.727301	0.336851	0.321682
	O336	O	0.800409	0.814747	0.213533
	H337	H	0.810115	0.798733	0.215115
	H338	H	0.792432	0.805208	0.215064
	O339	O	0.530286	0.564952	0.441799
	H340	H	0.532688	0.576685	0.444179
	H341	H	0.512516	0.554075	0.445052
	O342	O	-0.530528	0.656310	-0.417244
	H343	H	-0.523685	0.653548	-0.404631
	H344	H	-0.535740	0.648136	-0.402758
	O345	O	0.522704	0.603876	0.726581
	H346	H	0.527539	0.610570	0.746434
	H347	H	0.511010	0.583602	0.730273
	O348	O	0.531214	0.571957	0.324803
	H349	H	0.526971	0.576740	0.328216
	H350	H	0.555048	0.556339	0.327206
	O351	O	-0.300642	-0.292572	1.317217
	H352	H	-0.322301	-0.292136	1.327648
	H353	H	-0.303121	-0.314978	1.338907
	O354	O	0.807195	0.058582	0.830303
	H355	H	0.802476	0.037924	0.835111
	H356	H	0.813444	0.046431	0.838958
	O357	O	0.683428	0.341559	0.686748
	H358	H	0.669712	0.361024	0.679717
	H359	H	0.685452	0.350795	0.673284
	O360	O	0.641571	0.736748	0.590767
	H361	H	0.654011	0.761316	0.603875
	H362	H	0.644148	0.726622	0.616644
	O363	O	1.015662	0.062592	-0.041359
	H364	H	1.028485	0.060493	-0.036946
	H365	H	1.006701	0.061778	-0.034278
	O366	O	0.311425	0.320428	0.706103
	H367	H	0.306474	0.344446	0.701088
	H368	H	0.300088	0.326022	0.686045
	O369	O	-0.106406	-0.046509	0.959911
	H370	H	-0.104302	-0.045305	0.971862
	H371	H	-0.098422	-0.056250	0.956439
	O372	O	0.078002	0.977005	1.228400
	H373	H	0.084303	0.984826	1.229027
	H374	H	0.082838	0.967574	1.240401
	O375	O	0.801541	-0.004565	0.212964
	H376	H	0.792015	-0.027694	0.221327
	H377	H	0.799625	-0.019497	0.217037
	O378	O	0.309899	0.715965	0.306199
	H379	H	0.335616	0.724729	0.293093
	H380	H	0.304351	0.683830	0.321746
	O381	O	0.075970	1.076630	-0.209383
	H382	H	0.081570	1.091813	-0.216345
	H383	H	0.052519	1.077551	-0.211470
	O384	O	0.299425	0.338543	0.517546
	H385	H	0.314365	0.344077	0.506644
	H386	H	0.282603	0.318803	0.507828
	O387	O	0.728972	0.503765	0.369655
	H388	H	0.726041	0.508159	0.372598
	H389	H	0.738218	0.505265	0.364920
	O390	O	-0.171227	1.062708	1.020480
	H391	H	-0.173400	1.070267	1.028170
	H392	H	-0.176472	1.063304	1.014119
	O393	O	1.224497	-0.007745	-0.206612
	H394	H	1.222564	0.004727	-0.215516
	H395	H	1.226303	-0.005283	-0.223996
	O396	O	0.451615	0.420284	0.319659
	H397	H	0.463247	0.388550	0.323787
	H398	H	0.478581	0.436925	0.319515
	O399	O	0.691989	0.638047	0.473375
	H400	H	0.688457	0.647345	0.491763
	H401	H	0.697151	0.649797	0.472395
	O402	O	0.943245	-0.060315	0.960623
	H403	H	0.936231	-0.044938	0.985909
	H404	H	0.944168	-0.078072	0.965011
	O405	O	1.227403	0.107925	-0.073819
	H406	H	1.215510	0.099224	-0.067124
	H407	H	1.231959	0.099923	-0.087774
	O408	O	0.843284	1.204989	1.170472
	H409	H	0.852298	1.183712	1.155792
	H410	H	0.849452	1.198999	1.148848
	O411	O	1.010043	1.173918	-0.162594
	H412	H	0.997914	1.185914	-0.169827
	H413	H	0.989240	1.170363	-0.165200
	O414	O	0.014040	-0.006874	0.028999
	H415	H	0.008791	-0.000198	0.042341
	H416	H	0.022987	-0.002065	0.051983
	O417	O	0.631074	0.555049	0.651932
	H418	H	0.626691	0.552272	0.648070
	H419	H	0.618087	0.547138	0.649718
	O420	O	0.854937	-0.100666	0.848958
	H421	H	0.863125	-0.109433	0.867293
	H422	H	0.875122	-0.097574	0.852893
	O423	O	0.946383	1.099467	-0.068264
	H424	H	0.938316	1.097364	-0.074198
	H425	H	0.932479	1.098686	-0.071386
	O426	O	0.725764	0.450616	0.586414
	H427	H	0.730347	0.460375	0.602650
	H428	H	0.725211	0.467313	0.560497
	O429	O	0.802193	0.213765	0.798845
	H430	H	0.798125	0.167764	0.790908
	H431	H	0.790618	0.228443	0.775214
	O432	O	0.970091	-0.187628	1.215551
	H433	H	0.975881	-0.189217	1.211938
	H434	H	0.969182	-0.206906	1.225849
	O435	O	0.533237	0.355286	0.722785
	H436	H	0.502416	0.361656	0.721988
	H437	H	0.522418	0.333322	0.744188
	O438	O	0.412863	0.622372	0.714887
	H439	H	0.396301	0.614929	0.714212
	H440	H	0.412276	0.607017	0.706932
	O441	O	0.310779	0.730596	0.513356
	H442	H	0.295378	0.759423	0.511783
	H443	H	0.325773	0.721061	0.490257
	O444	O	0.610834	0.299491	0.538260
	H445	H	0.596950	0.293029	0.559239
	H446	H	0.635656	0.292467	0.534710
	O447	O	0.067440	0.804770	0.071543
	H448	H	0.065599	0.814272	0.076174
	H449	H	0.069498	0.813802	0.061803
	O450	O	1.022489	-0.146914	-0.119395
	H451	H	1.035357	-0.152870	-0.123597
	H452	H	1.035813	-0.150130	-0.118388
	O453	O	0.552750	0.668023	0.608983
	H454	H	0.529724	0.678342	0.615946
	H455	H	0.554591	0.643210	0.604584
	O456	O	-0.672518	0.469625	0.670057
	H457	H	-0.680553	0.480707	0.662130
	H458	H	-0.694393	0.488247	0.657555
	O459	O	0.537917	0.548590	0.482269
	H460	H	0.537585	0.552167	0.476869
	H461	H	0.525771	0.539849	0.485281
	O462	O	0.498118	0.465082	0.564709
	H463	H	0.493138	0.472117	0.564615
	H464	H	0.496967	0.448159	0.559254
	O465	O	0.347095	0.505263	0.589887
	H466	H	0.344525	0.487863	0.572016
	H467	H	0.340968	0.534091	0.573819
	O468	O	-0.121270	-0.185964	0.008319
	H469	H	-0.127614	-0.198794	0.005416
	H470	H	-0.112161	-0.189797	-0.007152
	O471	O	0.221333	0.232039	0.034223
	H472	H	0.223305	0.212618	0.023455
	H473	H	0.238755	0.257040	0.033863
	O474	O	1.192572	0.841666	0.189629
	H475	H	1.171194	0.848930	0.183088
	H476	H	1.205830	0.842738	0.200274
	O477	O	0.301070	0.548043	0.296154
	H478	H	0.312669	0.547435	0.282169
	H479	H	0.303500	0.537207	0.276220
