data_Molecule from HDF5

_cell_length_a		16.111660
_cell_length_b		16.397476
_cell_length_c		16.130931
_cell_angle_alpha	89.228308
_cell_angle_beta	90.649757
_cell_angle_gamma	89.136783
_symmetry_space_group_name_H-M	'P 1'
_symmetry_Int_Tables_number		1

loop_
	_symmetry_equiv_pos_as_xyz
	x,y,z

loop_
	_atom_site_label
	_atom_site_type_symbol
	_atom_site_fract_x
	_atom_site_fract_y
	_atom_site_fract_z
	H0	H	0.411419	0.831853	0.721840
	H1	H	0.602238	0.157459	0.721489
	H2	H	0.604639	0.831722	0.294737
	H3	H	0.399684	0.155774	0.286029
	H4	H	0.712796	0.397755	0.839549
	H5	H	0.712177	0.586182	0.170707
	H6	H	0.283794	0.598197	0.839868
	H7	H	0.293170	0.399250	0.171317
	H8	H	0.839505	0.716364	0.398235
	H9	H	0.167526	0.704063	0.604028
	H10	H	0.838644	0.278556	0.605237
	H11	H	0.165793	0.277136	0.404495
	H12	H	0.835319	0.397219	0.715246
	H13	H	0.165865	0.587884	0.719801
	H14	H	0.836758	0.596369	0.290260
	H15	H	0.168328	0.398447	0.296973
	H16	H	0.392871	0.716786	0.842402
	H17	H	0.600237	0.704308	0.170226
	H18	H	0.602628	0.277868	0.842007
	H19	H	0.399823	0.276368	0.168371
	H20	H	0.719673	0.831688	0.413421
	H21	H	0.717065	0.158454	0.604362
	H22	H	0.292295	0.831303	0.607307
	H23	H	0.283935	0.156495	0.402797
	H24	H	0.906290	0.332925	0.223245
	H25	H	0.099200	0.658494	0.219250
	H26	H	0.101420	0.332159	0.793016
	H27	H	0.894247	0.655361	0.782564
	H28	H	0.218607	0.896611	0.339483
	H29	H	0.214608	0.085213	0.671109
	H30	H	0.785079	0.097817	0.341441
	H31	H	0.798017	0.897593	0.672120
	H32	H	0.338758	0.215847	0.897561
	H33	H	0.664485	0.208446	0.111156
	H34	H	0.336363	0.779861	0.108237
	H35	H	0.662769	0.774246	0.906569
	H36	H	0.336826	0.896301	0.220998
	H37	H	0.666313	0.089125	0.219798
	H38	H	0.338641	0.097817	0.786608
	H39	H	0.668273	0.896061	0.800998
	H40	H	0.896557	0.215080	0.342083
	H41	H	0.106339	0.207253	0.668499
	H42	H	0.105946	0.779493	0.339307
	H43	H	0.905493	0.775641	0.666802
	H44	H	0.221371	0.334271	0.906552
	H45	H	0.215002	0.659230	0.102704
	H46	H	0.790552	0.330979	0.105680
	H47	H	0.779511	0.656548	0.900550
	H48	H	0.401153	0.111935	0.595118
	H49	H	0.603234	0.876443	0.610349
	H50	H	0.589847	0.112256	0.403279
	H51	H	0.410359	0.876045	0.409442
	H52	H	0.595306	0.401697	0.122236
	H53	H	0.588044	0.594893	0.885743
	H54	H	0.405704	0.588618	0.123989
	H55	H	0.409833	0.401964	0.887142
	H56	H	0.117720	0.578941	0.412959
	H57	H	0.882129	0.592440	0.594686
	H58	H	0.120897	0.392826	0.596125
	H59	H	0.882982	0.395511	0.416297
	H60	H	0.116888	0.405249	0.593817
	H61	H	0.883974	0.590984	0.585860
	H62	H	0.124700	0.590426	0.403249
	H63	H	0.887654	0.411003	0.417996
	H64	H	0.409865	0.585361	0.122700
	H65	H	0.593137	0.584869	0.886556
	H66	H	0.591819	0.397503	0.123241
	H67	H	0.407844	0.408814	0.888176
	H68	H	0.587179	0.106230	0.418690
	H69	H	0.598544	0.879677	0.602958
	H70	H	0.412480	0.111539	0.603159
	H71	H	0.417552	0.880520	0.414876
	H72	H	0.909551	0.610976	0.099989
	H73	H	0.091129	0.379304	0.109110
	H74	H	0.098466	0.612605	0.912574
	H75	H	0.912638	0.381273	0.916221
	H76	H	0.085670	0.890364	0.620536
	H77	H	0.088777	0.100441	0.384518
	H78	H	0.920067	0.085753	0.620879
	H79	H	0.925039	0.918037	0.394705
	H80	H	0.620413	0.087397	0.916427
	H81	H	0.387575	0.079681	0.089699
	H82	H	0.619247	0.900602	0.101276
	H83	H	0.377170	0.899362	0.900938
	H84	H	0.619786	0.893713	0.100985
	H85	H	0.381032	0.087112	0.102648
	H86	H	0.620303	0.087407	0.917442
	H87	H	0.384511	0.897968	0.926281
	H88	H	0.912762	0.095835	0.626076
	H89	H	0.103157	0.084552	0.384486
	H90	H	0.108647	0.890389	0.626939
	H91	H	0.915657	0.888862	0.382856
	H92	H	0.084899	0.611992	0.902271
	H93	H	0.093836	0.384111	0.092594
	H94	H	0.906867	0.608827	0.090434
	H95	H	0.899916	0.376782	0.913530
	H96	H	0.412940	0.107619	0.590054
	H97	H	0.608073	0.878743	0.602600
	H98	H	0.601892	0.112242	0.414418
	H99	H	0.408749	0.878750	0.418362
	H100	H	0.597758	0.397162	0.125109
	H101	H	0.582792	0.585936	0.889517
	H102	H	0.410840	0.591166	0.124119
	H103	H	0.414456	0.406003	0.888273
	H104	H	0.121534	0.594480	0.418880
	H105	H	0.885346	0.584441	0.592705
	H106	H	0.120575	0.401431	0.604628
	H107	H	0.881165	0.405816	0.403455
	H108	H	0.899861	0.611896	0.096870
	H109	H	0.107634	0.377345	0.102586
	H110	H	0.083555	0.606500	0.918596
	H111	H	0.910031	0.376065	0.903687
	H112	H	0.098738	0.910146	0.618577
	H113	H	0.083180	0.080994	0.391567
	H114	H	0.907185	0.083897	0.624405
	H115	H	0.894305	0.913074	0.383527
	H116	H	0.619362	0.086693	0.917120
	H117	H	0.383028	0.094553	0.088635
	H118	H	0.618299	0.896397	0.095035
	H119	H	0.386603	0.921216	0.913116
	C120	C	0.382640	0.002879	0.626797
	C121	C	0.629057	0.986311	0.631383
	C122	C	0.624707	0.003026	0.384703
	C123	C	0.380552	0.985466	0.383060
	C124	C	0.623194	0.371217	0.014393
	C125	C	0.618980	0.614767	0.996262
	C126	C	0.377387	0.619124	0.014479
	C127	C	0.381473	0.375287	0.996333
	C128	C	0.011936	0.618400	0.381440
	C129	C	0.992628	0.615379	0.622811
	C130	C	0.010407	0.372102	0.626422
	C131	C	0.993269	0.375059	0.384565
	C132	C	0.879585	0.502890	0.125969
	C133	C	0.124352	0.487921	0.128065
	C134	C	0.121174	0.503484	0.883544
	C135	C	0.876212	0.485330	0.880647
	C136	C	0.126419	0.870795	0.512758
	C137	C	0.122664	0.115086	0.495831
	C138	C	0.881302	0.118548	0.514824
	C139	C	0.884372	0.875837	0.495886
	C140	C	0.511352	0.117639	0.884114
	C141	C	0.492736	0.114510	0.124933
	C142	C	0.509967	0.870528	0.128675
	C143	C	0.491737	0.874848	0.886448
	C144	C	0.388940	0.880282	0.683655
	C145	C	0.623635	0.108673	0.684674
	C146	C	0.624382	0.880548	0.331888
	C147	C	0.380383	0.107613	0.325280
	C148	C	0.676602	0.375769	0.889504
	C149	C	0.675064	0.608637	0.120991
	C150	C	0.320973	0.618215	0.889691
	C151	C	0.328300	0.377645	0.121085
	C152	C	0.888403	0.677005	0.379882
	C153	C	0.117696	0.667421	0.623624
	C154	C	0.887204	0.316938	0.624521
	C155	C	0.116939	0.317072	0.385865
	C156	C	0.885520	0.376064	0.679341
	C157	C	0.116900	0.609630	0.680856
	C158	C	0.886869	0.616890	0.326504
	C159	C	0.118237	0.377447	0.332318
	C160	C	0.374906	0.677535	0.891191
	C161	C	0.619114	0.667325	0.120793
	C162	C	0.621756	0.316179	0.890803
	C163	C	0.381545	0.316570	0.119784
	C164	C	0.681478	0.880468	0.391143
	C165	C	0.680880	0.109266	0.626259
	C166	C	0.329886	0.879960	0.626347
	C167	C	0.322624	0.107693	0.383140
	C168	C	0.884911	0.381112	0.184080
	C169	C	0.120343	0.610071	0.181933
	C170	C	0.121556	0.381011	0.829920
	C171	C	0.875104	0.606971	0.821895
	C172	C	0.181451	0.875310	0.388643
	C173	C	0.178374	0.108640	0.621007
	C174	C	0.823233	0.117661	0.390890
	C175	C	0.832979	0.876751	0.621450
	C176	C	0.387859	0.176185	0.880422
	C177	C	0.615598	0.170119	0.128127
	C178	C	0.385896	0.817101	0.127933
	C179	C	0.614708	0.814805	0.887959
	C180	C	0.386159	0.875125	0.184053
	C181	C	0.616860	0.110497	0.182134
	C182	C	0.388015	0.117672	0.825028
	C183	C	0.617422	0.875346	0.835088
	C184	C	0.878577	0.176077	0.391305
	C185	C	0.124342	0.169337	0.619660
	C186	C	0.125232	0.817098	0.388732
	C187	C	0.886459	0.816309	0.618945
	C188	C	0.181218	0.382142	0.886284
	C189	C	0.177911	0.610394	0.123790
	C190	C	0.827412	0.380106	0.125265
	C191	C	0.818411	0.607517	0.880938
	C192	C	0.402964	0.088152	0.603030
	C193	C	0.609272	0.900443	0.611224
	C194	C	0.600291	0.088248	0.406006
	C195	C	0.405050	0.900366	0.407242
	C196	C	0.601281	0.392391	0.101134
	C197	C	0.594889	0.594618	0.909555
	C198	C	0.401530	0.595369	0.101104
	C199	C	0.404028	0.398761	0.910138
	C200	C	0.098938	0.594980	0.404828
	C201	C	0.906013	0.595312	0.598298
	C202	C	0.097068	0.393391	0.604682
	C203	C	0.906250	0.397686	0.406152
	C204	C	0.899552	0.588563	0.102463
	C205	C	0.103762	0.402471	0.107349
	C206	C	0.096116	0.588353	0.904658
	C207	C	0.900539	0.400251	0.904302
	C208	C	0.104243	0.890887	0.599302
	C209	C	0.098712	0.094658	0.409311
	C210	C	0.906040	0.095182	0.601255
	C211	C	0.905545	0.899784	0.409445
	C212	C	0.597557	0.093847	0.909553
	C213	C	0.406291	0.093166	0.100705
	C214	C	0.596584	0.890945	0.105985
	C215	C	0.405178	0.899165	0.907390
	Zn216	Zn	0.504251	-0.004725	0.758460
	Zn217	Zn	0.502416	-0.006108	0.253854
	Zn218	Zn	0.748882	0.493925	0.004510
	Zn219	Zn	0.252971	0.496464	0.004871
	Zn220	Zn	0.003390	0.745101	0.502209
	Zn221	Zn	0.002724	0.245126	0.504841
	Zn222	Zn	-0.000062	0.494075	0.752765
	Zn223	Zn	0.002339	0.496096	0.256806
	Zn224	Zn	0.498851	0.744994	0.005826
	Zn225	Zn	0.500922	0.244534	0.005825
	Zn226	Zn	0.755702	-0.004100	0.506993
	Zn227	Zn	0.252052	-0.006386	0.504978
	N228	N	0.421161	0.957602	0.684094
	N229	N	0.592333	0.031316	0.688097
	N230	N	0.589811	0.957741	0.327760
	N231	N	0.415445	0.030531	0.324788
	N232	N	0.677715	0.409176	0.967368
	N233	N	0.675085	0.576649	0.042500
	N234	N	0.322111	0.582832	0.967442
	N235	N	0.328078	0.413646	0.043398
	N236	N	0.967247	0.678050	0.413155
	N237	N	0.039601	0.671207	0.588313
	N238	N	0.966029	0.314329	0.592361
	N239	N	0.038032	0.315290	0.417419
	N240	N	0.963284	0.409430	0.680889
	N241	N	0.038123	0.578047	0.680743
	N242	N	0.964789	0.581237	0.327176
	N243	N	0.040296	0.412991	0.331425
	N244	N	0.409281	0.678117	0.969785
	N245	N	0.585109	0.671432	0.042133
	N246	N	0.589520	0.313076	0.969531
	N247	N	0.413681	0.314810	0.041260
	N248	N	0.681865	0.957846	0.423300
	N249	N	0.684443	0.032023	0.593981
	N250	N	0.325849	0.957108	0.591886
	N251	N	0.322805	0.030686	0.418308
	N252	N	0.916546	0.458618	0.184694
	N253	N	0.087954	0.532859	0.184956
	N254	N	0.084961	0.457508	0.827884
	N255	N	0.910429	0.530068	0.821487
	N256	N	0.182482	0.907904	0.466741
	N257	N	0.177650	0.075727	0.542979
	N258	N	0.824493	0.082648	0.468967
	N259	N	0.831504	0.913312	0.544077
	N260	N	0.465630	0.176378	0.916599
	N261	N	0.537215	0.172700	0.093277
	N262	N	0.463771	0.814228	0.093981
	N263	N	0.535575	0.814369	0.919198
	N264	N	0.464464	0.907477	0.184873
	N265	N	0.539355	0.076652	0.180337
	N266	N	0.465887	0.081843	0.827278
	N267	N	0.540058	0.912064	0.833758
	N268	N	0.914116	0.176551	0.469163
	N269	N	0.090237	0.173332	0.540981
	N270	N	0.091985	0.813878	0.466990
	N271	N	0.917636	0.815692	0.539830
	N272	N	0.180922	0.459210	0.919009
	N273	N	0.180628	0.533435	0.091025
	N274	N	0.823889	0.456948	0.089985
	N275	N	0.819126	0.530904	0.916904
	O276	O	0.954399	1.152308	-0.046348
	H277	H	0.963251	1.141439	-0.039906
	H278	H	0.950855	1.158236	-0.042202
	O279	O	0.477977	0.591753	0.490931
	H280	H	0.480385	0.592760	0.490870
	H281	H	0.488956	0.586688	0.499631
	O282	O	0.999105	0.928916	0.006036
	H283	H	1.003272	0.935344	0.009850
	H284	H	1.003494	0.926825	0.003362
	O285	O	1.009054	-0.050081	1.150159
	H286	H	1.011405	-0.054345	1.159851
	H287	H	0.999233	-0.045368	1.138250
	O288	O	0.564133	0.534516	0.547821
	H289	H	0.558779	0.541719	0.541203
	H290	H	0.553841	0.538142	0.557796
	O291	O	0.443198	0.430356	0.519394
	H292	H	0.430155	0.428782	0.521669
	H293	H	0.438356	0.426699	0.524987
	O294	O	0.575085	0.507221	0.508051
	H295	H	0.570660	0.513069	0.508014
	H296	H	0.576970	0.492045	0.507431
	O297	O	-0.075370	0.082999	1.104414
	H298	H	-0.080156	0.085281	1.107437
	H299	H	-0.068783	0.091837	1.087801
	O300	O	0.490637	0.482283	0.490259
	H301	H	0.482107	0.488085	0.486118
	H302	H	0.502512	0.486755	0.489385
	O303	O	0.958299	0.940386	-0.129936
	H304	H	0.962359	0.930250	-0.131762
	H305	H	0.944805	0.945547	-0.135163
	O306	O	-0.094733	0.907781	0.990596
	H307	H	-0.099388	0.892655	0.986254
	H308	H	-0.102193	0.917611	0.999650
	O309	O	0.554886	0.502348	0.558515
	H310	H	0.553668	0.507123	0.559816
	H311	H	0.553842	0.502007	0.553237
	O312	O	0.117738	-0.012612	0.077488
	H313	H	0.120048	-0.017303	0.089519
	H314	H	0.115286	-0.021268	0.071420
	O315	O	1.121920	0.011984	-0.047810
	H316	H	1.122333	0.016090	-0.040053
	H317	H	1.137727	0.000398	-0.038818
	O318	O	1.139989	1.152873	1.068492
	H319	H	1.149156	1.142449	1.085228
	H320	H	1.146005	1.141447	1.074364
	O321	O	0.039348	-0.041671	1.015612
	H322	H	0.035266	-0.050040	1.008752
	H323	H	0.045587	-0.039028	1.009676
	O324	O	0.455712	0.444256	0.556993
	H325	H	0.452798	0.449924	0.553879
	H326	H	0.446091	0.435223	0.551199
	O327	O	-0.087049	0.019463	0.046473
	H328	H	-0.082052	0.023786	0.048821
	H329	H	-0.087644	0.021553	0.043866
	O330	O	0.410972	0.477573	0.495265
	H331	H	0.412470	0.487053	0.493756
	H332	H	0.410387	0.480449	0.503801
	O333	O	0.036675	0.964400	0.993507
	H334	H	0.029892	0.958868	0.996661
	H335	H	0.036978	0.960157	0.985945
	O336	O	0.082637	-0.060822	-0.022980
	H337	H	0.091397	-0.061123	-0.027521
	H338	H	0.077962	-0.068906	-0.013746
	O339	O	0.456595	0.465319	0.523028
	H340	H	0.467010	0.470433	0.520262
	H341	H	0.459351	0.464423	0.529169
	O342	O	0.898921	1.044114	0.859226
	H343	H	0.889076	1.056715	0.844733
	H344	H	0.902443	1.063235	0.861855
	O345	O	0.849830	1.014016	-0.081322
	H346	H	0.835493	1.023003	-0.066756
	H347	H	0.858833	1.008391	-0.088741
	O348	O	0.472729	0.459317	0.475252
	H349	H	0.474302	0.462580	0.483203
	H350	H	0.482355	0.460272	0.478992
	O351	O	0.085304	0.976346	-0.031325
	H352	H	0.083466	0.958859	-0.030775
	H353	H	0.083640	0.973706	-0.039275
	O354	O	0.414029	0.460336	0.538998
	H355	H	0.415710	0.460661	0.534384
	H356	H	0.419983	0.469939	0.543513
	O357	O	0.902712	0.016083	1.039488
	H358	H	0.903878	0.021542	1.044247
	H359	H	0.898467	0.014180	1.037687
	O360	O	0.548056	0.519445	0.520754
	H361	H	0.548784	0.505775	0.531095
	H362	H	0.548108	0.513356	0.518601
	O363	O	0.573471	0.534627	0.461899
	H364	H	0.570905	0.523249	0.458028
	H365	H	0.573297	0.526822	0.459520
	O366	O	1.045446	0.851082	0.976171
	H367	H	1.029132	0.859580	0.968297
	H368	H	1.043164	0.847157	0.976390
	O369	O	1.070985	-0.105729	1.025761
	H370	H	1.069501	-0.108508	1.027982
	H371	H	1.062127	-0.100941	1.020217
	O372	O	-0.078026	0.148967	-0.066888
	H373	H	-0.064717	0.160310	-0.074460
	H374	H	-0.065593	0.146578	-0.074942
	O375	O	0.985266	0.050350	0.088085
	H376	H	0.983729	0.050223	0.104548
	H377	H	0.987556	0.059919	0.079722
	O378	O	0.400800	0.568694	0.448867
	H379	H	0.390598	0.578029	0.440403
	H380	H	0.408166	0.570763	0.449050
	O381	O	0.495190	0.441719	0.472662
	H382	H	0.486886	0.437729	0.460751
	H383	H	0.495848	0.441353	0.479003
