data_Molecule from HDF5

_cell_length_a		16.469579
_cell_length_b		16.634657
_cell_length_c		16.786819
_cell_angle_alpha	89.904567
_cell_angle_beta	90.042579
_cell_angle_gamma	89.871879
_symmetry_space_group_name_H-M	'P 1'
_symmetry_Int_Tables_number		1

loop_
	_symmetry_equiv_pos_as_xyz
	x,y,z

loop_
	_atom_site_label
	_atom_site_type_symbol
	_atom_site_fract_x
	_atom_site_fract_y
	_atom_site_fract_z
	H0	H	0.379338	0.866149	0.724679
	H1	H	0.594481	0.173850	0.716297
	H2	H	0.596742	0.861773	0.274354
	H3	H	0.382582	0.173969	0.276019
	H4	H	0.706787	0.417691	0.841191
	H5	H	0.709076	0.620631	0.152104
	H6	H	0.271037	0.618585	0.840559
	H7	H	0.269785	0.416085	0.154040
	H8	H	0.832971	0.736588	0.395957
	H9	H	0.146661	0.737239	0.603943
	H10	H	0.832926	0.296369	0.600089
	H11	H	0.144955	0.292852	0.388745
	H12	H	0.833860	0.409195	0.719174
	H13	H	0.145411	0.621748	0.720039
	H14	H	0.832939	0.622422	0.278689
	H15	H	0.145732	0.410355	0.274938
	H16	H	0.386425	0.737127	0.841228
	H17	H	0.595280	0.740585	0.150210
	H18	H	0.592475	0.298174	0.843038
	H19	H	0.386482	0.299386	0.154305
	H20	H	0.709041	0.859828	0.394668
	H21	H	0.706811	0.174760	0.596017
	H22	H	0.267829	0.863056	0.604168
	H23	H	0.269881	0.174235	0.395146
	H24	H	0.883863	0.362360	0.218830
	H25	H	0.097750	0.672067	0.221187
	H26	H	0.095084	0.361536	0.776614
	H27	H	0.881457	0.670664	0.773072
	H28	H	0.216341	0.907675	0.346438
	H29	H	0.215281	0.126401	0.649592
	H30	H	0.769043	0.119573	0.341600
	H31	H	0.771811	0.915941	0.653010
	H32	H	0.330554	0.235356	0.896316
	H33	H	0.649434	0.232584	0.097048
	H34	H	0.331184	0.800494	0.098616
	H35	H	0.646047	0.796340	0.892235
	H36	H	0.331110	0.915013	0.215311
	H37	H	0.647391	0.119960	0.215947
	H38	H	0.333273	0.123936	0.776138
	H39	H	0.646968	0.913713	0.777668
	H40	H	0.882310	0.239849	0.342872
	H41	H	0.099646	0.243391	0.648535
	H42	H	0.102421	0.789082	0.348170
	H43	H	0.887287	0.797833	0.653524
	H44	H	0.208410	0.360367	0.896455
	H45	H	0.208230	0.674364	0.100219
	H46	H	0.771821	0.360346	0.097973
	H47	H	0.770351	0.673927	0.893993
	H48	H	0.398180	0.129322	0.581856
	H49	H	0.582542	0.902496	0.594909
	H50	H	0.577313	0.128862	0.402250
	H51	H	0.399753	0.906059	0.407830
	H52	H	0.582928	0.425520	0.109990
	H53	H	0.588857	0.605619	0.883365
	H54	H	0.407201	0.607097	0.104685
	H55	H	0.395300	0.423365	0.885311
	H56	H	0.100730	0.604281	0.415736
	H57	H	0.877094	0.603462	0.588881
	H58	H	0.100538	0.427267	0.579856
	H59	H	0.876108	0.427541	0.406883
	H60	H	0.100455	0.435767	0.586505
	H61	H	0.876159	0.607999	0.584912
	H62	H	0.101984	0.598776	0.405285
	H63	H	0.877980	0.429290	0.408602
	H64	H	0.397400	0.617224	0.110945
	H65	H	0.571661	0.599063	0.891867
	H66	H	0.579480	0.428896	0.107231
	H67	H	0.397111	0.429375	0.887161
	H68	H	0.575627	0.127529	0.406783
	H69	H	0.572489	0.907028	0.590081
	H70	H	0.406169	0.130021	0.591381
	H71	H	0.403463	0.905775	0.403639
	H72	H	0.896016	0.632780	0.092642
	H73	H	0.074253	0.407052	0.089435
	H74	H	0.073206	0.627706	0.907113
	H75	H	0.891766	0.403812	0.911951
	H76	H	0.074242	0.927296	0.607311
	H77	H	0.081596	0.104164	0.386533
	H78	H	0.898942	0.104656	0.606546
	H79	H	0.909318	0.924335	0.388878
	H80	H	0.600826	0.107409	0.911552
	H81	H	0.377953	0.103709	0.087461
	H82	H	0.602435	0.925619	0.084025
	H83	H	0.376207	0.930447	0.907536
	H84	H	0.601009	0.933003	0.086508
	H85	H	0.373071	0.110214	0.094260
	H86	H	0.603285	0.104471	0.901679
	H87	H	0.378761	0.930115	0.912475
	H88	H	0.902676	0.109513	0.606866
	H89	H	0.075720	0.100681	0.390570
	H90	H	0.080341	0.926727	0.609691
	H91	H	0.896392	0.917546	0.381934
	H92	H	0.078470	0.628495	0.909016
	H93	H	0.075095	0.408014	0.083843
	H94	H	0.903430	0.629165	0.090842
	H95	H	0.900667	0.401423	0.897384
	H96	H	0.409665	0.123751	0.581383
	H97	H	0.582518	0.905704	0.583715
	H98	H	0.580354	0.129198	0.406345
	H99	H	0.405212	0.908037	0.408739
	H100	H	0.577822	0.424249	0.109363
	H101	H	0.572309	0.617711	0.884677
	H102	H	0.392714	0.602924	0.108325
	H103	H	0.401548	0.424033	0.887006
	H104	H	0.105596	0.609823	0.406493
	H105	H	0.879470	0.603212	0.583404
	H106	H	0.103919	0.425874	0.589938
	H107	H	0.877166	0.430390	0.406135
	H108	H	0.897392	0.629387	0.085498
	H109	H	0.079545	0.406731	0.087007
	H110	H	0.076954	0.629542	0.903528
	H111	H	0.908022	0.409836	0.910538
	H112	H	0.078553	0.932451	0.606667
	H113	H	0.074320	0.107927	0.387170
	H114	H	0.897063	0.110104	0.609583
	H115	H	0.895355	0.932596	0.387147
	H116	H	0.606117	0.114348	0.904959
	H117	H	0.375187	0.113518	0.084024
	H118	H	0.604576	0.928174	0.091216
	H119	H	0.379399	0.934644	0.909292
	C120	C	0.369727	0.026169	0.618811
	C121	C	0.610502	1.009082	0.618704
	C122	C	0.610638	0.025028	0.374742
	C123	C	0.368955	1.009393	0.375379
	C124	C	0.610818	0.396250	0.005981
	C125	C	0.610250	0.639483	0.988623
	C126	C	0.367807	0.639384	0.005011
	C127	C	0.367212	0.395584	0.989838
	C128	C	-0.000806	0.637602	0.377329
	C129	C	0.981289	0.637163	0.618843
	C130	C	-0.001935	0.396167	0.617345
	C131	C	0.980973	0.396013	0.375283
	C132	C	0.867520	0.526438	0.119728
	C133	C	0.109060	0.510366	0.118133
	C134	C	0.109582	0.525416	0.875725
	C135	C	0.868381	0.508171	0.875266
	C136	C	0.112329	0.895023	0.507227
	C137	C	0.111210	0.138622	0.488930
	C138	C	0.867631	0.138652	0.504870
	C139	C	0.868977	0.894866	0.489180
	C140	C	0.498672	0.140121	0.875615
	C141	C	0.480821	0.138728	0.118347
	C142	C	0.497966	0.897523	0.117972
	C143	C	0.481624	0.898810	0.877262
	C144	C	0.363580	0.911455	0.682302
	C145	C	0.612376	0.127310	0.676156
	C146	C	0.614100	0.908122	0.315065
	C147	C	0.365194	0.126726	0.315994
	C148	C	0.668163	0.397229	0.888308
	C149	C	0.669867	0.640350	0.105142
	C150	C	0.309962	0.638610	0.887526
	C151	C	0.309101	0.396341	0.107271
	C152	C	0.880475	0.697353	0.376441
	C153	C	0.099409	0.696907	0.621777
	C154	C	0.879891	0.336275	0.618964
	C155	C	0.098321	0.334259	0.371912
	C156	C	0.880473	0.391993	0.678202
	C157	C	0.098954	0.639595	0.679537
	C158	C	0.880397	0.640535	0.318382
	C159	C	0.098660	0.392325	0.314907
	C160	C	0.367436	0.697239	0.887725
	C161	C	0.613164	0.699752	0.104451
	C162	C	0.611279	0.338165	0.889018
	C163	C	0.366950	0.337951	0.107102
	C164	C	0.669932	0.907183	0.374819
	C165	C	0.668159	0.127448	0.616627
	C166	C	0.308132	0.909871	0.622439
	C167	C	0.309272	0.127195	0.375386
	C168	C	0.865689	0.408912	0.178568
	C169	C	0.113835	0.626389	0.179377
	C170	C	0.112735	0.408024	0.816957
	C171	C	0.864601	0.624700	0.814461
	C172	C	0.175225	0.890275	0.392491
	C173	C	0.174031	0.143383	0.603550
	C174	C	0.808607	0.139138	0.388157
	C175	C	0.810820	0.895788	0.606386
	C176	C	0.378854	0.197237	0.876238
	C177	C	0.601161	0.194718	0.117239
	C178	C	0.378690	0.839515	0.117801
	C179	C	0.599267	0.837393	0.874315
	C180	C	0.378615	0.896694	0.175567
	C181	C	0.600247	0.138832	0.176237
	C182	C	0.379892	0.141741	0.816803
	C183	C	0.599654	0.895437	0.817318
	C184	C	0.865106	0.198561	0.388690
	C185	C	0.116438	0.201602	0.603068
	C186	C	0.118487	0.831347	0.393252
	C187	C	0.868302	0.837209	0.606598
	C188	C	0.168990	0.407518	0.876302
	C189	C	0.168874	0.627477	0.119364
	C190	C	0.810188	0.407904	0.118539
	C191	C	0.809303	0.626324	0.874413
	C192	C	0.396870	0.106583	0.592222
	C193	C	0.586054	0.926644	0.596140
	C194	C	0.585254	0.107092	0.398552
	C195	C	0.395277	0.927839	0.399711
	C196	C	0.586922	0.419657	0.087660
	C197	C	0.584843	0.614693	0.907624
	C198	C	0.391942	0.615881	0.086719
	C199	C	0.391000	0.418868	0.907850
	C200	C	0.081335	0.611731	0.401961
	C201	C	0.899024	0.612064	0.593196
	C202	C	0.080208	0.422065	0.592546
	C203	C	0.898446	0.421698	0.400294
	C204	C	0.892056	0.609100	0.096263
	C205	C	0.083437	0.428742	0.093787
	C206	C	0.083726	0.607333	0.899921
	C207	C	0.892949	0.426352	0.899705
	C208	C	0.085500	0.921539	0.586973
	C209	C	0.084595	0.111960	0.408804
	C210	C	0.892490	0.114726	0.586401
	C211	C	0.893298	0.918128	0.407374
	C212	C	0.581913	0.115630	0.899366
	C213	C	0.397198	0.115805	0.095492
	C214	C	0.581141	0.921934	0.094260
	C215	C	0.399500	0.924493	0.902434
	Zn216	Zn	0.490295	0.018401	0.748032
	Zn217	Zn	0.489445	0.017831	0.246100
	Zn218	Zn	0.740035	0.517716	-0.002910
	Zn219	Zn	0.238097	0.517988	-0.002229
	Zn220	Zn	-0.009221	0.765664	0.498789
	Zn221	Zn	-0.010720	0.267920	0.496195
	Zn222	Zn	-0.010948	0.516131	0.746370
	Zn223	Zn	-0.010397	0.517550	0.248081
	Zn224	Zn	0.488819	0.769488	-0.003440
	Zn225	Zn	0.489662	0.266584	-0.002321
	Zn226	Zn	0.738959	0.016419	0.497216
	Zn227	Zn	0.240720	0.017217	0.497911
	N228	N	0.401299	0.984789	0.680153
	N229	N	0.577294	0.052609	0.677677
	N230	N	0.577848	0.982584	0.314804
	N231	N	0.401344	0.052211	0.315564
	N232	N	0.668275	0.432361	0.962176
	N233	N	0.668461	0.603973	0.032033
	N234	N	0.309804	0.603482	0.961575
	N235	N	0.308805	0.431201	0.033051
	N236	N	0.955450	0.696138	0.412108
	N237	N	0.025178	0.695399	0.584582
	N238	N	0.953960	0.338697	0.581754
	N239	N	0.023972	0.336391	0.408693
	N240	N	0.954979	0.428644	0.677335
	N241	N	0.024431	0.603023	0.677647
	N242	N	0.955434	0.604286	0.318434
	N243	N	0.024552	0.430123	0.317022
	N244	N	0.402241	0.698183	0.961914
	N245	N	0.577089	0.699668	0.030732
	N246	N	0.576777	0.336957	0.963339
	N247	N	0.402011	0.337013	0.032895
	N248	N	0.668047	0.981018	0.411093
	N249	N	0.667304	0.052911	0.581617
	N250	N	0.311738	0.982304	0.583599
	N251	N	0.311102	0.053083	0.411579
	N252	N	0.900361	0.483982	0.179726
	N253	N	0.077136	0.552545	0.178646
	N254	N	0.076967	0.482548	0.816145
	N255	N	0.900303	0.550090	0.814511
	N256	N	0.171492	0.929291	0.464321
	N257	N	0.170778	0.104706	0.531500
	N258	N	0.809924	0.102713	0.461511
	N259	N	0.810810	0.930705	0.532255
	N260	N	0.453779	0.196484	0.911893
	N261	N	0.525732	0.195116	0.082308
	N262	N	0.454223	0.839596	0.083014
	N263	N	0.524905	0.839297	0.910924
	N264	N	0.453924	0.931956	0.175997
	N265	N	0.524251	0.104921	0.177328
	N266	N	0.455700	0.107177	0.815939
	N267	N	0.525408	0.932929	0.818942
	N268	N	0.901006	0.198674	0.462431
	N269	N	0.078046	0.198836	0.530714
	N270	N	0.079838	0.834102	0.465547
	N271	N	0.903506	0.836270	0.532549
	N272	N	0.167369	0.481710	0.912009
	N273	N	0.166216	0.554273	0.081891
	N274	N	0.810948	0.482317	0.082910
	N275	N	0.811273	0.552868	0.911630
	O276	O	0.206129	1.049605	0.229326
	H277	H	0.222853	1.041817	0.223475
	H278	H	0.231307	1.046816	0.224846
	O279	O	0.278265	0.308738	0.711571
	H280	H	0.288801	0.330993	0.705210
	H281	H	0.287920	0.324875	0.689876
	O282	O	1.210489	0.242946	1.040040
	H283	H	1.212896	0.240864	1.077221
	H284	H	1.237583	0.267860	1.054164
	O285	O	0.686510	0.513464	0.618531
	H286	H	0.685905	0.506175	0.638547
	H287	H	0.683903	0.495288	0.618182
	O288	O	0.696546	0.308718	0.286708
	H289	H	0.729730	0.276419	0.254881
	H290	H	0.680950	0.325011	0.292221
	O291	O	0.405108	0.502020	0.469859
	H292	H	0.396334	0.521304	0.474028
	H293	H	0.429885	0.502178	0.475273
	O294	O	0.948603	-0.185436	1.174370
	H295	H	0.946506	-0.201615	1.203460
	H296	H	0.958751	-0.172331	1.180585
	O297	O	-0.056756	0.876534	-0.171840
	H298	H	-0.066806	0.894412	-0.157606
	H299	H	-0.062932	0.858714	-0.177583
	O300	O	0.591636	0.411702	0.565049
	H301	H	0.607773	0.403917	0.546259
	H302	H	0.581566	0.418192	0.558847
	O303	O	0.427067	0.718571	0.694257
	H304	H	0.405014	0.717172	0.701871
	H305	H	0.421060	0.725198	0.688266
	O306	O	0.676633	0.705110	0.306149
	H307	H	0.667195	0.689295	0.334709
	H308	H	0.646205	0.684742	0.311596
	O309	O	0.471403	0.502166	0.451249
	H310	H	0.473486	0.506850	0.446238
	H311	H	0.485193	0.507414	0.441273
	O312	O	0.462553	0.666419	0.468496
	H313	H	0.473193	0.675021	0.463102
	H314	H	0.474571	0.667339	0.461428
	O315	O	0.933186	1.073749	1.234084
	H316	H	0.932978	1.072954	1.215650
	H317	H	0.928066	1.073991	1.233811
	O318	O	0.300919	0.464559	0.447223
	H319	H	0.299979	0.450207	0.450751
	H320	H	0.302964	0.476480	0.454836
	O321	O	0.275763	0.304780	0.528129
	H322	H	0.255060	0.297099	0.527268
	H323	H	0.291724	0.304471	0.531348
	O324	O	1.525871	1.294198	-0.725509
	H325	H	1.546611	1.278860	-0.743342
	H326	H	1.523676	1.296594	-0.733001
	O327	O	-0.172571	-0.021036	0.928430
	H328	H	-0.180790	-0.003859	0.918152
	H329	H	-0.174548	-0.005660	0.945998
	O330	O	1.003159	0.024742	0.962477
	H331	H	0.987146	0.020707	0.961827
	H332	H	0.997774	0.045025	0.964982
	O333	O	0.780552	0.162096	0.004964
	H334	H	0.761831	0.174530	-0.000607
	H335	H	0.794812	0.156907	-0.022495
	O336	O	0.704896	0.540832	0.364366
	H337	H	0.704278	0.513873	0.356440
	H338	H	0.715857	0.556905	0.378274
	O339	O	1.174772	-0.173192	1.195258
	H340	H	1.152875	-0.146736	1.197698
	H341	H	1.166017	-0.157398	1.160023
	O342	O	0.056278	-0.047104	0.235875
	H343	H	0.040444	-0.025717	0.232506
	H344	H	0.068208	-0.030981	0.232744
	O345	O	-0.020364	1.102810	0.761469
	H346	H	-0.012164	1.106393	0.753155
	H347	H	-0.032500	1.096593	0.757523
	O348	O	0.141068	0.168518	-0.211167
	H349	H	0.162169	0.182856	-0.229024
	H350	H	0.133426	0.159158	-0.203923
	O351	O	1.197846	-0.016107	0.782201
	H352	H	1.204568	-0.003870	0.771065
	H353	H	1.203308	-0.002434	0.800117
	O354	O	-0.084676	-0.149969	0.875983
	H355	H	-0.095624	-0.169656	0.884680
	H356	H	-0.091869	-0.165400	0.878759
	O357	O	0.533073	0.449483	0.724154
	H358	H	0.516212	0.457855	0.718850
	H359	H	0.530484	0.442927	0.722258
	O360	O	0.460793	0.743734	0.268033
	H361	H	0.438735	0.744332	0.258421
	H362	H	0.455542	0.767116	0.259514
	O363	O	0.048579	0.065693	0.081801
	H364	H	0.045595	0.071247	0.073622
	H365	H	0.062827	0.064182	0.075524
	O366	O	0.778114	0.225412	0.785522
	H367	H	0.804921	0.228256	0.804090
	H368	H	0.746827	0.259990	0.754564
	O369	O	1.460299	0.524171	0.353656
	H370	H	1.466007	0.530888	0.347265
	H371	H	1.463537	0.529217	0.344228
	O372	O	0.334001	0.375982	0.313686
	H373	H	0.347286	0.397118	0.323412
	H374	H	0.338085	0.388322	0.326786
	O375	O	1.100004	0.224035	-0.087485
	H376	H	1.095406	0.232031	-0.101977
	H377	H	1.130023	0.238068	-0.081021
	O378	O	1.214814	0.011510	0.068912
	H379	H	1.206288	-0.013117	0.062280
	H380	H	1.209245	0.021584	0.042659
	O381	O	0.191977	1.219854	1.202985
	H382	H	0.216708	1.226041	1.229957
	H383	H	0.171998	1.193983	1.214154
	O384	O	1.019660	0.231820	1.217004
	H385	H	1.026865	0.221689	1.223959
	H386	H	1.028836	0.246808	1.230661
	O387	O	0.926797	1.071092	-0.138876
	H388	H	0.953974	1.071184	-0.139951
	H389	H	0.896390	1.089599	-0.153944
	O390	O	0.270261	0.482966	0.715845
	H391	H	0.259845	0.497194	0.706585
	H392	H	0.261276	0.491063	0.725733
	O393	O	0.691074	0.484817	0.334873
	H394	H	0.702856	0.497396	0.317142
	H395	H	0.705172	0.472524	0.350074
	O396	O	0.214212	0.786515	0.956791
	H397	H	0.242626	0.758966	0.941029
	H398	H	0.214153	0.791685	0.918967
	O399	O	0.010750	-0.055374	0.995286
	H400	H	0.012968	-0.048535	0.986603
	H401	H	-0.004719	-0.051825	0.999127
	O402	O	0.707562	0.622635	0.713748
	H403	H	0.698385	0.633879	0.711368
	H404	H	0.741585	0.637288	0.746338
	O405	O	0.973055	-0.192605	1.135004
	H406	H	0.962137	-0.184526	1.161152
	H407	H	0.979678	-0.208795	1.148441
	O408	O	-0.027863	0.190689	-0.171128
	H409	H	-0.015402	0.179428	-0.182069
	H410	H	-0.027996	0.203061	-0.178956
	O411	O	0.279613	0.546804	0.284578
	H412	H	0.269220	0.544663	0.277635
	H413	H	0.280591	0.560738	0.297374
	O414	O	0.496422	0.746133	0.491184
	H415	H	0.516769	0.742224	0.504026
	H416	H	0.496176	0.750440	0.500462
	O417	O	0.704691	0.298065	0.457811
	H418	H	0.708275	0.291860	0.442330
	H419	H	0.722644	0.290120	0.445768
	O420	O	0.525419	0.490924	0.505819
	H421	H	0.529879	0.491210	0.502101
	H422	H	0.535794	0.495599	0.501398
	O423	O	0.207527	0.080327	0.925090
	H424	H	0.200324	0.095437	0.920020
	H425	H	0.196239	0.092129	0.931463
	O426	O	0.550173	0.610700	0.542092
	H427	H	0.557284	0.605472	0.555636
	H428	H	0.540105	0.619723	0.542693
	O429	O	0.881860	1.112278	0.998427
	H430	H	0.888292	1.119214	0.997083
	H431	H	0.879424	1.097739	1.005045
	O432	O	0.678054	0.327868	0.690609
	H433	H	0.653949	0.357885	0.689527
	H434	H	0.658291	0.332661	0.657792
	O435	O	-0.049760	0.866949	-0.040811
	H436	H	-0.056175	0.867445	-0.023503
	H437	H	-0.052992	0.865726	-0.025404
	O438	O	-0.147156	-0.188963	-0.143382
	H439	H	-0.145498	-0.177958	-0.123177
	H440	H	-0.126422	-0.180223	-0.121418
	O441	O	-0.227306	0.056171	-0.227705
	H442	H	-0.253849	0.067083	-0.243857
	H443	H	-0.230003	0.088842	-0.218895
	O444	O	0.800489	0.209306	0.191456
	H445	H	0.807990	0.181587	0.170580
	H446	H	0.830682	0.199441	0.173676
	O447	O	0.191192	0.812472	0.784025
	H448	H	0.142040	0.806455	0.780353
	H449	H	0.196105	0.864212	0.784865
	O450	O	-0.258397	0.766800	0.746387
	H451	H	-0.235463	0.800519	0.769619
	H452	H	-0.281418	0.769399	0.763238
	O453	O	0.548308	0.570751	0.270027
	H454	H	0.547583	0.571328	0.273089
	H455	H	0.549183	0.567901	0.270701
	O456	O	-0.220934	-0.017639	1.217265
	H457	H	-0.247819	-0.018579	1.236244
	H458	H	-0.204158	-0.042210	1.205651
	O459	O	0.465436	0.341054	0.573155
	H460	H	0.454024	0.349315	0.578027
	H461	H	0.470086	0.334742	0.555943
	O462	O	0.711795	0.742752	0.533297
	H463	H	0.722434	0.749878	0.558405
	H464	H	0.721935	0.759464	0.550795
	O465	O	0.443113	-0.685025	0.409318
	H466	H	0.457778	-0.681739	0.399850
	H467	H	0.440563	-0.674963	0.404865
	O468	O	0.273534	0.727009	0.476401
	H469	H	0.266614	0.746555	0.472666
	H470	H	0.279088	0.739762	0.462917
	O471	O	0.432174	0.584101	0.616172
	H472	H	0.431438	0.578539	0.610493
	H473	H	0.427848	0.600166	0.628408
	O474	O	0.397460	0.570897	0.699012
	H475	H	0.386017	0.576294	0.699771
	H476	H	0.401068	0.571157	0.690357
	O477	O	0.459175	0.295435	1.722790
	H478	H	0.458065	0.274438	1.743890
	H479	H	0.446283	0.292460	1.716740
	O480	O	-0.043889	0.243957	0.016389
	H481	H	-0.038711	0.248759	0.032551
	H482	H	-0.029755	0.252606	-0.002962
	O483	O	0.263268	0.553489	0.541969
	H484	H	0.265728	0.565251	0.522234
	H485	H	0.265183	0.565423	0.542246
	O486	O	1.116103	-0.151521	1.049486
	H487	H	1.090142	-0.158783	1.044486
	H488	H	1.136309	-0.171680	1.029058
	O489	O	0.854464	1.167128	-0.063337
	H490	H	0.848132	1.176830	-0.062212
	H491	H	0.864231	1.173410	-0.066574
	O492	O	-0.229594	-0.202905	0.029102
	H493	H	-0.255398	-0.220677	0.037734
	H494	H	-0.229729	-0.193748	0.055754
	O495	O	0.288681	0.724263	1.285295
	H496	H	0.260047	0.752386	1.258692
	H497	H	0.295222	0.700284	1.293165
	O498	O	0.779697	0.807619	1.209529
	H499	H	0.747155	0.775897	1.241541
	H500	H	0.803783	0.821695	1.208776
	O501	O	0.572180	0.665833	0.591558
	H502	H	0.573085	0.656452	0.597569
	H503	H	0.585703	0.673482	0.605958
