data_Molecule from HDF5

_cell_length_a		16.461810
_cell_length_b		16.570551
_cell_length_c		16.561042
_cell_angle_alpha	89.903984
_cell_angle_beta	89.957349
_cell_angle_gamma	89.790373
_symmetry_space_group_name_H-M	'P 1'
_symmetry_Int_Tables_number		1

loop_
	_symmetry_equiv_pos_as_xyz
	x,y,z

loop_
	_atom_site_label
	_atom_site_type_symbol
	_atom_site_fract_x
	_atom_site_fract_y
	_atom_site_fract_z
	H0	H	0.389735	0.849848	0.726518
	H1	H	0.603469	0.160339	0.724357
	H2	H	0.603786	0.849387	0.280001
	H3	H	0.393385	0.163796	0.280692
	H4	H	0.722482	0.398829	0.845998
	H5	H	0.720250	0.610476	0.157146
	H6	H	0.272702	0.613817	0.845473
	H7	H	0.279487	0.403442	0.158928
	H8	H	0.840480	0.726332	0.398321
	H9	H	0.159315	0.723518	0.602452
	H10	H	0.844576	0.281195	0.612172
	H11	H	0.155284	0.282785	0.395839
	H12	H	0.843383	0.398872	0.726336
	H13	H	0.157896	0.610675	0.721546
	H14	H	0.840643	0.610421	0.281896
	H15	H	0.157221	0.401713	0.282197
	H16	H	0.386904	0.731659	0.845476
	H17	H	0.604492	0.728653	0.155636
	H18	H	0.607674	0.281286	0.846332
	H19	H	0.395301	0.285520	0.159116
	H20	H	0.718605	0.848483	0.397946
	H21	H	0.718014	0.160953	0.605929
	H22	H	0.277139	0.847657	0.606874
	H23	H	0.276334	0.162562	0.396628
	H24	H	0.892863	0.349879	0.225252
	H25	H	0.102260	0.664111	0.220419
	H26	H	0.104634	0.350861	0.778986
	H27	H	0.887875	0.661649	0.776154
	H28	H	0.218824	0.902319	0.344132
	H29	H	0.219905	0.109989	0.657679
	H30	H	0.776912	0.110963	0.344993
	H31	H	0.778010	0.902059	0.660136
	H32	H	0.341645	0.228603	0.894761
	H33	H	0.657294	0.222726	0.102428
	H34	H	0.339888	0.787724	0.103202
	H35	H	0.655309	0.782324	0.894288
	H36	H	0.340228	0.903499	0.219741
	H37	H	0.657178	0.106934	0.218635
	H38	H	0.340691	0.110951	0.780807
	H39	H	0.655700	0.898053	0.779275
	H40	H	0.888481	0.231293	0.347333
	H41	H	0.104686	0.228437	0.656585
	H42	H	0.099643	0.788646	0.343218
	H43	H	0.893471	0.784613	0.660146
	H44	H	0.218254	0.348626	0.898450
	H45	H	0.217348	0.662877	0.102213
	H46	H	0.777770	0.349521	0.107865
	H47	H	0.774172	0.662378	0.895340
	H48	H	0.413368	0.115858	0.594659
	H49	H	0.591173	0.891774	0.590743
	H50	H	0.584363	0.120661	0.401164
	H51	H	0.404412	0.894399	0.417277
	H52	H	0.588365	0.416358	0.113511
	H53	H	0.583495	0.594730	0.889574
	H54	H	0.409650	0.600617	0.113416
	H55	H	0.400011	0.418225	0.886750
	H56	H	0.112306	0.598899	0.413604
	H57	H	0.884328	0.594164	0.597858
	H58	H	0.111672	0.414594	0.586692
	H59	H	0.887258	0.418646	0.417625
	H60	H	0.108612	0.421598	0.584948
	H61	H	0.885814	0.603478	0.587729
	H62	H	0.112955	0.593746	0.407674
	H63	H	0.887121	0.422504	0.412929
	H64	H	0.404993	0.591641	0.112444
	H65	H	0.586802	0.591056	0.890039
	H66	H	0.586504	0.412650	0.114279
	H67	H	0.416378	0.424120	0.894279
	H68	H	0.580645	0.114444	0.415758
	H69	H	0.582726	0.892700	0.594542
	H70	H	0.410703	0.113773	0.584687
	H71	H	0.407076	0.890046	0.402834
	H72	H	0.911556	0.617203	0.090300
	H73	H	0.092384	0.391449	0.094993
	H74	H	0.086898	0.618827	0.911154
	H75	H	0.918014	0.397155	0.911200
	H76	H	0.087712	0.905461	0.616782
	H77	H	0.083049	0.095456	0.390014
	H78	H	0.914226	0.094364	0.612063
	H79	H	0.903485	0.910623	0.386336
	H80	H	0.612020	0.097034	0.913077
	H81	H	0.385464	0.096429	0.088984
	H82	H	0.613463	0.913456	0.092230
	H83	H	0.387604	0.913368	0.922018
	H84	H	0.611241	0.914648	0.086897
	H85	H	0.384476	0.094574	0.093249
	H86	H	0.608868	0.090312	0.916125
	H87	H	0.390041	0.928201	0.913336
	H88	H	0.908404	0.098332	0.615203
	H89	H	0.088140	0.095481	0.388775
	H90	H	0.096870	0.919253	0.615637
	H91	H	0.905950	0.922275	0.391551
	H92	H	0.084151	0.617748	0.912715
	H93	H	0.086269	0.392501	0.096253
	H94	H	0.909284	0.617604	0.090043
	H95	H	0.910333	0.397288	0.919121
	H96	H	0.403864	0.118845	0.591185
	H97	H	0.584054	0.894631	0.585382
	H98	H	0.596138	0.120970	0.413469
	H99	H	0.417889	0.897252	0.411099
	H100	H	0.590766	0.413283	0.115188
	H101	H	0.582107	0.590378	0.891170
	H102	H	0.414748	0.593024	0.109225
	H103	H	0.414753	0.406215	0.887261
	H104	H	0.115461	0.601375	0.406839
	H105	H	0.890427	0.590293	0.585847
	H106	H	0.111068	0.419900	0.592270
	H107	H	0.885981	0.416695	0.412060
	H108	H	0.909896	0.617559	0.092113
	H109	H	0.089164	0.394387	0.090751
	H110	H	0.086801	0.617834	0.914102
	H111	H	0.907765	0.393148	0.909512
	H112	H	0.081349	0.919847	0.610325
	H113	H	0.085831	0.091181	0.391106
	H114	H	0.906945	0.091062	0.613068
	H115	H	0.915654	0.913050	0.391810
	H116	H	0.611221	0.090789	0.908224
	H117	H	0.383383	0.098822	0.092306
	H118	H	0.610892	0.918405	0.091433
	H119	H	0.382438	0.914137	0.905591
	C120	C	0.376510	0.013346	0.623270
	C121	C	0.618424	0.996206	0.622981
	C122	C	0.619651	0.014553	0.379369
	C123	C	0.377509	0.997748	0.379424
	C124	C	0.621463	0.382535	0.010852
	C125	C	0.617846	0.625389	0.992955
	C126	C	0.376022	0.627956	0.008848
	C127	C	0.378176	0.384312	0.993172
	C128	C	0.008059	0.628631	0.379314
	C129	C	0.991214	0.627461	0.622278
	C130	C	0.007506	0.385634	0.622278
	C131	C	0.990500	0.385688	0.381342
	C132	C	0.877592	0.514472	0.123648
	C133	C	0.120310	0.497325	0.123785
	C134	C	0.118941	0.514563	0.880737
	C135	C	0.877186	0.498414	0.879542
	C136	C	0.119750	0.884183	0.509890
	C137	C	0.118578	0.126521	0.493068
	C138	C	0.876268	0.127912	0.510705
	C139	C	0.876933	0.884086	0.494381
	C140	C	0.506885	0.126617	0.879793
	C141	C	0.489596	0.126646	0.122103
	C142	C	0.507064	0.884481	0.121495
	C143	C	0.490032	0.884353	0.880099
	C144	C	0.372533	0.896302	0.685283
	C145	C	0.621306	0.113817	0.683579
	C146	C	0.622083	0.896480	0.320097
	C147	C	0.374690	0.116061	0.319811
	C148	C	0.682322	0.380564	0.892962
	C149	C	0.679237	0.628663	0.110335
	C150	C	0.313643	0.631626	0.892081
	C151	C	0.319014	0.383863	0.111699
	C152	C	0.888173	0.686708	0.379400
	C153	C	0.111215	0.685076	0.622414
	C154	C	0.890825	0.323133	0.628263
	C155	C	0.108384	0.323849	0.378045
	C156	C	0.890440	0.381511	0.685270
	C157	C	0.110703	0.628649	0.681285
	C158	C	0.888343	0.629151	0.321356
	C159	C	0.109434	0.383113	0.321778
	C160	C	0.370705	0.690283	0.892134
	C161	C	0.621950	0.687492	0.109624
	C162	C	0.625110	0.322112	0.893148
	C163	C	0.376682	0.325207	0.111625
	C164	C	0.679295	0.896079	0.378739
	C165	C	0.678181	0.114173	0.624846
	C166	C	0.316317	0.895429	0.625714
	C167	C	0.316569	0.115588	0.377656
	C168	C	0.875197	0.396845	0.184491
	C169	C	0.120984	0.616473	0.181111
	C170	C	0.122194	0.397138	0.820039
	C171	C	0.871612	0.615002	0.817513
	C172	C	0.178702	0.883491	0.391061
	C173	C	0.179126	0.128307	0.610881
	C174	C	0.815723	0.130265	0.392963
	C175	C	0.817506	0.882781	0.612705
	C176	C	0.388982	0.188253	0.876979
	C177	C	0.609700	0.183873	0.121890
	C178	C	0.387604	0.826798	0.122051
	C179	C	0.608045	0.822694	0.876310
	C180	C	0.387906	0.884323	0.180122
	C181	C	0.609682	0.126018	0.179354
	C182	C	0.388383	0.129663	0.820137
	C183	C	0.608334	0.880658	0.819217
	C184	C	0.871743	0.189825	0.393728
	C185	C	0.122154	0.187347	0.610288
	C186	C	0.119693	0.826932	0.390926
	C187	C	0.875466	0.824673	0.612804
	C188	C	0.178746	0.396182	0.879246
	C189	C	0.178306	0.616056	0.122440
	C190	C	0.817730	0.396545	0.126092
	C191	C	0.814574	0.615134	0.876591
	C192	C	0.401980	0.094947	0.597594
	C193	C	0.593249	0.914269	0.597606
	C194	C	0.594505	0.097132	0.403456
	C195	C	0.402599	0.915354	0.403686
	C196	C	0.595845	0.407128	0.092924
	C197	C	0.591686	0.599271	0.911478
	C198	C	0.402213	0.602213	0.090321
	C199	C	0.403175	0.409172	0.910958
	C200	C	0.091645	0.604957	0.402670
	C201	C	0.908481	0.602939	0.597784
	C202	C	0.089105	0.411663	0.595462
	C203	C	0.908198	0.411863	0.406852
	C204	C	0.902991	0.596212	0.097989
	C205	C	0.096188	0.414312	0.100523
	C206	C	0.093323	0.596778	0.905476
	C207	C	0.904401	0.417062	0.905769
	C208	C	0.095809	0.908297	0.592796
	C209	C	0.093000	0.101245	0.411275
	C210	C	0.902556	0.101986	0.592292
	C211	C	0.901247	0.908449	0.411538
	C212	C	0.589260	0.100221	0.905186
	C213	C	0.406198	0.103500	0.098245
	C214	C	0.590337	0.908427	0.097079
	C215	C	0.407945	0.911046	0.906316
	Zn216	Zn	0.497927	0.004723	0.751672
	Zn217	Zn	0.498461	0.006000	0.250150
	Zn218	Zn	0.748561	0.505751	0.001797
	Zn219	Zn	0.248543	0.505512	0.001085
	Zn220	Zn	-0.001108	0.755909	0.502347
	Zn221	Zn	-0.001998	0.256418	0.501326
	Zn222	Zn	-0.000405	0.507416	0.750655
	Zn223	Zn	-0.000946	0.506178	0.252408
	Zn224	Zn	0.498010	0.755435	0.000185
	Zn225	Zn	0.498942	0.254753	0.001078
	Zn226	Zn	0.747649	0.005580	0.502321
	Zn227	Zn	0.248407	0.005460	0.500843
	N228	N	0.409031	0.970635	0.684118
	N229	N	0.584955	0.039379	0.682449
	N230	N	0.585891	0.971229	0.320227
	N231	N	0.411977	0.041642	0.320747
	N232	N	0.680627	0.417239	0.967323
	N233	N	0.676612	0.590707	0.036884
	N234	N	0.317023	0.593254	0.965473
	N235	N	0.319781	0.419950	0.037111
	N236	N	0.963764	0.686792	0.414636
	N237	N	0.035847	0.684752	0.586722
	N238	N	0.964574	0.325570	0.589721
	N239	N	0.033289	0.325193	0.414217
	N240	N	0.964150	0.419891	0.681719
	N241	N	0.034932	0.594050	0.681714
	N242	N	0.964148	0.594299	0.320908
	N243	N	0.035027	0.420963	0.323814
	N244	N	0.408984	0.688030	0.965748
	N245	N	0.584473	0.685394	0.035689
	N246	N	0.587926	0.323332	0.967308
	N247	N	0.412631	0.325434	0.036861
	N248	N	0.678102	0.970729	0.414887
	N249	N	0.676537	0.040145	0.588016
	N250	N	0.318467	0.969270	0.587808
	N251	N	0.318314	0.041195	0.414082
	N252	N	0.911637	0.471357	0.183327
	N253	N	0.085974	0.541486	0.182192
	N254	N	0.085942	0.471826	0.820806
	N255	N	0.909705	0.541125	0.819031
	N256	N	0.179108	0.918306	0.466234
	N257	N	0.177281	0.091206	0.536849
	N258	N	0.818403	0.092185	0.466699
	N259	N	0.818385	0.918997	0.538117
	N260	N	0.463982	0.186678	0.913041
	N261	N	0.533969	0.184357	0.086980
	N262	N	0.462892	0.826788	0.086280
	N263	N	0.533238	0.824610	0.913170
	N264	N	0.463379	0.919333	0.179968
	N265	N	0.534006	0.091532	0.179773
	N266	N	0.462778	0.091954	0.821696
	N267	N	0.533911	0.918279	0.821581
	N268	N	0.908477	0.188672	0.468104
	N269	N	0.085173	0.186075	0.536057
	N270	N	0.084095	0.827251	0.465834
	N271	N	0.911266	0.824932	0.537788
	N272	N	0.176969	0.470393	0.916086
	N273	N	0.178259	0.540770	0.087726
	N274	N	0.818954	0.470659	0.088942
	N275	N	0.818044	0.541583	0.914553
	O276	O	0.963740	0.786683	0.221168
	H277	H	0.955009	0.762906	0.237243
	H278	H	0.933544	0.780035	0.224503
	O279	O	-0.012406	0.205484	1.055031
	H280	H	-0.028219	0.199719	1.060142
	H281	H	-0.014296	0.217820	1.060536
	O282	O	0.730359	0.472944	0.552383
	H283	H	0.715217	0.461149	0.548237
	H284	H	0.733618	0.461705	0.534790
	O285	O	0.394240	0.525636	0.455616
	H286	H	0.380764	0.536193	0.456522
	H287	H	0.401013	0.549450	0.455328
	O288	O	1.034805	-0.202048	1.030221
	H289	H	1.019116	-0.195318	1.040436
	H290	H	1.021252	-0.203168	1.023117
	O291	O	0.719910	0.725155	0.529147
	H292	H	0.742109	0.758846	0.530171
	H293	H	0.711197	0.716612	0.571135
	O294	O	0.151203	0.055556	-0.198850
	H295	H	0.153016	0.070017	-0.166015
	H296	H	0.160757	0.054716	-0.217254
	O297	O	0.853934	0.227834	0.014706
	H298	H	0.853141	0.230817	0.021904
	H299	H	0.832496	0.231620	0.001735
	O300	O	0.203701	0.112689	0.106438
	H301	H	0.195310	0.118627	0.118609
	H302	H	0.209989	0.127788	0.111463
	O303	O	-0.030829	-0.007422	0.024421
	H304	H	-0.036838	-0.002234	0.027789
	H305	H	-0.037147	0.016529	0.024032
	O306	O	0.848838	-0.160194	-0.006409
	H307	H	0.860573	-0.155637	-0.008481
	H308	H	0.847269	-0.146394	-0.010084
	O309	O	0.517918	0.588697	0.360944
	H310	H	0.510801	0.604488	0.359608
	H311	H	0.513148	0.584804	0.373263
	O312	O	0.309782	0.412623	0.419286
	H313	H	0.312802	0.422469	0.436051
	H314	H	0.319785	0.418819	0.435193
	O315	O	0.410815	0.720056	0.580359
	H316	H	0.424041	0.711497	0.586779
	H317	H	0.431464	0.718277	0.583097
	O318	O	0.928667	1.119140	0.163381
	H319	H	0.901977	1.127622	0.175297
	H320	H	0.919990	1.100890	0.150688
	O321	O	0.047866	0.906231	0.863818
	H322	H	0.045701	0.911890	0.858292
	H323	H	0.062627	0.885322	0.859297
	O324	O	0.792794	0.028791	0.870122
	H325	H	0.792347	0.020986	0.862032
	H326	H	0.790056	0.030217	0.857400
	O327	O	0.681281	0.697947	0.687508
	H328	H	0.685929	0.675866	0.705651
	H329	H	0.663705	0.681348	0.688610
	O330	O	0.293365	0.716018	0.289738
	H331	H	0.288744	0.694363	0.310091
	H332	H	0.261912	0.746010	0.263539
	O333	O	0.395752	0.474224	0.499064
	H334	H	0.403113	0.481658	0.499549
	H335	H	0.391202	0.489714	0.496169
	O336	O	0.535982	0.504896	0.483535
	H337	H	0.534300	0.498391	0.487785
	H338	H	0.537243	0.507225	0.484006
	O339	O	0.286486	0.724807	0.463954
	H340	H	0.260787	0.758952	0.464076
	H341	H	0.313041	0.729252	0.466563
	O342	O	0.105685	0.986906	0.031887
	H343	H	0.102451	0.980124	0.018679
	H344	H	0.098949	1.004474	0.041042
	O345	O	0.713577	0.536661	0.719226
	H346	H	0.719041	0.511515	0.683996
	H347	H	0.751804	0.531823	0.745099
	O348	O	0.279504	0.477886	0.728521
	H349	H	0.273372	0.447062	0.734203
	H350	H	0.261930	0.461549	0.746985
	O351	O	0.055259	0.210333	0.957693
	H352	H	0.056021	0.220210	0.977868
	H353	H	0.054931	0.212800	0.954078
	O354	O	0.869598	-0.096037	0.980755
	H355	H	0.867563	-0.100509	0.984495
	H356	H	0.869086	-0.091275	0.978297
	O357	O	0.456109	0.703374	0.312630
	H358	H	0.441457	0.724717	0.294216
	H359	H	0.431679	0.701763	0.318096
	O360	O	0.438897	0.491044	0.317803
	H361	H	0.433677	0.506539	0.328756
	H362	H	0.437588	0.485460	0.332934
	O363	O	0.791265	0.186101	0.181238
	H364	H	0.791937	0.195097	0.170034
	H365	H	0.774545	0.197996	0.192733
	O366	O	0.778549	0.228940	0.775952
	H367	H	0.791101	0.221208	0.781409
	H368	H	0.775456	0.240273	0.764651
	O369	O	-0.169218	-0.043434	1.132209
	H370	H	-0.174075	-0.055291	1.129947
	H371	H	-0.172706	-0.040371	1.143271
	O372	O	-0.022172	1.067272	0.809498
	H373	H	-0.014565	1.049978	0.804657
	H374	H	-0.016254	1.059857	0.804302
	O375	O	1.032629	-0.012271	0.215518
	H376	H	1.032930	-0.027880	0.220280
	H377	H	1.016297	-0.020824	0.209469
	O378	O	0.719291	0.293774	0.490053
	H379	H	0.703944	0.303817	0.452197
	H380	H	0.743532	0.265094	0.474383
	O381	O	0.152035	1.000295	0.122671
	H382	H	0.141591	1.010496	0.120013
	H383	H	0.157627	1.010103	0.131526
	O384	O	0.514458	0.447414	0.720122
	H385	H	0.519777	0.451952	0.697051
	H386	H	0.528718	0.456217	0.728928
	O387	O	0.187742	0.814902	0.810490
	H388	H	0.185314	0.816506	0.834544
	H389	H	0.196277	0.837295	0.814482
	O390	O	0.188568	1.156651	0.856062
	H391	H	0.175843	1.156319	0.884281
	H392	H	0.192079	1.151419	0.867975
	O393	O	1.122138	0.221239	0.107532
	H394	H	1.131049	0.231612	0.114384
	H395	H	1.115500	0.223535	0.130533
	O396	O	0.488222	0.363712	0.282711
	H397	H	0.482319	0.363785	0.259821
	H398	H	0.471906	0.380574	0.293184
	O399	O	0.518212	0.719859	0.715426
	H400	H	0.526452	0.736395	0.733500
	H401	H	0.513628	0.700662	0.728347
	O402	O	0.902577	0.005178	0.901077
	H403	H	0.886155	0.017193	0.886276
	H404	H	0.900215	0.010776	0.898968
	O405	O	0.703552	0.482388	0.294583
	H406	H	0.682156	0.497902	0.287261
	H407	H	0.712733	0.493416	0.292161
	O408	O	1.094934	0.965084	0.819341
	H409	H	1.093820	0.964051	0.817739
	H410	H	1.104990	0.976142	0.816680
	O411	O	0.793041	0.801700	0.206877
	H412	H	0.796297	0.805615	0.171049
	H413	H	0.766953	0.788160	0.221711
	O414	O	0.191363	-0.098026	-0.048188
	H415	H	0.188807	-0.094695	-0.026460
	H416	H	0.186291	-0.087783	-0.039653
	O417	O	0.696715	0.322008	0.317951
	H418	H	0.681957	0.341147	0.312707
	H419	H	0.675029	0.342002	0.309775
	O420	O	0.989780	0.181768	0.810658
	H421	H	1.001180	0.182231	0.806461
	H422	H	0.985722	0.171269	0.818805
	O423	O	0.796576	0.992647	0.152216
	H424	H	0.798603	1.007248	0.162581
	H425	H	0.790804	0.981875	0.161848
	O426	O	0.656828	0.561743	0.485152
	H427	H	0.661905	0.556591	0.495945
	H428	H	0.660248	0.581539	0.495311
	O429	O	0.566316	0.681797	0.386292
	H430	H	0.550075	0.690569	0.370787
	H431	H	0.565959	0.682298	0.403442
	O432	O	0.859553	0.097627	0.999209
	H433	H	0.856770	0.101088	0.996282
	H434	H	0.850956	0.102838	0.981060
	O435	O	0.504084	0.319536	0.666259
	H436	H	0.488545	0.328132	0.680829
	H437	H	0.511218	0.328972	0.661823
	O438	O	0.291987	0.542231	0.287830
	H439	H	0.276746	0.553136	0.285338
	H440	H	0.286679	0.540086	0.285732
	O441	O	0.647470	0.669272	0.377712
	H442	H	0.622138	0.674843	0.384079
	H443	H	0.649333	0.655068	0.380986
	O444	O	0.439573	0.294766	0.403140
	H445	H	0.420618	0.292994	0.392763
	H446	H	0.439673	0.294763	0.417190
	O447	O	0.686041	0.339130	0.665693
	H448	H	0.690289	0.332182	0.654035
	H449	H	0.671015	0.348569	0.652086
	O450	O	1.188235	0.201140	0.188910
	H451	H	1.175035	0.192579	0.193579
	H452	H	1.184543	0.199722	0.202868
	O453	O	0.453000	0.331207	0.497829
	H454	H	0.453812	0.340871	0.507917
	H455	H	0.464831	0.324429	0.514298
	O456	O	0.020817	0.794208	0.781762
	H457	H	0.054361	0.803370	0.790419
	H458	H	0.025568	0.761576	0.757443
	O459	O	0.441903	0.534910	0.650561
	H460	H	0.420931	0.523792	0.652078
	H461	H	0.455901	0.525619	0.652483
	O462	O	0.302744	0.304372	0.581770
	H463	H	0.306964	0.318399	0.582091
	H464	H	0.301047	0.299277	0.575030
	O465	O	0.398120	0.563839	0.610887
	H466	H	0.402299	0.574066	0.614162
	H467	H	0.396392	0.553658	0.609889
	O468	O	0.180037	0.821306	0.184409
	H469	H	0.169171	0.848676	0.171138
	H470	H	0.157698	0.830012	0.162111
	O471	O	0.526849	0.430656	0.465164
	H472	H	0.520931	0.443364	0.469268
	H473	H	0.517710	0.435938	0.464274
	O474	O	0.965027	0.789781	-0.020362
	H475	H	0.961131	0.800793	-0.028672
	H476	H	0.972336	0.782410	-0.032415
	O477	O	0.350622	0.298231	0.711802
	H478	H	0.349055	0.279571	0.718738
	H479	H	0.352022	0.287559	0.708988
