data_Molecule from HDF5

_cell_length_a		16.171551
_cell_length_b		16.091517
_cell_length_c		16.329324
_cell_angle_alpha	89.968523
_cell_angle_beta	90.025210
_cell_angle_gamma	90.173648
_symmetry_space_group_name_H-M	'P 1'
_symmetry_Int_Tables_number		1

loop_
	_symmetry_equiv_pos_as_xyz
	x,y,z

loop_
	_atom_site_label
	_atom_site_type_symbol
	_atom_site_fract_x
	_atom_site_fract_y
	_atom_site_fract_z
	H0	H	0.403157	0.832544	0.706030
	H1	H	0.606193	0.161430	0.706040
	H2	H	0.604543	0.831958	0.275623
	H3	H	0.403589	0.161365	0.274977
	H4	H	0.719527	0.398956	0.826682
	H5	H	0.721427	0.596400	0.154514
	H6	H	0.290090	0.597284	0.828602
	H7	H	0.291353	0.397328	0.154249
	H8	H	0.840957	0.708282	0.393409
	H9	H	0.171197	0.710208	0.588288
	H10	H	0.840683	0.284884	0.587720
	H11	H	0.172012	0.284897	0.395080
	H12	H	0.842220	0.394397	0.706722
	H13	H	0.170104	0.597745	0.706581
	H14	H	0.842563	0.595775	0.275243
	H15	H	0.170840	0.396041	0.276275
	H16	H	0.408608	0.710246	0.826919
	H17	H	0.602869	0.711978	0.154410
	H18	H	0.604822	0.282434	0.827288
	H19	H	0.409290	0.283406	0.155155
	H20	H	0.717332	0.830249	0.392914
	H21	H	0.720090	0.161189	0.589795
	H22	H	0.292970	0.830777	0.588088
	H23	H	0.292924	0.162663	0.392166
	H24	H	0.906584	0.331018	0.204407
	H25	H	0.108717	0.660397	0.206560
	H26	H	0.107116	0.332344	0.775403
	H27	H	0.906076	0.660475	0.775894
	H28	H	0.220077	0.899557	0.327085
	H29	H	0.221990	0.096799	0.654808
	H30	H	0.790149	0.095066	0.328052
	H31	H	0.788686	0.893622	0.653678
	H32	H	0.340158	0.210481	0.894095
	H33	H	0.671887	0.208979	0.086306
	H34	H	0.339818	0.785143	0.087469
	H35	H	0.670847	0.786634	0.893985
	H36	H	0.340525	0.897066	0.205627
	H37	H	0.669436	0.099424	0.207883
	H38	H	0.340088	0.097278	0.776198
	H39	H	0.667918	0.895770	0.774828
	H40	H	0.909128	0.210445	0.327291
	H41	H	0.103782	0.211355	0.655557
	H42	H	0.103562	0.783164	0.327152
	H43	H	0.906956	0.780293	0.653760
	H44	H	0.219425	0.331263	0.893244
	H45	H	0.218985	0.662116	0.089340
	H46	H	0.793213	0.331263	0.087799
	H47	H	0.795803	0.662427	0.893442
	H48	H	0.401270	0.119145	0.581337
	H49	H	0.608076	0.873655	0.586439
	H50	H	0.594381	0.114157	0.399286
	H51	H	0.418272	0.878964	0.392942
	H52	H	0.601080	0.398887	0.108720
	H53	H	0.606791	0.596697	0.872285
	H54	H	0.418725	0.589324	0.106416
	H55	H	0.408921	0.407556	0.874364
	H56	H	0.129762	0.594839	0.385595
	H57	H	0.891094	0.581909	0.579266
	H58	H	0.128726	0.395472	0.590632
	H59	H	0.889444	0.396951	0.407432
	H60	H	0.121679	0.404267	0.574601
	H61	H	0.887283	0.584817	0.591546
	H62	H	0.123205	0.596616	0.409478
	H63	H	0.891853	0.416280	0.395361
	H64	H	0.410247	0.598009	0.110196
	H65	H	0.602735	0.586056	0.874837
	H66	H	0.604419	0.408256	0.106983
	H67	H	0.416624	0.405448	0.876088
	H68	H	0.598798	0.113795	0.400638
	H69	H	0.587618	0.878108	0.593026
	H70	H	0.418045	0.117896	0.596879
	H71	H	0.412334	0.880173	0.404092
	H72	H	0.909113	0.614968	0.076283
	H73	H	0.093040	0.377664	0.089188
	H74	H	0.107277	0.618576	0.897069
	H75	H	0.918797	0.378684	0.896865
	H76	H	0.102265	0.904508	0.608215
	H77	H	0.094551	0.078341	0.380597
	H78	H	0.909490	0.093705	0.609985
	H79	H	0.921626	0.902611	0.377027
	H80	H	0.624677	0.092354	0.893181
	H81	H	0.388416	0.085099	0.085611
	H82	H	0.623360	0.900011	0.081102
	H83	H	0.390308	0.905478	0.907034
	H84	H	0.620327	0.911916	0.081918
	H85	H	0.387354	0.091998	0.085973
	H86	H	0.620780	0.091656	0.901815
	H87	H	0.386613	0.911776	0.889332
	H88	H	0.908586	0.086218	0.607819
	H89	H	0.092184	0.102604	0.374234
	H90	H	0.097948	0.905424	0.606254
	H91	H	0.906581	0.895974	0.370146
	H92	H	0.091719	0.615150	0.890185
	H93	H	0.097188	0.380161	0.077003
	H94	H	0.910564	0.618829	0.092928
	H95	H	0.910336	0.377812	0.902744
	H96	H	0.421998	0.110454	0.576152
	H97	H	0.593254	0.882087	0.573350
	H98	H	0.598291	0.115136	0.396895
	H99	H	0.406870	0.875628	0.394387
	H100	H	0.594577	0.406653	0.105047
	H101	H	0.595945	0.594881	0.874497
	H102	H	0.406782	0.586074	0.107880
	H103	H	0.410562	0.399917	0.873254
	H104	H	0.120228	0.575696	0.396972
	H105	H	0.886591	0.594908	0.582682
	H106	H	0.122971	0.414384	0.591231
	H107	H	0.884026	0.397967	0.386093
	H108	H	0.923529	0.611898	0.084212
	H109	H	0.104972	0.375175	0.086017
	H110	H	0.094696	0.611258	0.907121
	H111	H	0.910203	0.375812	0.893513
	H112	H	0.098642	0.901381	0.608587
	H113	H	0.114426	0.091311	0.370062
	H114	H	0.915286	0.089974	0.606577
	H115	H	0.907260	0.912593	0.376742
	H116	H	0.621833	0.084573	0.896945
	H117	H	0.389385	0.089058	0.080431
	H118	H	0.625363	0.906711	0.092159
	H119	H	0.382104	0.893824	0.893584
	C120	C	0.384591	0.005750	0.612112
	C121	C	0.626095	0.987361	0.612892
	C122	C	0.626091	0.005024	0.370197
	C123	C	0.383694	0.988024	0.368972
	C124	C	0.628486	0.375406	-0.000763
	C125	C	0.629611	0.620913	0.982082
	C126	C	0.384046	0.619294	-0.000308
	C127	C	0.383887	0.375429	0.982678
	C128	C	0.015489	0.617777	0.368883
	C129	C	0.997574	0.617341	0.612627
	C130	C	0.015290	0.375176	0.613612
	C131	C	0.997719	0.375156	0.368948
	C132	C	0.885243	0.505704	0.112664
	C133	C	0.127253	0.487254	0.112097
	C134	C	0.127114	0.505599	0.869680
	C135	C	0.884673	0.486914	0.869380
	C136	C	0.127949	0.875041	0.499257
	C137	C	0.128661	0.119371	0.483216
	C138	C	0.883529	0.118457	0.499774
	C139	C	0.883314	0.874243	0.482316
	C140	C	0.513705	0.118441	0.869135
	C141	C	0.497108	0.118778	0.112968
	C142	C	0.514061	0.876421	0.112961
	C143	C	0.495638	0.875421	0.868772
	C144	C	0.385026	0.881390	0.667205
	C145	C	0.625297	0.111838	0.668176
	C146	C	0.624145	0.880982	0.313988
	C147	C	0.385231	0.112454	0.313697
	C148	C	0.682186	0.378480	0.875620
	C149	C	0.683851	0.617414	0.105447
	C150	C	0.328502	0.617120	0.877139
	C151	C	0.328926	0.376973	0.105641
	C152	C	0.890685	0.671471	0.372419
	C153	C	0.121776	0.672793	0.609314
	C154	C	0.890488	0.321027	0.609280
	C155	C	0.122465	0.321737	0.373739
	C156	C	0.891283	0.375783	0.668378
	C157	C	0.120986	0.617005	0.668413
	C158	C	0.891485	0.615750	0.313516
	C159	C	0.121655	0.376515	0.314286
	C160	C	0.387635	0.673238	0.876134
	C161	C	0.624778	0.674562	0.105598
	C162	C	0.625107	0.320568	0.875965
	C163	C	0.387509	0.320237	0.105876
	C164	C	0.680133	0.879888	0.372323
	C165	C	0.681786	0.111926	0.610143
	C166	C	0.329583	0.880861	0.609117
	C167	C	0.329622	0.112894	0.371728
	C168	C	0.887012	0.380619	0.166930
	C169	C	0.127057	0.611580	0.167861
	C170	C	0.126126	0.381173	0.814234
	C171	C	0.886464	0.611181	0.813820
	C172	C	0.182355	0.878630	0.376069
	C173	C	0.183723	0.116780	0.606148
	C174	C	0.828286	0.115782	0.376782
	C175	C	0.827461	0.874834	0.605180
	C176	C	0.389332	0.173330	0.872664
	C177	C	0.622010	0.172785	0.108505
	C178	C	0.389310	0.821880	0.108964
	C179	C	0.620682	0.822645	0.873018
	C180	C	0.389686	0.877891	0.167513
	C181	C	0.620731	0.118061	0.168875
	C182	C	0.389373	0.116891	0.814273
	C183	C	0.619417	0.877112	0.813735
	C184	C	0.887426	0.173057	0.376481
	C185	C	0.125150	0.173776	0.606641
	C186	C	0.124622	0.820477	0.376134
	C187	C	0.886109	0.818444	0.605173
	C188	C	0.182434	0.381116	0.872416
	C189	C	0.181804	0.612561	0.109381
	C190	C	0.830517	0.380615	0.109056
	C191	C	0.831755	0.612421	0.872579
	C192	C	0.407277	0.093190	0.591023
	C193	C	0.603295	0.900588	0.590661
	C194	C	0.603882	0.091927	0.392505
	C195	C	0.405910	0.900666	0.390811
	C196	C	0.606367	0.397787	0.084865
	C197	C	0.608223	0.599274	0.896000
	C198	C	0.405660	0.597602	0.086020
	C199	C	0.405416	0.397910	0.896690
	C200	C	0.102008	0.595589	0.390807
	C201	C	0.910784	0.594051	0.590770
	C202	C	0.102185	0.397993	0.592056
	C203	C	0.910981	0.397254	0.390090
	C204	C	0.907703	0.592552	0.091031
	C205	C	0.105039	0.400288	0.090377
	C206	C	0.104592	0.592596	0.891628
	C207	C	0.906746	0.399871	0.891237
	C208	C	0.105991	0.897130	0.585367
	C209	C	0.106863	0.097294	0.397176
	C210	C	0.904860	0.096443	0.585736
	C211	C	0.905444	0.897004	0.396835
	C212	C	0.600150	0.096164	0.890757
	C213	C	0.410663	0.095758	0.090641
	C214	C	0.600493	0.899289	0.091314
	C215	C	0.408843	0.897046	0.890414
	Zn216	Zn	0.504246	-0.003217	0.741028
	Zn217	Zn	0.505007	-0.002564	0.241759
	Zn218	Zn	0.757867	0.497067	-0.009884
	Zn219	Zn	0.255068	0.497146	-0.008426
	Zn220	Zn	0.005654	0.745331	0.490889
	Zn221	Zn	0.006232	0.248214	0.491384
	Zn222	Zn	0.005615	0.495785	0.741956
	Zn223	Zn	0.006987	0.496249	0.240344
	Zn224	Zn	0.505479	0.748679	-0.009010
	Zn225	Zn	0.506018	0.247094	-0.009393
	Zn226	Zn	0.753883	-0.004975	0.491160
	Zn227	Zn	0.257443	-0.002717	0.491271
	N228	N	0.418588	0.960127	0.669276
	N229	N	0.591288	0.033473	0.669914
	N230	N	0.591266	0.959810	0.312560
	N231	N	0.418002	0.033600	0.311769
	N232	N	0.684459	0.411913	0.953212
	N233	N	0.686866	0.584675	0.027632
	N234	N	0.326306	0.584271	0.954913
	N235	N	0.326660	0.410630	0.028109
	N236	N	0.968861	0.672899	0.406132
	N237	N	0.043874	0.673176	0.575460
	N238	N	0.968669	0.320544	0.575823
	N239	N	0.044347	0.320607	0.406968
	N240	N	0.969931	0.408587	0.671332
	N241	N	0.042581	0.583224	0.670583
	N242	N	0.969940	0.583051	0.311241
	N243	N	0.043099	0.408967	0.311089
	N244	N	0.421246	0.674938	0.953589
	N245	N	0.592226	0.677087	0.027870
	N246	N	0.592383	0.318543	0.953710
	N247	N	0.421048	0.319201	0.028416
	N248	N	0.681455	0.957948	0.406519
	N249	N	0.682513	0.033503	0.576566
	N250	N	0.329425	0.959198	0.575415
	N251	N	0.328744	0.034671	0.405529
	N252	N	0.920067	0.459419	0.169438
	N253	N	0.093616	0.532744	0.169738
	N254	N	0.092610	0.459639	0.812287
	N255	N	0.918610	0.532117	0.811745
	N256	N	0.184448	0.911765	0.453648
	N257	N	0.185976	0.083767	0.528440
	N258	N	0.825701	0.082556	0.454364
	N259	N	0.825614	0.908886	0.527830
	N260	N	0.467408	0.174495	0.906112
	N261	N	0.544217	0.173147	0.074476
	N262	N	0.467379	0.820996	0.075575
	N263	N	0.542634	0.821358	0.906555
	N264	N	0.468216	0.911195	0.170175
	N265	N	0.542015	0.085364	0.171719
	N266	N	0.467675	0.083388	0.812011
	N267	N	0.540799	0.909342	0.810868
	N268	N	0.920773	0.175085	0.454029
	N269	N	0.091691	0.175523	0.529133
	N270	N	0.091228	0.818414	0.453749
	N271	N	0.920019	0.817711	0.527992
	N272	N	0.182877	0.459428	0.906537
	N273	N	0.181980	0.534495	0.075340
	N274	N	0.829114	0.459383	0.076015
	N275	N	0.830504	0.534122	0.906496
	O276	O	0.923002	0.937954	0.034887
	H277	H	0.919416	0.956622	0.033915
	H278	H	0.916781	0.931733	0.034744
	O279	O	-0.020487	-0.009247	0.995826
	H280	H	-0.013744	-0.012570	0.992086
	H281	H	-0.026692	-0.007594	1.001296
	O282	O	0.016093	-0.026363	-0.004432
	H283	H	0.011046	-0.021455	-0.007899
	H284	H	0.008760	-0.036989	-0.009587
	O285	O	0.562446	0.537839	0.572792
	H286	H	0.562245	0.540265	0.581721
	H287	H	0.563762	0.527651	0.576745
	O288	O	-0.018444	-0.031590	0.077372
	H289	H	-0.018608	-0.034480	0.077412
	H290	H	-0.017517	-0.032091	0.082733
	O291	O	0.061607	0.976735	-0.001403
	H292	H	0.064533	0.967559	0.004608
	H293	H	0.066475	0.980773	-0.001543
	O294	O	-0.018299	0.939640	0.049441
	H295	H	-0.029945	0.937434	0.040104
	H296	H	-0.013919	0.938106	0.065434
	O297	O	0.443961	0.474779	0.475269
	H298	H	0.452121	0.479059	0.478880
	H299	H	0.439422	0.476568	0.466891
	O300	O	0.584416	0.471195	0.446676
	H301	H	0.589679	0.482237	0.435905
	H302	H	0.576393	0.486302	0.459711
	O303	O	0.947479	-0.027666	0.999249
	H304	H	0.944354	-0.018768	1.008093
	H305	H	0.954716	-0.027463	1.000819
	O306	O	-0.002229	1.009695	0.946789
	H307	H	-0.004046	1.008740	0.945279
	H308	H	0.004858	1.022693	0.942538
	O309	O	0.021603	1.013964	0.945238
	H310	H	0.030903	1.011244	0.957084
	H311	H	0.016628	1.013126	0.938809
	O312	O	-0.060757	-0.093977	0.950308
	H313	H	-0.068958	-0.101627	0.948223
	H314	H	-0.072638	-0.097100	0.947438
	O315	O	0.525833	0.426251	0.414446
	H316	H	0.530201	0.407244	0.398984
	H317	H	0.527997	0.432924	0.422155
	O318	O	0.019926	-0.001988	1.078764
	H319	H	0.016480	-0.008114	1.088939
	H320	H	0.024262	-0.005131	1.069835
	O321	O	0.016767	1.056377	0.997661
	H322	H	0.026734	1.059023	0.991324
	H323	H	0.026199	1.061299	1.000515
	O324	O	0.956477	-0.024723	0.981791
	H325	H	0.949764	-0.007646	0.984234
	H326	H	0.961601	-0.024750	0.990511
	O327	O	1.032990	1.069350	0.919550
	H328	H	1.025571	1.066955	0.921802
	H329	H	1.034789	1.056606	0.907908
	O330	O	0.526996	0.513015	0.474801
	H331	H	0.519945	0.503778	0.478704
	H332	H	0.526804	0.514737	0.480554
	O333	O	0.579540	0.485056	0.534187
	H334	H	0.581782	0.478632	0.519543
	H335	H	0.580329	0.470875	0.532461
	O336	O	0.458768	0.466641	0.519355
	H337	H	0.451337	0.470478	0.513976
	H338	H	0.471668	0.462070	0.517414
	O339	O	0.500316	0.530613	0.543066
	H340	H	0.498487	0.524562	0.549003
	H341	H	0.499489	0.535573	0.554945
	O342	O	0.571106	0.407851	0.531954
	H343	H	0.561652	0.415594	0.520136
	H344	H	0.580334	0.398562	0.533013
	O345	O	0.516335	0.541455	0.472211
	H346	H	0.503055	0.537188	0.474612
	H347	H	0.525975	0.548937	0.475033
