data_Molecule from HDF5

_cell_length_a		16.264258
_cell_length_b		16.173938
_cell_length_c		16.331621
_cell_angle_alpha	89.968232
_cell_angle_beta	89.873378
_cell_angle_gamma	89.881434
_symmetry_space_group_name_H-M	'P 1'
_symmetry_Int_Tables_number		1

loop_
	_symmetry_equiv_pos_as_xyz
	x,y,z

loop_
	_atom_site_label
	_atom_site_type_symbol
	_atom_site_fract_x
	_atom_site_fract_y
	_atom_site_fract_z
	H0	H	0.395114	0.832981	0.720010
	H1	H	0.592664	0.161900	0.717913
	H2	H	0.593154	0.832100	0.291479
	H3	H	0.395244	0.161870	0.289987
	H4	H	0.710871	0.397375	0.842120
	H5	H	0.707510	0.593717	0.168795
	H6	H	0.280535	0.597051	0.841772
	H7	H	0.280586	0.398731	0.168430
	H8	H	0.828696	0.709816	0.409610
	H9	H	0.158886	0.709293	0.600956
	H10	H	0.829497	0.284939	0.602507
	H11	H	0.158589	0.283634	0.408421
	H12	H	0.831188	0.397650	0.721970
	H13	H	0.158576	0.595859	0.719562
	H14	H	0.830251	0.597236	0.289449
	H15	H	0.157752	0.396761	0.289167
	H16	H	0.398254	0.711160	0.841609
	H17	H	0.591536	0.710116	0.168773
	H18	H	0.591680	0.284455	0.841035
	H19	H	0.397960	0.283192	0.168364
	H20	H	0.708054	0.832390	0.407189
	H21	H	0.705950	0.162294	0.601551
	H22	H	0.280860	0.832087	0.603186
	H23	H	0.281278	0.162034	0.407664
	H24	H	0.895877	0.333224	0.219285
	H25	H	0.092069	0.661959	0.219222
	H26	H	0.094882	0.332556	0.790563
	H27	H	0.897442	0.661285	0.792186
	H28	H	0.209996	0.898850	0.341398
	H29	H	0.207782	0.095206	0.668773
	H30	H	0.779151	0.096028	0.341338
	H31	H	0.779012	0.898987	0.667873
	H32	H	0.329863	0.209228	0.910199
	H33	H	0.658838	0.208994	0.101196
	H34	H	0.329780	0.783897	0.102267
	H35	H	0.658991	0.784438	0.908827
	H36	H	0.330785	0.896989	0.221202
	H37	H	0.658022	0.095257	0.219257
	H38	H	0.330659	0.096544	0.791645
	H39	H	0.657822	0.897717	0.789956
	H40	H	0.896747	0.210724	0.340570
	H41	H	0.089743	0.209784	0.669258
	H42	H	0.091813	0.783396	0.341131
	H43	H	0.897339	0.784631	0.668872
	H44	H	0.208368	0.332427	0.907397
	H45	H	0.206588	0.662433	0.102033
	H46	H	0.783271	0.331783	0.101974
	H47	H	0.781548	0.661658	0.907116
	H48	H	0.388813	0.117482	0.596991
	H49	H	0.581023	0.881766	0.594693
	H50	H	0.591009	0.119303	0.398468
	H51	H	0.398989	0.879120	0.412441
	H52	H	0.598578	0.404875	0.124248
	H53	H	0.580898	0.602941	0.886696
	H54	H	0.403519	0.584271	0.118940
	H55	H	0.409695	0.400385	0.889762
	H56	H	0.110578	0.588887	0.409893
	H57	H	0.874990	0.602031	0.595738
	H58	H	0.111571	0.401664	0.598640
	H59	H	0.880093	0.406575	0.418895
	H60	H	0.110321	0.406149	0.596854
	H61	H	0.882042	0.581178	0.592060
	H62	H	0.110635	0.591598	0.410718
	H63	H	0.877563	0.410621	0.406135
	H64	H	0.403977	0.594512	0.121797
	H65	H	0.603104	0.591136	0.884251
	H66	H	0.583982	0.409295	0.118538
	H67	H	0.394682	0.397608	0.884652
	H68	H	0.572957	0.110218	0.412344
	H69	H	0.593524	0.878742	0.594679
	H70	H	0.405278	0.117051	0.609320
	H71	H	0.402956	0.879504	0.408951
	H72	H	0.910098	0.615888	0.109232
	H73	H	0.088911	0.379402	0.098240
	H74	H	0.086757	0.613928	0.913130
	H75	H	0.906473	0.378867	0.907814
	H76	H	0.089747	0.894150	0.624542
	H77	H	0.089865	0.094909	0.387392
	H78	H	0.900031	0.089246	0.619933
	H79	H	0.897207	0.909338	0.389028
	H80	H	0.610746	0.095634	0.919424
	H81	H	0.377349	0.092145	0.097458
	H82	H	0.612495	0.897023	0.096974
	H83	H	0.375090	0.898678	0.912614
	H84	H	0.609192	0.908343	0.094912
	H85	H	0.378267	0.087276	0.097886
	H86	H	0.609370	0.079778	0.909976
	H87	H	0.379898	0.908388	0.915949
	H88	H	0.900110	0.092633	0.621221
	H89	H	0.091790	0.086867	0.388686
	H90	H	0.096306	0.909720	0.621614
	H91	H	0.906369	0.904344	0.389853
	H92	H	0.089887	0.615704	0.911354
	H93	H	0.088111	0.379163	0.099532
	H94	H	0.904038	0.610740	0.086080
	H95	H	0.905818	0.381816	0.917994
	H96	H	0.406626	0.110227	0.590046
	H97	H	0.586130	0.877731	0.605816
	H98	H	0.594878	0.114173	0.422037
	H99	H	0.404257	0.881084	0.414374
	H100	H	0.585642	0.394102	0.123507
	H101	H	0.584355	0.578264	0.893159
	H102	H	0.394887	0.589128	0.122542
	H103	H	0.399243	0.412789	0.890381
	H104	H	0.110306	0.589401	0.412209
	H105	H	0.874769	0.587881	0.612386
	H106	H	0.110920	0.404480	0.601547
	H107	H	0.874111	0.398049	0.409471
	H108	H	0.887096	0.619441	0.100855
	H109	H	0.087059	0.379866	0.098411
	H110	H	0.087186	0.615214	0.908696
	H111	H	0.897062	0.377433	0.912883
	H112	H	0.079495	0.905851	0.617348
	H113	H	0.083882	0.089307	0.389996
	H114	H	0.896468	0.090410	0.621607
	H115	H	0.898445	0.898758	0.386419
	H116	H	0.616048	0.094860	0.901309
	H117	H	0.376701	0.089908	0.101535
	H118	H	0.612665	0.904947	0.105552
	H119	H	0.377288	0.906755	0.905108
	C120	C	0.372867	0.005513	0.626767
	C121	C	0.614852	0.988626	0.626064
	C122	C	0.615072	0.005593	0.383129
	C123	C	0.373309	0.988607	0.383648
	C124	C	0.617622	0.374892	0.013831
	C125	C	0.616787	0.618562	0.996538
	C126	C	0.372562	0.618703	0.013361
	C127	C	0.373112	0.375411	0.996526
	C128	C	0.001760	0.618492	0.383586
	C129	C	0.986209	0.618276	0.627448
	C130	C	0.002623	0.375609	0.627302
	C131	C	0.985795	0.376099	0.383521
	C132	C	0.873052	0.506062	0.126488
	C133	C	0.115835	0.488712	0.126545
	C134	C	0.116702	0.505798	0.883077
	C135	C	0.874779	0.488406	0.884671
	C136	C	0.116493	0.875315	0.513077
	C137	C	0.116188	0.118802	0.496712
	C138	C	0.871157	0.119291	0.512888
	C139	C	0.872227	0.875934	0.496412
	C140	C	0.502976	0.118373	0.883182
	C141	C	0.486012	0.118009	0.126653
	C142	C	0.502767	0.875417	0.126983
	C143	C	0.485915	0.875719	0.883469
	C144	C	0.375275	0.881749	0.681698
	C145	C	0.612680	0.112579	0.680538
	C146	C	0.613705	0.881509	0.328562
	C147	C	0.375324	0.112731	0.328436
	C148	C	0.672175	0.377901	0.890578
	C149	C	0.670247	0.614783	0.119698
	C150	C	0.318213	0.616872	0.890370
	C151	C	0.318599	0.378314	0.119688
	C152	C	0.877907	0.672941	0.387847
	C153	C	0.109866	0.672216	0.622567
	C154	C	0.878872	0.321733	0.624115
	C155	C	0.109452	0.321165	0.387317
	C156	C	0.879823	0.377507	0.683459
	C157	C	0.109710	0.615873	0.681650
	C158	C	0.878616	0.616764	0.328445
	C159	C	0.109180	0.377499	0.328222
	C160	C	0.376840	0.673534	0.890189
	C161	C	0.612395	0.672495	0.120022
	C162	C	0.613283	0.321450	0.890080
	C163	C	0.377033	0.321065	0.119702
	C164	C	0.670560	0.881621	0.386183
	C165	C	0.669304	0.112702	0.622845
	C166	C	0.318627	0.881356	0.623608
	C167	C	0.318673	0.112862	0.386509
	C168	C	0.875894	0.382077	0.181353
	C169	C	0.112805	0.612842	0.181198
	C170	C	0.114722	0.381588	0.828503
	C171	C	0.877087	0.612484	0.829969
	C172	C	0.171476	0.878230	0.389959
	C173	C	0.170030	0.115446	0.620085
	C174	C	0.817210	0.116417	0.389839
	C175	C	0.817127	0.878571	0.619213
	C176	C	0.379180	0.172303	0.888219
	C177	C	0.609990	0.171516	0.122544
	C178	C	0.378886	0.821105	0.123506
	C179	C	0.609879	0.821635	0.887453
	C180	C	0.379436	0.876888	0.182592
	C181	C	0.609396	0.115246	0.181471
	C182	C	0.379678	0.116267	0.829152
	C183	C	0.609106	0.877632	0.828210
	C184	C	0.875244	0.173884	0.389805
	C185	C	0.111645	0.172551	0.620189
	C186	C	0.113100	0.820745	0.389919
	C187	C	0.875752	0.821635	0.619780
	C188	C	0.170995	0.381478	0.886670
	C189	C	0.169760	0.612928	0.123166
	C190	C	0.819799	0.381493	0.123193
	C191	C	0.819549	0.612482	0.887129
	C192	C	0.394049	0.092399	0.605180
	C193	C	0.593178	0.901746	0.604714
	C194	C	0.592875	0.092306	0.404534
	C195	C	0.395387	0.902164	0.405443
	C196	C	0.595872	0.396385	0.099854
	C197	C	0.595563	0.597250	0.910182
	C198	C	0.394319	0.596029	0.099054
	C199	C	0.394730	0.397004	0.910520
	C200	C	0.088218	0.596470	0.404653
	C201	C	0.899528	0.596593	0.606411
	C202	C	0.088726	0.397718	0.605419
	C203	C	0.899549	0.398417	0.405104
	C204	C	0.894276	0.592904	0.105115
	C205	C	0.094451	0.402023	0.105118
	C206	C	0.094615	0.592582	0.904660
	C207	C	0.896720	0.401760	0.906363
	C208	C	0.094907	0.896766	0.598965
	C209	C	0.094960	0.096990	0.410922
	C210	C	0.892671	0.097245	0.598889
	C211	C	0.894051	0.897692	0.410523
	C212	C	0.589751	0.096594	0.904124
	C213	C	0.399774	0.096365	0.105205
	C214	C	0.588998	0.897025	0.105491
	C215	C	0.399715	0.897860	0.904980
	Zn216	Zn	0.494185	-0.002768	0.754693
	Zn217	Zn	0.493816	-0.003318	0.255105
	Zn218	Zn	0.745889	0.496798	0.005092
	Zn219	Zn	0.243911	0.497116	0.004715
	Zn220	Zn	-0.006127	0.747033	0.505305
	Zn221	Zn	-0.006701	0.247283	0.505140
	Zn222	Zn	-0.005103	0.496719	0.756057
	Zn223	Zn	-0.005865	0.497185	0.254243
	Zn224	Zn	0.494298	0.747236	0.005180
	Zn225	Zn	0.495169	0.246837	0.005069
	Zn226	Zn	0.742706	-0.002689	0.504650
	Zn227	Zn	0.245551	-0.002618	0.505026
	N228	N	0.407889	0.960026	0.683961
	N229	N	0.579442	0.034412	0.682663
	N230	N	0.580042	0.959614	0.326330
	N231	N	0.408905	0.034643	0.326880
	N232	N	0.675052	0.410100	0.968505
	N233	N	0.672967	0.581964	0.041931
	N234	N	0.315544	0.583304	0.967894
	N235	N	0.315750	0.411035	0.041894
	N236	N	0.955645	0.674223	0.421309
	N237	N	0.032053	0.673800	0.589432
	N238	N	0.956156	0.320511	0.589852
	N239	N	0.031794	0.320326	0.421059
	N240	N	0.957786	0.410377	0.685466
	N241	N	0.031665	0.583278	0.684664
	N242	N	0.956659	0.583852	0.325595
	N243	N	0.031399	0.410987	0.325718
	N244	N	0.409779	0.674720	0.967596
	N245	N	0.579648	0.674821	0.042384
	N246	N	0.580043	0.319274	0.967697
	N247	N	0.410206	0.319240	0.042144
	N248	N	0.671314	0.959724	0.419543
	N249	N	0.670795	0.034605	0.589541
	N250	N	0.317146	0.959353	0.589950
	N251	N	0.317107	0.034841	0.420023
	N252	N	0.908489	0.460467	0.183408
	N253	N	0.080032	0.534641	0.183435
	N254	N	0.081460	0.459947	0.826248
	N255	N	0.910477	0.534358	0.828238
	N256	N	0.173870	0.911329	0.467547
	N257	N	0.173076	0.082664	0.542280
	N258	N	0.814485	0.083267	0.467279
	N259	N	0.814720	0.911541	0.541512
	N260	N	0.457081	0.173957	0.920840
	N261	N	0.532392	0.173487	0.089342
	N262	N	0.456690	0.819797	0.089801
	N263	N	0.532342	0.820368	0.921055
	N264	N	0.457294	0.909799	0.184888
	N265	N	0.531238	0.082653	0.184002
	N266	N	0.457747	0.083372	0.826271
	N267	N	0.531104	0.910731	0.825644
	N268	N	0.908132	0.175588	0.467432
	N269	N	0.078652	0.174480	0.542873
	N270	N	0.079677	0.818838	0.467314
	N271	N	0.909541	0.820271	0.542695
	N272	N	0.172334	0.459567	0.919832
	N273	N	0.171536	0.534860	0.089683
	N274	N	0.817874	0.459508	0.089922
	N275	N	0.818019	0.534272	0.920390
	O276	O	1.445707	0.467643	0.472872
	H277	H	1.447665	0.464682	0.472232
	H278	H	1.441884	0.468363	0.468763
	O279	O	0.456294	0.473863	0.462877
	H280	H	0.458519	0.475605	0.460025
	H281	H	0.452191	0.474900	0.462003
	O282	O	1.003783	0.969891	-0.017710
	H283	H	1.006478	0.965155	-0.017884
	H284	H	1.007426	0.969159	-0.020968
	O285	O	0.453408	0.484410	0.460542
	H286	H	0.449429	0.479622	0.458172
	H287	H	0.448902	0.489912	0.462508
