data_Molecule from HDF5

_cell_length_a		16.300606
_cell_length_b		16.206346
_cell_length_c		16.089325
_cell_angle_alpha	90.265070
_cell_angle_beta	89.938256
_cell_angle_gamma	89.693362
_symmetry_space_group_name_H-M	'P 1'
_symmetry_Int_Tables_number		1

loop_
	_symmetry_equiv_pos_as_xyz
	x,y,z

loop_
	_atom_site_label
	_atom_site_type_symbol
	_atom_site_fract_x
	_atom_site_fract_y
	_atom_site_fract_z
	H0	H	0.410854	0.829639	0.704822
	H1	H	0.603680	0.160193	0.707818
	H2	H	0.604851	0.831598	0.278739
	H3	H	0.409219	0.161154	0.283205
	H4	H	0.721408	0.395126	0.829379
	H5	H	0.716968	0.596858	0.158667
	H6	H	0.291334	0.595375	0.828581
	H7	H	0.291863	0.397866	0.158571
	H8	H	0.842543	0.711388	0.395423
	H9	H	0.169205	0.710606	0.593518
	H10	H	0.842518	0.281506	0.593261
	H11	H	0.168952	0.279519	0.392264
	H12	H	0.841154	0.400448	0.706669
	H13	H	0.169267	0.594049	0.708502
	H14	H	0.840790	0.593722	0.281881
	H15	H	0.169590	0.397013	0.278447
	H16	H	0.406825	0.709139	0.827681
	H17	H	0.600855	0.708405	0.158935
	H18	H	0.605483	0.281196	0.828575
	H19	H	0.406780	0.284328	0.159404
	H20	H	0.723494	0.832424	0.390576
	H21	H	0.721136	0.159985	0.594012
	H22	H	0.291391	0.831615	0.592616
	H23	H	0.289242	0.158659	0.393195
	H24	H	0.908998	0.331253	0.205689
	H25	H	0.099852	0.661696	0.206147
	H26	H	0.103599	0.331232	0.779833
	H27	H	0.906301	0.661555	0.781715
	H28	H	0.220641	0.894029	0.327785
	H29	H	0.220077	0.095049	0.658296
	H30	H	0.791587	0.096502	0.328292
	H31	H	0.793185	0.896665	0.658146
	H32	H	0.342595	0.211050	0.894517
	H33	H	0.669553	0.211555	0.093716
	H34	H	0.342825	0.783502	0.092908
	H35	H	0.669378	0.779589	0.892646
	H36	H	0.342021	0.900624	0.206502
	H37	H	0.670028	0.094612	0.208551
	H38	H	0.342095	0.095146	0.779031
	H39	H	0.670203	0.896160	0.779891
	H40	H	0.907268	0.209656	0.327773
	H41	H	0.104598	0.209127	0.658587
	H42	H	0.105074	0.780907	0.327842
	H43	H	0.909726	0.785276	0.658514
	H44	H	0.222701	0.332637	0.891924
	H45	H	0.219693	0.660330	0.095647
	H46	H	0.788841	0.333757	0.094845
	H47	H	0.788557	0.660408	0.894282
	H48	H	0.404705	0.116305	0.591044
	H49	H	0.599777	0.880170	0.579668
	H50	H	0.601071	0.113764	0.404100
	H51	H	0.420349	0.879235	0.395304
	H52	H	0.603245	0.396060	0.116576
	H53	H	0.598927	0.579509	0.876511
	H54	H	0.413810	0.592508	0.111785
	H55	H	0.418492	0.407230	0.877853
	H56	H	0.120478	0.582220	0.400846
	H57	H	0.889796	0.591170	0.586913
	H58	H	0.125946	0.401964	0.596656
	H59	H	0.885527	0.394119	0.397416
	H60	H	0.122735	0.393359	0.580000
	H61	H	0.887823	0.592129	0.588150
	H62	H	0.124856	0.590356	0.392992
	H63	H	0.892337	0.403062	0.411223
	H64	H	0.408666	0.592204	0.113705
	H65	H	0.591632	0.592363	0.874822
	H66	H	0.602330	0.415538	0.110474
	H67	H	0.413439	0.395866	0.873609
	H68	H	0.601685	0.114311	0.400600
	H69	H	0.607190	0.876563	0.586030
	H70	H	0.420821	0.111516	0.590439
	H71	H	0.413246	0.878955	0.407661
	H72	H	0.901720	0.614557	0.081065
	H73	H	0.095365	0.379381	0.089021
	H74	H	0.100015	0.609250	0.917391
	H75	H	0.913610	0.378086	0.895585
	H76	H	0.098051	0.899892	0.612737
	H77	H	0.107199	0.083550	0.373119
	H78	H	0.912639	0.088299	0.611451
	H79	H	0.909343	0.908892	0.374165
	H80	H	0.621137	0.092490	0.909912
	H81	H	0.389713	0.093139	0.083845
	H82	H	0.623375	0.903704	0.087414
	H83	H	0.386937	0.907848	0.888233
	H84	H	0.623407	0.900545	0.085089
	H85	H	0.390445	0.087534	0.088813
	H86	H	0.620243	0.079335	0.900043
	H87	H	0.386454	0.890604	0.901374
	H88	H	0.914137	0.088840	0.611336
	H89	H	0.091688	0.081730	0.378326
	H90	H	0.103887	0.904175	0.612665
	H91	H	0.920877	0.902713	0.376681
	H92	H	0.111825	0.619527	0.895321
	H93	H	0.099910	0.380910	0.080179
	H94	H	0.908804	0.617882	0.097549
	H95	H	0.918786	0.382940	0.904852
	H96	H	0.411969	0.109620	0.576050
	H97	H	0.597791	0.877570	0.589310
	H98	H	0.598313	0.112562	0.402444
	H99	H	0.406928	0.874444	0.396176
	H100	H	0.586046	0.403580	0.108557
	H101	H	0.605705	0.591633	0.870998
	H102	H	0.411798	0.588492	0.111893
	H103	H	0.405991	0.406515	0.873857
	H104	H	0.123149	0.593453	0.404871
	H105	H	0.888249	0.591965	0.586739
	H106	H	0.118869	0.411780	0.582324
	H107	H	0.889705	0.410927	0.395365
	H108	H	0.918912	0.611266	0.085109
	H109	H	0.104862	0.376277	0.087803
	H110	H	0.085500	0.612750	0.894465
	H111	H	0.907442	0.379091	0.905835
	H112	H	0.097126	0.906638	0.609658
	H113	H	0.097113	0.096185	0.373368
	H114	H	0.912642	0.090016	0.611336
	H115	H	0.911706	0.897253	0.371340
	H116	H	0.626045	0.093225	0.894494
	H117	H	0.387683	0.093795	0.090477
	H118	H	0.622171	0.903575	0.083733
	H119	H	0.393404	0.909762	0.909480
	C120	C	0.384879	0.003809	0.614335
	C121	C	0.629266	0.986952	0.615019
	C122	C	0.629088	0.005004	0.371952
	C123	C	0.384654	0.986495	0.371912
	C124	C	0.626971	0.375236	0.002816
	C125	C	0.625891	0.616893	0.984151
	C126	C	0.383399	0.618838	0.002579
	C127	C	0.384581	0.375518	0.984922
	C128	C	0.014317	0.617725	0.371956
	C129	C	0.997036	0.618983	0.615840
	C130	C	0.014345	0.374448	0.615321
	C131	C	0.997382	0.373598	0.371518
	C132	C	0.882714	0.505834	0.115681
	C133	C	0.127466	0.487700	0.115012
	C134	C	0.127696	0.505005	0.872636
	C135	C	0.883604	0.488268	0.873428
	C136	C	0.128277	0.873944	0.502050
	C137	C	0.127433	0.116530	0.484364
	C138	C	0.884610	0.117833	0.501930
	C139	C	0.885588	0.875350	0.483723
	C140	C	0.514365	0.117577	0.872568
	C141	C	0.497519	0.119425	0.116552
	C142	C	0.514801	0.875022	0.114450
	C143	C	0.497460	0.873712	0.870923
	C144	C	0.388996	0.879247	0.668206
	C145	C	0.625071	0.110890	0.670361
	C146	C	0.625823	0.880923	0.316208
	C147	C	0.387682	0.111488	0.319184
	C148	C	0.683012	0.375749	0.878569
	C149	C	0.679617	0.615985	0.109024
	C150	C	0.328479	0.615970	0.878033
	C151	C	0.329712	0.378039	0.109423
	C152	C	0.891016	0.673022	0.375372
	C153	C	0.120463	0.672900	0.613588
	C154	C	0.891319	0.319529	0.613469
	C155	C	0.120236	0.317984	0.372705
	C156	C	0.890580	0.378539	0.669999
	C157	C	0.120457	0.614994	0.670630
	C158	C	0.890162	0.614772	0.318611
	C159	C	0.120543	0.376288	0.315867
	C160	C	0.386311	0.672205	0.877368
	C161	C	0.622152	0.671676	0.109150
	C162	C	0.625732	0.318978	0.878235
	C163	C	0.386587	0.321294	0.109637
	C164	C	0.684778	0.881313	0.372007
	C165	C	0.683460	0.110793	0.613777
	C166	C	0.329717	0.880217	0.612509
	C167	C	0.327812	0.109921	0.373465
	C168	C	0.887069	0.380945	0.169164
	C169	C	0.122193	0.611905	0.169564
	C170	C	0.124409	0.380840	0.817212
	C171	C	0.886070	0.612413	0.819111
	C172	C	0.182958	0.874683	0.377254
	C173	C	0.182072	0.114277	0.609059
	C174	C	0.829428	0.116128	0.377600
	C175	C	0.830837	0.877476	0.608506
	C176	C	0.391338	0.173153	0.874440
	C177	C	0.620666	0.174086	0.114101
	C178	C	0.391732	0.821158	0.112630
	C179	C	0.620411	0.817355	0.872700
	C180	C	0.391491	0.879322	0.169402
	C181	C	0.620969	0.115879	0.171162
	C182	C	0.391176	0.115453	0.816854
	C183	C	0.620864	0.875535	0.816350
	C184	C	0.886795	0.172734	0.377458
	C185	C	0.124921	0.171417	0.609151
	C186	C	0.125384	0.818487	0.377413
	C187	C	0.888422	0.821723	0.608926
	C188	C	0.183611	0.381280	0.872867
	C189	C	0.181752	0.611388	0.114577
	C190	C	0.827354	0.382214	0.114083
	C191	C	0.827008	0.611629	0.874706
	C192	C	0.406172	0.089881	0.592218
	C193	C	0.607897	0.900313	0.591935
	C194	C	0.606783	0.091385	0.395422
	C195	C	0.406963	0.900160	0.393322
	C196	C	0.604124	0.398268	0.089604
	C197	C	0.604795	0.594380	0.896744
	C198	C	0.404969	0.597450	0.089876
	C199	C	0.406320	0.396989	0.897619
	C200	C	0.100646	0.595405	0.393274
	C201	C	0.910933	0.598061	0.593778
	C202	C	0.100168	0.396098	0.593131
	C203	C	0.911336	0.396176	0.394419
	C204	C	0.903656	0.592176	0.094303
	C205	C	0.106413	0.401228	0.092296
	C206	C	0.105532	0.591367	0.895591
	C207	C	0.906430	0.402299	0.895600
	C208	C	0.106421	0.896621	0.589094
	C209	C	0.105387	0.093770	0.397197
	C210	C	0.906750	0.095583	0.589034
	C211	C	0.907579	0.896579	0.396606
	C212	C	0.600177	0.095064	0.894928
	C213	C	0.411589	0.097854	0.094326
	C214	C	0.600847	0.896394	0.092191
	C215	C	0.411273	0.896129	0.893210
	Zn216	Zn	0.506635	-0.004628	0.743036
	Zn217	Zn	0.506513	-0.003659	0.244346
	Zn218	Zn	0.754161	0.497004	-0.006068
	Zn219	Zn	0.256635	0.496531	-0.006040
	Zn220	Zn	0.006103	0.747330	0.493458
	Zn221	Zn	0.006224	0.244862	0.493405
	Zn222	Zn	0.004955	0.496992	0.744437
	Zn223	Zn	0.005165	0.496192	0.243381
	Zn224	Zn	0.505858	0.745119	-0.007311
	Zn225	Zn	0.505993	0.247825	-0.005866
	Zn226	Zn	0.757787	-0.004107	0.493160
	Zn227	Zn	0.255791	-0.004852	0.492695
	N228	N	0.422459	0.957110	0.669592
	N229	N	0.591969	0.032906	0.671245
	N230	N	0.591819	0.958840	0.315982
	N231	N	0.422368	0.034015	0.317967
	N232	N	0.683826	0.410016	0.957023
	N233	N	0.682027	0.582670	0.030208
	N234	N	0.326629	0.583481	0.956934
	N235	N	0.328360	0.411136	0.030824
	N236	N	0.969209	0.674924	0.407805
	N237	N	0.042793	0.675624	0.580190
	N238	N	0.969118	0.316691	0.580412
	N239	N	0.042691	0.316231	0.406332
	N240	N	0.968071	0.412025	0.671278
	N241	N	0.042821	0.582169	0.672229
	N242	N	0.967595	0.580654	0.316785
	N243	N	0.042810	0.410117	0.315020
	N244	N	0.419721	0.674200	0.955858
	N245	N	0.589092	0.672205	0.030450
	N246	N	0.591500	0.318545	0.956485
	N247	N	0.420077	0.319486	0.031102
	N248	N	0.686927	0.959457	0.405878
	N249	N	0.686045	0.032595	0.580071
	N250	N	0.327000	0.958429	0.579599
	N251	N	0.325901	0.031353	0.405722
	N252	N	0.920697	0.458673	0.170592
	N253	N	0.089016	0.534015	0.170067
	N254	N	0.090272	0.458739	0.816769
	N255	N	0.920537	0.534700	0.817984
	N256	N	0.184801	0.908671	0.455780
	N257	N	0.183942	0.080856	0.530071
	N258	N	0.827931	0.082679	0.456063
	N259	N	0.828829	0.909970	0.529631
	N260	N	0.468804	0.174656	0.908313
	N261	N	0.542866	0.176446	0.080891
	N262	N	0.469383	0.818173	0.079095
	N263	N	0.542358	0.815925	0.906019
	N264	N	0.469239	0.911961	0.170851
	N265	N	0.543462	0.082699	0.173057
	N266	N	0.468911	0.081581	0.815332
	N267	N	0.543626	0.909945	0.815421
	N268	N	0.920507	0.173767	0.455944
	N269	N	0.091626	0.172675	0.530662
	N270	N	0.092076	0.817826	0.456006
	N271	N	0.922052	0.820283	0.530427
	N272	N	0.185753	0.459378	0.906781
	N273	N	0.184897	0.533141	0.081027
	N274	N	0.824194	0.460612	0.081812
	N275	N	0.825457	0.533645	0.907831
	O276	O	0.969242	1.019023	0.029227
	H277	H	0.970510	1.032102	0.028525
	H278	H	0.961834	1.013812	0.038420
	O279	O	0.056142	-0.045319	0.950516
	H280	H	0.050057	-0.050865	0.953892
	H281	H	0.056306	-0.043770	0.951735
	O282	O	-0.054132	0.091328	-0.063995
	H283	H	-0.051655	0.096688	-0.066829
	H284	H	-0.057579	0.091430	-0.060361
	O285	O	0.467219	0.479766	0.498454
	H286	H	0.468578	0.475633	0.506010
	H287	H	0.456832	0.486553	0.499841
	O288	O	0.005668	-0.046707	0.040768
	H289	H	0.020445	-0.055916	0.047746
	H290	H	0.003457	-0.051328	0.030168
	O291	O	0.020706	1.017311	-0.092738
	H292	H	0.025759	1.009887	-0.098620
	H293	H	0.029091	1.018416	-0.089184
	O294	O	-0.029913	1.028857	-0.100662
	H295	H	-0.035373	1.030220	-0.109956
	H296	H	-0.034473	1.035662	-0.112814
	O297	O	0.468064	0.433902	0.505167
	H298	H	0.464836	0.435827	0.518654
	H299	H	0.463946	0.431124	0.511831
	O300	O	0.569672	0.466211	0.500304
	H301	H	0.570601	0.460089	0.504597
	H302	H	0.569708	0.463577	0.499186
	O303	O	1.029657	-0.041587	0.979215
	H304	H	1.028167	-0.044239	0.987059
	H305	H	1.032561	-0.045613	0.966622
	O306	O	-0.017707	1.029205	0.955858
	H307	H	-0.010408	1.023447	0.950213
	H308	H	-0.031180	1.030667	0.952299
	O309	O	0.013335	1.004022	1.014147
	H310	H	0.009413	1.003004	1.016850
	H311	H	0.013800	1.005262	1.014453
	O312	O	-0.020589	-0.005178	1.021343
	H313	H	-0.020326	-0.012209	1.017329
	H314	H	-0.018263	-0.006462	1.022795
	O315	O	0.526995	0.457462	0.511841
	H316	H	0.530153	0.460381	0.500048
	H317	H	0.519441	0.451562	0.509672
	O318	O	0.003429	0.058099	0.945287
	H319	H	0.006789	0.053392	0.960157
	H320	H	0.000889	0.072326	0.946714
	O321	O	0.036586	0.996733	1.053682
	H322	H	0.038217	1.005214	1.050340
	H323	H	0.040814	0.996867	1.061446
	O324	O	1.027859	-0.069836	0.936146
	H325	H	1.034028	-0.074638	0.932495
	H326	H	1.028471	-0.061180	0.935486
	O327	O	1.018302	1.020378	0.992861
	H328	H	1.018331	1.006380	0.996020
	H329	H	1.012985	1.025636	0.989123
	O330	O	0.540745	0.450304	0.467360
	H331	H	0.544380	0.448726	0.467608
	H332	H	0.544707	0.445771	0.463243
	O333	O	0.481605	0.492933	0.491896
	H334	H	0.477826	0.498252	0.495981
	H335	H	0.486452	0.491891	0.488291
	O336	O	0.497030	0.444325	0.500303
	H337	H	0.501561	0.447219	0.492102
	H338	H	0.493670	0.446747	0.500227
	O339	O	0.437195	0.450654	0.518749
	H340	H	0.430208	0.449473	0.512591
	H341	H	0.444336	0.460801	0.523590
	O342	O	0.542100	0.540826	0.469617
	H343	H	0.543178	0.544937	0.479135
	H344	H	0.551595	0.538199	0.462099
	O345	O	0.539866	0.469441	0.447702
	H346	H	0.535572	0.467569	0.434890
	H347	H	0.543366	0.453851	0.443255
