data_Molecule from HDF5

_cell_length_a		16.257139
_cell_length_b		16.281829
_cell_length_c		16.247189
_cell_angle_alpha	90.034069
_cell_angle_beta	90.066493
_cell_angle_gamma	89.916833
_symmetry_space_group_name_H-M	'P 1'
_symmetry_Int_Tables_number		1

loop_
	_symmetry_equiv_pos_as_xyz
	x,y,z

loop_
	_atom_site_label
	_atom_site_type_symbol
	_atom_site_fract_x
	_atom_site_fract_y
	_atom_site_fract_z
	H0	H	0.402005	0.835661	0.714544
	H1	H	0.598254	0.163802	0.715145
	H2	H	0.598636	0.836615	0.285477
	H3	H	0.401154	0.163165	0.285357
	H4	H	0.714400	0.401689	0.835938
	H5	H	0.712937	0.597373	0.164044
	H6	H	0.285735	0.597601	0.835681
	H7	H	0.286408	0.402921	0.163816
	H8	H	0.836002	0.713837	0.402248
	H9	H	0.163976	0.714353	0.599134
	H10	H	0.836059	0.286137	0.599041
	H11	H	0.164045	0.286465	0.402503
	H12	H	0.836082	0.403631	0.713130
	H13	H	0.164907	0.596313	0.713213
	H14	H	0.835677	0.597357	0.286130
	H15	H	0.163903	0.402534	0.286515
	H16	H	0.400815	0.713951	0.835231
	H17	H	0.597227	0.713818	0.164002
	H18	H	0.598603	0.285515	0.835511
	H19	H	0.401839	0.286172	0.163772
	H20	H	0.713517	0.836062	0.402427
	H21	H	0.713617	0.164070	0.598434
	H22	H	0.285274	0.836626	0.598834
	H23	H	0.286311	0.163837	0.402872
	H24	H	0.902803	0.335597	0.213176
	H25	H	0.097459	0.664180	0.213829
	H26	H	0.098494	0.335891	0.785909
	H27	H	0.902504	0.663983	0.786428
	H28	H	0.213621	0.902669	0.335744
	H29	H	0.212863	0.097458	0.664115
	H30	H	0.784875	0.099331	0.336707
	H31	H	0.786891	0.903542	0.664801
	H32	H	0.335785	0.213501	0.902225
	H33	H	0.664167	0.214456	0.099401
	H34	H	0.336181	0.786543	0.097565
	H35	H	0.663835	0.784836	0.901685
	H36	H	0.335799	0.902747	0.213024
	H37	H	0.664142	0.097054	0.213766
	H38	H	0.335664	0.097895	0.786233
	H39	H	0.664499	0.903403	0.787996
	H40	H	0.899390	0.216034	0.336695
	H41	H	0.097886	0.214613	0.663983
	H42	H	0.099014	0.785079	0.336128
	H43	H	0.902644	0.786620	0.664155
	H44	H	0.215457	0.336226	0.900558
	H45	H	0.214020	0.664515	0.097211
	H46	H	0.786138	0.336088	0.097486
	H47	H	0.785618	0.663881	0.902363
	H48	H	0.410278	0.113749	0.590261
	H49	H	0.601824	0.880937	0.591330
	H50	H	0.593147	0.116147	0.407857
	H51	H	0.405201	0.882461	0.405533
	H52	H	0.595075	0.409002	0.116511
	H53	H	0.588025	0.588439	0.885287
	H54	H	0.407078	0.599896	0.117454
	H55	H	0.394653	0.406484	0.878670
	H56	H	0.120418	0.591287	0.394110
	H57	H	0.881819	0.599502	0.593383
	H58	H	0.114560	0.405028	0.584120
	H59	H	0.882279	0.404651	0.408246
	H60	H	0.116279	0.414351	0.596694
	H61	H	0.885338	0.591246	0.588899
	H62	H	0.119442	0.604623	0.411235
	H63	H	0.884270	0.409022	0.408006
	H64	H	0.401601	0.591654	0.117914
	H65	H	0.590595	0.599924	0.881464
	H66	H	0.590529	0.405815	0.116359
	H67	H	0.413749	0.418148	0.888091
	H68	H	0.594350	0.117061	0.406197
	H69	H	0.591166	0.881821	0.602035
	H70	H	0.401794	0.116684	0.590885
	H71	H	0.407767	0.882573	0.405499
	H72	H	0.908621	0.615265	0.090139
	H73	H	0.101668	0.379264	0.099291
	H74	H	0.090792	0.618318	0.898640
	H75	H	0.905767	0.382954	0.906786
	H76	H	0.095305	0.910065	0.616642
	H77	H	0.097808	0.089319	0.382689
	H78	H	0.901489	0.096237	0.619014
	H79	H	0.909407	0.903066	0.382356
	H80	H	0.614204	0.093237	0.917607
	H81	H	0.381348	0.097933	0.094146
	H82	H	0.615216	0.909046	0.089980
	H83	H	0.383342	0.905275	0.909436
	H84	H	0.618010	0.907764	0.098111
	H85	H	0.384482	0.093179	0.088849
	H86	H	0.615237	0.083326	0.902279
	H87	H	0.383322	0.909732	0.905722
	H88	H	0.907087	0.087783	0.615653
	H89	H	0.086977	0.092497	0.384904
	H90	H	0.089036	0.906634	0.615656
	H91	H	0.902487	0.906063	0.381786
	H92	H	0.086919	0.612636	0.912387
	H93	H	0.084654	0.384708	0.096585
	H94	H	0.901513	0.617521	0.093475
	H95	H	0.907367	0.382952	0.904846
	H96	H	0.407404	0.118222	0.598518
	H97	H	0.588298	0.887296	0.587548
	H98	H	0.591993	0.116968	0.406018
	H99	H	0.406270	0.882912	0.407605
	H100	H	0.595076	0.404365	0.118090
	H101	H	0.599848	0.591036	0.881426
	H102	H	0.410817	0.591455	0.114825
	H103	H	0.414955	0.395027	0.881541
	H104	H	0.112593	0.584593	0.413443
	H105	H	0.882746	0.590743	0.598149
	H106	H	0.119967	0.399281	0.598087
	H107	H	0.882104	0.407088	0.404286
	H108	H	0.908597	0.617429	0.097766
	H109	H	0.096610	0.385215	0.082783
	H110	H	0.101602	0.617502	0.909599
	H111	H	0.908028	0.383423	0.907401
	H112	H	0.094197	0.902695	0.618510
	H113	H	0.094867	0.100033	0.380395
	H114	H	0.912494	0.097169	0.616636
	H115	H	0.907864	0.910869	0.384653
	H116	H	0.621057	0.100552	0.902152
	H117	H	0.383404	0.090793	0.095619
	H118	H	0.617741	0.901388	0.092230
	H119	H	0.381403	0.904221	0.904326
	C120	C	0.378501	0.008162	0.621742
	C121	C	0.621659	0.991601	0.622135
	C122	C	0.621793	0.008484	0.378277
	C123	C	0.378224	0.991385	0.378283
	C124	C	0.621450	0.378117	0.008265
	C125	C	0.620992	0.621426	0.991228
	C126	C	0.378071	0.621854	0.008060
	C127	C	0.378874	0.378475	0.991037
	C128	C	0.008609	0.621162	0.378607
	C129	C	0.991724	0.621693	0.622125
	C130	C	0.008612	0.377979	0.621636
	C131	C	0.991427	0.378648	0.378638
	C132	C	0.878255	0.508258	0.121737
	C133	C	0.121996	0.491836	0.121187
	C134	C	0.122322	0.508328	0.877928
	C135	C	0.878416	0.491736	0.878200
	C136	C	0.121559	0.877961	0.508294
	C137	C	0.121317	0.121965	0.491362
	C138	C	0.878247	0.122142	0.508751
	C139	C	0.878548	0.878806	0.491592
	C140	C	0.508093	0.121217	0.878905
	C141	C	0.491620	0.121859	0.121391
	C142	C	0.508712	0.878114	0.121250
	C143	C	0.491276	0.878356	0.878528
	C144	C	0.381767	0.884583	0.676312
	C145	C	0.618634	0.115166	0.676928
	C146	C	0.618984	0.885330	0.323740
	C147	C	0.381041	0.114780	0.323503
	C148	C	0.676267	0.381303	0.884680
	C149	C	0.675324	0.618476	0.115209
	C150	C	0.323428	0.618456	0.884417
	C151	C	0.324190	0.381852	0.114858
	C152	C	0.884828	0.675825	0.381579
	C153	C	0.115194	0.676253	0.619486
	C154	C	0.885181	0.323952	0.619226
	C155	C	0.115005	0.323925	0.381780
	C156	C	0.885054	0.382069	0.675979
	C157	C	0.115624	0.617898	0.676443
	C158	C	0.884678	0.617988	0.324203
	C159	C	0.115070	0.381801	0.324473
	C160	C	0.380223	0.676584	0.884534
	C161	C	0.618016	0.676281	0.115058
	C162	C	0.618903	0.323407	0.884675
	C163	C	0.381034	0.323631	0.114736
	C164	C	0.676467	0.885322	0.381634
	C165	C	0.676210	0.115051	0.619359
	C166	C	0.323597	0.884969	0.618930
	C167	C	0.323723	0.114748	0.381532
	C168	C	0.881817	0.384734	0.175790
	C169	C	0.118664	0.615270	0.176070
	C170	C	0.119458	0.384995	0.823290
	C171	C	0.881664	0.615184	0.824077
	C172	C	0.176154	0.881245	0.384828
	C173	C	0.175233	0.118152	0.615362
	C174	C	0.823143	0.119277	0.385391
	C175	C	0.824360	0.882275	0.615600
	C176	C	0.384941	0.176529	0.881137
	C177	C	0.615188	0.176615	0.119487
	C178	C	0.385077	0.824056	0.118161
	C179	C	0.615035	0.823336	0.881616
	C180	C	0.385055	0.881607	0.175659
	C181	C	0.615224	0.118496	0.176398
	C182	C	0.384709	0.118674	0.823876
	C183	C	0.615387	0.881840	0.824878
	C184	C	0.880018	0.177439	0.385437
	C185	C	0.118083	0.176273	0.615058
	C186	C	0.118848	0.823325	0.384690
	C187	C	0.881620	0.824053	0.615119
	C188	C	0.177289	0.384903	0.880591
	C189	C	0.176469	0.615368	0.118218
	C190	C	0.823758	0.384884	0.118534
	C191	C	0.823620	0.615171	0.881654
	C192	C	0.400111	0.094175	0.599762
	C193	C	0.600069	0.905400	0.600140
	C194	C	0.599778	0.094693	0.400204
	C195	C	0.399987	0.905022	0.399827
	C196	C	0.599810	0.399921	0.094532
	C197	C	0.599318	0.599609	0.905019
	C198	C	0.399832	0.600596	0.094451
	C199	C	0.401103	0.400293	0.904998
	C200	C	0.095050	0.599802	0.399894
	C201	C	0.905341	0.599953	0.600109
	C202	C	0.094788	0.399700	0.599414
	C203	C	0.905187	0.400364	0.400240
	C204	C	0.899763	0.594606	0.100147
	C205	C	0.100602	0.405557	0.099400
	C206	C	0.099801	0.594151	0.900319
	C207	C	0.900561	0.405377	0.899954
	C208	C	0.099484	0.899820	0.594600
	C209	C	0.099806	0.100162	0.404990
	C210	C	0.900564	0.100427	0.594982
	C211	C	0.900131	0.900301	0.405099
	C212	C	0.594528	0.098962	0.900949
	C213	C	0.405307	0.100293	0.099394
	C214	C	0.594873	0.899632	0.099849
	C215	C	0.404877	0.900056	0.900094
	Zn216	Zn	0.499966	-0.000002	0.750502
	Zn217	Zn	0.499923	0.000011	0.249624
	Zn218	Zn	0.749447	0.499908	0.000028
	Zn219	Zn	0.250531	0.500080	-0.000597
	Zn220	Zn	0.000211	0.749816	0.500063
	Zn221	Zn	-0.000414	0.250005	0.500038
	Zn222	Zn	0.000272	0.499746	0.749785
	Zn223	Zn	-0.000052	0.499632	0.249985
	Zn224	Zn	0.499862	0.749942	-0.000121
	Zn225	Zn	0.499991	0.249992	0.000088
	Zn226	Zn	0.750086	0.000414	0.500237
	Zn227	Zn	0.249691	-0.000002	0.499871
	N228	N	0.415117	0.962237	0.678252
	N229	N	0.585490	0.037500	0.678760
	N230	N	0.585504	0.962759	0.321807
	N231	N	0.414139	0.036873	0.321211
	N232	N	0.678216	0.414427	0.962562
	N233	N	0.677335	0.585002	0.037413
	N234	N	0.322082	0.585148	0.962173
	N235	N	0.322661	0.415235	0.037035
	N236	N	0.962911	0.678096	0.414510
	N237	N	0.037236	0.678569	0.586314
	N238	N	0.963038	0.321573	0.586030
	N239	N	0.037060	0.321960	0.414846
	N240	N	0.962890	0.415103	0.677530
	N241	N	0.037795	0.584737	0.677987
	N242	N	0.962579	0.584826	0.322096
	N243	N	0.037322	0.415048	0.322509
	N244	N	0.413903	0.678532	0.962265
	N245	N	0.585053	0.678121	0.037086
	N246	N	0.585650	0.321506	0.962552
	N247	N	0.414567	0.321645	0.036968
	N248	N	0.678074	0.963040	0.415028
	N249	N	0.678134	0.037368	0.585908
	N250	N	0.321678	0.962658	0.585643
	N251	N	0.322020	0.037193	0.414854
	N252	N	0.915123	0.462381	0.177758
	N253	N	0.085607	0.537427	0.177974
	N254	N	0.085835	0.462549	0.821722
	N255	N	0.914774	0.537341	0.821776
	N256	N	0.177688	0.914756	0.462492
	N257	N	0.177388	0.084944	0.537526
	N258	N	0.822097	0.085436	0.462916
	N259	N	0.822167	0.915390	0.537702
	N260	N	0.462613	0.177989	0.914780
	N261	N	0.537245	0.178773	0.086023
	N262	N	0.462762	0.821827	0.085015
	N263	N	0.536928	0.821119	0.914283
	N264	N	0.462881	0.914594	0.177619
	N265	N	0.537551	0.085225	0.177708
	N266	N	0.462493	0.085018	0.822419
	N267	N	0.537646	0.915262	0.823026
	N268	N	0.913749	0.179097	0.463135
	N269	N	0.085283	0.178588	0.537074
	N270	N	0.085750	0.821223	0.462599
	N271	N	0.914816	0.822056	0.537216
	N272	N	0.179208	0.462634	0.913732
	N273	N	0.178632	0.537604	0.084781
	N274	N	0.821612	0.462705	0.085555
	N275	N	0.821729	0.537397	0.914749
