data_Molecule from HDF5

_cell_length_a		16.265575
_cell_length_b		16.151169
_cell_length_c		16.202894
_cell_angle_alpha	90.110967
_cell_angle_beta	90.131889
_cell_angle_gamma	89.527778
_symmetry_space_group_name_H-M	'P 1'
_symmetry_Int_Tables_number		1

loop_
	_symmetry_equiv_pos_as_xyz
	x,y,z

loop_
	_atom_site_label
	_atom_site_type_symbol
	_atom_site_fract_x
	_atom_site_fract_y
	_atom_site_fract_z
	H0	H	0.408144	0.829945	0.707268
	H1	H	0.600452	0.160223	0.709108
	H2	H	0.603325	0.830412	0.282818
	H3	H	0.404711	0.160513	0.281254
	H4	H	0.720485	0.393876	0.829604
	H5	H	0.719938	0.593440	0.157664
	H6	H	0.288975	0.597307	0.830556
	H7	H	0.290908	0.395669	0.158000
	H8	H	0.840016	0.710379	0.395646
	H9	H	0.168528	0.708216	0.591607
	H10	H	0.840479	0.283405	0.592683
	H11	H	0.167900	0.279519	0.395412
	H12	H	0.841056	0.398113	0.708771
	H13	H	0.168138	0.594109	0.709278
	H14	H	0.841393	0.596341	0.277710
	H15	H	0.168654	0.393990	0.279334
	H16	H	0.406519	0.710528	0.830478
	H17	H	0.602123	0.705027	0.159794
	H18	H	0.605357	0.278460	0.830369
	H19	H	0.410330	0.283798	0.159505
	H20	H	0.720016	0.831686	0.394941
	H21	H	0.717502	0.160636	0.595207
	H22	H	0.291039	0.830993	0.594479
	H23	H	0.289570	0.160577	0.397457
	H24	H	0.907963	0.330664	0.208790
	H25	H	0.103385	0.660302	0.208246
	H26	H	0.104952	0.331380	0.778510
	H27	H	0.904668	0.660499	0.781785
	H28	H	0.220382	0.895106	0.330620
	H29	H	0.219452	0.097487	0.657790
	H30	H	0.786670	0.097307	0.330307
	H31	H	0.792070	0.898344	0.658762
	H32	H	0.342186	0.211581	0.895867
	H33	H	0.670118	0.206327	0.093607
	H34	H	0.342080	0.782494	0.093753
	H35	H	0.669543	0.780195	0.897005
	H36	H	0.341923	0.898768	0.208172
	H37	H	0.669274	0.092513	0.211041
	H38	H	0.341382	0.095120	0.780975
	H39	H	0.668219	0.893823	0.779741
	H40	H	0.905600	0.209688	0.328768
	H41	H	0.100911	0.209080	0.658222
	H42	H	0.101990	0.782511	0.328598
	H43	H	0.906512	0.783318	0.658255
	H44	H	0.221704	0.331216	0.893312
	H45	H	0.219184	0.659863	0.094201
	H46	H	0.792250	0.330430	0.094422
	H47	H	0.788316	0.658206	0.893946
	H48	H	0.418560	0.112002	0.594412
	H49	H	0.601880	0.878579	0.580485
	H50	H	0.595494	0.112980	0.406197
	H51	H	0.416516	0.878995	0.402015
	H52	H	0.611610	0.400631	0.115077
	H53	H	0.596938	0.586493	0.876999
	H54	H	0.406632	0.596924	0.115979
	H55	H	0.420863	0.403931	0.879113
	H56	H	0.124598	0.593092	0.395850
	H57	H	0.883951	0.596548	0.592038
	H58	H	0.121769	0.398954	0.585394
	H59	H	0.889388	0.409965	0.399669
	H60	H	0.119471	0.404852	0.583709
	H61	H	0.889042	0.592077	0.580516
	H62	H	0.120847	0.590386	0.407649
	H63	H	0.884796	0.401990	0.393524
	H64	H	0.406252	0.580006	0.111122
	H65	H	0.597540	0.588677	0.875858
	H66	H	0.598460	0.411080	0.108570
	H67	H	0.411088	0.396591	0.874334
	H68	H	0.597541	0.114899	0.401278
	H69	H	0.604675	0.874759	0.592921
	H70	H	0.411085	0.110344	0.578557
	H71	H	0.408210	0.877964	0.405045
	H72	H	0.912673	0.611602	0.083253
	H73	H	0.105083	0.375850	0.087397
	H74	H	0.100952	0.613413	0.905330
	H75	H	0.920057	0.381382	0.908662
	H76	H	0.103115	0.902303	0.612912
	H77	H	0.102000	0.082368	0.376188
	H78	H	0.917376	0.089583	0.608544
	H79	H	0.909107	0.902267	0.375396
	H80	H	0.625394	0.089723	0.897595
	H81	H	0.384965	0.093261	0.097206
	H82	H	0.622953	0.898056	0.087743
	H83	H	0.390647	0.912853	0.900587
	H84	H	0.622192	0.902896	0.089599
	H85	H	0.388485	0.096544	0.081194
	H86	H	0.620786	0.087165	0.909114
	H87	H	0.384174	0.897140	0.893107
	H88	H	0.907501	0.096819	0.613808
	H89	H	0.091362	0.085251	0.378342
	H90	H	0.096058	0.908112	0.609462
	H91	H	0.909793	0.905929	0.376557
	H92	H	0.097763	0.615080	0.896646
	H93	H	0.095314	0.377627	0.090783
	H94	H	0.911370	0.613177	0.085471
	H95	H	0.902966	0.374004	0.902291
	H96	H	0.401350	0.117148	0.591612
	H97	H	0.592551	0.878553	0.589303
	H98	H	0.592354	0.113330	0.402523
	H99	H	0.410755	0.875664	0.396711
	H100	H	0.594030	0.394215	0.112474
	H101	H	0.599440	0.587061	0.875763
	H102	H	0.421336	0.588330	0.108792
	H103	H	0.409120	0.409471	0.877484
	H104	H	0.120065	0.581847	0.399880
	H105	H	0.888054	0.583735	0.590896
	H106	H	0.121757	0.403624	0.589031
	H107	H	0.887884	0.401217	0.404076
	H108	H	0.914156	0.611845	0.086016
	H109	H	0.098649	0.379581	0.080455
	H110	H	0.092332	0.611429	0.903786
	H111	H	0.918134	0.375156	0.889473
	H112	H	0.095194	0.898717	0.612083
	H113	H	0.097708	0.092508	0.373865
	H114	H	0.906238	0.083565	0.611311
	H115	H	0.912898	0.903484	0.376346
	H116	H	0.620575	0.078591	0.900544
	H117	H	0.391582	0.080756	0.087265
	H118	H	0.625097	0.898846	0.092046
	H119	H	0.389118	0.896995	0.910976
	C120	C	0.382659	0.004171	0.616928
	C121	C	0.626724	0.986619	0.616627
	C122	C	0.625133	0.004670	0.374455
	C123	C	0.382869	0.986848	0.373601
	C124	C	0.629260	0.372218	0.003210
	C125	C	0.626432	0.615343	0.985242
	C126	C	0.383156	0.617705	0.002981
	C127	C	0.385265	0.374491	0.985788
	C128	C	0.013340	0.617707	0.371972
	C129	C	0.995182	0.618742	0.616543
	C130	C	0.012731	0.374722	0.615221
	C131	C	0.995728	0.374181	0.371273
	C132	C	0.884563	0.503573	0.114531
	C133	C	0.127203	0.486771	0.115122
	C134	C	0.126813	0.504751	0.872315
	C135	C	0.883921	0.485698	0.872248
	C136	C	0.126431	0.874040	0.502583
	C137	C	0.125396	0.116202	0.485079
	C138	C	0.880953	0.119048	0.502755
	C139	C	0.883110	0.875198	0.485199
	C140	C	0.513969	0.115464	0.873877
	C141	C	0.496969	0.117564	0.117458
	C142	C	0.514772	0.872820	0.117263
	C143	C	0.496386	0.872697	0.873211
	C144	C	0.386564	0.879517	0.670824
	C145	C	0.622325	0.110775	0.671967
	C146	C	0.623646	0.879843	0.319892
	C147	C	0.384552	0.111365	0.319013
	C148	C	0.683423	0.373303	0.879192
	C149	C	0.681824	0.613122	0.108809
	C150	C	0.327547	0.616599	0.879495
	C151	C	0.329443	0.376312	0.109154
	C152	C	0.889506	0.673227	0.374439
	C153	C	0.119134	0.672037	0.613201
	C154	C	0.889550	0.320485	0.612885
	C155	C	0.118968	0.317635	0.374526
	C156	C	0.889938	0.377727	0.670630
	C157	C	0.118999	0.615257	0.671539
	C158	C	0.890100	0.616658	0.315754
	C159	C	0.119414	0.374483	0.316762
	C160	C	0.386268	0.672705	0.879400
	C161	C	0.623432	0.669022	0.109735
	C162	C	0.626249	0.315907	0.879558
	C163	C	0.388869	0.320674	0.110156
	C164	C	0.681448	0.880542	0.376016
	C165	C	0.680268	0.110978	0.615040
	C166	C	0.328489	0.880039	0.614493
	C167	C	0.327446	0.111327	0.376640
	C168	C	0.888074	0.379765	0.170272
	C169	C	0.124010	0.611041	0.170646
	C170	C	0.125287	0.380458	0.816544
	C171	C	0.884541	0.610573	0.818418
	C172	C	0.182226	0.875171	0.379320
	C173	C	0.180827	0.115754	0.608711
	C174	C	0.825044	0.117211	0.379141
	C175	C	0.829393	0.878269	0.609427
	C176	C	0.390881	0.172867	0.875669
	C177	C	0.620813	0.170120	0.114739
	C178	C	0.391163	0.819629	0.114116
	C179	C	0.620116	0.817341	0.876107
	C180	C	0.391038	0.877178	0.171209
	C181	C	0.620255	0.113355	0.173018
	C182	C	0.390552	0.115114	0.818351
	C183	C	0.619515	0.873867	0.817874
	C184	C	0.884338	0.172900	0.378258
	C185	C	0.121887	0.171490	0.608931
	C186	C	0.123190	0.819310	0.378365
	C187	C	0.886426	0.820832	0.609299
	C188	C	0.183314	0.380533	0.873511
	C189	C	0.181318	0.610964	0.113649
	C190	C	0.830126	0.379735	0.113550
	C191	C	0.826816	0.609587	0.874287
	C192	C	0.404028	0.090856	0.594894
	C193	C	0.605909	0.899709	0.594190
	C194	C	0.602118	0.091426	0.396773
	C195	C	0.405101	0.899995	0.395181
	C196	C	0.607469	0.395051	0.089687
	C197	C	0.604452	0.593741	0.898544
	C198	C	0.404906	0.594999	0.089649
	C199	C	0.407273	0.396674	0.899270
	C200	C	0.099409	0.594919	0.394363
	C201	C	0.909085	0.597131	0.594445
	C202	C	0.098888	0.396194	0.592735
	C203	C	0.909613	0.397658	0.392742
	C204	C	0.906178	0.589893	0.091430
	C205	C	0.105999	0.400023	0.092757
	C206	C	0.103710	0.590926	0.895076
	C207	C	0.907019	0.399272	0.893948
	C208	C	0.104531	0.896492	0.588990
	C209	C	0.103531	0.093318	0.398611
	C210	C	0.903629	0.096654	0.588967
	C211	C	0.904478	0.897162	0.398485
	C212	C	0.599962	0.092210	0.896229
	C213	C	0.410499	0.096593	0.095182
	C214	C	0.601129	0.893758	0.096040
	C215	C	0.410339	0.895559	0.895001
	Zn216	Zn	0.504469	-0.005282	0.744730
	Zn217	Zn	0.505064	-0.004585	0.245634
	Zn218	Zn	0.755903	0.494226	-0.006952
	Zn219	Zn	0.255258	0.495636	-0.005929
	Zn220	Zn	0.004076	0.746300	0.494026
	Zn221	Zn	0.003923	0.245842	0.493445
	Zn222	Zn	0.004370	0.496141	0.744449
	Zn223	Zn	0.005787	0.495632	0.243109
	Zn224	Zn	0.505782	0.744749	-0.004746
	Zn225	Zn	0.506485	0.245343	-0.004707
	Zn226	Zn	0.753855	-0.003878	0.494375
	Zn227	Zn	0.254690	-0.004609	0.494894
	N228	N	0.419301	0.957840	0.672569
	N229	N	0.589846	0.032325	0.673244
	N230	N	0.589086	0.957987	0.318868
	N231	N	0.418261	0.033015	0.316736
	N232	N	0.685448	0.407508	0.956900
	N233	N	0.683734	0.580264	0.030371
	N234	N	0.325515	0.582956	0.957510
	N235	N	0.327365	0.409201	0.030853
	N236	N	0.966987	0.673939	0.408585
	N237	N	0.041327	0.674365	0.579840
	N238	N	0.967060	0.318440	0.579190
	N239	N	0.041024	0.317027	0.407408
	N240	N	0.967616	0.410702	0.672286
	N241	N	0.040931	0.583055	0.673837
	N242	N	0.968151	0.582840	0.313953
	N243	N	0.041886	0.409215	0.314788
	N244	N	0.419697	0.673808	0.957324
	N245	N	0.589473	0.670411	0.031905
	N246	N	0.593415	0.314912	0.957898
	N247	N	0.423012	0.319585	0.032514
	N248	N	0.682340	0.959078	0.409193
	N249	N	0.682999	0.032783	0.581367
	N250	N	0.325867	0.958452	0.581583
	N251	N	0.326203	0.032826	0.409473
	N252	N	0.921184	0.457806	0.171177
	N253	N	0.091221	0.532751	0.171827
	N254	N	0.090810	0.458523	0.815602
	N255	N	0.919464	0.532674	0.817003
	N256	N	0.184403	0.908361	0.457536
	N257	N	0.182999	0.081960	0.530629
	N258	N	0.822928	0.084421	0.457618
	N259	N	0.827089	0.911294	0.531207
	N260	N	0.468662	0.173400	0.909402
	N261	N	0.543208	0.172760	0.081003
	N262	N	0.469065	0.816747	0.081378
	N263	N	0.542529	0.816485	0.909847
	N264	N	0.468961	0.909705	0.173360
	N265	N	0.542063	0.081377	0.174772
	N266	N	0.468027	0.080182	0.817188
	N267	N	0.541658	0.907655	0.815848
	N268	N	0.918272	0.174402	0.456083
	N269	N	0.088114	0.172014	0.531061
	N270	N	0.089355	0.818295	0.456183
	N271	N	0.919101	0.818985	0.531027
	N272	N	0.184211	0.458711	0.907789
	N273	N	0.183548	0.532691	0.080001
	N274	N	0.827946	0.457647	0.079419
	N275	N	0.826217	0.531109	0.907124
	O276	O	1.108899	1.007408	0.040355
	H277	H	1.108504	1.019860	0.037038
	H278	H	1.109946	1.008803	0.042017
	O279	O	0.033759	-0.022975	0.967156
	H280	H	0.036205	-0.025230	0.971335
	H281	H	0.024154	-0.019512	0.975564
	O282	O	-0.086208	0.069183	-0.059979
	H283	H	-0.083895	0.064068	-0.069920
	H284	H	-0.085104	0.070196	-0.070528
	O285	O	0.495680	0.417907	0.466487
	H286	H	0.488639	0.421680	0.469798
	H287	H	0.496268	0.417635	0.471435
	O288	O	0.006370	-0.005434	0.020360
	H289	H	0.023754	0.006870	0.028436
	H290	H	-0.003365	-0.001202	0.021685
	O291	O	0.073240	0.879350	-0.103518
	H292	H	0.079517	0.883410	-0.099490
	H293	H	0.067894	0.872196	-0.100367
	O294	O	-0.032758	1.046639	-0.037007
	H295	H	-0.028491	1.036444	-0.044671
	H296	H	-0.027761	1.046856	-0.033953
	O297	O	0.538422	0.499319	0.499012
	H298	H	0.534697	0.495344	0.492979
	H299	H	0.533982	0.495432	0.501516
	O300	O	0.494611	0.482646	0.489042
	H301	H	0.497364	0.481348	0.498555
	H302	H	0.495911	0.487516	0.479612
	O303	O	1.014222	-0.028314	0.916705
	H304	H	1.017270	-0.046224	0.911600
	H305	H	1.010287	-0.022382	0.927822
	O306	O	0.015222	1.050465	0.997583
	H307	H	0.008266	1.059650	0.990333
	H308	H	0.018596	1.059568	0.997721
	O309	O	-0.031649	1.063601	0.969635
	H310	H	-0.034247	1.069414	0.971867
	H311	H	-0.038958	1.061628	0.964446
	O312	O	-0.009581	0.011299	1.008167
	H313	H	-0.011626	0.014248	1.010414
	H314	H	-0.006434	0.011781	1.004234
	O315	O	0.504613	0.509030	0.456442
	H316	H	0.509458	0.504764	0.452995
	H317	H	0.501643	0.511787	0.450335
	O318	O	0.012699	-0.057973	0.966398
	H319	H	0.013514	-0.060011	0.964649
	H320	H	0.014254	-0.063432	0.971465
	O321	O	-0.008867	0.965262	1.035389
	H322	H	-0.004522	0.965182	1.039257
	H323	H	-0.007177	0.963255	1.028395
	O324	O	1.076545	0.033538	0.945815
	H325	H	1.073899	0.017083	0.943446
	H326	H	1.080522	0.035651	0.929177
	O327	O	1.140991	0.983062	1.008969
	H328	H	1.141284	0.990940	1.014206
	H329	H	1.138218	0.986503	1.004352
	O330	O	0.505356	0.529408	0.514357
	H331	H	0.497150	0.526599	0.511845
	H332	H	0.505087	0.527661	0.510562
	O333	O	0.442316	0.522751	0.454754
	H334	H	0.441166	0.523836	0.449320
	H335	H	0.442642	0.525373	0.451130
	O336	O	0.495331	0.501279	0.511010
	H337	H	0.500441	0.504282	0.512214
	H338	H	0.497605	0.505582	0.513388
	O339	O	0.510099	0.472530	0.467731
	H340	H	0.512080	0.474283	0.473984
	H341	H	0.514888	0.479613	0.464193
	O342	O	0.474718	0.485542	0.423113
	H343	H	0.481965	0.488817	0.427114
	H344	H	0.475219	0.486294	0.432199
	O345	O	0.498477	0.434810	0.489749
	H346	H	0.505017	0.427702	0.484958
	H347	H	0.491639	0.424932	0.487617
