data_Molecule from HDF5

_cell_length_a		16.160390
_cell_length_b		16.465655
_cell_length_c		16.260652
_cell_angle_alpha	90.000512
_cell_angle_beta	89.370214
_cell_angle_gamma	90.046199
_symmetry_space_group_name_H-M	'P 1'
_symmetry_Int_Tables_number		1

loop_
	_symmetry_equiv_pos_as_xyz
	x,y,z

loop_
	_atom_site_label
	_atom_site_type_symbol
	_atom_site_fract_x
	_atom_site_fract_y
	_atom_site_fract_z
	H0	H	0.398456	0.831919	0.726198
	H1	H	0.601951	0.153205	0.723433
	H2	H	0.606066	0.832838	0.283425
	H3	H	0.396003	0.151117	0.286999
	H4	H	0.717331	0.394827	0.844282
	H5	H	0.717298	0.593516	0.169605
	H6	H	0.287789	0.596508	0.844401
	H7	H	0.282663	0.395505	0.168781
	H8	H	0.837851	0.709325	0.401344
	H9	H	0.160385	0.712191	0.607186
	H10	H	0.838377	0.272687	0.608483
	H11	H	0.161695	0.269500	0.394254
	H12	H	0.838363	0.389356	0.723648
	H13	H	0.163306	0.592481	0.717560
	H14	H	0.835698	0.589614	0.291453
	H15	H	0.164651	0.392567	0.286347
	H16	H	0.399689	0.712493	0.846722
	H17	H	0.606738	0.712949	0.167049
	H18	H	0.609191	0.273336	0.846856
	H19	H	0.393970	0.274333	0.168178
	H20	H	0.718440	0.830214	0.403463
	H21	H	0.718918	0.151332	0.606036
	H22	H	0.280803	0.831567	0.610165
	H23	H	0.283351	0.152423	0.405903
	H24	H	0.897379	0.331985	0.223866
	H25	H	0.103672	0.652147	0.223337
	H26	H	0.107359	0.332414	0.783563
	H27	H	0.899612	0.652560	0.785854
	H28	H	0.220272	0.891331	0.342819
	H29	H	0.210944	0.091572	0.668422
	H30	H	0.785350	0.089839	0.341198
	H31	H	0.784188	0.891233	0.667711
	H32	H	0.339022	0.213120	0.905612
	H33	H	0.663002	0.212264	0.110670
	H34	H	0.339271	0.772060	0.114743
	H35	H	0.663312	0.774664	0.902463
	H36	H	0.337419	0.891030	0.225458
	H37	H	0.664116	0.093244	0.221999
	H38	H	0.335584	0.092114	0.795717
	H39	H	0.664279	0.892801	0.789068
	H40	H	0.895908	0.210681	0.343361
	H41	H	0.103368	0.212398	0.663181
	H42	H	0.106799	0.772547	0.342799
	H43	H	0.891678	0.769871	0.663905
	H44	H	0.222295	0.333463	0.902115
	H45	H	0.214340	0.655652	0.102307
	H46	H	0.781408	0.332588	0.109358
	H47	H	0.786086	0.653914	0.907247
	H48	H	0.392477	0.109458	0.594822
	H49	H	0.591687	0.877969	0.593557
	H50	H	0.588567	0.106142	0.408258
	H51	H	0.410922	0.876996	0.413932
	H52	H	0.592086	0.398488	0.124453
	H53	H	0.585311	0.595713	0.890952
	H54	H	0.409552	0.578140	0.121567
	H55	H	0.417889	0.403511	0.893055
	H56	H	0.117808	0.582442	0.406733
	H57	H	0.884167	0.576099	0.598136
	H58	H	0.120085	0.396555	0.598007
	H59	H	0.886611	0.397447	0.422666
	H60	H	0.115924	0.395387	0.584395
	H61	H	0.881286	0.586108	0.596041
	H62	H	0.117721	0.587849	0.417165
	H63	H	0.886220	0.405743	0.413185
	H64	H	0.413534	0.589037	0.122334
	H65	H	0.605194	0.583851	0.887481
	H66	H	0.590067	0.405520	0.122725
	H67	H	0.412849	0.398202	0.890428
	H68	H	0.587720	0.102522	0.420730
	H69	H	0.595032	0.874869	0.602968
	H70	H	0.408142	0.110946	0.615732
	H71	H	0.415067	0.879861	0.417937
	H72	H	0.918042	0.604141	0.096969
	H73	H	0.092231	0.380029	0.093197
	H74	H	0.088389	0.607267	0.905235
	H75	H	0.911897	0.378894	0.911894
	H76	H	0.089069	0.903332	0.619087
	H77	H	0.095838	0.080736	0.386565
	H78	H	0.909707	0.083672	0.619861
	H79	H	0.903599	0.901015	0.386673
	H80	H	0.617237	0.085304	0.915147
	H81	H	0.385915	0.080089	0.098149
	H82	H	0.616088	0.900805	0.092886
	H83	H	0.383341	0.900456	0.916305
	H84	H	0.615346	0.904496	0.093851
	H85	H	0.383535	0.086751	0.100119
	H86	H	0.616646	0.084118	0.916863
	H87	H	0.384008	0.898157	0.920589
	H88	H	0.908944	0.081418	0.619204
	H89	H	0.090666	0.077607	0.390168
	H90	H	0.083280	0.897872	0.618891
	H91	H	0.915876	0.906020	0.391975
	H92	H	0.093080	0.605055	0.915011
	H93	H	0.092117	0.378493	0.095275
	H94	H	0.904308	0.606309	0.091585
	H95	H	0.911604	0.379132	0.915580
	H96	H	0.417365	0.100664	0.593491
	H97	H	0.584509	0.878776	0.601659
	H98	H	0.598875	0.107133	0.416219
	H99	H	0.409565	0.878512	0.419633
	H100	H	0.585172	0.400530	0.122213
	H101	H	0.585770	0.574301	0.896381
	H102	H	0.402730	0.586213	0.125303
	H103	H	0.411167	0.405267	0.891175
	H104	H	0.113047	0.576780	0.416562
	H105	H	0.886221	0.580061	0.588643
	H106	H	0.114957	0.408258	0.590767
	H107	H	0.881408	0.393944	0.410891
	H108	H	0.907284	0.609681	0.105295
	H109	H	0.090658	0.379049	0.093726
	H110	H	0.099213	0.610175	0.907189
	H111	H	0.909509	0.377673	0.913715
	H112	H	0.090586	0.895584	0.622181
	H113	H	0.089657	0.084266	0.387956
	H114	H	0.910810	0.082278	0.618344
	H115	H	0.914713	0.892153	0.386828
	H116	H	0.616715	0.082961	0.913902
	H117	H	0.385786	0.085384	0.092638
	H118	H	0.617249	0.901633	0.096125
	H119	H	0.385553	0.902608	0.920211
	C120	C	0.375944	0.000734	0.631230
	C121	C	0.621286	0.983573	0.628303
	C122	C	0.623037	-0.000198	0.383518
	C123	C	0.380309	0.984022	0.386361
	C124	C	0.621699	0.371715	0.016215
	C125	C	0.622746	0.614810	0.998465
	C126	C	0.379733	0.615333	0.015830
	C127	C	0.380392	0.372196	0.998175
	C128	C	0.008633	0.612050	0.383461
	C129	C	0.990986	0.611965	0.624225
	C130	C	0.009688	0.369714	0.623824
	C131	C	0.991917	0.368844	0.382251
	C132	C	0.878843	0.501049	0.128266
	C133	C	0.121818	0.484994	0.124762
	C134	C	0.125593	0.501761	0.879655
	C135	C	0.880367	0.484496	0.884072
	C136	C	0.121411	0.868846	0.513290
	C137	C	0.121076	0.111946	0.495198
	C138	C	0.879170	0.112260	0.512290
	C139	C	0.878863	0.869144	0.495414
	C140	C	0.509182	0.114273	0.886228
	C141	C	0.492573	0.114360	0.127681
	C142	C	0.509021	0.871269	0.126963
	C143	C	0.492034	0.870723	0.886556
	C144	C	0.377697	0.880022	0.688055
	C145	C	0.621442	0.104649	0.684664
	C146	C	0.623997	0.879910	0.323932
	C147	C	0.378250	0.103760	0.327450
	C148	C	0.680117	0.373709	0.893534
	C149	C	0.679433	0.613639	0.120696
	C150	C	0.324892	0.615387	0.893396
	C151	C	0.320928	0.373974	0.120096
	C152	C	0.886203	0.669664	0.383097
	C153	C	0.112561	0.671646	0.625141
	C154	C	0.887203	0.311937	0.626446
	C155	C	0.113764	0.309857	0.377789
	C156	C	0.887074	0.369745	0.683867
	C157	C	0.114303	0.612155	0.680052
	C158	C	0.885350	0.610215	0.328060
	C159	C	0.115276	0.371098	0.324209
	C160	C	0.380622	0.673311	0.894664
	C161	C	0.624330	0.673110	0.119500
	C162	C	0.625810	0.313675	0.894526
	C163	C	0.376533	0.313975	0.119688
	C164	C	0.680238	0.878811	0.383247
	C165	C	0.679450	0.103838	0.626037
	C166	C	0.319147	0.879865	0.630309
	C167	C	0.322058	0.104421	0.386744
	C168	C	0.878104	0.380185	0.185385
	C169	C	0.121840	0.604832	0.183519
	C170	C	0.126376	0.380758	0.822626
	C171	C	0.880588	0.604924	0.825717
	C172	C	0.181134	0.870652	0.391471
	C173	C	0.174914	0.111623	0.618457
	C174	C	0.822492	0.110654	0.390325
	C175	C	0.821380	0.870447	0.618205
	C176	C	0.387221	0.173053	0.886611
	C177	C	0.614502	0.172719	0.128865
	C178	C	0.387536	0.811806	0.131676
	C179	C	0.614763	0.813726	0.884215
	C180	C	0.386454	0.871336	0.186471
	C181	C	0.615193	0.113392	0.184280
	C182	C	0.385308	0.112936	0.831971
	C183	C	0.614885	0.872228	0.827506
	C184	C	0.877583	0.170730	0.391154
	C185	C	0.121010	0.171569	0.616039
	C186	C	0.124327	0.811821	0.391394
	C187	C	0.875352	0.810291	0.616397
	C188	C	0.183685	0.381568	0.881465
	C189	C	0.177063	0.606649	0.123081
	C190	C	0.820390	0.380426	0.128440
	C191	C	0.823771	0.605418	0.885933
	C192	C	0.399229	0.085083	0.608198
	C193	C	0.597392	0.899129	0.605919
	C194	C	0.598730	0.083484	0.407910
	C195	C	0.404909	0.900273	0.410310
	C196	C	0.596428	0.394701	0.100923
	C197	C	0.599154	0.591469	0.913569
	C198	C	0.402138	0.591381	0.100971
	C199	C	0.406431	0.395575	0.913659
	C200	C	0.094122	0.589126	0.406817
	C201	C	0.905939	0.587805	0.601071
	C202	C	0.094826	0.393256	0.598487
	C203	C	0.906897	0.392096	0.407889
	C204	C	0.902947	0.585060	0.104684
	C205	C	0.098599	0.400824	0.100889
	C206	C	0.100887	0.585585	0.902481
	C207	C	0.904096	0.400326	0.907174
	C208	C	0.095265	0.892108	0.598014
	C209	C	0.098569	0.088063	0.410322
	C210	C	0.902961	0.089241	0.597125
	C211	C	0.904068	0.892829	0.410486
	C212	C	0.594686	0.090914	0.908770
	C213	C	0.407409	0.090804	0.104038
	C214	C	0.594093	0.895421	0.101379
	C215	C	0.406555	0.893755	0.911761
	Zn216	Zn	0.499582	-0.006978	0.759219
	Zn217	Zn	0.500738	-0.007906	0.254932
	Zn218	Zn	0.749711	0.493089	0.007592
	Zn219	Zn	0.252472	0.494703	0.005268
	Zn220	Zn	-0.000802	0.740630	0.503557
	Zn221	Zn	0.000522	0.240423	0.502680
	Zn222	Zn	0.001148	0.491277	0.751949
	Zn223	Zn	0.000751	0.491628	0.255390
	Zn224	Zn	0.501118	0.742335	0.007623
	Zn225	Zn	0.501551	0.242915	0.007389
	Zn226	Zn	0.751177	-0.009681	0.505380
	Zn227	Zn	0.249114	-0.008202	0.506625
	N228	N	0.411865	0.956383	0.688891
	N229	N	0.586064	0.028800	0.686101
	N230	N	0.589235	0.956270	0.323646
	N231	N	0.413803	0.028017	0.327084
	N232	N	0.677779	0.409130	0.970187
	N233	N	0.678612	0.578165	0.044320
	N234	N	0.324389	0.579945	0.969913
	N235	N	0.323175	0.409500	0.043511
	N236	N	0.964056	0.671237	0.416457
	N237	N	0.035081	0.671557	0.591070
	N238	N	0.964357	0.311763	0.589773
	N239	N	0.036117	0.308254	0.413149
	N240	N	0.964241	0.404905	0.682507
	N241	N	0.037880	0.575477	0.679517
	N242	N	0.962441	0.575106	0.328243
	N243	N	0.038582	0.406764	0.326719
	N244	N	0.413984	0.673299	0.971861
	N245	N	0.589644	0.673839	0.042624
	N246	N	0.590378	0.312169	0.971595
	N247	N	0.412818	0.312767	0.042796
	N248	N	0.679630	0.954058	0.419647
	N249	N	0.679647	0.027347	0.591972
	N250	N	0.317768	0.956110	0.595869
	N251	N	0.323267	0.028860	0.423002
	N252	N	0.913724	0.455931	0.185303
	N253	N	0.088288	0.528082	0.184691
	N254	N	0.091139	0.456541	0.820961
	N255	N	0.915063	0.528429	0.824402
	N256	N	0.179889	0.904850	0.468518
	N257	N	0.175044	0.075032	0.542493
	N258	N	0.823227	0.075282	0.466833
	N259	N	0.823488	0.906552	0.542040
	N260	N	0.465358	0.174224	0.919261
	N261	N	0.537156	0.173271	0.094159
	N262	N	0.464794	0.811636	0.095382
	N263	N	0.537375	0.812638	0.920141
	N264	N	0.462933	0.907769	0.183569
	N265	N	0.538478	0.077701	0.183576
	N266	N	0.462153	0.077128	0.831575
	N267	N	0.537598	0.907120	0.829000
	N268	N	0.912050	0.171894	0.468095
	N269	N	0.088588	0.172289	0.538197
	N270	N	0.087836	0.810639	0.468306
	N271	N	0.910201	0.809290	0.538934
	N272	N	0.183696	0.457845	0.915941
	N273	N	0.176770	0.531183	0.086895
	N274	N	0.820716	0.456532	0.093375
	N275	N	0.823377	0.529694	0.921187
	O276	O	0.630513	0.627078	0.559453
	H277	H	0.634276	0.617877	0.555600
	H278	H	0.635665	0.648400	0.563491
	O279	O	0.653588	0.398916	0.432997
	H280	H	0.657701	0.392256	0.427588
	H281	H	0.658801	0.400883	0.446051
	O282	O	1.089099	0.127152	1.172751
	H283	H	1.087376	0.134014	1.158895
	H284	H	1.078575	0.145446	1.173381
	O285	O	0.394699	0.522697	0.371403
	H286	H	0.392625	0.525760	0.363705
	H287	H	0.408973	0.504111	0.365503
	O288	O	1.124716	0.839264	0.839694
	H289	H	1.112161	0.823443	0.844550
	H290	H	1.138425	0.822862	0.836456
	O291	O	0.078214	1.093068	-0.187043
	H292	H	0.090407	1.102842	-0.207330
	H293	H	0.067572	1.083222	-0.172278
	O294	O	0.590134	0.610110	0.661061
	H295	H	0.581742	0.603600	0.673499
	H296	H	0.599709	0.607565	0.659554
	O297	O	0.300959	0.479807	0.692854
	H298	H	0.282737	0.482665	0.710408
	H299	H	0.298852	0.486415	0.682525
	O300	O	0.310814	0.653980	0.450403
	H301	H	0.287461	0.675542	0.443094
	H302	H	0.318794	0.646058	0.420088
	O303	O	0.518768	0.547271	0.483659
	H304	H	0.514569	0.548242	0.474291
	H305	H	0.513791	0.550775	0.487131
	O306	O	0.513553	0.320107	0.678993
	H307	H	0.510318	0.301601	0.699231
	H308	H	0.489075	0.326668	0.669893
	O309	O	0.563908	0.597312	0.539650
	H310	H	0.574229	0.590964	0.539168
	H311	H	0.562307	0.592120	0.539236
	O312	O	0.041344	0.137006	-0.017379
	H313	H	0.047730	0.144657	-0.010356
	H314	H	0.058279	0.129338	-0.020606
	O315	O	0.654480	0.355158	0.386890
	H316	H	0.664967	0.347452	0.404517
	H317	H	0.656755	0.372107	0.378282
	O318	O	0.092804	0.849803	0.834848
	H319	H	0.089703	0.858911	0.841843
	H320	H	0.076162	0.845556	0.833786
	O321	O	0.416306	0.570659	0.540635
	H322	H	0.416034	0.572676	0.538772
	H323	H	0.421285	0.570073	0.552815
	O324	O	0.004400	0.838955	0.098928
	H325	H	0.008159	0.848969	0.085305
	H326	H	0.018614	0.841731	0.093338
	O327	O	0.565560	0.478377	0.547460
	H328	H	0.561545	0.476603	0.557017
	H329	H	0.553978	0.481896	0.548467
	O330	O	-0.133688	0.177035	0.844196
	H331	H	-0.148872	0.155845	0.847748
	H332	H	-0.141609	0.197403	0.843969
	O333	O	-0.009664	0.103049	1.059448
	H334	H	-0.013393	0.107756	1.055829
	H335	H	-0.022018	0.116591	1.067704
	O336	O	0.551570	0.577004	0.427121
	H337	H	0.557889	0.579568	0.423485
	H338	H	0.544589	0.574458	0.445493
	O339	O	0.868128	0.001235	-0.000484
	H340	H	0.870921	-0.004937	-0.012830
	H341	H	0.873712	-0.010433	0.007267
	O342	O	-0.068729	0.138347	0.070802
	H343	H	-0.066518	0.133156	0.065799
	H344	H	-0.074147	0.139993	0.069203
	O345	O	0.925989	0.131367	0.970908
	H346	H	0.924083	0.124114	0.982492
	H347	H	0.954790	0.143383	0.968949
	O348	O	1.030677	0.850439	0.048105
	H349	H	1.032699	0.854093	0.039131
	H350	H	1.030700	0.849574	0.046437
	O351	O	0.525245	0.416104	0.354353
	H352	H	0.550037	0.415222	0.345144
	H353	H	0.525627	0.418916	0.355466
	O354	O	1.134078	0.097954	1.011808
	H355	H	1.128741	0.113281	0.998827
	H356	H	1.134845	0.095682	1.002146
	O357	O	0.356822	0.335561	0.674997
	H358	H	0.351260	0.331850	0.648881
	H359	H	0.348352	0.366013	0.677607
	O360	O	0.545953	0.464562	0.569874
	H361	H	0.549643	0.457419	0.559504
	H362	H	0.530762	0.467094	0.577295
	O363	O	0.140635	0.911795	1.088602
	H364	H	0.147209	0.934541	1.093302
	H365	H	0.145704	0.914611	1.078790
	O366	O	0.588799	0.538260	0.486890
	H367	H	0.591487	0.553721	0.493288
	H368	H	0.593425	0.544259	0.494518
	O369	O	0.109587	0.969059	-0.155795
	H370	H	0.099573	0.955485	-0.155217
	H371	H	0.127677	0.964961	-0.172636
	O372	O	0.330281	0.533997	0.592217
	H373	H	0.335332	0.543331	0.588689
	H374	H	0.334852	0.536989	0.590046
	O375	O	0.498571	0.358993	0.498216
	H376	H	0.495476	0.359914	0.505073
	H377	H	0.500505	0.357362	0.486084
	O378	O	0.902726	0.922595	-0.000647
	H379	H	0.895563	0.925526	0.003309
	H380	H	0.899305	0.934034	-0.003736
	O381	O	0.889527	-0.089913	0.032130
	H382	H	0.883523	-0.103972	0.038393
	H383	H	0.886785	-0.086418	0.037782
	O384	O	1.132556	1.133427	0.066329
	H385	H	1.117049	1.135334	0.060075
	H386	H	1.138527	1.126076	0.063887
	O387	O	0.127152	-0.090734	-0.015229
	H388	H	0.132666	-0.085020	-0.026901
	H389	H	0.113098	-0.095654	-0.020278
	O390	O	0.130079	0.880299	0.023459
	H391	H	0.129568	0.883173	0.027366
	H392	H	0.134380	0.882911	0.026790
	O393	O	0.618557	0.517383	0.528655
	H394	H	0.639469	0.518847	0.538553
	H395	H	0.621720	0.502682	0.517207
	O396	O	0.334934	0.344380	0.537096
	H397	H	0.338320	0.357086	0.535423
	H398	H	0.336699	0.337301	0.535303
	O399	O	-0.089127	1.063876	1.005178
	H400	H	-0.081607	1.078182	1.020878
	H401	H	-0.101492	1.059998	1.000648
	O402	O	0.392083	0.586145	0.353399
	H403	H	0.398315	0.577681	0.353849
	H404	H	0.396742	0.578210	0.352786
	O405	O	0.897087	0.955809	0.127695
	H406	H	0.912870	0.942526	0.136177
	H407	H	0.884621	0.955174	0.129961
	O408	O	0.898422	0.939864	0.093247
	H409	H	0.907883	0.939104	0.090193
	H410	H	0.901837	0.942667	0.097610
	O411	O	0.833395	-0.029019	0.914725
	H412	H	0.832605	-0.028467	0.931495
	H413	H	0.828669	-0.031906	0.918234
	O414	O	0.502515	0.470387	0.410141
	H415	H	0.493409	0.460355	0.419879
	H416	H	0.502773	0.469824	0.437268
	O417	O	0.555077	0.488385	0.583610
	H418	H	0.548518	0.485059	0.581532
	H419	H	0.544833	0.486951	0.587334
