data_Molecule from HDF5

_cell_length_a		16.022346
_cell_length_b		16.178849
_cell_length_c		16.330118
_cell_angle_alpha	90.763510
_cell_angle_beta	89.014200
_cell_angle_gamma	88.972664
_symmetry_space_group_name_H-M	'P 1'
_symmetry_Int_Tables_number		1

loop_
	_symmetry_equiv_pos_as_xyz
	x,y,z

loop_
	_atom_site_label
	_atom_site_type_symbol
	_atom_site_fract_x
	_atom_site_fract_y
	_atom_site_fract_z
	H0	H	0.410701	0.835950	0.712720
	H1	H	0.606012	0.164456	0.712484
	H2	H	0.618292	0.837755	0.273496
	H3	H	0.409292	0.165904	0.288638
	H4	H	0.729069	0.399452	0.832350
	H5	H	0.717761	0.599034	0.161195
	H6	H	0.296990	0.599567	0.831772
	H7	H	0.294896	0.409862	0.160115
	H8	H	0.845044	0.713345	0.404766
	H9	H	0.178612	0.706162	0.591482
	H10	H	0.843318	0.290929	0.596011
	H11	H	0.176154	0.278795	0.392918
	H12	H	0.844548	0.404714	0.712674
	H13	H	0.176289	0.597208	0.708510
	H14	H	0.842539	0.598719	0.290493
	H15	H	0.174912	0.390488	0.274878
	H16	H	0.409724	0.717044	0.833154
	H17	H	0.604113	0.718273	0.159203
	H18	H	0.617228	0.280358	0.834025
	H19	H	0.409823	0.291357	0.161131
	H20	H	0.726782	0.834339	0.394915
	H21	H	0.717217	0.166078	0.592598
	H22	H	0.304346	0.831860	0.590271
	H23	H	0.296022	0.164530	0.406402
	H24	H	0.909397	0.334046	0.210606
	H25	H	0.105562	0.662314	0.214692
	H26	H	0.116730	0.336383	0.775940
	H27	H	0.907273	0.664725	0.785861
	H28	H	0.230935	0.895798	0.332641
	H29	H	0.216770	0.094138	0.661398
	H30	H	0.799883	0.094787	0.330961
	H31	H	0.794655	0.905411	0.659596
	H32	H	0.343542	0.214506	0.905929
	H33	H	0.677964	0.210360	0.091314
	H34	H	0.342380	0.796286	0.094585
	H35	H	0.675035	0.782456	0.892419
	H36	H	0.344715	0.908546	0.211976
	H37	H	0.676003	0.102214	0.209929
	H38	H	0.343285	0.102883	0.788045
	H39	H	0.674929	0.895651	0.777070
	H40	H	0.910834	0.214337	0.332997
	H41	H	0.105854	0.215275	0.659175
	H42	H	0.118313	0.777088	0.333365
	H43	H	0.913696	0.790089	0.661070
	H44	H	0.229699	0.335480	0.892964
	H45	H	0.212986	0.667362	0.091929
	H46	H	0.800073	0.333012	0.091003
	H47	H	0.798145	0.666665	0.907513
	H48	H	0.417134	0.116599	0.593007
	H49	H	0.602805	0.880734	0.591305
	H50	H	0.600508	0.121374	0.393368
	H51	H	0.426129	0.880186	0.395436
	H52	H	0.599539	0.403087	0.114095
	H53	H	0.608980	0.586953	0.879227
	H54	H	0.416344	0.589183	0.109798
	H55	H	0.424838	0.400088	0.877478
	H56	H	0.133171	0.592197	0.398589
	H57	H	0.890887	0.595160	0.594381
	H58	H	0.129995	0.401699	0.586826
	H59	H	0.890845	0.399876	0.410970
	H60	H	0.129285	0.403873	0.582876
	H61	H	0.890614	0.597716	0.594158
	H62	H	0.128165	0.584445	0.408202
	H63	H	0.894769	0.417154	0.407722
	H64	H	0.418175	0.610950	0.114050
	H65	H	0.599061	0.591239	0.880864
	H66	H	0.607840	0.404900	0.116095
	H67	H	0.414527	0.405970	0.877778
	H68	H	0.596790	0.115791	0.409210
	H69	H	0.600453	0.883091	0.584836
	H70	H	0.408933	0.117936	0.591488
	H71	H	0.426793	0.882867	0.402157
	H72	H	0.917926	0.617318	0.097119
	H73	H	0.103318	0.381724	0.084477
	H74	H	0.103545	0.622453	0.893040
	H75	H	0.923446	0.383291	0.904972
	H76	H	0.104549	0.903809	0.613341
	H77	H	0.112111	0.084522	0.377548
	H78	H	0.913812	0.109344	0.616815
	H79	H	0.926256	0.899760	0.379356
	H80	H	0.630448	0.094466	0.904524
	H81	H	0.390290	0.099710	0.095488
	H82	H	0.629011	0.908357	0.082670
	H83	H	0.391266	0.911413	0.908630
	H84	H	0.630484	0.909555	0.086502
	H85	H	0.390997	0.098179	0.093947
	H86	H	0.628004	0.082909	0.901898
	H87	H	0.390384	0.913660	0.901398
	H88	H	0.901197	0.087893	0.613963
	H89	H	0.099544	0.083925	0.381788
	H90	H	0.105078	0.899911	0.614529
	H91	H	0.918402	0.899790	0.376219
	H92	H	0.092615	0.615275	0.903429
	H93	H	0.104753	0.381684	0.085082
	H94	H	0.912241	0.615787	0.091515
	H95	H	0.917789	0.380290	0.900148
	H96	H	0.411276	0.119602	0.598844
	H97	H	0.606848	0.881718	0.585058
	H98	H	0.613093	0.120705	0.404513
	H99	H	0.419225	0.880099	0.399980
	H100	H	0.603333	0.411688	0.112254
	H101	H	0.607184	0.596515	0.877255
	H102	H	0.398349	0.600819	0.117104
	H103	H	0.425567	0.410404	0.881765
	H104	H	0.129579	0.579009	0.395806
	H105	H	0.891361	0.595422	0.593891
	H106	H	0.130444	0.406536	0.587310
	H107	H	0.887163	0.405939	0.394685
	H108	H	0.908925	0.618704	0.099996
	H109	H	0.103227	0.381180	0.086637
	H110	H	0.107929	0.619325	0.907908
	H111	H	0.924581	0.381428	0.897577
	H112	H	0.108218	0.901820	0.614656
	H113	H	0.104216	0.095159	0.377775
	H114	H	0.924489	0.089600	0.607718
	H115	H	0.920858	0.906316	0.379716
	H116	H	0.632613	0.090892	0.892706
	H117	H	0.391152	0.096794	0.095780
	H118	H	0.629976	0.905832	0.084845
	H119	H	0.388496	0.908115	0.902908
	C120	C	0.386848	0.008182	0.620488
	C121	C	0.629937	0.991181	0.616223
	C122	C	0.634478	0.009885	0.372008
	C123	C	0.392117	0.990708	0.375569
	C124	C	0.634516	0.376505	0.005620
	C125	C	0.630932	0.621438	0.987720
	C126	C	0.384796	0.626266	0.004685
	C127	C	0.390663	0.380228	0.987721
	C128	C	0.019759	0.616842	0.376099
	C129	C	1.001343	0.621692	0.619452
	C130	C	0.019665	0.378413	0.616174
	C131	C	1.001162	0.375673	0.373499
	C132	C	0.886179	0.507686	0.121082
	C133	C	0.129452	0.490596	0.115788
	C134	C	0.133394	0.509647	0.871776
	C135	C	0.891058	0.491668	0.876111
	C136	C	0.136438	0.872452	0.505705
	C137	C	0.131064	0.117750	0.487581
	C138	C	0.886921	0.122494	0.504531
	C139	C	0.891147	0.876673	0.487200
	C140	C	0.519635	0.120352	0.875411
	C141	C	0.501350	0.124661	0.119976
	C142	C	0.519310	0.882151	0.115353
	C143	C	0.499982	0.879425	0.873729
	C144	C	0.390773	0.884782	0.674625
	C145	C	0.626390	0.115276	0.673240
	C146	C	0.636259	0.886494	0.313083
	C147	C	0.390691	0.116020	0.324985
	C148	C	0.691200	0.378688	0.881922
	C149	C	0.682038	0.619811	0.111722
	C150	C	0.333146	0.620793	0.881185
	C151	C	0.333462	0.386957	0.111499
	C152	C	0.894423	0.674736	0.382483
	C153	C	0.128142	0.671606	0.613539
	C154	C	0.893592	0.326883	0.615837
	C155	C	0.126352	0.317736	0.373573
	C156	C	0.894276	0.383340	0.673880
	C157	C	0.126946	0.617499	0.671757
	C158	C	0.893296	0.617641	0.325699
	C159	C	0.125588	0.372802	0.314559
	C160	C	0.389360	0.679647	0.881896
	C161	C	0.625438	0.679016	0.110688
	C162	C	0.635335	0.319519	0.882536
	C163	C	0.390718	0.328271	0.111823
	C164	C	0.690350	0.884541	0.373454
	C165	C	0.681582	0.116181	0.613484
	C166	C	0.337637	0.882758	0.613821
	C167	C	0.334142	0.115263	0.383404
	C168	C	0.889501	0.383223	0.173426
	C169	C	0.125360	0.613990	0.174303
	C170	C	0.135181	0.385665	0.814805
	C171	C	0.889811	0.615875	0.823672
	C172	C	0.193340	0.874617	0.381879
	C173	C	0.181612	0.115593	0.611773
	C174	C	0.835637	0.116786	0.380542
	C175	C	0.833574	0.883188	0.610706
	C176	C	0.393669	0.177268	0.882553
	C177	C	0.627452	0.175780	0.113870
	C178	C	0.392902	0.831754	0.114452
	C179	C	0.625240	0.821081	0.873252
	C180	C	0.394302	0.887291	0.173103
	C181	C	0.626534	0.121778	0.172848
	C182	C	0.393331	0.121266	0.824521
	C183	C	0.625250	0.877418	0.815891
	C184	C	0.890676	0.176600	0.381598
	C185	C	0.126374	0.175696	0.610638
	C186	C	0.136946	0.815747	0.382289
	C187	C	0.892626	0.825903	0.611451
	C188	C	0.191441	0.385203	0.873091
	C189	C	0.178955	0.616603	0.113288
	C190	C	0.835009	0.382798	0.113885
	C191	C	0.835446	0.616886	0.884356
	C192	C	0.406355	0.095697	0.600376
	C193	C	0.609432	0.904205	0.593654
	C194	C	0.610482	0.096689	0.395439
	C195	C	0.416789	0.903624	0.393768
	C196	C	0.610515	0.399642	0.091931
	C197	C	0.610978	0.598329	0.901490
	C198	C	0.404857	0.606200	0.091321
	C199	C	0.414701	0.399580	0.901455
	C200	C	0.107520	0.592434	0.395161
	C201	C	0.913654	0.602072	0.599955
	C202	C	0.107224	0.398190	0.592577
	C203	C	0.913463	0.400562	0.397480
	C204	C	0.906785	0.594702	0.102086
	C205	C	0.109718	0.403800	0.092179
	C206	C	0.108721	0.596624	0.894714
	C207	C	0.915059	0.404263	0.895148
	C208	C	0.112858	0.895042	0.591739
	C209	C	0.111350	0.094806	0.401360
	C210	C	0.907101	0.101858	0.590623
	C211	C	0.914919	0.896105	0.400965
	C212	C	0.607590	0.096473	0.894170
	C213	C	0.413326	0.104428	0.100787
	C214	C	0.607141	0.901980	0.091605
	C215	C	0.412441	0.904038	0.897273
	Zn216	Zn	0.508827	0.000294	0.746851
	Zn217	Zn	0.512096	0.002129	0.245475
	Zn218	Zn	0.760913	0.499654	-0.002740
	Zn219	Zn	0.259174	0.501537	-0.004906
	Zn220	Zn	0.012808	0.745650	0.497222
	Zn221	Zn	0.009901	0.249430	0.495644
	Zn222	Zn	0.010953	0.500609	0.744976
	Zn223	Zn	0.009238	0.497413	0.246885
	Zn224	Zn	0.509023	0.752862	-0.004770
	Zn225	Zn	0.511753	0.249095	-0.002725
	Zn226	Zn	0.759882	-0.000390	0.494939
	Zn227	Zn	0.261955	-0.002816	0.496759
	N228	N	0.420491	0.964045	0.678810
	N229	N	0.595027	0.036636	0.674996
	N230	N	0.602327	0.965551	0.312046
	N231	N	0.425780	0.037498	0.319764
	N232	N	0.690622	0.413591	0.959534
	N233	N	0.685703	0.584958	0.034264
	N234	N	0.330055	0.588545	0.958805
	N235	N	0.333293	0.418578	0.033497
	N236	N	0.973969	0.674490	0.413038
	N237	N	0.049005	0.674477	0.581710
	N238	N	0.972532	0.323690	0.580448
	N239	N	0.047981	0.319567	0.409706
	N240	N	0.973598	0.414655	0.674334
	N241	N	0.047251	0.587210	0.675727
	N242	N	0.972531	0.582518	0.321349
	N243	N	0.046571	0.408266	0.314545
	N244	N	0.420851	0.683215	0.959855
	N245	N	0.594407	0.680232	0.032454
	N246	N	0.600535	0.318288	0.960330
	N247	N	0.425543	0.323986	0.033941
	N248	N	0.689481	0.962094	0.409278
	N249	N	0.684127	0.037853	0.578639
	N250	N	0.335103	0.960607	0.580740
	N251	N	0.334879	0.036369	0.414091
	N252	N	0.920710	0.461941	0.178077
	N253	N	0.095322	0.534842	0.175781
	N254	N	0.099973	0.464102	0.813716
	N255	N	0.923640	0.536916	0.818498
	N256	N	0.193339	0.909197	0.459394
	N257	N	0.184558	0.080153	0.534449
	N258	N	0.833039	0.083932	0.457936
	N259	N	0.832449	0.913907	0.532411
	N260	N	0.473087	0.176849	0.913580
	N261	N	0.548583	0.177839	0.081938
	N262	N	0.471852	0.828448	0.079173
	N263	N	0.546369	0.822057	0.908457
	N264	N	0.473858	0.917950	0.173709
	N265	N	0.547159	0.090556	0.176810
	N266	N	0.472742	0.086711	0.819758
	N267	N	0.546373	0.912976	0.816160
	N268	N	0.921864	0.180257	0.459599
	N269	N	0.095784	0.177229	0.532357
	N270	N	0.102323	0.814171	0.460213
	N271	N	0.927670	0.821613	0.533673
	N272	N	0.190330	0.463371	0.907949
	N273	N	0.181608	0.538848	0.077282
	N274	N	0.832674	0.461156	0.082064
	N275	N	0.836089	0.538477	0.916043
	O276	O	-0.556706	0.456505	-0.541848
	H277	H	-0.558989	0.449641	-0.534377
	H278	H	-0.551706	0.446673	-0.543856
	O279	O	-0.036045	1.071066	0.964048
	H280	H	-0.041437	1.055773	0.968990
	H281	H	-0.034953	1.081934	0.957366
	O282	O	0.506200	0.491842	0.599748
	H283	H	0.509521	0.488024	0.607591
	H284	H	0.511122	0.481466	0.597146
	O285	O	1.016235	-0.040415	1.107605
	H286	H	1.018262	-0.043847	1.098734
	H287	H	1.017748	-0.034112	1.110767
	O288	O	1.001400	0.008477	-0.022140
	H289	H	1.002681	-0.000056	-0.027132
	H290	H	1.007573	0.013496	-0.015557
	O291	O	0.507472	0.471203	0.518415
	H292	H	0.510145	0.471151	0.519072
	H293	H	0.514566	0.467373	0.522648
	O294	O	0.916925	-0.071020	1.024374
	H295	H	0.917102	-0.082364	1.021644
	H296	H	0.923833	-0.064226	1.028322
	O297	O	0.055811	0.003458	0.044805
	H298	H	0.064886	0.003049	0.050952
	H299	H	0.059027	0.004656	0.040456
	O300	O	0.508360	0.492537	0.488734
	H301	H	0.501270	0.489864	0.494343
	H302	H	0.507891	0.494420	0.493768
	O303	O	0.584341	0.576713	0.595413
	H304	H	0.576926	0.583515	0.603108
	H305	H	0.588533	0.581802	0.600322
	O306	O	1.054370	-0.041512	-0.041217
	H307	H	1.043068	-0.038642	-0.027057
	H308	H	1.063939	-0.046727	-0.040142
	O309	O	-0.018113	-0.041507	1.009740
	H310	H	-0.028950	-0.051948	1.003427
	H311	H	-0.016807	-0.040181	1.025664
	O312	O	1.051733	1.094421	0.956958
	H313	H	1.044939	1.093097	0.954658
	H314	H	1.045425	1.098691	0.958075
	O315	O	0.574486	0.441625	0.495833
	H316	H	0.578145	0.442649	0.495724
	H317	H	0.573030	0.445326	0.492153
	O318	O	0.550699	0.604138	0.537221
	H319	H	0.538859	0.602052	0.529715
	H320	H	0.565686	0.595848	0.545468
	O321	O	-0.030498	0.958349	1.003772
	H322	H	-0.024957	0.960520	1.003251
	H323	H	-0.031974	0.958490	0.998445
	O324	O	0.532164	0.487547	0.509496
	H325	H	0.537891	0.489372	0.496048
	H326	H	0.533259	0.491308	0.508419
	O327	O	0.506792	0.547204	0.419933
	H328	H	0.500004	0.552019	0.424228
	H329	H	0.517502	0.560560	0.423538
	O330	O	0.512809	0.476666	0.441612
	H331	H	0.510682	0.474870	0.438675
	H332	H	0.511191	0.488423	0.449560
	O333	O	0.447866	0.435539	0.550675
	H334	H	0.452640	0.425576	0.547765
	H335	H	0.446516	0.449808	0.555419
	O336	O	0.511618	0.556754	0.499610
	H337	H	0.512826	0.552876	0.492434
	H338	H	0.501942	0.557380	0.486690
	O339	O	1.024710	0.985570	0.028442
	H340	H	1.026828	0.981441	0.038433
	H341	H	1.027968	0.987167	0.021462
	O342	O	0.574668	0.451490	0.462418
	H343	H	0.577841	0.441262	0.465068
	H344	H	0.570038	0.461714	0.454820
	O345	O	0.474470	0.515716	0.434383
	H346	H	0.476912	0.524999	0.433317
	H347	H	0.470966	0.514392	0.435676
	O348	O	0.021510	-0.027723	-0.011424
	H349	H	0.017090	-0.030950	-0.010424
	H350	H	0.025570	-0.025842	-0.019583
	O351	O	-0.033785	0.979771	0.986174
	H352	H	-0.029539	0.978943	0.988408
	H353	H	-0.043279	0.986662	0.991240
	O354	O	0.476854	0.542727	0.524865
	H355	H	0.475741	0.533810	0.522368
	H356	H	0.469274	0.532558	0.524568
	O357	O	0.027188	0.934966	0.935649
	H358	H	0.027345	0.938197	0.934578
	H359	H	0.032095	0.925145	0.928312
