data_Molecule from HDF5

_cell_length_a		16.262309
_cell_length_b		16.310861
_cell_length_c		16.205037
_cell_angle_alpha	89.926144
_cell_angle_beta	89.812530
_cell_angle_gamma	90.114028
_symmetry_space_group_name_H-M	'P 1'
_symmetry_Int_Tables_number		1

loop_
	_symmetry_equiv_pos_as_xyz
	x,y,z

loop_
	_atom_site_label
	_atom_site_type_symbol
	_atom_site_fract_x
	_atom_site_fract_y
	_atom_site_fract_z
	H0	H	0.390237	0.828979	0.719210
	H1	H	0.585773	0.158344	0.717241
	H2	H	0.585219	0.829388	0.292067
	H3	H	0.392820	0.157224	0.292569
	H4	H	0.703965	0.394919	0.841631
	H5	H	0.702475	0.591979	0.170835
	H6	H	0.276181	0.591030	0.840770
	H7	H	0.274726	0.394200	0.169549
	H8	H	0.824894	0.707434	0.407239
	H9	H	0.152573	0.707898	0.604747
	H10	H	0.824915	0.278210	0.604710
	H11	H	0.152611	0.279239	0.406157
	H12	H	0.825138	0.394428	0.720587
	H13	H	0.153474	0.590588	0.718155
	H14	H	0.824756	0.590354	0.292245
	H15	H	0.152522	0.397380	0.292072
	H16	H	0.391953	0.706985	0.841544
	H17	H	0.587636	0.708284	0.170110
	H18	H	0.588273	0.279367	0.841137
	H19	H	0.389916	0.278296	0.169604
	H20	H	0.704015	0.830247	0.405100
	H21	H	0.704601	0.155964	0.603263
	H22	H	0.274027	0.829162	0.602764
	H23	H	0.274640	0.156025	0.407139
	H24	H	0.890504	0.329898	0.220306
	H25	H	0.085356	0.657625	0.218275
	H26	H	0.085647	0.329447	0.792401
	H27	H	0.892467	0.657749	0.792195
	H28	H	0.201447	0.896240	0.340482
	H29	H	0.202101	0.091077	0.669987
	H30	H	0.777524	0.090100	0.340763
	H31	H	0.773697	0.894092	0.669842
	H32	H	0.325078	0.208402	0.906039
	H33	H	0.652821	0.207419	0.102761
	H34	H	0.325000	0.778218	0.104937
	H35	H	0.653126	0.779170	0.906042
	H36	H	0.324601	0.895691	0.219085
	H37	H	0.653610	0.090388	0.218012
	H38	H	0.324484	0.090567	0.791693
	H39	H	0.653824	0.897692	0.791813
	H40	H	0.889785	0.208195	0.341790
	H41	H	0.086752	0.206837	0.669647
	H42	H	0.088421	0.778101	0.341492
	H43	H	0.890161	0.778607	0.669916
	H44	H	0.203058	0.329547	0.906995
	H45	H	0.203647	0.656666	0.103590
	H46	H	0.774086	0.329530	0.104711
	H47	H	0.775493	0.657220	0.907860
	H48	H	0.391161	0.109896	0.594817
	H49	H	0.583183	0.877757	0.593564
	H50	H	0.585176	0.109702	0.415143
	H51	H	0.387671	0.874452	0.414554
	H52	H	0.583308	0.400512	0.122875
	H53	H	0.584072	0.589111	0.888103
	H54	H	0.393635	0.584041	0.122473
	H55	H	0.406474	0.388367	0.887354
	H56	H	0.103919	0.583060	0.414689
	H57	H	0.872200	0.582975	0.601198
	H58	H	0.110109	0.398764	0.611127
	H59	H	0.870563	0.399530	0.408612
	H60	H	0.106793	0.388707	0.590832
	H61	H	0.871046	0.588997	0.598385
	H62	H	0.107762	0.586386	0.406717
	H63	H	0.871714	0.394685	0.417481
	H64	H	0.398012	0.585917	0.122924
	H65	H	0.583768	0.582747	0.890284
	H66	H	0.579529	0.400455	0.122634
	H67	H	0.381673	0.397209	0.882973
	H68	H	0.584349	0.110831	0.408994
	H69	H	0.584420	0.874866	0.601931
	H70	H	0.394270	0.110317	0.602593
	H71	H	0.394617	0.873993	0.404440
	H72	H	0.894130	0.613469	0.109182
	H73	H	0.078774	0.378024	0.099306
	H74	H	0.074775	0.606825	0.912513
	H75	H	0.897975	0.379401	0.915828
	H76	H	0.075643	0.902488	0.620330
	H77	H	0.081965	0.088290	0.387065
	H78	H	0.891583	0.085927	0.624331
	H79	H	0.897962	0.895990	0.387980
	H80	H	0.605234	0.087152	0.914511
	H81	H	0.368611	0.092728	0.102259
	H82	H	0.605983	0.893559	0.092782
	H83	H	0.370136	0.900777	0.904488
	H84	H	0.603426	0.907625	0.095930
	H85	H	0.374089	0.086956	0.091630
	H86	H	0.605557	0.085535	0.909117
	H87	H	0.370807	0.891020	0.915646
	H88	H	0.896569	0.081794	0.621452
	H89	H	0.083109	0.086839	0.388027
	H90	H	0.081001	0.893345	0.624938
	H91	H	0.892411	0.899069	0.386571
	H92	H	0.088769	0.608382	0.919948
	H93	H	0.083556	0.376592	0.095467
	H94	H	0.904025	0.605446	0.095505
	H95	H	0.891127	0.375767	0.913721
	H96	H	0.399002	0.107811	0.596264
	H97	H	0.576256	0.878437	0.599548
	H98	H	0.579968	0.108703	0.412201
	H99	H	0.399675	0.878514	0.415280
	H100	H	0.580924	0.397303	0.123531
	H101	H	0.578304	0.586075	0.890377
	H102	H	0.394519	0.588085	0.123636
	H103	H	0.400678	0.413435	0.892651
	H104	H	0.106542	0.592137	0.414169
	H105	H	0.874504	0.584464	0.594963
	H106	H	0.100441	0.410170	0.593450
	H107	H	0.873832	0.404583	0.416618
	H108	H	0.887183	0.610543	0.092769
	H109	H	0.083436	0.375545	0.101424
	H110	H	0.087150	0.613339	0.904558
	H111	H	0.896951	0.375703	0.908335
	H112	H	0.086450	0.903083	0.623835
	H113	H	0.080973	0.087023	0.388835
	H114	H	0.898273	0.089287	0.623274
	H115	H	0.897808	0.902206	0.389557
	H116	H	0.606472	0.089568	0.910964
	H117	H	0.372779	0.080347	0.102960
	H118	H	0.608231	0.898933	0.105796
	H119	H	0.375547	0.905269	0.918199
	C120	C	0.366501	0.001397	0.626989
	C121	C	0.610085	0.985175	0.626564
	C122	C	0.610647	0.001629	0.383470
	C123	C	0.366788	0.984258	0.383633
	C124	C	0.610281	0.371543	0.014274
	C125	C	0.610467	0.614802	0.997949
	C126	C	0.367362	0.614646	0.014436
	C127	C	0.367757	0.371519	0.996697
	C128	C	-0.002403	0.615035	0.384114
	C129	C	0.980882	0.614276	0.626824
	C130	C	-0.002484	0.370583	0.627775
	C131	C	0.980186	0.371821	0.385144
	C132	C	0.866869	0.501604	0.127631
	C133	C	0.110380	0.484955	0.127233
	C134	C	0.111377	0.501515	0.883931
	C135	C	0.867513	0.485352	0.884218
	C136	C	0.109504	0.871881	0.513779
	C137	C	0.110052	0.114536	0.497104
	C138	C	0.867529	0.114349	0.514413
	C139	C	0.866736	0.870549	0.496574
	C140	C	0.496928	0.115276	0.883549
	C141	C	0.480744	0.114733	0.126825
	C142	C	0.497275	0.871815	0.127034
	C143	C	0.480644	0.871586	0.883581
	C144	C	0.369430	0.877917	0.681582
	C145	C	0.606981	0.108885	0.680595
	C146	C	0.606801	0.878478	0.329197
	C147	C	0.370960	0.108138	0.329560
	C148	C	0.665552	0.374631	0.890318
	C149	C	0.664879	0.612323	0.121762
	C150	C	0.313675	0.611472	0.890039
	C151	C	0.312494	0.373907	0.120546
	C152	C	0.873893	0.669649	0.386792
	C153	C	0.103679	0.670033	0.624958
	C154	C	0.874197	0.315440	0.625584
	C155	C	0.103650	0.317222	0.386527
	C156	C	0.874080	0.373721	0.682607
	C157	C	0.104183	0.611812	0.681393
	C158	C	0.873737	0.611541	0.329733
	C159	C	0.103700	0.375712	0.329702
	C160	C	0.370804	0.669285	0.890505
	C161	C	0.607577	0.669946	0.121381
	C162	C	0.608368	0.316920	0.890299
	C163	C	0.369655	0.316325	0.120523
	C164	C	0.665429	0.878722	0.385680
	C165	C	0.665964	0.107886	0.623999
	C166	C	0.311383	0.878076	0.624052
	C167	C	0.312427	0.107516	0.386451
	C168	C	0.869840	0.378451	0.182454
	C169	C	0.106642	0.608574	0.181171
	C170	C	0.106992	0.378296	0.829595
	C171	C	0.871044	0.608541	0.829292
	C172	C	0.163892	0.875332	0.389772
	C173	C	0.164325	0.111199	0.620815
	C174	C	0.814312	0.110966	0.389909
	C175	C	0.811561	0.873404	0.620653
	C176	C	0.373731	0.169986	0.886408
	C177	C	0.603798	0.169817	0.123920
	C178	C	0.373941	0.816325	0.125073
	C179	C	0.604022	0.816929	0.885654
	C180	C	0.373536	0.874804	0.181581
	C181	C	0.604354	0.111511	0.181008
	C182	C	0.373421	0.111718	0.829341
	C183	C	0.604423	0.876088	0.829161
	C184	C	0.870134	0.169577	0.390507
	C185	C	0.107134	0.168877	0.620777
	C186	C	0.107786	0.816815	0.390268
	C187	C	0.869672	0.816423	0.620797
	C188	C	0.165840	0.378472	0.885934
	C189	C	0.165128	0.608158	0.123858
	C190	C	0.811603	0.378515	0.125414
	C191	C	0.813155	0.608491	0.887088
	C192	C	0.388422	0.087204	0.604699
	C193	C	0.587895	0.899309	0.604797
	C194	C	0.589470	0.087565	0.405480
	C195	C	0.387764	0.898086	0.404863
	C196	C	0.587917	0.393115	0.100608
	C197	C	0.588399	0.592500	0.911885
	C198	C	0.388859	0.592560	0.100868
	C199	C	0.389570	0.393473	0.910086
	C200	C	0.083634	0.593509	0.405521
	C201	C	0.894844	0.591960	0.604893
	C202	C	0.083631	0.392721	0.605217
	C203	C	0.894315	0.393085	0.407656
	C204	C	0.888623	0.587648	0.105580
	C205	C	0.088368	0.398814	0.105241
	C206	C	0.089866	0.587515	0.905917
	C207	C	0.888884	0.399208	0.906188
	C208	C	0.087542	0.893298	0.600620
	C209	C	0.088514	0.093439	0.410333
	C210	C	0.889195	0.092084	0.600744
	C211	C	0.889238	0.892603	0.410277
	C212	C	0.583482	0.093827	0.905280
	C213	C	0.394032	0.092900	0.105404
	C214	C	0.583664	0.893653	0.104837
	C215	C	0.394330	0.892711	0.906142
	Zn216	Zn	0.488528	-0.006590	0.755234
	Zn217	Zn	0.488719	-0.007172	0.255473
	Zn218	Zn	0.738203	0.493197	0.006211
	Zn219	Zn	0.239981	0.493021	0.005351
	Zn220	Zn	-0.010776	0.743098	0.505766
	Zn221	Zn	-0.011127	0.242063	0.506109
	Zn222	Zn	-0.010618	0.493437	0.755240
	Zn223	Zn	-0.011393	0.493450	0.256285
	Zn224	Zn	0.488925	0.743191	0.005960
	Zn225	Zn	0.488807	0.243619	0.005366
	Zn226	Zn	0.739296	-0.006684	0.504901
	Zn227	Zn	0.237823	-0.007074	0.505072
	N228	N	0.402705	0.955569	0.683728
	N229	N	0.572753	0.031574	0.682147
	N230	N	0.573470	0.955784	0.327708
	N231	N	0.404024	0.030557	0.327707
	N232	N	0.666883	0.407970	0.968205
	N233	N	0.666755	0.578723	0.043945
	N234	N	0.311431	0.578304	0.968171
	N235	N	0.311268	0.407441	0.042424
	N236	N	0.951754	0.671915	0.419986
	N237	N	0.025917	0.671651	0.591724
	N238	N	0.952118	0.313428	0.592266
	N239	N	0.026033	0.314901	0.420562
	N240	N	0.951737	0.407414	0.684004
	N241	N	0.026804	0.577695	0.682559
	N242	N	0.951411	0.578483	0.327911
	N243	N	0.026091	0.409091	0.328685
	N244	N	0.403347	0.671413	0.968633
	N245	N	0.574447	0.671502	0.043377
	N246	N	0.574691	0.314964	0.968270
	N247	N	0.403233	0.314761	0.042597
	N248	N	0.667958	0.956408	0.418717
	N249	N	0.667798	0.030238	0.590991
	N250	N	0.309465	0.955705	0.590758
	N251	N	0.309784	0.029704	0.419272
	N252	N	0.903291	0.455873	0.183943
	N253	N	0.073290	0.530923	0.183218
	N254	N	0.074140	0.455906	0.828027
	N255	N	0.904246	0.531034	0.827556
	N256	N	0.165122	0.908639	0.467593
	N257	N	0.166347	0.078333	0.542570
	N258	N	0.812527	0.077427	0.467866
	N259	N	0.809635	0.906539	0.542376
	N260	N	0.451813	0.172221	0.919250
	N261	N	0.526002	0.171629	0.090887
	N262	N	0.451996	0.814502	0.091605
	N263	N	0.526000	0.813921	0.918774
	N264	N	0.451239	0.908333	0.182969
	N265	N	0.526466	0.078087	0.183033
	N266	N	0.451030	0.078405	0.827523
	N267	N	0.526643	0.909182	0.827975
	N268	N	0.902520	0.171764	0.468851
	N269	N	0.074225	0.170855	0.542810
	N270	N	0.074635	0.814660	0.468569
	N271	N	0.902966	0.814259	0.542769
	N272	N	0.168518	0.455940	0.919185
	N273	N	0.167646	0.530361	0.091148
	N274	N	0.809768	0.456154	0.091932
	N275	N	0.810606	0.530778	0.920292
	O276	O	1.539582	0.534019	0.596134
	H277	H	1.534628	0.535375	0.608287
	H278	H	1.532979	0.534056	0.592346
	O279	O	0.559938	0.455260	0.557152
	H280	H	0.561397	0.445938	0.555141
	H281	H	0.565169	0.457895	0.558531
	O282	O	1.573880	1.497715	-0.438424
	H283	H	1.573309	1.490366	-0.435880
	H284	H	1.581854	1.488212	-0.436554
	O285	O	0.531488	0.504066	0.590646
	H286	H	0.521177	0.517487	0.599712
	H287	H	0.543258	0.512326	0.582000
