data_Molecule from HDF5

_cell_length_a		16.177084
_cell_length_b		16.374111
_cell_length_c		16.039031
_cell_angle_alpha	89.744644
_cell_angle_beta	90.378066
_cell_angle_gamma	89.224073
_symmetry_space_group_name_H-M	'P 1'
_symmetry_Int_Tables_number		1

loop_
	_symmetry_equiv_pos_as_xyz
	x,y,z

loop_
	_atom_site_label
	_atom_site_type_symbol
	_atom_site_fract_x
	_atom_site_fract_y
	_atom_site_fract_z
	H0	H	0.405320	0.836217	0.718117
	H1	H	0.597756	0.162981	0.720237
	H2	H	0.600869	0.836265	0.293814
	H3	H	0.397501	0.162165	0.284397
	H4	H	0.714547	0.399491	0.836366
	H5	H	0.714011	0.593886	0.167909
	H6	H	0.287518	0.598282	0.836028
	H7	H	0.291147	0.402328	0.169006
	H8	H	0.837586	0.720899	0.398167
	H9	H	0.165892	0.714051	0.605574
	H10	H	0.836881	0.286249	0.604814
	H11	H	0.162940	0.280427	0.403644
	H12	H	0.835038	0.407392	0.713715
	H13	H	0.167482	0.592643	0.716039
	H14	H	0.836066	0.601267	0.286809
	H15	H	0.166492	0.401218	0.293574
	H16	H	0.394881	0.718762	0.839237
	H17	H	0.603474	0.710595	0.167934
	H18	H	0.603326	0.282887	0.837002
	H19	H	0.403926	0.284010	0.167772
	H20	H	0.719577	0.839647	0.403944
	H21	H	0.714787	0.163719	0.604565
	H22	H	0.287137	0.837400	0.604156
	H23	H	0.280053	0.162209	0.399840
	H24	H	0.906874	0.336321	0.217109
	H25	H	0.097780	0.663622	0.216665
	H26	H	0.100123	0.337135	0.791941
	H27	H	0.900250	0.663762	0.787417
	H28	H	0.212501	0.902934	0.336160
	H29	H	0.214026	0.096797	0.668649
	H30	H	0.784624	0.101768	0.337174
	H31	H	0.791945	0.905180	0.670296
	H32	H	0.339366	0.219894	0.897715
	H33	H	0.666305	0.212381	0.106352
	H34	H	0.336674	0.784644	0.104218
	H35	H	0.664371	0.779894	0.903519
	H36	H	0.335808	0.904505	0.215500
	H37	H	0.667977	0.090291	0.216366
	H38	H	0.335281	0.098229	0.791557
	H39	H	0.665422	0.900718	0.793128
	H40	H	0.895906	0.219421	0.338863
	H41	H	0.101214	0.212707	0.668968
	H42	H	0.101501	0.784822	0.337398
	H43	H	0.903691	0.786425	0.668303
	H44	H	0.218234	0.338056	0.903417
	H45	H	0.215234	0.663451	0.101662
	H46	H	0.790662	0.334929	0.100804
	H47	H	0.779685	0.661627	0.898609
	H48	H	0.410185	0.114573	0.595947
	H49	H	0.589475	0.884783	0.605350
	H50	H	0.605036	0.120138	0.412879
	H51	H	0.400565	0.881609	0.406913
	H52	H	0.596610	0.403408	0.122003
	H53	H	0.585133	0.588102	0.885114
	H54	H	0.406088	0.591764	0.122068
	H55	H	0.408220	0.408633	0.883294
	H56	H	0.120405	0.589885	0.402150
	H57	H	0.882804	0.606222	0.587800
	H58	H	0.114711	0.414214	0.595514
	H59	H	0.881757	0.401621	0.413694
	H60	H	0.123059	0.400033	0.606639
	H61	H	0.888198	0.588567	0.589164
	H62	H	0.119912	0.601684	0.415246
	H63	H	0.886201	0.415720	0.417449
	H64	H	0.410333	0.589661	0.120918
	H65	H	0.587825	0.594882	0.883289
	H66	H	0.595780	0.406576	0.120166
	H67	H	0.410366	0.409040	0.884253
	H68	H	0.586747	0.120335	0.395961
	H69	H	0.595750	0.888287	0.587251
	H70	H	0.402306	0.116128	0.591700
	H71	H	0.414715	0.884491	0.407631
	H72	H	0.899231	0.616226	0.090346
	H73	H	0.095004	0.384318	0.097747
	H74	H	0.091132	0.614103	0.919238
	H75	H	0.912067	0.383812	0.905317
	H76	H	0.088621	0.896699	0.622579
	H77	H	0.085072	0.092469	0.386234
	H78	H	0.907142	0.092734	0.621688
	H79	H	0.910233	0.910733	0.384470
	H80	H	0.623888	0.093180	0.901349
	H81	H	0.384836	0.091566	0.095627
	H82	H	0.617919	0.898076	0.092628
	H83	H	0.379793	0.900122	0.909173
	H84	H	0.618690	0.906269	0.099170
	H85	H	0.384031	0.097802	0.091574
	H86	H	0.619490	0.099030	0.920515
	H87	H	0.385800	0.908397	0.919543
	H88	H	0.910464	0.094283	0.620555
	H89	H	0.089516	0.096610	0.383454
	H90	H	0.104983	0.906123	0.625511
	H91	H	0.909169	0.907920	0.383981
	H92	H	0.103603	0.621030	0.906301
	H93	H	0.099995	0.383774	0.094514
	H94	H	0.907110	0.616898	0.099839
	H95	H	0.909945	0.385363	0.913404
	H96	H	0.402676	0.118142	0.600912
	H97	H	0.607197	0.880772	0.600506
	H98	H	0.582101	0.111523	0.419823
	H99	H	0.406663	0.886336	0.419484
	H100	H	0.593262	0.403392	0.119838
	H101	H	0.592719	0.588791	0.883569
	H102	H	0.409990	0.594923	0.123296
	H103	H	0.410014	0.406064	0.883082
	H104	H	0.114600	0.586207	0.419052
	H105	H	0.881061	0.597141	0.603950
	H106	H	0.117684	0.396235	0.588861
	H107	H	0.881749	0.412611	0.403278
	H108	H	0.911443	0.612457	0.089204
	H109	H	0.100066	0.383186	0.101029
	H110	H	0.085421	0.616932	0.900591
	H111	H	0.904208	0.381945	0.907907
	H112	H	0.089161	0.915447	0.617208
	H113	H	0.091805	0.089980	0.385057
	H114	H	0.907261	0.095947	0.624051
	H115	H	0.906826	0.910181	0.383266
	H116	H	0.615184	0.079966	0.915069
	H117	H	0.386574	0.092089	0.089332
	H118	H	0.621632	0.896809	0.101767
	H119	H	0.382744	0.914186	0.905630
	C120	C	0.378346	0.008408	0.625184
	C121	C	0.624109	0.992305	0.626718
	C122	C	0.622063	0.009669	0.381814
	C123	C	0.376887	0.991432	0.380521
	C124	C	0.623905	0.376059	0.011102
	C125	C	0.619639	0.618279	0.993559
	C126	C	0.378615	0.621877	0.012162
	C127	C	0.381595	0.378613	0.993303
	C128	C	0.009569	0.622824	0.381168
	C129	C	0.993241	0.622475	0.623877
	C130	C	0.009478	0.377683	0.625072
	C131	C	0.991597	0.379268	0.382514
	C132	C	0.879336	0.507414	0.123162
	C133	C	0.124998	0.491850	0.125651
	C134	C	0.122730	0.509293	0.880935
	C135	C	0.877867	0.491411	0.879325
	C136	C	0.122726	0.878291	0.511848
	C137	C	0.118831	0.120444	0.494678
	C138	C	0.877512	0.123995	0.512367
	C139	C	0.880736	0.880870	0.493820
	C140	C	0.510478	0.120989	0.881728
	C141	C	0.493853	0.120121	0.123210
	C142	C	0.510294	0.874711	0.126226
	C143	C	0.491378	0.877411	0.882443
	C144	C	0.383623	0.885385	0.680624
	C145	C	0.619000	0.114629	0.681907
	C146	C	0.620874	0.885900	0.329547
	C147	C	0.377563	0.113488	0.323004
	C148	C	0.678083	0.378738	0.885965
	C149	C	0.676482	0.614627	0.118396
	C150	C	0.323719	0.619487	0.886499
	C151	C	0.328034	0.381468	0.118878
	C152	C	0.886371	0.681174	0.379870
	C153	C	0.116948	0.675989	0.624201
	C154	C	0.885549	0.324431	0.623960
	C155	C	0.114703	0.320270	0.384120
	C156	C	0.884994	0.384256	0.678383
	C157	C	0.117755	0.615550	0.678996
	C158	C	0.885331	0.621386	0.324808
	C159	C	0.116341	0.380553	0.329561
	C160	C	0.377309	0.679406	0.888096
	C161	C	0.621158	0.672698	0.118426
	C162	C	0.622451	0.320847	0.886466
	C163	C	0.384207	0.322731	0.118383
	C164	C	0.680119	0.887565	0.384286
	C165	C	0.677373	0.115004	0.624600
	C166	C	0.324782	0.885968	0.623676
	C167	C	0.319213	0.113706	0.380646
	C168	C	0.884875	0.384926	0.179073
	C169	C	0.119721	0.614623	0.179719
	C170	C	0.120838	0.386279	0.827780
	C171	C	0.879531	0.614661	0.824461
	C172	C	0.176694	0.881485	0.386317
	C173	C	0.175840	0.117520	0.619360
	C174	C	0.821710	0.122193	0.387250
	C175	C	0.827915	0.883728	0.619906
	C176	C	0.387483	0.179519	0.880430
	C177	C	0.617568	0.173868	0.124415
	C178	C	0.385933	0.821987	0.124322
	C179	C	0.615095	0.819403	0.883851
	C180	C	0.385527	0.881804	0.179210
	C181	C	0.618307	0.113456	0.179350
	C182	C	0.385616	0.119307	0.827138
	C183	C	0.615888	0.879329	0.828926
	C184	C	0.877141	0.180735	0.388000
	C185	C	0.119569	0.175132	0.619340
	C186	C	0.120995	0.823310	0.386575
	C187	C	0.883509	0.824938	0.618921
	C188	C	0.179346	0.386584	0.883640
	C189	C	0.178364	0.614481	0.122558
	C190	C	0.827101	0.384322	0.121057
	C191	C	0.819736	0.613532	0.880194
	C192	C	0.398982	0.094239	0.602901
	C193	C	0.603649	0.906705	0.604140
	C194	C	0.598406	0.095139	0.403413
	C195	C	0.400400	0.906205	0.404394
	C196	C	0.601620	0.397955	0.098239
	C197	C	0.595654	0.596898	0.906477
	C198	C	0.402040	0.598986	0.099355
	C199	C	0.403200	0.401155	0.906191
	C200	C	0.095922	0.599388	0.404989
	C201	C	0.906451	0.602898	0.600510
	C202	C	0.096142	0.397278	0.603346
	C203	C	0.905532	0.402814	0.404815
	C204	C	0.899892	0.593221	0.100076
	C205	C	0.104563	0.405965	0.104095
	C206	C	0.100176	0.595155	0.902424
	C207	C	0.901641	0.405732	0.902211
	C208	C	0.100899	0.899876	0.598866
	C209	C	0.095618	0.099220	0.407505
	C210	C	0.901324	0.101096	0.599662
	C211	C	0.902312	0.903195	0.406531
	C212	C	0.597190	0.097522	0.905375
	C213	C	0.407454	0.099757	0.099282
	C214	C	0.596748	0.894288	0.104416
	C215	C	0.405143	0.900606	0.904835
	Zn216	Zn	0.500779	-0.000231	0.754847
	Zn217	Zn	0.501755	-0.001144	0.253213
	Zn218	Zn	0.749030	0.498500	0.001519
	Zn219	Zn	0.252921	0.500435	0.002417
	Zn220	Zn	0.001479	0.751476	0.502415
	Zn221	Zn	-0.000459	0.249855	0.504042
	Zn222	Zn	0.001350	0.500339	0.752422
	Zn223	Zn	0.001290	0.500319	0.253815
	Zn224	Zn	0.500510	0.747584	0.003717
	Zn225	Zn	0.502909	0.249483	0.001821
	Zn226	Zn	0.751940	0.002123	0.502994
	Zn227	Zn	0.248312	0.000568	0.502937
	N228	N	0.416332	0.962579	0.681428
	N229	N	0.586742	0.037341	0.683494
	N230	N	0.585258	0.962693	0.327863
	N231	N	0.412523	0.036447	0.322505
	N232	N	0.679130	0.412419	0.964291
	N233	N	0.675649	0.581385	0.039764
	N234	N	0.324300	0.584464	0.964740
	N235	N	0.326087	0.415496	0.040166
	N236	N	0.964615	0.682029	0.414275
	N237	N	0.038434	0.680209	0.590506
	N238	N	0.964019	0.319970	0.591724
	N239	N	0.036067	0.319205	0.416380
	N240	N	0.962962	0.416667	0.679253
	N241	N	0.039792	0.583082	0.678978
	N242	N	0.963055	0.585740	0.325439
	N243	N	0.038958	0.416486	0.328473
	N244	N	0.410722	0.681102	0.967336
	N245	N	0.586220	0.675105	0.039865
	N246	N	0.589242	0.319343	0.965304
	N247	N	0.416814	0.320823	0.039315
	N248	N	0.681103	0.965444	0.416134
	N249	N	0.680498	0.037844	0.590763
	N250	N	0.321019	0.963525	0.590108
	N251	N	0.318678	0.036719	0.415579
	N252	N	0.916891	0.462497	0.180356
	N253	N	0.087433	0.537278	0.181784
	N254	N	0.086243	0.463469	0.825977
	N255	N	0.914809	0.537720	0.823847
	N256	N	0.178143	0.914871	0.465006
	N257	N	0.175662	0.084327	0.540879
	N258	N	0.821919	0.087822	0.465798
	N259	N	0.825937	0.917809	0.541185
	N260	N	0.466199	0.180679	0.913364
	N261	N	0.539182	0.178189	0.090408
	N262	N	0.464450	0.817510	0.091947
	N263	N	0.536681	0.818034	0.916412
	N264	N	0.463520	0.914020	0.180728
	N265	N	0.540392	0.080657	0.178716
	N266	N	0.463274	0.083313	0.827794
	N267	N	0.538129	0.914798	0.827876
	N268	N	0.911155	0.181969	0.466953
	N269	N	0.084826	0.177003	0.540662
	N270	N	0.088427	0.820783	0.465547
	N271	N	0.915412	0.822867	0.539604
	N272	N	0.180838	0.464181	0.916055
	N273	N	0.181840	0.536947	0.089796
	N274	N	0.823654	0.461662	0.086986
	N275	N	0.818579	0.535822	0.913401
	O276	O	0.015224	0.121627	0.086170
	H277	H	0.005457	0.131335	0.090216
	H278	H	0.026885	0.114002	0.103964
	O279	O	0.545797	0.427304	0.390432
	H280	H	0.555046	0.432641	0.393714
	H281	H	0.542679	0.426583	0.381481
	O282	O	0.633543	0.554419	0.571317
	H283	H	0.633308	0.562739	0.577548
	H284	H	0.631279	0.562863	0.570334
	O285	O	0.145725	1.008717	1.058181
	H286	H	0.162679	1.009024	1.054451
	H287	H	0.152055	1.014791	1.057925
	O288	O	0.986697	-0.081617	-0.042594
	H289	H	0.982358	-0.082356	-0.048143
	H290	H	0.999768	-0.081997	-0.040746
	O291	O	1.103936	0.949925	0.963331
	H292	H	1.097149	0.950571	0.954514
	H293	H	1.108346	0.940761	0.957032
	O294	O	0.539076	1.501826	0.561946
	H295	H	0.543522	1.494945	0.557011
	H296	H	0.545321	1.489636	0.564887
	O297	O	1.134350	0.012615	1.036799
	H298	H	1.138469	0.015562	1.034306
	H299	H	1.125099	-0.007943	1.029963
	O300	O	0.552852	0.413156	0.429392
	H301	H	0.545125	0.411101	0.430524
	H302	H	0.548968	0.419801	0.438947
	O303	O	1.035103	-0.034616	-0.089884
	H304	H	1.025289	-0.036970	-0.096036
	H305	H	1.028730	-0.028012	-0.095379
	O306	O	-0.061307	0.988125	1.010292
	H307	H	-0.051121	0.984591	1.009821
	H308	H	-0.057027	0.992715	1.017553
	O309	O	0.579437	0.574931	0.385110
	H310	H	0.571139	0.574732	0.386216
	H311	H	0.586372	0.572487	0.373948
	O312	O	1.407645	0.461411	0.531001
	H313	H	1.419776	0.460728	0.521089
	H314	H	1.407108	0.459227	0.535174
	O315	O	0.372417	0.450025	0.459405
	H316	H	0.388709	0.467340	0.454287
	H317	H	0.365554	0.445324	0.450389
	O318	O	0.395019	0.584141	0.544143
	H319	H	0.394316	0.582053	0.557406
	H320	H	0.404125	0.578818	0.543936
	O321	O	0.997586	1.056210	0.987329
	H322	H	0.998095	1.073566	1.002710
	H323	H	1.002058	1.059713	0.986382
	O324	O	0.555966	0.583422	0.564866
	H325	H	0.549672	0.573625	0.566052
	H326	H	0.560875	0.589046	0.560747
	O327	O	0.332068	0.680514	0.369299
	H328	H	0.341015	0.671347	0.397762
	H329	H	0.318317	0.692983	0.372579
	O330	O	0.992539	0.077553	1.010159
	H331	H	0.986349	0.065666	1.007731
	H332	H	0.993452	0.077590	1.009402
	O333	O	1.038045	1.053571	0.026686
	H334	H	1.049749	1.048815	0.023449
	H335	H	1.047793	1.073850	0.028259
	O336	O	0.468239	0.551356	0.532806
	H337	H	0.466309	0.544477	0.538762
	H338	H	0.458093	0.555410	0.523479
	O339	O	0.430080	0.468656	0.514589
	H340	H	0.433551	0.468936	0.504375
	H341	H	0.425000	0.473494	0.500508
	O342	O	0.053633	1.022386	-0.006605
	H343	H	0.051777	1.022193	-0.009231
	H344	H	0.048681	1.026848	-0.007367
	O345	O	0.001247	-0.030364	0.029296
	H346	H	0.013248	-0.029940	0.018417
	H347	H	0.008761	-0.028490	0.030572
	O348	O	-0.587035	0.464411	0.516688
	H349	H	-0.587502	0.453784	0.523798
	H350	H	-0.589653	0.468233	0.520987
	O351	O	0.485355	0.501840	0.563593
	H352	H	0.497332	0.507586	0.552164
	H353	H	0.484099	0.492755	0.563495
	O354	O	0.613344	0.438719	0.541224
	H355	H	0.607906	0.441658	0.545241
	H356	H	0.624509	0.445725	0.540732
	O357	O	0.570306	0.507296	0.434011
	H358	H	0.556772	0.499591	0.432078
	H359	H	0.571324	0.515871	0.435589
	O360	O	-0.043689	-0.000245	-0.067500
	H361	H	-0.052730	-0.001674	-0.041548
	H362	H	-0.055327	0.016658	-0.078046
	O363	O	0.617818	0.526173	0.480158
	H364	H	0.624097	0.533412	0.481877
	H365	H	0.621968	0.525779	0.478415
	O366	O	-0.546947	-0.518946	1.546973
	H367	H	-0.549749	-0.517027	1.548275
	H368	H	-0.546335	-0.504908	1.532283
	O369	O	0.468916	0.536958	0.476465
	H370	H	0.476734	0.541266	0.491350
	H371	H	0.460885	0.533213	0.461523
