data_Molecule from HDF5

_cell_length_a		16.377880
_cell_length_b		16.284519
_cell_length_c		16.440733
_cell_angle_alpha	89.971103
_cell_angle_beta	90.134351
_cell_angle_gamma	89.974331
_symmetry_space_group_name_H-M	'P 1'
_symmetry_Int_Tables_number		1

loop_
	_symmetry_equiv_pos_as_xyz
	x,y,z

loop_
	_atom_site_label
	_atom_site_type_symbol
	_atom_site_fract_x
	_atom_site_fract_y
	_atom_site_fract_z
	H0	H	0.391694	0.841704	0.711999
	H1	H	0.602655	0.160434	0.710778
	H2	H	0.600447	0.840045	0.270729
	H3	H	0.393350	0.161514	0.271269
	H4	H	0.718237	0.394024	0.831848
	H5	H	0.717313	0.603830	0.149326
	H6	H	0.276593	0.605239	0.830522
	H7	H	0.279354	0.398623	0.149093
	H8	H	0.837902	0.720029	0.384416
	H9	H	0.156965	0.720365	0.594689
	H10	H	0.835932	0.282372	0.589889
	H11	H	0.157909	0.281679	0.389419
	H12	H	0.837871	0.395202	0.709777
	H13	H	0.156624	0.605404	0.710849
	H14	H	0.839320	0.604242	0.268228
	H15	H	0.157877	0.395702	0.271930
	H16	H	0.392779	0.721376	0.830718
	H17	H	0.599740	0.718041	0.149935
	H18	H	0.599578	0.281337	0.830741
	H19	H	0.396435	0.283023	0.150138
	H20	H	0.716506	0.840713	0.385439
	H21	H	0.716870	0.161228	0.592935
	H22	H	0.278404	0.840236	0.595184
	H23	H	0.279669	0.162074	0.389092
	H24	H	0.894066	0.338827	0.209557
	H25	H	0.102435	0.659906	0.211289
	H26	H	0.100887	0.339493	0.771746
	H27	H	0.891787	0.660615	0.768676
	H28	H	0.217653	0.896839	0.331361
	H29	H	0.217887	0.105006	0.649000
	H30	H	0.776256	0.105623	0.330683
	H31	H	0.775060	0.893857	0.647918
	H32	H	0.337025	0.217988	0.888023
	H33	H	0.657824	0.219385	0.094205
	H34	H	0.336231	0.783073	0.091703
	H35	H	0.658225	0.780891	0.886921
	H36	H	0.336514	0.898457	0.207996
	H37	H	0.656240	0.106656	0.212276
	H38	H	0.339797	0.106828	0.768102
	H39	H	0.656609	0.893749	0.767830
	H40	H	0.893565	0.219407	0.330250
	H41	H	0.099654	0.218330	0.649707
	H42	H	0.098783	0.783014	0.329783
	H43	H	0.893521	0.780033	0.648799
	H44	H	0.214726	0.338868	0.889075
	H45	H	0.216068	0.661397	0.093674
	H46	H	0.777136	0.339491	0.094599
	H47	H	0.776257	0.660683	0.885480
	H48	H	0.408255	0.118668	0.587960
	H49	H	0.580980	0.889198	0.578233
	H50	H	0.585831	0.115903	0.399380
	H51	H	0.408888	0.883804	0.394211
	H52	H	0.595434	0.408845	0.106939
	H53	H	0.587068	0.590740	0.875553
	H54	H	0.405355	0.586925	0.103125
	H55	H	0.408002	0.412722	0.877398
	H56	H	0.111720	0.590568	0.402686
	H57	H	0.883624	0.585841	0.582782
	H58	H	0.110613	0.413388	0.584292
	H59	H	0.886475	0.417290	0.402615
	H60	H	0.113376	0.405016	0.582436
	H61	H	0.882138	0.592470	0.579746
	H62	H	0.110443	0.587998	0.400907
	H63	H	0.879966	0.410102	0.390140
	H64	H	0.410630	0.591957	0.102747
	H65	H	0.587437	0.587848	0.876402
	H66	H	0.586987	0.417529	0.100971
	H67	H	0.409104	0.406940	0.874269
	H68	H	0.585078	0.114989	0.401964
	H69	H	0.587514	0.886776	0.575614
	H70	H	0.416016	0.111803	0.576267
	H71	H	0.410650	0.887255	0.401673
	H72	H	0.905992	0.616886	0.084754
	H73	H	0.082229	0.387842	0.078058
	H74	H	0.083430	0.612172	0.904917
	H75	H	0.912504	0.386486	0.897471
	H76	H	0.087961	0.913023	0.602923
	H77	H	0.089386	0.087062	0.376150
	H78	H	0.906150	0.092913	0.604930
	H79	H	0.905070	0.904690	0.373526
	H80	H	0.612537	0.091443	0.901200
	H81	H	0.384480	0.089545	0.079441
	H82	H	0.612573	0.909894	0.081056
	H83	H	0.385472	0.919594	0.895564
	H84	H	0.611205	0.910688	0.081581
	H85	H	0.382511	0.090382	0.083585
	H86	H	0.610676	0.088041	0.902447
	H87	H	0.381411	0.906030	0.897286
	H88	H	0.904311	0.086082	0.602839
	H89	H	0.085345	0.089938	0.376208
	H90	H	0.085912	0.908873	0.604157
	H91	H	0.902211	0.916207	0.376724
	H92	H	0.092837	0.618065	0.899639
	H93	H	0.094920	0.384866	0.076066
	H94	H	0.915067	0.612254	0.080235
	H95	H	0.909348	0.388397	0.905331
	H96	H	0.400993	0.115455	0.574460
	H97	H	0.586303	0.884773	0.582522
	H98	H	0.587904	0.116098	0.401098
	H99	H	0.402727	0.884363	0.400707
	H100	H	0.582655	0.405676	0.104346
	H101	H	0.584993	0.589422	0.877101
	H102	H	0.404276	0.593432	0.105399
	H103	H	0.403370	0.409919	0.874303
	H104	H	0.112383	0.590220	0.399199
	H105	H	0.885030	0.587763	0.575893
	H106	H	0.109825	0.410083	0.576456
	H107	H	0.881917	0.402159	0.403066
	H108	H	0.904918	0.612269	0.073879
	H109	H	0.089014	0.382355	0.087635
	H110	H	0.082507	0.616117	0.893243
	H111	H	0.904074	0.384186	0.899499
	H112	H	0.090992	0.909551	0.604719
	H113	H	0.089277	0.091966	0.375622
	H114	H	0.910561	0.088460	0.602062
	H115	H	0.913757	0.911998	0.378390
	H116	H	0.612035	0.088401	0.899228
	H117	H	0.381890	0.093456	0.080271
	H118	H	0.611555	0.909859	0.082482
	H119	H	0.387546	0.912915	0.907677
	C120	C	0.376539	0.009562	0.611532
	C121	C	0.618055	0.992161	0.610869
	C122	C	0.618293	0.009797	0.368659
	C123	C	0.376223	0.991869	0.368705
	C124	C	0.619678	0.378398	-0.000989
	C125	C	0.618406	0.621184	0.981779
	C126	C	0.375372	0.622450	-0.001536
	C127	C	0.376012	0.379185	0.981041
	C128	C	0.006744	0.621854	0.368224
	C129	C	0.989079	0.620969	0.611162
	C130	C	0.005529	0.378137	0.611676
	C131	C	0.988972	0.378573	0.368580
	C132	C	0.876954	0.508043	0.111221
	C133	C	0.119900	0.491161	0.111916
	C134	C	0.118120	0.509214	0.868548
	C135	C	0.875661	0.491638	0.868385
	C136	C	0.119498	0.878613	0.499018
	C137	C	0.118792	0.121217	0.481564
	C138	C	0.875484	0.121177	0.498094
	C139	C	0.875445	0.878787	0.481436
	C140	C	0.506430	0.121413	0.869396
	C141	C	0.488723	0.122581	0.112378
	C142	C	0.505539	0.879464	0.111708
	C143	C	0.489751	0.879440	0.868322
	C144	C	0.374190	0.889352	0.671753
	C145	C	0.620656	0.112570	0.670644
	C146	C	0.619166	0.888602	0.309780
	C147	C	0.374538	0.113305	0.310556
	C148	C	0.678703	0.376049	0.879468
	C149	C	0.677515	0.622146	0.101553
	C150	C	0.316341	0.624273	0.878333
	C151	C	0.318542	0.379003	0.101507
	C152	C	0.886043	0.680579	0.366322
	C153	C	0.108879	0.680913	0.613384
	C154	C	0.884523	0.320403	0.610813
	C155	C	0.109680	0.320185	0.369231
	C156	C	0.885570	0.376517	0.670368
	C157	C	0.108821	0.623276	0.671117
	C158	C	0.886694	0.623051	0.308421
	C159	C	0.109632	0.377164	0.311048
	C160	C	0.374144	0.681870	0.878459
	C161	C	0.619031	0.679036	0.102064
	C162	C	0.619916	0.319722	0.878959
	C163	C	0.376744	0.321631	0.101855
	C164	C	0.676881	0.888606	0.367019
	C165	C	0.677485	0.112950	0.612160
	C166	C	0.317549	0.888623	0.613430
	C167	C	0.318201	0.113442	0.369363
	C168	C	0.875690	0.386896	0.169908
	C169	C	0.120975	0.611969	0.171476
	C170	C	0.119243	0.387794	0.811092
	C171	C	0.873235	0.612384	0.808427
	C172	C	0.178331	0.877413	0.379059
	C173	C	0.177723	0.123052	0.601378
	C174	C	0.816056	0.123604	0.378439
	C175	C	0.815322	0.876229	0.600479
	C176	C	0.385679	0.179791	0.868492
	C177	C	0.609424	0.180956	0.113335
	C178	C	0.384649	0.821964	0.110927
	C179	C	0.609870	0.819859	0.867492
	C180	C	0.384795	0.879292	0.169160
	C181	C	0.608630	0.124926	0.172311
	C182	C	0.386872	0.124197	0.808968
	C183	C	0.609137	0.876183	0.808214
	C184	C	0.874623	0.180242	0.378061
	C185	C	0.119106	0.179643	0.601802
	C186	C	0.118938	0.821091	0.378185
	C187	C	0.874070	0.819285	0.601027
	C188	C	0.175871	0.387608	0.869484
	C189	C	0.177538	0.612762	0.112937
	C190	C	0.817666	0.387383	0.112530
	C191	C	0.816202	0.612733	0.866676
	C192	C	0.401405	0.093556	0.586640
	C193	C	0.592438	0.908638	0.585844
	C194	C	0.593340	0.093685	0.393462
	C195	C	0.400452	0.907226	0.392003
	C196	C	0.595410	0.403505	0.082366
	C197	C	0.593587	0.596544	0.898072
	C198	C	0.399612	0.597867	0.081906
	C199	C	0.399741	0.403100	0.897209
	C200	C	0.090075	0.596804	0.393507
	C201	C	0.905343	0.595952	0.586412
	C202	C	0.089646	0.402534	0.588007
	C203	C	0.904706	0.402958	0.391943
	C204	C	0.901749	0.592031	0.086788
	C205	C	0.095885	0.406915	0.087444
	C206	C	0.093454	0.593547	0.892501
	C207	C	0.901104	0.408255	0.893483
	C208	C	0.095183	0.903232	0.582290
	C209	C	0.094832	0.096740	0.397817
	C210	C	0.900080	0.096300	0.581675
	C211	C	0.900100	0.903659	0.397989
	C212	C	0.590054	0.096358	0.893812
	C213	C	0.404776	0.098113	0.088118
	C214	C	0.589952	0.903268	0.088389
	C215	C	0.406568	0.905206	0.893034
	Zn216	Zn	0.497976	0.001106	0.739648
	Zn217	Zn	0.496923	0.001474	0.240326
	Zn218	Zn	0.747780	0.500268	-0.009929
	Zn219	Zn	0.246972	0.501183	-0.010502
	Zn220	Zn	-0.002672	0.749921	0.489862
	Zn221	Zn	-0.003032	0.249416	0.489630
	Zn222	Zn	-0.002784	0.500012	0.740029
	Zn223	Zn	-0.001830	0.499271	0.239885
	Zn224	Zn	0.497479	0.750683	-0.009639
	Zn225	Zn	0.497709	0.250158	-0.009720
	Zn226	Zn	0.746480	0.000753	0.489359
	Zn227	Zn	0.248365	0.000418	0.490646
	N228	N	0.410058	0.965493	0.670580
	N229	N	0.584552	0.036430	0.670020
	N230	N	0.583414	0.965068	0.310623
	N231	N	0.409802	0.036774	0.310022
	N232	N	0.679079	0.411330	0.955382
	N233	N	0.677036	0.586978	0.025541
	N234	N	0.316788	0.588266	0.953844
	N235	N	0.317782	0.414027	0.025400
	N236	N	0.961667	0.679925	0.402791
	N237	N	0.033407	0.679511	0.576747
	N238	N	0.960347	0.320997	0.575247
	N239	N	0.033501	0.320692	0.403993
	N240	N	0.961959	0.411540	0.671033
	N241	N	0.033129	0.586970	0.669943
	N242	N	0.962620	0.587294	0.309384
	N243	N	0.033320	0.412444	0.310498
	N244	N	0.410252	0.680835	0.954058
	N245	N	0.583152	0.678668	0.026508
	N246	N	0.583843	0.321087	0.954342
	N247	N	0.411582	0.321452	0.025953
	N248	N	0.676297	0.964734	0.402912
	N249	N	0.676091	0.037024	0.575842
	N250	N	0.318821	0.964444	0.576681
	N251	N	0.319150	0.036907	0.404796
	N252	N	0.911858	0.463069	0.169355
	N253	N	0.085826	0.535381	0.171083
	N254	N	0.084184	0.464464	0.810200
	N255	N	0.909597	0.536294	0.809432
	N256	N	0.179033	0.912180	0.455115
	N257	N	0.177755	0.087561	0.525547
	N258	N	0.816403	0.087581	0.454073
	N259	N	0.815978	0.912323	0.524813
	N260	N	0.460900	0.178228	0.905429
	N261	N	0.533859	0.179909	0.076996
	N262	N	0.460844	0.821839	0.076060
	N263	N	0.534451	0.821541	0.903927
	N264	N	0.461194	0.914228	0.169861
	N265	N	0.532589	0.089270	0.171720
	N266	N	0.462975	0.088528	0.809393
	N267	N	0.533363	0.912347	0.808469
	N268	N	0.910908	0.178766	0.453464
	N269	N	0.083029	0.178529	0.526255
	N270	N	0.083267	0.821586	0.453968
	N271	N	0.910561	0.820639	0.526010
	N272	N	0.175516	0.464389	0.904291
	N273	N	0.177101	0.536728	0.076718
	N274	N	0.818531	0.463484	0.076599
	N275	N	0.817420	0.536841	0.903314
	O276	O	0.423728	0.588920	0.589696
	H277	H	0.445286	0.585241	0.580193
	H278	H	0.419367	0.604746	0.597619
	O279	O	0.344803	0.687740	0.505272
	H280	H	0.354257	0.693852	0.506371
	H281	H	0.345841	0.701552	0.507571
	O282	O	0.546359	0.366111	0.673568
	H283	H	0.546005	0.362105	0.656024
	H284	H	0.526452	0.377864	0.681023
	O285	O	1.144950	0.927589	0.097165
	H286	H	1.140164	0.945418	0.083150
	H287	H	1.146086	0.931272	0.085985
	O288	O	0.074829	0.181892	0.176711
	H289	H	0.076769	0.196809	0.189209
	H290	H	0.079112	0.166720	0.177459
	O291	O	1.106978	0.056639	0.842533
	H292	H	1.120147	0.049087	0.850078
	H293	H	1.112249	0.050117	0.852907
	O294	O	1.043994	0.907549	0.805464
	H295	H	1.018332	0.915252	0.805359
	H296	H	1.040213	0.893146	0.812470
	O297	O	0.637853	0.417500	0.579487
	H298	H	0.635567	0.419447	0.576494
	H299	H	0.627591	0.423018	0.587688
	O300	O	0.395643	0.430096	0.455953
	H301	H	0.386207	0.436744	0.442821
	H302	H	0.387712	0.431162	0.470277
	O303	O	0.296344	0.488561	0.678138
	H304	H	0.292128	0.497433	0.689488
	H305	H	0.288477	0.504582	0.672927
	O306	O	0.162027	-0.149051	1.008433
	H307	H	0.139209	-0.149904	0.995052
	H308	H	0.173380	-0.125473	1.004410
	O309	O	1.004487	-0.051005	0.127937
	H310	H	0.973844	-0.060762	0.122270
	H311	H	1.018025	-0.068643	0.139605
	O312	O	0.310103	0.625040	0.395160
	H313	H	0.312288	0.635235	0.384493
	H314	H	0.321458	0.642948	0.389438
	O315	O	0.708289	0.638299	0.540881
	H316	H	0.693444	0.635503	0.524023
	H317	H	0.719723	0.653470	0.529395
	O318	O	-0.079350	0.133891	-0.212557
	H319	H	-0.067983	0.147171	-0.209923
	H320	H	-0.088957	0.142079	-0.219911
	O321	O	-0.063096	0.901278	0.933704
	H322	H	-0.061847	0.906451	0.937126
	H323	H	-0.059006	0.904149	0.938988
	O324	O	0.942115	0.136848	1.121035
	H325	H	0.962661	0.132366	1.122196
	H326	H	0.954607	0.141983	1.123249
	O327	O	0.550406	0.526898	0.658770
	H328	H	0.558998	0.533596	0.666426
	H329	H	0.553687	0.509980	0.670501
	O330	O	0.089397	0.943645	1.057127
	H331	H	0.074568	0.953772	1.052968
	H332	H	0.103680	0.944340	1.062997
	O333	O	0.170301	0.961660	-0.064019
	H334	H	0.183385	0.936961	-0.081932
	H335	H	0.173369	0.939743	-0.049513
	O336	O	1.026785	1.163589	-0.002553
	H337	H	1.040824	1.167130	-0.002878
	H338	H	1.023788	1.155163	-0.008420
	O339	O	-0.167493	0.916133	1.117497
	H340	H	-0.163607	0.921543	1.099157
	H341	H	-0.169766	0.903428	1.123004
	O342	O	0.293432	0.427749	0.494393
	H343	H	0.281016	0.450068	0.486390
	H344	H	0.278774	0.437726	0.502374
	O345	O	0.152220	0.179757	1.142593
	H346	H	0.178217	0.209420	1.160964
	H347	H	0.137064	0.177021	1.124312
	O348	O	0.585035	0.329931	0.481775
	H349	H	0.579018	0.328811	0.476213
	H350	H	0.577476	0.332055	0.473746
	O351	O	0.616664	0.592449	0.678959
	H352	H	0.621409	0.588532	0.656151
	H353	H	0.628667	0.585355	0.678102
	O354	O	0.844607	0.924318	1.038980
	H355	H	0.833427	0.931661	1.021703
	H356	H	0.839693	0.931429	1.033620
	O357	O	0.182917	-0.043534	-0.167981
	H358	H	0.152975	-0.054763	-0.170808
	H359	H	0.180515	-0.059727	-0.152812
	O360	O	0.687912	0.495998	0.325166
	H361	H	0.673327	0.483044	0.324813
	H362	H	0.711273	0.495718	0.307318
	O363	O	0.840923	-0.111468	-0.028986
	H364	H	0.840046	-0.098225	-0.027221
	H365	H	0.829025	-0.120295	-0.011878
	O366	O	0.158192	0.168090	0.997871
	H367	H	0.164358	0.163401	1.002354
	H368	H	0.149377	0.167453	0.997336
	O369	O	1.682437	0.439760	0.333591
	H370	H	1.668184	0.435461	0.322668
	H371	H	1.680336	0.442348	0.350989
	O372	O	0.322875	0.408818	0.380165
	H373	H	0.328363	0.438978	0.371924
	H374	H	0.329317	0.406267	0.402084
	O375	O	-0.535850	-0.472067	1.434077
	H376	H	-0.519902	-0.465054	1.432299
	H377	H	-0.540009	-0.471710	1.431140
	O378	O	0.495681	0.693572	0.422518
	H379	H	0.497286	0.698525	0.425963
	H380	H	0.496513	0.674215	0.438126
	O381	O	-0.207018	1.105216	0.053507
	H382	H	-0.209073	1.109962	0.028862
	H383	H	-0.224796	1.096900	0.059480
	O384	O	0.547845	0.365726	0.523799
	H385	H	0.532791	0.373509	0.516607
	H386	H	0.542584	0.356933	0.509629
	O387	O	0.875314	0.805445	0.162832
	H388	H	0.864794	0.818232	0.156367
	H389	H	0.900638	0.798740	0.179623
	O390	O	0.845935	0.845095	0.014039
	H391	H	0.852971	0.853066	0.017026
	H392	H	0.830803	0.859873	0.017567
	O393	O	1.048254	-0.034609	0.998768
	H394	H	1.026741	-0.036546	0.999828
	H395	H	1.058685	-0.047292	1.001322
	O396	O	0.524912	0.320993	0.306035
	H397	H	0.514795	0.330403	0.308176
	H398	H	0.529354	0.328412	0.314092
	O399	O	0.820299	0.214431	0.770988
	H400	H	0.832463	0.211440	0.792691
	H401	H	0.818385	0.242054	0.745206
	O402	O	0.827774	1.132504	-0.008693
	H403	H	0.844630	1.141102	0.000140
	H404	H	0.829914	1.142910	-0.011075
	O405	O	0.553077	0.437947	0.509914
	H406	H	0.540195	0.433801	0.491925
	H407	H	0.560916	0.424885	0.517393
	O408	O	0.583741	0.337743	0.468490
	H409	H	0.557179	0.331889	0.477528
	H410	H	0.597193	0.338751	0.481212
	O411	O	1.511987	0.672193	1.575472
	H412	H	1.515930	0.658263	1.571377
	H413	H	1.519275	0.676339	1.575450
	O414	O	0.508288	0.607052	0.301367
	H415	H	0.489947	0.609186	0.281746
	H416	H	0.513514	0.606475	0.301307
	O417	O	0.181892	1.010719	1.079543
	H418	H	0.178738	1.013945	1.080870
	H419	H	0.199021	1.018054	1.084624
	O420	O	-0.089171	0.954425	0.878761
	H421	H	-0.080264	0.980050	0.880088
	H422	H	-0.104810	0.959245	0.871506
	O423	O	0.080641	0.811622	-0.119701
	H424	H	0.074149	0.814824	-0.128011
	H425	H	0.078334	0.812395	-0.131430
	O426	O	0.587522	0.640289	0.700140
	H427	H	0.590471	0.650232	0.710610
	H428	H	0.618410	0.642332	0.705047
	O429	O	0.400353	0.642318	0.295315
	H430	H	0.395844	0.634786	0.299380
	H431	H	0.409050	0.648527	0.314322
	O432	O	0.588935	0.503737	0.298998
	H433	H	0.612336	0.513510	0.294010
	H434	H	0.573929	0.503644	0.298419
	O435	O	-0.137173	0.087214	-0.150829
	H436	H	-0.129899	0.101123	-0.148210
	H437	H	-0.139665	0.110313	-0.162232
	O438	O	-0.595163	1.575700	1.526709
	H439	H	-0.590047	1.578988	1.531110
	H440	H	-0.596680	1.587760	1.533050
	O441	O	0.319357	0.324549	0.582954
	H442	H	0.321127	0.332501	0.581125
	H443	H	0.309713	0.325882	0.603228
