data_Molecule from HDF5

_cell_length_a		16.218959
_cell_length_b		16.159183
_cell_length_c		16.386805
_cell_angle_alpha	90.437290
_cell_angle_beta	89.999974
_cell_angle_gamma	89.397724
_symmetry_space_group_name_H-M	'P 1'
_symmetry_Int_Tables_number		1

loop_
	_symmetry_equiv_pos_as_xyz
	x,y,z

loop_
	_atom_site_label
	_atom_site_type_symbol
	_atom_site_fract_x
	_atom_site_fract_y
	_atom_site_fract_z
	H0	H	0.396172	0.845543	0.715899
	H1	H	0.604238	0.167839	0.719340
	H2	H	0.604263	0.843415	0.279307
	H3	H	0.395966	0.169016	0.281344
	H4	H	0.720561	0.401899	0.838952
	H5	H	0.714726	0.609196	0.161158
	H6	H	0.278200	0.610326	0.837766
	H7	H	0.283967	0.408044	0.160595
	H8	H	0.835801	0.723927	0.402338
	H9	H	0.161916	0.724343	0.602779
	H10	H	0.834799	0.297203	0.595840
	H11	H	0.161619	0.288852	0.397838
	H12	H	0.838858	0.403389	0.717728
	H13	H	0.161937	0.609591	0.717657
	H14	H	0.835912	0.611047	0.283230
	H15	H	0.161600	0.403066	0.282171
	H16	H	0.396348	0.723505	0.836506
	H17	H	0.597861	0.725049	0.159456
	H18	H	0.604408	0.287034	0.837890
	H19	H	0.401973	0.293431	0.160346
	H20	H	0.716701	0.843051	0.398495
	H21	H	0.710181	0.172478	0.597496
	H22	H	0.285036	0.843912	0.597808
	H23	H	0.281217	0.169672	0.396565
	H24	H	0.900172	0.344218	0.214467
	H25	H	0.100843	0.670253	0.218588
	H26	H	0.104491	0.343171	0.781030
	H27	H	0.893820	0.669654	0.781788
	H28	H	0.219162	0.901668	0.337143
	H29	H	0.219184	0.112258	0.658540
	H30	H	0.781843	0.108215	0.336852
	H31	H	0.782135	0.908859	0.659868
	H32	H	0.336804	0.224776	0.899079
	H33	H	0.663693	0.220052	0.098781
	H34	H	0.335996	0.797292	0.094857
	H35	H	0.661682	0.787521	0.896497
	H36	H	0.338676	0.904517	0.214614
	H37	H	0.661316	0.110015	0.217404
	H38	H	0.338109	0.113859	0.778234
	H39	H	0.661611	0.900862	0.778722
	H40	H	0.897855	0.222331	0.336737
	H41	H	0.099496	0.225432	0.659963
	H42	H	0.102590	0.785454	0.338593
	H43	H	0.899718	0.794384	0.662245
	H44	H	0.217068	0.343461	0.898677
	H45	H	0.211207	0.672903	0.098684
	H46	H	0.786537	0.343314	0.099548
	H47	H	0.782869	0.671006	0.901799
	H48	H	0.408604	0.121970	0.582437
	H49	H	0.600011	0.887930	0.586505
	H50	H	0.583215	0.119431	0.411053
	H51	H	0.411315	0.888412	0.402393
	H52	H	0.593813	0.411544	0.114694
	H53	H	0.582500	0.592876	0.886929
	H54	H	0.405267	0.592689	0.111169
	H55	H	0.414583	0.422261	0.887145
	H56	H	0.113684	0.590460	0.408617
	H57	H	0.882324	0.593491	0.598303
	H58	H	0.117602	0.415399	0.593923
	H59	H	0.885143	0.418130	0.412891
	H60	H	0.116193	0.413190	0.586272
	H61	H	0.880426	0.608636	0.592812
	H62	H	0.116986	0.596490	0.404551
	H63	H	0.881869	0.423015	0.398616
	H64	H	0.414101	0.610149	0.113468
	H65	H	0.591959	0.604806	0.880770
	H66	H	0.595709	0.416331	0.115248
	H67	H	0.412304	0.408258	0.882325
	H68	H	0.597076	0.126270	0.408684
	H69	H	0.587622	0.889122	0.595649
	H70	H	0.406177	0.126099	0.592536
	H71	H	0.413451	0.890899	0.405105
	H72	H	0.913932	0.620948	0.088464
	H73	H	0.092865	0.391114	0.086935
	H74	H	0.085460	0.624516	0.902445
	H75	H	0.915913	0.391916	0.906881
	H76	H	0.090390	0.925903	0.609785
	H77	H	0.099023	0.091122	0.382437
	H78	H	0.911126	0.096745	0.609761
	H79	H	0.901472	0.916641	0.381701
	H80	H	0.612113	0.086925	0.906752
	H81	H	0.379388	0.103537	0.100786
	H82	H	0.614774	0.919640	0.086867
	H83	H	0.387632	0.922589	0.911634
	H84	H	0.618462	0.915095	0.092965
	H85	H	0.384067	0.107326	0.081551
	H86	H	0.619012	0.096567	0.901434
	H87	H	0.381270	0.922346	0.895617
	H88	H	0.907963	0.111743	0.616688
	H89	H	0.081777	0.092608	0.387888
	H90	H	0.086372	0.910705	0.613318
	H91	H	0.913515	0.922065	0.387326
	H92	H	0.083720	0.620621	0.912223
	H93	H	0.095905	0.388723	0.093041
	H94	H	0.899881	0.626254	0.089278
	H95	H	0.909579	0.391152	0.911140
	H96	H	0.416263	0.121991	0.590794
	H97	H	0.586265	0.893709	0.581081
	H98	H	0.587023	0.125273	0.397402
	H99	H	0.409366	0.888933	0.405715
	H100	H	0.590055	0.415475	0.113338
	H101	H	0.598664	0.589578	0.883967
	H102	H	0.394935	0.607759	0.117933
	H103	H	0.401387	0.418268	0.882954
	H104	H	0.114845	0.597608	0.411608
	H105	H	0.886807	0.597905	0.583202
	H106	H	0.114135	0.420271	0.588640
	H107	H	0.877922	0.407942	0.403019
	H108	H	0.908866	0.626721	0.100802
	H109	H	0.088937	0.391150	0.092561
	H110	H	0.092557	0.625157	0.909045
	H111	H	0.909401	0.388866	0.903346
	H112	H	0.101211	0.915974	0.616363
	H113	H	0.090745	0.106983	0.379960
	H114	H	0.896326	0.099025	0.616948
	H115	H	0.912736	0.908210	0.383355
	H116	H	0.615031	0.097747	0.912436
	H117	H	0.386800	0.088544	0.089162
	H118	H	0.617635	0.911636	0.085794
	H119	H	0.379675	0.908430	0.905729
	C120	C	0.379634	0.015858	0.618425
	C121	C	0.620877	0.998312	0.618685
	C122	C	0.621415	0.015790	0.375295
	C123	C	0.379281	0.997525	0.375547
	C124	C	0.624077	0.383048	0.008120
	C125	C	0.620291	0.627488	0.990517
	C126	C	0.375350	0.631474	0.006970
	C127	C	0.379639	0.387020	0.990574
	C128	C	0.007640	0.627651	0.378660
	C129	C	0.990812	0.629882	0.622096
	C130	C	0.008240	0.386705	0.619314
	C131	C	0.989564	0.384944	0.375774
	C132	C	0.878670	0.516420	0.121284
	C133	C	0.120814	0.498906	0.120865
	C134	C	0.119957	0.515458	0.877406
	C135	C	0.878808	0.498347	0.877842
	C136	C	0.122878	0.885058	0.507067
	C137	C	0.120958	0.128900	0.489582
	C138	C	0.876236	0.130622	0.507151
	C139	C	0.878919	0.886966	0.490930
	C140	C	0.508317	0.127200	0.876601
	C141	C	0.491088	0.128518	0.120122
	C142	C	0.509177	0.886750	0.117966
	C143	C	0.490272	0.884890	0.874311
	C144	C	0.378511	0.893812	0.676449
	C145	C	0.621307	0.120106	0.678252
	C146	C	0.622762	0.892647	0.318144
	C147	C	0.377467	0.120235	0.319380
	C148	C	0.681556	0.382794	0.887116
	C149	C	0.676201	0.628059	0.112437
	C150	C	0.317932	0.629435	0.885792
	C151	C	0.322925	0.388724	0.112045
	C152	C	0.884539	0.685321	0.381441
	C153	C	0.113305	0.685988	0.621703
	C154	C	0.884786	0.332573	0.617133
	C155	C	0.112439	0.326975	0.377556
	C156	C	0.886595	0.385897	0.677653
	C157	C	0.113017	0.628879	0.679140
	C158	C	0.884951	0.629186	0.322083
	C159	C	0.112567	0.384046	0.320011
	C160	C	0.376717	0.686159	0.885209
	C161	C	0.618195	0.685921	0.111557
	C162	C	0.623962	0.325241	0.886573
	C163	C	0.381416	0.331273	0.112034
	C164	C	0.679009	0.892461	0.377384
	C165	C	0.674659	0.122217	0.617665
	C166	C	0.323222	0.892956	0.617539
	C167	C	0.320701	0.120622	0.377193
	C168	C	0.880409	0.393186	0.176621
	C169	C	0.119900	0.621844	0.178894
	C170	C	0.122720	0.392534	0.819636
	C171	C	0.876365	0.620937	0.820977
	C172	C	0.180144	0.882989	0.385490
	C173	C	0.179387	0.130413	0.610386
	C174	C	0.820545	0.128114	0.385264
	C175	C	0.821374	0.889067	0.612228
	C176	C	0.385799	0.186295	0.878421
	C177	C	0.614318	0.183148	0.118650
	C178	C	0.385330	0.833583	0.115507
	C179	C	0.612775	0.826052	0.875860
	C180	C	0.386744	0.886927	0.175276
	C181	C	0.613104	0.128402	0.178015
	C182	C	0.386438	0.131015	0.818317
	C183	C	0.612921	0.882899	0.817646
	C184	C	0.878020	0.185204	0.385234
	C185	C	0.119522	0.186653	0.611529
	C186	C	0.122500	0.824831	0.386528
	C187	C	0.880199	0.832244	0.613250
	C188	C	0.178514	0.392468	0.878361
	C189	C	0.174495	0.623096	0.118909
	C190	C	0.824022	0.392782	0.119297
	C191	C	0.820735	0.621524	0.880664
	C192	C	0.403558	0.101160	0.595347
	C193	C	0.597830	0.912493	0.594736
	C194	C	0.596335	0.101628	0.398787
	C195	C	0.404101	0.911843	0.397868
	C196	C	0.600153	0.407291	0.092691
	C197	C	0.597594	0.602820	0.905804
	C198	C	0.398009	0.609885	0.092122
	C199	C	0.402629	0.409794	0.906018
	C200	C	0.092952	0.602404	0.401627
	C201	C	0.905411	0.606771	0.598461
	C202	C	0.093660	0.409619	0.596279
	C203	C	0.903903	0.409172	0.398271
	C204	C	0.900855	0.602458	0.099204
	C205	C	0.098960	0.412682	0.097730
	C206	C	0.094712	0.601112	0.901002
	C207	C	0.904215	0.412834	0.900471
	C208	C	0.099571	0.910323	0.591186
	C209	C	0.097411	0.104178	0.405357
	C210	C	0.898525	0.108990	0.592258
	C211	C	0.902398	0.909072	0.406135
	C212	C	0.593373	0.101279	0.900144
	C213	C	0.405604	0.106140	0.097176
	C214	C	0.594676	0.908950	0.095155
	C215	C	0.404954	0.910398	0.897470
	Zn216	Zn	0.499858	0.006652	0.746555
	Zn217	Zn	0.500067	0.006006	0.246629
	Zn218	Zn	0.751079	0.506481	0.000079
	Zn219	Zn	0.248173	0.508126	-0.001359
	Zn220	Zn	-0.000386	0.756814	0.500509
	Zn221	Zn	-0.001870	0.258416	0.498422
	Zn222	Zn	-0.000101	0.506683	0.748393
	Zn223	Zn	-0.000518	0.507311	0.248947
	Zn224	Zn	0.498604	0.758762	-0.002022
	Zn225	Zn	0.500555	0.255965	-0.001357
	Zn226	Zn	0.748569	0.008039	0.498548
	Zn227	Zn	0.251742	0.006740	0.497700
	N228	N	0.412991	0.971178	0.677047
	N229	N	0.588602	0.042057	0.678986
	N230	N	0.587732	0.970464	0.316962
	N231	N	0.413214	0.042628	0.318088
	N232	N	0.681738	0.418048	0.963679
	N233	N	0.677496	0.592360	0.036107
	N234	N	0.316876	0.596338	0.962669
	N235	N	0.321714	0.422669	0.035483
	N236	N	0.961831	0.684529	0.415924
	N237	N	0.036203	0.686678	0.587102
	N238	N	0.961516	0.332942	0.581500
	N239	N	0.035037	0.327494	0.411623
	N240	N	0.964461	0.418493	0.679242
	N241	N	0.035685	0.594634	0.679491
	N242	N	0.962696	0.594177	0.320294
	N243	N	0.035139	0.419292	0.318761
	N244	N	0.411824	0.687359	0.961553
	N245	N	0.583799	0.685607	0.034845
	N246	N	0.588908	0.325269	0.962975
	N247	N	0.416201	0.330239	0.035460
	N248	N	0.678322	0.970282	0.412079
	N249	N	0.674444	0.045360	0.581143
	N250	N	0.323566	0.969946	0.582284
	N251	N	0.321483	0.043158	0.411143
	N252	N	0.913798	0.471134	0.177987
	N253	N	0.087173	0.543718	0.180056
	N254	N	0.087029	0.470153	0.818927
	N255	N	0.911794	0.543281	0.819250
	N256	N	0.180460	0.919707	0.461310
	N257	N	0.180315	0.095180	0.533680
	N258	N	0.819162	0.094958	0.462041
	N259	N	0.820706	0.922634	0.535379
	N260	N	0.462759	0.184075	0.913851
	N261	N	0.537417	0.183583	0.083392
	N262	N	0.462385	0.833152	0.080608
	N263	N	0.535484	0.827014	0.910155
	N264	N	0.464711	0.919456	0.176865
	N265	N	0.535547	0.095042	0.179070
	N266	N	0.463663	0.095016	0.817018
	N267	N	0.535607	0.918750	0.816657
	N268	N	0.912100	0.186874	0.462068
	N269	N	0.083913	0.186185	0.535330
	N270	N	0.087745	0.825801	0.463111
	N271	N	0.915409	0.831070	0.536794
	N272	N	0.176943	0.469806	0.913573
	N273	N	0.175343	0.545510	0.083359
	N274	N	0.822863	0.470327	0.085429
	N275	N	0.822046	0.544113	0.915149
	O276	O	0.150214	-0.045631	0.033234
	H277	H	0.150703	-0.050471	0.044846
	H278	H	0.154026	-0.027261	0.023352
	O279	O	0.558457	0.569264	0.529753
	H280	H	0.562320	0.573301	0.530447
	H281	H	0.561256	0.566434	0.529706
	O282	O	0.439856	-0.638824	-0.322425
	H283	H	0.443933	-0.640667	-0.317785
	H284	H	0.439468	-0.655021	-0.323406
	O285	O	-0.115080	1.144968	-0.041843
	H286	H	-0.118605	1.153346	-0.042045
	H287	H	-0.117062	1.154371	-0.049143
	O288	O	0.512245	0.590335	0.570420
	H289	H	0.501673	0.581903	0.562257
	H290	H	0.510993	0.577442	0.570112
	O291	O	0.946696	0.147398	0.998612
	H292	H	0.943277	0.147771	1.007353
	H293	H	0.935950	0.139046	0.992981
	O294	O	0.838972	0.893043	1.088805
	H295	H	0.852944	0.885099	1.083462
	H296	H	0.845929	0.892577	1.091251
	O297	O	0.122050	-0.002137	-0.079376
	H298	H	0.121308	-0.008085	-0.074008
	H299	H	0.125229	-0.011223	-0.090322
	O300	O	0.530148	0.583212	0.534513
	H301	H	0.525755	0.590776	0.537709
	H302	H	0.528648	0.584867	0.531808
	O303	O	0.095625	1.010352	0.947893
	H304	H	0.099893	1.011253	0.935556
	H305	H	0.096184	1.017011	0.956871
	O306	O	0.470116	0.513902	0.644464
	H307	H	0.475169	0.522957	0.639416
	H308	H	0.470560	0.537374	0.643010
	O309	O	1.040764	-0.111062	0.038960
	H310	H	1.047936	-0.119495	0.045997
	H311	H	1.045999	-0.096199	0.033230
	O312	O	0.035824	0.061725	1.065893
	H313	H	0.018359	0.050057	1.064790
	H314	H	0.044938	0.057535	1.064061
	O315	O	0.415856	0.558137	0.458418
	H316	H	0.420376	0.545411	0.453544
	H317	H	0.423369	0.551783	0.461156
	O318	O	0.372953	0.406749	0.384608
	H319	H	0.364733	0.395104	0.380690
	H320	H	0.374148	0.406882	0.408207
	O321	O	0.594851	0.434069	0.430504
	H322	H	0.585064	0.433365	0.432759
	H323	H	0.595606	0.432146	0.419190
	O324	O	0.363595	0.458418	0.433118
	H325	H	0.346814	0.453100	0.435185
	H326	H	0.370465	0.460047	0.458024
	O327	O	0.086744	1.035021	1.073888
	H328	H	0.098245	1.031387	1.085592
	H329	H	0.078449	1.046003	1.078167
	O330	O	-0.118474	-0.096856	0.057851
	H331	H	-0.115473	-0.111290	0.058044
	H332	H	-0.124920	-0.107535	0.065990
	O333	O	-0.038393	1.030302	0.962341
	H334	H	-0.033718	1.028310	0.954074
	H335	H	-0.042284	1.032351	0.953362
	O336	O	1.075177	0.972839	1.003767
	H337	H	1.088011	0.983444	1.006329
	H338	H	1.077110	0.963539	0.995874
	O339	O	0.555423	0.487061	0.421800
	H340	H	0.548432	0.479804	0.423440
	H341	H	0.553867	0.478844	0.412865
	O342	O	0.923935	-0.134157	0.069381
	H343	H	0.912668	-0.130016	0.080517
	H344	H	0.924083	-0.135667	0.068632
	O345	O	0.635204	0.671277	0.635880
	H346	H	0.619065	0.674381	0.638571
	H347	H	0.633162	0.678134	0.631790
	O348	O	1.009910	1.077445	0.890519
	H349	H	0.999568	1.076993	0.889085
	H350	H	1.016413	1.078686	0.879689
	O351	O	1.062008	1.091300	-0.045060
	H352	H	1.039227	1.092668	-0.041179
	H353	H	1.050169	1.098598	-0.048170
	O354	O	0.443965	0.429933	0.380641
	H355	H	0.435104	0.424419	0.385394
	H356	H	0.439404	0.423536	0.366360
	O357	O	0.388269	0.494431	0.495069
	H358	H	0.384423	0.504203	0.505046
	H359	H	0.402746	0.497648	0.490221
	O360	O	0.161878	0.168486	0.123920
	H361	H	0.152052	0.166396	0.112607
	H362	H	0.151244	0.169287	0.111813
	O363	O	0.569025	0.616770	0.644171
	H364	H	0.572997	0.622910	0.662586
	H365	H	0.554071	0.604889	0.639840
	O366	O	0.371440	0.456056	0.432784
	H367	H	0.376380	0.444152	0.435223
	H368	H	0.374990	0.444929	0.435586
	O369	O	0.413266	0.643321	0.459170
	H370	H	0.417356	0.643968	0.439593
	H371	H	0.411977	0.635664	0.463766
	O372	O	0.615540	0.350744	0.435216
	H373	H	0.622156	0.360857	0.425849
	H374	H	0.615384	0.353369	0.434220
	O375	O	0.587368	0.400642	0.381293
	H376	H	0.585675	0.392158	0.376524
	H377	H	0.589571	0.408719	0.394337
	O378	O	0.582008	0.548229	0.542922
	H379	H	0.591129	0.556838	0.539916
	H380	H	0.578983	0.544449	0.537312
	O381	O	0.318007	0.552073	0.562246
	H382	H	0.306775	0.543234	0.562052
	H383	H	0.324317	0.548454	0.554125
	O384	O	-0.019416	0.940547	-0.051551
	H385	H	-0.014348	0.932022	-0.049854
	H386	H	-0.009004	0.931476	-0.047205
	O387	O	0.964769	-0.094487	0.915696
	H388	H	0.975503	-0.092826	0.924174
	H389	H	0.957649	-0.102450	0.915059
	O390	O	0.009120	0.994454	0.052559
	H391	H	0.011812	1.005938	0.056371
	H392	H	0.007732	0.993055	0.049799
	O393	O	0.831196	1.030220	0.035878
	H394	H	0.819334	1.045856	0.044579
	H395	H	0.830572	1.027941	0.028569
	O396	O	0.545858	0.533765	0.377570
	H397	H	0.539528	0.535736	0.371148
	H398	H	0.560082	0.536421	0.376950
	O399	O	0.305001	0.691600	1.216541
	H400	H	0.315104	0.679875	1.226521
	H401	H	0.300663	0.690069	1.216457
	O402	O	1.005693	1.069757	0.917302
	H403	H	1.012129	1.072651	0.911607
	H404	H	1.011738	1.060575	0.928847
	O405	O	0.647523	0.442072	0.622530
	H406	H	0.640133	0.447782	0.623658
	H407	H	0.656106	0.458182	0.629471
