data_Molecule from HDF5

_cell_length_a		16.302907
_cell_length_b		16.247425
_cell_length_c		16.211302
_cell_angle_alpha	90.049965
_cell_angle_beta	89.962161
_cell_angle_gamma	89.980533
_symmetry_space_group_name_H-M	'P 1'
_symmetry_Int_Tables_number		1

loop_
	_symmetry_equiv_pos_as_xyz
	x,y,z

loop_
	_atom_site_label
	_atom_site_type_symbol
	_atom_site_fract_x
	_atom_site_fract_y
	_atom_site_fract_z
	H0	H	0.401462	0.835302	0.714113
	H1	H	0.597677	0.164122	0.713677
	H2	H	0.596190	0.835383	0.286962
	H3	H	0.403938	0.165274	0.286185
	H4	H	0.713963	0.400768	0.835879
	H5	H	0.714060	0.599304	0.163735
	H6	H	0.284929	0.598569	0.836157
	H7	H	0.286305	0.402342	0.164433
	H8	H	0.836478	0.713764	0.402846
	H9	H	0.163774	0.713771	0.599213
	H10	H	0.836671	0.285254	0.598389
	H11	H	0.164118	0.286140	0.403499
	H12	H	0.835538	0.402700	0.713314
	H13	H	0.163544	0.596942	0.714190
	H14	H	0.835873	0.596811	0.287853
	H15	H	0.163616	0.401564	0.286006
	H16	H	0.402156	0.713981	0.835357
	H17	H	0.596481	0.712489	0.164208
	H18	H	0.596603	0.287460	0.834988
	H19	H	0.403347	0.288321	0.165052
	H20	H	0.713678	0.835570	0.401371
	H21	H	0.715102	0.163541	0.598631
	H22	H	0.285271	0.835703	0.597712
	H23	H	0.286462	0.164484	0.401106
	H24	H	0.903560	0.335249	0.211449
	H25	H	0.096137	0.664564	0.213246
	H26	H	0.096160	0.335281	0.787851
	H27	H	0.902768	0.664773	0.787567
	H28	H	0.214301	0.901244	0.335771
	H29	H	0.214510	0.098745	0.663886
	H30	H	0.787757	0.096887	0.334739
	H31	H	0.785606	0.901517	0.664211
	H32	H	0.336152	0.213648	0.902027
	H33	H	0.663466	0.214967	0.097714
	H34	H	0.336508	0.786805	0.098104
	H35	H	0.664216	0.786099	0.901587
	H36	H	0.336796	0.903782	0.213687
	H37	H	0.665006	0.097046	0.211901
	H38	H	0.336211	0.096852	0.786905
	H39	H	0.663456	0.902869	0.785936
	H40	H	0.904021	0.212801	0.335236
	H41	H	0.098087	0.213515	0.664145
	H42	H	0.097649	0.786076	0.335424
	H43	H	0.902873	0.786575	0.664920
	H44	H	0.213754	0.336404	0.901328
	H45	H	0.214068	0.664317	0.099082
	H46	H	0.785584	0.336334	0.097863
	H47	H	0.785550	0.663773	0.901430
	H48	H	0.407267	0.113668	0.584971
	H49	H	0.589713	0.884208	0.592674
	H50	H	0.601500	0.120105	0.405030
	H51	H	0.398953	0.881163	0.404161
	H52	H	0.599912	0.411850	0.117793
	H53	H	0.592091	0.592873	0.882228
	H54	H	0.401365	0.587414	0.116267
	H55	H	0.410260	0.410546	0.884623
	H56	H	0.118226	0.602046	0.411573
	H57	H	0.884584	0.595592	0.589086
	H58	H	0.114012	0.411027	0.589221
	H59	H	0.880570	0.406382	0.397681
	H60	H	0.117669	0.407612	0.601538
	H61	H	0.883468	0.588670	0.595443
	H62	H	0.113122	0.584610	0.410452
	H63	H	0.882044	0.398369	0.410771
	H64	H	0.413565	0.593354	0.115006
	H65	H	0.593531	0.594059	0.881828
	H66	H	0.586315	0.408492	0.114912
	H67	H	0.406571	0.401718	0.880616
	H68	H	0.589829	0.117506	0.401759
	H69	H	0.594750	0.883692	0.589406
	H70	H	0.399325	0.119215	0.595987
	H71	H	0.412269	0.883292	0.400378
	H72	H	0.907088	0.615940	0.089291
	H73	H	0.084270	0.386429	0.089033
	H74	H	0.090536	0.616793	0.908443
	H75	H	0.909790	0.384358	0.907228
	H76	H	0.091504	0.902673	0.618506
	H77	H	0.094912	0.089026	0.382860
	H78	H	0.910825	0.102971	0.619004
	H79	H	0.901382	0.916905	0.384551
	H80	H	0.619359	0.101287	0.903643
	H81	H	0.383970	0.097040	0.088977
	H82	H	0.618775	0.903828	0.097033
	H83	H	0.383503	0.906324	0.909565
	H84	H	0.616904	0.903741	0.090561
	H85	H	0.384663	0.089575	0.094444
	H86	H	0.615040	0.093722	0.913640
	H87	H	0.384170	0.908618	0.906183
	H88	H	0.896069	0.090351	0.619463
	H89	H	0.090056	0.095271	0.382816
	H90	H	0.098117	0.907981	0.618108
	H91	H	0.918090	0.904038	0.385713
	H92	H	0.095275	0.617250	0.908717
	H93	H	0.103066	0.382226	0.085599
	H94	H	0.900639	0.618759	0.094909
	H95	H	0.903594	0.382925	0.909422
	H96	H	0.413083	0.115982	0.598405
	H97	H	0.594666	0.881529	0.595646
	H98	H	0.593644	0.115262	0.413166
	H99	H	0.408023	0.885782	0.413834
	H100	H	0.595636	0.398381	0.120203
	H101	H	0.594066	0.592544	0.881907
	H102	H	0.403218	0.600131	0.120455
	H103	H	0.400391	0.409314	0.882294
	H104	H	0.120734	0.593276	0.396424
	H105	H	0.880340	0.597314	0.597274
	H106	H	0.117828	0.398510	0.591910
	H107	H	0.886485	0.412946	0.409756
	H108	H	0.908411	0.617714	0.097601
	H109	H	0.095358	0.379656	0.104037
	H110	H	0.093304	0.618629	0.904959
	H111	H	0.905454	0.381536	0.902973
	H112	H	0.091081	0.910470	0.615499
	H113	H	0.097422	0.096448	0.380705
	H114	H	0.913395	0.084407	0.612799
	H115	H	0.899928	0.896830	0.377444
	H116	H	0.616576	0.088535	0.901928
	H117	H	0.381485	0.097300	0.097678
	H118	H	0.616135	0.908965	0.094033
	H119	H	0.382695	0.905048	0.906243
	C120	C	0.377664	0.008017	0.621834
	C121	C	0.621456	0.991437	0.621164
	C122	C	0.622182	0.008815	0.378483
	C123	C	0.379096	0.992225	0.378206
	C124	C	0.621540	0.378460	0.008594
	C125	C	0.620910	0.620968	0.990849
	C126	C	0.377947	0.621890	0.008518
	C127	C	0.378207	0.378904	0.991610
	C128	C	0.008482	0.621232	0.378496
	C129	C	0.991507	0.621205	0.622095
	C130	C	0.008145	0.378006	0.622238
	C131	C	0.991436	0.377545	0.378157
	C132	C	0.877855	0.508717	0.121659
	C133	C	0.121452	0.491503	0.121470
	C134	C	0.120976	0.508638	0.878937
	C135	C	0.878164	0.491516	0.878584
	C136	C	0.121648	0.878456	0.508529
	C137	C	0.122020	0.121730	0.490988
	C138	C	0.878765	0.120800	0.508254
	C139	C	0.878477	0.878167	0.491626
	C140	C	0.508546	0.122135	0.878471
	C141	C	0.491999	0.122394	0.121401
	C142	C	0.508892	0.878126	0.121862
	C143	C	0.491673	0.878267	0.878744
	C144	C	0.380907	0.884304	0.676296
	C145	C	0.618587	0.115149	0.675970
	C146	C	0.617893	0.884534	0.324126
	C147	C	0.382703	0.116065	0.323790
	C148	C	0.675781	0.381531	0.884603
	C149	C	0.675611	0.618642	0.114923
	C150	C	0.323025	0.619144	0.884807
	C151	C	0.324238	0.382090	0.115432
	C152	C	0.885266	0.675925	0.382337
	C153	C	0.114798	0.675905	0.619597
	C154	C	0.884974	0.323369	0.619106
	C155	C	0.115202	0.323876	0.382274
	C156	C	0.884519	0.381694	0.676128
	C157	C	0.114718	0.617973	0.676692
	C158	C	0.884961	0.617768	0.325064
	C159	C	0.114967	0.380927	0.323851
	C160	C	0.380898	0.676725	0.884816
	C161	C	0.617771	0.675328	0.115121
	C162	C	0.617592	0.325027	0.884282
	C163	C	0.382205	0.325054	0.115578
	C164	C	0.675741	0.884567	0.381153
	C165	C	0.677099	0.114682	0.619111
	C166	C	0.323023	0.884607	0.618708
	C167	C	0.324186	0.115602	0.380622
	C168	C	0.881851	0.384791	0.175161
	C169	C	0.117629	0.615541	0.175804
	C170	C	0.117476	0.384667	0.825035
	C171	C	0.881753	0.615432	0.824734
	C172	C	0.176197	0.880996	0.384665
	C173	C	0.176467	0.118711	0.615009
	C174	C	0.824980	0.117960	0.383935
	C175	C	0.823683	0.881346	0.615336
	C176	C	0.385031	0.176128	0.881643
	C177	C	0.615175	0.177019	0.118353
	C178	C	0.385467	0.824417	0.118582
	C179	C	0.614971	0.823541	0.880805
	C180	C	0.385683	0.882455	0.176178
	C181	C	0.615698	0.118408	0.174948
	C182	C	0.385048	0.118398	0.824165
	C183	C	0.614875	0.881591	0.823616
	C184	C	0.882414	0.175543	0.384184
	C185	C	0.118809	0.175949	0.615178
	C186	C	0.118416	0.823753	0.384650
	C187	C	0.882085	0.824383	0.615760
	C188	C	0.176157	0.385213	0.881201
	C189	C	0.176170	0.615349	0.119379
	C190	C	0.823633	0.385060	0.118313
	C191	C	0.823404	0.615058	0.881444
	C192	C	0.399911	0.094201	0.599676
	C193	C	0.599476	0.905246	0.599008
	C194	C	0.601263	0.095093	0.400234
	C195	C	0.400332	0.905630	0.399807
	C196	C	0.600439	0.399863	0.095326
	C197	C	0.599582	0.599559	0.904280
	C198	C	0.399573	0.599947	0.095164
	C199	C	0.399602	0.400749	0.904803
	C200	C	0.095066	0.599659	0.400063
	C201	C	0.904961	0.599964	0.600298
	C202	C	0.094382	0.399297	0.600605
	C203	C	0.905268	0.399206	0.399776
	C204	C	0.899032	0.595211	0.100286
	C205	C	0.100477	0.405251	0.099488
	C206	C	0.099385	0.595096	0.900814
	C207	C	0.899714	0.405167	0.900181
	C208	C	0.099860	0.900404	0.595005
	C209	C	0.100456	0.100117	0.404491
	C210	C	0.900268	0.099104	0.594640
	C211	C	0.900102	0.899590	0.404918
	C212	C	0.594661	0.100843	0.899953
	C213	C	0.405787	0.100989	0.099986
	C214	C	0.595108	0.899285	0.100253
	C215	C	0.405729	0.900176	0.900872
	Zn216	Zn	0.499724	0.000076	0.750051
	Zn217	Zn	0.500971	0.000657	0.250094
	Zn218	Zn	0.749118	0.500129	-0.000292
	Zn219	Zn	0.249748	0.500348	0.000204
	Zn220	Zn	0.000354	0.749673	0.500668
	Zn221	Zn	0.000238	0.249304	0.500116
	Zn222	Zn	-0.000241	0.500039	0.750187
	Zn223	Zn	-0.000135	0.499566	0.249828
	Zn224	Zn	0.500480	0.749438	-0.000294
	Zn225	Zn	0.499872	0.250701	-0.000127
	Zn226	Zn	0.750395	-0.000091	0.499310
	Zn227	Zn	0.249680	-0.000046	0.499509
	N228	N	0.414335	0.962108	0.678144
	N229	N	0.584550	0.037600	0.677300
	N230	N	0.585165	0.962546	0.322643
	N231	N	0.415999	0.038455	0.322181
	N232	N	0.678165	0.414189	0.962825
	N233	N	0.677783	0.585616	0.036715
	N234	N	0.321162	0.585853	0.962811
	N235	N	0.321677	0.414757	0.037326
	N236	N	0.963241	0.678036	0.414737
	N237	N	0.037221	0.677791	0.586238
	N238	N	0.962792	0.321117	0.586205
	N239	N	0.037494	0.321701	0.415341
	N240	N	0.961939	0.414944	0.678005
	N241	N	0.037149	0.584673	0.678052
	N242	N	0.962619	0.584532	0.322622
	N243	N	0.037084	0.413410	0.321137
	N244	N	0.414421	0.678276	0.962644
	N245	N	0.584390	0.676737	0.037223
	N246	N	0.584688	0.322795	0.962422
	N247	N	0.415312	0.323285	0.037494
	N248	N	0.678756	0.962632	0.414097
	N249	N	0.678806	0.036925	0.585627
	N250	N	0.321123	0.962473	0.585542
	N251	N	0.321919	0.037644	0.413880
	N252	N	0.914860	0.462672	0.177249
	N253	N	0.084597	0.537634	0.177392
	N254	N	0.084142	0.462359	0.823305
	N255	N	0.915009	0.537578	0.822813
	N256	N	0.178374	0.914205	0.462682
	N257	N	0.178565	0.085803	0.536888
	N258	N	0.822673	0.084724	0.461867
	N259	N	0.821373	0.914110	0.537025
	N260	N	0.462824	0.178814	0.914467
	N261	N	0.537185	0.179746	0.085932
	N262	N	0.463162	0.821688	0.085486
	N263	N	0.537397	0.821369	0.914391
	N264	N	0.463307	0.915199	0.178101
	N265	N	0.538114	0.085341	0.176867
	N266	N	0.462630	0.085271	0.822386
	N267	N	0.537348	0.914956	0.822297
	N268	N	0.915166	0.177371	0.462445
	N269	N	0.085500	0.177785	0.537227
	N270	N	0.085182	0.822041	0.462721
	N271	N	0.915315	0.822315	0.537895
	N272	N	0.178314	0.463348	0.914173
	N273	N	0.178620	0.537385	0.086198
	N274	N	0.820974	0.463040	0.085619
	N275	N	0.821066	0.537114	0.914173
