data_Molecule from HDF5

_cell_length_a		16.456909
_cell_length_b		16.469857
_cell_length_c		16.501984
_cell_angle_alpha	89.959162
_cell_angle_beta	89.962662
_cell_angle_gamma	89.910455
_symmetry_space_group_name_H-M	'P 1'
_symmetry_Int_Tables_number		1

loop_
	_symmetry_equiv_pos_as_xyz
	x,y,z

loop_
	_atom_site_label
	_atom_site_type_symbol
	_atom_site_fract_x
	_atom_site_fract_y
	_atom_site_fract_z
	H0	H	0.398910	0.845157	0.710367
	H1	H	0.617665	0.157885	0.708799
	H2	H	0.614785	0.843228	0.263788
	H3	H	0.405884	0.159878	0.265006
	H4	H	0.733239	0.392716	0.826240
	H5	H	0.728170	0.603185	0.141495
	H6	H	0.285676	0.609562	0.825745
	H7	H	0.288805	0.397644	0.140197
	H8	H	0.851583	0.722996	0.378382
	H9	H	0.166145	0.725431	0.592560
	H10	H	0.853207	0.276355	0.594957
	H11	H	0.166676	0.280289	0.380274
	H12	H	0.852073	0.394162	0.707818
	H13	H	0.165558	0.610494	0.709431
	H14	H	0.851031	0.606183	0.263036
	H15	H	0.166546	0.394904	0.262487
	H16	H	0.400670	0.726967	0.826667
	H17	H	0.612289	0.719209	0.142303
	H18	H	0.617491	0.275786	0.826897
	H19	H	0.406168	0.282346	0.141093
	H20	H	0.733109	0.844246	0.378556
	H21	H	0.731911	0.158593	0.591868
	H22	H	0.285943	0.842891	0.591515
	H23	H	0.288288	0.158737	0.379945
	H24	H	0.903462	0.345094	0.206427
	H25	H	0.117626	0.657442	0.207729
	H26	H	0.117851	0.345320	0.758604
	H27	H	0.899274	0.657067	0.757601
	H28	H	0.231632	0.894815	0.327155
	H29	H	0.235625	0.109993	0.640993
	H30	H	0.787052	0.109008	0.329223
	H31	H	0.783863	0.891883	0.640610
	H32	H	0.350864	0.223743	0.878002
	H33	H	0.665621	0.222873	0.089906
	H34	H	0.352439	0.778126	0.091684
	H35	H	0.664771	0.775879	0.874654
	H36	H	0.352262	0.893891	0.207480
	H37	H	0.666366	0.105494	0.204451
	H38	H	0.352317	0.111650	0.758872
	H39	H	0.664049	0.890171	0.756804
	H40	H	0.903008	0.225267	0.329625
	H41	H	0.120234	0.227235	0.641067
	H42	H	0.115755	0.778623	0.327455
	H43	H	0.900520	0.775531	0.640661
	H44	H	0.233978	0.345360	0.874267
	H45	H	0.231131	0.658927	0.089625
	H46	H	0.787932	0.344208	0.089041
	H47	H	0.782744	0.656784	0.873373
	H48	H	0.419546	0.113406	0.571746
	H49	H	0.592164	0.891046	0.571798
	H50	H	0.597588	0.114145	0.394671
	H51	H	0.420794	0.887609	0.392660
	H52	H	0.599343	0.408819	0.095794
	H53	H	0.592590	0.593172	0.870434
	H54	H	0.420249	0.589582	0.094124
	H55	H	0.420257	0.414037	0.870105
	H56	H	0.118136	0.584477	0.399676
	H57	H	0.899503	0.588217	0.568226
	H58	H	0.121022	0.420319	0.576279
	H59	H	0.894825	0.411899	0.393530
	H60	H	0.123349	0.408817	0.571513
	H61	H	0.898811	0.584655	0.571332
	H62	H	0.124399	0.587912	0.387424
	H63	H	0.896245	0.412038	0.398043
	H64	H	0.420102	0.590780	0.095183
	H65	H	0.601220	0.587414	0.870287
	H66	H	0.600517	0.414155	0.094563
	H67	H	0.422001	0.413698	0.870007
	H68	H	0.599285	0.114707	0.395592
	H69	H	0.593906	0.891351	0.567255
	H70	H	0.424156	0.111595	0.572867
	H71	H	0.421154	0.888152	0.396116
	H72	H	0.918972	0.613669	0.068944
	H73	H	0.100982	0.386493	0.075132
	H74	H	0.087506	0.610278	0.895366
	H75	H	0.920874	0.392598	0.904448
	H76	H	0.096935	0.913254	0.595855
	H77	H	0.096402	0.087102	0.375392
	H78	H	0.920963	0.089127	0.598095
	H79	H	0.919218	0.911872	0.371632
	H80	H	0.619511	0.090858	0.899587
	H81	H	0.394023	0.091005	0.078474
	H82	H	0.619423	0.915051	0.070335
	H83	H	0.395025	0.914160	0.890731
	H84	H	0.623626	0.912854	0.079371
	H85	H	0.394050	0.094765	0.072484
	H86	H	0.618300	0.083510	0.897880
	H87	H	0.397991	0.910809	0.904000
	H88	H	0.920435	0.087149	0.597343
	H89	H	0.095317	0.091875	0.374056
	H90	H	0.097002	0.914244	0.596001
	H91	H	0.921160	0.916433	0.374878
	H92	H	0.098608	0.611425	0.904071
	H93	H	0.094525	0.389649	0.074214
	H94	H	0.917389	0.615906	0.074282
	H95	H	0.914100	0.385714	0.891791
	H96	H	0.422431	0.111074	0.568223
	H97	H	0.596864	0.889778	0.571129
	H98	H	0.599093	0.114164	0.393367
	H99	H	0.417522	0.887064	0.395068
	H100	H	0.594961	0.411991	0.093754
	H101	H	0.592383	0.583161	0.873938
	H102	H	0.419331	0.589614	0.094971
	H103	H	0.421197	0.412251	0.869809
	H104	H	0.123707	0.597503	0.398095
	H105	H	0.896995	0.589008	0.571541
	H106	H	0.117063	0.417306	0.564645
	H107	H	0.896505	0.416005	0.395119
	H108	H	0.923311	0.613841	0.073656
	H109	H	0.100068	0.389794	0.068799
	H110	H	0.099531	0.616350	0.891392
	H111	H	0.929395	0.390562	0.890968
	H112	H	0.096099	0.914195	0.595822
	H113	H	0.099208	0.090116	0.372829
	H114	H	0.922273	0.087945	0.597032
	H115	H	0.924785	0.912053	0.373410
	H116	H	0.621605	0.088056	0.892651
	H117	H	0.396810	0.087773	0.072818
	H118	H	0.623580	0.905725	0.071920
	H119	H	0.402196	0.923268	0.899323
	C120	C	0.387648	0.008826	0.605236
	C121	C	0.629042	0.993494	0.604875
	C122	C	0.631099	0.009802	0.362972
	C123	C	0.388253	0.992481	0.363424
	C124	C	0.631733	0.378037	-0.008596
	C125	C	0.628966	0.620988	0.974943
	C126	C	0.386335	0.624029	-0.008445
	C127	C	0.389113	0.381232	0.974331
	C128	C	0.018008	0.622970	0.362097
	C129	C	1.001402	0.622088	0.604774
	C130	C	0.017650	0.380464	0.606004
	C131	C	1.000427	0.380552	0.363195
	C132	C	0.888163	0.510068	0.104305
	C133	C	0.130798	0.492802	0.105391
	C134	C	0.129633	0.509495	0.862480
	C135	C	0.887064	0.492805	0.861602
	C136	C	0.130340	0.880064	0.492733
	C137	C	0.131509	0.123413	0.477078
	C138	C	0.888114	0.122243	0.494363
	C139	C	0.887677	0.879287	0.476370
	C140	C	0.516617	0.122206	0.862782
	C141	C	0.499665	0.122657	0.105743
	C142	C	0.518143	0.879206	0.106230
	C143	C	0.500686	0.880307	0.862773
	C144	C	0.382430	0.891707	0.668491
	C145	C	0.634373	0.110926	0.667745
	C146	C	0.633274	0.890740	0.303481
	C147	C	0.386852	0.111948	0.304460
	C148	C	0.692852	0.374674	0.873537
	C149	C	0.688808	0.622398	0.093982
	C150	C	0.325620	0.627676	0.873223
	C151	C	0.329229	0.379642	0.093062
	C152	C	0.899000	0.683204	0.359941
	C153	C	0.119151	0.684425	0.609517
	C154	C	0.900256	0.317452	0.611588
	C155	C	0.119399	0.320494	0.361712
	C156	C	0.899541	0.376406	0.667722
	C157	C	0.118795	0.627163	0.667895
	C158	C	0.898687	0.624850	0.302775
	C159	C	0.118971	0.377589	0.302945
	C160	C	0.382816	0.686292	0.873841
	C161	C	0.631083	0.680143	0.094374
	C162	C	0.635143	0.316437	0.873804
	C163	C	0.387447	0.322040	0.093476
	C164	C	0.692234	0.891379	0.360397
	C165	C	0.691380	0.111290	0.609467
	C166	C	0.325905	0.890707	0.609348
	C167	C	0.328294	0.111600	0.361528
	C168	C	0.885655	0.391828	0.165440
	C169	C	0.134444	0.610618	0.166672
	C170	C	0.134750	0.392104	0.799810
	C171	C	0.881911	0.610154	0.798711
	C172	C	0.191622	0.876582	0.374490
	C173	C	0.194633	0.127792	0.593897
	C174	C	0.827028	0.126738	0.376446
	C175	C	0.825137	0.874661	0.593880
	C176	C	0.398391	0.184113	0.859310
	C177	C	0.618414	0.182461	0.107893
	C178	C	0.399427	0.818891	0.108921
	C179	C	0.617937	0.816950	0.857377
	C180	C	0.399537	0.876214	0.167058
	C181	C	0.618705	0.124228	0.165139
	C182	C	0.399029	0.127704	0.800390
	C183	C	0.617253	0.873677	0.798570
	C184	C	0.884423	0.184881	0.376883
	C185	C	0.137113	0.186288	0.594198
	C186	C	0.133642	0.819055	0.374546
	C187	C	0.883213	0.816850	0.593949
	C188	C	0.192553	0.392183	0.857476
	C189	C	0.191220	0.611387	0.107939
	C190	C	0.828244	0.391409	0.107104
	C191	C	0.823699	0.609894	0.856194
	C192	C	0.414201	0.090553	0.578673
	C193	C	0.602261	0.912004	0.577958
	C194	C	0.605869	0.092693	0.387542
	C195	C	0.412724	0.909239	0.387661
	C196	C	0.605712	0.403952	0.073351
	C197	C	0.603063	0.595376	0.892841
	C198	C	0.412377	0.597606	0.073494
	C199	C	0.414088	0.406069	0.891518
	C200	C	0.100479	0.597407	0.387612
	C201	C	0.919817	0.595101	0.577967
	C202	C	0.099113	0.407686	0.578728
	C203	C	0.917523	0.405973	0.388417
	C204	C	0.912694	0.592914	0.079114
	C205	C	0.105538	0.410234	0.080064
	C206	C	0.102646	0.591229	0.889376
	C207	C	0.913856	0.411068	0.888030
	C208	C	0.104212	0.906252	0.574460
	C209	C	0.104574	0.097174	0.395366
	C210	C	0.913944	0.095697	0.576221
	C211	C	0.914255	0.905778	0.394706
	C212	C	0.598475	0.095098	0.889203
	C213	C	0.416524	0.098139	0.081456
	C214	C	0.600824	0.904221	0.080961
	C215	C	0.419615	0.908109	0.890275
	Zn216	Zn	0.508973	0.001240	0.733793
	Zn217	Zn	0.509177	0.000904	0.234275
	Zn218	Zn	0.758741	0.501362	-0.016991
	Zn219	Zn	0.258586	0.501675	-0.017069
	Zn220	Zn	0.009276	0.750951	0.484391
	Zn221	Zn	0.009024	0.251928	0.485943
	Zn222	Zn	0.009227	0.501594	0.733700
	Zn223	Zn	0.009115	0.501631	0.233547
	Zn224	Zn	0.509314	0.751398	-0.015920
	Zn225	Zn	0.508618	0.250595	-0.016640
	Zn226	Zn	0.758844	0.001326	0.485486
	Zn227	Zn	0.259299	0.000760	0.484753
	N228	N	0.419851	0.966257	0.666193
	N229	N	0.596282	0.036731	0.664988
	N230	N	0.596259	0.965649	0.304705
	N231	N	0.423041	0.036744	0.305209
	N232	N	0.690914	0.412184	0.947726
	N233	N	0.687657	0.586465	0.018768
	N234	N	0.327373	0.589951	0.947437
	N235	N	0.330094	0.415786	0.017878
	N236	N	0.974140	0.682264	0.396099
	N237	N	0.045350	0.681036	0.570807
	N238	N	0.974749	0.319889	0.574023
	N239	N	0.044632	0.322077	0.398588
	N240	N	0.973624	0.414790	0.664595
	N241	N	0.044636	0.589061	0.664970
	N242	N	0.973759	0.588256	0.303773
	N243	N	0.043826	0.414024	0.303779
	N244	N	0.419572	0.684436	0.948697
	N245	N	0.594669	0.679634	0.019287
	N246	N	0.597802	0.318508	0.948159
	N247	N	0.423857	0.322916	0.018593
	N248	N	0.691183	0.966495	0.396397
	N249	N	0.688338	0.037211	0.571268
	N250	N	0.329061	0.964594	0.570811
	N251	N	0.328805	0.036142	0.397131
	N252	N	0.922240	0.466628	0.163721
	N253	N	0.097824	0.535750	0.165333
	N254	N	0.096493	0.466222	0.802721
	N255	N	0.920522	0.536243	0.801872
	N256	N	0.189675	0.914040	0.448903
	N257	N	0.191166	0.089400	0.520085
	N258	N	0.829110	0.088619	0.450493
	N259	N	0.827679	0.912701	0.519838
	N260	N	0.472616	0.180802	0.897256
	N261	N	0.543366	0.181550	0.071493
	N262	N	0.474203	0.820554	0.071922
	N263	N	0.544416	0.820890	0.896675
	N264	N	0.474251	0.913264	0.165375
	N265	N	0.543775	0.087681	0.163932
	N266	N	0.473612	0.089923	0.802299
	N267	N	0.543472	0.912608	0.801919
	N268	N	0.921716	0.182358	0.451284
	N269	N	0.098215	0.183519	0.520538
	N270	N	0.096430	0.820914	0.449125
	N271	N	0.921288	0.819568	0.519848
	N272	N	0.189434	0.466337	0.895681
	N273	N	0.189135	0.537067	0.070375
	N274	N	0.829967	0.465770	0.069526
	N275	N	0.826861	0.535950	0.894578
	O276	O	0.375816	0.561822	0.538380
	H277	H	0.388132	0.576065	0.521424
	H278	H	0.383840	0.539340	0.556501
	O279	O	0.976636	1.012162	1.103917
	H280	H	0.984315	1.009258	1.106155
	H281	H	0.977144	1.018697	1.098887
	O282	O	0.795268	0.972457	0.202361
	H283	H	0.776301	0.965306	0.220737
	H284	H	0.805796	0.986382	0.209345
	O285	O	-0.086685	0.191283	1.050628
	H286	H	-0.088275	0.186484	1.049698
	H287	H	-0.074240	0.192762	1.043949
	O288	O	0.230396	0.030767	0.203341
	H289	H	0.212231	0.042046	0.204722
	H290	H	0.255389	0.037050	0.236454
	O291	O	0.971351	0.783916	0.191271
	H292	H	0.955756	0.760745	0.211484
	H293	H	0.963165	0.790473	0.190317
	O294	O	0.690679	0.681950	-0.340403
	H295	H	0.657115	0.675175	-0.326985
	H296	H	0.698543	0.655306	-0.331283
	O297	O	0.502503	0.627151	0.279301
	H298	H	0.490907	0.637502	0.262715
	H299	H	0.489317	0.623290	0.293087
	O300	O	0.386560	0.547035	0.618388
	H301	H	0.397240	0.554638	0.611952
	H302	H	0.380159	0.548034	0.620329
	O303	O	0.790787	-0.210050	0.011166
	H304	H	0.778734	-0.219325	0.014574
	H305	H	0.795413	-0.222635	0.011047
	O306	O	0.207200	1.198860	1.182007
	H307	H	0.181225	1.192522	1.175982
	H308	H	0.218002	1.196515	1.148979
	O309	O	0.501310	0.520181	0.551315
	H310	H	0.499677	0.526329	0.562678
	H311	H	0.498234	0.503928	0.552950
	O312	O	0.530557	0.286244	0.615736
	H313	H	0.551127	0.279412	0.596961
	H314	H	0.521413	0.287513	0.600325
	O315	O	0.416450	-0.463347	1.274556
	H316	H	0.407683	-0.446726	1.263214
	H317	H	0.407895	-0.460574	1.289895
	O318	O	-0.878346	0.038870	-0.086926
	H319	H	-0.888196	0.020758	-0.078638
	H320	H	-0.880414	0.021730	-0.107631
	O321	O	0.794497	0.211451	0.956331
	H322	H	0.790458	0.227420	0.967486
	H323	H	0.790104	0.210331	0.965089
	O324	O	0.777492	0.232066	0.216900
	H325	H	0.786604	0.248121	0.215491
	H326	H	0.767210	0.233054	0.209213
	O327	O	0.793154	0.015467	0.769887
	H328	H	0.785276	0.045346	0.764327
	H329	H	0.777697	0.024270	0.767943
	O330	O	-0.128928	-0.101807	-0.192001
	H331	H	-0.115491	-0.102512	-0.186699
	H332	H	-0.151746	-0.099312	-0.187823
	O333	O	0.988927	1.209576	0.775943
	H334	H	1.009202	1.169512	0.773392
	H335	H	0.992337	1.229464	0.738967
	O336	O	1.188750	-0.181530	0.795313
	H337	H	1.156217	-0.193754	0.803048
	H338	H	1.196587	-0.177401	0.828930
	O339	O	0.387697	0.697398	0.310140
	H340	H	0.372825	0.679526	0.307761
	H341	H	0.390290	0.700098	0.333519
	O342	O	0.538873	0.728481	0.456602
	H343	H	0.545155	0.726978	0.428438
	H344	H	0.564275	0.733491	0.450871
	O345	O	0.100820	0.212003	0.031194
	H346	H	0.093073	0.212170	0.006799
	H347	H	0.099661	0.203115	0.011780
	O348	O	0.720783	0.291803	0.462930
	H349	H	0.732134	0.282357	0.438171
	H350	H	0.731163	0.289544	0.459932
	O351	O	1.040791	1.217200	0.201144
	H352	H	1.047488	1.239074	0.225525
	H353	H	1.036555	1.215607	0.184725
	O354	O	0.548124	0.481001	0.672850
	H355	H	0.523355	0.457814	0.665981
	H356	H	0.544238	0.490532	0.658148
	O357	O	0.813996	0.806025	1.177151
	H358	H	0.822241	0.797509	1.152020
	H359	H	0.799432	0.832544	1.183160
	O360	O	-0.068890	0.901505	1.019587
	H361	H	-0.077387	0.916397	1.023439
	H362	H	-0.075447	0.899716	1.020057
	O363	O	0.486892	0.583539	0.521950
	H364	H	0.486791	0.581740	0.514630
	H365	H	0.505331	0.585243	0.528167
	O366	O	1.175200	0.038884	0.902079
	H367	H	1.174176	0.042133	0.904085
	H368	H	1.179691	0.041170	0.893356
	O369	O	0.626616	0.390942	0.506573
	H370	H	0.627173	0.393039	0.511614
	H371	H	0.623065	0.381714	0.500176
	O372	O	0.225734	-0.022183	0.764025
	H373	H	0.211546	-0.059704	0.773973
	H374	H	0.261282	-0.023351	0.741442
	O375	O	0.165939	0.917190	1.093559
	H376	H	0.155012	0.930656	1.082743
	H377	H	0.162368	0.945792	1.090160
	O378	O	1.085329	0.801934	0.036788
	H379	H	1.095711	0.796879	0.056396
	H380	H	1.102364	0.807412	0.048858
	O381	O	1.461101	-0.696509	0.337476
	H382	H	1.444439	-0.697638	0.333062
	H383	H	1.448151	-0.700255	0.329430
	O384	O	0.091168	0.205920	0.911511
	H385	H	0.073083	0.211664	0.891043
	H386	H	0.083462	0.193067	0.908853
	O387	O	-0.571309	1.342306	1.282036
	H388	H	-0.589224	1.333618	1.265647
	H389	H	-0.570320	1.376238	1.286342
	O390	O	0.703928	0.374223	1.418380
	H391	H	0.700078	0.366021	1.424682
	H392	H	0.684913	0.376161	1.424616
	O393	O	-0.018898	0.982981	-0.060940
	H394	H	-0.043876	0.973281	-0.060603
	H395	H	-0.011910	0.985932	-0.063805
	O396	O	0.584208	0.488772	0.562971
	H397	H	0.579694	0.476946	0.573731
	H398	H	0.570186	0.511248	0.549346
	O399	O	0.684519	0.609142	0.324041
	H400	H	0.683534	0.598472	0.336680
	H401	H	0.683228	0.605402	0.336931
	O402	O	0.112753	0.054278	1.037450
	H403	H	0.110159	0.059559	1.026457
	H404	H	0.113203	0.066521	1.034723
	O405	O	0.618339	0.437586	-0.498577
	H406	H	0.622344	0.443068	-0.517023
	H407	H	0.618397	0.454268	-0.481742
	O408	O	1.011113	1.005333	0.759768
	H409	H	1.014431	0.999864	0.757981
	H410	H	0.995286	0.971866	0.758098
	O411	O	0.530036	0.712429	0.695321
	H412	H	0.531556	0.736474	0.718086
	H413	H	0.516987	0.710894	0.678921
	O414	O	0.301172	0.540397	0.284494
	H415	H	0.287336	0.553813	0.290690
	H416	H	0.294848	0.531878	0.282510
	O417	O	0.692072	0.520119	0.302102
	H418	H	0.708009	0.528178	0.290909
	H419	H	0.692626	0.509284	0.319006
	O420	O	0.296664	0.336875	0.477215
	H421	H	0.299171	0.350776	0.508445
	H422	H	0.286993	0.329459	0.470526
	O423	O	-0.199536	1.050005	0.031667
	H424	H	-0.198803	1.047260	0.049711
	H425	H	-0.198476	1.039827	0.017174
	O426	O	1.221538	0.786424	0.956167
	H427	H	1.239616	0.794031	0.971158
	H428	H	1.238861	0.778539	0.967982
	O429	O	0.828088	0.174869	0.798483
	H430	H	0.823595	0.187815	0.841097
	H431	H	0.869618	0.179929	0.790049
	O432	O	0.026446	-0.214888	0.769516
	H433	H	0.033237	-0.230400	0.765291
	H434	H	0.014428	-0.219892	0.772547
	O435	O	0.302580	-0.312265	0.466747
	H436	H	0.314111	-0.301407	0.483167
	H437	H	0.297752	-0.307459	0.467800
	O438	O	1.003254	0.066454	0.158942
	H439	H	1.006433	0.068829	0.155601
	H440	H	1.010960	0.069835	0.168929
	O441	O	0.364513	0.490907	0.443396
	H442	H	0.365955	0.472879	0.451005
	H443	H	0.365217	0.494473	0.463046
	O444	O	0.058922	0.820212	1.013288
	H445	H	0.069144	0.819152	1.021388
	H446	H	0.068599	0.836448	1.013432
	O447	O	0.318428	0.408404	0.674496
	H448	H	0.336469	0.411747	0.678010
	H449	H	0.315265	0.408984	0.672073
	O450	O	0.456811	0.433057	0.378502
	H451	H	0.441890	0.431100	0.372309
	H452	H	0.449613	0.448444	0.371969
	O453	O	-0.116176	0.864111	-0.097841
	H454	H	-0.125864	0.841057	-0.082999
	H455	H	-0.108471	0.871877	-0.098504
	O456	O	0.146000	1.072921	0.111914
	H457	H	0.145657	1.077314	0.105959
	H458	H	0.129853	1.074393	0.098644
	O459	O	0.634651	0.502219	0.646165
	H460	H	0.648981	0.502605	0.645179
	H461	H	0.617087	0.493595	0.661752
	O462	O	0.719899	0.713939	0.501906
	H463	H	0.726107	0.719781	0.538291
	H464	H	0.737099	0.717864	0.515407
	O465	O	0.414003	0.308226	0.674452
	H466	H	0.422666	0.309162	0.642220
	H467	H	0.433371	0.283696	0.696419
