data_Molecule from HDF5

_cell_length_a		15.975681
_cell_length_b		16.408742
_cell_length_c		16.261325
_cell_angle_alpha	90.023490
_cell_angle_beta	90.185360
_cell_angle_gamma	90.519232
_symmetry_space_group_name_H-M	'P 1'
_symmetry_Int_Tables_number		1

loop_
	_symmetry_equiv_pos_as_xyz
	x,y,z

loop_
	_atom_site_label
	_atom_site_type_symbol
	_atom_site_fract_x
	_atom_site_fract_y
	_atom_site_fract_z
	H0	H	0.384840	0.830250	0.714959
	H1	H	0.592707	0.152951	0.718616
	H2	H	0.587859	0.830528	0.282066
	H3	H	0.383417	0.152043	0.277409
	H4	H	0.701910	0.395862	0.834685
	H5	H	0.701526	0.588886	0.163012
	H6	H	0.276064	0.585464	0.834129
	H7	H	0.274290	0.391728	0.162487
	H8	H	0.821690	0.707663	0.400045
	H9	H	0.151876	0.714194	0.604265
	H10	H	0.823200	0.275531	0.604210
	H11	H	0.151765	0.281395	0.399258
	H12	H	0.820515	0.396745	0.712115
	H13	H	0.152802	0.597347	0.716734
	H14	H	0.822693	0.593603	0.283977
	H15	H	0.152747	0.395039	0.287102
	H16	H	0.385030	0.709019	0.836352
	H17	H	0.596457	0.713089	0.158959
	H18	H	0.589531	0.275606	0.835652
	H19	H	0.382360	0.271102	0.158485
	H20	H	0.699162	0.830672	0.401811
	H21	H	0.701722	0.156202	0.595601
	H22	H	0.270705	0.830456	0.595012
	H23	H	0.276109	0.156173	0.400502
	H24	H	0.883957	0.332752	0.219316
	H25	H	0.094184	0.655149	0.218092
	H26	H	0.088712	0.333775	0.779623
	H27	H	0.884758	0.654675	0.782668
	H28	H	0.193881	0.901507	0.333987
	H29	H	0.206026	0.095167	0.661857
	H30	H	0.775032	0.089838	0.333585
	H31	H	0.772034	0.896934	0.662942
	H32	H	0.322828	0.205573	0.891702
	H33	H	0.651214	0.211076	0.101042
	H34	H	0.325829	0.770095	0.103259
	H35	H	0.653681	0.778573	0.897496
	H36	H	0.322145	0.888291	0.211318
	H37	H	0.652819	0.092972	0.213245
	H38	H	0.322236	0.088371	0.783821
	H39	H	0.653198	0.892991	0.785320
	H40	H	0.882390	0.214818	0.337637
	H41	H	0.094059	0.215978	0.661814
	H42	H	0.090484	0.776498	0.339949
	H43	H	0.881427	0.776190	0.661914
	H44	H	0.197160	0.328757	0.901079
	H45	H	0.207859	0.654169	0.097734
	H46	H	0.771151	0.330866	0.098667
	H47	H	0.774367	0.655954	0.901840
	H48	H	0.394607	0.109007	0.590198
	H49	H	0.567280	0.879535	0.594405
	H50	H	0.571798	0.106500	0.403882
	H51	H	0.383349	0.873086	0.398728
	H52	H	0.580568	0.395317	0.116820
	H53	H	0.577411	0.585073	0.882180
	H54	H	0.402502	0.583608	0.114873
	H55	H	0.392236	0.402760	0.881653
	H56	H	0.104419	0.583969	0.411906
	H57	H	0.868085	0.589244	0.591593
	H58	H	0.103651	0.410237	0.591442
	H59	H	0.866030	0.393305	0.411966
	H60	H	0.108186	0.402766	0.594179
	H61	H	0.869371	0.585446	0.590351
	H62	H	0.108214	0.589209	0.406431
	H63	H	0.873431	0.409607	0.420560
	H64	H	0.400010	0.584285	0.115122
	H65	H	0.579803	0.587969	0.881659
	H66	H	0.579296	0.403951	0.113773
	H67	H	0.400279	0.393601	0.882091
	H68	H	0.581318	0.107144	0.410788
	H69	H	0.584166	0.878072	0.583360
	H70	H	0.400553	0.108861	0.597537
	H71	H	0.398983	0.877420	0.398458
	H72	H	0.895980	0.610053	0.095154
	H73	H	0.083721	0.375520	0.097024
	H74	H	0.076497	0.608135	0.904042
	H75	H	0.893660	0.375168	0.899121
	H76	H	0.077547	0.902633	0.616884
	H77	H	0.077765	0.086131	0.385419
	H78	H	0.901841	0.083258	0.612097
	H79	H	0.881627	0.898203	0.378536
	H80	H	0.604440	0.078891	0.909326
	H81	H	0.372561	0.072873	0.085434
	H82	H	0.605016	0.908910	0.092208
	H83	H	0.368606	0.893013	0.911902
	H84	H	0.609768	0.898136	0.094202
	H85	H	0.366008	0.083285	0.094984
	H86	H	0.609107	0.087606	0.905398
	H87	H	0.370769	0.902848	0.907907
	H88	H	0.898435	0.094483	0.616450
	H89	H	0.071900	0.092955	0.384040
	H90	H	0.078112	0.903749	0.617780
	H91	H	0.899039	0.911678	0.387632
	H92	H	0.080578	0.606828	0.914614
	H93	H	0.073933	0.377962	0.098696
	H94	H	0.899664	0.608758	0.095539
	H95	H	0.902543	0.380175	0.906957
	H96	H	0.403103	0.105380	0.589561
	H97	H	0.583962	0.872688	0.602586
	H98	H	0.582179	0.111064	0.397917
	H99	H	0.391273	0.878507	0.413119
	H100	H	0.572019	0.398115	0.113554
	H101	H	0.580898	0.585757	0.880972
	H102	H	0.400543	0.580921	0.113366
	H103	H	0.389133	0.392172	0.877335
	H104	H	0.106818	0.592355	0.415114
	H105	H	0.867514	0.585261	0.594449
	H106	H	0.104209	0.403803	0.586198
	H107	H	0.867013	0.410132	0.401555
	H108	H	0.897749	0.607533	0.092618
	H109	H	0.076753	0.379434	0.089556
	H110	H	0.087724	0.611025	0.906304
	H111	H	0.891195	0.377868	0.911574
	H112	H	0.077256	0.904263	0.616759
	H113	H	0.081101	0.093520	0.381062
	H114	H	0.889459	0.084832	0.616138
	H115	H	0.903528	0.888838	0.382037
	H116	H	0.605074	0.087364	0.915201
	H117	H	0.369094	0.086618	0.080946
	H118	H	0.605818	0.900078	0.083861
	H119	H	0.366075	0.895628	0.901770
	C120	C	0.366529	0.000897	0.620833
	C121	C	0.609614	0.983682	0.621967
	C122	C	0.607439	0.001179	0.375894
	C123	C	0.363561	0.983465	0.374437
	C124	C	0.608026	0.370671	0.006992
	C125	C	0.610421	0.614832	0.989495
	C126	C	0.369055	0.611837	0.007006
	C127	C	0.364506	0.367522	0.988576
	C128	C	-0.003133	0.616212	0.380510
	C129	C	0.978049	0.617161	0.622531
	C130	C	-0.003840	0.374683	0.621075
	C131	C	0.978084	0.374933	0.380840
	C132	C	0.866447	0.501937	0.123124
	C133	C	0.110826	0.484365	0.123618
	C134	C	0.109726	0.501759	0.878205
	C135	C	0.866606	0.484989	0.877921
	C136	C	0.106840	0.874724	0.508970
	C137	C	0.109165	0.119234	0.490972
	C138	C	0.865846	0.116618	0.507411
	C139	C	0.864499	0.871534	0.490567
	C140	C	0.496596	0.112213	0.878516
	C141	C	0.478023	0.112659	0.118741
	C142	C	0.497567	0.870426	0.119723
	C143	C	0.478624	0.870117	0.878316
	C144	C	0.365494	0.878863	0.676368
	C145	C	0.611125	0.105169	0.679175
	C146	C	0.606893	0.879161	0.320254
	C147	C	0.364427	0.104339	0.316807
	C148	C	0.664142	0.374277	0.883673
	C149	C	0.665552	0.610910	0.113223
	C150	C	0.312609	0.607725	0.883627
	C151	C	0.310327	0.370482	0.112544
	C152	C	0.871631	0.670437	0.380356
	C153	C	0.102393	0.675064	0.623073
	C154	C	0.871985	0.315747	0.622183
	C155	C	0.102343	0.319176	0.380534
	C156	C	0.870700	0.376208	0.675750
	C157	C	0.102863	0.616841	0.678872
	C158	C	0.872081	0.613739	0.322827
	C159	C	0.102977	0.375900	0.324770
	C160	C	0.366943	0.669294	0.884835
	C161	C	0.612649	0.672315	0.111311
	C162	C	0.608348	0.314452	0.884284
	C163	C	0.364068	0.310448	0.110545
	C164	C	0.662179	0.879185	0.380087
	C165	C	0.665383	0.106642	0.617914
	C166	C	0.308285	0.879247	0.616973
	C167	C	0.311107	0.106649	0.378120
	C168	C	0.865289	0.380621	0.180114
	C169	C	0.112489	0.606454	0.179300
	C170	C	0.108162	0.381024	0.819589
	C171	C	0.866514	0.606640	0.821700
	C172	C	0.159748	0.878955	0.384582
	C173	C	0.167610	0.116337	0.613208
	C174	C	0.810818	0.112630	0.383614
	C175	C	0.808861	0.875274	0.613790
	C176	C	0.372375	0.167402	0.875316
	C177	C	0.602010	0.171317	0.119540
	C178	C	0.374318	0.810405	0.120390
	C179	C	0.604041	0.816185	0.879057
	C180	C	0.372493	0.869415	0.174496
	C181	C	0.602605	0.112750	0.175899
	C182	C	0.371979	0.108901	0.821241
	C183	C	0.603756	0.872847	0.822885
	C184	C	0.864389	0.174730	0.385616
	C185	C	0.111910	0.176435	0.613107
	C186	C	0.107784	0.816886	0.387424
	C187	C	0.863709	0.815550	0.613303
	C188	C	0.162251	0.378613	0.880072
	C189	C	0.169532	0.605939	0.119856
	C190	C	0.809542	0.379509	0.119905
	C191	C	0.811541	0.607335	0.881003
	C192	C	0.392067	0.085735	0.598802
	C193	C	0.585517	0.898804	0.599945
	C194	C	0.585007	0.086290	0.397737
	C195	C	0.384963	0.898338	0.396912
	C196	C	0.584248	0.392558	0.092450
	C197	C	0.586560	0.592760	0.903720
	C198	C	0.393766	0.589346	0.092392
	C199	C	0.387278	0.389625	0.902665
	C200	C	0.083843	0.594783	0.404219
	C201	C	0.890813	0.593630	0.598962
	C202	C	0.082919	0.398546	0.597470
	C203	C	0.891408	0.397883	0.404291
	C204	C	0.890567	0.586676	0.100861
	C205	C	0.085511	0.399709	0.101735
	C206	C	0.088073	0.586613	0.901513
	C207	C	0.889220	0.399818	0.899633
	C208	C	0.084274	0.897061	0.594909
	C209	C	0.084156	0.097378	0.405711
	C210	C	0.889552	0.094153	0.592968
	C211	C	0.887843	0.893357	0.405021
	C212	C	0.583525	0.090872	0.902918
	C213	C	0.391474	0.088205	0.094117
	C214	C	0.584466	0.895092	0.096797
	C215	C	0.391259	0.891048	0.900690
	Zn216	Zn	0.488252	-0.008473	0.752298
	Zn217	Zn	0.486454	-0.008945	0.246254
	Zn218	Zn	0.738048	0.492806	-0.001148
	Zn219	Zn	0.238884	0.490396	-0.000543
	Zn220	Zn	-0.013114	0.744563	0.501067
	Zn221	Zn	-0.013279	0.247490	0.499894
	Zn222	Zn	-0.012501	0.495014	0.749283
	Zn223	Zn	-0.011760	0.494134	0.253431
	Zn224	Zn	0.489446	0.743394	-0.001611
	Zn225	Zn	0.486165	0.240724	-0.003099
	Zn226	Zn	0.737119	-0.006289	0.498143
	Zn227	Zn	0.236545	-0.005276	0.498130
	N228	N	0.400895	0.955546	0.679050
	N229	N	0.577178	0.027783	0.681957
	N230	N	0.573579	0.956045	0.317549
	N231	N	0.396340	0.026869	0.314489
	N232	N	0.664379	0.408447	0.961045
	N233	N	0.664271	0.575742	0.036450
	N234	N	0.313604	0.572793	0.960729
	N235	N	0.310109	0.405063	0.035542
	N236	N	0.950184	0.672150	0.415455
	N237	N	0.023632	0.675389	0.588588
	N238	N	0.951021	0.314763	0.589044
	N239	N	0.023807	0.318507	0.414710
	N240	N	0.948991	0.412137	0.675241
	N241	N	0.024584	0.581559	0.678563
	N242	N	0.950926	0.580615	0.322773
	N243	N	0.024629	0.410233	0.324943
	N244	N	0.400979	0.672290	0.962585
	N245	N	0.579077	0.675008	0.033369
	N246	N	0.574359	0.312136	0.961885
	N247	N	0.396663	0.308386	0.032332
	N248	N	0.662926	0.955965	0.413904
	N249	N	0.664544	0.030309	0.582968
	N250	N	0.308819	0.956215	0.583374
	N251	N	0.310112	0.030467	0.413162
	N252	N	0.900024	0.457647	0.182236
	N253	N	0.076889	0.529857	0.181946
	N254	N	0.076083	0.458545	0.818075
	N255	N	0.900179	0.529655	0.819892
	N256	N	0.159018	0.914506	0.461240
	N257	N	0.166310	0.081735	0.536275
	N258	N	0.811591	0.077245	0.460325
	N259	N	0.809193	0.909484	0.536583
	N260	N	0.450900	0.169579	0.910398
	N261	N	0.523168	0.171649	0.084930
	N262	N	0.453313	0.811041	0.086939
	N263	N	0.525157	0.814247	0.912890
	N264	N	0.450133	0.906180	0.174064
	N265	N	0.524483	0.076931	0.175358
	N266	N	0.450422	0.075290	0.823035
	N267	N	0.524813	0.905587	0.822171
	N268	N	0.897976	0.177339	0.463676
	N269	N	0.076030	0.178231	0.536016
	N270	N	0.075607	0.814092	0.465714
	N271	N	0.897555	0.812931	0.535736
	N272	N	0.163196	0.454580	0.916078
	N273	N	0.168587	0.529131	0.085932
	N274	N	0.810107	0.455895	0.085014
	N275	N	0.811192	0.530655	0.915088
	O276	O	1.027521	0.072813	0.955825
	H277	H	1.031656	0.073156	0.939465
	H278	H	1.033772	0.059804	0.956715
	O279	O	0.593016	0.446419	0.530206
	H280	H	0.589782	0.446942	0.535025
	H281	H	0.609111	0.454834	0.526592
	O282	O	0.422134	0.530358	0.559484
	H283	H	0.409552	0.523590	0.551671
	H284	H	0.430279	0.530893	0.562108
	O285	O	0.488002	0.348436	0.450675
	H286	H	0.509749	0.342509	0.471279
	H287	H	0.475376	0.359401	0.464755
	O288	O	0.523523	0.407732	0.376295
	H289	H	0.530372	0.406177	0.385222
	H290	H	0.529991	0.393726	0.360936
	O291	O	-0.109325	-0.152669	1.137410
	H292	H	-0.126146	-0.146597	1.142418
	H293	H	-0.107047	-0.156219	1.152682
	O294	O	0.518682	1.455725	0.539669
	H295	H	0.525308	1.459423	0.553833
	H296	H	0.527518	1.459922	0.539915
	O297	O	1.083510	0.933361	-0.045962
	H298	H	1.070007	0.931468	-0.043931
	H299	H	1.083759	0.920484	-0.038337
	O300	O	0.531126	0.650550	0.424235
	H301	H	0.537612	0.648222	0.417494
	H302	H	0.540775	0.656996	0.429373
	O303	O	0.354044	0.606757	0.394029
	H304	H	0.344687	0.597353	0.398122
	H305	H	0.356032	0.617525	0.395228
	O306	O	1.169759	1.033725	1.004460
	H307	H	1.179003	1.038118	1.027353
	H308	H	1.178154	1.031104	1.001066
	O309	O	0.438320	0.377989	0.453626
	H310	H	0.438865	0.370086	0.454177
	H311	H	0.437558	0.368908	0.450967
	O312	O	0.889120	0.973326	1.008395
	H313	H	0.890016	0.971073	1.012257
	H314	H	0.878066	0.990446	0.998573
	O315	O	0.999071	1.033025	-0.173156
	H316	H	0.975165	1.035879	-0.158405
	H317	H	1.007139	1.038092	-0.176830
	O318	O	0.399833	0.492977	0.518424
	H319	H	0.396062	0.495507	0.507114
	H320	H	0.390872	0.490246	0.519787
	O321	O	0.382431	0.502260	0.507628
	H322	H	0.381653	0.510669	0.506332
	H323	H	0.382791	0.484596	0.505538
	O324	O	-0.023729	0.871325	0.948479
	H325	H	-0.019817	0.857013	0.947426
	H326	H	-0.026008	0.870830	0.949994
	O327	O	0.065951	0.884618	1.066539
	H328	H	0.073407	0.880350	1.070234
	H329	H	0.060793	0.879282	1.040569
	O330	O	-0.150571	0.109621	-0.123003
	H331	H	-0.158862	0.110327	-0.101818
	H332	H	-0.157944	0.106657	-0.119298
	O333	O	0.510109	0.556703	0.413817
	H334	H	0.510359	0.554857	0.413437
	H335	H	0.510800	0.548000	0.399792
	O336	O	-0.018013	0.019761	-0.145112
	H337	H	-0.012088	0.032635	-0.149453
	H338	H	-0.025861	0.026812	-0.144304
	O339	O	0.006641	-0.053946	-0.164658
	H340	H	0.011229	-0.037503	-0.150030
	H341	H	0.006683	-0.066953	-0.171935
	O342	O	0.504502	0.556055	0.478454
	H343	H	0.510173	0.562528	0.486559
	H344	H	0.518635	0.562625	0.466363
	O345	O	0.145199	1.037124	1.147756
	H346	H	0.121224	1.027356	1.144553
	H347	H	0.140464	1.027171	1.148332
	O348	O	0.461891	0.375219	0.536860
	H349	H	0.460386	0.372389	0.532015
	H350	H	0.453556	0.376827	0.538655
	O351	O	0.642353	0.551443	0.565990
	H352	H	0.630219	0.556073	0.564209
	H353	H	0.649425	0.557078	0.572691
	O354	O	0.537289	0.408614	0.603204
	H355	H	0.534121	0.419529	0.610673
	H356	H	0.532992	0.412544	0.593238
	O357	O	0.981420	0.861857	-0.091700
	H358	H	0.979919	0.874623	-0.105037
	H359	H	0.985940	0.863950	-0.084241
	O360	O	0.999461	0.150286	0.916771
	H361	H	1.002628	0.155114	0.906518
	H362	H	0.996126	0.149532	0.906258
	O363	O	0.602788	0.514372	0.387310
	H364	H	0.614391	0.508023	0.377306
	H365	H	0.579307	0.514169	0.384376
	O366	O	0.811936	0.947382	0.103661
	H367	H	0.812683	0.946984	0.117911
	H368	H	0.806583	0.957928	0.092353
	O369	O	0.874093	0.109145	0.078432
	H370	H	0.895813	0.108156	0.076578
	H371	H	0.877169	0.099202	0.073772
	O372	O	0.437441	0.550676	0.531946
	H373	H	0.431031	0.527392	0.538118
	H374	H	0.437196	0.546718	0.519943
	O375	O	0.912398	-0.052219	1.098472
	H376	H	0.911371	-0.053696	1.100034
	H377	H	0.918051	-0.059991	1.089411
	O378	O	0.067101	1.077677	0.109585
	H379	H	0.082327	1.078842	0.123905
	H380	H	0.079690	1.056802	0.099032
	O381	O	0.421543	0.429593	0.361766
	H382	H	0.410979	0.436598	0.344078
	H383	H	0.425236	0.435118	0.362068
	O384	O	0.979170	1.124985	-0.007920
	H385	H	0.990585	1.141166	-0.030222
	H386	H	0.991777	1.117065	-0.014942
	O387	O	0.983751	-0.112748	1.041437
	H388	H	0.989587	-0.121189	1.030258
	H389	H	0.985857	-0.108990	1.035817
	O390	O	1.099961	1.154364	0.083579
	H391	H	1.119059	1.178658	0.081493
	H392	H	1.108860	1.146829	0.106461
	O393	O	0.492693	0.632924	0.564204
	H394	H	0.488455	0.637323	0.558691
	H395	H	0.497356	0.630429	0.573762
