data_Molecule from HDF5

_cell_length_a		16.517143
_cell_length_b		16.357735
_cell_length_c		16.409987
_cell_angle_alpha	89.855749
_cell_angle_beta	90.050462
_cell_angle_gamma	89.981000
_symmetry_space_group_name_H-M	'P 1'
_symmetry_Int_Tables_number		1

loop_
	_symmetry_equiv_pos_as_xyz
	x,y,z

loop_
	_atom_site_label
	_atom_site_type_symbol
	_atom_site_fract_x
	_atom_site_fract_y
	_atom_site_fract_z
	H0	H	0.389120	0.841243	0.720691
	H1	H	0.600682	0.157306	0.714879
	H2	H	0.605581	0.841089	0.271311
	H3	H	0.387020	0.154948	0.269396
	H4	H	0.719853	0.392860	0.840886
	H5	H	0.722826	0.608975	0.153578
	H6	H	0.271993	0.609478	0.839435
	H7	H	0.271022	0.388817	0.152324
	H8	H	0.842151	0.725954	0.385895
	H9	H	0.154952	0.723306	0.603448
	H10	H	0.841746	0.277568	0.601068
	H11	H	0.154414	0.275794	0.388260
	H12	H	0.841210	0.394071	0.716915
	H13	H	0.154844	0.608143	0.720573
	H14	H	0.842133	0.611210	0.269782
	H15	H	0.155186	0.393992	0.274276
	H16	H	0.390587	0.721954	0.837774
	H17	H	0.604837	0.723172	0.153868
	H18	H	0.602264	0.277636	0.839372
	H19	H	0.388684	0.274933	0.154429
	H20	H	0.725512	0.843076	0.382816
	H21	H	0.717399	0.157258	0.598481
	H22	H	0.270824	0.842202	0.608696
	H23	H	0.271565	0.155483	0.385998
	H24	H	0.890830	0.341448	0.220163
	H25	H	0.105915	0.657169	0.219506
	H26	H	0.100692	0.339621	0.777623
	H27	H	0.891178	0.658382	0.773886
	H28	H	0.223824	0.888759	0.340577
	H29	H	0.221477	0.107847	0.652923
	H30	H	0.772264	0.109871	0.338142
	H31	H	0.774846	0.892165	0.653806
	H32	H	0.338543	0.218731	0.893582
	H33	H	0.654495	0.221792	0.104386
	H34	H	0.340419	0.775071	0.103208
	H35	H	0.655075	0.776399	0.890398
	H36	H	0.340314	0.892003	0.219151
	H37	H	0.653121	0.107401	0.221430
	H38	H	0.339338	0.103215	0.775597
	H39	H	0.655089	0.892704	0.774507
	H40	H	0.892347	0.222095	0.337140
	H41	H	0.101376	0.218776	0.654832
	H42	H	0.103762	0.777308	0.337955
	H43	H	0.891404	0.776946	0.654202
	H44	H	0.220285	0.341510	0.889255
	H45	H	0.224132	0.654698	0.106433
	H46	H	0.777743	0.339708	0.102410
	H47	H	0.772901	0.657035	0.888309
	H48	H	0.411477	0.110047	0.581434
	H49	H	0.585256	0.884055	0.586840
	H50	H	0.586671	0.111011	0.411566
	H51	H	0.409003	0.887927	0.414242
	H52	H	0.587394	0.410673	0.111561
	H53	H	0.587340	0.590248	0.881915
	H54	H	0.412060	0.581955	0.106371
	H55	H	0.410885	0.414944	0.886798
	H56	H	0.107830	0.582297	0.406310
	H57	H	0.887018	0.585498	0.584602
	H58	H	0.115165	0.404586	0.588401
	H59	H	0.885677	0.415074	0.405752
	H60	H	0.110496	0.409216	0.582543
	H61	H	0.885319	0.588480	0.585606
	H62	H	0.111264	0.590547	0.406583
	H63	H	0.884717	0.408512	0.408579
	H64	H	0.411958	0.587923	0.107963
	H65	H	0.588419	0.581457	0.885033
	H66	H	0.586266	0.409230	0.111596
	H67	H	0.411302	0.408098	0.883600
	H68	H	0.584291	0.111722	0.406161
	H69	H	0.585240	0.885373	0.581829
	H70	H	0.405529	0.112048	0.581781
	H71	H	0.408441	0.884514	0.408488
	H72	H	0.908844	0.612283	0.081626
	H73	H	0.079223	0.391419	0.075717
	H74	H	0.084243	0.610821	0.912241
	H75	H	0.911011	0.386046	0.906069
	H76	H	0.090642	0.907383	0.611924
	H77	H	0.086439	0.087273	0.382571
	H78	H	0.912343	0.088836	0.607134
	H79	H	0.913512	0.911747	0.384336
	H80	H	0.611619	0.091164	0.906522
	H81	H	0.384906	0.084348	0.086295
	H82	H	0.606780	0.918472	0.085435
	H83	H	0.383840	0.908405	0.906501
	H84	H	0.612423	0.906759	0.087009
	H85	H	0.384231	0.089373	0.084571
	H86	H	0.609882	0.088028	0.908391
	H87	H	0.385755	0.909930	0.910412
	H88	H	0.904561	0.089491	0.609812
	H89	H	0.086327	0.084998	0.382652
	H90	H	0.086763	0.920410	0.606921
	H91	H	0.907317	0.911727	0.382159
	H92	H	0.088091	0.613824	0.908653
	H93	H	0.093892	0.383379	0.082347
	H94	H	0.908869	0.612984	0.083878
	H95	H	0.907275	0.386454	0.910220
	H96	H	0.409298	0.112716	0.587090
	H97	H	0.589770	0.883334	0.583807
	H98	H	0.581150	0.109084	0.410153
	H99	H	0.414484	0.888196	0.409914
	H100	H	0.588065	0.408734	0.112642
	H101	H	0.580350	0.586028	0.885578
	H102	H	0.406978	0.584312	0.109100
	H103	H	0.405150	0.411938	0.883231
	H104	H	0.107901	0.586934	0.414240
	H105	H	0.886984	0.588230	0.582457
	H106	H	0.112465	0.413015	0.590035
	H107	H	0.888148	0.413413	0.412120
	H108	H	0.910757	0.611814	0.083013
	H109	H	0.079471	0.385258	0.092426
	H110	H	0.082577	0.612113	0.907177
	H111	H	0.905420	0.384371	0.904945
	H112	H	0.077432	0.909460	0.606736
	H113	H	0.084949	0.086364	0.383866
	H114	H	0.907017	0.082346	0.606870
	H115	H	0.909678	0.917344	0.385463
	H116	H	0.610995	0.087329	0.904535
	H117	H	0.386620	0.085358	0.081116
	H118	H	0.606294	0.909754	0.076250
	H119	H	0.385715	0.912586	0.906597
	C120	C	0.375256	0.007273	0.617893
	C121	C	0.618492	0.989486	0.615878
	C122	C	0.618481	0.007072	0.374715
	C123	C	0.375782	0.990298	0.375486
	C124	C	0.618623	0.377197	0.007255
	C125	C	0.618803	0.619845	0.988306
	C126	C	0.375964	0.619792	0.004352
	C127	C	0.375532	0.377645	0.988231
	C128	C	0.006338	0.621933	0.374219
	C129	C	0.989887	0.621354	0.617870
	C130	C	0.008245	0.377040	0.618087
	C131	C	0.989605	0.378788	0.375378
	C132	C	0.876373	0.508054	0.117575
	C133	C	0.118668	0.490768	0.117447
	C134	C	0.118079	0.507843	0.876055
	C135	C	0.875243	0.490820	0.874226
	C136	C	0.119116	0.877871	0.504820
	C137	C	0.118800	0.119875	0.487222
	C138	C	0.875817	0.120928	0.503617
	C139	C	0.876389	0.878827	0.487831
	C140	C	0.505771	0.120533	0.874936
	C141	C	0.488527	0.120300	0.118204
	C142	C	0.505363	0.877732	0.116888
	C143	C	0.489029	0.876943	0.874162
	C144	C	0.371510	0.888935	0.680211
	C145	C	0.619860	0.109516	0.675383
	C146	C	0.623315	0.888600	0.311752
	C147	C	0.370306	0.108047	0.311369
	C148	C	0.679163	0.374658	0.887904
	C149	C	0.681194	0.625364	0.106536
	C150	C	0.313161	0.625823	0.886478
	C151	C	0.312883	0.372441	0.105998
	C152	C	0.888962	0.684879	0.369073
	C153	C	0.107826	0.683172	0.621477
	C154	C	0.889108	0.317452	0.619635
	C155	C	0.107491	0.316648	0.370898
	C156	C	0.889106	0.375511	0.677367
	C157	C	0.107790	0.625415	0.679654
	C158	C	0.889234	0.627609	0.310906
	C159	C	0.107815	0.375591	0.314219
	C160	C	0.372573	0.681930	0.885618
	C161	C	0.622659	0.682553	0.106526
	C162	C	0.620937	0.317123	0.887617
	C163	C	0.371692	0.315763	0.106935
	C164	C	0.682995	0.889575	0.367424
	C165	C	0.677687	0.109577	0.617565
	C166	C	0.312436	0.889496	0.624144
	C167	C	0.312863	0.108353	0.369491
	C168	C	0.873477	0.388894	0.179334
	C169	C	0.123172	0.609414	0.179200
	C170	C	0.120313	0.387980	0.816243
	C171	C	0.872585	0.610443	0.813714
	C172	C	0.181738	0.872925	0.387023
	C173	C	0.180164	0.124218	0.605924
	C174	C	0.813825	0.126116	0.385388
	C175	C	0.815139	0.874791	0.606365
	C176	C	0.386460	0.179496	0.873988
	C177	C	0.606755	0.181832	0.121967
	C178	C	0.387392	0.815845	0.120877
	C179	C	0.607664	0.816555	0.871690
	C180	C	0.387338	0.874159	0.178445
	C181	C	0.606371	0.124460	0.180284
	C182	C	0.386814	0.121833	0.815502
	C183	C	0.607504	0.874115	0.813669
	C184	C	0.873586	0.182310	0.384672
	C185	C	0.120531	0.179741	0.606834
	C186	C	0.121955	0.817204	0.385767
	C187	C	0.873315	0.817305	0.606543
	C188	C	0.179443	0.388636	0.872268
	C189	C	0.182150	0.608179	0.122841
	C190	C	0.816387	0.388350	0.121237
	C191	C	0.813774	0.609666	0.870905
	C192	C	0.401465	0.090083	0.590878
	C193	C	0.593899	0.906018	0.591190
	C194	C	0.591729	0.089006	0.401631
	C195	C	0.402797	0.908317	0.403174
	C196	C	0.594189	0.402450	0.090042
	C197	C	0.592909	0.593439	0.905779
	C198	C	0.402669	0.592535	0.086366
	C199	C	0.401680	0.404177	0.906021
	C200	C	0.087530	0.594825	0.401256
	C201	C	0.907758	0.595055	0.591713
	C202	C	0.091031	0.401762	0.593773
	C203	C	0.907744	0.404754	0.401449
	C204	C	0.901963	0.590995	0.090689
	C205	C	0.091945	0.408266	0.090988
	C206	C	0.092276	0.590586	0.902004
	C207	C	0.900424	0.407362	0.899864
	C208	C	0.092612	0.904562	0.587199
	C209	C	0.093201	0.093810	0.404705
	C210	C	0.900805	0.094395	0.586316
	C211	C	0.902654	0.905885	0.405331
	C212	C	0.589109	0.095904	0.899435
	C213	C	0.406618	0.094112	0.091770
	C214	C	0.587120	0.904082	0.090434
	C215	C	0.406743	0.902831	0.900173
	Zn216	Zn	0.497535	-0.000958	0.745453
	Zn217	Zn	0.497164	-0.001471	0.246737
	Zn218	Zn	0.747660	0.499111	-0.002453
	Zn219	Zn	0.247093	0.498943	-0.004059
	Zn220	Zn	-0.002427	0.749813	0.496121
	Zn221	Zn	-0.001789	0.248691	0.495429
	Zn222	Zn	-0.001787	0.499600	0.746587
	Zn223	Zn	-0.002381	0.499641	0.245632
	Zn224	Zn	0.497469	0.748422	-0.004197
	Zn225	Zn	0.496394	0.249270	-0.002773
	Zn226	Zn	0.747214	-0.001114	0.494886
	Zn227	Zn	0.247267	-0.000915	0.496756
	N228	N	0.410033	0.963279	0.676461
	N229	N	0.583975	0.033703	0.674665
	N230	N	0.584053	0.962574	0.315984
	N231	N	0.408914	0.033719	0.315042
	N232	N	0.678021	0.411288	0.963140
	N233	N	0.679129	0.587239	0.031942
	N234	N	0.315125	0.588014	0.961302
	N235	N	0.315142	0.410295	0.031284
	N236	N	0.962637	0.681429	0.407816
	N237	N	0.033477	0.680901	0.583846
	N238	N	0.964230	0.318058	0.583647
	N239	N	0.033143	0.318541	0.408136
	N240	N	0.964093	0.411772	0.676790
	N241	N	0.033429	0.587937	0.677586
	N242	N	0.963175	0.589181	0.313685
	N243	N	0.033624	0.413508	0.316670
	N244	N	0.411069	0.678334	0.959785
	N245	N	0.584645	0.679189	0.032101
	N246	N	0.584200	0.318361	0.962639
	N247	N	0.410207	0.319244	0.032903
	N248	N	0.680061	0.964051	0.405830
	N249	N	0.677037	0.033875	0.581574
	N250	N	0.314865	0.964343	0.585910
	N251	N	0.316189	0.034095	0.408629
	N252	N	0.909694	0.464566	0.177487
	N253	N	0.084128	0.535417	0.175615
	N254	N	0.082817	0.462858	0.818554
	N255	N	0.909818	0.535391	0.815459
	N256	N	0.180080	0.909751	0.462216
	N257	N	0.179496	0.088130	0.530418
	N258	N	0.815265	0.088434	0.460246
	N259	N	0.816877	0.911919	0.531146
	N260	N	0.461550	0.178861	0.910091
	N261	N	0.532314	0.179671	0.084363
	N262	N	0.461848	0.817616	0.083603
	N263	N	0.533009	0.818129	0.908521
	N264	N	0.461741	0.911741	0.176207
	N265	N	0.531891	0.087144	0.178122
	N266	N	0.462204	0.086051	0.815979
	N267	N	0.532584	0.910774	0.815045
	N268	N	0.911689	0.178967	0.459133
	N269	N	0.082787	0.176961	0.532114
	N270	N	0.083903	0.820029	0.460144
	N271	N	0.910478	0.819624	0.531600
	N272	N	0.178476	0.464373	0.908566
	N273	N	0.179321	0.533351	0.085029
	N274	N	0.818140	0.463587	0.083552
	N275	N	0.815096	0.533982	0.907623
	O276	O	0.473011	0.457815	0.504819
	H277	H	0.473269	0.476368	0.510218
	H278	H	0.457618	0.459574	0.500934
	O279	O	0.799796	0.174420	0.792452
	H280	H	0.796212	0.182593	0.832220
	H281	H	0.778131	0.202251	0.771870
	O282	O	0.420521	0.304939	0.704028
	H283	H	0.390182	0.336833	0.702978
	H284	H	0.418183	0.281058	0.715596
	O285	O	0.475522	0.714733	0.281742
	H286	H	0.474041	0.724729	0.250541
	H287	H	0.457061	0.699742	0.271788
	O288	O	0.974541	0.790379	0.205122
	H289	H	0.987986	0.768928	0.222890
	H290	H	0.994443	0.802891	0.211671
	O291	O	0.552637	0.707265	0.707587
	H292	H	0.543204	0.728412	0.689210
	H293	H	0.530971	0.730971	0.706607
	O294	O	0.184913	-0.191500	0.920963
	H295	H	0.170132	-0.207432	0.908822
	H296	H	0.187521	-0.154555	0.908439
	O297	O	0.285819	0.561670	0.552295
	H298	H	0.283654	0.559528	0.537013
	H299	H	0.280503	0.577101	0.536597
	O300	O	0.702719	0.578475	0.422303
	H301	H	0.696155	0.583338	0.433658
	H302	H	0.683659	0.592593	0.434194
	O303	O	0.517254	0.279616	0.279984
	H304	H	0.569941	0.291346	0.294695
	H305	H	0.522654	0.241827	0.246887
	O306	O	0.547182	0.718276	0.448128
	H307	H	0.559884	0.726438	0.429753
	H308	H	0.547229	0.721599	0.430528
	O309	O	0.459445	0.451186	0.282841
	H310	H	0.465886	0.430487	0.286736
	H311	H	0.468809	0.429549	0.294568
	O312	O	0.104175	0.782989	1.022070
	H313	H	0.127717	0.764857	1.025633
	H314	H	0.097769	0.785023	1.014901
	O315	O	0.720382	0.462462	0.541888
	H316	H	0.720238	0.467051	0.544975
	H317	H	0.716992	0.477737	0.552223
	O318	O	0.808787	-0.070093	-0.072032
	H319	H	0.835607	-0.069917	-0.076160
	H320	H	0.813328	-0.072793	-0.090574
	O321	O	-0.016310	-0.129156	-0.052377
	H322	H	-0.010491	-0.128590	-0.047111
	H323	H	-0.013322	-0.138120	-0.059703
	O324	O	0.713305	0.476191	0.281643
	H325	H	0.735086	0.488807	0.273818
	H326	H	0.721872	0.497555	0.287541
	O327	O	0.675984	0.324858	0.689207
	H328	H	0.660625	0.332374	0.666060
	H329	H	0.668157	0.345875	0.678711
	O330	O	-0.186367	0.824020	0.175315
	H331	H	-0.165085	0.811384	0.151102
	H332	H	-0.164157	0.811439	0.155319
	O333	O	0.671023	0.315348	0.320206
	H334	H	0.682673	0.321166	0.361661
	H335	H	0.686857	0.354390	0.320045
	O336	O	0.184343	0.090691	0.053780
	H337	H	0.164375	0.075743	0.044646
	H338	H	0.176926	0.105142	0.050523
	O339	O	0.190745	0.921721	0.799421
	H340	H	0.192988	0.939704	0.814758
	H341	H	0.198154	0.942520	0.792298
	O342	O	0.054455	1.010483	1.124813
	H343	H	0.046430	1.029053	1.128906
	H344	H	0.059891	1.025071	1.130449
	O345	O	1.097035	1.067411	0.165450
	H346	H	1.075548	1.055641	0.155075
	H347	H	1.087684	1.073531	0.175549
	O348	O	0.311791	0.686110	0.309403
	H349	H	0.322936	0.689182	0.309473
	H350	H	0.300266	0.647479	0.299673
	O351	O	0.005441	1.039103	0.924173
	H352	H	-0.004544	1.033755	0.919600
	H353	H	0.007708	1.032045	0.924545
	O354	O	0.198309	0.984925	0.167560
	H355	H	0.211000	0.993330	0.176016
	H356	H	0.201978	0.993178	0.160900
	O357	O	-0.214953	0.049784	1.034163
	H358	H	-0.211956	0.019202	1.025576
	H359	H	-0.220044	0.031498	1.045471
	O360	O	0.655945	0.524147	0.710008
	H361	H	0.676959	0.531840	0.730847
	H362	H	0.623486	0.510007	0.711465
	O363	O	0.015408	-0.200423	0.786307
	H364	H	0.003387	-0.177226	0.773289
	H365	H	0.030680	-0.216655	0.766933
	O366	O	0.299526	0.521022	0.289382
	H367	H	0.313164	0.498600	0.278871
	H368	H	0.298296	0.504286	0.278424
	O369	O	0.431893	0.713074	0.569339
	H370	H	0.419745	0.715202	0.542468
	H371	H	0.441003	0.703724	0.555938
	O372	O	1.121291	-0.178082	1.067173
	H373	H	1.106527	-0.160804	1.052036
	H374	H	1.133916	-0.163698	1.049382
	O375	O	0.531915	0.307520	0.531596
	H376	H	0.524455	0.320319	0.532475
	H377	H	0.513345	0.308837	0.544447
	O378	O	0.970111	1.035956	1.117637
	H379	H	0.966445	1.039640	1.122072
	H380	H	0.954298	1.031316	1.103765
	O381	O	0.691752	0.650530	0.684338
	H382	H	0.645676	0.668626	0.693940
	H383	H	0.709454	0.629611	0.687413
	O384	O	0.699838	0.300588	0.481973
	H385	H	0.719861	0.314906	0.494739
	H386	H	0.671085	0.289434	0.500779
	O387	O	-0.004471	0.017480	0.862028
	H388	H	-0.000683	0.027090	0.857402
	H389	H	-0.005420	0.022529	0.866697
	O390	O	0.153797	0.173709	0.023123
	H391	H	0.151162	0.169335	0.041014
	H392	H	0.150015	0.182029	0.027614
	O393	O	0.959553	1.203632	0.787296
	H394	H	0.937505	1.211756	0.792931
	H395	H	0.952468	1.208533	0.768455
	O396	O	0.943516	0.094336	0.094935
	H397	H	0.921078	0.090710	0.097242
	H398	H	0.942158	0.067794	0.077380
	O399	O	0.812156	0.021778	0.795339
	H400	H	0.798224	0.036526	0.777584
	H401	H	0.810625	0.055415	0.798672
	O402	O	1.073730	1.006933	0.815795
	H403	H	1.076510	1.022281	0.810263
	H404	H	1.074518	1.032867	0.822871
	O405	O	0.778501	0.981651	0.212286
	H406	H	0.776748	0.941565	0.211991
	H407	H	0.757007	0.962539	0.238037
	O408	O	0.792579	-0.203525	0.001849
	H409	H	0.810361	-0.200816	-0.018875
	H410	H	0.777944	-0.216417	-0.013412
	O411	O	1.143389	1.218439	0.195921
	H412	H	1.127324	1.214254	0.184654
	H413	H	1.131960	1.209623	0.201386
	O414	O	0.483453	0.555719	0.709468
	H415	H	0.485960	0.555089	0.711915
	H416	H	0.476223	0.568865	0.712760
	O417	O	0.303525	0.458656	0.455355
	H418	H	0.296261	0.456781	0.446943
	H419	H	0.307546	0.446076	0.449468
	O420	O	0.418849	0.296932	0.417599
	H421	H	0.424194	0.284690	0.400672
	H422	H	0.442431	0.303607	0.416668
	O423	O	0.717210	0.719428	0.519534
	H424	H	0.750016	0.751018	0.524203
	H425	H	0.709848	0.705738	0.533178
	O426	O	0.554049	0.560230	0.295299
	H427	H	0.565424	0.568630	0.288985
	H428	H	0.532201	0.524801	0.295884
	O429	O	0.279349	0.718265	0.472614
	H430	H	0.248208	0.751795	0.468385
	H431	H	0.295722	0.716565	0.445576
	O432	O	0.290568	0.296135	0.516779
	H433	H	0.297024	0.286158	0.512791
	H434	H	0.285071	0.283403	0.509631
	O435	O	0.298009	0.367562	0.694571
	H436	H	0.287076	0.388761	0.688847
	H437	H	0.307550	0.387496	0.685385
	O438	O	0.010991	0.173515	0.110834
	H439	H	-0.009515	0.159955	0.105917
	H440	H	-0.000317	0.180282	0.114739
	O441	O	0.783893	0.208243	-0.039211
	H442	H	0.764469	0.210324	-0.029239
	H443	H	0.762114	0.196169	-0.020465
	O444	O	0.125954	1.080287	0.860181
	H445	H	0.121965	1.083366	0.875192
	H446	H	0.120865	1.106496	0.869444
	O447	O	0.538869	0.508617	0.516971
	H448	H	0.528601	0.518153	0.511458
	H449	H	0.543831	0.523248	0.521872
	O450	O	0.338906	0.508043	0.694372
	H451	H	0.342201	0.517122	0.688657
	H452	H	0.325866	0.520244	0.694150
	O453	O	0.507473	0.361680	0.689757
	H454	H	0.496881	0.358052	0.701028
	H455	H	0.477934	0.359846	0.685671
