data_Molecule from HDF5

_cell_length_a		16.106184
_cell_length_b		16.363984
_cell_length_c		16.207399
_cell_angle_alpha	90.453182
_cell_angle_beta	89.820791
_cell_angle_gamma	89.981220
_symmetry_space_group_name_H-M	'P 1'
_symmetry_Int_Tables_number		1

loop_
	_symmetry_equiv_pos_as_xyz
	x,y,z

loop_
	_atom_site_label
	_atom_site_type_symbol
	_atom_site_fract_x
	_atom_site_fract_y
	_atom_site_fract_z
	H0	H	0.396231	0.840096	0.712288
	H1	H	0.592845	0.166321	0.714246
	H2	H	0.593740	0.840567	0.282250
	H3	H	0.393623	0.166695	0.283433
	H4	H	0.707143	0.406673	0.833632
	H5	H	0.706505	0.600014	0.164542
	H6	H	0.283505	0.598790	0.833703
	H7	H	0.282778	0.410274	0.164060
	H8	H	0.828460	0.715970	0.400344
	H9	H	0.157974	0.720555	0.599031
	H10	H	0.829392	0.291632	0.596030
	H11	H	0.158487	0.286180	0.394582
	H12	H	0.829601	0.408055	0.710030
	H13	H	0.159544	0.603193	0.710879
	H14	H	0.828576	0.599397	0.287141
	H15	H	0.159634	0.405195	0.284180
	H16	H	0.396576	0.716453	0.834737
	H17	H	0.595872	0.720760	0.162094
	H18	H	0.598249	0.286233	0.835462
	H19	H	0.394762	0.289567	0.162402
	H20	H	0.708478	0.840067	0.399540
	H21	H	0.706767	0.167419	0.597023
	H22	H	0.280245	0.840105	0.594275
	H23	H	0.279721	0.167072	0.402227
	H24	H	0.895660	0.340417	0.212173
	H25	H	0.095683	0.665884	0.216411
	H26	H	0.094759	0.341389	0.781280
	H27	H	0.896435	0.666497	0.785493
	H28	H	0.208208	0.903740	0.333532
	H29	H	0.205900	0.102039	0.663919
	H30	H	0.782349	0.097685	0.333718
	H31	H	0.781851	0.909429	0.664213
	H32	H	0.331481	0.218332	0.899355
	H33	H	0.660800	0.218494	0.098972
	H34	H	0.330959	0.789907	0.098752
	H35	H	0.660338	0.788651	0.897847
	H36	H	0.329114	0.906945	0.210666
	H37	H	0.660601	0.101766	0.212843
	H38	H	0.329523	0.098579	0.789201
	H39	H	0.660064	0.905842	0.784452
	H40	H	0.891739	0.218909	0.335229
	H41	H	0.095056	0.221812	0.661231
	H42	H	0.094383	0.785871	0.334895
	H43	H	0.891800	0.789403	0.662638
	H44	H	0.210135	0.341086	0.898340
	H45	H	0.207786	0.667593	0.096793
	H46	H	0.780695	0.339840	0.095483
	H47	H	0.781950	0.667305	0.904466
	H48	H	0.392960	0.122235	0.594635
	H49	H	0.580690	0.889395	0.588896
	H50	H	0.580863	0.118123	0.406450
	H51	H	0.412424	0.889116	0.395822
	H52	H	0.591527	0.409447	0.117855
	H53	H	0.572915	0.597831	0.885873
	H54	H	0.404736	0.607136	0.117977
	H55	H	0.404512	0.406831	0.880769
	H56	H	0.112246	0.594524	0.402841
	H57	H	0.873941	0.599121	0.596657
	H58	H	0.108797	0.418387	0.581824
	H59	H	0.877561	0.413502	0.406763
	H60	H	0.114902	0.413987	0.598150
	H61	H	0.875799	0.601563	0.588896
	H62	H	0.112928	0.600097	0.407928
	H63	H	0.874899	0.409301	0.402256
	H64	H	0.395069	0.597134	0.117168
	H65	H	0.596299	0.608832	0.875511
	H66	H	0.585172	0.414315	0.114749
	H67	H	0.401578	0.409448	0.880781
	H68	H	0.592328	0.119694	0.411267
	H69	H	0.594000	0.886488	0.586242
	H70	H	0.405827	0.119593	0.601131
	H71	H	0.402742	0.891592	0.416019
	H72	H	0.901718	0.618588	0.089328
	H73	H	0.086913	0.389879	0.085023
	H74	H	0.095018	0.620954	0.911309
	H75	H	0.899616	0.384172	0.896275
	H76	H	0.089465	0.904937	0.617096
	H77	H	0.085686	0.091246	0.382847
	H78	H	0.901492	0.110104	0.619052
	H79	H	0.910222	0.909457	0.383573
	H80	H	0.615321	0.097445	0.907086
	H81	H	0.378114	0.094527	0.090651
	H82	H	0.616788	0.901799	0.091505
	H83	H	0.374630	0.907816	0.901185
	H84	H	0.609702	0.912993	0.082473
	H85	H	0.376499	0.098401	0.094416
	H86	H	0.613403	0.095208	0.906824
	H87	H	0.376836	0.904519	0.910353
	H88	H	0.892337	0.094918	0.617500
	H89	H	0.082737	0.098383	0.381011
	H90	H	0.088993	0.916717	0.614808
	H91	H	0.899636	0.900456	0.377711
	H92	H	0.091854	0.623481	0.896157
	H93	H	0.094640	0.385474	0.091898
	H94	H	0.897467	0.620685	0.096071
	H95	H	0.909266	0.389725	0.903414
	H96	H	0.403804	0.117055	0.587484
	H97	H	0.589113	0.884257	0.599317
	H98	H	0.590488	0.122396	0.399446
	H99	H	0.390527	0.883111	0.398805
	H100	H	0.583248	0.406565	0.116790
	H101	H	0.595635	0.582531	0.883309
	H102	H	0.407442	0.594891	0.113842
	H103	H	0.405285	0.410410	0.881994
	H104	H	0.110817	0.594541	0.410482
	H105	H	0.877164	0.592747	0.591536
	H106	H	0.115271	0.401551	0.584374
	H107	H	0.876186	0.406320	0.407677
	H108	H	0.904725	0.619340	0.095577
	H109	H	0.083799	0.387873	0.095553
	H110	H	0.080800	0.618095	0.905653
	H111	H	0.897348	0.387207	0.908568
	H112	H	0.079052	0.910256	0.614244
	H113	H	0.089884	0.096566	0.379907
	H114	H	0.910206	0.095037	0.612477
	H115	H	0.896257	0.914763	0.381640
	H116	H	0.614096	0.096034	0.904730
	H117	H	0.377125	0.100245	0.089900
	H118	H	0.614110	0.916831	0.097515
	H119	H	0.378998	0.914297	0.908142
	C120	C	0.372402	0.011791	0.621486
	C121	C	0.616272	0.994786	0.620486
	C122	C	0.616663	0.012287	0.376413
	C123	C	0.372646	0.995687	0.376143
	C124	C	0.616514	0.381477	0.007538
	C125	C	0.616666	0.624985	0.990270
	C126	C	0.374314	0.625832	0.007353
	C127	C	0.374226	0.382027	0.989944
	C128	C	0.002754	0.624354	0.378285
	C129	C	0.985125	0.626219	0.620218
	C130	C	0.003521	0.383875	0.617273
	C131	C	0.985379	0.380957	0.376125
	C132	C	0.872926	0.511663	0.120864
	C133	C	0.116586	0.495592	0.120018
	C134	C	0.118058	0.512790	0.875270
	C135	C	0.873329	0.495053	0.876316
	C136	C	0.115154	0.881349	0.506507
	C137	C	0.114851	0.125217	0.489813
	C138	C	0.872540	0.126128	0.507620
	C139	C	0.872514	0.881548	0.490036
	C140	C	0.504558	0.124129	0.878266
	C141	C	0.486759	0.125759	0.120506
	C142	C	0.504146	0.882715	0.119183
	C143	C	0.486333	0.881202	0.877037
	C144	C	0.375014	0.888902	0.675222
	C145	C	0.613465	0.117698	0.676120
	C146	C	0.614095	0.889219	0.320621
	C147	C	0.374065	0.118099	0.321479
	C148	C	0.670890	0.385142	0.883264
	C149	C	0.670195	0.621571	0.114725
	C150	C	0.320625	0.620287	0.882995
	C151	C	0.319585	0.387674	0.114452
	C152	C	0.877908	0.678520	0.380369
	C153	C	0.109289	0.681682	0.618195
	C154	C	0.878751	0.329485	0.616068
	C155	C	0.109223	0.324743	0.376133
	C156	C	0.878856	0.387150	0.672548
	C157	C	0.109996	0.623603	0.674089
	C158	C	0.877977	0.620497	0.324082
	C159	C	0.110161	0.384065	0.321343
	C160	C	0.376210	0.679253	0.883755
	C161	C	0.615164	0.681583	0.113512
	C162	C	0.616576	0.325146	0.884296
	C163	C	0.375039	0.327551	0.113392
	C164	C	0.671223	0.889137	0.378846
	C165	C	0.670317	0.118118	0.617894
	C166	C	0.317701	0.888860	0.616399
	C167	C	0.317241	0.118373	0.380364
	C168	C	0.875091	0.389133	0.175190
	C169	C	0.114876	0.617799	0.177062
	C170	C	0.115563	0.390209	0.819115
	C171	C	0.876238	0.618085	0.823358
	C172	C	0.170806	0.883308	0.382975
	C173	C	0.169315	0.123020	0.614105
	C174	C	0.818532	0.120206	0.383267
	C175	C	0.818309	0.887037	0.614494
	C176	C	0.380281	0.179534	0.880026
	C177	C	0.611434	0.180381	0.118630
	C178	C	0.379851	0.827997	0.117812
	C179	C	0.610712	0.826526	0.878143
	C180	C	0.379108	0.886037	0.173792
	C181	C	0.611425	0.122524	0.175243
	C182	C	0.379566	0.120670	0.824752
	C183	C	0.610733	0.884768	0.821881
	C184	C	0.873289	0.180121	0.383892
	C185	C	0.114461	0.182679	0.612648
	C186	C	0.114236	0.824648	0.383636
	C187	C	0.872893	0.827297	0.613701
	C188	C	0.172594	0.389950	0.877678
	C189	C	0.170706	0.618718	0.117661
	C190	C	0.818092	0.388671	0.117085
	C191	C	0.818966	0.618304	0.882031
	C192	C	0.394315	0.097482	0.600601
	C193	C	0.594341	0.908818	0.598063
	C194	C	0.594420	0.097932	0.398949
	C195	C	0.395190	0.910198	0.397325
	C196	C	0.593415	0.403694	0.094217
	C197	C	0.594778	0.602872	0.903978
	C198	C	0.395905	0.605683	0.093846
	C199	C	0.397008	0.402579	0.903520
	C200	C	0.089525	0.602919	0.400441
	C201	C	0.898086	0.604273	0.598769
	C202	C	0.090457	0.405119	0.594744
	C203	C	0.898531	0.403104	0.398854
	C204	C	0.894949	0.597375	0.100038
	C205	C	0.094727	0.409987	0.097415
	C206	C	0.095714	0.598601	0.897831
	C207	C	0.895401	0.409129	0.896669
	C208	C	0.092446	0.903927	0.593070
	C209	C	0.092568	0.102237	0.403520
	C210	C	0.894907	0.106049	0.594104
	C211	C	0.895254	0.902226	0.403466
	C212	C	0.591829	0.102655	0.899824
	C213	C	0.399845	0.104255	0.098160
	C214	C	0.591014	0.904212	0.097099
	C215	C	0.399235	0.902671	0.899831
	Zn216	Zn	0.495274	0.003466	0.749930
	Zn217	Zn	0.495154	0.004073	0.247414
	Zn218	Zn	0.744519	0.502663	-0.000873
	Zn219	Zn	0.245650	0.504239	-0.001354
	Zn220	Zn	-0.006883	0.752845	0.498911
	Zn221	Zn	-0.005761	0.254187	0.497802
	Zn222	Zn	-0.004545	0.504274	0.746327
	Zn223	Zn	-0.005183	0.503419	0.249790
	Zn224	Zn	0.495668	0.754090	-0.001522
	Zn225	Zn	0.496237	0.252905	-0.001495
	Zn226	Zn	0.745153	0.003690	0.499099
	Zn227	Zn	0.243037	0.003937	0.498502
	N228	N	0.408349	0.966244	0.678276
	N229	N	0.580778	0.039983	0.677803
	N230	N	0.581068	0.966881	0.318704
	N231	N	0.407453	0.040688	0.318469
	N232	N	0.670728	0.419741	0.960997
	N233	N	0.671191	0.586813	0.037165
	N234	N	0.319145	0.587761	0.960908
	N235	N	0.318826	0.420766	0.036572
	N236	N	0.956222	0.680786	0.413545
	N237	N	0.030471	0.683555	0.585694
	N238	N	0.957198	0.327246	0.582428
	N239	N	0.030622	0.322717	0.409526
	N240	N	0.957429	0.420301	0.673415
	N241	N	0.031844	0.589919	0.675485
	N242	N	0.956647	0.587645	0.322460
	N243	N	0.032224	0.418325	0.321164
	N244	N	0.408738	0.682704	0.962090
	N245	N	0.582577	0.683645	0.035195
	N246	N	0.583401	0.323072	0.962602
	N247	N	0.408320	0.324046	0.035110
	N248	N	0.672644	0.966292	0.413179
	N249	N	0.672288	0.040655	0.584253
	N250	N	0.315779	0.966227	0.583804
	N251	N	0.316223	0.041381	0.413778
	N252	N	0.908610	0.466566	0.177627
	N253	N	0.082055	0.540278	0.178755
	N254	N	0.082248	0.467731	0.817534
	N255	N	0.909137	0.540466	0.819566
	N256	N	0.171278	0.918100	0.460411
	N257	N	0.169819	0.087862	0.536610
	N258	N	0.818045	0.087094	0.461030
	N259	N	0.817981	0.919906	0.536725
	N260	N	0.459137	0.181797	0.912309
	N261	N	0.532800	0.182618	0.085414
	N262	N	0.458536	0.825668	0.084598
	N263	N	0.532180	0.824165	0.911633
	N264	N	0.457409	0.919720	0.174640
	N265	N	0.532936	0.089638	0.176775
	N266	N	0.457768	0.086724	0.823714
	N267	N	0.532318	0.918030	0.820982
	N268	N	0.906141	0.183975	0.462090
	N269	N	0.081429	0.184084	0.534475
	N270	N	0.080366	0.823260	0.461739
	N271	N	0.906071	0.823757	0.535148
	N272	N	0.174136	0.467138	0.911746
	N273	N	0.172116	0.541773	0.082961
	N274	N	0.816461	0.465839	0.084218
	N275	N	0.817072	0.540734	0.914264
	O276	O	0.547865	0.576443	0.493999
	H277	H	0.554814	0.584590	0.500991
	H278	H	0.542363	0.571590	0.500341
	O279	O	0.502497	0.545951	0.543431
	H280	H	0.501041	0.549224	0.543067
	H281	H	0.497465	0.545778	0.547619
	O282	O	0.494267	0.495426	0.590082
	H283	H	0.488117	0.497359	0.594746
	H284	H	0.504062	0.494166	0.584297
	O285	O	0.072563	1.001203	1.037693
	H286	H	0.071227	0.998824	1.037018
	H287	H	0.076399	1.006897	1.039750
	O288	O	0.437529	0.490932	0.484119
	H289	H	0.432899	0.486914	0.482046
	H290	H	0.450456	0.501357	0.476724
	O291	O	0.048849	0.003796	1.059578
	H292	H	0.057323	0.012449	1.064997
	H293	H	0.048879	0.000395	1.060583
	O294	O	0.526021	0.454919	0.431401
	H295	H	0.527631	0.453940	0.432060
	H296	H	0.530723	0.453955	0.432864
	O297	O	0.464915	0.447819	0.518704
	H298	H	0.450531	0.440745	0.520873
	H299	H	0.458130	0.452927	0.511046
	O300	O	0.470849	0.511442	0.471613
	H301	H	0.459174	0.512499	0.471216
	H302	H	0.463700	0.508720	0.471569
	O303	O	0.527816	0.487715	0.507337
	H304	H	0.520067	0.494562	0.515826
	H305	H	0.526348	0.492230	0.498304
	O306	O	1.057827	0.011883	1.038388
	H307	H	1.056630	0.013348	1.043495
	H308	H	1.063738	0.014611	1.034563
	O309	O	0.474430	0.501612	0.502973
	H310	H	0.480146	0.506177	0.501647
	H311	H	0.481416	0.504012	0.510582
	O312	O	0.521720	0.402704	0.487612
	H313	H	0.532612	0.397158	0.476661
	H314	H	0.526640	0.395505	0.485969
	O315	O	1.047357	-0.033451	1.023044
	H316	H	1.047750	-0.033435	1.018581
	H317	H	1.043790	-0.031851	1.025483
	O318	O	0.050809	0.047908	0.040829
	H319	H	0.049718	0.043339	0.042574
	H320	H	0.052414	0.047565	0.036224
	O321	O	0.447614	0.488482	0.523766
	H322	H	0.440485	0.490831	0.524127
	H323	H	0.445694	0.487639	0.523174
	O324	O	1.240797	-0.161701	-0.233297
	H325	H	1.242863	-0.156501	-0.219932
	H326	H	1.235543	-0.157792	-0.241045
	O327	O	1.025971	0.990744	0.019856
	H328	H	1.033024	0.985577	0.016311
	H329	H	1.026883	0.984986	0.025661
	O330	O	0.455706	0.565248	0.475448
	H331	H	0.457597	0.561996	0.475387
	H332	H	0.459743	0.560957	0.473992
	O333	O	0.437848	0.491987	0.463146
	H334	H	0.439417	0.485569	0.458999
	H335	H	0.448996	0.491826	0.457421
