data_Molecule from HDF5

_cell_length_a		16.212148
_cell_length_b		16.251679
_cell_length_c		16.296908
_cell_angle_alpha	90.000121
_cell_angle_beta	90.079794
_cell_angle_gamma	89.890175
_symmetry_space_group_name_H-M	'P 1'
_symmetry_Int_Tables_number		1

loop_
	_symmetry_equiv_pos_as_xyz
	x,y,z

loop_
	_atom_site_label
	_atom_site_type_symbol
	_atom_site_fract_x
	_atom_site_fract_y
	_atom_site_fract_z
	H0	H	0.393975	0.827665	0.720943
	H1	H	0.590451	0.156421	0.721345
	H2	H	0.591900	0.828720	0.291828
	H3	H	0.394115	0.157531	0.294320
	H4	H	0.704107	0.394074	0.842674
	H5	H	0.705992	0.589268	0.171232
	H6	H	0.276407	0.591500	0.843507
	H7	H	0.277636	0.394782	0.171615
	H8	H	0.827197	0.707293	0.408091
	H9	H	0.156848	0.704120	0.604840
	H10	H	0.826907	0.280078	0.604501
	H11	H	0.156262	0.278668	0.409639
	H12	H	0.827587	0.395056	0.720908
	H13	H	0.155445	0.591416	0.722854
	H14	H	0.827377	0.590985	0.293185
	H15	H	0.155419	0.393573	0.293212
	H16	H	0.392225	0.707589	0.843432
	H17	H	0.589965	0.706702	0.171299
	H18	H	0.589200	0.277083	0.843769
	H19	H	0.394045	0.278566	0.171815
	H20	H	0.706295	0.828551	0.409395
	H21	H	0.704813	0.157117	0.603915
	H22	H	0.279822	0.827771	0.603541
	H23	H	0.277194	0.156852	0.408795
	H24	H	0.892613	0.328621	0.222409
	H25	H	0.090111	0.656484	0.221975
	H26	H	0.089746	0.328338	0.794136
	H27	H	0.891695	0.656465	0.792399
	H28	H	0.205417	0.895416	0.342934
	H29	H	0.206560	0.090070	0.671409
	H30	H	0.778887	0.090024	0.343444
	H31	H	0.779618	0.896160	0.671475
	H32	H	0.326900	0.204967	0.910230
	H33	H	0.656413	0.204723	0.105649
	H34	H	0.326405	0.778658	0.104730
	H35	H	0.656342	0.778205	0.910398
	H36	H	0.326780	0.894811	0.220975
	H37	H	0.655830	0.091162	0.221969
	H38	H	0.328399	0.091089	0.792081
	H39	H	0.656477	0.893235	0.793703
	H40	H	0.893179	0.207913	0.344442
	H41	H	0.089558	0.206288	0.671603
	H42	H	0.090275	0.778089	0.343670
	H43	H	0.895307	0.778650	0.671467
	H44	H	0.204151	0.328070	0.911237
	H45	H	0.205212	0.657041	0.105217
	H46	H	0.779570	0.327346	0.103325
	H47	H	0.777518	0.656725	0.910405
	H48	H	0.397979	0.109750	0.602893
	H49	H	0.579691	0.879420	0.593277
	H50	H	0.581041	0.108749	0.411692
	H51	H	0.403674	0.876595	0.411770
	H52	H	0.588811	0.391508	0.127268
	H53	H	0.577193	0.589242	0.891906
	H54	H	0.394598	0.582167	0.123774
	H55	H	0.399313	0.398138	0.891588
	H56	H	0.107900	0.585022	0.417696
	H57	H	0.874167	0.589043	0.597685
	H58	H	0.111297	0.390685	0.601359
	H59	H	0.876787	0.404327	0.416540
	H60	H	0.106205	0.403391	0.592976
	H61	H	0.875303	0.583101	0.600439
	H62	H	0.108235	0.582759	0.412048
	H63	H	0.873217	0.400321	0.408920
	H64	H	0.403312	0.584126	0.121643
	H65	H	0.591187	0.590215	0.888104
	H66	H	0.590662	0.405055	0.123497
	H67	H	0.396690	0.396904	0.890191
	H68	H	0.586051	0.108662	0.417368
	H69	H	0.595433	0.873161	0.598755
	H70	H	0.402227	0.108509	0.601163
	H71	H	0.396923	0.876960	0.417603
	H72	H	0.901411	0.610994	0.107290
	H73	H	0.089924	0.372514	0.108331
	H74	H	0.080856	0.612473	0.902765
	H75	H	0.905807	0.375149	0.903831
	H76	H	0.082855	0.895660	0.624046
	H77	H	0.085327	0.089052	0.390037
	H78	H	0.892055	0.087358	0.626395
	H79	H	0.893867	0.904015	0.390635
	H80	H	0.608319	0.072234	0.905389
	H81	H	0.374071	0.078494	0.108833
	H82	H	0.610486	0.902926	0.112258
	H83	H	0.378556	0.903993	0.921360
	H84	H	0.611023	0.887737	0.096942
	H85	H	0.370434	0.096088	0.103543
	H86	H	0.615266	0.098500	0.907014
	H87	H	0.373492	0.904751	0.905036
	H88	H	0.900342	0.081272	0.622515
	H89	H	0.087390	0.084011	0.391443
	H90	H	0.090461	0.895785	0.626205
	H91	H	0.906432	0.900658	0.393363
	H92	H	0.075446	0.604811	0.922100
	H93	H	0.074793	0.378541	0.102464
	H94	H	0.902688	0.605368	0.095054
	H95	H	0.900576	0.378494	0.923079
	H96	H	0.398630	0.108772	0.598084
	H97	H	0.581741	0.874405	0.609982
	H98	H	0.588393	0.110952	0.411162
	H99	H	0.396080	0.873750	0.409290
	H100	H	0.578001	0.398544	0.121556
	H101	H	0.585441	0.577643	0.892968
	H102	H	0.398000	0.591037	0.124902
	H103	H	0.396956	0.399740	0.891510
	H104	H	0.110178	0.588072	0.413600
	H105	H	0.872492	0.587575	0.603842
	H106	H	0.110373	0.404925	0.608229
	H107	H	0.873364	0.395755	0.417659
	H108	H	0.891292	0.610862	0.098987
	H109	H	0.088971	0.377245	0.091229
	H110	H	0.095217	0.611880	0.917967
	H111	H	0.886573	0.371350	0.909435
	H112	H	0.086908	0.902665	0.623518
	H113	H	0.081825	0.084727	0.392253
	H114	H	0.901852	0.091999	0.625351
	H115	H	0.898140	0.892306	0.388312
	H116	H	0.605175	0.085670	0.928206
	H117	H	0.377603	0.083591	0.091130
	H118	H	0.603237	0.907639	0.092743
	H119	H	0.372635	0.890375	0.913379
	C120	C	0.371421	0.000192	0.628695
	C121	C	0.613762	0.984326	0.628785
	C122	C	0.613769	0.000969	0.385170
	C123	C	0.370455	0.984585	0.385504
	C124	C	0.613460	0.370092	0.015488
	C125	C	0.613127	0.613992	0.999465
	C126	C	0.369789	0.614173	0.015157
	C127	C	0.369621	0.370343	0.999418
	C128	C	0.000039	0.613919	0.385831
	C129	C	0.982940	0.614184	0.628923
	C130	C	0.000538	0.371454	0.628795
	C131	C	0.982943	0.371055	0.385990
	C132	C	0.870198	0.500657	0.128470
	C133	C	0.113325	0.484332	0.129261
	C134	C	0.112492	0.501063	0.886203
	C135	C	0.869595	0.483934	0.884798
	C136	C	0.114359	0.870490	0.516152
	C137	C	0.113693	0.114359	0.499058
	C138	C	0.870347	0.114754	0.516047
	C139	C	0.871326	0.871064	0.499198
	C140	C	0.500646	0.113341	0.885979
	C141	C	0.483014	0.113991	0.128990
	C142	C	0.499460	0.870866	0.129137
	C143	C	0.483375	0.871003	0.885842
	C144	C	0.373862	0.876695	0.683226
	C145	C	0.610643	0.107693	0.683375
	C146	C	0.611870	0.877738	0.329812
	C147	C	0.373706	0.108230	0.331610
	C148	C	0.667095	0.373134	0.891988
	C149	C	0.668042	0.610572	0.122434
	C150	C	0.314265	0.611618	0.892226
	C151	C	0.315246	0.373961	0.122889
	C152	C	0.876425	0.669599	0.387859
	C153	C	0.107215	0.667853	0.626008
	C154	C	0.876271	0.317305	0.625440
	C155	C	0.107003	0.316037	0.388802
	C156	C	0.876459	0.374487	0.683111
	C157	C	0.106561	0.611647	0.684365
	C158	C	0.876293	0.611675	0.330944
	C159	C	0.106810	0.373460	0.331292
	C160	C	0.371499	0.669704	0.892177
	C161	C	0.610798	0.669240	0.122205
	C162	C	0.609924	0.314977	0.892521
	C163	C	0.372868	0.316132	0.123070
	C164	C	0.669034	0.877624	0.388055
	C165	C	0.667446	0.107978	0.624945
	C166	C	0.316893	0.876784	0.624857
	C167	C	0.315561	0.108015	0.388539
	C168	C	0.872883	0.377254	0.183657
	C169	C	0.110410	0.607897	0.183820
	C170	C	0.110205	0.377424	0.831630
	C171	C	0.871741	0.607469	0.830300
	C172	C	0.168494	0.874017	0.392228
	C173	C	0.168868	0.111227	0.622545
	C174	C	0.816272	0.111218	0.392501
	C175	C	0.816843	0.874493	0.622574
	C176	C	0.376287	0.167859	0.889088
	C177	C	0.607345	0.167471	0.126040
	C178	C	0.375733	0.816352	0.125574
	C179	C	0.607431	0.815841	0.889307
	C180	C	0.375822	0.873801	0.183411
	C181	C	0.607007	0.110947	0.183729
	C182	C	0.376869	0.111089	0.830744
	C183	C	0.607630	0.872966	0.831652
	C184	C	0.873299	0.169473	0.392833
	C185	C	0.110681	0.168602	0.622847
	C186	C	0.111135	0.815964	0.392493
	C187	C	0.874266	0.816376	0.622511
	C188	C	0.166909	0.377122	0.889901
	C189	C	0.167699	0.608107	0.125842
	C190	C	0.816331	0.376710	0.125028
	C191	C	0.814994	0.607613	0.888808
	C192	C	0.393136	0.086836	0.607047
	C193	C	0.592171	0.897796	0.606922
	C194	C	0.591496	0.087146	0.406920
	C195	C	0.392277	0.898060	0.406564
	C196	C	0.592165	0.391950	0.101827
	C197	C	0.590900	0.592115	0.913277
	C198	C	0.392038	0.592203	0.101136
	C199	C	0.391403	0.391748	0.913295
	C200	C	0.086459	0.591806	0.407978
	C201	C	0.896346	0.592882	0.606998
	C202	C	0.086920	0.393182	0.607264
	C203	C	0.896774	0.393368	0.407805
	C204	C	0.891980	0.586859	0.106836
	C205	C	0.091184	0.398417	0.107299
	C206	C	0.090345	0.587383	0.907791
	C207	C	0.891163	0.397245	0.905977
	C208	C	0.093139	0.891874	0.602129
	C209	C	0.091376	0.092526	0.413316
	C210	C	0.891811	0.093098	0.602620
	C211	C	0.892999	0.892734	0.412924
	C212	C	0.587097	0.091798	0.907241
	C213	C	0.396279	0.092432	0.107449
	C214	C	0.585933	0.892989	0.107111
	C215	C	0.397278	0.893113	0.907069
	Zn216	Zn	0.492375	-0.008079	0.757405
	Zn217	Zn	0.491884	-0.006960	0.256735
	Zn218	Zn	0.741875	0.491907	0.006998
	Zn219	Zn	0.241417	0.492709	0.007327
	Zn220	Zn	-0.007793	0.741760	0.507469
	Zn221	Zn	-0.008040	0.242918	0.507764
	Zn222	Zn	-0.008163	0.492657	0.756919
	Zn223	Zn	-0.008340	0.492473	0.257757
	Zn224	Zn	0.491205	0.742691	0.006639
	Zn225	Zn	0.491645	0.241418	0.008150
	Zn226	Zn	0.742116	-0.007125	0.507046
	Zn227	Zn	0.242819	-0.007472	0.507368
	N228	N	0.407006	0.954746	0.685482
	N229	N	0.578030	0.029551	0.685846
	N230	N	0.578197	0.955559	0.327928
	N231	N	0.407168	0.030268	0.329525
	N232	N	0.669429	0.406817	0.969472
	N233	N	0.669541	0.576888	0.044930
	N234	N	0.313281	0.577898	0.969847
	N235	N	0.313205	0.407144	0.044990
	N236	N	0.954571	0.671194	0.421387
	N237	N	0.029449	0.669287	0.591952
	N238	N	0.954248	0.315566	0.591972
	N239	N	0.029071	0.314515	0.422224
	N240	N	0.954453	0.407620	0.685242
	N241	N	0.028246	0.579038	0.686288
	N242	N	0.954128	0.577805	0.329618
	N243	N	0.028676	0.406596	0.329038
	N244	N	0.405447	0.671306	0.969492
	N245	N	0.577323	0.671160	0.044488
	N246	N	0.577342	0.313002	0.970476
	N247	N	0.406058	0.313852	0.045446
	N248	N	0.669960	0.955130	0.422008
	N249	N	0.669143	0.030176	0.591550
	N250	N	0.315529	0.954648	0.591636
	N251	N	0.313759	0.030154	0.421458
	N252	N	0.905659	0.455346	0.185945
	N253	N	0.077521	0.529904	0.186299
	N254	N	0.076807	0.455353	0.829415
	N255	N	0.904843	0.529389	0.827683
	N256	N	0.170685	0.907126	0.470049
	N257	N	0.170905	0.078154	0.544721
	N258	N	0.814542	0.077795	0.470159
	N259	N	0.814704	0.907601	0.544813
	N260	N	0.454115	0.169369	0.922800
	N261	N	0.529359	0.169189	0.092576
	N262	N	0.453904	0.814407	0.092457
	N263	N	0.529374	0.814455	0.922242
	N264	N	0.453791	0.906930	0.185662
	N265	N	0.528559	0.078587	0.185861
	N266	N	0.454963	0.077651	0.828761
	N267	N	0.529668	0.906672	0.829300
	N268	N	0.905875	0.171826	0.470861
	N269	N	0.077317	0.170823	0.545200
	N270	N	0.078394	0.813348	0.470255
	N271	N	0.907553	0.814406	0.544883
	N272	N	0.168892	0.455090	0.922688
	N273	N	0.169297	0.530398	0.092319
	N274	N	0.814619	0.454302	0.091376
	N275	N	0.813547	0.529789	0.921850
	O276	O	1.445244	0.504716	0.512700
	H277	H	1.447743	0.504237	0.521497
	H278	H	1.444289	0.509704	0.520016
	O279	O	0.425649	0.532024	0.509240
	H280	H	0.436759	0.531234	0.516230
	H281	H	0.422350	0.534070	0.499031
	O282	O	1.453034	1.530358	-0.473076
	H283	H	1.449940	1.531652	-0.472240
	H284	H	1.450167	1.531812	-0.478971
	O285	O	0.423953	0.526380	0.490036
	H286	H	0.423087	0.518569	0.484930
	H287	H	0.417574	0.530001	0.485142
