data_Molecule from HDF5

_cell_length_a		16.318024
_cell_length_b		16.482163
_cell_length_c		16.212731
_cell_angle_alpha	90.019766
_cell_angle_beta	89.765157
_cell_angle_gamma	90.028586
_symmetry_space_group_name_H-M	'P 1'
_symmetry_Int_Tables_number		1

loop_
	_symmetry_equiv_pos_as_xyz
	x,y,z

loop_
	_atom_site_label
	_atom_site_type_symbol
	_atom_site_fract_x
	_atom_site_fract_y
	_atom_site_fract_z
	H0	H	0.396967	0.833295	0.708021
	H1	H	0.606427	0.151457	0.708215
	H2	H	0.605955	0.833775	0.266441
	H3	H	0.403290	0.154371	0.270413
	H4	H	0.723629	0.388870	0.828398
	H5	H	0.719924	0.596443	0.150775
	H6	H	0.283342	0.595673	0.827528
	H7	H	0.283896	0.389630	0.151295
	H8	H	0.842191	0.714323	0.382973
	H9	H	0.161118	0.714251	0.595117
	H10	H	0.843022	0.269948	0.599058
	H11	H	0.160401	0.271065	0.381384
	H12	H	0.841228	0.389969	0.709149
	H13	H	0.163373	0.594807	0.706399
	H14	H	0.840687	0.595781	0.271942
	H15	H	0.162836	0.390745	0.271033
	H16	H	0.396198	0.711835	0.827298
	H17	H	0.609565	0.715785	0.147571
	H18	H	0.609917	0.271963	0.828284
	H19	H	0.395475	0.270612	0.148927
	H20	H	0.724547	0.834625	0.379974
	H21	H	0.723241	0.151600	0.592484
	H22	H	0.281532	0.833427	0.590523
	H23	H	0.281427	0.152515	0.381964
	H24	H	0.898611	0.333185	0.210166
	H25	H	0.105251	0.652392	0.209775
	H26	H	0.106080	0.332789	0.768620
	H27	H	0.901139	0.653353	0.771500
	H28	H	0.218775	0.891322	0.325843
	H29	H	0.220051	0.095688	0.649616
	H30	H	0.785000	0.097262	0.326478
	H31	H	0.781245	0.890210	0.649402
	H32	H	0.343223	0.215873	0.879390
	H33	H	0.660163	0.215677	0.095432
	H34	H	0.342083	0.772844	0.092516
	H35	H	0.660574	0.769604	0.877132
	H36	H	0.340983	0.891416	0.206133
	H37	H	0.662313	0.096831	0.205723
	H38	H	0.340214	0.094163	0.771117
	H39	H	0.662839	0.892041	0.768652
	H40	H	0.896982	0.214826	0.329244
	H41	H	0.107964	0.213303	0.649123
	H42	H	0.107909	0.772089	0.328181
	H43	H	0.895648	0.773983	0.650485
	H44	H	0.222683	0.333207	0.885706
	H45	H	0.224218	0.651578	0.094432
	H46	H	0.779691	0.333654	0.096255
	H47	H	0.782130	0.651906	0.885859
	H48	H	0.413761	0.105081	0.577331
	H49	H	0.588335	0.880932	0.575791
	H50	H	0.593459	0.109472	0.389755
	H51	H	0.418602	0.880279	0.391351
	H52	H	0.590860	0.403026	0.104686
	H53	H	0.596037	0.579013	0.873217
	H54	H	0.416007	0.576951	0.101485
	H55	H	0.410762	0.404670	0.873061
	H56	H	0.119244	0.586186	0.395374
	H57	H	0.890595	0.583309	0.569628
	H58	H	0.114535	0.407235	0.576537
	H59	H	0.888769	0.409211	0.399363
	H60	H	0.118380	0.400048	0.581406
	H61	H	0.886923	0.576711	0.586759
	H62	H	0.115336	0.587036	0.406175
	H63	H	0.884513	0.396866	0.398498
	H64	H	0.418688	0.588671	0.103768
	H65	H	0.587585	0.578726	0.876390
	H66	H	0.587746	0.404729	0.103307
	H67	H	0.416545	0.405916	0.876675
	H68	H	0.587631	0.103142	0.399781
	H69	H	0.593265	0.879861	0.574123
	H70	H	0.408502	0.106158	0.576196
	H71	H	0.412043	0.882964	0.405652
	H72	H	0.911277	0.606445	0.080687
	H73	H	0.085005	0.382478	0.080075
	H74	H	0.096707	0.607222	0.897490
	H75	H	0.915125	0.380895	0.900975
	H76	H	0.084245	0.899476	0.603303
	H77	H	0.090872	0.091564	0.370007
	H78	H	0.912276	0.084294	0.604899
	H79	H	0.914379	0.902852	0.373817
	H80	H	0.610373	0.075616	0.906919
	H81	H	0.386410	0.087364	0.074859
	H82	H	0.616523	0.900188	0.073980
	H83	H	0.386086	0.896729	0.901958
	H84	H	0.615643	0.904367	0.073799
	H85	H	0.390797	0.079229	0.071699
	H86	H	0.618658	0.078944	0.887729
	H87	H	0.389269	0.904818	0.901759
	H88	H	0.910538	0.078327	0.603130
	H89	H	0.097588	0.078103	0.372656
	H90	H	0.096438	0.899561	0.607414
	H91	H	0.914877	0.902275	0.373691
	H92	H	0.090972	0.605827	0.896917
	H93	H	0.095542	0.380546	0.072272
	H94	H	0.911934	0.604737	0.078891
	H95	H	0.910936	0.379755	0.902417
	H96	H	0.410162	0.106791	0.581757
	H97	H	0.591947	0.879192	0.579279
	H98	H	0.600259	0.107295	0.401352
	H99	H	0.403682	0.876146	0.394012
	H100	H	0.587811	0.400897	0.103529
	H101	H	0.590996	0.586497	0.872315
	H102	H	0.406833	0.584703	0.106626
	H103	H	0.415689	0.398897	0.873901
	H104	H	0.114665	0.577727	0.400923
	H105	H	0.882699	0.593763	0.582864
	H106	H	0.116241	0.398932	0.572615
	H107	H	0.889392	0.401971	0.409630
	H108	H	0.909729	0.605766	0.079627
	H109	H	0.095846	0.377048	0.084837
	H110	H	0.093624	0.604806	0.902269
	H111	H	0.912405	0.379212	0.898346
	H112	H	0.091569	0.909802	0.601757
	H113	H	0.082681	0.080398	0.376320
	H114	H	0.917061	0.080426	0.601705
	H115	H	0.913925	0.902166	0.373568
	H116	H	0.618569	0.093920	0.901854
	H117	H	0.386469	0.079316	0.081349
	H118	H	0.617357	0.902809	0.077209
	H119	H	0.385676	0.900595	0.894045
	C120	C	0.379282	0.001135	0.609870
	C121	C	0.623317	0.984406	0.608497
	C122	C	0.625060	0.001400	0.364584
	C123	C	0.380747	0.985238	0.365752
	C124	C	0.622348	0.371492	-0.002459
	C125	C	0.623506	0.614209	0.979905
	C126	C	0.381727	0.613960	-0.002730
	C127	C	0.381599	0.371278	0.980906
	C128	C	0.010201	0.614908	0.368779
	C129	C	0.992975	0.615073	0.610850
	C130	C	0.010370	0.370797	0.609878
	C131	C	0.993426	0.371421	0.369146
	C132	C	0.879350	0.500901	0.111943
	C133	C	0.123649	0.484806	0.111178
	C134	C	0.125069	0.500841	0.867145
	C135	C	0.881249	0.485026	0.868555
	C136	C	0.122614	0.871382	0.497394
	C137	C	0.122775	0.114339	0.479566
	C138	C	0.881308	0.113927	0.497226
	C139	C	0.881252	0.871435	0.479984
	C140	C	0.510119	0.114668	0.866295
	C141	C	0.493233	0.114152	0.108156
	C142	C	0.510660	0.871224	0.108059
	C143	C	0.492888	0.870166	0.866141
	C144	C	0.378123	0.881177	0.668600
	C145	C	0.624725	0.103922	0.668370
	C146	C	0.625356	0.881756	0.305474
	C147	C	0.382335	0.106044	0.308382
	C148	C	0.683758	0.370198	0.876701
	C149	C	0.681866	0.615864	0.101653
	C150	C	0.322449	0.614637	0.875867
	C151	C	0.322812	0.370606	0.102433
	C152	C	0.889895	0.673980	0.366098
	C153	C	0.113415	0.674323	0.612890
	C154	C	0.890536	0.310723	0.615020
	C155	C	0.113253	0.311825	0.365095
	C156	C	0.889720	0.370298	0.670124
	C157	C	0.114755	0.614516	0.668010
	C158	C	0.889214	0.615079	0.310435
	C159	C	0.114201	0.371258	0.309679
	C160	C	0.378812	0.672531	0.875767
	C161	C	0.626767	0.675458	0.099910
	C162	C	0.627023	0.311887	0.876601
	C163	C	0.378120	0.311059	0.101301
	C164	C	0.684324	0.882187	0.362478
	C165	C	0.683160	0.103939	0.610801
	C166	C	0.320361	0.881311	0.610260
	C167	C	0.321724	0.105076	0.363959
	C168	C	0.878978	0.381085	0.171206
	C169	C	0.124586	0.604605	0.170597
	C170	C	0.125358	0.380749	0.808344
	C171	C	0.881307	0.605072	0.810090
	C172	C	0.180798	0.871337	0.375123
	C173	C	0.181664	0.115016	0.600992
	C174	C	0.823239	0.115863	0.375629
	C175	C	0.820842	0.870917	0.601228
	C176	C	0.390689	0.175312	0.862690
	C177	C	0.613027	0.174623	0.111590
	C178	C	0.390080	0.812531	0.110894
	C179	C	0.613173	0.810801	0.861462
	C180	C	0.389472	0.871731	0.167327
	C181	C	0.614072	0.115839	0.167029
	C182	C	0.389108	0.114534	0.808452
	C183	C	0.614288	0.871426	0.807171
	C184	C	0.879275	0.174295	0.376733
	C185	C	0.125375	0.173316	0.600869
	C186	C	0.125503	0.811965	0.376376
	C187	C	0.877892	0.813106	0.601678
	C188	C	0.183198	0.380731	0.866801
	C189	C	0.184016	0.604061	0.113411
	C190	C	0.819703	0.381414	0.114327
	C191	C	0.822061	0.604426	0.867115
	C192	C	0.403698	0.084380	0.585447
	C193	C	0.598551	0.901477	0.583467
	C194	C	0.600627	0.084983	0.389732
	C195	C	0.404433	0.901670	0.389973
	C196	C	0.596247	0.395972	0.082034
	C197	C	0.598670	0.588948	0.895813
	C198	C	0.406480	0.590211	0.081921
	C199	C	0.407016	0.396155	0.896370
	C200	C	0.094336	0.590711	0.393580
	C201	C	0.908668	0.591460	0.586719
	C202	C	0.094461	0.395114	0.584192
	C203	C	0.909388	0.395598	0.395182
	C204	C	0.903875	0.584016	0.087002
	C205	C	0.099205	0.401725	0.086300
	C206	C	0.100827	0.584280	0.891691
	C207	C	0.905772	0.401633	0.893294
	C208	C	0.097739	0.895757	0.582096
	C209	C	0.097660	0.090335	0.394914
	C210	C	0.906178	0.088521	0.581518
	C211	C	0.907063	0.895485	0.395761
	C212	C	0.594151	0.090194	0.891510
	C213	C	0.409624	0.089156	0.083116
	C214	C	0.594643	0.895496	0.082299
	C215	C	0.408888	0.893862	0.891593
	Zn216	Zn	0.501325	-0.007617	0.738296
	Zn217	Zn	0.502596	-0.006193	0.236146
	Zn218	Zn	0.750374	0.492557	-0.009921
	Zn219	Zn	0.254015	0.492701	-0.010629
	Zn220	Zn	0.001573	0.743230	0.489568
	Zn221	Zn	0.001338	0.242298	0.489544
	Zn222	Zn	0.002526	0.492577	0.737960
	Zn223	Zn	0.001583	0.492966	0.241369
	Zn224	Zn	0.502216	0.741997	-0.012813
	Zn225	Zn	0.501369	0.242375	-0.012007
	Zn226	Zn	0.753240	-0.006909	0.487345
	Zn227	Zn	0.250263	-0.006772	0.487353
	N228	N	0.413887	0.956613	0.668542
	N229	N	0.588035	0.028817	0.667051
	N230	N	0.589382	0.957059	0.306566
	N231	N	0.418191	0.030544	0.309211
	N232	N	0.680954	0.406456	0.953120
	N233	N	0.680098	0.578631	0.026048
	N234	N	0.323917	0.578771	0.952407
	N235	N	0.325066	0.407337	0.026436
	N236	N	0.966273	0.674198	0.401472
	N237	N	0.036784	0.674900	0.578264
	N238	N	0.966805	0.310724	0.578539
	N239	N	0.036896	0.311679	0.401183
	N240	N	0.965292	0.407106	0.667231
	N241	N	0.038803	0.578397	0.666918
	N242	N	0.965086	0.579111	0.311739
	N243	N	0.038569	0.407801	0.312257
	N244	N	0.414973	0.672206	0.952137
	N245	N	0.591086	0.674381	0.023134
	N246	N	0.589492	0.312604	0.952623
	N247	N	0.413956	0.311477	0.024460
	N248	N	0.684389	0.957820	0.398232
	N249	N	0.682374	0.028649	0.574312
	N250	N	0.320996	0.956896	0.574407
	N251	N	0.320547	0.028964	0.398913
	N252	N	0.915201	0.456425	0.170006
	N253	N	0.087798	0.529491	0.169442
	N254	N	0.090011	0.456519	0.808288
	N255	N	0.917443	0.529707	0.810864
	N256	N	0.179362	0.907461	0.451386
	N257	N	0.180118	0.078962	0.524482
	N258	N	0.824453	0.078944	0.451568
	N259	N	0.822598	0.906378	0.524478
	N260	N	0.467186	0.175302	0.897898
	N261	N	0.536943	0.173684	0.075502
	N262	N	0.466475	0.812070	0.074905
	N263	N	0.536711	0.809836	0.897372
	N264	N	0.465631	0.907470	0.165769
	N265	N	0.538878	0.078599	0.164682
	N266	N	0.464616	0.077685	0.810409
	N267	N	0.538542	0.907591	0.809972
	N268	N	0.914678	0.173105	0.453492
	N269	N	0.089640	0.173167	0.524310
	N270	N	0.090090	0.811849	0.453577
	N271	N	0.914661	0.813318	0.525307
	N272	N	0.183381	0.456400	0.902290
	N273	N	0.183786	0.528555	0.077505
	N274	N	0.819817	0.456853	0.078379
	N275	N	0.822142	0.528857	0.903015
	O276	O	0.584715	0.664641	0.408010
	H277	H	0.587214	0.652362	0.401300
	H278	H	0.600708	0.680238	0.402143
	O279	O	0.646545	0.309753	0.478742
	H280	H	0.643258	0.303620	0.481479
	H281	H	0.644055	0.304247	0.487723
	O282	O	0.350179	0.576106	0.489167
	H283	H	0.358827	0.570114	0.472453
	H284	H	0.347514	0.592196	0.476395
	O285	O	1.295668	0.361435	0.511189
	H286	H	1.270646	0.357813	0.503283
	H287	H	1.308294	0.366776	0.515200
	O288	O	0.180823	-0.117330	1.008521
	H289	H	0.177814	-0.105717	0.997508
	H290	H	0.192530	-0.128320	1.009313
	O291	O	0.526650	0.467018	0.595687
	H292	H	0.523750	0.473070	0.599267
	H293	H	0.524609	0.472278	0.597165
	O294	O	0.871977	1.096332	0.984877
	H295	H	0.875106	1.085821	0.985069
	H296	H	0.869541	1.086136	1.004571
	O297	O	0.876721	1.155565	0.826264
	H298	H	0.884980	1.177807	0.827769
	H299	H	0.862039	1.158008	0.838256
	O300	O	-0.034380	-0.055975	0.158032
	H301	H	-0.027852	-0.072274	0.152622
	H302	H	-0.048074	-0.055584	0.163684
	O303	O	0.089671	0.844351	1.085464
	H304	H	0.082102	0.856000	1.071772
	H305	H	0.101955	0.847181	1.074093
	O306	O	1.017778	0.020695	0.115909
	H307	H	1.008285	0.029671	0.109625
	H308	H	1.034005	0.015165	0.112910
	O309	O	0.498273	0.651380	0.410262
	H310	H	0.488244	0.657304	0.389953
	H311	H	0.497686	0.631269	0.414640
	O312	O	1.078965	0.819771	-0.200112
	H313	H	1.078620	0.804447	-0.219711
	H314	H	1.084225	0.849285	-0.198819
	O315	O	0.553851	0.432651	0.299808
	H316	H	0.554925	0.432909	0.312529
	H317	H	0.552920	0.433085	0.291654
	O318	O	0.670454	0.547939	0.593679
	H319	H	0.654371	0.561649	0.580958
	H320	H	0.674415	0.544568	0.577767
	O321	O	1.155673	0.122493	1.060160
	H322	H	1.146460	0.124870	1.069805
	H323	H	1.145937	0.118319	1.073555
	O324	O	-0.033169	-0.117902	0.928995
	H325	H	-0.033826	-0.102032	0.937772
	H326	H	-0.035107	-0.119235	0.914801
	O327	O	0.055177	0.919110	1.116686
	H328	H	0.059997	0.917135	1.110104
	H329	H	0.061094	0.908238	1.118097
	O330	O	0.537212	0.574723	0.419787
	H331	H	0.524817	0.570871	0.418792
	H332	H	0.564862	0.577715	0.415718
	O333	O	1.182751	0.925309	0.852487
	H334	H	1.168103	0.944736	0.853734
	H335	H	1.184290	0.938291	0.851095
	O336	O	0.358837	0.487662	0.665531
	H337	H	0.353696	0.479676	0.681735
	H338	H	0.362363	0.500051	0.638195
	O339	O	0.333356	0.444930	0.512100
	H340	H	0.321642	0.440462	0.518353
	H341	H	0.323577	0.450084	0.532347
	O342	O	-0.083315	0.985624	0.994896
	H343	H	-0.076488	0.981700	1.005210
	H344	H	-0.086834	0.975948	0.991095
	O345	O	-0.040552	0.931086	0.964812
	H346	H	-0.048964	0.933472	0.968640
	H347	H	-0.034766	0.936329	0.955246
	O348	O	0.657139	0.357320	0.302170
	H349	H	0.624193	0.346311	0.296162
	H350	H	0.660315	0.355159	0.325619
	O351	O	-0.185052	0.018611	0.128312
	H352	H	-0.193732	-0.003713	0.141425
	H353	H	-0.193879	0.008632	0.122910
	O354	O	0.562355	0.476600	-0.463557
	H355	H	0.567722	0.479308	-0.452602
	H356	H	0.562074	0.484652	-0.458293
	O357	O	-0.084697	1.079466	0.126514
	H358	H	-0.091060	1.066036	0.122598
	H359	H	-0.088084	1.068502	0.135256
	O360	O	0.380457	0.480484	0.287390
	H361	H	0.382935	0.485662	0.290125
	H362	H	0.366336	0.496223	0.277651
	O363	O	0.536876	0.458148	0.669479
	H364	H	0.546496	0.466934	0.680766
	H365	H	0.545812	0.479569	0.668333
	O366	O	0.605137	0.699845	0.635419
	H367	H	0.608594	0.687879	0.645280
	H368	H	0.606315	0.707341	0.642981
	O369	O	0.469110	0.335920	0.679531
	H370	H	0.478242	0.343355	0.672320
	H371	H	0.469201	0.308535	0.701794
	O372	O	0.449456	0.480853	0.493925
	H373	H	0.453818	0.480256	0.489023
	H374	H	0.459966	0.489106	0.496882
	O375	O	0.706723	0.471899	0.337572
	H376	H	0.717698	0.459472	0.320911
	H377	H	0.704718	0.441556	0.339606
	O378	O	0.622086	0.611825	0.562740
	H379	H	0.626175	0.609944	0.565743
	H380	H	0.624489	0.608506	0.565332
	O381	O	0.463464	0.344483	0.419630
	H382	H	0.452981	0.346907	0.418317
	H383	H	0.456390	0.352464	0.420857
	O384	O	0.368788	0.546264	1.407046
	H385	H	0.369598	0.548307	1.403790
	H386	H	0.374600	0.556327	1.404999
	O387	O	0.930098	0.807037	-0.004900
	H388	H	0.952801	0.809459	-0.003853
	H389	H	0.928252	0.799524	-0.019018
	O390	O	0.595708	0.554441	0.469372
	H391	H	0.587914	0.567757	0.463995
	H392	H	0.600595	0.543461	0.456132
	O393	O	1.102604	-0.057112	1.054435
	H394	H	1.104060	-0.051323	1.063339
	H395	H	1.099867	-0.056324	1.045971
	O396	O	-0.010404	0.865647	0.946464
	H397	H	-0.013036	0.860651	0.931693
	H398	H	-0.013303	0.880032	0.930711
	O399	O	0.412874	0.303816	0.588061
	H400	H	0.403789	0.314673	0.593678
	H401	H	0.423253	0.305849	0.588708
	O402	O	0.935998	-0.148374	1.105798
	H403	H	0.965002	-0.147277	1.104793
	H404	H	0.936387	-0.165049	1.096434
	O405	O	-0.016350	0.029700	0.042632
	H406	H	-0.023408	0.028671	0.052784
	H407	H	-0.007807	0.027906	0.044189
	O408	O	1.042264	0.962110	0.793198
	H409	H	1.047158	0.977839	0.805079
	H410	H	1.049740	0.959050	0.779672
	O411	O	1.053231	1.077143	-0.192265
	H412	H	1.076683	1.079807	-0.183691
	H413	H	1.046531	1.102194	-0.195355
	O414	O	0.197185	0.186062	0.963719
	H415	H	0.194945	0.189762	0.982633
	H416	H	0.204590	0.192626	0.957076
	O417	O	0.509779	0.513166	0.614473
	H418	H	0.523375	0.494838	0.618560
	H419	H	0.510200	0.520672	0.608829
	O420	O	-0.170888	1.047397	-0.183394
	H421	H	-0.181179	1.053120	-0.192632
	H422	H	-0.167414	1.056183	-0.169280
	O423	O	1.053669	0.154274	0.140791
	H424	H	1.049261	0.151609	0.143899
	H425	H	1.043696	0.150177	0.126930
	O426	O	-0.141839	0.192328	0.915343
	H427	H	-0.163807	0.209244	0.931746
	H428	H	-0.144768	0.169634	0.921548
	O429	O	0.331941	0.577096	0.365977
	H430	H	0.338913	0.576785	0.374642
	H431	H	0.319410	0.587478	0.368342
