data_Molecule from HDF5

_cell_length_a		16.203945
_cell_length_b		16.362021
_cell_length_c		16.205509
_cell_angle_alpha	90.390113
_cell_angle_beta	90.282558
_cell_angle_gamma	90.197787
_symmetry_space_group_name_H-M	'P 1'
_symmetry_Int_Tables_number		1

loop_
	_symmetry_equiv_pos_as_xyz
	x,y,z

loop_
	_atom_site_label
	_atom_site_type_symbol
	_atom_site_fract_x
	_atom_site_fract_y
	_atom_site_fract_z
	H0	H	0.401543	0.843100	0.714035
	H1	H	0.603350	0.166380	0.719838
	H2	H	0.602218	0.843851	0.281711
	H3	H	0.401360	0.167557	0.284873
	H4	H	0.712379	0.406053	0.834767
	H5	H	0.718341	0.610619	0.161241
	H6	H	0.285001	0.602331	0.834958
	H7	H	0.285359	0.407338	0.163238
	H8	H	0.839666	0.725221	0.396120
	H9	H	0.164430	0.723594	0.604517
	H10	H	0.839299	0.287234	0.604957
	H11	H	0.164720	0.290757	0.400940
	H12	H	0.836211	0.408268	0.712429
	H13	H	0.164034	0.607218	0.717959
	H14	H	0.836998	0.605585	0.284389
	H15	H	0.164206	0.404730	0.283503
	H16	H	0.393656	0.723229	0.837478
	H17	H	0.603139	0.725701	0.161245
	H18	H	0.600769	0.285986	0.836823
	H19	H	0.396492	0.288149	0.162267
	H20	H	0.718781	0.844395	0.398631
	H21	H	0.719337	0.167993	0.604270
	H22	H	0.283303	0.844340	0.601721
	H23	H	0.285018	0.167704	0.400811
	H24	H	0.897371	0.344081	0.215001
	H25	H	0.102642	0.667420	0.219203
	H26	H	0.097797	0.344582	0.783008
	H27	H	0.897303	0.667849	0.782047
	H28	H	0.214710	0.906577	0.337183
	H29	H	0.218449	0.106964	0.665359
	H30	H	0.784301	0.107345	0.339276
	H31	H	0.786403	0.906129	0.664523
	H32	H	0.336536	0.219771	0.896719
	H33	H	0.661965	0.226214	0.103381
	H34	H	0.336765	0.790470	0.101539
	H35	H	0.661026	0.785400	0.895941
	H36	H	0.336801	0.906932	0.214214
	H37	H	0.663214	0.109484	0.218311
	H38	H	0.336793	0.100941	0.784033
	H39	H	0.664167	0.904349	0.785459
	H40	H	0.899888	0.221789	0.338323
	H41	H	0.106888	0.226282	0.663905
	H42	H	0.105407	0.786715	0.339873
	H43	H	0.898579	0.788060	0.663079
	H44	H	0.214672	0.344270	0.897766
	H45	H	0.218348	0.668210	0.102532
	H46	H	0.780521	0.344896	0.098921
	H47	H	0.780533	0.667413	0.895436
	H48	H	0.413127	0.119492	0.589732
	H49	H	0.599185	0.889397	0.587125
	H50	H	0.589591	0.117821	0.414824
	H51	H	0.406750	0.890109	0.409023
	H52	H	0.580334	0.413474	0.112641
	H53	H	0.586163	0.597730	0.883377
	H54	H	0.418729	0.598343	0.113030
	H55	H	0.413415	0.421370	0.887347
	H56	H	0.117088	0.591064	0.403634
	H57	H	0.881462	0.600475	0.594410
	H58	H	0.114903	0.420920	0.589988
	H59	H	0.886074	0.413004	0.414369
	H60	H	0.118901	0.415516	0.596555
	H61	H	0.885658	0.602025	0.584814
	H62	H	0.119620	0.605076	0.409722
	H63	H	0.885871	0.418253	0.405349
	H64	H	0.405703	0.607989	0.119928
	H65	H	0.589081	0.597768	0.883118
	H66	H	0.595338	0.411717	0.118010
	H67	H	0.412513	0.400105	0.880731
	H68	H	0.598366	0.121414	0.411823
	H69	H	0.597355	0.887171	0.598809
	H70	H	0.407228	0.121770	0.591467
	H71	H	0.408607	0.888728	0.405529
	H72	H	0.915388	0.621268	0.097617
	H73	H	0.090789	0.392058	0.087503
	H74	H	0.088839	0.622696	0.902278
	H75	H	0.906170	0.391817	0.907172
	H76	H	0.097450	0.903469	0.623155
	H77	H	0.090856	0.104451	0.384353
	H78	H	0.914248	0.102597	0.619074
	H79	H	0.911326	0.917221	0.386359
	H80	H	0.618800	0.095391	0.900480
	H81	H	0.384041	0.093552	0.094648
	H82	H	0.613954	0.914506	0.083052
	H83	H	0.384159	0.911564	0.912004
	H84	H	0.615100	0.921799	0.091992
	H85	H	0.381355	0.102022	0.093943
	H86	H	0.618201	0.107655	0.914537
	H87	H	0.383977	0.918610	0.905308
	H88	H	0.907334	0.097239	0.619449
	H89	H	0.099310	0.096799	0.383969
	H90	H	0.102114	0.925007	0.618151
	H91	H	0.914590	0.916324	0.386538
	H92	H	0.088315	0.619203	0.914589
	H93	H	0.095290	0.389555	0.091254
	H94	H	0.911780	0.617882	0.083158
	H95	H	0.905086	0.390416	0.905029
	H96	H	0.412232	0.121441	0.596609
	H97	H	0.589333	0.891014	0.591229
	H98	H	0.590439	0.121506	0.405574
	H99	H	0.410180	0.890693	0.408002
	H100	H	0.591000	0.425168	0.112745
	H101	H	0.588328	0.595254	0.883987
	H102	H	0.403078	0.592001	0.115152
	H103	H	0.393961	0.413035	0.878675
	H104	H	0.113410	0.594021	0.418124
	H105	H	0.886307	0.592600	0.588811
	H106	H	0.117774	0.412241	0.588541
	H107	H	0.882934	0.408032	0.405644
	H108	H	0.901239	0.624161	0.092350
	H109	H	0.089447	0.390869	0.094024
	H110	H	0.099428	0.624630	0.910874
	H111	H	0.907657	0.390990	0.905362
	H112	H	0.081162	0.916269	0.613782
	H113	H	0.088732	0.094616	0.387220
	H114	H	0.915991	0.095476	0.615438
	H115	H	0.912498	0.914492	0.386091
	H116	H	0.612487	0.090549	0.917346
	H117	H	0.384369	0.097755	0.086970
	H118	H	0.619349	0.910899	0.093052
	H119	H	0.381263	0.909509	0.902450
	C120	C	0.380698	0.013981	0.621504
	C121	C	0.624776	0.996459	0.623147
	C122	C	0.623309	0.014155	0.379193
	C123	C	0.379216	0.996923	0.378589
	C124	C	0.619482	0.385331	0.007315
	C125	C	0.619991	0.628106	0.990526
	C126	C	0.378158	0.627957	0.008352
	C127	C	0.377183	0.383054	0.990277
	C128	C	0.009373	0.627058	0.379057
	C129	C	0.992205	0.628664	0.621628
	C130	C	0.009280	0.385962	0.621191
	C131	C	0.992622	0.383601	0.378778
	C132	C	0.878028	0.514436	0.120612
	C133	C	0.122203	0.497624	0.122024
	C134	C	0.120497	0.514521	0.878846
	C135	C	0.876295	0.497827	0.876233
	C136	C	0.123353	0.884877	0.510393
	C137	C	0.123844	0.128891	0.493054
	C138	C	0.880971	0.128298	0.510593
	C139	C	0.881550	0.885127	0.493090
	C140	C	0.508791	0.126248	0.879444
	C141	C	0.491300	0.128443	0.122262
	C142	C	0.508478	0.885974	0.119792
	C143	C	0.491258	0.883222	0.877571
	C144	C	0.381408	0.891749	0.676691
	C145	C	0.623332	0.118475	0.680929
	C146	C	0.622472	0.892537	0.320756
	C147	C	0.380974	0.118917	0.323089
	C148	C	0.675319	0.385656	0.884274
	C149	C	0.679166	0.629128	0.112517
	C150	C	0.322052	0.623967	0.884520
	C151	C	0.322289	0.386207	0.113944
	C152	C	0.887753	0.685644	0.377679
	C153	C	0.115201	0.685251	0.623056
	C154	C	0.887436	0.327481	0.622111
	C155	C	0.115551	0.327973	0.380108
	C156	C	0.885658	0.387730	0.675940
	C157	C	0.115001	0.627558	0.679681
	C158	C	0.886470	0.626108	0.322000
	C159	C	0.115056	0.384885	0.321729
	C160	C	0.376464	0.683891	0.885757
	C161	C	0.621996	0.686670	0.112611
	C162	C	0.619671	0.326002	0.885370
	C163	C	0.377804	0.326929	0.113452
	C164	C	0.680451	0.892673	0.379100
	C165	C	0.681004	0.119017	0.623248
	C166	C	0.322818	0.892282	0.620555
	C167	C	0.323005	0.118920	0.380681
	C168	C	0.877806	0.392654	0.176883
	C169	C	0.121829	0.619218	0.179896
	C170	C	0.118315	0.392935	0.821309
	C171	C	0.877633	0.619522	0.820218
	C172	C	0.177853	0.886522	0.386833
	C173	C	0.180843	0.127703	0.616037
	C174	C	0.823067	0.126995	0.387876
	C175	C	0.824565	0.886365	0.615525
	C176	C	0.385474	0.181586	0.878148
	C177	C	0.613584	0.186673	0.122582
	C178	C	0.385602	0.828823	0.120392
	C179	C	0.613023	0.825278	0.877996
	C180	C	0.385862	0.886706	0.176889
	C181	C	0.614224	0.128620	0.179744
	C182	C	0.385744	0.122594	0.821878
	C183	C	0.614816	0.884572	0.822785
	C184	C	0.880942	0.183824	0.387480
	C185	C	0.124609	0.186539	0.615704
	C186	C	0.123790	0.826469	0.388127
	C187	C	0.880077	0.827019	0.614612
	C188	C	0.176461	0.392861	0.878455
	C189	C	0.179771	0.619471	0.122255
	C190	C	0.819680	0.393224	0.119210
	C191	C	0.819253	0.619103	0.876724
	C192	C	0.404087	0.098770	0.599009
	C193	C	0.601929	0.911456	0.599296
	C194	C	0.599748	0.098370	0.403591
	C195	C	0.401929	0.911946	0.400915
	C196	C	0.595742	0.409754	0.092693
	C197	C	0.595045	0.603908	0.905429
	C198	C	0.402307	0.605985	0.093885
	C199	C	0.399862	0.405040	0.904592
	C200	C	0.094480	0.603745	0.403462
	C201	C	0.906835	0.605263	0.596695
	C202	C	0.094959	0.409618	0.598427
	C203	C	0.907101	0.406524	0.401857
	C204	C	0.902373	0.598838	0.097783
	C205	C	0.098680	0.412769	0.097928
	C206	C	0.098249	0.600089	0.902119
	C207	C	0.899422	0.412976	0.899280
	C208	C	0.100226	0.907954	0.596230
	C209	C	0.099744	0.105457	0.407314
	C210	C	0.905534	0.105331	0.595948
	C211	C	0.905963	0.908987	0.408247
	C212	C	0.594668	0.104306	0.903779
	C213	C	0.405698	0.104610	0.098778
	C214	C	0.593939	0.909015	0.096170
	C215	C	0.405505	0.906530	0.900076
	Zn216	Zn	0.501480	0.004419	0.750572
	Zn217	Zn	0.500953	0.005602	0.249601
	Zn218	Zn	0.748451	0.506587	-0.001751
	Zn219	Zn	0.250484	0.506375	-0.000571
	Zn220	Zn	0.002470	0.756438	0.500823
	Zn221	Zn	0.002100	0.256497	0.501514
	Zn222	Zn	-0.000282	0.506944	0.748981
	Zn223	Zn	0.000018	0.505571	0.250452
	Zn224	Zn	0.498455	0.756578	-0.000299
	Zn225	Zn	0.498949	0.255600	-0.000132
	Zn226	Zn	0.753126	0.006445	0.501292
	Zn227	Zn	0.250783	0.005647	0.501413
	N228	N	0.417064	0.968139	0.677155
	N229	N	0.589118	0.041275	0.681182
	N230	N	0.587571	0.969016	0.320743
	N231	N	0.415188	0.042099	0.321628
	N232	N	0.675241	0.421840	0.961103
	N233	N	0.678069	0.593447	0.035454
	N234	N	0.322916	0.589932	0.961821
	N235	N	0.321675	0.420389	0.036564
	N236	N	0.965226	0.686386	0.412711
	N237	N	0.037790	0.686157	0.587841
	N238	N	0.965353	0.326250	0.588952
	N239	N	0.038397	0.327038	0.414682
	N240	N	0.962448	0.423636	0.675474
	N241	N	0.037411	0.593078	0.679060
	N242	N	0.962954	0.590432	0.322785
	N243	N	0.037321	0.418666	0.320615
	N244	N	0.410466	0.686627	0.963637
	N245	N	0.585988	0.686421	0.035666
	N246	N	0.585782	0.325763	0.962990
	N247	N	0.411280	0.324892	0.035639
	N248	N	0.681145	0.969296	0.414584
	N249	N	0.682077	0.042241	0.588415
	N250	N	0.322131	0.969272	0.587038
	N251	N	0.321599	0.042006	0.414275
	N252	N	0.913552	0.468918	0.177898
	N253	N	0.087162	0.542359	0.180073
	N254	N	0.084455	0.469863	0.821391
	N255	N	0.912400	0.543064	0.819565
	N256	N	0.177379	0.922280	0.463878
	N257	N	0.180301	0.092586	0.538700
	N258	N	0.822862	0.093145	0.465330
	N259	N	0.825532	0.921933	0.539005
	N260	N	0.462988	0.183955	0.913083
	N261	N	0.536233	0.186687	0.087624
	N262	N	0.463001	0.828016	0.085605
	N263	N	0.535141	0.824209	0.911203
	N264	N	0.463179	0.921497	0.176614
	N265	N	0.537028	0.093287	0.179846
	N266	N	0.463439	0.088888	0.822539
	N267	N	0.537917	0.919834	0.822427
	N268	N	0.915981	0.184837	0.464948
	N269	N	0.089897	0.187406	0.538060
	N270	N	0.090542	0.825242	0.465941
	N271	N	0.915384	0.826593	0.537526
	N272	N	0.177909	0.469608	0.913433
	N273	N	0.180201	0.542799	0.086932
	N274	N	0.819387	0.469911	0.085045
	N275	N	0.818343	0.542294	0.910773
	O276	O	0.038660	-0.008506	0.009532
	H277	H	0.037498	-0.014243	0.006556
	H278	H	0.036029	-0.019419	0.012357
	O279	O	0.411403	0.704351	0.428568
	H280	H	0.412495	0.708460	0.423242
	H281	H	0.409369	0.700993	0.421212
	O282	O	0.501491	-0.566218	-0.416342
	H283	H	0.505034	-0.570590	-0.412449
	H284	H	0.505912	-0.572460	-0.404393
	O285	O	0.052403	1.102908	0.165648
	H286	H	0.066241	1.103306	0.151533
	H287	H	0.053151	1.116823	0.174251
	O288	O	0.421953	0.415382	0.662595
	H289	H	0.427112	0.427085	0.660103
	H290	H	0.442671	0.416253	0.666800
	O291	O	1.159952	0.144171	1.051616
	H292	H	1.164966	0.139555	1.070898
	H293	H	1.154166	0.146923	1.048113
	O294	O	0.946739	0.970701	1.173064
	H295	H	0.951551	0.979198	1.172968
	H296	H	0.962764	0.967242	1.170048
	O297	O	0.109261	0.101915	-0.004202
	H298	H	0.109066	0.092198	-0.001939
	H299	H	0.114479	0.106149	-0.004694
	O300	O	0.489425	0.437043	0.520601
	H301	H	0.467647	0.428137	0.509021
	H302	H	0.479605	0.430476	0.521092
	O303	O	-0.079977	0.856410	0.984752
	H304	H	-0.083845	0.856984	0.984186
	H305	H	-0.088527	0.872261	0.989783
	O306	O	0.534604	0.401776	0.432969
	H307	H	0.540240	0.390835	0.432834
	H308	H	0.532810	0.401667	0.437303
	O309	O	1.005770	-0.115545	0.088589
	H310	H	1.004131	-0.123884	0.077678
	H311	H	1.013575	-0.107551	0.085469
	O312	O	0.116149	-0.111223	0.879143
	H313	H	0.119814	-0.110894	0.870819
	H314	H	0.107504	-0.108039	0.881437
	O315	O	0.461448	0.397276	0.515751
	H316	H	0.447954	0.387166	0.517727
	H317	H	0.472556	0.397022	0.531380
	O318	O	0.638205	0.345334	0.398630
	H319	H	0.645392	0.339692	0.407898
	H320	H	0.636418	0.350680	0.392262
	O321	O	0.608042	0.496615	0.443966
	H322	H	0.611273	0.500413	0.441202
	H323	H	0.617617	0.494358	0.441235
	O324	O	0.400346	0.572001	0.492520
	H325	H	0.389671	0.561020	0.491784
	H326	H	0.401564	0.563101	0.493723
	O327	O	0.037613	0.999369	0.868624
	H328	H	0.031922	0.996052	0.879932
	H329	H	0.042437	1.002379	0.873811
	O330	O	-0.141443	-0.004004	0.134618
	H331	H	-0.146825	-0.008681	0.136535
	H332	H	-0.138689	0.001976	0.138141
	O333	O	-0.153972	1.041738	1.050840
	H334	H	-0.150131	1.027693	1.062859
	H335	H	-0.156936	1.038164	1.045606
	O336	O	1.151331	0.868774	1.014385
	H337	H	1.167848	0.858085	1.016090
	H338	H	1.140448	0.866056	0.994378
	O339	O	0.375066	0.479484	0.536044
	H340	H	0.377408	0.487385	0.541805
	H341	H	0.361538	0.478050	0.525193
	O342	O	0.967586	-0.107039	-0.053316
	H343	H	0.968346	-0.109042	-0.058708
	H344	H	0.974563	-0.108683	-0.050674
	O345	O	0.667980	0.589185	0.598193
	H346	H	0.668013	0.591967	0.593697
	H347	H	0.676043	0.589955	0.607813
	O348	O	1.052535	1.132518	1.093861
	H349	H	1.050895	1.136061	1.098781
	H350	H	1.051859	1.147961	1.088058
	O351	O	1.057654	1.128525	0.065243
	H352	H	1.071526	1.138608	0.064528
	H353	H	1.054158	1.110728	0.052399
	O354	O	0.570051	0.478142	0.367763
	H355	H	0.576103	0.472132	0.351785
	H356	H	0.590267	0.473793	0.371759
	O357	O	0.496470	0.612433	0.649655
	H358	H	0.501241	0.612635	0.665293
	H359	H	0.483692	0.623545	0.625636
	O360	O	-0.098429	0.081888	-0.165104
	H361	H	-0.105955	0.084774	-0.169416
	H362	H	-0.111740	0.086272	-0.166906
	O363	O	0.643085	0.581134	0.526375
	H364	H	0.639343	0.586615	0.517178
	H365	H	0.650699	0.585950	0.527125
	O366	O	0.627872	0.451163	0.381721
	H367	H	0.651261	0.454400	0.363749
	H368	H	0.613973	0.460123	0.382305
	O369	O	0.396337	0.593544	0.314648
	H370	H	0.392631	0.589495	0.325101
	H371	H	0.398964	0.604907	0.300682
	O372	O	0.525142	0.494772	0.389935
	H373	H	0.541195	0.497962	0.399720
	H374	H	0.528307	0.492187	0.391662
	O375	O	0.361928	0.513515	0.472058
	H376	H	0.365643	0.497166	0.465888
	H377	H	0.356697	0.498231	0.478048
	O378	O	0.419819	0.342598	0.491769
	H379	H	0.417433	0.339498	0.497426
	H380	H	0.418325	0.345682	0.479565
	O381	O	0.557138	0.543023	0.488647
	H382	H	0.556096	0.539544	0.494308
	H383	H	0.560113	0.537808	0.492750
	O384	O	-0.031541	1.059010	-0.109529
	H385	H	-0.030208	1.050407	-0.121541
	H386	H	-0.036125	1.073597	-0.106777
	O387	O	1.095522	0.030042	1.075456
	H388	H	1.094313	0.037302	1.080136
	H389	H	1.091253	0.023565	1.068380
	O390	O	-0.179703	0.918758	0.047235
	H391	H	-0.183699	0.925424	0.056716
	H392	H	-0.179673	0.902860	0.061032
	O393	O	0.928953	1.149966	-0.026118
	H394	H	0.935451	1.153944	-0.026471
	H395	H	0.937865	1.151186	-0.018059
	O396	O	0.447995	0.666883	0.537217
	H397	H	0.435732	0.664986	0.523258
	H398	H	0.442745	0.667977	0.545593
	O399	O	-0.111427	0.954000	0.868095
	H400	H	-0.134673	0.947190	0.869235
	H401	H	-0.119915	0.950954	0.870678
	O402	O	1.081321	0.904089	0.959128
	H403	H	1.080789	0.898203	0.954303
	H404	H	1.091675	0.927254	0.967176
	O405	O	0.609294	0.497299	0.668481
	H406	H	0.607308	0.503517	0.673452
	H407	H	0.613971	0.516096	0.677653
