data_Molecule from HDF5

_cell_length_a		16.511980
_cell_length_b		16.628881
_cell_length_c		16.568121
_cell_angle_alpha	89.937865
_cell_angle_beta	90.024877
_cell_angle_gamma	90.101515
_symmetry_space_group_name_H-M	'P 1'
_symmetry_Int_Tables_number		1

loop_
	_symmetry_equiv_pos_as_xyz
	x,y,z

loop_
	_atom_site_label
	_atom_site_type_symbol
	_atom_site_fract_x
	_atom_site_fract_y
	_atom_site_fract_z
	H0	H	0.394325	0.855133	0.722642
	H1	H	0.604787	0.167310	0.724222
	H2	H	0.604917	0.857117	0.278549
	H3	H	0.391655	0.167459	0.278959
	H4	H	0.721447	0.405794	0.846516
	H5	H	0.721546	0.617531	0.157692
	H6	H	0.279333	0.615554	0.845079
	H7	H	0.276226	0.407237	0.158280
	H8	H	0.840417	0.731680	0.396533
	H9	H	0.154384	0.734123	0.605491
	H10	H	0.841963	0.291525	0.606139
	H11	H	0.154921	0.289806	0.395127
	H12	H	0.842454	0.407321	0.722199
	H13	H	0.154654	0.617778	0.721441
	H14	H	0.840378	0.614035	0.281464
	H15	H	0.156594	0.407928	0.280842
	H16	H	0.394564	0.733532	0.845949
	H17	H	0.607771	0.736074	0.156869
	H18	H	0.605566	0.287991	0.846810
	H19	H	0.390652	0.288622	0.157304
	H20	H	0.721016	0.856780	0.395866
	H21	H	0.720425	0.167946	0.607330
	H22	H	0.276621	0.855919	0.606607
	H23	H	0.276847	0.168206	0.397520
	H24	H	0.893935	0.356323	0.222752
	H25	H	0.103826	0.669394	0.222446
	H26	H	0.104987	0.357896	0.778066
	H27	H	0.892449	0.667426	0.777880
	H28	H	0.219533	0.908141	0.344520
	H29	H	0.218730	0.115951	0.658469
	H30	H	0.776016	0.117095	0.345641
	H31	H	0.778399	0.908154	0.658437
	H32	H	0.341505	0.234025	0.894809
	H33	H	0.653743	0.234658	0.107683
	H34	H	0.342135	0.788778	0.108254
	H35	H	0.655691	0.792082	0.897488
	H36	H	0.342004	0.904265	0.224572
	H37	H	0.653442	0.118403	0.225094
	H38	H	0.341742	0.116835	0.779590
	H39	H	0.656364	0.909262	0.781963
	H40	H	0.891926	0.235094	0.345850
	H41	H	0.104164	0.233857	0.657241
	H42	H	0.102976	0.791554	0.343810
	H43	H	0.892177	0.789819	0.656338
	H44	H	0.220539	0.356916	0.895632
	H45	H	0.218772	0.669972	0.104646
	H46	H	0.776616	0.356894	0.105757
	H47	H	0.776728	0.667736	0.895314
	H48	H	0.402629	0.126084	0.591877
	H49	H	0.585873	0.901507	0.590167
	H50	H	0.582020	0.120905	0.416235
	H51	H	0.407923	0.900784	0.414212
	H52	H	0.586117	0.417562	0.115143
	H53	H	0.585907	0.599126	0.891540
	H54	H	0.414806	0.604352	0.113004
	H55	H	0.412960	0.425770	0.891891
	H56	H	0.111077	0.602312	0.409026
	H57	H	0.886581	0.596963	0.589759
	H58	H	0.109091	0.424924	0.583941
	H59	H	0.886744	0.424281	0.412193
	H60	H	0.111038	0.428009	0.593217
	H61	H	0.883329	0.603038	0.592595
	H62	H	0.111700	0.605189	0.412469
	H63	H	0.885959	0.422178	0.410324
	H64	H	0.406034	0.602355	0.116190
	H65	H	0.584666	0.604583	0.890396
	H66	H	0.591612	0.428349	0.113036
	H67	H	0.411166	0.420045	0.889585
	H68	H	0.590208	0.124317	0.415714
	H69	H	0.589358	0.899680	0.590224
	H70	H	0.414142	0.123334	0.596584
	H71	H	0.409566	0.900249	0.411613
	H72	H	0.908677	0.624976	0.092490
	H73	H	0.088321	0.401511	0.090119
	H74	H	0.091728	0.622993	0.916228
	H75	H	0.912162	0.401166	0.910359
	H76	H	0.090930	0.921002	0.614384
	H77	H	0.085373	0.102604	0.389021
	H78	H	0.910440	0.099177	0.612715
	H79	H	0.906494	0.925089	0.388815
	H80	H	0.608612	0.099280	0.914005
	H81	H	0.385702	0.099751	0.091224
	H82	H	0.610525	0.925992	0.095480
	H83	H	0.383788	0.917729	0.910663
	H84	H	0.610745	0.918559	0.087923
	H85	H	0.386328	0.101499	0.087066
	H86	H	0.611450	0.102044	0.911609
	H87	H	0.387833	0.921780	0.917642
	H88	H	0.912021	0.103006	0.612898
	H89	H	0.088534	0.100726	0.389211
	H90	H	0.085452	0.927854	0.610484
	H91	H	0.911875	0.923307	0.389250
	H92	H	0.089587	0.626607	0.907043
	H93	H	0.088788	0.400703	0.091776
	H94	H	0.912703	0.623798	0.091513
	H95	H	0.911239	0.403067	0.915336
	H96	H	0.411604	0.120102	0.584711
	H97	H	0.587178	0.899725	0.593493
	H98	H	0.585023	0.123655	0.408218
	H99	H	0.410756	0.901732	0.414307
	H100	H	0.579947	0.426917	0.109531
	H101	H	0.590175	0.602142	0.888773
	H102	H	0.411471	0.595483	0.112422
	H103	H	0.406814	0.424582	0.889440
	H104	H	0.109750	0.601411	0.413107
	H105	H	0.885592	0.603053	0.585354
	H106	H	0.113634	0.418711	0.590137
	H107	H	0.886946	0.421038	0.412827
	H108	H	0.909199	0.623728	0.088429
	H109	H	0.087377	0.402042	0.091935
	H110	H	0.082452	0.622260	0.913067
	H111	H	0.907889	0.400369	0.912561
	H112	H	0.082063	0.918934	0.611670
	H113	H	0.085996	0.099586	0.390239
	H114	H	0.908020	0.102157	0.614346
	H115	H	0.907748	0.920189	0.387351
	H116	H	0.609892	0.103716	0.915644
	H117	H	0.387054	0.097017	0.087908
	H118	H	0.606984	0.927967	0.085653
	H119	H	0.386622	0.926253	0.910287
	C120	C	0.376975	0.020026	0.623423
	C121	C	0.620105	1.003554	0.623713
	C122	C	0.618879	0.020357	0.380594
	C123	C	0.376320	1.003443	0.380254
	C124	C	0.619355	0.391115	0.009850
	C125	C	0.620202	0.633911	0.993653
	C126	C	0.378461	0.632924	0.010528
	C127	C	0.376586	0.390401	0.993100
	C128	C	0.006374	0.633423	0.379870
	C129	C	0.988939	0.633675	0.621631
	C130	C	0.007737	0.391281	0.621834
	C131	C	0.990102	0.390059	0.379075
	C132	C	0.877629	0.520981	0.122546
	C133	C	0.120445	0.504642	0.123182
	C134	C	0.120310	0.521022	0.879622
	C135	C	0.877459	0.503829	0.879792
	C136	C	0.118329	0.891108	0.508600
	C137	C	0.118911	0.132810	0.493053
	C138	C	0.877182	0.133583	0.510016
	C139	C	0.876382	0.890713	0.492078
	C140	C	0.506156	0.132992	0.881052
	C141	C	0.489492	0.132464	0.121857
	C142	C	0.506475	0.890499	0.123130
	C143	C	0.490404	0.891105	0.881166
	C144	C	0.375282	0.902337	0.682989
	C145	C	0.623009	0.120656	0.684100
	C146	C	0.622543	0.903451	0.319431
	C147	C	0.373362	0.120693	0.319510
	C148	C	0.680872	0.387766	0.892929
	C149	C	0.681570	0.636162	0.110649
	C150	C	0.318804	0.634600	0.892249
	C151	C	0.315909	0.388139	0.110944
	C152	C	0.887662	0.692029	0.377996
	C153	C	0.107100	0.694012	0.623942
	C154	C	0.889371	0.331273	0.624540
	C155	C	0.107860	0.329616	0.376340
	C156	C	0.889622	0.388919	0.682278
	C157	C	0.107350	0.636095	0.681585
	C158	C	0.887639	0.633608	0.320864
	C159	C	0.108702	0.388712	0.319838
	C160	C	0.376018	0.693012	0.892757
	C161	C	0.624763	0.694903	0.110410
	C162	C	0.623245	0.329410	0.893245
	C163	C	0.372896	0.329411	0.110811
	C164	C	0.680220	0.903494	0.377817
	C165	C	0.680505	0.120927	0.625851
	C166	C	0.317010	0.902537	0.625121
	C167	C	0.316269	0.121156	0.378233
	C168	C	0.875320	0.403217	0.182374
	C169	C	0.121895	0.622415	0.182515
	C170	C	0.122982	0.404453	0.818629
	C171	C	0.874494	0.620876	0.818789
	C172	C	0.178916	0.889480	0.391140
	C173	C	0.178828	0.134603	0.611052
	C174	C	0.816422	0.135822	0.392298
	C175	C	0.817749	0.889390	0.610804
	C176	C	0.388535	0.193553	0.877372
	C177	C	0.606966	0.194062	0.125837
	C178	C	0.389141	0.829050	0.126364
	C179	C	0.608899	0.831997	0.879330
	C180	C	0.389028	0.886676	0.184157
	C181	C	0.606789	0.136254	0.183758
	C182	C	0.388396	0.135199	0.820183
	C183	C	0.609014	0.890269	0.821985
	C184	C	0.873795	0.194402	0.392515
	C185	C	0.121865	0.193143	0.610734
	C186	C	0.120907	0.831646	0.390751
	C187	C	0.874302	0.830487	0.609877
	C188	C	0.180214	0.403923	0.877454
	C189	C	0.179245	0.622806	0.124074
	C190	C	0.817344	0.403377	0.124172
	C191	C	0.816835	0.621033	0.876998
	C192	C	0.402157	0.101710	0.598316
	C193	C	0.594698	0.921672	0.598584
	C194	C	0.592862	0.101593	0.406079
	C195	C	0.402050	0.922304	0.406094
	C196	C	0.593222	0.416744	0.091432
	C197	C	0.594234	0.609014	0.911715
	C198	C	0.403698	0.607918	0.092550
	C199	C	0.402850	0.415926	0.911439
	C200	C	0.089402	0.609576	0.404446
	C201	C	0.906618	0.608266	0.596513
	C202	C	0.089881	0.416485	0.596276
	C203	C	0.907911	0.415028	0.404386
	C204	C	0.902945	0.602824	0.097853
	C205	C	0.095292	0.422614	0.098433
	C206	C	0.095050	0.602774	0.905024
	C207	C	0.903208	0.422602	0.905309
	C208	C	0.093180	0.915605	0.590731
	C209	C	0.093686	0.108086	0.411014
	C210	C	0.902794	0.108572	0.591987
	C211	C	0.901418	0.915813	0.409932
	C212	C	0.588625	0.108455	0.906469
	C213	C	0.407647	0.106761	0.096099
	C214	C	0.588205	0.916865	0.097186
	C215	C	0.407606	0.915094	0.905778
	Zn216	Zn	0.498525	0.012001	0.752244
	Zn217	Zn	0.497613	0.011850	0.251326
	Zn218	Zn	0.748747	0.512500	0.001125
	Zn219	Zn	0.249168	0.512892	0.001763
	Zn220	Zn	-0.002457	0.762160	0.500106
	Zn221	Zn	-0.001103	0.262536	0.501151
	Zn222	Zn	-0.001430	0.512723	0.750278
	Zn223	Zn	-0.001358	0.512352	0.251704
	Zn224	Zn	0.499041	0.762343	0.002215
	Zn225	Zn	0.497414	0.262165	0.002023
	Zn226	Zn	0.748361	0.012413	0.502170
	Zn227	Zn	0.247820	0.011813	0.501912
	N228	N	0.411598	0.976516	0.682143
	N229	N	0.586197	0.046522	0.682912
	N230	N	0.585387	0.977230	0.320786
	N231	N	0.409613	0.046393	0.320278
	N232	N	0.678495	0.425430	0.966593
	N233	N	0.678747	0.598879	0.037001
	N234	N	0.320151	0.598076	0.966623
	N235	N	0.317771	0.424990	0.036694
	N236	N	0.962825	0.692265	0.413576
	N237	N	0.032438	0.692708	0.587460
	N238	N	0.963922	0.332477	0.587784
	N239	N	0.032949	0.330170	0.412382
	N240	N	0.964264	0.425378	0.680844
	N241	N	0.032737	0.599416	0.680368
	N242	N	0.962611	0.598058	0.321874
	N243	N	0.034204	0.425278	0.321169
	N244	N	0.412272	0.692337	0.967327
	N245	N	0.587422	0.693761	0.036428
	N246	N	0.585482	0.331394	0.967008
	N247	N	0.409529	0.330426	0.036372
	N248	N	0.678248	0.977203	0.415028
	N249	N	0.678653	0.047079	0.589002
	N250	N	0.317801	0.976868	0.588807
	N251	N	0.317740	0.047210	0.415081
	N252	N	0.911977	0.477373	0.181601
	N253	N	0.086384	0.547648	0.182442
	N254	N	0.086430	0.478388	0.819954
	N255	N	0.911306	0.547013	0.820121
	N256	N	0.177642	0.925623	0.465599
	N257	N	0.177263	0.098021	0.536951
	N258	N	0.818417	0.098888	0.466376
	N259	N	0.818675	0.926007	0.536336
	N260	N	0.462874	0.192492	0.914374
	N261	N	0.532954	0.191937	0.088267
	N262	N	0.463445	0.831259	0.089239
	N263	N	0.534003	0.832389	0.915453
	N264	N	0.462950	0.924323	0.182181
	N265	N	0.532755	0.098613	0.181428
	N266	N	0.462852	0.098463	0.822148
	N267	N	0.534280	0.926136	0.822895
	N268	N	0.910924	0.193107	0.466657
	N269	N	0.085441	0.192411	0.536228
	N270	N	0.084232	0.832481	0.464954
	N271	N	0.909940	0.831159	0.535056
	N272	N	0.178562	0.477558	0.914890
	N273	N	0.178631	0.548442	0.088092
	N274	N	0.818770	0.477580	0.087898
	N275	N	0.818535	0.547365	0.914342
	O276	O	-0.229741	0.784551	-0.225772
	H277	H	-0.239440	0.794131	-0.209276
	H278	H	-0.204669	0.803617	-0.236202
	O279	O	0.658269	0.657477	0.308877
	H280	H	0.639326	0.658731	0.331713
	H281	H	0.639475	0.644997	0.316453
	O282	O	1.217736	0.235582	1.030286
	H283	H	1.240354	0.260768	1.044484
	H284	H	1.210407	0.241155	1.042418
	O285	O	0.031262	0.057704	-0.224173
	H286	H	0.027813	0.068494	-0.224199
	H287	H	0.041084	0.069977	-0.228444
	O288	O	0.504421	0.469663	0.517384
	H289	H	0.491551	0.463118	0.503470
	H290	H	0.508362	0.482919	0.518434
	O291	O	0.526929	0.493707	0.417296
	H292	H	0.516143	0.482421	0.406010
	H293	H	0.527475	0.492347	0.434485
	O294	O	1.106922	0.117871	0.888892
	H295	H	1.115508	0.107853	0.908496
	H296	H	1.096361	0.113865	0.895019
	O297	O	0.684885	0.376911	0.650694
	H298	H	0.683453	0.396068	0.629782
	H299	H	0.672610	0.386814	0.647349
	O300	O	0.205944	-0.139804	0.797165
	H301	H	0.200668	-0.142738	0.831835
	H302	H	0.191158	-0.129365	0.783405
	O303	O	0.435417	0.730747	0.530043
	H304	H	0.417272	0.725016	0.545813
	H305	H	0.410578	0.727881	0.541139
	O306	O	0.935723	0.052010	0.210560
	H307	H	0.942663	0.035808	0.213674
	H308	H	0.932506	0.050388	0.208777
	O309	O	0.651265	0.435837	0.638460
	H310	H	0.661836	0.452970	0.633335
	H311	H	0.667243	0.442480	0.636645
	O312	O	0.712329	0.636998	0.617899
	H313	H	0.728128	0.643929	0.631121
	H314	H	0.711959	0.641961	0.619392
	O315	O	0.965036	0.791833	1.216997
	H316	H	0.965349	0.773598	1.240371
	H317	H	0.940284	0.802244	1.216179
	O318	O	0.496457	0.413036	0.625369
	H319	H	0.487659	0.416847	0.621866
	H320	H	0.483991	0.408979	0.634576
	O321	O	0.296584	0.711617	0.299944
	H322	H	0.308798	0.693643	0.290792
	H323	H	0.298114	0.700118	0.304742
	O324	O	0.705114	1.335159	0.291898
	H325	H	0.729096	1.313649	0.281533
	H326	H	0.708873	1.349611	0.310140
	O327	O	-0.086814	-0.173969	0.888672
	H328	H	-0.080467	-0.172363	0.889833
	H329	H	-0.068351	-0.169466	0.893356
	O330	O	0.714114	0.295369	0.436009
	H331	H	0.724136	0.281306	0.430496
	H332	H	0.721371	0.301456	0.449156
	O333	O	0.469431	0.298083	0.713144
	H334	H	0.455483	0.298722	0.706187
	H335	H	0.466550	0.287108	0.727891
	O336	O	0.455515	0.543235	0.422505
	H337	H	0.451510	0.545190	0.422324
	H338	H	0.469952	0.548390	0.435148
	O339	O	1.273901	-0.264805	0.725010
	H340	H	1.251673	-0.244603	0.755089
	H341	H	1.283839	-0.283630	0.736677
	O342	O	0.100041	-0.093411	-0.131862
	H343	H	0.099383	-0.100220	-0.140487
	H344	H	0.104935	-0.105131	-0.130263
	O345	O	0.207617	0.913739	1.089502
	H346	H	0.204802	0.920769	1.080280
	H347	H	0.209502	0.935094	1.111185
	O348	O	0.280983	-0.457196	0.280897
	H349	H	0.279820	-0.466159	0.297023
	H350	H	0.263444	-0.463560	0.258182
	O351	O	0.678187	0.699571	0.605115
	H352	H	0.691990	0.711758	0.612359
	H353	H	0.671193	0.703839	0.600560
	O354	O	-0.173477	0.187265	1.191739
	H355	H	-0.156609	0.177064	1.173742
	H356	H	-0.164286	0.177995	1.183965
	O357	O	0.672099	0.526378	0.422032
	H358	H	0.658490	0.552222	0.416711
	H359	H	0.669202	0.532764	0.425548
	O360	O	0.299350	0.312809	0.709862
	H361	H	0.297853	0.302548	0.725941
	H362	H	0.297083	0.306187	0.695645
	O363	O	-0.020500	-0.011774	-0.160629
	H364	H	-0.001802	0.003147	-0.161220
	H365	H	-0.020150	0.007295	-0.163842
	O366	O	0.541708	0.704809	0.702126
	H367	H	0.541572	0.716906	0.709899
	H368	H	0.551668	0.700774	0.698693
	O369	O	0.525669	0.293776	0.283349
	H370	H	0.547521	0.287075	0.283253
	H371	H	0.542328	0.283450	0.268950
	O372	O	0.780292	0.981493	0.217412
	H373	H	0.783288	0.978483	0.233726
	H374	H	0.767619	0.958313	0.230447
	O375	O	0.998819	0.229360	0.000758
	H376	H	1.000375	0.237221	-0.015084
	H377	H	1.001071	0.227580	-0.000730
	O378	O	0.474853	0.730431	0.281339
	H379	H	0.460040	0.742660	0.274222
	H380	H	0.480602	0.735266	0.279232
	O381	O	0.140112	1.050587	0.977748
	H382	H	0.147146	1.054855	0.985208
	H383	H	0.130232	1.040399	0.982502
	O384	O	0.786894	-0.198118	1.029081
	H385	H	0.784872	-0.191462	1.023906
	H386	H	0.778159	-0.210769	1.024471
	O387	O	0.784661	1.043308	-0.212329
	H388	H	0.774283	1.055166	-0.227353
	H389	H	0.771527	1.060819	-0.213856
	O390	O	0.531202	0.478073	0.388008
	H391	H	0.519895	0.473482	0.378364
	H392	H	0.535410	0.474449	0.384266
	O393	O	0.107058	0.137268	0.002971
	H394	H	0.109190	0.135575	0.002569
	H395	H	0.112583	0.147010	0.002865
	O396	O	0.063193	1.012020	0.921900
	H397	H	0.057266	1.022668	0.922367
	H398	H	0.052492	0.996996	0.927523
	O399	O	0.099506	-0.096779	0.965174
	H400	H	0.106141	-0.112617	0.968403
	H401	H	0.096965	-0.083213	0.962659
	O402	O	0.503182	0.503286	0.718911
	H403	H	0.525176	0.499393	0.727864
	H404	H	0.490118	0.503893	0.715744
	O405	O	1.217436	0.184621	1.146772
	H406	H	1.213257	0.200487	1.162494
	H407	H	1.208177	0.187583	1.148767
	O408	O	0.219929	0.040038	0.219813
	H409	H	0.228752	0.056021	0.215169
	H410	H	0.235513	0.053818	0.238630
	O411	O	0.321971	0.623879	0.603047
	H412	H	0.313101	0.633927	0.629356
	H413	H	0.313526	0.641019	0.591938
	O414	O	0.761399	0.248492	0.762636
	H415	H	0.750851	0.259557	0.794325
	H416	H	0.737999	0.268390	0.738583
	O417	O	0.287814	0.528185	0.497737
	H418	H	0.292374	0.536148	0.510751
	H419	H	0.280631	0.516109	0.491619
	O420	O	0.520433	0.657007	0.480896
	H421	H	0.497521	0.659711	0.499027
	H422	H	0.500323	0.659803	0.462940
	O423	O	0.309351	-0.671919	0.425693
	H424	H	0.316995	-0.666587	0.452706
	H425	H	0.320412	-0.671922	0.432303
	O426	O	-0.133522	0.228250	0.007862
	H427	H	-0.137821	0.208610	0.018453
	H428	H	-0.130979	0.237960	0.016936
	O429	O	0.968390	1.234770	0.782545
	H430	H	0.929611	1.225943	0.791281
	H431	H	0.960232	1.265601	0.750901
	O432	O	0.616122	0.482390	0.318585
	H433	H	0.609425	0.469644	0.311976
	H434	H	0.622742	0.469279	0.312805
	O435	O	-0.054039	1.020797	0.034231
	H436	H	-0.050203	1.007803	0.030296
	H437	H	-0.061643	1.010368	0.024460
	O438	O	0.198603	-0.185769	-0.041171
	H439	H	0.202556	-0.193879	-0.041023
	H440	H	0.209567	-0.179992	-0.025033
	O441	O	0.051280	-0.036325	0.133401
	H442	H	0.056786	-0.051305	0.122918
	H443	H	0.071213	-0.030423	0.149554
	O444	O	0.302285	0.365067	0.486227
	H445	H	0.312439	0.364932	0.465630
	H446	H	0.286985	0.342268	0.493735
	O447	O	0.028345	1.225277	1.213288
	H448	H	0.022318	1.238660	1.239054
	H449	H	0.014035	1.215649	1.205596
	O450	O	-0.201421	0.813033	1.203011
	H451	H	-0.205630	0.812164	1.215906
	H452	H	-0.206787	0.800488	1.172753
	O453	O	0.557129	0.437313	0.590680
	H454	H	0.558248	0.443718	0.594595
	H455	H	0.543671	0.442272	0.580634
	O456	O	0.031173	-0.206498	0.787324
	H457	H	0.026227	-0.198526	0.783366
	H458	H	0.018397	-0.211702	0.768803
	O459	O	0.774162	0.967665	-0.055183
	H460	H	0.775444	0.966525	-0.069623
	H461	H	0.778252	0.980153	-0.047808
	O462	O	0.306350	0.497620	0.713555
	H463	H	0.298568	0.493729	0.730103
	H464	H	0.306106	0.475243	0.700976
	O465	O	1.118416	-0.180998	0.130739
	H466	H	1.112837	-0.182860	0.114400
	H467	H	1.111842	-0.178433	0.143721
	O468	O	0.280957	0.729893	0.466003
	H469	H	0.279917	0.727832	0.442031
	H470	H	0.261126	0.744702	0.464736
	O471	O	0.630980	0.732784	0.480312
	H472	H	0.627907	0.747925	0.492692
	H473	H	0.625648	0.743195	0.485005
	O474	O	0.393602	0.384698	0.282934
	H475	H	0.413950	0.374621	0.271354
	H476	H	0.389015	0.398102	0.290606
	O477	O	0.611484	0.516325	1.578222
	H478	H	0.619072	0.514180	1.575563
	H479	H	0.615488	0.529510	1.586699
	O480	O	0.458513	0.285603	0.470348
	H481	H	0.466673	0.292817	0.477270
	H482	H	0.474802	0.286911	0.460177
	O483	O	0.773356	1.079459	1.076610
	H484	H	0.773342	1.061800	1.086901
	H485	H	0.772524	1.072232	1.085577
	O486	O	0.978354	0.181965	0.956463
	H487	H	0.975955	0.183713	0.961233
	H488	H	0.960761	0.196502	0.948507
	O489	O	0.885232	1.100189	0.015269
	H490	H	0.876056	1.101056	0.021530
	H491	H	0.881817	1.103131	0.018296
