data_Molecule from HDF5

_cell_length_a		16.502052
_cell_length_b		16.357506
_cell_length_c		16.415240
_cell_angle_alpha	90.200771
_cell_angle_beta	90.035714
_cell_angle_gamma	89.862973
_symmetry_space_group_name_H-M	'P 1'
_symmetry_Int_Tables_number		1

loop_
	_symmetry_equiv_pos_as_xyz
	x,y,z

loop_
	_atom_site_label
	_atom_site_type_symbol
	_atom_site_fract_x
	_atom_site_fract_y
	_atom_site_fract_z
	H0	H	0.400074	0.844221	0.726071
	H1	H	0.610575	0.161347	0.726542
	H2	H	0.612721	0.843612	0.280657
	H3	H	0.397255	0.159133	0.280572
	H4	H	0.727513	0.393370	0.844499
	H5	H	0.728853	0.609034	0.161598
	H6	H	0.282690	0.607567	0.847305
	H7	H	0.282466	0.393197	0.161264
	H8	H	0.848293	0.723733	0.396083
	H9	H	0.162834	0.723493	0.610137
	H10	H	0.848116	0.278642	0.610862
	H11	H	0.162139	0.277290	0.396017
	H12	H	0.849644	0.391970	0.728542
	H13	H	0.162992	0.606450	0.725315
	H14	H	0.848769	0.608249	0.280920
	H15	H	0.162168	0.393600	0.280006
	H16	H	0.402771	0.719946	0.845408
	H17	H	0.610643	0.722346	0.162397
	H18	H	0.609415	0.280097	0.845082
	H19	H	0.401948	0.282548	0.163505
	H20	H	0.728804	0.844125	0.395053
	H21	H	0.728027	0.160802	0.611621
	H22	H	0.283114	0.844496	0.610833
	H23	H	0.281400	0.159074	0.394660
	H24	H	0.899515	0.344477	0.225826
	H25	H	0.113833	0.659621	0.228508
	H26	H	0.117532	0.343897	0.776730
	H27	H	0.903180	0.660164	0.783564
	H28	H	0.230896	0.890947	0.346328
	H29	H	0.228142	0.109069	0.660840
	H30	H	0.780909	0.108221	0.346091
	H31	H	0.783916	0.895297	0.660646
	H32	H	0.347770	0.224514	0.899861
	H33	H	0.663101	0.222506	0.110700
	H34	H	0.348786	0.777403	0.111774
	H35	H	0.662523	0.777749	0.898044
	H36	H	0.350120	0.889743	0.230517
	H37	H	0.662223	0.105323	0.226642
	H38	H	0.349104	0.110444	0.781338
	H39	H	0.662717	0.894561	0.781216
	H40	H	0.898685	0.222685	0.344810
	H41	H	0.110048	0.223058	0.661750
	H42	H	0.112342	0.778072	0.344804
	H43	H	0.901503	0.780171	0.660699
	H44	H	0.232498	0.343514	0.893950
	H45	H	0.226881	0.660612	0.110573
	H46	H	0.781271	0.345195	0.112827
	H47	H	0.782301	0.658535	0.894821
	H48	H	0.411611	0.115655	0.586048
	H49	H	0.597757	0.885914	0.598427
	H50	H	0.585127	0.111480	0.417370
	H51	H	0.420898	0.889095	0.415422
	H52	H	0.595683	0.413559	0.116439
	H53	H	0.600250	0.590204	0.887906
	H54	H	0.415412	0.590783	0.119468
	H55	H	0.418857	0.414503	0.891965
	H56	H	0.116432	0.584914	0.417150
	H57	H	0.892019	0.591947	0.592905
	H58	H	0.115997	0.414235	0.589092
	H59	H	0.893099	0.414488	0.414623
	H60	H	0.117859	0.413587	0.591319
	H61	H	0.894328	0.589045	0.589630
	H62	H	0.119448	0.589263	0.410523
	H63	H	0.892645	0.413015	0.412947
	H64	H	0.415181	0.587321	0.117774
	H65	H	0.594233	0.582484	0.892543
	H66	H	0.597370	0.411455	0.118058
	H67	H	0.418665	0.413329	0.891694
	H68	H	0.596633	0.114219	0.422785
	H69	H	0.589916	0.891238	0.592523
	H70	H	0.414929	0.118303	0.598546
	H71	H	0.417898	0.889920	0.419936
	H72	H	0.918551	0.612684	0.084767
	H73	H	0.092161	0.389619	0.090947
	H74	H	0.092673	0.615073	0.908419
	H75	H	0.915373	0.388386	0.918132
	H76	H	0.096319	0.913960	0.615447
	H77	H	0.094366	0.087849	0.389858
	H78	H	0.926903	0.087450	0.611385
	H79	H	0.910579	0.914763	0.387849
	H80	H	0.617273	0.086192	0.913400
	H81	H	0.392293	0.091551	0.092966
	H82	H	0.617976	0.911059	0.091323
	H83	H	0.394361	0.915070	0.915062
	H84	H	0.615197	0.915439	0.088736
	H85	H	0.392502	0.090747	0.091512
	H86	H	0.620558	0.094653	0.914087
	H87	H	0.391915	0.911770	0.913219
	H88	H	0.914265	0.099582	0.620147
	H89	H	0.093169	0.085817	0.391635
	H90	H	0.093786	0.912944	0.615725
	H91	H	0.918767	0.918886	0.392068
	H92	H	0.088552	0.609611	0.920104
	H93	H	0.096371	0.389035	0.088385
	H94	H	0.913157	0.616881	0.091693
	H95	H	0.917641	0.386867	0.913182
	H96	H	0.423836	0.112392	0.590178
	H97	H	0.599408	0.888778	0.587450
	H98	H	0.594074	0.117277	0.410031
	H99	H	0.415738	0.887320	0.415500
	H100	H	0.598621	0.414965	0.117840
	H101	H	0.589940	0.592128	0.891316
	H102	H	0.418446	0.589978	0.116985
	H103	H	0.417356	0.414413	0.891517
	H104	H	0.118815	0.592898	0.418157
	H105	H	0.893162	0.587459	0.593882
	H106	H	0.117227	0.411473	0.589442
	H107	H	0.893071	0.412228	0.414912
	H108	H	0.922385	0.614284	0.093572
	H109	H	0.096160	0.387753	0.093459
	H110	H	0.101377	0.614268	0.919035
	H111	H	0.920847	0.388998	0.916932
	H112	H	0.095590	0.911102	0.616594
	H113	H	0.091461	0.087988	0.390573
	H114	H	0.909075	0.081283	0.615702
	H115	H	0.919408	0.908890	0.388955
	H116	H	0.616406	0.090572	0.920872
	H117	H	0.393042	0.090394	0.092981
	H118	H	0.616770	0.915392	0.094572
	H119	H	0.392916	0.911251	0.917273
	C120	C	0.384394	0.011014	0.624937
	C121	C	0.627747	0.993535	0.626307
	C122	C	0.625610	0.009770	0.383219
	C123	C	0.383907	0.992655	0.382450
	C124	C	0.628914	0.379549	0.012381
	C125	C	0.627158	0.621887	0.995120
	C126	C	0.384560	0.622305	0.013300
	C127	C	0.385386	0.381127	0.996191
	C128	C	0.014503	0.622778	0.381811
	C129	C	0.997088	0.622290	0.624700
	C130	C	0.013903	0.379308	0.624565
	C131	C	0.996465	0.379142	0.380665
	C132	C	0.885221	0.510685	0.123725
	C133	C	0.127238	0.493360	0.124844
	C134	C	0.128125	0.508582	0.882152
	C135	C	0.885498	0.492660	0.882817
	C136	C	0.128316	0.878934	0.511716
	C137	C	0.126063	0.121778	0.494830
	C138	C	0.883159	0.123076	0.511933
	C139	C	0.884173	0.880812	0.494295
	C140	C	0.514022	0.123255	0.883535
	C141	C	0.496226	0.123034	0.125925
	C142	C	0.513537	0.879850	0.125276
	C143	C	0.497111	0.879732	0.882438
	C144	C	0.382140	0.891934	0.685731
	C145	C	0.629584	0.113464	0.686785
	C146	C	0.629706	0.890927	0.321584
	C147	C	0.379930	0.111336	0.320742
	C148	C	0.687984	0.375990	0.892773
	C149	C	0.688149	0.626107	0.114051
	C150	C	0.323700	0.625254	0.894263
	C151	C	0.323559	0.376659	0.114377
	C152	C	0.895977	0.683988	0.378680
	C153	C	0.115537	0.683105	0.627765
	C154	C	0.895764	0.318198	0.628687
	C155	C	0.114609	0.317475	0.378105
	C156	C	0.896540	0.375115	0.687314
	C157	C	0.115803	0.624690	0.685076
	C158	C	0.896145	0.626388	0.320902
	C159	C	0.114596	0.375429	0.320154
	C160	C	0.383098	0.681259	0.893414
	C161	C	0.629207	0.682586	0.114605
	C162	C	0.629112	0.319370	0.892843
	C163	C	0.383291	0.321560	0.115497
	C164	C	0.687659	0.891461	0.378870
	C165	C	0.687864	0.113075	0.629357
	C166	C	0.323690	0.891961	0.628449
	C167	C	0.321837	0.111348	0.377624
	C168	C	0.881765	0.391720	0.185548
	C169	C	0.130814	0.612241	0.187341
	C170	C	0.133559	0.390670	0.818762
	C171	C	0.883786	0.612269	0.822703
	C172	C	0.190142	0.874132	0.393636
	C173	C	0.187494	0.126620	0.613582
	C174	C	0.821686	0.126424	0.393340
	C175	C	0.824056	0.877554	0.613285
	C176	C	0.395192	0.184096	0.881336
	C177	C	0.615420	0.182811	0.129028
	C178	C	0.395975	0.817728	0.129358
	C179	C	0.615585	0.818494	0.879791
	C180	C	0.396688	0.874014	0.188672
	C181	C	0.614938	0.124779	0.186942
	C182	C	0.395613	0.127255	0.822407
	C183	C	0.615452	0.876507	0.821699
	C184	C	0.880249	0.183116	0.392584
	C185	C	0.128560	0.183279	0.613941
	C186	C	0.130812	0.817784	0.392763
	C187	C	0.882618	0.820195	0.613297
	C188	C	0.191289	0.390732	0.876990
	C189	C	0.187269	0.612875	0.128632
	C190	C	0.823058	0.392185	0.128863
	C191	C	0.823644	0.611501	0.878195
	C192	C	0.409648	0.093681	0.598799
	C193	C	0.602791	0.910418	0.600405
	C194	C	0.599238	0.092742	0.409397
	C195	C	0.410570	0.910332	0.409305
	C196	C	0.604203	0.405781	0.095972
	C197	C	0.602037	0.595982	0.912181
	C198	C	0.409202	0.596711	0.096402
	C199	C	0.410817	0.406821	0.913309
	C200	C	0.096839	0.596507	0.407769
	C201	C	0.914835	0.596760	0.599371
	C202	C	0.095605	0.405571	0.597717
	C203	C	0.914269	0.405660	0.406663
	C204	C	0.910809	0.593175	0.097473
	C205	C	0.101977	0.410448	0.098541
	C206	C	0.101811	0.591442	0.908567
	C207	C	0.910928	0.409679	0.908608
	C208	C	0.102730	0.905072	0.594548
	C209	C	0.100371	0.094900	0.412491
	C210	C	0.909241	0.096927	0.594337
	C211	C	0.909061	0.906486	0.411294
	C212	C	0.596498	0.097592	0.908786
	C213	C	0.414174	0.098168	0.099928
	C214	C	0.595269	0.906456	0.098714
	C215	C	0.414679	0.905322	0.907818
	Zn216	Zn	0.505462	0.002505	0.754006
	Zn217	Zn	0.505215	0.000791	0.254355
	Zn218	Zn	0.755967	0.501547	0.003085
	Zn219	Zn	0.256366	0.501074	0.004792
	Zn220	Zn	0.006120	0.751081	0.502586
	Zn221	Zn	0.004903	0.250878	0.503032
	Zn222	Zn	0.006355	0.500492	0.753383
	Zn223	Zn	0.005809	0.502039	0.252604
	Zn224	Zn	0.505811	0.750624	0.004403
	Zn225	Zn	0.505724	0.252570	0.004712
	Zn226	Zn	0.754977	0.002170	0.503384
	Zn227	Zn	0.255545	0.001896	0.503008
	N228	N	0.419062	0.967006	0.683553
	N229	N	0.593230	0.038017	0.685184
	N230	N	0.591481	0.965542	0.324557
	N231	N	0.417554	0.036207	0.323200
	N232	N	0.688101	0.412272	0.968591
	N233	N	0.686861	0.589111	0.038781
	N234	N	0.324308	0.589572	0.969966
	N235	N	0.324581	0.412751	0.039109
	N236	N	0.970693	0.681888	0.415708
	N237	N	0.040683	0.681888	0.590871
	N238	N	0.969732	0.320682	0.590426
	N239	N	0.039878	0.319676	0.415015
	N240	N	0.971209	0.412111	0.685063
	N241	N	0.041257	0.587525	0.683289
	N242	N	0.970915	0.589171	0.322689
	N243	N	0.040009	0.412716	0.321315
	N244	N	0.419857	0.679621	0.968418
	N245	N	0.592023	0.680206	0.039612
	N246	N	0.593297	0.321315	0.968462
	N247	N	0.420959	0.324132	0.040982
	N248	N	0.685124	0.966462	0.416669
	N249	N	0.686948	0.037470	0.592564
	N250	N	0.324813	0.966912	0.591340
	N251	N	0.324264	0.036540	0.415317
	N252	N	0.919800	0.466232	0.182525
	N253	N	0.094249	0.536766	0.185149
	N254	N	0.094866	0.464987	0.822005
	N255	N	0.921414	0.537333	0.825330
	N256	N	0.188851	0.911503	0.468781
	N257	N	0.186060	0.089075	0.538580
	N258	N	0.823481	0.089975	0.468625
	N259	N	0.824804	0.914345	0.538266
	N260	N	0.469721	0.181947	0.918479
	N261	N	0.540759	0.182143	0.091885
	N262	N	0.469623	0.821236	0.090497
	N263	N	0.540887	0.820193	0.916558
	N264	N	0.470694	0.912019	0.186157
	N265	N	0.540049	0.088480	0.185149
	N266	N	0.470331	0.089976	0.823727
	N267	N	0.540796	0.913778	0.823043
	N268	N	0.917858	0.181171	0.467329
	N269	N	0.091017	0.180305	0.539218
	N270	N	0.093243	0.820685	0.467307
	N271	N	0.919273	0.821993	0.538259
	N272	N	0.187825	0.465153	0.915880
	N273	N	0.185299	0.538007	0.090396
	N274	N	0.825080	0.466946	0.091037
	N275	N	0.824383	0.536108	0.914703
	O276	O	0.598457	0.296851	0.300689
	H277	H	0.587288	0.290159	0.283843
	H278	H	0.588357	0.288648	0.289715
	O279	O	0.927800	0.100091	0.952252
	H280	H	0.937050	0.092338	0.956066
	H281	H	0.929944	0.084739	0.963508
	O282	O	0.711352	0.517652	0.568842
	H283	H	0.709140	0.538002	0.543350
	H284	H	0.724681	0.547253	0.576431
	O285	O	0.555736	0.466386	0.295595
	H286	H	0.558324	0.456364	0.294960
	H287	H	0.550640	0.463550	0.291711
	O288	O	0.293463	0.714284	0.481955
	H289	H	0.262466	0.743256	0.467456
	H290	H	0.300016	0.703620	0.439466
	O291	O	0.457871	0.345048	0.443378
	H292	H	0.437504	0.332206	0.458933
	H293	H	0.474728	0.346069	0.448589
	O294	O	0.213780	0.008998	0.923565
	H295	H	0.205757	0.004236	0.930912
	H296	H	0.229381	-0.000230	0.905446
	O297	O	0.301911	0.517027	0.297811
	H298	H	0.290804	0.506708	0.284067
	H299	H	0.296970	0.497190	0.324257
	O300	O	0.624773	0.340570	0.562717
	H301	H	0.650967	0.361931	0.567166
	H302	H	0.629823	0.345229	0.560694
	O303	O	0.297119	0.288433	0.521795
	H304	H	0.275196	0.257874	0.527705
	H305	H	0.314118	0.291351	0.551497
	O306	O	0.507661	0.703361	0.336488
	H307	H	0.526739	0.697648	0.362322
	H308	H	0.518477	0.722982	0.323839
	O309	O	0.803094	0.879332	-0.118052
	H310	H	0.829319	0.889920	-0.094957
	H311	H	0.805823	0.864301	-0.102634
	O312	O	-0.010969	1.211200	0.798180
	H313	H	-0.008399	1.244034	0.778505
	H314	H	-0.042343	1.195867	0.808526
	O315	O	0.197315	-0.191988	0.812718
	H316	H	0.215142	-0.174481	0.792676
	H317	H	0.152884	-0.200563	0.816080
	O318	O	1.214373	0.213477	0.022297
	H319	H	1.224577	0.227897	0.019262
	H320	H	1.207342	0.217054	0.028158
	O321	O	-0.186369	0.199645	-0.106843
	H322	H	-0.211267	0.201126	-0.103066
	H323	H	-0.187606	0.185556	-0.113562
	O324	O	0.284078	0.468444	0.466552
	H325	H	0.291538	0.480719	0.478496
	H326	H	0.281128	0.447190	0.475319
	O327	O	0.500562	0.625471	0.616363
	H328	H	0.475647	0.627913	0.610697
	H329	H	0.485698	0.635423	0.618472
	O330	O	0.188207	0.901945	0.068756
	H331	H	0.196985	0.913490	0.043319
	H332	H	0.181993	0.875012	0.041927
	O333	O	0.634805	0.624418	0.711727
	H334	H	0.623397	0.637442	0.706654
	H335	H	0.634220	0.643210	0.725005
	O336	O	0.072649	-0.074084	0.213420
	H337	H	0.058361	-0.048442	0.199052
	H338	H	0.085106	-0.075496	0.212052
	O339	O	-0.074383	0.830391	0.965524
	H340	H	-0.068931	0.809754	0.984444
	H341	H	-0.066151	0.824591	0.957839
	O342	O	-0.178383	1.143243	1.115351
	H343	H	-0.170085	1.145058	1.108515
	H344	H	-0.167313	1.141803	1.109602
	O345	O	0.790447	1.014482	0.005741
	H346	H	0.793009	1.018039	-0.000866
	H347	H	0.793314	1.016857	0.012608
	O348	O	0.721033	0.716153	0.525267
	H349	H	0.725990	0.714282	0.550906
	H350	H	0.745814	0.724658	0.517891
	O351	O	0.189677	1.184155	1.185716
	H352	H	0.183786	1.145645	1.197260
	H353	H	0.191036	1.178948	1.159809
	O354	O	0.006558	1.010013	0.004156
	H355	H	-0.004309	0.994081	0.005181
	H356	H	0.016537	0.993837	0.009056
	O357	O	-0.031138	0.061505	1.206110
	H358	H	-0.014128	0.074913	1.191786
	H359	H	-0.012313	0.083902	1.215750
	O360	O	0.492956	0.672845	0.533864
	H361	H	0.501354	0.659151	0.525372
	H362	H	0.477174	0.684419	0.532833
	O363	O	-0.573873	0.507369	0.576201
	H364	H	-0.584133	0.482701	0.570608
	H365	H	-0.567918	0.515962	0.573104
	O366	O	0.027153	0.830907	0.001856
	H367	H	0.017504	0.832485	0.025907
	H368	H	0.046479	0.815907	-0.019078
	O369	O	0.566822	0.711916	0.649935
	H370	H	0.571648	0.721860	0.662501
	H371	H	0.531306	0.723536	0.642882
	O372	O	1.051028	0.048857	0.786572
	H373	H	1.058098	0.049007	0.798215
	H374	H	1.048599	0.083297	0.783030
	O375	O	0.700456	0.447752	0.437629
	H376	H	0.716042	0.430824	0.424138
	H377	H	0.687690	0.452266	0.430643
	O378	O	0.840464	0.793031	1.026934
	H379	H	0.840596	0.792924	1.044068
	H380	H	0.820873	0.779562	1.041947
	O381	O	0.697399	0.416182	0.372886
	H382	H	0.673881	0.408392	0.371642
	H383	H	0.699119	0.398832	0.386045
	O384	O	0.816408	-0.181658	0.182099
	H385	H	0.825183	-0.165921	0.188986
	H386	H	0.841390	-0.162088	0.192193
	O387	O	-0.190486	0.088558	0.806705
	H388	H	-0.175058	0.073009	0.832454
	H389	H	-0.218714	0.067797	0.782384
	O390	O	-0.052798	-0.075856	-0.187477
	H391	H	-0.066506	-0.056339	-0.194132
	H392	H	-0.035310	-0.055838	-0.179267
	O393	O	1.225225	0.787620	0.976850
	H394	H	1.240529	0.767184	0.962357
	H395	H	1.229817	0.784899	0.949937
	O396	O	0.924161	0.221358	-0.034888
	H397	H	0.925779	0.229768	-0.030906
	H398	H	0.954926	0.240230	-0.024451
	O399	O	0.328631	0.680121	0.325347
	H400	H	0.325965	0.634149	0.313194
	H401	H	0.373150	0.679884	0.313738
	O402	O	1.219097	1.020775	1.215472
	H403	H	1.234500	1.007076	1.218844
	H404	H	1.233616	1.004500	1.212835
	O405	O	0.319133	1.467403	0.597270
	H406	H	0.312262	1.490911	0.613219
	H407	H	0.341206	1.469119	0.600249
	O408	O	1.975719	-0.198066	-0.787632
	H409	H	1.982666	-0.196175	-0.768614
	H410	H	1.986394	-0.199276	-0.783604
	O411	O	1.590994	1.620718	0.311565
	H412	H	1.593736	1.605765	0.308335
	H413	H	1.595868	1.637846	0.311969
	O414	O	0.713613	0.290434	0.479765
	H415	H	0.730499	0.283570	0.462188
	H416	H	0.732867	0.304298	0.489631
	O417	O	-0.184835	-0.017902	0.189041
	H418	H	-0.191931	-0.005957	0.184194
	H419	H	-0.160527	0.001626	0.177324
	O420	O	0.532755	0.347487	0.693374
	H421	H	0.540246	0.351214	0.691729
	H422	H	0.558785	0.357835	0.685082
	O423	O	0.325024	0.240658	0.759105
	H424	H	0.352125	0.232433	0.776051
	H425	H	0.323266	0.265089	0.771358
	O426	O	0.534346	0.491421	0.709148
	H427	H	0.538541	0.496431	0.702796
	H428	H	0.542823	0.511649	0.708465
	O429	O	0.638003	0.685621	0.558521
	H430	H	0.636193	0.686408	0.552038
	H431	H	0.630109	0.696320	0.572113
	O432	O	0.495272	0.301407	0.380027
	H433	H	0.500063	0.292145	0.384155
	H434	H	0.481191	0.301767	0.381237
	O435	O	0.030415	0.216135	1.216237
	H436	H	0.025851	0.241097	1.217308
	H437	H	0.057349	0.227511	1.218445
	O438	O	-0.660424	-0.448025	-0.295565
	H439	H	-0.658470	-0.438423	-0.314997
	H440	H	-0.646838	-0.459583	-0.296183
	O441	O	1.213005	-0.003474	-0.161771
	H442	H	1.226295	-0.002266	-0.176143
	H443	H	1.212920	0.008685	-0.167271
	O444	O	0.033333	0.795065	0.800243
	H445	H	0.014597	0.832099	0.794088
	H446	H	0.028678	0.774023	0.780829
	O447	O	1.016624	0.222696	1.000543
	H448	H	1.007092	0.220878	0.975723
	H449	H	1.004152	0.217686	0.981434
	O450	O	0.365477	0.462245	0.653421
	H451	H	0.394273	0.453081	0.661075
	H452	H	0.354836	0.459859	0.638874
	O453	O	0.513385	0.507266	0.435650
	H454	H	0.507871	0.493168	0.426024
	H455	H	0.530677	0.493896	0.427558
