data_Molecule from HDF5

_cell_length_a		16.284952
_cell_length_b		16.161942
_cell_length_c		16.186332
_cell_angle_alpha	89.991525
_cell_angle_beta	90.274449
_cell_angle_gamma	89.734576
_symmetry_space_group_name_H-M	'P 1'
_symmetry_Int_Tables_number		1

loop_
	_symmetry_equiv_pos_as_xyz
	x,y,z

loop_
	_atom_site_label
	_atom_site_type_symbol
	_atom_site_fract_x
	_atom_site_fract_y
	_atom_site_fract_z
	H0	H	0.407356	0.846256	0.714456
	H1	H	0.601611	0.176512	0.716238
	H2	H	0.600435	0.846164	0.289037
	H3	H	0.404200	0.177160	0.290268
	H4	H	0.716671	0.411981	0.837154
	H5	H	0.718426	0.611570	0.165306
	H6	H	0.286714	0.612736	0.837988
	H7	H	0.288769	0.412793	0.165682
	H8	H	0.840871	0.726763	0.401767
	H9	H	0.167573	0.722545	0.600831
	H10	H	0.839200	0.296326	0.599424
	H11	H	0.167395	0.296744	0.404185
	H12	H	0.838103	0.412946	0.714046
	H13	H	0.166263	0.608235	0.717899
	H14	H	0.839674	0.610049	0.287165
	H15	H	0.166916	0.411417	0.288095
	H16	H	0.403500	0.725800	0.837332
	H17	H	0.599547	0.723575	0.167798
	H18	H	0.600935	0.297856	0.837432
	H19	H	0.406097	0.300662	0.166869
	H20	H	0.717583	0.846518	0.403404
	H21	H	0.718884	0.175590	0.601859
	H22	H	0.292186	0.846112	0.599103
	H23	H	0.287148	0.175373	0.402200
	H24	H	0.906795	0.346212	0.213993
	H25	H	0.099898	0.676258	0.214522
	H26	H	0.098752	0.345602	0.791034
	H27	H	0.903507	0.676275	0.786706
	H28	H	0.217238	0.912384	0.337443
	H29	H	0.216857	0.108423	0.666387
	H30	H	0.786509	0.111151	0.337600
	H31	H	0.790857	0.911303	0.666929
	H32	H	0.338732	0.227324	0.903106
	H33	H	0.666838	0.225638	0.101651
	H34	H	0.338245	0.799111	0.100086
	H35	H	0.666577	0.798339	0.906223
	H36	H	0.338306	0.915431	0.214979
	H37	H	0.666785	0.109808	0.217704
	H38	H	0.339348	0.112106	0.786015
	H39	H	0.666765	0.912885	0.790080
	H40	H	0.906660	0.221925	0.335549
	H41	H	0.100880	0.222812	0.666435
	H42	H	0.101441	0.798180	0.336621
	H43	H	0.909202	0.797944	0.666799
	H44	H	0.218309	0.348103	0.901782
	H45	H	0.215827	0.676854	0.100149
	H46	H	0.789381	0.347223	0.100179
	H47	H	0.787768	0.676467	0.902108
	H48	H	0.411815	0.129521	0.598734
	H49	H	0.603546	0.893448	0.589322
	H50	H	0.594587	0.124068	0.423748
	H51	H	0.402730	0.891390	0.408123
	H52	H	0.594355	0.418927	0.117786
	H53	H	0.598636	0.599438	0.884999
	H54	H	0.408487	0.610274	0.121573
	H55	H	0.397118	0.423867	0.881456
	H56	H	0.122970	0.609735	0.404985
	H57	H	0.886342	0.602316	0.594644
	H58	H	0.119915	0.420232	0.600732
	H59	H	0.881988	0.406188	0.405418
	H60	H	0.121507	0.410853	0.597082
	H61	H	0.885296	0.606707	0.594460
	H62	H	0.119370	0.603929	0.415032
	H63	H	0.890397	0.420643	0.417016
	H64	H	0.404583	0.602803	0.120049
	H65	H	0.588816	0.606298	0.885895
	H66	H	0.599093	0.417575	0.121333
	H67	H	0.417886	0.428676	0.889566
	H68	H	0.607761	0.133884	0.405853
	H69	H	0.600210	0.890375	0.603299
	H70	H	0.410641	0.127552	0.589752
	H71	H	0.413067	0.892779	0.401226
	H72	H	0.911990	0.628211	0.093874
	H73	H	0.104050	0.391800	0.093673
	H74	H	0.101069	0.629755	0.915119
	H75	H	0.907951	0.395700	0.917212
	H76	H	0.090422	0.928048	0.614275
	H77	H	0.093508	0.105255	0.384150
	H78	H	0.914728	0.100498	0.617349
	H79	H	0.903309	0.915993	0.381307
	H80	H	0.622646	0.109728	0.904633
	H81	H	0.384156	0.111745	0.096805
	H82	H	0.616572	0.925537	0.093023
	H83	H	0.384963	0.914663	0.910621
	H84	H	0.621707	0.917932	0.103295
	H85	H	0.386370	0.106252	0.093190
	H86	H	0.618019	0.107393	0.916721
	H87	H	0.386868	0.923533	0.908688
	H88	H	0.911398	0.109071	0.619853
	H89	H	0.099238	0.106061	0.381729
	H90	H	0.093463	0.903974	0.622437
	H91	H	0.909852	0.927210	0.386734
	H92	H	0.096651	0.632587	0.900020
	H93	H	0.094679	0.391888	0.100659
	H94	H	0.906560	0.630144	0.091942
	H95	H	0.900533	0.389941	0.903443
	H96	H	0.403159	0.131386	0.595012
	H97	H	0.589630	0.896451	0.595156
	H98	H	0.584173	0.128406	0.401835
	H99	H	0.413380	0.895505	0.413547
	H100	H	0.598106	0.422789	0.118774
	H101	H	0.598891	0.611390	0.881139
	H102	H	0.413182	0.603424	0.118354
	H103	H	0.413153	0.407344	0.881082
	H104	H	0.120550	0.597483	0.404712
	H105	H	0.886676	0.605693	0.590316
	H106	H	0.117413	0.418625	0.590928
	H107	H	0.884857	0.424370	0.398468
	H108	H	0.908056	0.630372	0.097394
	H109	H	0.093737	0.396411	0.089213
	H110	H	0.085771	0.627079	0.911223
	H111	H	0.916731	0.394382	0.903114
	H112	H	0.113329	0.919699	0.623560
	H113	H	0.097168	0.100899	0.383874
	H114	H	0.905880	0.101658	0.619438
	H115	H	0.916973	0.914600	0.385444
	H116	H	0.617914	0.097893	0.907843
	H117	H	0.385588	0.105789	0.098839
	H118	H	0.619114	0.911823	0.091149
	H119	H	0.383266	0.918456	0.902580
	C120	C	0.381962	0.020078	0.622531
	C121	C	0.625912	1.002490	0.624327
	C122	C	0.623994	0.019689	0.381458
	C123	C	0.381215	1.002650	0.379966
	C124	C	0.624885	0.390493	0.010386
	C125	C	0.623913	0.633931	0.992777
	C126	C	0.380421	0.634217	0.010937
	C127	C	0.381316	0.391711	0.993012
	C128	C	0.012958	0.633034	0.379084
	C129	C	0.994594	0.632314	0.622964
	C130	C	0.011074	0.388716	0.623710
	C131	C	0.994565	0.388972	0.379700
	C132	C	0.881338	0.520432	0.122666
	C133	C	0.125105	0.502644	0.122896
	C134	C	0.123436	0.520761	0.880242
	C135	C	0.879890	0.502732	0.879176
	C136	C	0.126362	0.888962	0.510793
	C137	C	0.124839	0.131857	0.492634
	C138	C	0.881438	0.132644	0.510115
	C139	C	0.882501	0.890105	0.493443
	C140	C	0.511495	0.134253	0.880270
	C141	C	0.493996	0.135196	0.124728
	C142	C	0.511020	0.890415	0.124090
	C143	C	0.493763	0.890256	0.880374
	C144	C	0.386067	0.895567	0.677167
	C145	C	0.622829	0.126918	0.679065
	C146	C	0.621492	0.895736	0.326267
	C147	C	0.383517	0.127154	0.326386
	C148	C	0.679349	0.392327	0.886664
	C149	C	0.679790	0.631843	0.116670
	C150	C	0.324876	0.632467	0.887033
	C151	C	0.326469	0.393219	0.116556
	C152	C	0.889660	0.688878	0.381326
	C153	C	0.118210	0.685589	0.621151
	C154	C	0.887778	0.334374	0.619579
	C155	C	0.118302	0.334216	0.383212
	C156	C	0.887341	0.392127	0.676929
	C157	C	0.117414	0.628965	0.679652
	C158	C	0.889162	0.630895	0.324295
	C159	C	0.117945	0.391306	0.325520
	C160	C	0.383225	0.688576	0.886594
	C161	C	0.620714	0.687247	0.117877
	C162	C	0.621977	0.335138	0.886609
	C163	C	0.385022	0.337393	0.117183
	C164	C	0.679564	0.895694	0.383066
	C165	C	0.680735	0.126384	0.621926
	C166	C	0.329123	0.895508	0.619688
	C167	C	0.325522	0.126483	0.382317
	C168	C	0.885246	0.395940	0.176982
	C169	C	0.121322	0.627019	0.177494
	C170	C	0.120209	0.395587	0.827200
	C171	C	0.882762	0.626984	0.824382
	C172	C	0.180033	0.891715	0.386627
	C173	C	0.179772	0.129322	0.616941
	C174	C	0.825038	0.130893	0.386462
	C175	C	0.828449	0.891553	0.617433
	C176	C	0.387652	0.189017	0.883110
	C177	C	0.617918	0.188528	0.122243
	C178	C	0.387412	0.836109	0.120976
	C179	C	0.617490	0.835723	0.884848
	C180	C	0.387275	0.894148	0.178074
	C181	C	0.617700	0.131193	0.180169
	C182	C	0.388153	0.132093	0.824437
	C183	C	0.617573	0.892661	0.827078
	C184	C	0.884526	0.186243	0.385487
	C185	C	0.121953	0.185989	0.617031
	C186	C	0.122647	0.834800	0.386305
	C187	C	0.887375	0.835234	0.617536
	C188	C	0.179288	0.396767	0.882378
	C189	C	0.178644	0.627287	0.120594
	C190	C	0.827230	0.396266	0.120136
	C191	C	0.825245	0.627003	0.881655
	C192	C	0.402557	0.106996	0.600892
	C193	C	0.604211	0.915843	0.602450
	C194	C	0.602022	0.106349	0.403848
	C195	C	0.403394	0.915573	0.401361
	C196	C	0.603511	0.413123	0.096940
	C197	C	0.601857	0.612143	0.906544
	C198	C	0.402361	0.612123	0.097632
	C199	C	0.402949	0.413669	0.906168
	C200	C	0.098731	0.610441	0.401453
	C201	C	0.908254	0.611111	0.599890
	C202	C	0.097380	0.410271	0.602682
	C203	C	0.908212	0.410661	0.400790
	C204	C	0.902452	0.607170	0.100749
	C205	C	0.103779	0.415962	0.100938
	C206	C	0.100938	0.607248	0.902373
	C207	C	0.901852	0.415784	0.901409
	C208	C	0.105210	0.910747	0.597708
	C209	C	0.103128	0.110339	0.405781
	C210	C	0.903902	0.110297	0.596482
	C211	C	0.903815	0.912649	0.406786
	C212	C	0.597386	0.111675	0.903078
	C213	C	0.407813	0.114239	0.102804
	C214	C	0.596930	0.912053	0.102337
	C215	C	0.407342	0.912325	0.901104
	Zn216	Zn	0.502918	0.011829	0.751842
	Zn217	Zn	0.502283	0.012091	0.252782
	Zn218	Zn	0.752673	0.512224	0.001556
	Zn219	Zn	0.252385	0.512557	0.001483
	Zn220	Zn	0.004525	0.761303	0.501679
	Zn221	Zn	0.003523	0.260186	0.501269
	Zn222	Zn	0.002202	0.510848	0.752121
	Zn223	Zn	0.003518	0.510841	0.250644
	Zn224	Zn	0.502069	0.761766	0.002173
	Zn225	Zn	0.502942	0.263296	0.002322
	Zn226	Zn	0.752939	0.010916	0.502253
	Zn227	Zn	0.253624	0.010901	0.501145
	N228	N	0.418532	0.974034	0.678923
	N229	N	0.589198	0.048973	0.680608
	N230	N	0.587468	0.973905	0.325254
	N231	N	0.417671	0.049113	0.325107
	N232	N	0.681287	0.426014	0.964781
	N233	N	0.682180	0.599317	0.038217
	N234	N	0.322992	0.599419	0.965338
	N235	N	0.324312	0.426595	0.038251
	N236	N	0.967608	0.690500	0.414566
	N237	N	0.040843	0.687755	0.586669
	N238	N	0.965815	0.332036	0.587338
	N239	N	0.040686	0.332533	0.416102
	N240	N	0.965032	0.425208	0.679698
	N241	N	0.039335	0.596552	0.680850
	N242	N	0.966726	0.596815	0.322837
	N243	N	0.039965	0.424834	0.323140
	N244	N	0.417205	0.689735	0.964713
	N245	N	0.586805	0.688863	0.039791
	N246	N	0.588883	0.333826	0.964566
	N247	N	0.418520	0.336373	0.039319
	N248	N	0.681236	0.973858	0.416568
	N249	N	0.682851	0.047973	0.588910
	N250	N	0.326396	0.973887	0.586478
	N251	N	0.323880	0.047893	0.414847
	N252	N	0.918147	0.474076	0.178603
	N253	N	0.088722	0.548552	0.179179
	N254	N	0.085977	0.473581	0.825875
	N255	N	0.915782	0.548445	0.822545
	N256	N	0.182600	0.924474	0.464961
	N257	N	0.181834	0.096394	0.538458
	N258	N	0.822870	0.098455	0.465133
	N259	N	0.825211	0.924849	0.539052
	N260	N	0.465470	0.190702	0.916928
	N261	N	0.540297	0.191000	0.088403
	N262	N	0.465183	0.833610	0.088099
	N263	N	0.539438	0.833942	0.917218
	N264	N	0.465081	0.927055	0.180199
	N265	N	0.539658	0.098694	0.181902
	N266	N	0.465873	0.098781	0.822615
	N267	N	0.539677	0.926043	0.824262
	N268	N	0.918743	0.187433	0.463327
	N269	N	0.088375	0.187634	0.538947
	N270	N	0.090037	0.832943	0.464616
	N271	N	0.920288	0.834216	0.539402
	N272	N	0.181545	0.475543	0.914560
	N273	N	0.181185	0.549026	0.087483
	N274	N	0.824426	0.474956	0.087272
	N275	N	0.823282	0.548568	0.914767
	O276	O	0.495324	0.563178	0.437366
	H277	H	0.495714	0.566307	0.422391
	H278	H	0.482450	0.557506	0.443484
	O279	O	0.413008	0.542023	0.530255
	H280	H	0.408148	0.532285	0.523274
	H281	H	0.413811	0.535187	0.533984
	O282	O	0.584498	0.461756	0.471361
	H283	H	0.580797	0.456306	0.474855
	H284	H	0.575639	0.455555	0.485916
	O285	O	-0.078185	1.027646	0.996055
	H286	H	-0.078395	1.035549	0.988317
	H287	H	-0.075087	1.021121	0.998466
	O288	O	0.512393	0.520656	0.552736
	H289	H	0.507791	0.525144	0.544506
	H290	H	0.510104	0.527176	0.555448
	O291	O	-0.104061	-0.001223	1.009664
	H292	H	-0.105208	-0.001107	1.003544
	H293	H	-0.107927	0.003389	1.011538
	O294	O	0.529913	0.474032	0.382497
	H295	H	0.531822	0.471590	0.384683
	H296	H	0.540001	0.475277	0.371534
	O297	O	0.502966	0.462676	0.475900
	H298	H	0.511707	0.468430	0.483133
	H299	H	0.498524	0.452109	0.471913
	O300	O	0.472669	0.489862	0.503806
	H301	H	0.474552	0.494731	0.508601
	H302	H	0.470925	0.490822	0.501592
	O303	O	0.502659	0.491488	0.519150
	H304	H	0.506797	0.491498	0.515596
	H305	H	0.496408	0.496526	0.531440
	O306	O	0.903891	-0.038882	1.000296
	H307	H	0.897704	-0.034397	1.007610
	H308	H	0.897787	-0.039469	0.991174
	O309	O	0.553648	0.485821	0.548753
	H310	H	0.552457	0.480961	0.547605
	H311	H	0.560460	0.484098	0.550003
	O312	O	0.599963	0.483646	0.455193
	H313	H	0.593291	0.477425	0.454068
	H314	H	0.599232	0.473873	0.461752
	O315	O	1.002109	-0.002632	1.033174
	H316	H	1.004293	-0.007510	1.035911
	H317	H	0.999749	-0.012652	1.037083
	O318	O	-0.063128	0.041209	0.053660
	H319	H	-0.072248	0.039840	0.058668
	H320	H	-0.064254	0.033352	0.052250
	O321	O	0.471966	0.514997	0.432300
	H322	H	0.461684	0.522181	0.440729
	H323	H	0.480935	0.508443	0.427600
	O324	O	1.402929	-0.469348	-0.510848
	H325	H	1.409075	-0.460134	-0.514524
	H326	H	1.404354	-0.470297	-0.518021
	O327	O	0.418829	0.494295	0.532745
	H328	H	0.430145	0.491901	0.524934
	H329	H	0.423826	0.494783	0.532106
	O330	O	0.573719	0.541090	0.537734
	H331	H	0.577233	0.559112	0.544091
	H332	H	0.561858	0.532227	0.531469
	O333	O	-0.087270	0.040512	0.020112
	H334	H	-0.086127	0.048202	0.020076
	H335	H	-0.080765	0.035772	0.022743
