data_Molecule from HDF5

_cell_length_a		16.171615
_cell_length_b		16.320805
_cell_length_c		16.329000
_cell_angle_alpha	90.338788
_cell_angle_beta	90.041791
_cell_angle_gamma	90.041313
_symmetry_space_group_name_H-M	'P 1'
_symmetry_Int_Tables_number		1

loop_
	_symmetry_equiv_pos_as_xyz
	x,y,z

loop_
	_atom_site_label
	_atom_site_type_symbol
	_atom_site_fract_x
	_atom_site_fract_y
	_atom_site_fract_z
	H0	H	0.396309	0.842980	0.718938
	H1	H	0.604169	0.166114	0.722864
	H2	H	0.605293	0.842491	0.283097
	H3	H	0.401581	0.166846	0.286740
	H4	H	0.715657	0.401161	0.839994
	H5	H	0.717641	0.607678	0.163322
	H6	H	0.282114	0.601391	0.840308
	H7	H	0.281641	0.400017	0.163949
	H8	H	0.838568	0.721212	0.404023
	H9	H	0.164183	0.722775	0.608768
	H10	H	0.838460	0.286538	0.605615
	H11	H	0.162565	0.285941	0.400200
	H12	H	0.838662	0.401812	0.720533
	H13	H	0.163757	0.606497	0.721777
	H14	H	0.838530	0.607774	0.287887
	H15	H	0.162544	0.401424	0.285540
	H16	H	0.391582	0.722629	0.842385
	H17	H	0.604809	0.725477	0.161180
	H18	H	0.601524	0.283913	0.840856
	H19	H	0.397689	0.285515	0.163764
	H20	H	0.718345	0.841692	0.401615
	H21	H	0.715470	0.167849	0.601977
	H22	H	0.282459	0.844125	0.602024
	H23	H	0.286840	0.168100	0.403707
	H24	H	0.895875	0.342845	0.222255
	H25	H	0.103413	0.665960	0.222067
	H26	H	0.104240	0.344017	0.781431
	H27	H	0.896332	0.666309	0.785022
	H28	H	0.215905	0.905741	0.340663
	H29	H	0.219097	0.109729	0.663451
	H30	H	0.786566	0.102225	0.340054
	H31	H	0.782913	0.903225	0.665040
	H32	H	0.337315	0.218454	0.901145
	H33	H	0.662283	0.222618	0.106822
	H34	H	0.337151	0.786611	0.105140
	H35	H	0.661807	0.783389	0.899898
	H36	H	0.338002	0.901623	0.219909
	H37	H	0.664338	0.105344	0.218637
	H38	H	0.338661	0.106368	0.785322
	H39	H	0.663101	0.900318	0.784976
	H40	H	0.896256	0.222336	0.342868
	H41	H	0.104704	0.225459	0.663271
	H42	H	0.106594	0.783669	0.343696
	H43	H	0.899641	0.788776	0.665944
	H44	H	0.213095	0.339997	0.902927
	H45	H	0.218374	0.664750	0.105451
	H46	H	0.784014	0.341140	0.101444
	H47	H	0.782470	0.666052	0.904011
	H48	H	0.419637	0.122453	0.608457
	H49	H	0.589462	0.890206	0.592191
	H50	H	0.600381	0.122148	0.406372
	H51	H	0.403350	0.889673	0.417911
	H52	H	0.599771	0.407943	0.121713
	H53	H	0.588404	0.593205	0.887586
	H54	H	0.414150	0.594790	0.116103
	H55	H	0.409090	0.407856	0.886407
	H56	H	0.119733	0.595040	0.410972
	H57	H	0.884886	0.590640	0.600735
	H58	H	0.116664	0.415725	0.592870
	H59	H	0.883542	0.404197	0.419622
	H60	H	0.117318	0.414884	0.593163
	H61	H	0.882169	0.603985	0.597018
	H62	H	0.117058	0.596992	0.417368
	H63	H	0.888161	0.423498	0.418581
	H64	H	0.407301	0.597574	0.118800
	H65	H	0.589604	0.592363	0.886979
	H66	H	0.590510	0.421415	0.114380
	H67	H	0.405466	0.409063	0.886345
	H68	H	0.586005	0.119238	0.405609
	H69	H	0.592929	0.889072	0.591847
	H70	H	0.418902	0.113425	0.582791
	H71	H	0.405556	0.885030	0.401275
	H72	H	0.905962	0.618841	0.093018
	H73	H	0.096984	0.385102	0.096474
	H74	H	0.090252	0.618603	0.913909
	H75	H	0.909530	0.390593	0.913312
	H76	H	0.082417	0.915931	0.615615
	H77	H	0.091030	0.093839	0.388035
	H78	H	0.910594	0.090071	0.617108
	H79	H	0.911654	0.905721	0.386780
	H80	H	0.616641	0.095012	0.914473
	H81	H	0.379934	0.097973	0.101259
	H82	H	0.618367	0.908353	0.093524
	H83	H	0.383767	0.918795	0.905238
	H84	H	0.614118	0.913280	0.085745
	H85	H	0.384832	0.098773	0.086749
	H86	H	0.615998	0.091262	0.913934
	H87	H	0.380568	0.905915	0.908724
	H88	H	0.915310	0.101785	0.618631
	H89	H	0.090528	0.098021	0.386686
	H90	H	0.095827	0.905774	0.622825
	H91	H	0.906374	0.915910	0.388036
	H92	H	0.091071	0.618491	0.913332
	H93	H	0.083794	0.387710	0.102345
	H94	H	0.907113	0.621554	0.099946
	H95	H	0.906378	0.388422	0.909300
	H96	H	0.397010	0.124914	0.594861
	H97	H	0.590364	0.889397	0.595722
	H98	H	0.592755	0.117990	0.417754
	H99	H	0.418456	0.892039	0.410090
	H100	H	0.582383	0.405997	0.117010
	H101	H	0.588215	0.592137	0.887429
	H102	H	0.408269	0.590328	0.116161
	H103	H	0.408355	0.410791	0.887727
	H104	H	0.116007	0.590429	0.415051
	H105	H	0.887679	0.594776	0.587924
	H106	H	0.116986	0.414931	0.591921
	H107	H	0.880480	0.413755	0.402688
	H108	H	0.913170	0.617713	0.096307
	H109	H	0.086451	0.391528	0.087686
	H110	H	0.090308	0.618583	0.912818
	H111	H	0.912311	0.390040	0.908286
	H112	H	0.099382	0.922741	0.618226
	H113	H	0.093667	0.095994	0.386053
	H114	H	0.903484	0.098818	0.621224
	H115	H	0.916529	0.915054	0.391801
	H116	H	0.617535	0.093783	0.910964
	H117	H	0.386690	0.085855	0.095289
	H118	H	0.615723	0.917716	0.094658
	H119	H	0.386399	0.914276	0.918511
	C120	C	0.379890	0.013394	0.624368
	C121	C	0.621988	0.996075	0.624225
	C122	C	0.623330	0.012363	0.380135
	C123	C	0.379888	0.996457	0.380583
	C124	C	0.621156	0.380953	0.010836
	C125	C	0.620055	0.624631	0.993504
	C126	C	0.377942	0.623857	0.010654
	C127	C	0.377655	0.379840	0.993539
	C128	C	0.010170	0.625301	0.384017
	C129	C	0.992205	0.626873	0.626053
	C130	C	0.009606	0.383729	0.623894
	C131	C	0.991266	0.383118	0.382293
	C132	C	0.877513	0.512627	0.125953
	C133	C	0.121036	0.495162	0.125647
	C134	C	0.120586	0.511846	0.882347
	C135	C	0.878398	0.496314	0.880565
	C136	C	0.122910	0.884120	0.512307
	C137	C	0.122506	0.127368	0.493725
	C138	C	0.879506	0.126084	0.512103
	C139	C	0.880075	0.882585	0.495524
	C140	C	0.509163	0.123523	0.882960
	C141	C	0.491498	0.125301	0.124603
	C142	C	0.509068	0.882202	0.122931
	C143	C	0.491063	0.881468	0.880157
	C144	C	0.378228	0.891747	0.680687
	C145	C	0.622862	0.117886	0.682993
	C146	C	0.623764	0.890802	0.322293
	C147	C	0.381523	0.118356	0.324651
	C148	C	0.677470	0.381794	0.888586
	C149	C	0.678948	0.626664	0.114692
	C150	C	0.320435	0.621687	0.888919
	C151	C	0.320310	0.380707	0.115448
	C152	C	0.887402	0.682701	0.384714
	C153	C	0.115182	0.684146	0.627280
	C154	C	0.887314	0.325412	0.624712
	C155	C	0.113587	0.324967	0.381191
	C156	C	0.887442	0.382919	0.681978
	C157	C	0.115160	0.626236	0.683469
	C158	C	0.887234	0.626236	0.326755
	C159	C	0.113665	0.382525	0.324271
	C160	C	0.374921	0.682378	0.890097
	C161	C	0.622526	0.685072	0.113783
	C162	C	0.621074	0.322985	0.889261
	C163	C	0.377918	0.323583	0.115344
	C164	C	0.680152	0.890541	0.381365
	C165	C	0.678668	0.118725	0.623406
	C166	C	0.321427	0.892059	0.622378
	C167	C	0.324295	0.118918	0.382855
	C168	C	0.877080	0.391247	0.183164
	C169	C	0.122057	0.617166	0.183143
	C170	C	0.121831	0.391300	0.822481
	C171	C	0.877770	0.617957	0.824098
	C172	C	0.178406	0.885250	0.389681
	C173	C	0.180217	0.128316	0.615150
	C174	C	0.823634	0.123303	0.389341
	C175	C	0.822014	0.883986	0.616817
	C176	C	0.386424	0.180300	0.882514
	C177	C	0.613812	0.183421	0.125079
	C178	C	0.386217	0.825163	0.124057
	C179	C	0.613276	0.822684	0.880399
	C180	C	0.386714	0.882722	0.181121
	C181	C	0.614906	0.124972	0.180889
	C182	C	0.387161	0.124493	0.824677
	C183	C	0.613919	0.880600	0.823207
	C184	C	0.878314	0.183120	0.390788
	C185	C	0.123410	0.186083	0.614978
	C186	C	0.124380	0.824344	0.391425
	C187	C	0.880090	0.826805	0.617240
	C188	C	0.176065	0.389286	0.882725
	C189	C	0.179667	0.616442	0.125323
	C190	C	0.821176	0.390304	0.123082
	C191	C	0.820800	0.617767	0.882903
	C192	C	0.404667	0.098155	0.601945
	C193	C	0.598132	0.911745	0.600215
	C194	C	0.599867	0.097558	0.403242
	C195	C	0.402693	0.911142	0.403193
	C196	C	0.597814	0.404821	0.095643
	C197	C	0.595775	0.599741	0.909281
	C198	C	0.402791	0.600902	0.095054
	C199	C	0.400716	0.402643	0.908806
	C200	C	0.095322	0.601142	0.407551
	C201	C	0.906983	0.603360	0.602052
	C202	C	0.094763	0.408007	0.599609
	C203	C	0.906061	0.406945	0.406759
	C204	C	0.901663	0.597383	0.103128
	C205	C	0.096400	0.410212	0.102283
	C206	C	0.097183	0.596543	0.906432
	C207	C	0.902379	0.411662	0.903505
	C208	C	0.099331	0.907916	0.597067
	C209	C	0.098605	0.103202	0.408832
	C210	C	0.903001	0.103579	0.597143
	C211	C	0.904333	0.905624	0.410893
	C212	C	0.594644	0.099980	0.906341
	C213	C	0.405863	0.101186	0.101248
	C214	C	0.594103	0.905975	0.098378
	C215	C	0.405692	0.905869	0.903768
	Zn216	Zn	0.500736	0.003930	0.753571
	Zn217	Zn	0.501433	0.003551	0.251279
	Zn218	Zn	0.749020	0.503394	0.002210
	Zn219	Zn	0.249449	0.501828	0.002749
	Zn220	Zn	0.002440	0.754249	0.504610
	Zn221	Zn	0.000391	0.254483	0.503088
	Zn222	Zn	0.000862	0.505160	0.752184
	Zn223	Zn	-0.000143	0.505011	0.255041
	Zn224	Zn	0.498487	0.753838	0.002129
	Zn225	Zn	0.499894	0.252097	0.002458
	Zn226	Zn	0.751252	0.004782	0.503062
	Zn227	Zn	0.251321	0.006119	0.502753
	N228	N	0.413864	0.968207	0.682002
	N229	N	0.588732	0.040764	0.684187
	N230	N	0.589209	0.967751	0.321348
	N231	N	0.415412	0.041113	0.323093
	N232	N	0.677747	0.417074	0.965302
	N233	N	0.677452	0.589480	0.039070
	N234	N	0.321951	0.586025	0.965101
	N235	N	0.320128	0.415204	0.038920
	N236	N	0.964871	0.682326	0.419460
	N237	N	0.037817	0.684694	0.592185
	N238	N	0.964329	0.325939	0.589165
	N239	N	0.036449	0.325035	0.416584
	N240	N	0.964490	0.418463	0.681478
	N241	N	0.037699	0.591527	0.683013
	N242	N	0.964523	0.591200	0.325995
	N243	N	0.036553	0.418049	0.324635
	N244	N	0.410194	0.683560	0.966628
	N245	N	0.586375	0.683773	0.037543
	N246	N	0.587014	0.322321	0.966341
	N247	N	0.412895	0.322885	0.038641
	N248	N	0.680040	0.967256	0.416548
	N249	N	0.678346	0.042233	0.587441
	N250	N	0.322270	0.968815	0.588250
	N251	N	0.322984	0.042052	0.416731
	N252	N	0.911063	0.468503	0.185263
	N253	N	0.086453	0.540579	0.183383
	N254	N	0.087885	0.468425	0.822251
	N255	N	0.912618	0.541133	0.822294
	N256	N	0.177908	0.921612	0.465825
	N257	N	0.179767	0.092356	0.538812
	N258	N	0.823994	0.088756	0.465873
	N259	N	0.821503	0.917781	0.539896
	N260	N	0.463352	0.179711	0.918216
	N261	N	0.536077	0.183923	0.090847
	N262	N	0.463234	0.824784	0.088555
	N263	N	0.535711	0.823083	0.914988
	N264	N	0.464025	0.917591	0.180507
	N265	N	0.537841	0.089453	0.180710
	N266	N	0.464399	0.089400	0.824949
	N267	N	0.537020	0.916436	0.823026
	N268	N	0.912250	0.185087	0.468169
	N269	N	0.087974	0.185288	0.538480
	N270	N	0.090704	0.823371	0.468787
	N271	N	0.915431	0.825767	0.540703
	N272	N	0.175458	0.465304	0.919377
	N273	N	0.179194	0.539483	0.090273
	N274	N	0.821018	0.466838	0.088408
	N275	N	0.821203	0.541153	0.917310
	O276	O	0.106766	0.162817	0.035753
	H277	H	0.109822	0.162133	0.031153
	H278	H	0.108028	0.156759	0.041328
	O279	O	0.400895	0.690097	0.403291
	H280	H	0.423597	0.696900	0.406229
	H281	H	0.409075	0.703041	0.420233
	O282	O	0.613017	-0.390401	-0.416525
	H283	H	0.620492	-0.384243	-0.417659
	H284	H	0.602575	-0.384220	-0.425490
	O285	O	-0.022515	1.024908	-0.022446
	H286	H	-0.024336	1.032085	-0.023184
	H287	H	-0.018961	1.027347	-0.020354
	O288	O	0.570791	0.362054	0.417180
	H289	H	0.552996	0.358473	0.418040
	H290	H	0.564695	0.356434	0.425995
	O291	O	0.989810	-0.101980	1.043044
	H292	H	0.994055	-0.095812	1.030194
	H293	H	0.977934	-0.101606	1.038889
	O294	O	0.884906	0.892984	0.990415
	H295	H	0.898351	0.900827	0.971574
	H296	H	0.889447	0.896237	0.996882
	O297	O	-0.003801	0.078381	0.140055
	H298	H	0.002626	0.086626	0.139420
	H299	H	-0.011384	0.071059	0.132632
	O300	O	0.533197	0.512471	0.463887
	H301	H	0.541519	0.513883	0.477857
	H302	H	0.519365	0.530477	0.460015
	O303	O	0.099546	1.101279	1.066495
	H304	H	0.103652	1.115825	1.078487
	H305	H	0.104800	1.095507	1.073433
	O306	O	0.540121	0.553597	0.676922
	H307	H	0.542321	0.559103	0.693003
	H308	H	0.533607	0.571651	0.671173
	O309	O	0.875985	0.124714	0.081748
	H310	H	0.862786	0.126460	0.070723
	H311	H	0.879555	0.125872	0.079604
	O312	O	0.088256	-0.021807	1.019283
	H313	H	0.075159	-0.030262	1.025467
	H314	H	0.087076	-0.029628	1.021260
	O315	O	0.423624	0.509102	0.501845
	H316	H	0.418140	0.508570	0.494363
	H317	H	0.433540	0.515864	0.489391
	O318	O	0.617211	0.413891	0.469732
	H319	H	0.607670	0.408449	0.461091
	H320	H	0.618802	0.419922	0.457743
	O321	O	0.414372	0.493983	0.621605
	H322	H	0.410647	0.485191	0.631498
	H323	H	0.413416	0.487770	0.614102
	O324	O	0.515240	0.634283	0.511079
	H325	H	0.537268	0.638424	0.523570
	H326	H	0.521655	0.614859	0.514037
	O327	O	-0.140257	1.107484	0.940227
	H328	H	-0.128735	1.095968	0.928723
	H329	H	-0.151044	1.108979	0.934964
	O330	O	0.027734	-0.031516	0.097998
	H331	H	0.030505	-0.038620	0.095970
	H332	H	0.014368	-0.027298	0.094489
	O333	O	0.044138	1.124427	1.005386
	H334	H	0.037158	1.133400	1.015839
	H335	H	0.041759	1.110782	1.006838
	O336	O	1.018481	0.879380	0.961165
	H337	H	1.018525	0.873641	0.957946
	H338	H	1.025682	0.872165	0.958856
	O339	O	0.602156	0.542795	0.487931
	H340	H	0.595375	0.530287	0.480149
	H341	H	0.596666	0.537723	0.495139
	O342	O	1.098728	-0.112906	-0.075720
	H343	H	1.103641	-0.106613	-0.091328
	H344	H	1.112508	-0.128502	-0.081959
	O345	O	0.528434	0.623195	0.652078
	H346	H	0.536386	0.636681	0.669676
	H347	H	0.540440	0.609325	0.640133
	O348	O	0.893254	1.074509	0.953189
	H349	H	0.897278	1.077631	0.955165
	H350	H	0.895801	1.084989	0.960652
	O351	O	1.083955	1.048677	-0.080583
	H352	H	1.081481	1.044970	-0.059334
	H353	H	1.082312	1.058704	-0.085817
	O354	O	0.298678	0.537164	0.296889
	H355	H	0.307997	0.570445	0.308439
	H356	H	0.271512	0.547241	0.269344
	O357	O	0.531623	0.394189	0.595745
	H358	H	0.530557	0.400958	0.598782
	H359	H	0.523735	0.402988	0.584521
	O360	O	-0.010328	-0.104515	-0.051811
	H361	H	-0.016322	-0.102262	-0.043678
	H362	H	-0.016696	-0.082242	-0.059753
	O363	O	0.432864	0.632008	0.552768
	H364	H	0.430493	0.637855	0.561807
	H365	H	0.439460	0.633058	0.566888
	O366	O	0.379320	0.371648	0.528099
	H367	H	0.385416	0.380396	0.528699
	H368	H	0.376626	0.357124	0.523541
	O369	O	0.410838	0.414974	0.556279
	H370	H	0.418154	0.424513	0.543838
	H371	H	0.418791	0.413378	0.559296
	O372	O	0.445570	0.643480	0.317777
	H373	H	0.440501	0.657504	0.306507
	H374	H	0.468911	0.633620	0.319573
	O375	O	0.534963	0.384141	0.474893
	H376	H	0.522789	0.377784	0.483782
	H377	H	0.526674	0.394876	0.471439
	O378	O	0.699936	0.423780	0.304371
	H379	H	0.692809	0.391841	0.301902
	H380	H	0.716748	0.409237	0.293157
	O381	O	0.629110	0.564209	0.339022
	H382	H	0.642777	0.539262	0.331755
	H383	H	0.634823	0.546789	0.347509
	O384	O	-0.062272	1.019467	-0.038595
	H385	H	-0.056378	1.022528	-0.028501
	H386	H	-0.055284	1.031473	-0.051768
	O387	O	0.855343	-0.060493	1.001614
	H388	H	0.848869	-0.050259	1.009928
	H389	H	0.859478	-0.060778	0.999940
	O390	O	0.029014	0.844126	0.069296
	H391	H	0.020022	0.847669	0.070741
	H392	H	0.032177	0.845575	0.068328
	O393	O	0.901902	1.127048	-0.070871
	H394	H	0.901807	1.114337	-0.082824
	H395	H	0.911065	1.130155	-0.065132
	O396	O	0.542564	0.649422	0.493597
	H397	H	0.559554	0.663697	0.479905
	H398	H	0.542022	0.637597	0.486281
	O399	O	0.078665	0.994428	1.074639
	H400	H	0.076473	0.987758	1.086306
	H401	H	0.074038	0.997165	1.084297
	O402	O	1.118281	0.961054	0.840736
	H403	H	1.113105	0.952275	0.837175
	H404	H	1.130324	0.956677	0.838299
	O405	O	0.568785	0.361916	0.414324
	H406	H	0.576419	0.349160	0.406805
	H407	H	0.566757	0.390540	0.416741
