data_Molecule from HDF5

_cell_length_a		16.188900
_cell_length_b		16.257514
_cell_length_c		16.350763
_cell_angle_alpha	89.902981
_cell_angle_beta	90.033082
_cell_angle_gamma	89.886388
_symmetry_space_group_name_H-M	'P 1'
_symmetry_Int_Tables_number		1

loop_
	_symmetry_equiv_pos_as_xyz
	x,y,z

loop_
	_atom_site_label
	_atom_site_type_symbol
	_atom_site_fract_x
	_atom_site_fract_y
	_atom_site_fract_z
	H0	H	0.400786	0.836318	0.715614
	H1	H	0.598791	0.163609	0.714606
	H2	H	0.599935	0.836817	0.285525
	H3	H	0.400346	0.163824	0.285034
	H4	H	0.714409	0.403210	0.836399
	H5	H	0.714333	0.597440	0.164178
	H6	H	0.285466	0.598445	0.836510
	H7	H	0.287574	0.403610	0.163942
	H8	H	0.835528	0.714117	0.402064
	H9	H	0.164855	0.712001	0.597707
	H10	H	0.834756	0.287037	0.598331
	H11	H	0.164227	0.286857	0.404340
	H12	H	0.836060	0.400957	0.714901
	H13	H	0.164276	0.597115	0.713659
	H14	H	0.836137	0.600032	0.284715
	H15	H	0.164169	0.401004	0.287274
	H16	H	0.402414	0.714926	0.836782
	H17	H	0.599275	0.715150	0.163082
	H18	H	0.598474	0.286100	0.836878
	H19	H	0.401544	0.285588	0.162935
	H20	H	0.712438	0.835604	0.403529
	H21	H	0.712786	0.164142	0.596406
	H22	H	0.288956	0.834697	0.596137
	H23	H	0.287565	0.164078	0.404362
	H24	H	0.901196	0.337012	0.214825
	H25	H	0.100275	0.663226	0.215971
	H26	H	0.100280	0.336838	0.784964
	H27	H	0.898198	0.663082	0.783598
	H28	H	0.213977	0.902909	0.335965
	H29	H	0.213286	0.095817	0.664289
	H30	H	0.786110	0.097109	0.337124
	H31	H	0.785205	0.901238	0.663116
	H32	H	0.335835	0.214863	0.902316
	H33	H	0.665184	0.211771	0.096011
	H34	H	0.334679	0.788449	0.095743
	H35	H	0.664935	0.786429	0.902583
	H36	H	0.335779	0.902877	0.213694
	H37	H	0.664601	0.098613	0.213558
	H38	H	0.334929	0.099917	0.786080
	H39	H	0.664536	0.901530	0.786496
	H40	H	0.901222	0.214496	0.337101
	H41	H	0.097511	0.214525	0.663405
	H42	H	0.097504	0.786285	0.336745
	H43	H	0.901988	0.784217	0.662586
	H44	H	0.214218	0.336413	0.902803
	H45	H	0.211985	0.664783	0.096221
	H46	H	0.788363	0.335640	0.096369
	H47	H	0.785522	0.663688	0.902579
	H48	H	0.415981	0.115132	0.594987
	H49	H	0.598642	0.880189	0.595929
	H50	H	0.581558	0.114836	0.404416
	H51	H	0.411604	0.883506	0.404849
	H52	H	0.595872	0.400507	0.118162
	H53	H	0.598982	0.588522	0.883715
	H54	H	0.400635	0.585099	0.115081
	H55	H	0.406830	0.401105	0.882251
	H56	H	0.121120	0.594526	0.396595
	H57	H	0.885607	0.593402	0.580350
	H58	H	0.112111	0.418048	0.588540
	H59	H	0.882623	0.409271	0.409014
	H60	H	0.120522	0.405932	0.606141
	H61	H	0.883745	0.580483	0.598269
	H62	H	0.117967	0.600493	0.413561
	H63	H	0.881458	0.408419	0.402814
	H64	H	0.415748	0.595155	0.114059
	H65	H	0.585577	0.591015	0.887359
	H66	H	0.597819	0.408351	0.116964
	H67	H	0.402055	0.409851	0.882280
	H68	H	0.597532	0.116137	0.416179
	H69	H	0.587486	0.884091	0.599104
	H70	H	0.402109	0.115898	0.585592
	H71	H	0.406391	0.883529	0.408869
	H72	H	0.904592	0.618864	0.094570
	H73	H	0.095375	0.382222	0.095408
	H74	H	0.079558	0.610970	0.915070
	H75	H	0.915852	0.385335	0.906698
	H76	H	0.095996	0.901549	0.617972
	H77	H	0.099962	0.094076	0.382601
	H78	H	0.906404	0.093366	0.616925
	H79	H	0.905831	0.900646	0.381309
	H80	H	0.618529	0.097883	0.908833
	H81	H	0.378519	0.097660	0.102930
	H82	H	0.616435	0.904052	0.087260
	H83	H	0.382377	0.912711	0.901754
	H84	H	0.615837	0.913616	0.094927
	H85	H	0.382862	0.100129	0.083385
	H86	H	0.614013	0.087402	0.909388
	H87	H	0.380423	0.901223	0.906096
	H88	H	0.906365	0.094099	0.617319
	H89	H	0.091222	0.089630	0.385912
	H90	H	0.096857	0.908154	0.615835
	H91	H	0.901386	0.910625	0.383824
	H92	H	0.106701	0.619532	0.912214
	H93	H	0.091296	0.383314	0.096510
	H94	H	0.909716	0.616875	0.094674
	H95	H	0.903200	0.383872	0.913662
	H96	H	0.401560	0.120399	0.601542
	H97	H	0.591389	0.884791	0.587667
	H98	H	0.599446	0.121098	0.397023
	H99	H	0.405318	0.881067	0.402421
	H100	H	0.590637	0.405960	0.115214
	H101	H	0.593760	0.600727	0.882113
	H102	H	0.400362	0.602254	0.120938
	H103	H	0.410991	0.409158	0.886088
	H104	H	0.113757	0.582986	0.409695
	H105	H	0.877663	0.602079	0.598803
	H106	H	0.117818	0.396281	0.585473
	H107	H	0.880929	0.403577	0.406324
	H108	H	0.906474	0.616905	0.090021
	H109	H	0.092254	0.383425	0.092525
	H110	H	0.089175	0.620727	0.890552
	H111	H	0.904052	0.379812	0.899713
	H112	H	0.089958	0.905455	0.615153
	H113	H	0.090889	0.099425	0.383479
	H114	H	0.905914	0.093966	0.616524
	H115	H	0.912413	0.908427	0.385671
	H116	H	0.618788	0.091046	0.898981
	H117	H	0.386063	0.081893	0.092910
	H118	H	0.620544	0.902941	0.099004
	H119	H	0.385618	0.910093	0.913004
	C120	C	0.378657	0.008286	0.621879
	C121	C	0.621128	0.991585	0.621718
	C122	C	0.621350	0.008730	0.378079
	C123	C	0.378606	0.991145	0.377815
	C124	C	0.622658	0.377638	0.008672
	C125	C	0.621764	0.621730	0.992209
	C126	C	0.377902	0.622447	0.008406
	C127	C	0.378296	0.378626	0.991688
	C128	C	0.008768	0.621596	0.378198
	C129	C	0.991200	0.620287	0.620947
	C130	C	0.008416	0.378388	0.621880
	C131	C	0.990667	0.378947	0.378798
	C132	C	0.879152	0.508858	0.121428
	C133	C	0.121470	0.491536	0.122426
	C134	C	0.121228	0.508847	0.878084
	C135	C	0.878694	0.491308	0.878196
	C136	C	0.122151	0.877627	0.508226
	C137	C	0.122182	0.122044	0.491873
	C138	C	0.877954	0.121842	0.508921
	C139	C	0.878017	0.877924	0.491476
	C140	C	0.508359	0.121150	0.877869
	C141	C	0.491636	0.121201	0.121064
	C142	C	0.508668	0.878952	0.121261
	C143	C	0.491690	0.879242	0.878798
	C144	C	0.380915	0.884951	0.677321
	C145	C	0.618863	0.114721	0.676429
	C146	C	0.619643	0.885662	0.323356
	C147	C	0.380495	0.114746	0.323262
	C148	C	0.676877	0.381760	0.885362
	C149	C	0.676490	0.618361	0.115214
	C150	C	0.323390	0.619253	0.885341
	C151	C	0.324117	0.382310	0.114709
	C152	C	0.884677	0.676460	0.381017
	C153	C	0.115553	0.674548	0.618066
	C154	C	0.884215	0.324070	0.619029
	C155	C	0.115137	0.324394	0.382870
	C156	C	0.884890	0.380296	0.677246
	C157	C	0.115235	0.617878	0.676098
	C158	C	0.884934	0.619834	0.322962
	C159	C	0.115083	0.381105	0.324809
	C160	C	0.381283	0.677090	0.885480
	C161	C	0.619309	0.676813	0.114804
	C162	C	0.619398	0.323532	0.885542
	C163	C	0.380951	0.323540	0.114204
	C164	C	0.675527	0.884967	0.382122
	C165	C	0.675430	0.115184	0.617557
	C166	C	0.325559	0.883989	0.617840
	C167	C	0.324316	0.115034	0.382344
	C168	C	0.881508	0.385626	0.176531
	C169	C	0.119336	0.614758	0.177260
	C170	C	0.119829	0.385546	0.823206
	C171	C	0.879205	0.614389	0.822281
	C172	C	0.176075	0.881841	0.384878
	C173	C	0.176030	0.117706	0.615316
	C174	C	0.823601	0.118392	0.385713
	C175	C	0.823511	0.880982	0.614527
	C176	C	0.384599	0.176854	0.881228
	C177	C	0.615936	0.174999	0.117432
	C178	C	0.384260	0.825100	0.117689
	C179	C	0.615733	0.824273	0.881859
	C180	C	0.384753	0.881678	0.176139
	C181	C	0.615506	0.118936	0.175912
	C182	C	0.384343	0.119924	0.823541
	C183	C	0.615424	0.881336	0.823991
	C184	C	0.880839	0.176603	0.385926
	C185	C	0.118556	0.176467	0.615042
	C186	C	0.118755	0.823542	0.385334
	C187	C	0.881131	0.822690	0.614114
	C188	C	0.176730	0.385386	0.881506
	C189	C	0.175007	0.615538	0.117969
	C190	C	0.825235	0.384818	0.117797
	C191	C	0.823120	0.614835	0.881092
	C192	C	0.400128	0.094701	0.600292
	C193	C	0.599151	0.905170	0.600450
	C194	C	0.599245	0.095180	0.399460
	C195	C	0.401130	0.904757	0.399175
	C196	C	0.601090	0.398695	0.094617
	C197	C	0.599562	0.599863	0.906376
	C198	C	0.399356	0.600823	0.094461
	C199	C	0.400193	0.400414	0.905704
	C200	C	0.095337	0.599226	0.400203
	C201	C	0.904767	0.598395	0.598956
	C202	C	0.094590	0.400156	0.599931
	C203	C	0.904103	0.400566	0.399830
	C204	C	0.900607	0.595337	0.099447
	C205	C	0.099679	0.405263	0.101122
	C206	C	0.098568	0.594950	0.899512
	C207	C	0.901193	0.405298	0.900195
	C208	C	0.100628	0.898793	0.594131
	C209	C	0.100553	0.100778	0.406097
	C210	C	0.899778	0.100126	0.594774
	C211	C	0.900064	0.900164	0.405746
	C212	C	0.594846	0.098851	0.899505
	C213	C	0.404901	0.099642	0.099507
	C214	C	0.595354	0.900352	0.100024
	C215	C	0.405070	0.901399	0.900585
	Zn216	Zn	0.499529	0.000288	0.750095
	Zn217	Zn	0.500375	0.000345	0.249433
	Zn218	Zn	0.750954	0.499945	0.000159
	Zn219	Zn	0.249074	0.500399	0.000371
	Zn220	Zn	0.000139	0.748896	0.500034
	Zn221	Zn	-0.000797	0.250686	0.500351
	Zn222	Zn	-0.000374	0.499819	0.749703
	Zn223	Zn	-0.000078	0.500279	0.250409
	Zn224	Zn	0.500343	0.750672	0.000044
	Zn225	Zn	0.500353	0.249116	-0.000275
	Zn226	Zn	0.749195	-0.000090	0.499905
	Zn227	Zn	0.250965	-0.000813	0.500179
	N228	N	0.413097	0.963245	0.679846
	N229	N	0.585840	0.036828	0.678986
	N230	N	0.586582	0.963646	0.320801
	N231	N	0.413487	0.036700	0.320286
	N232	N	0.679060	0.414623	0.962883
	N233	N	0.678064	0.584815	0.037990
	N234	N	0.321068	0.586019	0.962833
	N235	N	0.322313	0.415640	0.037322
	N236	N	0.962675	0.677636	0.414658
	N237	N	0.037517	0.676166	0.584411
	N238	N	0.962027	0.322801	0.585049
	N239	N	0.037007	0.322921	0.415849
	N240	N	0.962808	0.413680	0.678885
	N241	N	0.037007	0.584908	0.677934
	N242	N	0.963086	0.586361	0.321265
	N243	N	0.036851	0.414202	0.322183
	N244	N	0.414505	0.679108	0.962879
	N245	N	0.585878	0.678981	0.037277
	N246	N	0.586421	0.320862	0.963106
	N247	N	0.414024	0.321231	0.036726
	N248	N	0.676744	0.962621	0.415535
	N249	N	0.676829	0.037539	0.584200
	N250	N	0.323916	0.961636	0.584112
	N251	N	0.323075	0.037246	0.415614
	N252	N	0.914238	0.463704	0.178820
	N253	N	0.086548	0.536744	0.179918
	N254	N	0.086067	0.463202	0.821004
	N255	N	0.913171	0.536627	0.820405
	N256	N	0.178472	0.914500	0.462332
	N257	N	0.178353	0.084573	0.537937
	N258	N	0.821841	0.084868	0.462960
	N259	N	0.821481	0.914600	0.537136
	N260	N	0.462717	0.177778	0.914440
	N261	N	0.537933	0.176459	0.083909
	N262	N	0.462277	0.823354	0.084138
	N263	N	0.537688	0.822820	0.915240
	N264	N	0.462906	0.914666	0.178280
	N265	N	0.537317	0.086109	0.178036
	N266	N	0.462118	0.085972	0.821525
	N267	N	0.537407	0.914822	0.822257
	N268	N	0.913889	0.178822	0.463559
	N269	N	0.085732	0.179224	0.537424
	N270	N	0.085887	0.820841	0.463031
	N271	N	0.914100	0.820741	0.536650
	N272	N	0.177470	0.462929	0.915123
	N273	N	0.176215	0.537929	0.084410
	N274	N	0.823722	0.462544	0.084287
	N275	N	0.822673	0.537530	0.915244
