data_Molecule from HDF5

_cell_length_a		16.270509
_cell_length_b		16.243051
_cell_length_c		16.236686
_cell_angle_alpha	89.868101
_cell_angle_beta	90.114249
_cell_angle_gamma	89.735007
_symmetry_space_group_name_H-M	'P 1'
_symmetry_Int_Tables_number		1

loop_
	_symmetry_equiv_pos_as_xyz
	x,y,z

loop_
	_atom_site_label
	_atom_site_type_symbol
	_atom_site_fract_x
	_atom_site_fract_y
	_atom_site_fract_z
	H0	H	0.416848	0.832037	0.724006
	H1	H	0.611044	0.160449	0.723052
	H2	H	0.612131	0.832303	0.296922
	H3	H	0.414297	0.160253	0.294844
	H4	H	0.727054	0.397869	0.845992
	H5	H	0.727092	0.594254	0.174617
	H6	H	0.296039	0.597646	0.846268
	H7	H	0.300016	0.398011	0.174673
	H8	H	0.849606	0.711226	0.410609
	H9	H	0.176943	0.708414	0.609976
	H10	H	0.848276	0.282259	0.607566
	H11	H	0.176602	0.280733	0.411723
	H12	H	0.848675	0.397644	0.723856
	H13	H	0.176051	0.592255	0.724942
	H14	H	0.849010	0.594329	0.295094
	H15	H	0.175746	0.395506	0.295167
	H16	H	0.413519	0.711760	0.846686
	H17	H	0.610181	0.708969	0.175250
	H18	H	0.611830	0.282022	0.846268
	H19	H	0.416120	0.282701	0.174348
	H20	H	0.727969	0.832238	0.411740
	H21	H	0.727296	0.160197	0.607689
	H22	H	0.301498	0.831768	0.608798
	H23	H	0.296858	0.159346	0.409437
	H24	H	0.916373	0.331542	0.222556
	H25	H	0.111379	0.658768	0.224952
	H26	H	0.112810	0.331496	0.796471
	H27	H	0.913976	0.659494	0.794425
	H28	H	0.227552	0.896067	0.345320
	H29	H	0.228536	0.093169	0.673445
	H30	H	0.799446	0.093437	0.344880
	H31	H	0.800820	0.897141	0.673559
	H32	H	0.348874	0.212254	0.910714
	H33	H	0.677087	0.209543	0.108314
	H34	H	0.348214	0.785093	0.107968
	H35	H	0.677135	0.781401	0.913378
	H36	H	0.350025	0.899230	0.224524
	H37	H	0.677538	0.093662	0.223917
	H38	H	0.349170	0.097086	0.793497
	H39	H	0.678173	0.898707	0.797003
	H40	H	0.914595	0.209641	0.345177
	H41	H	0.111718	0.208418	0.673674
	H42	H	0.112097	0.780630	0.345525
	H43	H	0.917095	0.782445	0.673945
	H44	H	0.229997	0.332680	0.910868
	H45	H	0.225232	0.660030	0.108371
	H46	H	0.800408	0.332236	0.108093
	H47	H	0.797962	0.660297	0.910322
	H48	H	0.425583	0.111052	0.599671
	H49	H	0.611091	0.877643	0.603823
	H50	H	0.606062	0.113688	0.416338
	H51	H	0.421189	0.879137	0.417808
	H52	H	0.611162	0.409566	0.127024
	H53	H	0.605640	0.586247	0.895076
	H54	H	0.417358	0.593045	0.129096
	H55	H	0.417044	0.409967	0.894428
	H56	H	0.128812	0.586604	0.416841
	H57	H	0.897537	0.576335	0.609548
	H58	H	0.125348	0.407278	0.596532
	H59	H	0.896243	0.408787	0.410116
	H60	H	0.130716	0.404378	0.613051
	H61	H	0.889938	0.602229	0.610141
	H62	H	0.130472	0.588631	0.416436
	H63	H	0.892544	0.394369	0.413811
	H64	H	0.416590	0.588480	0.127370
	H65	H	0.602665	0.590077	0.894123
	H66	H	0.599851	0.402787	0.124821
	H67	H	0.427103	0.404660	0.895682
	H68	H	0.607101	0.114010	0.417065
	H69	H	0.606830	0.878513	0.606038
	H70	H	0.415442	0.112966	0.596735
	H71	H	0.420885	0.878924	0.416655
	H72	H	0.925633	0.610929	0.099583
	H73	H	0.109174	0.378106	0.100815
	H74	H	0.099082	0.610161	0.918017
	H75	H	0.923633	0.379889	0.917760
	H76	H	0.100635	0.901649	0.624108
	H77	H	0.109627	0.088620	0.391411
	H78	H	0.922093	0.084080	0.624516
	H79	H	0.923702	0.895366	0.391019
	H80	H	0.628792	0.086869	0.916167
	H81	H	0.396463	0.086056	0.106550
	H82	H	0.632346	0.894790	0.105273
	H83	H	0.395300	0.895610	0.920366
	H84	H	0.628228	0.902959	0.098785
	H85	H	0.395428	0.094962	0.103493
	H86	H	0.630003	0.090388	0.914091
	H87	H	0.399749	0.911723	0.921604
	H88	H	0.922608	0.092965	0.626752
	H89	H	0.104599	0.084132	0.393999
	H90	H	0.110951	0.894869	0.628578
	H91	H	0.912207	0.904406	0.390233
	H92	H	0.108603	0.612524	0.920909
	H93	H	0.107484	0.377816	0.105627
	H94	H	0.913258	0.614916	0.098563
	H95	H	0.917573	0.379134	0.920294
	H96	H	0.418697	0.115036	0.606973
	H97	H	0.606853	0.879585	0.601838
	H98	H	0.607391	0.114395	0.415747
	H99	H	0.422196	0.879723	0.416683
	H100	H	0.611125	0.395570	0.130216
	H101	H	0.607243	0.590727	0.892674
	H102	H	0.421071	0.590014	0.127226
	H103	H	0.417900	0.399370	0.891036
	H104	H	0.129882	0.587641	0.418665
	H105	H	0.900110	0.591632	0.588095
	H106	H	0.131929	0.391207	0.601309
	H107	H	0.898289	0.403611	0.424026
	H108	H	0.919098	0.615711	0.110536
	H109	H	0.104335	0.379648	0.101233
	H110	H	0.105083	0.614935	0.910924
	H111	H	0.918929	0.377608	0.914340
	H112	H	0.112187	0.908183	0.626267
	H113	H	0.103045	0.091695	0.391798
	H114	H	0.914681	0.088257	0.627996
	H115	H	0.925275	0.908694	0.395554
	H116	H	0.628891	0.091162	0.919083
	H117	H	0.398682	0.087783	0.097756
	H118	H	0.631177	0.904963	0.109645
	H119	H	0.395050	0.906123	0.906890
	C120	C	0.392525	0.004743	0.630508
	C121	C	0.635644	0.987502	0.631579
	C122	C	0.635025	0.005116	0.388187
	C123	C	0.392135	0.987510	0.387951
	C124	C	0.635578	0.374320	0.019046
	C125	C	0.633512	0.617382	1.002107
	C126	C	0.389742	0.619438	0.018975
	C127	C	0.392401	0.375983	1.002165
	C128	C	0.021376	0.616801	0.388212
	C129	C	1.004086	0.617205	0.631245
	C130	C	0.020955	0.373411	0.631718
	C131	C	1.004144	0.373637	0.387835
	C132	C	0.891350	0.505062	0.131440
	C133	C	0.134500	0.487041	0.131357
	C134	C	0.134095	0.504332	0.888385
	C135	C	0.890912	0.487272	0.888253
	C136	C	0.136186	0.872926	0.517881
	C137	C	0.134753	0.116722	0.501002
	C138	C	0.891298	0.117043	0.517786
	C139	C	0.892231	0.874269	0.500887
	C140	C	0.520999	0.118769	0.887605
	C141	C	0.505009	0.117724	0.131338
	C142	C	0.521822	0.874018	0.132343
	C143	C	0.505175	0.875394	0.888682
	C144	C	0.395961	0.881098	0.686295
	C145	C	0.631857	0.111503	0.685391
	C146	C	0.632428	0.881274	0.334205
	C147	C	0.394092	0.111298	0.332849
	C148	C	0.689852	0.377109	0.895105
	C149	C	0.688752	0.614624	0.125912
	C150	C	0.334384	0.617322	0.895393
	C151	C	0.337677	0.378050	0.125577
	C152	C	0.898413	0.673101	0.390288
	C153	C	0.127828	0.671072	0.629544
	C154	C	0.897399	0.319442	0.628513
	C155	C	0.127700	0.318604	0.391327
	C156	C	0.897426	0.377013	0.686026
	C157	C	0.127410	0.613419	0.686857
	C158	C	0.898014	0.614982	0.332863
	C159	C	0.127331	0.375521	0.333233
	C160	C	0.392453	0.674376	0.895559
	C161	C	0.630835	0.671772	0.126135
	C162	C	0.632531	0.319592	0.895265
	C163	C	0.395450	0.320839	0.125547
	C164	C	0.689991	0.881284	0.391287
	C165	C	0.689244	0.111484	0.627742
	C166	C	0.338606	0.880774	0.629028
	C167	C	0.335790	0.110739	0.389563
	C168	C	0.895377	0.380967	0.185455
	C169	C	0.131813	0.609982	0.186990
	C170	C	0.132528	0.380581	0.833828
	C171	C	0.893348	0.610752	0.832678
	C172	C	0.190452	0.875397	0.394428
	C173	C	0.190023	0.113250	0.624400
	C174	C	0.836549	0.114541	0.394209
	C175	C	0.838200	0.876947	0.624618
	C176	C	0.397772	0.174131	0.890396
	C177	C	0.628435	0.171780	0.128608
	C178	C	0.397762	0.821527	0.128667
	C179	C	0.628384	0.819601	0.892220
	C180	C	0.398512	0.877929	0.186873
	C181	C	0.628856	0.114045	0.185822
	C182	C	0.397882	0.117160	0.831885
	C183	C	0.628964	0.877792	0.834456
	C184	C	0.894085	0.171946	0.394156
	C185	C	0.132215	0.170865	0.624668
	C186	C	0.132773	0.818383	0.394336
	C187	C	0.896121	0.820025	0.624907
	C188	C	0.190609	0.381044	0.890780
	C189	C	0.188399	0.610765	0.128887
	C190	C	0.837574	0.381373	0.128648
	C191	C	0.835724	0.611004	0.890190
	C192	C	0.413803	0.090878	0.607897
	C193	C	0.614410	0.901237	0.610272
	C194	C	0.613021	0.091686	0.409859
	C195	C	0.414880	0.901496	0.410253
	C196	C	0.613815	0.396203	0.105106
	C197	C	0.611574	0.595673	0.916141
	C198	C	0.411709	0.597055	0.105448
	C199	C	0.414199	0.398243	0.915848
	C200	C	0.107506	0.594109	0.410674
	C201	C	0.918131	0.596254	0.609257
	C202	C	0.107063	0.394728	0.609929
	C203	C	0.917878	0.395819	0.409560
	C204	C	0.912887	0.591756	0.109356
	C205	C	0.113240	0.400727	0.109170
	C206	C	0.111027	0.590358	0.910200
	C207	C	0.913408	0.401180	0.910729
	C208	C	0.114276	0.895133	0.604182
	C209	C	0.112265	0.094638	0.414651
	C210	C	0.913272	0.094760	0.604077
	C211	C	0.913956	0.896268	0.414562
	C212	C	0.606991	0.096026	0.909843
	C213	C	0.419020	0.095948	0.109161
	C214	C	0.608295	0.894850	0.110955
	C215	C	0.419062	0.897986	0.910051
	Zn216	Zn	0.513252	-0.003198	0.759256
	Zn217	Zn	0.513961	-0.003834	0.259787
	Zn218	Zn	0.762977	0.496442	0.010318
	Zn219	Zn	0.262746	0.496324	0.009800
	Zn220	Zn	0.014039	0.745577	0.509632
	Zn221	Zn	0.012512	0.245158	0.509797
	Zn222	Zn	0.012419	0.495239	0.760010
	Zn223	Zn	0.012794	0.495272	0.259366
	Zn224	Zn	0.512531	0.746190	0.010939
	Zn225	Zn	0.513164	0.246835	0.010249
	Zn226	Zn	0.763294	-0.004475	0.509499
	Zn227	Zn	0.263896	-0.005328	0.509576
	N228	N	0.428805	0.958971	0.687207
	N229	N	0.599172	0.033616	0.687700
	N230	N	0.598947	0.959160	0.332288
	N231	N	0.428591	0.033787	0.331735
	N232	N	0.691927	0.410430	0.972983
	N233	N	0.690500	0.581313	0.048046
	N234	N	0.332433	0.583971	0.973412
	N235	N	0.335558	0.411526	0.047618
	N236	N	0.976114	0.674195	0.423930
	N237	N	0.050379	0.673426	0.595594
	N238	N	0.975209	0.316964	0.595442
	N239	N	0.049916	0.317174	0.424495
	N240	N	0.975372	0.409522	0.688368
	N241	N	0.049643	0.580462	0.688082
	N242	N	0.975517	0.580596	0.331505
	N243	N	0.049761	0.409138	0.331195
	N244	N	0.426216	0.675508	0.973340
	N245	N	0.597018	0.673322	0.048286
	N246	N	0.599352	0.317733	0.973150
	N247	N	0.428604	0.319340	0.047765
	N248	N	0.691583	0.959202	0.424261
	N249	N	0.692079	0.033315	0.595360
	N250	N	0.336379	0.958376	0.595005
	N251	N	0.334388	0.032820	0.423065
	N252	N	0.928185	0.458861	0.187094
	N253	N	0.099209	0.532044	0.188717
	N254	N	0.098089	0.458233	0.832222
	N255	N	0.926744	0.532967	0.831398
	N256	N	0.192434	0.908684	0.472384
	N257	N	0.191830	0.080617	0.546325
	N258	N	0.834651	0.081157	0.472093
	N259	N	0.835629	0.910076	0.546607
	N260	N	0.475385	0.175225	0.924249
	N261	N	0.550531	0.174038	0.095465
	N262	N	0.475581	0.818970	0.095543
	N263	N	0.550487	0.817976	0.925041
	N264	N	0.476566	0.909792	0.189336
	N265	N	0.551108	0.081053	0.187523
	N266	N	0.475556	0.083419	0.830020
	N267	N	0.551213	0.911785	0.832220
	N268	N	0.927535	0.173433	0.471989
	N269	N	0.098320	0.173000	0.546943
	N270	N	0.099686	0.816771	0.472168
	N271	N	0.929004	0.818240	0.546963
	N272	N	0.191859	0.458866	0.923845
	N273	N	0.190295	0.533230	0.095077
	N274	N	0.835403	0.459450	0.095401
	N275	N	0.833809	0.533049	0.923816
	O276	O	0.440233	0.523039	0.481559
	H277	H	0.444509	0.523859	0.477804
	H278	H	0.433413	0.533843	0.481627
	O279	O	-0.526734	0.522850	-0.508334
	H280	H	-0.528704	0.521763	-0.507207
	H281	H	-0.529828	0.520980	-0.512151
	O282	O	0.433384	0.520630	0.528776
	H283	H	0.429833	0.523125	0.524783
	H284	H	0.436566	0.529479	0.520108
	O285	O	0.496991	0.579038	0.525780
	H286	H	0.502048	0.589756	0.525748
	H287	H	0.502870	0.578892	0.531276
	O288	O	0.993435	0.089205	-0.026781
	H289	H	0.990183	0.099911	-0.039777
	H290	H	0.995198	0.087768	-0.028026
	O291	O	-0.994142	0.992105	-1.039609
	H292	H	-0.988366	0.986959	-1.032526
	H293	H	-0.994330	0.990034	-1.041487
	O294	O	0.498263	0.500435	0.541711
	H295	H	0.493347	0.500010	0.541860
	H296	H	0.495379	0.494533	0.538705
	O297	O	-0.003985	1.023282	-0.054548
	H298	H	-0.003157	1.013777	-0.051483
	H299	H	-0.005729	1.015095	-0.053843
	O300	O	1.019463	0.046945	0.959329
	H301	H	1.021651	0.059347	0.961426
	H302	H	1.019135	0.053833	0.952902
	O303	O	0.469194	0.552042	0.544543
	H304	H	0.462774	0.559010	0.544889
	H305	H	0.467251	0.548159	0.552262
	O306	O	0.019406	1.073767	0.922863
	H307	H	0.022743	1.074088	0.922265
	H308	H	0.013907	1.077089	0.919105
	O309	O	0.519765	0.565068	0.588877
	H310	H	0.522393	0.557143	0.598787
	H311	H	0.524337	0.553174	0.584327
