data_Molecule from HDF5

_cell_length_a		16.168979
_cell_length_b		16.147768
_cell_length_c		16.279659
_cell_angle_alpha	90.191463
_cell_angle_beta	90.804831
_cell_angle_gamma	90.026625
_symmetry_space_group_name_H-M	'P 1'
_symmetry_Int_Tables_number		1

loop_
	_symmetry_equiv_pos_as_xyz
	x,y,z

loop_
	_atom_site_label
	_atom_site_type_symbol
	_atom_site_fract_x
	_atom_site_fract_y
	_atom_site_fract_z
	H0	H	0.406256	0.840384	0.709821
	H1	H	0.605914	0.170097	0.713181
	H2	H	0.603522	0.840698	0.284065
	H3	H	0.405928	0.169683	0.281598
	H4	H	0.718547	0.403916	0.833662
	H5	H	0.723183	0.602869	0.161643
	H6	H	0.287796	0.601496	0.835772
	H7	H	0.295279	0.404144	0.163366
	H8	H	0.839836	0.716693	0.400417
	H9	H	0.169866	0.719628	0.599782
	H10	H	0.840375	0.292070	0.594412
	H11	H	0.170140	0.292234	0.403336
	H12	H	0.840603	0.409017	0.709034
	H13	H	0.169255	0.608090	0.717244
	H14	H	0.843429	0.608460	0.279012
	H15	H	0.170184	0.405014	0.287855
	H16	H	0.405376	0.715746	0.833081
	H17	H	0.609578	0.720739	0.160921
	H18	H	0.601405	0.290058	0.833229
	H19	H	0.412293	0.289186	0.161980
	H20	H	0.716409	0.839705	0.401278
	H21	H	0.720968	0.169697	0.598983
	H22	H	0.293881	0.840119	0.591389
	H23	H	0.290373	0.170541	0.397158
	H24	H	0.907827	0.340155	0.212359
	H25	H	0.108031	0.669000	0.215750
	H26	H	0.104468	0.341136	0.783959
	H27	H	0.903431	0.669696	0.783327
	H28	H	0.215372	0.906746	0.332631
	H29	H	0.224077	0.105057	0.660098
	H30	H	0.787714	0.103373	0.334374
	H31	H	0.794461	0.907628	0.662564
	H32	H	0.341194	0.216128	0.897361
	H33	H	0.671358	0.216197	0.097298
	H34	H	0.341084	0.790808	0.091791
	H35	H	0.671328	0.788729	0.899526
	H36	H	0.340892	0.905384	0.208134
	H37	H	0.669814	0.104395	0.215311
	H38	H	0.341931	0.103651	0.780730
	H39	H	0.670752	0.903673	0.783666
	H40	H	0.904083	0.219149	0.333285
	H41	H	0.106161	0.219473	0.661910
	H42	H	0.100942	0.789521	0.334746
	H43	H	0.910796	0.793561	0.662472
	H44	H	0.214643	0.338461	0.904677
	H45	H	0.222651	0.668511	0.100960
	H46	H	0.795779	0.338565	0.093616
	H47	H	0.789613	0.669032	0.899203
	H48	H	0.420783	0.124698	0.601897
	H49	H	0.593467	0.890942	0.583613
	H50	H	0.601026	0.123123	0.413840
	H51	H	0.399764	0.888011	0.416788
	H52	H	0.608444	0.408133	0.116708
	H53	H	0.606163	0.592453	0.879297
	H54	H	0.418471	0.607551	0.116700
	H55	H	0.402269	0.414170	0.880151
	H56	H	0.121691	0.596675	0.413511
	H57	H	0.884346	0.597572	0.601849
	H58	H	0.125928	0.407006	0.597268
	H59	H	0.886121	0.416117	0.399704
	H60	H	0.121738	0.413790	0.587436
	H61	H	0.886043	0.609172	0.586424
	H62	H	0.123727	0.594434	0.404195
	H63	H	0.886659	0.409048	0.404008
	H64	H	0.405835	0.594551	0.117380
	H65	H	0.591148	0.588924	0.884399
	H66	H	0.601157	0.415044	0.113155
	H67	H	0.415199	0.412976	0.884382
	H68	H	0.601554	0.126705	0.398175
	H69	H	0.609967	0.883894	0.589918
	H70	H	0.421817	0.118072	0.579286
	H71	H	0.402495	0.879471	0.385063
	H72	H	0.912353	0.620823	0.083522
	H73	H	0.099301	0.387889	0.088636
	H74	H	0.105214	0.625611	0.906060
	H75	H	0.919445	0.386972	0.896490
	H76	H	0.100478	0.904751	0.617829
	H77	H	0.102265	0.100956	0.377723
	H78	H	0.914334	0.099592	0.613969
	H79	H	0.912831	0.922473	0.384927
	H80	H	0.620995	0.089517	0.909349
	H81	H	0.382485	0.107109	0.096723
	H82	H	0.623749	0.910389	0.088643
	H83	H	0.386461	0.910584	0.895199
	H84	H	0.621882	0.916532	0.092292
	H85	H	0.390246	0.100066	0.077850
	H86	H	0.627479	0.096653	0.896503
	H87	H	0.388305	0.905146	0.904642
	H88	H	0.913365	0.099949	0.614992
	H89	H	0.095729	0.094391	0.382006
	H90	H	0.110321	0.916195	0.616369
	H91	H	0.917343	0.900726	0.380009
	H92	H	0.090807	0.623615	0.903257
	H93	H	0.107160	0.383856	0.097753
	H94	H	0.911905	0.625667	0.096262
	H95	H	0.914692	0.389548	0.910783
	H96	H	0.401708	0.126705	0.587610
	H97	H	0.595300	0.885186	0.600246
	H98	H	0.587823	0.120981	0.405203
	H99	H	0.429124	0.892157	0.401991
	H100	H	0.598326	0.404745	0.114832
	H101	H	0.593888	0.604382	0.880214
	H102	H	0.422073	0.590831	0.111690
	H103	H	0.409569	0.402711	0.879189
	H104	H	0.126186	0.603915	0.407022
	H105	H	0.891003	0.590760	0.585293
	H106	H	0.123507	0.418677	0.598441
	H107	H	0.889568	0.417035	0.407586
	H108	H	0.922920	0.619835	0.090153
	H109	H	0.094365	0.385665	0.099695
	H110	H	0.095682	0.620483	0.916486
	H111	H	0.904647	0.383465	0.899967
	H112	H	0.096032	0.918037	0.611759
	H113	H	0.092991	0.103554	0.380433
	H114	H	0.913706	0.098895	0.614276
	H115	H	0.897162	0.909084	0.377323
	H116	H	0.624962	0.104001	0.909849
	H117	H	0.389100	0.086376	0.094502
	H118	H	0.625072	0.911046	0.095156
	H119	H	0.390844	0.915507	0.904156
	C120	C	0.385638	0.013964	0.617125
	C121	C	0.628494	0.995848	0.620866
	C122	C	0.625580	0.014107	0.377604
	C123	C	0.382243	0.996221	0.373500
	C124	C	0.628696	0.381041	0.006351
	C125	C	0.627963	0.625146	0.989262
	C126	C	0.384470	0.626028	0.007038
	C127	C	0.383600	0.381494	0.990095
	C128	C	0.014924	0.627343	0.377815
	C129	C	0.996185	0.628200	0.621295
	C130	C	0.014320	0.384674	0.620412
	C131	C	0.996326	0.384727	0.377168
	C132	C	0.886877	0.512980	0.118308
	C133	C	0.129650	0.494893	0.123690
	C134	C	0.125343	0.513785	0.879859
	C135	C	0.882827	0.495572	0.874948
	C136	C	0.127714	0.883716	0.506576
	C137	C	0.127313	0.127644	0.488636
	C138	C	0.883189	0.127680	0.506178
	C139	C	0.883208	0.883469	0.489663
	C140	C	0.515334	0.125110	0.875830
	C141	C	0.496675	0.126089	0.119084
	C142	C	0.514519	0.883267	0.118461
	C143	C	0.498076	0.881852	0.874436
	C144	C	0.387300	0.889691	0.671567
	C145	C	0.626304	0.120342	0.675998
	C146	C	0.623485	0.889703	0.322318
	C147	C	0.385234	0.120554	0.319040
	C148	C	0.681630	0.383669	0.882670
	C149	C	0.684892	0.623279	0.112806
	C150	C	0.326581	0.622575	0.884368
	C151	C	0.331693	0.383864	0.113700
	C152	C	0.890027	0.680816	0.379555
	C153	C	0.120323	0.682837	0.620151
	C154	C	0.889845	0.329866	0.615464
	C155	C	0.120726	0.329527	0.381964
	C156	C	0.889928	0.387600	0.672662
	C157	C	0.119957	0.627111	0.678463
	C158	C	0.891680	0.626698	0.319326
	C159	C	0.120800	0.385993	0.324754
	C160	C	0.385419	0.679175	0.882974
	C161	C	0.628376	0.681925	0.112366
	C162	C	0.623426	0.326808	0.882339
	C163	C	0.389985	0.326777	0.113135
	C164	C	0.679685	0.889280	0.380571
	C165	C	0.683295	0.120260	0.618906
	C166	C	0.331134	0.889454	0.612820
	C167	C	0.327785	0.120863	0.376326
	C168	C	0.888609	0.389137	0.173850
	C169	C	0.127847	0.619571	0.178070
	C170	C	0.123566	0.390026	0.823214
	C171	C	0.883823	0.620106	0.820619
	C172	C	0.178958	0.886351	0.382191
	C173	C	0.185172	0.125280	0.611539
	C174	C	0.826273	0.124166	0.383077
	C175	C	0.831053	0.887014	0.613470
	C176	C	0.390757	0.179303	0.877188
	C177	C	0.621516	0.179688	0.117543
	C178	C	0.390543	0.827906	0.113571
	C179	C	0.621830	0.826232	0.878698
	C180	C	0.390292	0.885149	0.171207
	C181	C	0.620583	0.124610	0.176580
	C182	C	0.391099	0.123400	0.819254
	C183	C	0.621523	0.883305	0.820585
	C184	C	0.883942	0.182068	0.382646
	C185	C	0.126480	0.182003	0.612534
	C186	C	0.122212	0.827832	0.383318
	C187	C	0.888905	0.830179	0.613526
	C188	C	0.178442	0.388581	0.883072
	C189	C	0.185202	0.619114	0.121336
	C190	C	0.832995	0.388215	0.114602
	C191	C	0.826998	0.619722	0.878155
	C192	C	0.408092	0.100632	0.595808
	C193	C	0.606198	0.909036	0.598148
	C194	C	0.603441	0.101003	0.399302
	C195	C	0.403930	0.909073	0.395002
	C196	C	0.608623	0.402763	0.092518
	C197	C	0.604175	0.602185	0.903666
	C198	C	0.408472	0.604163	0.093156
	C199	C	0.403140	0.403570	0.903621
	C200	C	0.101459	0.604971	0.401402
	C201	C	0.909468	0.605820	0.598041
	C202	C	0.101162	0.406597	0.600240
	C203	C	0.909788	0.407494	0.397693
	C204	C	0.909211	0.599591	0.096460
	C205	C	0.107025	0.408110	0.101823
	C206	C	0.103572	0.600555	0.902106
	C207	C	0.905931	0.409103	0.896352
	C208	C	0.108097	0.906255	0.592960
	C209	C	0.103894	0.105988	0.402331
	C210	C	0.906865	0.105957	0.592158
	C211	C	0.903181	0.904535	0.403246
	C212	C	0.601997	0.103282	0.898651
	C213	C	0.409782	0.104262	0.096365
	C214	C	0.601288	0.905958	0.098081
	C215	C	0.411078	0.903958	0.895160
	Zn216	Zn	0.506446	0.004820	0.747146
	Zn217	Zn	0.505083	0.004803	0.247347
	Zn218	Zn	0.756955	0.503791	-0.002153
	Zn219	Zn	0.255039	0.503839	0.000086
	Zn220	Zn	0.005299	0.755273	0.499121
	Zn221	Zn	0.005424	0.256470	0.497671
	Zn222	Zn	0.005453	0.506235	0.748946
	Zn223	Zn	0.006493	0.505481	0.249567
	Zn224	Zn	0.506611	0.754269	-0.002570
	Zn225	Zn	0.506392	0.252881	-0.002723
	Zn226	Zn	0.754295	0.004912	0.498635
	Zn227	Zn	0.256465	0.005476	0.496086
	N228	N	0.420470	0.968138	0.674378
	N229	N	0.593146	0.041707	0.677414
	N230	N	0.590530	0.968283	0.320284
	N231	N	0.418339	0.042063	0.317220
	N232	N	0.685332	0.416472	0.960850
	N233	N	0.684913	0.588728	0.035340
	N234	N	0.325719	0.590269	0.962574
	N235	N	0.327631	0.417088	0.035999
	N236	N	0.967624	0.681382	0.415291
	N237	N	0.042334	0.683674	0.585325
	N238	N	0.968452	0.327611	0.583978
	N239	N	0.042452	0.328620	0.413986
	N240	N	0.968244	0.420940	0.675906
	N241	N	0.041636	0.593771	0.679284
	N242	N	0.970428	0.594181	0.318061
	N243	N	0.042501	0.419658	0.321671
	N244	N	0.420673	0.681292	0.960375
	N245	N	0.593784	0.683266	0.034693
	N246	N	0.591422	0.324954	0.960014
	N247	N	0.421541	0.325218	0.035120
	N248	N	0.680982	0.967538	0.414370
	N249	N	0.684951	0.041986	0.585392
	N250	N	0.330062	0.967761	0.579635
	N251	N	0.325846	0.042502	0.409390
	N252	N	0.921513	0.467739	0.176181
	N253	N	0.094245	0.541322	0.179854
	N254	N	0.091421	0.468931	0.821036
	N255	N	0.917909	0.542020	0.818424
	N256	N	0.182590	0.920333	0.459772
	N257	N	0.185891	0.092389	0.533329
	N258	N	0.825615	0.091155	0.460949
	N259	N	0.827220	0.919310	0.535464
	N260	N	0.468988	0.180735	0.911632
	N261	N	0.543500	0.180774	0.082495
	N262	N	0.468830	0.826751	0.081472
	N263	N	0.543669	0.825093	0.911155
	N264	N	0.468664	0.918717	0.174491
	N265	N	0.541973	0.092182	0.177756
	N266	N	0.469537	0.090610	0.818119
	N267	N	0.543445	0.917278	0.818013
	N268	N	0.918769	0.184284	0.460264
	N269	N	0.091451	0.183777	0.535226
	N270	N	0.091086	0.826130	0.461701
	N271	N	0.920399	0.827647	0.535566
	N272	N	0.179431	0.466445	0.917724
	N273	N	0.186714	0.540534	0.088279
	N274	N	0.831640	0.466209	0.080903
	N275	N	0.826482	0.541444	0.911472
	O276	O	-0.052409	0.077592	-0.104640
	H277	H	-0.058993	0.077313	-0.118898
	H278	H	-0.065705	0.069233	-0.108108
	O279	O	0.468242	0.493114	0.525471
	H280	H	0.480480	0.495386	0.527909
	H281	H	0.469403	0.495132	0.523035
	O282	O	0.439693	0.498437	0.436692
	H283	H	0.438147	0.498663	0.431421
	H284	H	0.430632	0.506887	0.436531
	O285	O	0.975871	-0.006400	1.028114
	H286	H	0.978609	-0.006180	1.032441
	H287	H	0.949975	-0.011767	1.029095
	O288	O	0.959147	0.009517	0.018968
	H289	H	0.961597	0.005056	0.017145
	H290	H	0.953669	0.012645	0.030988
	O291	O	0.549341	0.537787	0.439733
	H292	H	0.558947	0.544200	0.448552
	H293	H	0.560735	0.530951	0.429500
	O294	O	1.024806	0.072582	1.079774
	H295	H	1.025304	0.062052	1.076348
	H296	H	1.024654	0.083706	1.076380
	O297	O	-0.004296	0.007323	-0.061336
	H298	H	-0.002834	0.008245	-0.069626
	H299	H	0.004796	0.014273	-0.064374
	O300	O	0.516278	0.583153	0.460057
	H301	H	0.524631	0.588062	0.477539
	H302	H	0.514259	0.594784	0.458403
	O303	O	0.545565	0.599160	0.535460
	H304	H	0.539512	0.603594	0.539083
	H305	H	0.541784	0.582602	0.535193
	O306	O	1.037536	0.014791	0.063250
	H307	H	1.031542	0.007597	0.069921
	H308	H	1.043575	0.021017	0.059062
	O309	O	0.019425	0.005565	1.003426
	H310	H	0.022044	0.003286	1.002535
	H311	H	0.025372	-0.000190	1.001802
	O312	O	1.095166	1.003438	0.929261
	H313	H	1.099754	1.004386	0.924360
	H314	H	1.086208	0.998980	0.936421
	O315	O	0.461544	0.525625	0.515143
	H316	H	0.466571	0.525369	0.521482
	H317	H	0.462557	0.527927	0.518662
	O318	O	0.506939	0.442092	0.564795
	H319	H	0.496477	0.439572	0.562883
	H320	H	0.510501	0.432984	0.551398
	O321	O	-0.085319	0.937749	1.000749
	H322	H	-0.081649	0.945169	0.997404
	H323	H	-0.084581	0.941433	0.987447
	O324	O	0.522754	0.520819	0.454111
	H325	H	0.532536	0.520859	0.461231
	H326	H	0.527675	0.520963	0.448607
	O327	O	0.531328	0.402598	0.484062
	H328	H	0.532795	0.402609	0.472677
	H329	H	0.533274	0.401000	0.480643
	O330	O	0.499934	0.471372	0.506886
	H331	H	0.504306	0.472667	0.509158
	H332	H	0.496875	0.473305	0.508487
	O333	O	0.534674	0.448505	0.419065
	H334	H	0.527698	0.443079	0.416718
	H335	H	0.525193	0.460555	0.411627
	O336	O	0.586095	0.535199	0.520066
	H337	H	0.589491	0.529640	0.528244
	H338	H	0.587123	0.527592	0.522649
	O339	O	0.975081	1.022615	-0.017869
	H340	H	0.980074	1.024850	-0.003362
	H341	H	0.974883	1.037131	-0.014293
	O342	O	0.492224	0.396790	0.607366
	H343	H	0.489554	0.385745	0.597367
	H344	H	0.485399	0.384198	0.601267
	O345	O	0.483742	0.468047	0.494759
	H346	H	0.478421	0.474985	0.495965
	H347	H	0.488040	0.469276	0.508003
	O348	O	-0.094434	-0.016758	-0.013587
	H349	H	-0.101661	-0.010505	-0.012278
	H350	H	-0.089924	-0.000155	-0.023940
	O351	O	0.053805	0.970862	0.918878
	H352	H	0.055988	0.975044	0.926259
	H353	H	0.060069	0.967109	0.925320
	O354	O	0.364621	0.543775	0.398653
	H355	H	0.353599	0.557053	0.397335
	H356	H	0.362948	0.558604	0.399340
	O357	O	0.067107	1.026092	1.039967
	H358	H	0.074175	1.019970	1.039885
	H359	H	0.067889	1.029956	1.044790
