data_Molecule from HDF5

_cell_length_a		16.238743
_cell_length_b		16.154075
_cell_length_c		16.214643
_cell_angle_alpha	89.867483
_cell_angle_beta	90.141221
_cell_angle_gamma	89.931339
_symmetry_space_group_name_H-M	'P 1'
_symmetry_Int_Tables_number		1

loop_
	_symmetry_equiv_pos_as_xyz
	x,y,z

loop_
	_atom_site_label
	_atom_site_type_symbol
	_atom_site_fract_x
	_atom_site_fract_y
	_atom_site_fract_z
	H0	H	0.407879	0.834797	0.704129
	H1	H	0.605357	0.163882	0.705619
	H2	H	0.603916	0.833555	0.278930
	H3	H	0.407185	0.164126	0.275309
	H4	H	0.721943	0.399216	0.827400
	H5	H	0.722118	0.598419	0.155397
	H6	H	0.291612	0.598851	0.828618
	H7	H	0.292177	0.399078	0.155093
	H8	H	0.843211	0.715224	0.393263
	H9	H	0.172335	0.713031	0.589700
	H10	H	0.842377	0.285994	0.589675
	H11	H	0.171180	0.286271	0.393528
	H12	H	0.842261	0.402329	0.704936
	H13	H	0.170676	0.599205	0.707045
	H14	H	0.842869	0.600015	0.277064
	H15	H	0.170934	0.401119	0.277640
	H16	H	0.408487	0.711365	0.827023
	H17	H	0.604053	0.711554	0.156402
	H18	H	0.604345	0.286206	0.826147
	H19	H	0.409169	0.285609	0.155547
	H20	H	0.721553	0.835560	0.392672
	H21	H	0.720711	0.164342	0.591052
	H22	H	0.293553	0.835322	0.589015
	H23	H	0.293215	0.164487	0.390055
	H24	H	0.908079	0.335200	0.206877
	H25	H	0.105307	0.664759	0.204408
	H26	H	0.107072	0.335443	0.777696
	H27	H	0.908278	0.664871	0.778508
	H28	H	0.220456	0.901989	0.326062
	H29	H	0.223001	0.099465	0.655067
	H30	H	0.790166	0.100934	0.327621
	H31	H	0.792847	0.900730	0.655333
	H32	H	0.342311	0.215487	0.890426
	H33	H	0.670747	0.212031	0.088809
	H34	H	0.341357	0.786389	0.088258
	H35	H	0.670164	0.785528	0.893016
	H36	H	0.341909	0.900679	0.204749
	H37	H	0.669796	0.097710	0.205181
	H38	H	0.342176	0.099146	0.774813
	H39	H	0.670008	0.900288	0.777374
	H40	H	0.907467	0.215183	0.327556
	H41	H	0.104846	0.212380	0.656229
	H42	H	0.105330	0.786029	0.326687
	H43	H	0.909999	0.787288	0.655670
	H44	H	0.221035	0.334760	0.893579
	H45	H	0.221686	0.664009	0.091378
	H46	H	0.793553	0.334075	0.090827
	H47	H	0.791388	0.663580	0.891796
	H48	H	0.418253	0.118104	0.585420
	H49	H	0.600967	0.877763	0.594983
	H50	H	0.593272	0.116841	0.392928
	H51	H	0.401503	0.878058	0.396180
	H52	H	0.594581	0.403599	0.107125
	H53	H	0.599643	0.580457	0.877321
	H54	H	0.415140	0.601220	0.112238
	H55	H	0.415122	0.401296	0.872262
	H56	H	0.121747	0.588348	0.402162
	H57	H	0.886708	0.600292	0.589762
	H58	H	0.125279	0.401966	0.584131
	H59	H	0.888573	0.406720	0.394397
	H60	H	0.121663	0.410634	0.583370
	H61	H	0.892036	0.595575	0.577174
	H62	H	0.126781	0.591917	0.390039
	H63	H	0.890047	0.405179	0.402801
	H64	H	0.406005	0.589602	0.111157
	H65	H	0.589424	0.599144	0.874489
	H66	H	0.605745	0.401217	0.111416
	H67	H	0.406768	0.410481	0.872881
	H68	H	0.597864	0.115771	0.404363
	H69	H	0.591676	0.885166	0.580118
	H70	H	0.413975	0.116390	0.579437
	H71	H	0.419743	0.879600	0.387928
	H72	H	0.910598	0.619797	0.087845
	H73	H	0.103856	0.380476	0.086017
	H74	H	0.093774	0.615805	0.900179
	H75	H	0.914917	0.379306	0.890979
	H76	H	0.097238	0.902401	0.608189
	H77	H	0.093100	0.091923	0.376432
	H78	H	0.908496	0.094138	0.610890
	H79	H	0.910905	0.905498	0.371746
	H80	H	0.620465	0.089078	0.902322
	H81	H	0.388357	0.086547	0.088480
	H82	H	0.622926	0.903780	0.078905
	H83	H	0.391822	0.912043	0.904422
	H84	H	0.622914	0.910612	0.087862
	H85	H	0.386262	0.100185	0.085730
	H86	H	0.623821	0.089239	0.893034
	H87	H	0.387255	0.910399	0.886939
	H88	H	0.914402	0.087642	0.607471
	H89	H	0.101500	0.101977	0.370657
	H90	H	0.108747	0.905483	0.610520
	H91	H	0.911859	0.912588	0.374632
	H92	H	0.103515	0.617909	0.904571
	H93	H	0.096275	0.381624	0.087803
	H94	H	0.917783	0.616564	0.084923
	H95	H	0.920870	0.384896	0.901973
	H96	H	0.411131	0.119733	0.585856
	H97	H	0.608853	0.880292	0.578447
	H98	H	0.604340	0.119480	0.394668
	H99	H	0.416323	0.885610	0.407098
	H100	H	0.603192	0.412723	0.106980
	H101	H	0.610070	0.597233	0.870080
	H102	H	0.419186	0.587614	0.107810
	H103	H	0.418266	0.411957	0.876147
	H104	H	0.126026	0.600804	0.399754
	H105	H	0.890582	0.587156	0.588499
	H106	H	0.125630	0.407797	0.590767
	H107	H	0.890788	0.412207	0.399339
	H108	H	0.911244	0.616825	0.080481
	H109	H	0.098918	0.382918	0.080958
	H110	H	0.102134	0.619230	0.893283
	H111	H	0.908063	0.380886	0.903227
	H112	H	0.100440	0.913601	0.606109
	H113	H	0.106521	0.088666	0.373529
	H114	H	0.917459	0.096985	0.608958
	H115	H	0.918164	0.907149	0.374357
	H116	H	0.624121	0.096861	0.898525
	H117	H	0.391069	0.091478	0.076067
	H118	H	0.625746	0.900130	0.088621
	H119	H	0.385496	0.895350	0.898424
	C120	C	0.385929	0.008804	0.611680
	C121	C	0.628431	0.990484	0.613077
	C122	C	0.627613	0.008098	0.369596
	C123	C	0.384613	0.990521	0.368274
	C124	C	0.629160	0.377136	-0.000192
	C125	C	0.627986	0.620727	0.982898
	C126	C	0.384989	0.620845	0.001150
	C127	C	0.385069	0.378353	0.982142
	C128	C	0.015739	0.622631	0.369193
	C129	C	0.998408	0.622371	0.613653
	C130	C	0.015547	0.378249	0.614061
	C131	C	0.998550	0.379045	0.370313
	C132	C	0.885347	0.508593	0.113198
	C133	C	0.128308	0.490848	0.113333
	C134	C	0.128838	0.508670	0.870407
	C135	C	0.885632	0.490462	0.870084
	C136	C	0.129536	0.878670	0.499686
	C137	C	0.128958	0.122467	0.482443
	C138	C	0.884510	0.122223	0.500427
	C139	C	0.885650	0.879303	0.482437
	C140	C	0.514583	0.121658	0.868441
	C141	C	0.497217	0.120604	0.111866
	C142	C	0.514833	0.877177	0.112842
	C143	C	0.497267	0.877708	0.869068
	C144	C	0.388257	0.884067	0.666214
	C145	C	0.625591	0.114638	0.668116
	C146	C	0.624854	0.883653	0.315698
	C147	C	0.386802	0.114647	0.312730
	C148	C	0.683851	0.379628	0.876123
	C149	C	0.683301	0.618079	0.106672
	C150	C	0.329735	0.618634	0.877368
	C151	C	0.329968	0.379219	0.106260
	C152	C	0.892200	0.677475	0.372469
	C153	C	0.122581	0.676471	0.610981
	C154	C	0.891444	0.323639	0.610541
	C155	C	0.122038	0.323869	0.373153
	C156	C	0.891364	0.381370	0.667783
	C157	C	0.121950	0.619406	0.668851
	C158	C	0.892232	0.620426	0.314448
	C159	C	0.122060	0.381204	0.315768
	C160	C	0.387764	0.674850	0.876671
	C161	C	0.625152	0.674790	0.106898
	C162	C	0.625568	0.323012	0.875669
	C163	C	0.388343	0.323249	0.106470
	C164	C	0.683185	0.884450	0.372415
	C165	C	0.682990	0.115003	0.611021
	C166	C	0.331271	0.884254	0.608960
	C167	C	0.329967	0.114830	0.369767
	C168	C	0.887377	0.384384	0.169052
	C169	C	0.125482	0.615152	0.167403
	C170	C	0.126828	0.384802	0.815299
	C171	C	0.887633	0.615144	0.815531
	C172	C	0.183170	0.881356	0.375446
	C173	C	0.184862	0.119984	0.606022
	C174	C	0.828702	0.120684	0.376571
	C175	C	0.830752	0.880760	0.606353
	C176	C	0.391204	0.177419	0.870263
	C177	C	0.621438	0.174821	0.109191
	C178	C	0.390766	0.823199	0.109545
	C179	C	0.620843	0.822862	0.872530
	C180	C	0.390852	0.880136	0.167237
	C181	C	0.620905	0.118111	0.167348
	C182	C	0.391371	0.119679	0.812598
	C183	C	0.620984	0.880000	0.815097
	C184	C	0.886712	0.177653	0.376867
	C185	C	0.126368	0.176318	0.606610
	C186	C	0.125669	0.824105	0.375633
	C187	C	0.889155	0.824560	0.606673
	C188	C	0.183780	0.384368	0.872981
	C189	C	0.183698	0.614686	0.111239
	C190	C	0.830765	0.383895	0.111187
	C191	C	0.829633	0.614617	0.871723
	C192	C	0.407824	0.095558	0.589848
	C193	C	0.606946	0.903653	0.591094
	C194	C	0.605225	0.095063	0.391041
	C195	C	0.406242	0.903562	0.390489
	C196	C	0.607671	0.399159	0.086362
	C197	C	0.606296	0.598752	0.896347
	C198	C	0.407068	0.598982	0.087920
	C199	C	0.406775	0.401102	0.896051
	C200	C	0.102475	0.600270	0.390938
	C201	C	0.912097	0.600835	0.591711
	C202	C	0.101777	0.400229	0.592439
	C203	C	0.912106	0.401497	0.392431
	C204	C	0.906744	0.595266	0.090922
	C205	C	0.106165	0.403889	0.091352
	C206	C	0.106399	0.595262	0.892980
	C207	C	0.907909	0.404165	0.892307
	C208	C	0.108575	0.900631	0.585978
	C209	C	0.106927	0.100578	0.395954
	C210	C	0.906697	0.099521	0.586758
	C211	C	0.907146	0.901668	0.396059
	C212	C	0.600539	0.098742	0.891394
	C213	C	0.410962	0.099179	0.089865
	C214	C	0.601405	0.898570	0.091457
	C215	C	0.410563	0.899494	0.890313
	Zn216	Zn	0.506408	-0.001141	0.740418
	Zn217	Zn	0.506001	-0.001201	0.240811
	Zn218	Zn	0.757336	0.499069	-0.008698
	Zn219	Zn	0.256698	0.499193	-0.007456
	Zn220	Zn	0.007466	0.751175	0.491477
	Zn221	Zn	0.006958	0.250521	0.491774
	Zn222	Zn	0.006658	0.500059	0.742199
	Zn223	Zn	0.006657	0.499895	0.240992
	Zn224	Zn	0.505903	0.748966	-0.008901
	Zn225	Zn	0.505912	0.249771	-0.009240
	Zn226	Zn	0.756116	0.000208	0.491407
	Zn227	Zn	0.257810	0.000549	0.490445
	N228	N	0.421361	0.962394	0.668076
	N229	N	0.592316	0.036265	0.669424
	N230	N	0.590852	0.961661	0.313971
	N231	N	0.419901	0.036269	0.311519
	N232	N	0.686049	0.412618	0.954340
	N233	N	0.685431	0.585230	0.028426
	N234	N	0.327745	0.585708	0.955826
	N235	N	0.327916	0.412798	0.028252
	N236	N	0.970097	0.678904	0.405848
	N237	N	0.044919	0.678276	0.577036
	N238	N	0.969571	0.321703	0.577709
	N239	N	0.044155	0.322630	0.406421
	N240	N	0.969420	0.414460	0.670180
	N241	N	0.043873	0.586408	0.670663
	N242	N	0.970276	0.587081	0.312341
	N243	N	0.044215	0.414952	0.314022
	N244	N	0.421110	0.676400	0.954645
	N245	N	0.591512	0.676536	0.028868
	N246	N	0.592172	0.321417	0.953623
	N247	N	0.421795	0.322250	0.028327
	N248	N	0.684995	0.963064	0.405094
	N249	N	0.685061	0.036821	0.577638
	N250	N	0.329601	0.962798	0.575732
	N251	N	0.328374	0.036645	0.403692
	N252	N	0.920684	0.462732	0.170442
	N253	N	0.091696	0.537136	0.168613
	N254	N	0.093384	0.463186	0.813445
	N255	N	0.921582	0.537067	0.814222
	N256	N	0.185687	0.914729	0.453409
	N257	N	0.186469	0.086921	0.527846
	N258	N	0.827132	0.086912	0.454571
	N259	N	0.828311	0.913978	0.528145
	N260	N	0.468939	0.178816	0.904051
	N261	N	0.543559	0.176700	0.075482
	N262	N	0.468694	0.821297	0.076470
	N263	N	0.542698	0.821325	0.905435
	N264	N	0.469029	0.913152	0.169353
	N265	N	0.542863	0.085253	0.169349
	N266	N	0.469194	0.085699	0.811332
	N267	N	0.543167	0.913406	0.812894
	N268	N	0.920915	0.178476	0.454652
	N269	N	0.092474	0.178061	0.528841
	N270	N	0.093083	0.822210	0.453918
	N271	N	0.922656	0.823588	0.528822
	N272	N	0.185090	0.462465	0.906654
	N273	N	0.185408	0.536199	0.078259
	N274	N	0.829097	0.462046	0.077184
	N275	N	0.828198	0.536254	0.905164
	O276	O	0.944876	1.070313	-0.117356
	H277	H	0.943319	1.060801	-0.106302
	H278	H	0.931545	1.080712	-0.123330
	O279	O	0.070126	0.085593	1.033299
	H280	H	0.064059	0.079070	1.029285
	H281	H	0.076379	0.084528	1.029630
	O282	O	-0.072064	0.003151	-0.108607
	H283	H	-0.084404	0.010178	-0.115858
	H284	H	-0.074714	0.002325	-0.096376
	O285	O	0.539641	0.466351	0.470739
	H286	H	0.540562	0.464239	0.471985
	H287	H	0.538531	0.457510	0.468720
	O288	O	0.055781	0.062835	0.008299
	H289	H	0.053535	0.063362	0.010567
	H290	H	0.061122	0.056160	0.011677
	O291	O	-0.058924	1.001481	-0.004555
	H292	H	-0.059248	1.001544	0.007262
	H293	H	-0.057518	1.002240	0.000230
	O294	O	0.051703	0.981046	-0.015876
	H295	H	0.044045	0.976760	-0.030048
	H296	H	0.058580	0.984394	-0.017663
	O297	O	0.469005	0.525534	0.469717
	H298	H	0.464774	0.527559	0.474724
	H299	H	0.470428	0.527449	0.468387
	O300	O	0.542236	0.547033	0.589885
	H301	H	0.533821	0.536490	0.590620
	H302	H	0.546547	0.556868	0.591998
	O303	O	1.025539	0.037568	0.992450
	H304	H	1.031673	0.027915	0.992962
	H305	H	1.016197	0.035957	0.992013
	O306	O	0.000166	0.981837	0.925796
	H307	H	0.008793	0.989619	0.917572
	H308	H	-0.016927	0.975672	0.917394
	O309	O	0.009199	1.047603	0.947015
	H310	H	0.010558	1.047702	0.941180
	H311	H	0.013433	1.050085	0.954995
	O312	O	-0.017615	0.021044	1.103861
	H313	H	-0.016864	0.026899	1.118910
	H314	H	-0.010995	0.012662	1.102361
	O315	O	0.486462	0.472927	0.537088
	H316	H	0.493274	0.475364	0.527286
	H317	H	0.495357	0.465654	0.541250
	O318	O	-0.017967	-0.053647	1.041534
	H319	H	-0.014702	-0.050926	1.040706
	H320	H	-0.020705	-0.054101	1.043643
	O321	O	-0.515590	0.506510	0.460976
	H322	H	-0.521746	0.511805	0.450619
	H323	H	-0.513831	0.501203	0.465863
	O324	O	0.991289	0.031133	0.985103
	H325	H	1.003246	0.030414	0.982899
	H326	H	0.984348	0.032912	0.983901
	O327	O	0.966517	1.061471	1.029414
	H328	H	0.964053	1.063788	1.034633
	H329	H	0.972361	1.061997	1.029871
	O330	O	0.997196	-0.071726	1.004437
	H331	H	0.996012	-0.075582	0.989353
	H332	H	0.988007	-0.066935	1.007855
	O333	O	0.518125	0.464255	0.518097
	H334	H	0.519481	0.463593	0.517232
	H335	H	0.508809	0.464936	0.520054
	O336	O	0.517521	0.498690	0.486962
	H337	H	0.516992	0.498406	0.487563
	H338	H	0.514634	0.514391	0.485075
	O339	O	0.490391	0.512447	0.532353
	H340	H	0.479543	0.498246	0.539646
	H341	H	0.485987	0.510611	0.530183
	O342	O	0.495428	0.519041	0.498009
	H343	H	0.502156	0.524014	0.494070
	H344	H	0.503554	0.511780	0.505007
	O345	O	0.520903	0.424193	0.530952
	H346	H	0.519760	0.429654	0.534837
	H347	H	0.524708	0.412775	0.519091
