data_Molecule from HDF5

_cell_length_a		16.590123
_cell_length_b		16.603491
_cell_length_c		16.699179
_cell_angle_alpha	89.990174
_cell_angle_beta	90.042092
_cell_angle_gamma	89.945945
_symmetry_space_group_name_H-M	'P 1'
_symmetry_Int_Tables_number		1

loop_
	_symmetry_equiv_pos_as_xyz
	x,y,z

loop_
	_atom_site_label
	_atom_site_type_symbol
	_atom_site_fract_x
	_atom_site_fract_y
	_atom_site_fract_z
	H0	H	0.385832	0.858750	0.724503
	H1	H	0.603811	0.165221	0.724749
	H2	H	0.600727	0.857441	0.277925
	H3	H	0.389766	0.167664	0.279946
	H4	H	0.716953	0.405932	0.845044
	H5	H	0.719339	0.618719	0.153589
	H6	H	0.275641	0.614463	0.844090
	H7	H	0.276516	0.408303	0.156202
	H8	H	0.841455	0.734422	0.392118
	H9	H	0.152853	0.727163	0.600423
	H10	H	0.840647	0.287387	0.607327
	H11	H	0.149599	0.286162	0.393733
	H12	H	0.840279	0.403251	0.723258
	H13	H	0.152967	0.611913	0.716992
	H14	H	0.842572	0.619024	0.274995
	H15	H	0.149247	0.401038	0.276252
	H16	H	0.389294	0.732958	0.845808
	H17	H	0.601881	0.734023	0.154815
	H18	H	0.602122	0.288269	0.845855
	H19	H	0.393120	0.291714	0.156837
	H20	H	0.716588	0.856456	0.395578
	H21	H	0.718165	0.165463	0.606837
	H22	H	0.273558	0.856375	0.604719
	H23	H	0.273831	0.166881	0.396097
	H24	H	0.888245	0.356889	0.224262
	H25	H	0.103630	0.663864	0.223730
	H26	H	0.099445	0.354170	0.780532
	H27	H	0.892138	0.667457	0.780846
	H28	H	0.214745	0.907411	0.344746
	H29	H	0.218369	0.117190	0.653764
	H30	H	0.770802	0.119159	0.346547
	H31	H	0.772196	0.904557	0.653835
	H32	H	0.339956	0.230795	0.898328
	H33	H	0.651583	0.233351	0.107477
	H34	H	0.339854	0.790600	0.106168
	H35	H	0.649627	0.787834	0.892829
	H36	H	0.340107	0.906702	0.221805
	H37	H	0.649887	0.119911	0.225397
	H38	H	0.339209	0.114874	0.781542
	H39	H	0.649056	0.903936	0.777533
	H40	H	0.886561	0.236005	0.347887
	H41	H	0.102789	0.234857	0.653593
	H42	H	0.099304	0.790699	0.345133
	H43	H	0.890906	0.789952	0.655036
	H44	H	0.214418	0.354813	0.897745
	H45	H	0.216081	0.665611	0.105159
	H46	H	0.772876	0.356160	0.107664
	H47	H	0.776771	0.667265	0.897442
	H48	H	0.408336	0.124207	0.594214
	H49	H	0.581799	0.900360	0.590029
	H50	H	0.577945	0.123182	0.407884
	H51	H	0.404064	0.897528	0.406728
	H52	H	0.591812	0.425614	0.112093
	H53	H	0.585521	0.594265	0.891788
	H54	H	0.412910	0.603284	0.110341
	H55	H	0.402736	0.415172	0.886453
	H56	H	0.105804	0.603892	0.418612
	H57	H	0.881631	0.608104	0.586655
	H58	H	0.110601	0.417265	0.595932
	H59	H	0.882160	0.418315	0.410371
	H60	H	0.104333	0.419097	0.581388
	H61	H	0.885401	0.593699	0.588129
	H62	H	0.104975	0.590160	0.411619
	H63	H	0.888388	0.425768	0.421371
	H64	H	0.399796	0.605845	0.114865
	H65	H	0.578599	0.601047	0.891078
	H66	H	0.579449	0.425805	0.108001
	H67	H	0.402387	0.425981	0.890187
	H68	H	0.581604	0.120810	0.417518
	H69	H	0.579220	0.901606	0.587899
	H70	H	0.410280	0.120848	0.585810
	H71	H	0.409383	0.900100	0.408779
	H72	H	0.910593	0.618762	0.085299
	H73	H	0.086598	0.396967	0.091333
	H74	H	0.088238	0.625095	0.906186
	H75	H	0.908454	0.399130	0.910824
	H76	H	0.086254	0.919340	0.612324
	H77	H	0.082529	0.097911	0.389816
	H78	H	0.908869	0.098142	0.610074
	H79	H	0.903264	0.926395	0.389187
	H80	H	0.607756	0.100360	0.913637
	H81	H	0.384090	0.103532	0.087298
	H82	H	0.607662	0.923349	0.089375
	H83	H	0.382899	0.920384	0.914360
	H84	H	0.606188	0.922465	0.088332
	H85	H	0.385920	0.097831	0.088649
	H86	H	0.607420	0.096844	0.911327
	H87	H	0.384711	0.926013	0.912238
	H88	H	0.906151	0.098487	0.610434
	H89	H	0.082370	0.099252	0.390069
	H90	H	0.085686	0.921076	0.612045
	H91	H	0.910037	0.922376	0.390352
	H92	H	0.083388	0.622941	0.906959
	H93	H	0.080772	0.399053	0.089873
	H94	H	0.908159	0.621492	0.087512
	H95	H	0.906524	0.398846	0.912556
	H96	H	0.401838	0.124849	0.587745
	H97	H	0.582189	0.900735	0.586525
	H98	H	0.587620	0.126000	0.410442
	H99	H	0.404055	0.900371	0.412735
	H100	H	0.584733	0.415145	0.113360
	H101	H	0.587234	0.602893	0.887937
	H102	H	0.403277	0.593465	0.108938
	H103	H	0.411817	0.420035	0.891368
	H104	H	0.110852	0.602151	0.405019
	H105	H	0.879386	0.601378	0.599967
	H106	H	0.104576	0.431781	0.591539
	H107	H	0.886272	0.432223	0.408623
	H108	H	0.911859	0.620784	0.088892
	H109	H	0.086025	0.399627	0.085732
	H110	H	0.086764	0.623197	0.910663
	H111	H	0.906200	0.398409	0.910125
	H112	H	0.084468	0.919874	0.612226
	H113	H	0.083091	0.098583	0.389752
	H114	H	0.907400	0.095936	0.609361
	H115	H	0.903935	0.918670	0.387008
	H116	H	0.608783	0.100710	0.909862
	H117	H	0.382810	0.101380	0.092909
	H118	H	0.606826	0.924248	0.088580
	H119	H	0.381999	0.921976	0.908439
	C120	C	0.373957	0.020573	0.621394
	C121	C	0.614989	1.003151	0.621182
	C122	C	0.615518	0.020646	0.379306
	C123	C	0.373864	1.002879	0.378427
	C124	C	0.617476	0.389501	0.008544
	C125	C	0.616816	0.632640	0.991962
	C126	C	0.373483	0.632766	0.008882
	C127	C	0.374426	0.389274	0.992235
	C128	C	0.004488	0.631864	0.378570
	C129	C	0.986347	0.631654	0.621650
	C130	C	0.003977	0.389450	0.622308
	C131	C	0.987395	0.390288	0.379807
	C132	C	0.875956	0.518795	0.121110
	C133	C	0.116744	0.501289	0.121403
	C134	C	0.117104	0.519701	0.878021
	C135	C	0.875300	0.502211	0.879375
	C136	C	0.116976	0.889113	0.509232
	C137	C	0.116107	0.131910	0.491702
	C138	C	0.873380	0.132265	0.509048
	C139	C	0.873260	0.889311	0.490942
	C140	C	0.504496	0.131653	0.880307
	C141	C	0.487284	0.133456	0.122537
	C142	C	0.504057	0.891103	0.121293
	C143	C	0.485616	0.889379	0.878493
	C144	C	0.369251	0.904511	0.683185
	C145	C	0.620259	0.118964	0.683259
	C146	C	0.618641	0.903431	0.318920
	C147	C	0.371617	0.120735	0.319761
	C148	C	0.676984	0.387585	0.891769
	C149	C	0.678257	0.636068	0.107758
	C150	C	0.314710	0.633671	0.891589
	C151	C	0.315951	0.389030	0.109536
	C152	C	0.888000	0.693463	0.374514
	C153	C	0.105177	0.688964	0.620532
	C154	C	0.887196	0.328070	0.625320
	C155	C	0.103326	0.327491	0.375888
	C156	C	0.887024	0.385798	0.682916
	C157	C	0.105342	0.631408	0.678290
	C158	C	0.888529	0.636333	0.316286
	C159	C	0.103218	0.384299	0.317448
	C160	C	0.371416	0.692528	0.892138
	C161	C	0.619787	0.693301	0.108199
	C162	C	0.619861	0.328950	0.892251
	C163	C	0.374242	0.331547	0.109919
	C164	C	0.675920	0.903105	0.377244
	C165	C	0.677252	0.119230	0.624733
	C166	C	0.313416	0.903414	0.623764
	C167	C	0.314055	0.120518	0.377528
	C168	C	0.871014	0.403070	0.183168
	C169	C	0.120422	0.617875	0.182435
	C170	C	0.117984	0.401401	0.820259
	C171	C	0.873643	0.620232	0.820551
	C172	C	0.175678	0.888393	0.391815
	C173	C	0.177836	0.135323	0.607586
	C174	C	0.811428	0.136795	0.393359
	C175	C	0.812750	0.886626	0.607655
	C176	C	0.386504	0.191190	0.879172
	C177	C	0.604634	0.193606	0.125540
	C178	C	0.386814	0.830672	0.124157
	C179	C	0.602391	0.827848	0.874847
	C180	C	0.386977	0.888353	0.181609
	C181	C	0.603645	0.137257	0.184309
	C182	C	0.386442	0.133492	0.821423
	C183	C	0.602291	0.885839	0.817612
	C184	C	0.869017	0.194835	0.393669
	C185	C	0.120237	0.193384	0.607709
	C186	C	0.117922	0.830552	0.391765
	C187	C	0.871477	0.829434	0.608063
	C188	C	0.175109	0.401466	0.878387
	C189	C	0.176708	0.618508	0.123641
	C190	C	0.813910	0.402662	0.124948
	C191	C	0.816259	0.620211	0.878533
	C192	C	0.399478	0.102181	0.596168
	C193	C	0.588512	0.921987	0.595231
	C194	C	0.589729	0.102044	0.404633
	C195	C	0.398666	0.920731	0.402516
	C196	C	0.592455	0.414817	0.090019
	C197	C	0.590947	0.606719	0.911125
	C198	C	0.398294	0.608112	0.090428
	C199	C	0.398961	0.413417	0.910475
	C200	C	0.085982	0.606067	0.404354
	C201	C	0.903549	0.607765	0.598244
	C202	C	0.085324	0.415338	0.596758
	C203	C	0.906606	0.417600	0.406157
	C204	C	0.902524	0.599550	0.094625
	C205	C	0.091540	0.419566	0.096340
	C206	C	0.093032	0.602092	0.901307
	C207	C	0.899978	0.420308	0.904031
	C208	C	0.092286	0.913200	0.591027
	C209	C	0.089873	0.105994	0.411078
	C210	C	0.900098	0.105167	0.589164
	C211	C	0.898581	0.914930	0.410090
	C212	C	0.586575	0.106584	0.904748
	C213	C	0.405630	0.107993	0.096854
	C214	C	0.585629	0.916389	0.096100
	C215	C	0.404368	0.915245	0.904227
	Zn216	Zn	0.494877	0.011513	0.750678
	Zn217	Zn	0.495147	0.011959	0.250197
	Zn218	Zn	0.746183	0.510921	0.000331
	Zn219	Zn	0.245149	0.510618	0.000004
	Zn220	Zn	-0.004948	0.760226	0.499861
	Zn221	Zn	-0.004853	0.261398	0.500393
	Zn222	Zn	-0.004279	0.510481	0.750202
	Zn223	Zn	-0.003686	0.510245	0.250361
	Zn224	Zn	0.495185	0.761918	0.000778
	Zn225	Zn	0.496364	0.260571	0.001102
	Zn226	Zn	0.744172	0.011210	0.500461
	Zn227	Zn	0.245585	0.011422	0.499815
	N228	N	0.406363	0.978255	0.681723
	N229	N	0.582159	0.045646	0.681153
	N230	N	0.582004	0.977580	0.319916
	N231	N	0.407834	0.046436	0.319901
	N232	N	0.675736	0.424585	0.965232
	N233	N	0.676493	0.598735	0.034476
	N234	N	0.315630	0.597366	0.965397
	N235	N	0.315824	0.424090	0.035203
	N236	N	0.961184	0.690774	0.412656
	N237	N	0.029897	0.689504	0.586234
	N238	N	0.960947	0.330143	0.588352
	N239	N	0.030198	0.331113	0.413904
	N240	N	0.960766	0.423099	0.681415
	N241	N	0.030247	0.596692	0.679458
	N242	N	0.962208	0.598708	0.318652
	N243	N	0.029904	0.422685	0.319626
	N244	N	0.407346	0.692157	0.966169
	N245	N	0.582204	0.691294	0.035153
	N246	N	0.583706	0.330052	0.966125
	N247	N	0.409777	0.331337	0.035767
	N248	N	0.674325	0.977033	0.413813
	N249	N	0.673832	0.046165	0.586595
	N250	N	0.316069	0.976734	0.585905
	N251	N	0.315081	0.046050	0.413101
	N252	N	0.908755	0.476443	0.180998
	N253	N	0.084002	0.543794	0.181289
	N254	N	0.082941	0.476044	0.819583
	N255	N	0.909495	0.545720	0.820720
	N256	N	0.175486	0.923999	0.465989
	N257	N	0.175371	0.097821	0.534409
	N258	N	0.813712	0.098669	0.466145
	N259	N	0.813505	0.922967	0.533822
	N260	N	0.461154	0.190435	0.914819
	N261	N	0.531011	0.191483	0.088023
	N262	N	0.460606	0.832262	0.087107
	N263	N	0.528696	0.829784	0.911934
	N264	N	0.460786	0.925403	0.180049
	N265	N	0.529479	0.100594	0.182629
	N266	N	0.460877	0.097445	0.821736
	N267	N	0.528643	0.923254	0.819335
	N268	N	0.906941	0.192228	0.466730
	N269	N	0.082589	0.191448	0.534641
	N270	N	0.082160	0.830670	0.465818
	N271	N	0.908247	0.830652	0.534449
	N272	N	0.175011	0.476193	0.913367
	N273	N	0.174509	0.545050	0.086135
	N274	N	0.816645	0.475751	0.086936
	N275	N	0.816815	0.545711	0.914161
	O276	O	0.212439	1.014232	0.177627
	H277	H	0.226427	1.019081	0.175179
	H278	H	0.215108	1.032323	0.187629
	O279	O	0.286840	0.299865	0.707659
	H280	H	0.323666	0.291387	0.699409
	H281	H	0.256094	0.265718	0.739587
	O282	O	0.785190	0.221917	0.785889
	H283	H	0.771745	0.222503	0.792006
	H284	H	0.773385	0.214537	0.769180
	O285	O	0.721454	0.541802	0.723683
	H286	H	0.751762	0.551744	0.751636
	H287	H	0.716304	0.582568	0.721177
	O288	O	0.276997	0.530789	0.283225
	H289	H	0.265629	0.548556	0.266309
	H290	H	0.273564	0.555426	0.281719
	O291	O	0.275434	0.734447	0.463476
	H292	H	0.271136	0.750423	0.457490
	H293	H	0.261211	0.739262	0.442118
	O294	O	0.768991	0.004131	1.147911
	H295	H	0.747374	0.010471	1.175494
	H296	H	0.774951	-0.028218	1.153756
	O297	O	0.185085	0.819109	0.192076
	H298	H	0.171045	0.842454	0.172120
	H299	H	0.159939	0.827673	0.173814
	O300	O	0.460962	0.287135	0.720754
	H301	H	0.457774	0.275938	0.739442
	H302	H	0.473719	0.305063	0.734394
	O303	O	0.459185	0.729243	0.283643
	H304	H	0.469758	0.729112	0.287552
	H305	H	0.458943	0.742802	0.270977
	O306	O	0.506929	0.516053	0.263256
	H307	H	0.505498	0.512807	0.270579
	H308	H	0.497199	0.515285	0.252105
	O309	O	0.351793	0.636601	0.531400
	H310	H	0.347392	0.639025	0.533514
	H311	H	0.344698	0.619912	0.517012
	O312	O	0.428636	0.595708	0.441177
	H313	H	0.433330	0.592249	0.455130
	H314	H	0.412450	0.602714	0.433884
	O315	O	0.989889	1.220945	1.139990
	H316	H	0.975380	1.225155	1.125548
	H317	H	0.990851	1.223432	1.127752
	O318	O	0.278916	0.297107	0.527471
	H319	H	0.274752	0.295014	0.536402
	H320	H	0.269184	0.286023	0.542021
	O321	O	0.524333	0.549907	0.376947
	H322	H	0.503293	0.556659	0.375577
	H323	H	0.534277	0.534581	0.366577
	O324	O	1.417215	1.514604	-0.681019
	H325	H	1.400331	1.526350	-0.683496
	H326	H	1.424574	1.506711	-0.676527
	O327	O	0.112495	0.023352	0.807865
	H328	H	0.120625	0.012845	0.799103
	H329	H	0.109147	0.015394	0.811378
	O330	O	1.188329	0.200125	0.807158
	H331	H	1.170049	0.184365	0.830190
	H332	H	1.170025	0.179734	0.821560
	O333	O	0.811218	0.197505	0.191835
	H334	H	0.818118	0.211618	0.182887
	H335	H	0.810437	0.195549	0.200843
	O336	O	0.270186	0.506319	0.484665
	H337	H	0.270805	0.481167	0.475278
	H338	H	0.269660	0.525510	0.472939
	O339	O	1.050759	-0.017592	0.868780
	H340	H	1.054880	-0.014011	0.858848
	H341	H	1.048008	-0.010894	0.870631
	O342	O	0.243841	-0.237957	-0.249453
	H343	H	0.267930	-0.264203	-0.273652
	H344	H	0.246018	-0.228016	-0.254608
	O345	O	-0.071824	1.059539	1.235040
	H346	H	-0.083991	1.067917	1.241195
	H347	H	-0.068692	1.055729	1.231139
	O348	O	-0.170657	0.067290	-0.108550
	H349	H	-0.180974	0.063246	-0.104742
	H350	H	-0.166937	0.051738	-0.108370
	O351	O	0.990106	0.233002	0.818265
	H352	H	0.980673	0.229780	0.812429
	H353	H	0.967384	0.248181	0.799493
	O354	O	0.032671	-0.211139	0.775308
	H355	H	0.021169	-0.213587	0.769282
	H356	H	0.042491	-0.219651	0.762140
	O357	O	0.366453	0.485691	0.586988
	H358	H	0.354834	0.485963	0.586652
	H359	H	0.360268	0.474484	0.587541
	O360	O	0.448744	0.353183	0.487829
	H361	H	0.441480	0.350533	0.492014
	H362	H	0.455663	0.352454	0.489473
	O363	O	0.051711	-0.039861	0.232740
	H364	H	0.050225	-0.025367	0.234241
	H365	H	0.067659	-0.037625	0.231202
	O366	O	0.522068	0.297567	0.280837
	H367	H	0.530234	0.287821	0.279627
	H368	H	0.528572	0.286733	0.272232
	O369	O	1.260556	0.273270	0.244473
	H370	H	1.289358	0.296569	0.266280
	H371	H	1.257845	0.285690	0.234005
	O372	O	0.547173	0.278497	0.556931
	H373	H	0.536940	0.284596	0.558083
	H374	H	0.540980	0.271925	0.569990
	O375	O	0.861168	-0.125957	0.041440
	H376	H	0.874259	-0.118735	0.069309
	H377	H	0.848793	-0.146813	0.055459
	O378	O	1.145512	-0.034610	0.020762
	H379	H	1.143196	-0.031062	0.035437
	H380	H	1.156488	-0.043562	0.020015
	O381	O	0.192153	1.159894	1.213829
	H382	H	0.216109	1.194043	1.227437
	H383	H	0.174296	1.158976	1.218509
	O384	O	1.065905	0.022883	1.021355
	H385	H	1.079525	0.026864	1.017105
	H386	H	1.070311	0.024166	1.024949
	O387	O	0.963444	1.235292	0.020748
	H388	H	0.959187	1.239819	0.008459
	H389	H	0.958626	1.229580	0.008932
	O390	O	0.485429	0.693878	0.571300
	H391	H	0.479160	0.691384	0.570883
	H392	H	0.483177	0.690640	0.584635
	O393	O	0.374907	0.310859	0.378649
	H394	H	0.388009	0.313014	0.380768
	H395	H	0.385820	0.321467	0.396360
	O396	O	0.109807	0.977665	0.903331
	H397	H	0.098017	0.965836	0.907105
	H398	H	0.112053	0.968027	0.918031
	O399	O	0.138037	0.073130	0.944791
	H400	H	0.136590	0.057757	0.946559
	H401	H	0.140914	0.083963	0.941192
	O402	O	0.695964	0.528005	0.452849
	H403	H	0.693176	0.520528	0.464017
	H404	H	0.706236	0.549887	0.464554
	O405	O	0.983429	-0.206692	1.171771
	H406	H	0.984943	-0.200552	1.182007
	H407	H	0.978583	-0.208328	1.168959
	O408	O	-0.058756	-0.058204	-0.229717
	H409	H	-0.040511	-0.033989	-0.225315
	H410	H	-0.060859	-0.062506	-0.229772
	O411	O	0.711104	0.719212	0.712027
	H412	H	0.740417	0.754561	0.743272
	H413	H	0.671305	0.725843	0.702847
	O414	O	0.719775	0.702912	0.520905
	H415	H	0.706260	0.702371	0.552999
	H416	H	0.747356	0.737461	0.528042
	O417	O	0.542191	0.618133	0.679875
	H418	H	0.517367	0.608726	0.667910
	H419	H	0.551475	0.607177	0.661894
	O420	O	0.534458	0.698090	0.480195
	H421	H	0.529039	0.707605	0.494139
	H422	H	0.542802	0.687644	0.488281
	O423	O	-0.071851	-0.190312	0.947704
	H424	H	-0.076350	-0.184166	0.956919
	H425	H	-0.067699	-0.195874	0.945210
	O426	O	0.713777	0.296286	0.474321
	H427	H	0.700180	0.299986	0.487558
	H428	H	0.738542	0.284094	0.475171
	O429	O	0.772748	0.918322	0.966381
	H430	H	0.772763	0.915559	0.974147
	H431	H	0.762881	0.916041	0.985902
	O432	O	0.283515	0.716344	0.292081
	H433	H	0.315612	0.717523	0.299929
	H434	H	0.253330	0.750114	0.260147
	O435	O	-0.015970	1.047670	0.045554
	H436	H	-0.031229	1.051960	0.052111
	H437	H	-0.016731	1.057650	0.044553
	O438	O	-0.118736	0.076771	-0.098903
	H439	H	-0.136097	0.080224	-0.093434
	H440	H	-0.130410	0.080249	-0.107558
	O441	O	-0.221066	0.043098	0.013327
	H442	H	-0.225391	0.042446	0.041138
	H443	H	-0.216679	0.068157	0.031355
	O444	O	0.700910	0.306936	0.294947
	H445	H	0.710260	0.312691	0.311834
	H446	H	0.679483	0.313695	0.310741
	O447	O	0.201669	0.870087	0.818763
	H448	H	0.178704	0.866567	0.817709
	H449	H	0.216327	0.861211	0.806119
	O450	O	-0.194424	0.824923	0.808469
	H451	H	-0.187665	0.847214	0.835434
	H452	H	-0.170191	0.843361	0.819585
	O453	O	0.536763	0.536768	0.502496
	H454	H	0.540946	0.538303	0.504107
	H455	H	0.533316	0.529816	0.489193
	O456	O	-0.060792	-0.148551	1.077226
	H457	H	-0.051941	-0.130963	1.079415
	H458	H	-0.051137	-0.161807	1.071048
	O459	O	0.669552	0.328435	0.680515
	H460	H	0.646361	0.329991	0.668114
	H461	H	0.663203	0.355420	0.667093
	O462	O	0.332995	0.506852	0.734040
	H463	H	0.307313	0.501413	0.751388
	H464	H	0.325560	0.478612	0.725082
	O465	O	0.685114	-0.302026	0.309689
	H466	H	0.662115	-0.311020	0.325747
	H467	H	0.669998	-0.326249	0.328297
	O468	O	0.710928	0.464756	0.555504
	H469	H	0.715091	0.476381	0.564407
	H470	H	0.711182	0.465772	0.562027
	O471	O	0.524082	0.731625	0.718570
	H472	H	0.520353	0.720135	0.735136
	H473	H	0.519207	0.737204	0.738332
	O474	O	0.334219	0.630641	0.671982
	H475	H	0.325752	0.606020	0.665686
	H476	H	0.348512	0.622880	0.654023
	O477	O	0.582766	0.460263	1.491167
	H478	H	0.577373	0.464741	1.496980
	H479	H	0.586689	0.465750	1.485549
	O480	O	0.206635	0.223051	0.018359
	H481	H	0.204216	0.242059	0.021314
	H482	H	0.205266	0.215098	0.038383
	O483	O	0.522523	0.433831	0.718215
	H484	H	0.528151	0.443595	0.703191
	H485	H	0.528355	0.442995	0.719191
	O486	O	1.003735	0.155450	1.002525
	H487	H	1.002544	0.161760	0.988670
	H488	H	1.010661	0.144701	1.007551
	O489	O	1.224270	0.829040	-0.012757
	H490	H	1.235346	0.818261	-0.016970
	H491	H	1.232188	0.823986	-0.040269
	O492	O	-0.224928	0.229757	-0.023867
	H493	H	-0.228637	0.238710	-0.035212
	H494	H	-0.234926	0.230505	-0.026867
	O495	O	-0.030304	0.857641	1.095012
	H496	H	-0.020182	0.856230	1.081246
	H497	H	-0.042499	0.849766	1.096967
	O498	O	0.779580	0.853651	1.197298
	H499	H	0.819319	0.851578	1.198641
	H500	H	0.757874	0.815789	1.226304
	O501	O	0.710037	0.477123	0.284870
	H502	H	0.723227	0.484489	0.284618
	H503	H	0.717714	0.470033	0.280190
