data_Molecule from HDF5

_cell_length_a		16.700640
_cell_length_b		16.681420
_cell_length_c		16.524005
_cell_angle_alpha	89.882579
_cell_angle_beta	89.982339
_cell_angle_gamma	89.939754
_symmetry_space_group_name_H-M	'P 1'
_symmetry_Int_Tables_number		1

loop_
	_symmetry_equiv_pos_as_xyz
	x,y,z

loop_
	_atom_site_label
	_atom_site_type_symbol
	_atom_site_fract_x
	_atom_site_fract_y
	_atom_site_fract_z
	H0	H	0.393376	0.849270	0.717322
	H1	H	0.595463	0.164049	0.718676
	H2	H	0.599818	0.852984	0.278279
	H3	H	0.389755	0.164080	0.278878
	H4	H	0.713576	0.402421	0.842256
	H5	H	0.718078	0.613404	0.153662
	H6	H	0.269290	0.614926	0.847256
	H7	H	0.269420	0.397853	0.154186
	H8	H	0.840570	0.733709	0.390786
	H9	H	0.146379	0.731703	0.609485
	H10	H	0.839236	0.284705	0.607633
	H11	H	0.147673	0.285106	0.394118
	H12	H	0.837278	0.405339	0.720010
	H13	H	0.146878	0.612448	0.723599
	H14	H	0.840659	0.617755	0.275336
	H15	H	0.146890	0.402118	0.278978
	H16	H	0.387222	0.728047	0.845373
	H17	H	0.604776	0.731544	0.152403
	H18	H	0.597440	0.287528	0.842249
	H19	H	0.387138	0.283310	0.154919
	H20	H	0.716822	0.853549	0.393323
	H21	H	0.713987	0.162782	0.605054
	H22	H	0.276189	0.849976	0.601532
	H23	H	0.273137	0.164091	0.395124
	H24	H	0.885931	0.354176	0.224890
	H25	H	0.100811	0.660230	0.224391
	H26	H	0.099839	0.353892	0.777063
	H27	H	0.889409	0.663466	0.779753
	H28	H	0.214248	0.902349	0.343469
	H29	H	0.212829	0.108831	0.658639
	H30	H	0.774364	0.112163	0.343837
	H31	H	0.775587	0.905408	0.658081
	H32	H	0.337424	0.227124	0.895957
	H33	H	0.647998	0.228135	0.103401
	H34	H	0.341268	0.781718	0.108567
	H35	H	0.649619	0.788108	0.897481
	H36	H	0.339297	0.900704	0.222632
	H37	H	0.649304	0.110271	0.218922
	H38	H	0.335837	0.107058	0.783960
	H39	H	0.650732	0.907381	0.783509
	H40	H	0.891501	0.225902	0.343585
	H41	H	0.097221	0.225487	0.658038
	H42	H	0.099239	0.786411	0.344917
	H43	H	0.891264	0.789492	0.658347
	H44	H	0.218428	0.355086	0.890326
	H45	H	0.217918	0.660250	0.108985
	H46	H	0.771071	0.353395	0.106507
	H47	H	0.769228	0.660950	0.892157
	H48	H	0.400429	0.121007	0.593520
	H49	H	0.584816	0.896105	0.588864
	H50	H	0.583973	0.118620	0.411098
	H51	H	0.403537	0.899287	0.418221
	H52	H	0.579308	0.416587	0.110739
	H53	H	0.580291	0.592205	0.889236
	H54	H	0.404501	0.596714	0.113869
	H55	H	0.405590	0.421126	0.888344
	H56	H	0.105530	0.599111	0.411139
	H57	H	0.882487	0.597722	0.588014
	H58	H	0.105025	0.412856	0.584268
	H59	H	0.880286	0.415538	0.410380
	H60	H	0.101859	0.422865	0.588490
	H61	H	0.881921	0.598069	0.590405
	H62	H	0.100399	0.596117	0.420439
	H63	H	0.882622	0.415776	0.416164
	H64	H	0.404777	0.587726	0.110649
	H65	H	0.580016	0.598510	0.887027
	H66	H	0.584543	0.416061	0.112481
	H67	H	0.405065	0.416801	0.887684
	H68	H	0.582425	0.118793	0.411206
	H69	H	0.588254	0.894031	0.591276
	H70	H	0.404539	0.117834	0.591906
	H71	H	0.398992	0.894025	0.407138
	H72	H	0.906399	0.617400	0.088490
	H73	H	0.081203	0.397040	0.087496
	H74	H	0.081840	0.617704	0.914122
	H75	H	0.900203	0.394665	0.909288
	H76	H	0.084945	0.916603	0.614297
	H77	H	0.084433	0.102570	0.385975
	H78	H	0.901911	0.091562	0.612714
	H79	H	0.904567	0.916312	0.386673
	H80	H	0.605814	0.098470	0.906676
	H81	H	0.383048	0.096322	0.085422
	H82	H	0.601330	0.920610	0.082165
	H83	H	0.379431	0.909463	0.912814
	H84	H	0.604248	0.921672	0.091114
	H85	H	0.383504	0.093626	0.089125
	H86	H	0.606047	0.101066	0.908826
	H87	H	0.383463	0.919679	0.912024
	H88	H	0.908304	0.098673	0.612822
	H89	H	0.089068	0.092648	0.388122
	H90	H	0.085343	0.920667	0.612599
	H91	H	0.902058	0.922298	0.388174
	H92	H	0.079418	0.617868	0.912100
	H93	H	0.080812	0.396858	0.088100
	H94	H	0.906706	0.616270	0.084742
	H95	H	0.905446	0.395322	0.908551
	H96	H	0.400437	0.119072	0.588274
	H97	H	0.584048	0.895136	0.594097
	H98	H	0.583621	0.118005	0.412228
	H99	H	0.411247	0.898434	0.407922
	H100	H	0.582654	0.421124	0.110826
	H101	H	0.585530	0.594709	0.886573
	H102	H	0.412468	0.593701	0.110041
	H103	H	0.401859	0.419149	0.886445
	H104	H	0.101413	0.588683	0.412117
	H105	H	0.881341	0.599982	0.588966
	H106	H	0.106807	0.415012	0.595381
	H107	H	0.883028	0.420336	0.411899
	H108	H	0.903154	0.617700	0.086313
	H109	H	0.080961	0.396916	0.087756
	H110	H	0.079333	0.616134	0.915436
	H111	H	0.903462	0.396626	0.913433
	H112	H	0.081826	0.918359	0.611325
	H113	H	0.078320	0.094630	0.390746
	H114	H	0.899540	0.100205	0.616970
	H115	H	0.908177	0.920729	0.389820
	H116	H	0.604350	0.098534	0.909714
	H117	H	0.381518	0.098324	0.089328
	H118	H	0.605643	0.913556	0.086754
	H119	H	0.380056	0.914472	0.902953
	C120	C	0.372286	0.015144	0.621115
	C121	C	0.615549	0.998610	0.622242
	C122	C	0.615125	0.015992	0.378895
	C123	C	0.372375	0.999940	0.378526
	C124	C	0.614308	0.385935	0.007631
	C125	C	0.615038	0.627577	0.990527
	C126	C	0.373273	0.626880	0.009387
	C127	C	0.371438	0.385254	0.990733
	C128	C	0.001455	0.629086	0.379961
	C129	C	0.984151	0.630021	0.622376
	C130	C	0.001880	0.385494	0.622067
	C131	C	0.984022	0.385196	0.379328
	C132	C	0.871900	0.515709	0.120887
	C133	C	0.114541	0.498537	0.121604
	C134	C	0.113977	0.515777	0.879575
	C135	C	0.871120	0.498540	0.878023
	C136	C	0.115580	0.886416	0.509308
	C137	C	0.115074	0.127804	0.492399
	C138	C	0.872498	0.128395	0.509901
	C139	C	0.873417	0.887801	0.492272
	C140	C	0.501893	0.129201	0.878077
	C141	C	0.485264	0.128249	0.119896
	C142	C	0.502342	0.885018	0.121112
	C143	C	0.484823	0.885065	0.878841
	C144	C	0.373519	0.896668	0.678327
	C145	C	0.615138	0.116625	0.680099
	C146	C	0.617939	0.899584	0.318426
	C147	C	0.370946	0.117204	0.318691
	C148	C	0.674119	0.383929	0.889727
	C149	C	0.677165	0.631311	0.107169
	C150	C	0.310774	0.631830	0.893164
	C151	C	0.310391	0.380671	0.107864
	C152	C	0.886752	0.692257	0.374257
	C153	C	0.100312	0.690769	0.626834
	C154	C	0.885346	0.325278	0.625276
	C155	C	0.100740	0.325283	0.376013
	C156	C	0.884448	0.384987	0.681134
	C157	C	0.100666	0.631808	0.683488
	C158	C	0.886619	0.634342	0.316820
	C159	C	0.100422	0.383577	0.318739
	C160	C	0.369260	0.688198	0.892562
	C161	C	0.620869	0.689913	0.106687
	C162	C	0.616082	0.327146	0.889380
	C163	C	0.368906	0.324075	0.108178
	C164	C	0.676539	0.900130	0.375260
	C165	C	0.673943	0.116081	0.623420
	C166	C	0.315281	0.896827	0.620912
	C167	C	0.312728	0.116993	0.376344
	C168	C	0.868271	0.400280	0.183386
	C169	C	0.118219	0.614164	0.183305
	C170	C	0.117303	0.400048	0.817918
	C171	C	0.870039	0.616191	0.819008
	C172	C	0.174876	0.883898	0.391191
	C173	C	0.173437	0.128183	0.611268
	C174	C	0.814392	0.129786	0.390957
	C175	C	0.814975	0.886620	0.610761
	C176	C	0.383983	0.187170	0.877461
	C177	C	0.601804	0.188008	0.121710
	C178	C	0.386946	0.823142	0.125895
	C179	C	0.602881	0.827792	0.878638
	C180	C	0.386022	0.882273	0.182405
	C181	C	0.602382	0.129248	0.178793
	C182	C	0.383225	0.127504	0.821852
	C183	C	0.603319	0.887030	0.822058
	C184	C	0.872502	0.186470	0.390903
	C185	C	0.116078	0.186132	0.610826
	C186	C	0.117432	0.826586	0.391548
	C187	C	0.872483	0.828954	0.610745
	C188	C	0.176274	0.400739	0.874369
	C189	C	0.176672	0.613966	0.126192
	C190	C	0.811039	0.399674	0.124940
	C191	C	0.810478	0.614891	0.874932
	C192	C	0.395209	0.097664	0.597735
	C193	C	0.592398	0.916503	0.598344
	C194	C	0.590139	0.097275	0.404159
	C195	C	0.397275	0.918554	0.403889
	C196	C	0.589203	0.410709	0.089981
	C197	C	0.589147	0.602326	0.908784
	C198	C	0.399746	0.600165	0.090456
	C199	C	0.396887	0.411516	0.908823
	C200	C	0.081522	0.602117	0.407066
	C201	C	0.903094	0.605343	0.596493
	C202	C	0.083396	0.409806	0.596736
	C203	C	0.903084	0.410183	0.405446
	C204	C	0.897839	0.596250	0.093937
	C205	C	0.088536	0.418047	0.095115
	C206	C	0.087664	0.596198	0.906224
	C207	C	0.895967	0.416840	0.903175
	C208	C	0.090913	0.911377	0.591478
	C209	C	0.090941	0.103547	0.409798
	C210	C	0.896478	0.103908	0.592558
	C211	C	0.897944	0.912551	0.409541
	C212	C	0.583955	0.106108	0.901594
	C213	C	0.403822	0.103409	0.094955
	C214	C	0.582752	0.911118	0.094250
	C215	C	0.402488	0.907863	0.902490
	Zn216	Zn	0.493056	0.007083	0.750020
	Zn217	Zn	0.493877	0.007269	0.249572
	Zn218	Zn	0.742591	0.506335	-0.000812
	Zn219	Zn	0.244000	0.506916	0.000649
	Zn220	Zn	-0.006035	0.758416	0.500429
	Zn221	Zn	-0.006509	0.256259	0.501262
	Zn222	Zn	-0.006875	0.507611	0.749864
	Zn223	Zn	-0.007111	0.507841	0.250736
	Zn224	Zn	0.493908	0.755261	0.000409
	Zn225	Zn	0.493106	0.258270	-0.001357
	Zn226	Zn	0.744090	0.007818	0.500190
	Zn227	Zn	0.243599	0.007440	0.500083
	N228	N	0.407983	0.971356	0.678795
	N229	N	0.579579	0.042308	0.679853
	N230	N	0.580719	0.972745	0.320256
	N231	N	0.407134	0.043205	0.319577
	N232	N	0.673009	0.419847	0.964368
	N233	N	0.673634	0.593244	0.033865
	N234	N	0.312973	0.594414	0.966987
	N235	N	0.311827	0.418181	0.033822
	N236	N	0.959311	0.689108	0.412886
	N237	N	0.026955	0.689899	0.589526
	N238	N	0.959611	0.325079	0.589529
	N239	N	0.027171	0.325773	0.412932
	N240	N	0.958191	0.421353	0.679598
	N241	N	0.027402	0.594883	0.680942
	N242	N	0.959099	0.595557	0.320109
	N243	N	0.026850	0.420198	0.320593
	N244	N	0.407486	0.685311	0.965977
	N245	N	0.582719	0.687657	0.033143
	N246	N	0.579641	0.328010	0.963998
	N247	N	0.406069	0.326811	0.034182
	N248	N	0.675150	0.973630	0.412348
	N249	N	0.674449	0.041693	0.588133
	N250	N	0.314170	0.971653	0.586262
	N251	N	0.313301	0.042817	0.412663
	N252	N	0.905634	0.473426	0.180853
	N253	N	0.080108	0.541383	0.180675
	N254	N	0.078829	0.472672	0.821192
	N255	N	0.907293	0.542702	0.820814
	N256	N	0.174000	0.920347	0.465543
	N257	N	0.173083	0.092824	0.536341
	N258	N	0.814228	0.094284	0.466052
	N259	N	0.815072	0.922178	0.535729
	N260	N	0.458826	0.188540	0.911572
	N261	N	0.527747	0.187745	0.085921
	N262	N	0.460289	0.824568	0.088647
	N263	N	0.528021	0.826203	0.913039
	N264	N	0.458841	0.920137	0.179586
	N265	N	0.528753	0.093105	0.178023
	N266	N	0.457523	0.092361	0.821621
	N267	N	0.528710	0.921428	0.821551
	N268	N	0.907936	0.185912	0.465951
	N269	N	0.080706	0.186312	0.535774
	N270	N	0.081283	0.827706	0.466125
	N271	N	0.908056	0.829416	0.535834
	N272	N	0.174268	0.473722	0.912396
	N273	N	0.174783	0.540871	0.088759
	N274	N	0.813142	0.472612	0.086595
	N275	N	0.811067	0.540680	0.910904
	O276	O	0.153918	1.162244	-0.199045
	H277	H	0.173899	1.189206	-0.217401
	H278	H	0.146181	1.171239	-0.188536
	O279	O	0.337181	0.450911	0.714848
	H280	H	0.339469	0.462940	0.702604
	H281	H	0.328882	0.471633	0.712325
	O282	O	0.785912	0.200686	0.791507
	H283	H	0.776928	0.162012	0.792440
	H284	H	0.757827	0.225040	0.760243
	O285	O	0.601160	0.428428	0.549906
	H286	H	0.610456	0.433746	0.547386
	H287	H	0.589855	0.425933	0.540231
	O288	O	0.273337	0.522034	0.280732
	H289	H	0.259802	0.549653	0.261932
	H290	H	0.283854	0.527563	0.272929
	O291	O	0.546870	0.413347	0.705567
	H292	H	0.531031	0.431500	0.704243
	H293	H	0.545256	0.415953	0.690746
	O294	O	1.064303	-0.043087	0.971731
	H295	H	1.072308	-0.036114	0.975256
	H296	H	1.072633	-0.045751	0.969800
	O297	O	0.275995	0.719092	0.283257
	H298	H	0.278632	0.727436	0.277590
	H299	H	0.281724	0.712681	0.319622
	O300	O	0.456311	0.282872	0.715052
	H301	H	0.466948	0.288098	0.714665
	H302	H	0.447334	0.272578	0.737557
	O303	O	0.473499	0.726142	0.273366
	H304	H	0.465981	0.729112	0.279806
	H305	H	0.460946	0.742827	0.257685
	O306	O	0.679996	0.691320	0.312240
	H307	H	0.698173	0.699884	0.295363
	H308	H	0.658670	0.684741	0.311202
	O309	O	0.643592	0.380813	0.529794
	H310	H	0.628449	0.385326	0.528633
	H311	H	0.633021	0.383562	0.510645
	O312	O	0.261665	0.450769	0.460038
	H313	H	0.267546	0.446179	0.440943
	H314	H	0.256658	0.440139	0.448061
	O315	O	1.018812	1.069317	1.017448
	H316	H	1.021733	1.067120	0.996099
	H317	H	1.022797	1.073350	1.024883
	O318	O	0.269303	0.283310	0.537483
	H319	H	0.237687	0.252402	0.533734
	H320	H	0.273871	0.300345	0.554942
	O321	O	0.298361	0.698482	0.695619
	H322	H	0.265488	0.730650	0.726097
	H323	H	0.292742	0.680644	0.665485
	O324	O	1.325456	1.522283	-0.593176
	H325	H	1.332468	1.505152	-0.587429
	H326	H	1.338500	1.531239	-0.608232
	O327	O	-0.080211	0.181532	1.114194
	H328	H	-0.085672	0.175775	1.120786
	H329	H	-0.082272	0.188484	1.096308
	O330	O	1.249480	0.273888	0.740051
	H331	H	1.272050	0.267130	0.737885
	H332	H	1.249770	0.309758	0.746061
	O333	O	0.707748	0.302128	0.295686
	H334	H	0.686012	0.309159	0.314698
	H335	H	0.708121	0.333783	0.314257
	O336	O	0.375088	0.701879	0.487902
	H337	H	0.377135	0.697508	0.509592
	H338	H	0.394219	0.711189	0.488549
	O339	O	1.229519	-0.008901	1.015690
	H340	H	1.226934	0.009716	1.031627
	H341	H	1.238629	-0.007671	1.027865
	O342	O	0.199066	-0.201768	-0.204764
	H343	H	0.177358	-0.186970	-0.193699
	H344	H	0.195574	-0.192731	-0.171273
	O345	O	-0.158257	1.151548	1.045946
	H346	H	-0.169546	1.145761	1.047089
	H347	H	-0.160260	1.171815	1.053409
	O348	O	-0.227282	-0.034996	-0.041518
	H349	H	-0.235579	-0.030648	-0.015739
	H350	H	-0.216191	-0.030419	-0.036226
	O351	O	0.966915	0.233938	0.782873
	H352	H	0.935775	0.232829	0.780092
	H353	H	0.948102	0.256457	0.765089
	O354	O	0.029041	-0.213595	0.785938
	H355	H	0.022346	-0.213754	0.799751
	H356	H	0.037247	-0.235627	0.761059
	O357	O	0.721682	0.733145	0.533922
	H358	H	0.730647	0.749737	0.553686
	H359	H	0.737575	0.745291	0.557601
	O360	O	0.468753	0.319746	0.412005
	H361	H	0.460259	0.329748	0.397182
	H362	H	0.462242	0.311583	0.418014
	O363	O	0.002140	-0.176930	0.211699
	H364	H	-0.009446	-0.192666	0.225114
	H365	H	-0.013487	-0.161945	0.213952
	O366	O	0.443891	0.435750	0.298468
	H367	H	0.438043	0.436721	0.297151
	H368	H	0.449346	0.452043	0.304471
	O369	O	1.222940	0.041089	0.223492
	H370	H	1.244075	0.063206	0.246469
	H371	H	1.226960	0.072201	0.225287
	O372	O	0.308294	0.677897	0.464880
	H373	H	0.318145	0.686245	0.473713
	H374	H	0.304618	0.695885	0.463189
	O375	O	1.055683	0.241871	-0.059450
	H376	H	1.044784	0.238888	-0.072407
	H377	H	1.030985	0.247253	-0.061497
	O378	O	0.805860	0.196073	0.189844
	H379	H	0.824221	0.185447	0.178394
	H380	H	0.779095	0.226115	0.215738
	O381	O	-0.157374	1.014884	1.065813
	H382	H	-0.153923	1.030790	1.084914
	H383	H	-0.159784	1.022835	1.047564
	O384	O	0.804443	-0.177947	0.816345
	H385	H	0.827386	-0.150355	0.822422
	H386	H	0.812049	-0.167798	0.850392
	O387	O	1.198771	1.208188	0.193570
	H388	H	1.202396	1.213833	0.140303
	H389	H	1.147542	1.215047	0.201002
	O390	O	0.545303	0.562820	0.264258
	H391	H	0.544646	0.584803	0.256501
	H392	H	0.539190	0.546646	0.271408
	O393	O	0.411074	0.532113	0.458027
	H394	H	0.407519	0.537422	0.460801
	H395	H	0.422250	0.527910	0.463180
	O396	O	0.205711	1.032793	0.910096
	H397	H	0.195637	1.050089	0.910650
	H398	H	0.212272	1.031798	0.887912
	O399	O	0.109271	-0.060294	0.843687
	H400	H	0.131331	-0.059750	0.816912
	H401	H	0.107866	-0.071860	0.853809
	O402	O	0.509618	0.401654	0.481004
	H403	H	0.498669	0.408616	0.470758
	H404	H	0.490141	0.399321	0.480978
	O405	O	1.056223	-0.220397	1.047394
	H406	H	1.047091	-0.220162	1.056940
	H407	H	1.067717	-0.218016	1.061408
	O408	O	-0.061822	-0.047011	-0.205370
	H409	H	-0.041631	-0.037052	-0.207585
	H410	H	-0.044718	-0.049620	-0.209586
	O411	O	0.704362	0.719571	0.705913
	H412	H	0.736245	0.741499	0.740289
	H413	H	0.712367	0.669479	0.708553
	O414	O	0.534587	0.736081	0.727097
	H415	H	0.552663	0.754124	0.747378
	H416	H	0.563164	0.745185	0.736704
	O417	O	0.589171	0.528140	0.528530
	H418	H	0.599935	0.537987	0.520765
	H419	H	0.596737	0.544779	0.541892
	O420	O	0.328868	0.303285	0.342121
	H421	H	0.310063	0.284240	0.314276
	H422	H	0.342956	0.323655	0.328647
	O423	O	-0.064598	0.019316	1.168784
	H424	H	-0.048106	0.022105	1.162754
	H425	H	-0.060070	0.012072	1.164418
	O426	O	0.711239	0.289221	0.466802
	H427	H	0.703993	0.279901	0.472620
	H428	H	0.708014	0.280266	0.474365
	O429	O	0.826544	0.789734	1.205516
	H430	H	0.822230	0.787282	1.171624
	H431	H	0.838523	0.817573	1.218316
	O432	O	0.421503	0.649411	0.605788
	H433	H	0.416091	0.649785	0.611334
	H434	H	0.434471	0.649631	0.626754
	O435	O	0.034702	1.231335	0.218867
	H436	H	0.017949	1.237092	0.229707
	H437	H	0.022090	1.233114	0.232495
	O438	O	-0.224344	0.038652	-0.196574
	H439	H	-0.216928	0.028409	-0.198359
	H440	H	-0.234732	0.027046	-0.202623
	O441	O	0.054003	0.074230	-0.154415
	H442	H	0.070337	0.069705	-0.161875
	H443	H	0.053339	0.099873	-0.167893
	O444	O	0.680009	0.463071	0.292646
	H445	H	0.682961	0.470858	0.300639
	H446	H	0.677397	0.476655	0.291646
	O447	O	0.206062	0.790904	0.962109
	H448	H	0.212807	0.799813	0.978044
	H449	H	0.210897	0.778609	0.977595
	O450	O	-0.050214	1.046945	0.892321
	H451	H	-0.052828	1.060213	0.880818
	H452	H	-0.038537	1.056521	0.889802
	O453	O	0.717184	0.553929	0.651894
	H454	H	0.701679	0.537926	0.657414
	H455	H	0.720489	0.543875	0.666903
	O456	O	0.179279	-0.180314	1.185570
	H457	H	0.155923	-0.171228	1.178112
	H458	H	0.186577	-0.193131	1.196610
	O459	O	0.684776	0.319300	0.682869
	H460	H	0.681739	0.335449	0.651321
	H461	H	0.654894	0.332867	0.674513
	O462	O	0.271262	0.508056	0.661825
	H463	H	0.267958	0.513437	0.655547
	H464	H	0.276012	0.519738	0.644476
	O465	O	0.781594	-0.211851	0.075857
	H466	H	0.793128	-0.217373	0.073573
	H467	H	0.765464	-0.212010	0.071864
	O468	O	0.534887	0.644329	0.509808
	H469	H	0.531880	0.642071	0.507607
	H470	H	0.535445	0.654275	0.515010
	O471	O	0.418036	0.416413	0.562181
	H472	H	0.406743	0.404431	0.562283
	H473	H	0.408639	0.407837	0.552927
	O474	O	0.569817	0.727035	0.457285
	H475	H	0.586348	0.733513	0.461105
	H476	H	0.590979	0.731434	0.453908
	O477	O	0.551083	0.322084	1.329588
	H478	H	0.562168	0.309769	1.323559
	H479	H	0.538053	0.325804	1.320598
	O480	O	0.203906	0.223452	0.028036
	H481	H	0.173852	0.220802	0.006488
	H482	H	0.226373	0.250101	0.017353
	O483	O	0.489426	0.545847	0.728829
	H484	H	0.479769	0.557255	0.724874
	H485	H	0.475419	0.571570	0.721287
	O486	O	0.939298	-0.227042	0.945506
	H487	H	0.944124	-0.226976	0.953249
	H488	H	0.948344	-0.228488	0.948036
	O489	O	1.020322	0.892928	0.037319
	H490	H	1.013343	0.886621	0.039712
	H491	H	1.015787	0.901555	0.059766
	O492	O	-0.215046	0.218666	-0.030347
	H493	H	-0.217812	0.219064	-0.051339
	H494	H	-0.225735	0.224446	-0.038567
	O495	O	-0.222396	0.982446	1.210963
	H496	H	-0.227355	0.990990	1.231862
	H497	H	-0.209444	0.996920	1.211538
	O498	O	1.068155	0.990587	1.209895
	H499	H	1.095920	1.004946	1.194911
	H500	H	1.079520	0.973957	1.210649
	O501	O	0.728340	0.556912	0.409376
	H502	H	0.733575	0.571953	0.398413
	H503	H	0.724792	0.579606	0.416087
