data_Molecule from HDF5

_cell_length_a		16.511559
_cell_length_b		16.683314
_cell_length_c		16.542644
_cell_angle_alpha	90.042326
_cell_angle_beta	89.965810
_cell_angle_gamma	89.948373
_symmetry_space_group_name_H-M	'P 1'
_symmetry_Int_Tables_number		1

loop_
	_symmetry_equiv_pos_as_xyz
	x,y,z

loop_
	_atom_site_label
	_atom_site_type_symbol
	_atom_site_fract_x
	_atom_site_fract_y
	_atom_site_fract_z
	H0	H	0.385128	0.850101	0.741069
	H1	H	0.597220	0.159466	0.740782
	H2	H	0.596065	0.848411	0.297220
	H3	H	0.387526	0.160294	0.296860
	H4	H	0.710178	0.402026	0.858643
	H5	H	0.711143	0.605346	0.174220
	H6	H	0.270518	0.608184	0.862505
	H7	H	0.276306	0.403506	0.177250
	H8	H	0.835930	0.726382	0.411120
	H9	H	0.151141	0.720555	0.617861
	H10	H	0.834889	0.281231	0.625987
	H11	H	0.147793	0.283113	0.414325
	H12	H	0.834999	0.400806	0.738508
	H13	H	0.151804	0.603567	0.732967
	H14	H	0.833477	0.606617	0.298399
	H15	H	0.148485	0.401104	0.298652
	H16	H	0.384380	0.727605	0.863376
	H17	H	0.597935	0.725765	0.172945
	H18	H	0.594386	0.285467	0.858758
	H19	H	0.391102	0.285201	0.176221
	H20	H	0.711418	0.847725	0.414824
	H21	H	0.715411	0.158850	0.625753
	H22	H	0.272609	0.847554	0.620930
	H23	H	0.269949	0.159497	0.413250
	H24	H	0.884800	0.347797	0.240420
	H25	H	0.093936	0.659750	0.236726
	H26	H	0.095251	0.346734	0.798328
	H27	H	0.891571	0.661026	0.800172
	H28	H	0.205636	0.906353	0.357166
	H29	H	0.212463	0.108058	0.674785
	H30	H	0.769794	0.108227	0.361015
	H31	H	0.773056	0.901178	0.675628
	H32	H	0.333934	0.223318	0.915858
	H33	H	0.651856	0.224611	0.122870
	H34	H	0.336734	0.782621	0.124643
	H35	H	0.645851	0.781341	0.910236
	H36	H	0.335545	0.902073	0.237845
	H37	H	0.651042	0.108558	0.238264
	H38	H	0.332760	0.106524	0.800767
	H39	H	0.647101	0.898524	0.795425
	H40	H	0.884297	0.225912	0.361751
	H41	H	0.099586	0.227248	0.673132
	H42	H	0.092331	0.787847	0.358452
	H43	H	0.887651	0.782710	0.674332
	H44	H	0.209910	0.345730	0.916848
	H45	H	0.210231	0.660089	0.119911
	H46	H	0.770371	0.346407	0.122041
	H47	H	0.772730	0.659501	0.914749
	H48	H	0.405070	0.114540	0.608814
	H49	H	0.581890	0.894659	0.602821
	H50	H	0.584091	0.117403	0.424914
	H51	H	0.399889	0.892375	0.427493
	H52	H	0.584908	0.410020	0.131701
	H53	H	0.585077	0.588814	0.905151
	H54	H	0.411122	0.591973	0.127147
	H55	H	0.401017	0.413291	0.905318
	H56	H	0.105345	0.594551	0.425185
	H57	H	0.880615	0.588078	0.609062
	H58	H	0.107930	0.409187	0.612806
	H59	H	0.880548	0.411692	0.438082
	H60	H	0.102475	0.408970	0.597462
	H61	H	0.877027	0.598212	0.611346
	H62	H	0.105832	0.596740	0.425599
	H63	H	0.880804	0.423206	0.428393
	H64	H	0.402617	0.598625	0.132643
	H65	H	0.574899	0.591421	0.907708
	H66	H	0.583912	0.416216	0.129435
	H67	H	0.403682	0.411344	0.904227
	H68	H	0.576843	0.114319	0.427731
	H69	H	0.581028	0.892131	0.610276
	H70	H	0.401198	0.114439	0.602411
	H71	H	0.399559	0.891545	0.424997
	H72	H	0.900647	0.614868	0.107317
	H73	H	0.075529	0.392970	0.109746
	H74	H	0.088367	0.615959	0.928606
	H75	H	0.903324	0.393503	0.931360
	H76	H	0.081651	0.907093	0.632006
	H77	H	0.080386	0.096734	0.404661
	H78	H	0.904605	0.089229	0.628463
	H79	H	0.900585	0.919226	0.406705
	H80	H	0.602681	0.088554	0.929749
	H81	H	0.381941	0.096170	0.103702
	H82	H	0.606696	0.912257	0.108141
	H83	H	0.374979	0.911190	0.923779
	H84	H	0.604636	0.913926	0.102301
	H85	H	0.381043	0.091744	0.110313
	H86	H	0.607168	0.095854	0.923618
	H87	H	0.380514	0.911164	0.940023
	H88	H	0.907741	0.091604	0.628266
	H89	H	0.081559	0.090435	0.406280
	H90	H	0.086270	0.912037	0.632038
	H91	H	0.907931	0.910696	0.406781
	H92	H	0.083644	0.618321	0.920492
	H93	H	0.085821	0.392782	0.101897
	H94	H	0.904248	0.613067	0.108410
	H95	H	0.898482	0.390105	0.925831
	H96	H	0.398522	0.116970	0.608541
	H97	H	0.574852	0.895627	0.606379
	H98	H	0.583694	0.115245	0.433078
	H99	H	0.402106	0.892943	0.426034
	H100	H	0.578890	0.411962	0.129827
	H101	H	0.581530	0.598422	0.902736
	H102	H	0.400279	0.587330	0.129547
	H103	H	0.400413	0.410220	0.903476
	H104	H	0.105456	0.594933	0.427184
	H105	H	0.880727	0.595694	0.601321
	H106	H	0.101013	0.422562	0.606454
	H107	H	0.874420	0.410067	0.424310
	H108	H	0.903001	0.611767	0.104599
	H109	H	0.086767	0.387430	0.113864
	H110	H	0.079829	0.613525	0.927554
	H111	H	0.905825	0.391275	0.923583
	H112	H	0.079903	0.912914	0.629789
	H113	H	0.075490	0.093651	0.407811
	H114	H	0.904268	0.093078	0.629058
	H115	H	0.897425	0.909596	0.401969
	H116	H	0.603934	0.098509	0.933240
	H117	H	0.378600	0.099310	0.110150
	H118	H	0.604350	0.917816	0.106661
	H119	H	0.382504	0.925183	0.930856
	C120	C	0.369449	0.012976	0.639304
	C121	C	0.612298	0.996413	0.639594
	C122	C	0.612931	0.012390	0.397051
	C123	C	0.369446	0.995595	0.394922
	C124	C	0.613855	0.381851	0.025927
	C125	C	0.612978	0.624909	1.008732
	C126	C	0.371258	0.625010	0.027022
	C127	C	0.371651	0.382133	1.009635
	C128	C	0.000608	0.625699	0.395239
	C129	C	0.984254	0.624206	0.637617
	C130	C	0.000210	0.381711	0.638989
	C131	C	0.982693	0.383171	0.397988
	C132	C	0.870027	0.510595	0.139094
	C133	C	0.113362	0.494675	0.139619
	C134	C	0.114783	0.512096	0.895324
	C135	C	0.871395	0.494958	0.896064
	C136	C	0.112581	0.882380	0.525790
	C137	C	0.112378	0.125301	0.509191
	C138	C	0.871180	0.124168	0.525832
	C139	C	0.870561	0.881797	0.509181
	C140	C	0.500096	0.125144	0.897879
	C141	C	0.485228	0.126453	0.139318
	C142	C	0.501497	0.883238	0.138698
	C143	C	0.481911	0.883032	0.896983
	C144	C	0.367136	0.896335	0.700173
	C145	C	0.615418	0.113017	0.700421
	C146	C	0.614753	0.895136	0.337270
	C147	C	0.368576	0.113197	0.336529
	C148	C	0.671203	0.382355	0.906150
	C149	C	0.672203	0.625439	0.126992
	C150	C	0.310765	0.626892	0.909084
	C151	C	0.314820	0.383441	0.129443
	C152	C	0.882502	0.685432	0.393347
	C153	C	0.103764	0.681440	0.637298
	C154	C	0.882112	0.321784	0.643045
	C155	C	0.100942	0.323520	0.395832
	C156	C	0.881940	0.381052	0.699109
	C157	C	0.104064	0.623340	0.694381
	C158	C	0.881233	0.625880	0.337391
	C159	C	0.101435	0.381766	0.338511
	C160	C	0.366958	0.686327	0.909759
	C161	C	0.616159	0.685115	0.126166
	C162	C	0.613744	0.324591	0.906356
	C163	C	0.371926	0.324873	0.128937
	C164	C	0.671838	0.894646	0.395846
	C165	C	0.674103	0.112538	0.642998
	C166	C	0.310862	0.895089	0.640667
	C167	C	0.309847	0.112931	0.394084
	C168	C	0.867527	0.393923	0.199517
	C169	C	0.113287	0.612697	0.197680
	C170	C	0.114548	0.393682	0.837858
	C171	C	0.871517	0.613459	0.838693
	C172	C	0.167956	0.885467	0.405374
	C173	C	0.172819	0.127024	0.627226
	C174	C	0.810094	0.126730	0.408133
	C175	C	0.812289	0.881333	0.628111
	C176	C	0.381222	0.183819	0.897120
	C177	C	0.604061	0.184951	0.140818
	C178	C	0.383596	0.823233	0.141984
	C179	C	0.599334	0.821951	0.892671
	C180	C	0.382842	0.882526	0.198178
	C181	C	0.603985	0.127201	0.198493
	C182	C	0.380435	0.125803	0.839864
	C183	C	0.599795	0.880358	0.835825
	C184	C	0.866990	0.185307	0.408507
	C185	C	0.116131	0.185891	0.626667
	C186	C	0.111696	0.826550	0.405937
	C187	C	0.869329	0.822722	0.627485
	C188	C	0.171666	0.393283	0.896737
	C189	C	0.171086	0.612845	0.139605
	C190	C	0.810322	0.393579	0.140754
	C191	C	0.812848	0.612865	0.896020
	C192	C	0.394406	0.094169	0.613793
	C193	C	0.586368	0.915244	0.613769
	C194	C	0.588480	0.094322	0.421719
	C195	C	0.393689	0.913563	0.419373
	C196	C	0.589615	0.405692	0.108759
	C197	C	0.587596	0.600075	0.926381
	C198	C	0.397256	0.599814	0.108586
	C199	C	0.394751	0.405092	0.926225
	C200	C	0.083664	0.602118	0.418993
	C201	C	0.901244	0.600821	0.613934
	C202	C	0.082385	0.406316	0.613089
	C203	C	0.900075	0.407817	0.422959
	C204	C	0.895448	0.592103	0.113841
	C205	C	0.089480	0.412428	0.115505
	C206	C	0.090840	0.594586	0.918605
	C207	C	0.895702	0.412937	0.919927
	C208	C	0.089517	0.904400	0.609472
	C209	C	0.086584	0.100587	0.427451
	C210	C	0.897819	0.098453	0.607290
	C211	C	0.894800	0.906247	0.426674
	C212	C	0.582790	0.100915	0.921791
	C213	C	0.402203	0.102526	0.114954
	C214	C	0.583737	0.907954	0.113161
	C215	C	0.400461	0.908704	0.923786
	Zn216	Zn	0.491009	0.004923	0.768976
	Zn217	Zn	0.493187	0.004859	0.266831
	Zn218	Zn	0.741595	0.503119	0.017032
	Zn219	Zn	0.242800	0.503188	0.018360
	Zn220	Zn	-0.007720	0.753201	0.517482
	Zn221	Zn	-0.009076	0.253948	0.518197
	Zn222	Zn	-0.007289	0.503838	0.766518
	Zn223	Zn	-0.008697	0.503131	0.268406
	Zn224	Zn	0.492134	0.754118	0.018048
	Zn225	Zn	0.493302	0.253801	0.017629
	Zn226	Zn	0.742236	0.003546	0.518444
	Zn227	Zn	0.240686	0.003666	0.517215
	N228	N	0.402615	0.970690	0.699656
	N229	N	0.577927	0.039632	0.698698
	N230	N	0.579035	0.969431	0.337748
	N231	N	0.404840	0.039078	0.336634
	N232	N	0.671769	0.416900	0.981650
	N233	N	0.670358	0.588613	0.052795
	N234	N	0.313226	0.589406	0.982819
	N235	N	0.314436	0.418091	0.054121
	N236	N	0.957816	0.685692	0.428366
	N237	N	0.028134	0.682353	0.602753
	N238	N	0.956763	0.322013	0.606512
	N239	N	0.026024	0.324127	0.431773
	N240	N	0.956434	0.417431	0.696961
	N241	N	0.028642	0.588734	0.695071
	N242	N	0.955840	0.589581	0.338286
	N243	N	0.026752	0.418014	0.339638
	N244	N	0.403840	0.685461	0.984155
	N245	N	0.580347	0.684988	0.051407
	N246	N	0.579236	0.323910	0.981920
	N247	N	0.406316	0.323701	0.053288
	N248	N	0.671030	0.968598	0.432248
	N249	N	0.672263	0.038818	0.605834
	N250	N	0.311580	0.968745	0.603735
	N251	N	0.310326	0.038587	0.429647
	N252	N	0.903837	0.468033	0.198862
	N253	N	0.078544	0.537918	0.198161
	N254	N	0.080245	0.468700	0.836655
	N255	N	0.907244	0.539142	0.838524
	N256	N	0.168926	0.919205	0.481120
	N257	N	0.170490	0.089747	0.553286
	N258	N	0.812296	0.089733	0.482252
	N259	N	0.812990	0.917366	0.553493
	N260	N	0.456721	0.183915	0.932012
	N261	N	0.528976	0.184764	0.104978
	N262	N	0.458379	0.823351	0.105850
	N263	N	0.525009	0.823285	0.929947
	N264	N	0.457297	0.918978	0.196366
	N265	N	0.528810	0.091628	0.197828
	N266	N	0.455353	0.090099	0.840082
	N267	N	0.525735	0.917691	0.838420
	N268	N	0.904116	0.184043	0.482784
	N269	N	0.079258	0.185068	0.552362
	N270	N	0.078357	0.824215	0.481998
	N271	N	0.904676	0.822718	0.552315
	N272	N	0.172335	0.468097	0.931471
	N273	N	0.171369	0.538352	0.104224
	N274	N	0.811912	0.467162	0.103762
	N275	N	0.812496	0.538184	0.930760
	O276	O	-0.731733	0.687757	-0.565654
	H277	H	-0.737427	0.686003	-0.581195
	H278	H	-0.757937	0.701121	-0.582828
	O279	O	0.371410	0.449689	0.363413
	H280	H	0.365269	0.467953	0.386571
	H281	H	0.378744	0.441090	0.370875
	O282	O	0.778748	-0.038011	1.233405
	H283	H	0.779273	-0.018386	1.231199
	H284	H	0.760965	-0.023655	1.234698
	O285	O	0.191001	0.165261	-0.135112
	H286	H	0.189682	0.143825	-0.119955
	H287	H	0.165827	0.153210	-0.125762
	O288	O	0.671576	0.341216	0.699336
	H289	H	0.666077	0.348807	0.668260
	H290	H	0.662705	0.368505	0.697412
	O291	O	0.316688	0.689291	0.686002
	H292	H	0.321615	0.675308	0.655778
	H293	H	0.340178	0.675283	0.685668
	O294	O	1.182090	-0.022178	1.089892
	H295	H	1.170192	-0.013099	1.087514
	H296	H	1.179502	-0.017334	1.092827
	O297	O	0.703806	0.441713	0.565780
	H298	H	0.713430	0.419664	0.554632
	H299	H	0.697089	0.454215	0.545749
	O300	O	-0.035842	0.218556	0.797350
	H301	H	-0.057815	0.220426	0.787658
	H302	H	-0.044066	0.231942	0.790428
	O303	O	0.287438	0.291802	0.717424
	H304	H	0.279031	0.345771	0.727442
	H305	H	0.259201	0.268613	0.730474
	O306	O	1.200547	0.214774	0.226950
	H307	H	1.221798	0.236742	0.247760
	H308	H	1.185742	0.200635	0.219783
	O309	O	0.703469	0.710518	0.725678
	H310	H	0.731406	0.738616	0.758732
	H311	H	0.662590	0.714445	0.732324
	O312	O	0.523776	0.539164	0.503447
	H313	H	0.525994	0.539570	0.509655
	H314	H	0.538478	0.536597	0.511203
	O315	O	1.026926	1.019993	0.845649
	H316	H	1.036674	1.017764	0.850789
	H317	H	1.026011	1.019424	0.832912
	O318	O	0.336619	0.451155	0.535563
	H319	H	0.343666	0.451067	0.548144
	H320	H	0.341074	0.461354	0.552456
	O321	O	0.207889	0.791451	-0.009526
	H322	H	0.217284	0.786671	-0.016315
	H323	H	0.204724	0.779807	-0.006624
	O324	O	0.799343	0.812192	-0.170715
	H325	H	0.816896	0.823880	-0.144521
	H326	H	0.821482	0.833614	-0.158034
	O327	O	-0.035631	-0.053208	0.814723
	H328	H	-0.033658	-0.061746	0.815477
	H329	H	-0.022765	-0.053371	0.805507
	O330	O	0.435377	0.273516	0.458316
	H331	H	0.407322	0.270684	0.476395
	H332	H	0.455620	0.273115	0.466478
	O333	O	0.679823	0.695689	0.330820
	H334	H	0.661052	0.668490	0.336578
	H335	H	0.678078	0.697105	0.336231
	O336	O	1.379644	0.578105	-0.277103
	H337	H	1.412913	0.594232	-0.276423
	H338	H	1.395089	0.565969	-0.293800
	O339	O	1.305082	-0.683496	0.331978
	H340	H	1.322438	-0.664897	0.349930
	H341	H	1.309731	-0.675220	0.347438
	O342	O	0.022664	0.220032	0.237030
	H343	H	0.036083	0.241826	0.258460
	H344	H	0.023041	0.224015	0.217875
	O345	O	-0.217797	0.789878	1.223951
	H346	H	-0.208506	0.828191	1.229844
	H347	H	-0.235150	0.777916	1.241712
	O348	O	0.394359	-0.485312	0.638898
	H349	H	0.405561	-0.480883	0.649320
	H350	H	0.396199	-0.486685	0.651370
	O351	O	1.040406	0.885716	0.090477
	H352	H	1.037323	0.881404	0.087318
	H353	H	1.037592	0.890544	0.101862
	O354	O	0.201614	0.047739	1.226612
	H355	H	0.208299	0.059372	1.214283
	H356	H	0.218116	0.049683	1.245269
	O357	O	0.294529	0.301350	0.546529
	H358	H	0.282011	0.292900	0.571007
	H359	H	0.294600	0.308600	0.562838
	O360	O	0.556358	0.276173	0.564462
	H361	H	0.562861	0.283819	0.573534
	H362	H	0.552950	0.270463	0.579547
	O363	O	-0.234936	-0.048712	-0.037831
	H364	H	-0.237940	-0.047113	-0.031233
	H365	H	-0.230705	-0.059554	-0.040273
	O366	O	0.992327	0.966800	0.208690
	H367	H	0.988226	0.973378	0.209873
	H368	H	0.979663	0.985659	0.210266
	O369	O	0.488216	0.455936	0.538982
	H370	H	0.495420	0.458627	0.546955
	H371	H	0.493121	0.442571	0.544680
	O372	O	1.178841	0.814345	0.201203
	H373	H	1.172245	0.820130	0.179969
	H374	H	1.163768	0.831444	0.196742
	O375	O	0.982830	0.055643	-0.100239
	H376	H	0.976785	0.063651	-0.110135
	H377	H	0.994764	0.052533	-0.096494
	O378	O	0.282875	0.589859	0.341236
	H379	H	0.279232	0.573545	0.342042
	H380	H	0.269762	0.586600	0.331157
	O381	O	-0.207980	1.196792	0.816605
	H382	H	-0.199490	1.197283	0.837913
	H383	H	-0.228222	1.198168	0.801507
	O384	O	0.766580	0.228580	0.979998
	H385	H	0.773943	0.237310	0.965761
	H386	H	0.753025	0.255747	0.986881
	O387	O	0.973998	0.798608	0.229905
	H388	H	0.949129	0.806049	0.231039
	H389	H	0.969214	0.790349	0.254821
	O390	O	0.455204	0.721885	0.302881
	H391	H	0.453313	0.741480	0.291031
	H392	H	0.436693	0.717355	0.295340
	O393	O	0.206337	-0.023444	-0.200123
	H394	H	0.234593	-0.028870	-0.227910
	H395	H	0.197894	-0.026831	-0.183681
	O396	O	-0.525855	1.697171	0.573444
	H397	H	-0.529357	1.692326	0.548783
	H398	H	-0.526553	1.700717	0.558302
	O399	O	0.675058	0.413649	0.330245
	H400	H	0.658912	0.394864	0.326963
	H401	H	0.689642	0.423194	0.322374
	O402	O	0.522533	0.467645	0.334276
	H403	H	0.504442	0.456394	0.327655
	H404	H	0.503055	0.480726	0.332238
	O405	O	0.799742	0.048640	1.070835
	H406	H	0.807585	0.059879	1.052078
	H407	H	0.795392	0.054298	1.053326
	O408	O	-0.068252	0.231667	0.065922
	H409	H	-0.058199	0.229349	0.051915
	H410	H	-0.068593	0.229841	0.069507
	O411	O	-0.026719	1.047493	1.055990
	H412	H	-0.026745	1.033096	1.063824
	H413	H	-0.016641	1.040266	1.053992
	O414	O	0.272909	0.455830	0.738954
	H415	H	0.245716	0.464245	0.771263
	H416	H	0.294246	0.489675	0.733134
	O417	O	0.330764	0.548836	0.515089
	H418	H	0.340101	0.554128	0.508057
	H419	H	0.324582	0.549804	0.517391
	O420	O	0.485164	0.529265	0.422261
	H421	H	0.502084	0.529508	0.426863
	H422	H	0.483943	0.514899	0.414055
	O423	O	0.588257	-0.700795	0.309417
	H424	H	0.586220	-0.704722	0.344985
	H425	H	0.570987	-0.727592	0.285514
	O426	O	0.135057	0.111502	-0.008949
	H427	H	0.146885	0.114489	0.005250
	H428	H	0.123599	0.100793	-0.005768
	O429	O	1.094919	0.924749	0.989490
	H430	H	1.093395	0.940322	0.993028
	H431	H	1.082550	0.910956	0.996942
	O432	O	1.024818	0.787096	-0.188633
	H433	H	1.031410	0.763303	-0.205942
	H434	H	1.050297	0.791208	-0.182356
	O435	O	-0.222640	1.030925	-0.192707
	H436	H	-0.232296	1.042192	-0.198946
	H437	H	-0.224365	1.030041	-0.197277
	O438	O	-0.062159	0.153256	0.029995
	H439	H	-0.061837	0.158613	0.028957
	H440	H	-0.049049	0.137695	0.026022
	O441	O	0.214558	0.226658	0.054469
	H442	H	0.229243	0.227999	0.056817
	H443	H	0.223400	0.240832	0.070166
	O444	O	0.548730	0.723192	0.485202
	H445	H	0.549463	0.720796	0.457835
	H446	H	0.572776	0.720092	0.487226
	O447	O	-0.228989	0.788600	1.043807
	H448	H	-0.224114	0.776314	1.066813
	H449	H	-0.249074	0.775912	1.062648
	O450	O	-0.284351	0.722979	1.546315
	H451	H	-0.272119	0.733555	1.574986
	H452	H	-0.276059	0.737723	1.567419
	O453	O	0.710767	0.570196	0.465123
	H454	H	0.708324	0.583768	0.482548
	H455	H	0.709770	0.585366	0.462514
	O456	O	-0.018236	-0.193380	0.990867
	H457	H	-0.035421	-0.191060	0.993803
	H458	H	-0.018030	-0.195910	1.005700
	O459	O	1.003351	0.902448	0.004890
	H460	H	1.001594	0.907240	-0.003958
	H461	H	1.002095	0.891800	0.014666
	O462	O	0.708627	0.537756	0.736286
	H463	H	0.720499	0.560079	0.734544
	H464	H	0.728155	0.549489	0.743944
	O465	O	1.284246	-0.283654	0.307856
	H466	H	1.274741	-0.262844	0.281820
	H467	H	1.279012	-0.335389	0.303964
	O468	O	0.715273	0.282400	0.493942
	H469	H	0.722508	0.271600	0.466561
	H470	H	0.720577	0.266366	0.497873
	O471	O	0.523407	0.456492	0.656977
	H472	H	0.535198	0.454970	0.647613
	H473	H	0.521043	0.446315	0.666255
	O474	O	0.520959	0.715246	0.729959
	H475	H	0.506536	0.724187	0.699043
	H476	H	0.521067	0.739795	0.747327
	O477	O	0.639863	0.511815	1.300940
	H478	H	0.628889	0.512870	1.303676
	H479	H	0.667987	0.513176	1.299032
	O480	O	0.457366	0.275689	0.738264
	H481	H	0.420628	0.268725	0.740644
	H482	H	0.442950	0.255926	0.760675
	O483	O	0.934520	1.062242	1.126080
	H484	H	0.940718	1.058730	1.129752
	H485	H	0.930206	1.063975	1.112225
	O486	O	0.873416	0.136631	1.239466
	H487	H	0.878349	0.142018	1.232951
	H488	H	0.885804	0.145117	1.235582
	O489	O	1.191069	0.802105	-0.188792
	H490	H	1.197684	0.825554	-0.168021
	H491	H	1.213684	0.778404	-0.209914
