data_Molecule from HDF5

_cell_length_a		16.238239
_cell_length_b		16.477097
_cell_length_c		16.189204
_cell_angle_alpha	90.145684
_cell_angle_beta	90.102618
_cell_angle_gamma	90.149071
_symmetry_space_group_name_H-M	'P 1'
_symmetry_Int_Tables_number		1

loop_
	_symmetry_equiv_pos_as_xyz
	x,y,z

loop_
	_atom_site_label
	_atom_site_type_symbol
	_atom_site_fract_x
	_atom_site_fract_y
	_atom_site_fract_z
	H0	H	0.384641	0.815236	0.734551
	H1	H	0.592208	0.135593	0.736228
	H2	H	0.588070	0.815062	0.297937
	H3	H	0.388848	0.137487	0.298865
	H4	H	0.704794	0.374035	0.854453
	H5	H	0.702906	0.576655	0.180263
	H6	H	0.269408	0.575593	0.854655
	H7	H	0.273226	0.375932	0.181416
	H8	H	0.828028	0.694391	0.411150
	H9	H	0.150091	0.694509	0.621656
	H10	H	0.827804	0.253193	0.622712
	H11	H	0.149776	0.257553	0.412728
	H12	H	0.823932	0.375000	0.731997
	H13	H	0.150305	0.576911	0.734950
	H14	H	0.823643	0.571155	0.306099
	H15	H	0.150580	0.376288	0.301436
	H16	H	0.379305	0.695224	0.855724
	H17	H	0.592077	0.696846	0.177589
	H18	H	0.593054	0.256787	0.854858
	H19	H	0.382593	0.255213	0.177828
	H20	H	0.707400	0.815352	0.411901
	H21	H	0.709889	0.135190	0.620045
	H22	H	0.269870	0.814706	0.615479
	H23	H	0.269621	0.136059	0.412595
	H24	H	0.885018	0.314460	0.234552
	H25	H	0.086746	0.637275	0.235101
	H26	H	0.090160	0.316363	0.797027
	H27	H	0.885076	0.636258	0.798419
	H28	H	0.202119	0.876986	0.352070
	H29	H	0.205128	0.074474	0.679574
	H30	H	0.771819	0.076437	0.353686
	H31	H	0.769059	0.870842	0.677528
	H32	H	0.328158	0.195558	0.909606
	H33	H	0.649121	0.196378	0.121869
	H34	H	0.328199	0.754683	0.124090
	H35	H	0.647503	0.754149	0.909739
	H36	H	0.325797	0.877315	0.232083
	H37	H	0.651797	0.076633	0.232064
	H38	H	0.325929	0.076112	0.797853
	H39	H	0.649763	0.872828	0.798647
	H40	H	0.884513	0.193151	0.355046
	H41	H	0.095689	0.195827	0.677737
	H42	H	0.093233	0.755770	0.354330
	H43	H	0.882479	0.754255	0.677141
	H44	H	0.206400	0.315688	0.914300
	H45	H	0.208099	0.635769	0.122237
	H46	H	0.766445	0.315456	0.119800
	H47	H	0.767923	0.636359	0.915249
	H48	H	0.397260	0.088034	0.602645
	H49	H	0.576232	0.864276	0.603810
	H50	H	0.584293	0.093397	0.415154
	H51	H	0.388282	0.858015	0.420822
	H52	H	0.579503	0.391174	0.132045
	H53	H	0.570617	0.569531	0.901840
	H54	H	0.387576	0.568050	0.137346
	H55	H	0.393147	0.385728	0.899951
	H56	H	0.106269	0.562980	0.418227
	H57	H	0.869602	0.570959	0.613411
	H58	H	0.104072	0.391356	0.617154
	H59	H	0.872268	0.379153	0.429567
	H60	H	0.106161	0.374096	0.605913
	H61	H	0.873385	0.572232	0.597334
	H62	H	0.106894	0.577226	0.429085
	H63	H	0.872183	0.384283	0.428350
	H64	H	0.402247	0.556313	0.127551
	H65	H	0.581384	0.568171	0.897678
	H66	H	0.568647	0.384475	0.130153
	H67	H	0.400389	0.386641	0.903427
	H68	H	0.571208	0.085989	0.426568
	H69	H	0.582309	0.861117	0.604264
	H70	H	0.394656	0.090067	0.608201
	H71	H	0.401775	0.862081	0.416960
	H72	H	0.893068	0.590049	0.111887
	H73	H	0.071574	0.363518	0.111495
	H74	H	0.081796	0.589817	0.928337
	H75	H	0.894546	0.363504	0.930433
	H76	H	0.071697	0.885089	0.628973
	H77	H	0.078632	0.073727	0.398528
	H78	H	0.901824	0.064725	0.631956
	H79	H	0.898431	0.889095	0.402360
	H80	H	0.607469	0.072472	0.922114
	H81	H	0.372773	0.067687	0.108082
	H82	H	0.605539	0.877312	0.103413
	H83	H	0.372881	0.884302	0.927884
	H84	H	0.601042	0.888896	0.098896
	H85	H	0.372460	0.068614	0.103499
	H86	H	0.601425	0.070012	0.934630
	H87	H	0.372958	0.885194	0.927991
	H88	H	0.901763	0.063741	0.630980
	H89	H	0.083322	0.063681	0.399621
	H90	H	0.080535	0.876724	0.635403
	H91	H	0.906432	0.881860	0.402058
	H92	H	0.075244	0.589024	0.925392
	H93	H	0.080369	0.363501	0.102177
	H94	H	0.895882	0.589477	0.111524
	H95	H	0.892661	0.360496	0.923011
	H96	H	0.400963	0.088346	0.608401
	H97	H	0.577323	0.861250	0.609539
	H98	H	0.588513	0.089349	0.432416
	H99	H	0.397099	0.864353	0.431001
	H100	H	0.578708	0.379042	0.135883
	H101	H	0.575611	0.558946	0.903269
	H102	H	0.406700	0.576508	0.133078
	H103	H	0.398123	0.380152	0.899772
	H104	H	0.101029	0.561842	0.435019
	H105	H	0.875185	0.557631	0.605136
	H106	H	0.098188	0.390901	0.597187
	H107	H	0.870176	0.380874	0.424273
	H108	H	0.893844	0.589966	0.108338
	H109	H	0.083224	0.358966	0.113793
	H110	H	0.075975	0.586843	0.932250
	H111	H	0.899790	0.363165	0.924919
	H112	H	0.084620	0.889321	0.632815
	H113	H	0.072680	0.065399	0.402890
	H114	H	0.902732	0.065283	0.631270
	H115	H	0.896657	0.880166	0.397625
	H116	H	0.602541	0.059736	0.925328
	H117	H	0.374160	0.063760	0.104667
	H118	H	0.604848	0.887976	0.112227
	H119	H	0.372222	0.885316	0.926717
	C120	C	0.366733	-0.016828	0.636922
	C121	C	0.610932	0.967434	0.637998
	C122	C	0.611253	-0.015880	0.393629
	C123	C	0.365875	0.967518	0.392508
	C124	C	0.607770	0.354596	0.025443
	C125	C	0.607290	0.596754	1.008362
	C126	C	0.366184	0.597473	0.025924
	C127	C	0.366480	0.353712	1.008390
	C128	C	-0.002666	0.596772	0.396512
	C129	C	0.979870	0.597060	0.637245
	C130	C	-0.003969	0.354038	0.638040
	C131	C	0.979145	0.352791	0.396336
	C132	C	0.863812	0.483775	0.140349
	C133	C	0.109043	0.467836	0.139966
	C134	C	0.109247	0.483838	0.896266
	C135	C	0.864945	0.468048	0.895292
	C136	C	0.109248	0.853788	0.524754
	C137	C	0.110381	0.097460	0.507639
	C138	C	0.869553	0.095342	0.524601
	C139	C	0.867992	0.852665	0.507359
	C140	C	0.496907	0.097330	0.894815
	C141	C	0.480265	0.097496	0.137054
	C142	C	0.496924	0.854558	0.136731
	C143	C	0.479033	0.853656	0.895210
	C144	C	0.365869	0.863115	0.695240
	C145	C	0.612110	0.087463	0.697429
	C146	C	0.608825	0.862901	0.336608
	C147	C	0.368092	0.088862	0.336612
	C148	C	0.666016	0.354588	0.903153
	C149	C	0.664754	0.596840	0.131163
	C150	C	0.307458	0.596323	0.903603
	C151	C	0.310013	0.355144	0.131545
	C152	C	0.875797	0.654422	0.394230
	C153	C	0.101545	0.655177	0.639872
	C154	C	0.875363	0.294079	0.640194
	C155	C	0.101329	0.296396	0.395053
	C156	C	0.873352	0.354788	0.694535
	C157	C	0.101699	0.596409	0.696078
	C158	C	0.873678	0.593454	0.341574
	C159	C	0.101606	0.355336	0.339266
	C160	C	0.362495	0.655724	0.904096
	C161	C	0.609389	0.656297	0.129700
	C162	C	0.610068	0.296459	0.903439
	C163	C	0.364775	0.295233	0.129915
	C164	C	0.668059	0.863196	0.393314
	C165	C	0.670541	0.087209	0.639453
	C166	C	0.308912	0.862597	0.635728
	C167	C	0.308655	0.088315	0.393187
	C168	C	0.864951	0.363085	0.196788
	C169	C	0.107956	0.588764	0.197261
	C170	C	0.109337	0.363897	0.836924
	C171	C	0.865112	0.588348	0.837366
	C172	C	0.165020	0.855874	0.401357
	C173	C	0.167928	0.095865	0.630373
	C174	C	0.810425	0.095803	0.402688
	C175	C	0.808347	0.852018	0.628801
	C176	C	0.375712	0.155352	0.892368
	C177	C	0.601244	0.156489	0.139351
	C178	C	0.375851	0.795727	0.140456
	C179	C	0.599469	0.793846	0.892125
	C180	C	0.374694	0.856389	0.194471
	C181	C	0.602634	0.096656	0.194216
	C182	C	0.374869	0.096072	0.836485
	C183	C	0.600723	0.853342	0.837078
	C184	C	0.866748	0.153855	0.403190
	C185	C	0.113082	0.155817	0.629553
	C186	C	0.110879	0.795594	0.402731
	C187	C	0.865158	0.793926	0.628779
	C188	C	0.167380	0.363649	0.895282
	C189	C	0.167789	0.588033	0.140669
	C190	C	0.805910	0.363309	0.139401
	C191	C	0.807094	0.588361	0.895695
	C192	C	0.390650	0.067015	0.613205
	C193	C	0.585976	0.883995	0.613046
	C194	C	0.588184	0.067701	0.417694
	C195	C	0.388879	0.883509	0.416052
	C196	C	0.582939	0.378211	0.110611
	C197	C	0.583067	0.572335	0.923076
	C198	C	0.391541	0.573893	0.110561
	C199	C	0.390258	0.377310	0.923326
	C200	C	0.082501	0.574050	0.420464
	C201	C	0.894803	0.573780	0.612565
	C202	C	0.080786	0.378378	0.613799
	C203	C	0.893815	0.374952	0.420378
	C204	C	0.887170	0.567966	0.117345
	C205	C	0.085324	0.383871	0.115985
	C206	C	0.084752	0.566929	0.921319
	C207	C	0.888647	0.384222	0.919079
	C208	C	0.085812	0.876764	0.610186
	C209	C	0.085549	0.074310	0.422231
	C210	C	0.894818	0.071632	0.609317
	C211	C	0.893240	0.876733	0.422731
	C212	C	0.581779	0.074069	0.920010
	C213	C	0.395295	0.073488	0.112594
	C214	C	0.581785	0.878045	0.112057
	C215	C	0.394528	0.878071	0.920177
	Zn216	Zn	0.488439	-0.024824	0.767286
	Zn217	Zn	0.489331	-0.024030	0.264732
	Zn218	Zn	0.735034	0.475367	0.017381
	Zn219	Zn	0.239066	0.475441	0.017804
	Zn220	Zn	-0.010588	0.724924	0.516003
	Zn221	Zn	-0.011313	0.224649	0.517269
	Zn222	Zn	-0.013283	0.476388	0.766257
	Zn223	Zn	-0.013079	0.475516	0.269523
	Zn224	Zn	0.487302	0.725641	0.016118
	Zn225	Zn	0.488123	0.225997	0.016469
	Zn226	Zn	0.740686	-0.024942	0.515620
	Zn227	Zn	0.237044	-0.024651	0.515196
	N228	N	0.401327	0.938921	0.695858
	N229	N	0.575995	0.011870	0.696810
	N230	N	0.574378	0.938931	0.336583
	N231	N	0.402724	0.012781	0.335933
	N232	N	0.664560	0.390195	0.979884
	N233	N	0.663524	0.560564	0.054597
	N234	N	0.309585	0.560883	0.980148
	N235	N	0.310784	0.390773	0.054843
	N236	N	0.953812	0.656771	0.427403
	N237	N	0.024701	0.655784	0.604295
	N238	N	0.952626	0.293417	0.605723
	N239	N	0.024047	0.294594	0.429594
	N240	N	0.949609	0.391199	0.693634
	N241	N	0.024864	0.561105	0.694680
	N242	N	0.950209	0.558204	0.342714
	N243	N	0.024619	0.389534	0.339694
	N244	N	0.398462	0.656604	0.981116
	N245	N	0.574724	0.656348	0.052215
	N246	N	0.574677	0.296255	0.980600
	N247	N	0.398996	0.294049	0.052272
	N248	N	0.669576	0.939364	0.428248
	N249	N	0.670185	0.011483	0.603454
	N250	N	0.309143	0.938396	0.600464
	N251	N	0.306806	0.011824	0.427058
	N252	N	0.900439	0.438894	0.197275
	N253	N	0.072112	0.513069	0.197115
	N254	N	0.073841	0.439529	0.837491
	N255	N	0.900198	0.512532	0.837220
	N256	N	0.164197	0.891541	0.477972
	N257	N	0.166267	0.060510	0.553381
	N258	N	0.812077	0.060080	0.479098
	N259	N	0.810084	0.888110	0.552327
	N260	N	0.452732	0.156207	0.927897
	N261	N	0.523958	0.156989	0.104499
	N262	N	0.452726	0.794523	0.105286
	N263	N	0.522693	0.794096	0.927731
	N264	N	0.451215	0.892295	0.192439
	N265	N	0.526229	0.060641	0.192866
	N266	N	0.451289	0.060820	0.838093
	N267	N	0.524689	0.889671	0.838621
	N268	N	0.902831	0.153684	0.480125
	N269	N	0.078197	0.157096	0.552133
	N270	N	0.076822	0.794358	0.480496
	N271	N	0.901500	0.794359	0.552254
	N272	N	0.167327	0.439110	0.931641
	N273	N	0.168579	0.511833	0.105932
	N274	N	0.805104	0.439482	0.105087
	N275	N	0.806798	0.512444	0.931003
	O276	O	0.520742	0.341846	0.570986
	H277	H	0.506899	0.345664	0.569560
	H278	H	0.528417	0.325798	0.560881
	O279	O	0.659137	0.434176	0.572337
	H280	H	0.658968	0.423351	0.591719
	H281	H	0.662942	0.417347	0.553688
	O282	O	0.908568	0.073191	1.091653
	H283	H	0.921585	0.084912	1.083608
	H284	H	0.908900	0.080068	1.105173
	O285	O	0.574207	0.612603	0.586736
	H286	H	0.572852	0.604398	0.578538
	H287	H	0.580311	0.600428	0.586497
	O288	O	0.956308	1.053504	0.890316
	H289	H	0.957816	1.049076	0.916246
	H290	H	0.957092	1.064155	0.880963
	O291	O	0.380152	1.410767	-0.488982
	H292	H	0.393645	1.413000	-0.474466
	H293	H	0.376776	1.397613	-0.485090
	O294	O	0.490311	0.484795	0.358524
	H295	H	0.494319	0.491167	0.369777
	H296	H	0.489416	0.468561	0.356269
	O297	O	0.617055	0.383299	0.503087
	H298	H	0.611746	0.376000	0.500941
	H299	H	0.622025	0.359854	0.505211
	O300	O	0.371791	0.347538	0.659889
	H301	H	0.349280	0.353092	0.659034
	H302	H	0.358117	0.349833	0.671293
	O303	O	1.137906	1.098250	-0.019950
	H304	H	1.132461	1.103663	-0.014793
	H305	H	1.157993	1.106858	-0.021898
	O306	O	0.577609	0.585708	0.430680
	H307	H	0.571364	0.582227	0.430337
	H308	H	0.585824	0.583109	0.426015
	O309	O	0.609563	0.523713	0.439715
	H310	H	0.591820	0.524845	0.431429
	H311	H	0.621192	0.521335	0.428476
	O312	O	0.362641	0.419669	-0.438823
	H313	H	0.354568	0.432558	-0.432318
	H314	H	0.350587	0.403806	-0.444620
	O315	O	0.536224	0.596870	0.605047
	H316	H	0.544665	0.603615	0.617610
	H317	H	0.550589	0.606716	0.603286
	O318	O	0.167735	0.942231	1.004933
	H319	H	0.166117	0.938394	0.985114
	H320	H	0.179392	0.931185	1.001857
	O321	O	0.464330	0.398486	0.519283
	H322	H	0.462465	0.417098	0.518128
	H323	H	0.468276	0.400032	0.521929
	O324	O	0.058890	0.949135	0.205988
	H325	H	0.069449	0.948040	0.217464
	H326	H	0.058493	0.942241	0.191243
	O327	O	-0.059480	-0.037212	-0.052066
	H328	H	-0.057508	-0.040870	-0.047983
	H329	H	-0.066639	-0.026773	-0.044561
	O330	O	-0.042089	-0.053866	1.131288
	H331	H	-0.057578	-0.056042	1.134817
	H332	H	-0.040693	-0.061918	1.122313
	O333	O	-0.098617	-0.037045	0.936515
	H334	H	-0.105773	-0.029982	0.929855
	H335	H	-0.108231	-0.036918	0.936194
	O336	O	0.403485	0.435056	0.617497
	H337	H	0.402870	0.433050	0.624710
	H338	H	0.397829	0.430464	0.615351
	O339	O	0.993207	-0.132146	-0.048686
	H340	H	0.990934	-0.143235	-0.051887
	H341	H	0.986348	-0.136265	-0.054163
	O342	O	-0.155375	-0.065553	-0.037260
	H343	H	-0.162013	-0.062750	-0.043463
	H344	H	-0.152032	-0.055388	-0.019633
	O345	O	0.906843	0.012041	0.933118
	H346	H	0.891176	0.001803	0.923095
	H347	H	0.913370	0.024909	0.930769
	O348	O	0.903112	0.816910	0.172028
	H349	H	0.915880	0.816975	0.150469
	H350	H	0.905856	0.828281	0.167976
	O351	O	0.456449	0.366904	0.567414
	H352	H	0.458309	0.359023	0.566783
	H353	H	0.462253	0.375492	0.577172
	O354	O	1.035565	0.004904	0.894001
	H355	H	1.012845	0.004406	0.897584
	H356	H	1.035398	0.015128	0.884674
	O357	O	0.578414	0.343405	0.403998
	H358	H	0.581024	0.332548	0.389117
	H359	H	0.566269	0.337329	0.417513
	O360	O	0.996508	1.107068	0.855126
	H361	H	0.998021	1.117213	0.852133
	H362	H	1.006660	1.114789	0.858168
	O363	O	-0.123786	1.107459	0.974474
	H364	H	-0.121498	1.110375	0.966813
	H365	H	-0.104271	1.102011	0.969826
	O366	O	0.502107	0.438686	0.488403
	H367	H	0.511933	0.450783	0.494033
	H368	H	0.494947	0.446738	0.478739
	O369	O	-0.029329	0.870957	0.104542
	H370	H	-0.022274	0.875556	0.117897
	H371	H	-0.042514	0.867755	0.112473
	O372	O	0.074663	0.093145	0.113140
	H373	H	0.085526	0.091778	0.125114
	H374	H	0.081715	0.089746	0.122112
	O375	O	1.024503	0.788870	-0.085896
	H376	H	1.034928	0.782900	-0.086539
	H377	H	1.015076	0.789585	-0.089570
	O378	O	1.103891	0.943179	0.121394
	H379	H	1.098519	0.923827	0.110004
	H380	H	1.113485	0.950728	0.126153
	O381	O	0.349702	0.437952	-0.417454
	H382	H	0.351495	0.424747	-0.407299
	H383	H	0.360837	0.453277	-0.422189
	O384	O	1.332387	1.518180	-0.453355
	H385	H	1.333554	1.531737	-0.441170
	H386	H	1.327760	1.504707	-0.449372
	O387	O	-0.100492	0.121105	0.107781
	H388	H	-0.097305	0.115150	0.115061
	H389	H	-0.101979	0.131572	0.110787
	O390	O	-0.141833	0.846734	0.219392
	H391	H	-0.154460	0.827433	0.237824
	H392	H	-0.163292	0.828911	0.223422
	O393	O	0.350503	0.552802	0.501630
	H394	H	0.346523	0.557726	0.498523
	H395	H	0.360495	0.559635	0.496440
	O396	O	0.478829	0.567752	0.496438
	H397	H	0.468775	0.574809	0.481088
	H398	H	0.479299	0.583604	0.501042
	O399	O	0.531661	1.599538	1.388982
	H400	H	0.530704	1.612345	1.396379
	H401	H	0.534076	1.598724	1.394459
	O402	O	0.578376	0.477393	0.562334
	H403	H	0.577608	0.479403	0.571742
	H404	H	0.576547	0.460984	0.556727
	O405	O	1.129627	0.832737	-0.009605
	H406	H	1.117372	0.844480	-0.015511
	H407	H	1.137772	0.801847	-0.027906
	O408	O	0.848502	0.947839	0.082117
	H409	H	0.841662	0.936043	0.074629
	H410	H	0.859594	0.959079	0.082010
	O411	O	1.171979	0.085261	1.020456
	H412	H	1.172329	0.081518	1.038953
	H413	H	1.183156	0.094290	1.021474
	O414	O	1.071552	1.042336	0.899931
	H415	H	1.063037	1.022828	0.894200
	H416	H	1.075223	1.032727	0.910269
	O417	O	0.520900	0.586715	0.631770
	H418	H	0.518952	0.587001	0.610857
	H419	H	0.525641	0.591274	0.636393
