data_Molecule from HDF5

_cell_length_a		16.203173
_cell_length_b		16.139761
_cell_length_c		16.330957
_cell_angle_alpha	89.839857
_cell_angle_beta	90.355316
_cell_angle_gamma	89.897710
_symmetry_space_group_name_H-M	'P 1'
_symmetry_Int_Tables_number		1

loop_
	_symmetry_equiv_pos_as_xyz
	x,y,z

loop_
	_atom_site_label
	_atom_site_type_symbol
	_atom_site_fract_x
	_atom_site_fract_y
	_atom_site_fract_z
	H0	H	0.406692	0.830638	0.718242
	H1	H	0.606728	0.158747	0.719560
	H2	H	0.604414	0.829246	0.290264
	H3	H	0.404783	0.157748	0.287173
	H4	H	0.717128	0.396993	0.840256
	H5	H	0.720028	0.593462	0.166578
	H6	H	0.286448	0.595320	0.840944
	H7	H	0.291220	0.397482	0.167972
	H8	H	0.840341	0.707807	0.402644
	H9	H	0.168625	0.706124	0.600410
	H10	H	0.839414	0.279718	0.599589
	H11	H	0.169948	0.283003	0.408416
	H12	H	0.838935	0.393928	0.716601
	H13	H	0.166241	0.594087	0.720387
	H14	H	0.840975	0.594150	0.286227
	H15	H	0.167950	0.393666	0.289566
	H16	H	0.403473	0.710840	0.840364
	H17	H	0.600810	0.706526	0.168422
	H18	H	0.602028	0.280000	0.840559
	H19	H	0.406969	0.280354	0.167486
	H20	H	0.717040	0.828731	0.407294
	H21	H	0.718718	0.158982	0.601392
	H22	H	0.292975	0.829229	0.602091
	H23	H	0.291961	0.158999	0.404268
	H24	H	0.904506	0.329616	0.216879
	H25	H	0.104352	0.657891	0.219409
	H26	H	0.102868	0.329641	0.790343
	H27	H	0.901156	0.658074	0.786431
	H28	H	0.220875	0.894306	0.339863
	H29	H	0.220984	0.092749	0.665931
	H30	H	0.787860	0.093880	0.340149
	H31	H	0.792066	0.894279	0.665965
	H32	H	0.339127	0.208557	0.904897
	H33	H	0.669961	0.207895	0.101957
	H34	H	0.338869	0.783629	0.100938
	H35	H	0.669000	0.782779	0.910091
	H36	H	0.340627	0.896158	0.217784
	H37	H	0.669364	0.093708	0.219437
	H38	H	0.340990	0.097196	0.785265
	H39	H	0.669334	0.894480	0.791592
	H40	H	0.907205	0.208121	0.339046
	H41	H	0.104073	0.207359	0.666434
	H42	H	0.102367	0.780008	0.338907
	H43	H	0.907444	0.778377	0.664713
	H44	H	0.215988	0.328894	0.907460
	H45	H	0.215563	0.660004	0.101611
	H46	H	0.790124	0.330150	0.101456
	H47	H	0.790691	0.660339	0.904957
	H48	H	0.413672	0.114638	0.600850
	H49	H	0.595377	0.877101	0.597160
	H50	H	0.593708	0.108280	0.421460
	H51	H	0.409157	0.875192	0.412727
	H52	H	0.590893	0.387503	0.121754
	H53	H	0.599856	0.590733	0.886201
	H54	H	0.405095	0.584126	0.120658
	H55	H	0.416832	0.407794	0.891390
	H56	H	0.124631	0.589366	0.403708
	H57	H	0.887796	0.593000	0.581648
	H58	H	0.122669	0.391625	0.592915
	H59	H	0.886003	0.404488	0.402754
	H60	H	0.116590	0.410917	0.594601
	H61	H	0.890023	0.571347	0.597518
	H62	H	0.121937	0.590544	0.416363
	H63	H	0.883800	0.394498	0.408669
	H64	H	0.415733	0.586961	0.117895
	H65	H	0.596313	0.584976	0.888879
	H66	H	0.613589	0.403064	0.123860
	H67	H	0.410680	0.392342	0.884368
	H68	H	0.605910	0.115667	0.409248
	H69	H	0.602636	0.875924	0.597373
	H70	H	0.419303	0.110240	0.592725
	H71	H	0.412776	0.874464	0.406009
	H72	H	0.911396	0.613979	0.098254
	H73	H	0.093565	0.375523	0.100587
	H74	H	0.099132	0.613877	0.909133
	H75	H	0.905212	0.374500	0.907858
	H76	H	0.096435	0.903373	0.617266
	H77	H	0.099892	0.091179	0.384885
	H78	H	0.903782	0.087777	0.622301
	H79	H	0.910832	0.904561	0.386642
	H80	H	0.624689	0.093786	0.906479
	H81	H	0.386095	0.087931	0.100469
	H82	H	0.624234	0.895221	0.100285
	H83	H	0.385709	0.906662	0.902830
	H84	H	0.620321	0.903168	0.092476
	H85	H	0.387925	0.089735	0.094728
	H86	H	0.619021	0.088118	0.920134
	H87	H	0.385485	0.897372	0.910462
	H88	H	0.914643	0.078797	0.616315
	H89	H	0.100861	0.085078	0.385931
	H90	H	0.098666	0.895310	0.619119
	H91	H	0.912221	0.899341	0.385339
	H92	H	0.090844	0.612304	0.907390
	H93	H	0.096471	0.378029	0.092681
	H94	H	0.914210	0.611861	0.096014
	H95	H	0.915270	0.376715	0.907335
	H96	H	0.408660	0.112108	0.592131
	H97	H	0.598473	0.874928	0.603395
	H98	H	0.588398	0.111347	0.403806
	H99	H	0.417092	0.877300	0.411900
	H100	H	0.590461	0.414132	0.114575
	H101	H	0.593143	0.591443	0.887442
	H102	H	0.408696	0.594273	0.122280
	H103	H	0.399725	0.406484	0.886624
	H104	H	0.119803	0.578441	0.410389
	H105	H	0.880314	0.594872	0.607550
	H106	H	0.123833	0.401793	0.609712
	H107	H	0.889098	0.403814	0.413957
	H108	H	0.910712	0.612129	0.093909
	H109	H	0.101683	0.374569	0.098457
	H110	H	0.093938	0.610715	0.915291
	H111	H	0.910286	0.377978	0.916322
	H112	H	0.104024	0.902024	0.619584
	H113	H	0.095258	0.087729	0.387637
	H114	H	0.917559	0.094221	0.619795
	H115	H	0.907634	0.901206	0.385046
	H116	H	0.620507	0.079283	0.907715
	H117	H	0.388765	0.084431	0.096417
	H118	H	0.622919	0.905817	0.102854
	H119	H	0.389373	0.908487	0.914589
	C120	C	0.384839	0.003324	0.624328
	C121	C	0.627594	0.985355	0.626835
	C122	C	0.625319	0.002695	0.383210
	C123	C	0.383667	0.984914	0.381305
	C124	C	0.625772	0.373121	0.012136
	C125	C	0.625400	0.617002	0.995188
	C126	C	0.380922	0.617672	0.012447
	C127	C	0.381650	0.373406	0.995442
	C128	C	0.013490	0.614784	0.380680
	C129	C	0.994538	0.615405	0.624374
	C130	C	0.012568	0.372225	0.626161
	C131	C	0.995473	0.372810	0.381500
	C132	C	0.883229	0.503208	0.124380
	C133	C	0.125484	0.485452	0.125486
	C134	C	0.123919	0.503026	0.882985
	C135	C	0.881443	0.485803	0.881624
	C136	C	0.127567	0.871832	0.510865
	C137	C	0.127374	0.116245	0.494248
	C138	C	0.882753	0.116032	0.511366
	C139	C	0.883088	0.872489	0.493851
	C140	C	0.512749	0.116571	0.881808
	C141	C	0.496500	0.115954	0.125749
	C142	C	0.513139	0.873507	0.125896
	C143	C	0.495925	0.874397	0.882535
	C144	C	0.386766	0.879582	0.680225
	C145	C	0.626356	0.109384	0.681721
	C146	C	0.623960	0.878531	0.328123
	C147	C	0.385138	0.108957	0.325932
	C148	C	0.680297	0.375757	0.889308
	C149	C	0.681643	0.614189	0.118234
	C150	C	0.325069	0.615608	0.889382
	C151	C	0.328257	0.376474	0.118968
	C152	C	0.889557	0.670031	0.382588
	C153	C	0.118966	0.669490	0.621733
	C154	C	0.888562	0.317058	0.621333
	C155	C	0.120291	0.319504	0.386838
	C156	C	0.888147	0.373776	0.679357
	C157	C	0.117753	0.614143	0.681464
	C158	C	0.889999	0.613931	0.324398
	C159	C	0.119295	0.374619	0.327721
	C160	C	0.383391	0.672831	0.889236
	C161	C	0.622542	0.670417	0.119024
	C162	C	0.622550	0.318071	0.889207
	C163	C	0.386056	0.318761	0.119022
	C164	C	0.679863	0.878104	0.386252
	C165	C	0.682023	0.109606	0.622893
	C166	C	0.330103	0.878827	0.622413
	C167	C	0.329000	0.109310	0.383789
	C168	C	0.884960	0.378859	0.179057
	C169	C	0.123664	0.609155	0.180935
	C170	C	0.122663	0.378898	0.828303
	C171	C	0.882387	0.609405	0.825323
	C172	C	0.182365	0.874326	0.388201
	C173	C	0.182952	0.113179	0.617208
	C174	C	0.826314	0.114380	0.388726
	C175	C	0.829491	0.874540	0.616981
	C176	C	0.388535	0.171522	0.884155
	C177	C	0.620618	0.170569	0.122865
	C178	C	0.388604	0.819887	0.122050
	C179	C	0.619784	0.819536	0.888032
	C180	C	0.389428	0.875924	0.180141
	C181	C	0.620170	0.114298	0.181703
	C182	C	0.389711	0.116190	0.824431
	C183	C	0.619949	0.875158	0.828981
	C184	C	0.885908	0.170621	0.387982
	C185	C	0.124800	0.170491	0.617544
	C186	C	0.123807	0.817180	0.387852
	C187	C	0.886735	0.816798	0.616421
	C188	C	0.179291	0.378863	0.886200
	C189	C	0.179284	0.610063	0.122612
	C190	C	0.827710	0.379272	0.121726
	C191	C	0.827408	0.610611	0.884190
	C192	C	0.407255	0.089819	0.601670
	C193	C	0.605502	0.898486	0.605573
	C194	C	0.602529	0.089406	0.405102
	C195	C	0.406185	0.898036	0.403713
	C196	C	0.604379	0.394904	0.097954
	C197	C	0.603027	0.595419	0.909782
	C198	C	0.403171	0.595117	0.097985
	C199	C	0.402871	0.395418	0.909646
	C200	C	0.099981	0.592476	0.403461
	C201	C	0.908350	0.593088	0.602057
	C202	C	0.098656	0.394875	0.605394
	C203	C	0.908785	0.394530	0.402383
	C204	C	0.905710	0.590098	0.102543
	C205	C	0.103574	0.398479	0.103663
	C206	C	0.101089	0.589950	0.904183
	C207	C	0.903569	0.398891	0.903871
	C208	C	0.105976	0.893730	0.596563
	C209	C	0.105233	0.094430	0.408435
	C210	C	0.905339	0.093664	0.597257
	C211	C	0.904095	0.895115	0.407759
	C212	C	0.599004	0.093768	0.904783
	C213	C	0.409830	0.093924	0.103656
	C214	C	0.600068	0.895089	0.104842
	C215	C	0.409169	0.897423	0.902960
	Zn216	Zn	0.505232	-0.005106	0.753679
	Zn217	Zn	0.505383	-0.005991	0.254390
	Zn218	Zn	0.754737	0.495871	0.003451
	Zn219	Zn	0.252494	0.495038	0.004029
	Zn220	Zn	0.004360	0.743119	0.501918
	Zn221	Zn	0.005014	0.245024	0.503054
	Zn222	Zn	0.002284	0.493960	0.754242
	Zn223	Zn	0.004265	0.493462	0.252776
	Zn224	Zn	0.503470	0.746086	0.004480
	Zn225	Zn	0.504089	0.244210	0.004111
	Zn226	Zn	0.753637	-0.006043	0.503368
	Zn227	Zn	0.256616	-0.005911	0.502877
	N228	N	0.420027	0.957948	0.681602
	N229	N	0.593092	0.031117	0.684177
	N230	N	0.590780	0.957106	0.326200
	N231	N	0.418619	0.030663	0.324502
	N232	N	0.682253	0.409695	0.966512
	N233	N	0.683542	0.581745	0.040537
	N234	N	0.323520	0.581941	0.966817
	N235	N	0.325430	0.409567	0.041296
	N236	N	0.967276	0.670677	0.416913
	N237	N	0.041493	0.670349	0.587051
	N238	N	0.966706	0.315988	0.588932
	N239	N	0.042275	0.318090	0.419564
	N240	N	0.966100	0.407319	0.682664
	N241	N	0.039521	0.581024	0.683193
	N242	N	0.968021	0.580213	0.323102
	N243	N	0.040696	0.407100	0.324418
	N244	N	0.417283	0.674444	0.966718
	N245	N	0.588205	0.672321	0.041758
	N246	N	0.589555	0.316226	0.966725
	N247	N	0.418467	0.316589	0.041305
	N248	N	0.680575	0.956215	0.419863
	N249	N	0.682830	0.031506	0.589440
	N250	N	0.328914	0.956754	0.588187
	N251	N	0.327994	0.031064	0.417543
	N252	N	0.918859	0.456891	0.180743
	N253	N	0.091028	0.530548	0.182958
	N254	N	0.088787	0.457277	0.825998
	N255	N	0.915374	0.530748	0.823719
	N256	N	0.184863	0.907451	0.465821
	N257	N	0.184449	0.080063	0.539670
	N258	N	0.824740	0.080851	0.466251
	N259	N	0.827072	0.908527	0.539686
	N260	N	0.466095	0.172030	0.918933
	N261	N	0.542687	0.171748	0.088808
	N262	N	0.466589	0.818292	0.089064
	N263	N	0.541543	0.818992	0.920489
	N264	N	0.467953	0.908597	0.182669
	N265	N	0.541961	0.080994	0.183374
	N266	N	0.467885	0.082777	0.822951
	N267	N	0.541693	0.908417	0.825382
	N268	N	0.920234	0.171870	0.465369
	N269	N	0.090630	0.172403	0.540187
	N270	N	0.090218	0.815583	0.465004
	N271	N	0.919332	0.815412	0.538820
	N272	N	0.180197	0.457139	0.919303
	N273	N	0.180709	0.531944	0.089078
	N274	N	0.826800	0.457539	0.088218
	N275	N	0.826633	0.532693	0.918525
	O276	O	1.008287	1.046936	-0.090405
	H277	H	1.009341	1.052431	-0.085230
	H278	H	1.007903	1.051546	-0.091884
	O279	O	-0.030186	0.066944	-0.106903
	H280	H	-0.037355	0.069378	-0.118322
	H281	H	-0.024603	0.069263	-0.093082
	O282	O	0.052984	-0.034676	0.929230
	H283	H	0.051236	-0.024691	0.930879
	H284	H	0.046404	-0.038224	0.926864
	O285	O	0.453433	0.474437	0.588143
	H286	H	0.453443	0.482148	0.584646
	H287	H	0.438785	0.471853	0.584957
	O288	O	0.489934	0.455304	0.538288
	H289	H	0.479630	0.441425	0.537649
	H290	H	0.501222	0.461435	0.539099
	O291	O	0.495175	0.472063	0.505913
	H292	H	0.504365	0.464456	0.500084
	H293	H	0.495806	0.466693	0.521211
	O294	O	0.016014	-0.056634	-0.063123
	H295	H	0.016402	-0.062289	-0.062223
	H296	H	0.012268	-0.046721	-0.064336
	O297	O	0.469123	0.473889	0.509977
	H298	H	0.474185	0.476477	0.511902
	H299	H	0.473079	0.482880	0.502295
	O300	O	-0.011864	1.021980	0.962719
	H301	H	-0.014108	1.018695	0.959642
	H302	H	-0.008809	1.032247	0.949337
	O303	O	0.488349	0.444702	0.608779
	H304	H	0.483733	0.443662	0.622259
	H305	H	0.480978	0.453851	0.609470
	O306	O	0.048282	0.038605	1.026736
	H307	H	0.047011	0.030099	1.017744
	H308	H	0.052918	0.043326	1.024864
	O309	O	1.012398	1.011388	1.015190
	H310	H	1.015244	1.012250	1.009759
	H311	H	1.007895	1.010784	1.013318
	O312	O	0.462815	0.501618	0.508309
	H313	H	0.456271	0.499937	0.506025
	H314	H	0.468916	0.501917	0.508897
	O315	O	0.017379	1.035614	0.041203
	H316	H	0.016806	1.032833	0.036881
	H317	H	0.018117	1.029444	0.048941
	O318	O	0.029152	1.019969	-0.018402
	H319	H	0.024275	1.021748	-0.015530
	H320	H	0.041285	1.027054	-0.011780
	O321	O	1.002112	1.008705	-0.041667
	H322	H	0.998270	1.001981	-0.048450
	H323	H	0.999792	1.010314	-0.033674
