data_Molecule from HDF5

_cell_length_a		16.133378
_cell_length_b		16.232902
_cell_length_c		16.338872
_cell_angle_alpha	90.028739
_cell_angle_beta	89.353914
_cell_angle_gamma	90.099602
_symmetry_space_group_name_H-M	'P 1'
_symmetry_Int_Tables_number		1

loop_
	_symmetry_equiv_pos_as_xyz
	x,y,z

loop_
	_atom_site_label
	_atom_site_type_symbol
	_atom_site_fract_x
	_atom_site_fract_y
	_atom_site_fract_z
	H0	H	0.398075	0.836279	0.721170
	H1	H	0.603804	0.161175	0.715102
	H2	H	0.606099	0.835962	0.282402
	H3	H	0.405334	0.162849	0.289080
	H4	H	0.721959	0.400921	0.839452
	H5	H	0.716577	0.597093	0.166236
	H6	H	0.291336	0.599314	0.838583
	H7	H	0.286462	0.399255	0.164228
	H8	H	0.838481	0.710780	0.403632
	H9	H	0.166375	0.712078	0.601012
	H10	H	0.837719	0.282976	0.601449
	H11	H	0.168306	0.281842	0.401482
	H12	H	0.840489	0.394463	0.721157
	H13	H	0.168168	0.596825	0.713271
	H14	H	0.839071	0.595552	0.288248
	H15	H	0.166765	0.394293	0.283176
	H16	H	0.408339	0.713637	0.838394
	H17	H	0.604405	0.716648	0.163374
	H18	H	0.607999	0.283476	0.839336
	H19	H	0.402994	0.283383	0.164478
	H20	H	0.715136	0.832770	0.402586
	H21	H	0.716894	0.160245	0.598249
	H22	H	0.288128	0.833888	0.600794
	H23	H	0.289899	0.162228	0.405852
	H24	H	0.900354	0.334100	0.217717
	H25	H	0.107976	0.658419	0.220949
	H26	H	0.110410	0.335884	0.781536
	H27	H	0.902441	0.658359	0.785130
	H28	H	0.221475	0.895978	0.339275
	H29	H	0.216092	0.096853	0.664795
	H30	H	0.790879	0.092746	0.338014
	H31	H	0.781076	0.893370	0.663119
	H32	H	0.340211	0.215501	0.903609
	H33	H	0.669569	0.213565	0.098214
	H34	H	0.340245	0.783298	0.103525
	H35	H	0.668898	0.785686	0.898392
	H36	H	0.339963	0.899490	0.218114
	H37	H	0.669102	0.100899	0.215583
	H38	H	0.339905	0.102168	0.787694
	H39	H	0.665891	0.897936	0.780895
	H40	H	0.901649	0.213063	0.339657
	H41	H	0.103910	0.214764	0.663461
	H42	H	0.104471	0.779972	0.339780
	H43	H	0.896898	0.777445	0.662977
	H44	H	0.223200	0.335471	0.899336
	H45	H	0.215827	0.662382	0.099027
	H46	H	0.785881	0.335153	0.103839
	H47	H	0.794596	0.662115	0.906505
	H48	H	0.411594	0.114875	0.594756
	H49	H	0.588670	0.881562	0.593789
	H50	H	0.601090	0.117828	0.401843
	H51	H	0.409529	0.882519	0.414242
	H52	H	0.607389	0.412578	0.120679
	H53	H	0.605695	0.597372	0.882481
	H54	H	0.413844	0.592574	0.116655
	H55	H	0.416789	0.403105	0.885815
	H56	H	0.120604	0.583689	0.404181
	H57	H	0.885668	0.587951	0.592978
	H58	H	0.121821	0.406152	0.597440
	H59	H	0.884464	0.400463	0.406137
	H60	H	0.121984	0.398527	0.588215
	H61	H	0.887876	0.581924	0.593815
	H62	H	0.121376	0.592360	0.410732
	H63	H	0.885485	0.401500	0.413268
	H64	H	0.408273	0.594584	0.118497
	H65	H	0.602869	0.585679	0.887449
	H66	H	0.585532	0.412566	0.113382
	H67	H	0.412358	0.408064	0.885985
	H68	H	0.591282	0.114083	0.405885
	H69	H	0.590871	0.882000	0.591474
	H70	H	0.407585	0.115599	0.594706
	H71	H	0.409445	0.878807	0.404032
	H72	H	0.909032	0.614395	0.090948
	H73	H	0.099122	0.382143	0.084872
	H74	H	0.101152	0.615330	0.906787
	H75	H	0.916684	0.383604	0.918703
	H76	H	0.092950	0.898903	0.618545
	H77	H	0.100799	0.084671	0.386368
	H78	H	0.910195	0.080245	0.614923
	H79	H	0.915851	0.905404	0.388156
	H80	H	0.621440	0.086903	0.904346
	H81	H	0.387761	0.092890	0.092864
	H82	H	0.620192	0.909061	0.088081
	H83	H	0.395053	0.917634	0.927030
	H84	H	0.621780	0.911502	0.094535
	H85	H	0.387799	0.086778	0.094956
	H86	H	0.622861	0.094524	0.906110
	H87	H	0.384545	0.915766	0.894606
	H88	H	0.915010	0.093939	0.617110
	H89	H	0.090234	0.086369	0.387908
	H90	H	0.097524	0.905596	0.617360
	H91	H	0.912671	0.897304	0.384590
	H92	H	0.094573	0.615048	0.903712
	H93	H	0.098169	0.377434	0.098451
	H94	H	0.909920	0.617392	0.103453
	H95	H	0.907522	0.377875	0.910501
	H96	H	0.410487	0.115194	0.597580
	H97	H	0.591385	0.880159	0.594263
	H98	H	0.600834	0.114908	0.412688
	H99	H	0.418985	0.883021	0.408458
	H100	H	0.594598	0.392971	0.121770
	H101	H	0.594017	0.595478	0.886407
	H102	H	0.409301	0.589511	0.117223
	H103	H	0.417942	0.410182	0.887893
	H104	H	0.117475	0.582416	0.414056
	H105	H	0.884901	0.585370	0.597971
	H106	H	0.117246	0.409730	0.587212
	H107	H	0.886018	0.407212	0.408449
	H108	H	0.920590	0.612463	0.096259
	H109	H	0.087004	0.383648	0.092085
	H110	H	0.095023	0.613008	0.910954
	H111	H	0.920552	0.379622	0.906001
	H112	H	0.089842	0.905991	0.616045
	H113	H	0.096198	0.093823	0.384333
	H114	H	0.901319	0.090367	0.620258
	H115	H	0.906623	0.904365	0.384772
	H116	H	0.620209	0.090253	0.910843
	H117	H	0.386217	0.091806	0.099188
	H118	H	0.623494	0.904667	0.093391
	H119	H	0.381418	0.888942	0.915075
	C120	C	0.379621	0.007160	0.625331
	C121	C	0.621674	0.988844	0.621789
	C122	C	0.626151	0.007089	0.378213
	C123	C	0.383130	0.989769	0.380935
	C124	C	0.626807	0.377235	0.010780
	C125	C	0.627936	0.621653	0.992888
	C126	C	0.382822	0.621454	0.009827
	C127	C	0.383730	0.377287	0.993493
	C128	C	0.011589	0.616166	0.380783
	C129	C	0.994445	0.616316	0.623218
	C130	C	0.012034	0.374999	0.622577
	C131	C	0.994229	0.373580	0.379234
	C132	C	0.882253	0.506258	0.124918
	C133	C	0.124619	0.488684	0.122000
	C134	C	0.127796	0.506994	0.877485
	C135	C	0.885107	0.488233	0.882415
	C136	C	0.124389	0.874144	0.510290
	C137	C	0.124275	0.118014	0.493293
	C138	C	0.880581	0.117269	0.510076
	C139	C	0.879958	0.873220	0.493040
	C140	C	0.512910	0.120794	0.879708
	C141	C	0.496071	0.120302	0.123288
	C142	C	0.512862	0.878356	0.122477
	C143	C	0.495061	0.878328	0.880385
	C144	C	0.379264	0.884932	0.682624
	C145	C	0.622543	0.112095	0.676957
	C146	C	0.624870	0.884342	0.321411
	C147	C	0.385162	0.113699	0.326496
	C148	C	0.683994	0.379709	0.888210
	C149	C	0.680373	0.618221	0.116653
	C150	C	0.329127	0.619218	0.887187
	C151	C	0.325446	0.379251	0.115568
	C152	C	0.887631	0.672369	0.383534
	C153	C	0.117724	0.673275	0.620311
	C154	C	0.887595	0.319875	0.621944
	C155	C	0.118463	0.318918	0.381002
	C156	C	0.889152	0.375306	0.681568
	C157	C	0.118463	0.616094	0.676764
	C158	C	0.888035	0.615566	0.325739
	C159	C	0.117784	0.374637	0.322116
	C160	C	0.386842	0.676556	0.887303
	C161	C	0.624414	0.677413	0.115475
	C162	C	0.626992	0.321500	0.888195
	C163	C	0.383199	0.321377	0.115832
	C164	C	0.679172	0.882617	0.381177
	C165	C	0.679155	0.111464	0.619161
	C166	C	0.324722	0.883505	0.622483
	C167	C	0.327713	0.113442	0.384460
	C168	C	0.881239	0.383246	0.180308
	C169	C	0.125471	0.610558	0.180606
	C170	C	0.128934	0.384461	0.820297
	C171	C	0.884514	0.610292	0.824723
	C172	C	0.182599	0.875804	0.388025
	C173	C	0.178848	0.116666	0.615893
	C174	C	0.827297	0.114111	0.387044
	C175	C	0.820654	0.873945	0.614677
	C176	C	0.389414	0.177554	0.883055
	C177	C	0.620188	0.175796	0.119393
	C178	C	0.389421	0.821830	0.122188
	C179	C	0.619172	0.822844	0.879521
	C180	C	0.389146	0.879374	0.179739
	C181	C	0.619953	0.119804	0.177804
	C182	C	0.389086	0.120984	0.825451
	C183	C	0.617735	0.878864	0.821012
	C184	C	0.882709	0.173697	0.387830
	C185	C	0.122733	0.175241	0.615191
	C186	C	0.124403	0.817996	0.388153
	C187	C	0.878524	0.816358	0.614765
	C188	C	0.185174	0.384273	0.878935
	C189	C	0.179732	0.612450	0.120366
	C190	C	0.824334	0.383869	0.123415
	C191	C	0.830816	0.612176	0.885305
	C192	C	0.403049	0.093124	0.602398
	C193	C	0.597307	0.903416	0.599646
	C194	C	0.604165	0.093390	0.400413
	C195	C	0.405806	0.903871	0.402503
	C196	C	0.602776	0.399347	0.096387
	C197	C	0.607149	0.599499	0.907598
	C198	C	0.404030	0.598860	0.095333
	C199	C	0.408263	0.400417	0.908406
	C200	C	0.097611	0.592982	0.403072
	C201	C	0.908482	0.592198	0.601384
	C202	C	0.098025	0.397976	0.598149
	C203	C	0.907779	0.396264	0.402580
	C204	C	0.906309	0.592284	0.103181
	C205	C	0.101467	0.403380	0.098512
	C206	C	0.103994	0.592181	0.900403
	C207	C	0.908176	0.402593	0.905158
	C208	C	0.100390	0.896972	0.595258
	C209	C	0.102298	0.094897	0.408237
	C210	C	0.902544	0.094702	0.595292
	C211	C	0.904578	0.895682	0.408047
	C212	C	0.599059	0.097464	0.900893
	C213	C	0.409716	0.097146	0.102150
	C214	C	0.599407	0.901765	0.098906
	C215	C	0.409168	0.900943	0.904999
	Zn216	Zn	0.502354	-0.000485	0.752191
	Zn217	Zn	0.504634	-0.000616	0.251277
	Zn218	Zn	0.755990	0.498459	0.003147
	Zn219	Zn	0.254372	0.499213	0.000942
	Zn220	Zn	0.002614	0.744363	0.502181
	Zn221	Zn	0.002443	0.246094	0.501266
	Zn222	Zn	0.004359	0.496635	0.751873
	Zn223	Zn	0.003244	0.495924	0.251657
	Zn224	Zn	0.505122	0.750076	0.001148
	Zn225	Zn	0.505151	0.248010	0.001786
	Zn226	Zn	0.751797	-0.004245	0.501273
	Zn227	Zn	0.253361	-0.002559	0.501916
	N228	N	0.412411	0.963102	0.684556
	N229	N	0.587475	0.034949	0.678565
	N230	N	0.592682	0.962897	0.319526
	N231	N	0.418796	0.035905	0.324143
	N232	N	0.683836	0.413595	0.965281
	N233	N	0.682771	0.584120	0.039547
	N234	N	0.326363	0.585779	0.964424
	N235	N	0.325417	0.413083	0.038280
	N236	N	0.965623	0.672964	0.416967
	N237	N	0.039486	0.673733	0.587848
	N238	N	0.965135	0.319375	0.586032
	N239	N	0.040462	0.317851	0.415528
	N240	N	0.967536	0.408651	0.682212
	N241	N	0.040613	0.581462	0.678814
	N242	N	0.965950	0.581254	0.324011
	N243	N	0.039225	0.407443	0.320605
	N244	N	0.419564	0.678019	0.964615
	N245	N	0.592388	0.679813	0.037850
	N246	N	0.592144	0.319696	0.965570
	N247	N	0.418647	0.319982	0.038971
	N248	N	0.680109	0.959810	0.415692
	N249	N	0.678813	0.033743	0.585474
	N250	N	0.324500	0.960646	0.587805
	N251	N	0.326287	0.035516	0.417626
	N252	N	0.916474	0.460401	0.181449
	N253	N	0.091992	0.532446	0.182018
	N254	N	0.093757	0.461478	0.819379
	N255	N	0.917649	0.532139	0.822837
	N256	N	0.182846	0.910020	0.464934
	N257	N	0.179891	0.081641	0.539200
	N258	N	0.825674	0.079840	0.464067
	N259	N	0.821570	0.908635	0.538026
	N260	N	0.467411	0.177614	0.916219
	N261	N	0.542279	0.176299	0.086391
	N262	N	0.467509	0.821379	0.087429
	N263	N	0.541925	0.822747	0.916104
	N264	N	0.467148	0.913713	0.179991
	N265	N	0.541651	0.085824	0.180233
	N266	N	0.466768	0.086395	0.823292
	N267	N	0.539719	0.912449	0.821179
	N268	N	0.915129	0.175946	0.465378
	N269	N	0.089493	0.176311	0.537975
	N270	N	0.089028	0.816763	0.465053
	N271	N	0.914884	0.815720	0.538189
	N272	N	0.184690	0.461421	0.913805
	N273	N	0.179460	0.535891	0.084447
	N274	N	0.824649	0.461626	0.089985
	N275	N	0.831067	0.535256	0.920531
	O276	O	1.017436	1.001226	-0.079855
	H277	H	1.017663	0.993963	-0.095806
	H278	H	0.998085	1.013669	-0.079104
	O279	O	0.448243	0.607506	0.429016
	H280	H	0.440460	0.602625	0.427073
	H281	H	0.454504	0.603477	0.426857
	O282	O	1.068339	0.946137	0.060032
	H283	H	1.056114	0.937566	0.062348
	H284	H	1.072007	0.949211	0.050894
	O285	O	0.990026	-0.059780	1.029440
	H286	H	0.980614	-0.042656	1.026973
	H287	H	0.987642	-0.055623	1.045522
	O288	O	0.479618	0.544999	0.488489
	H289	H	0.493856	0.553738	0.483343
	H290	H	0.483655	0.556774	0.501596
	O291	O	0.492362	0.488818	0.478490
	H292	H	0.496899	0.491659	0.485779
	H293	H	0.493468	0.474492	0.474469
	O294	O	0.515619	0.492662	0.535501
	H295	H	0.509003	0.492975	0.532889
	H296	H	0.530316	0.493764	0.535605
	O297	O	0.071089	-0.011766	0.910345
	H298	H	0.073356	-0.010687	0.917822
	H299	H	0.078348	-0.001737	0.908184
	O300	O	0.525784	0.462553	0.577538
	H301	H	0.524025	0.467120	0.577044
	H302	H	0.529086	0.463710	0.580385
	O303	O	0.922964	0.993399	0.135011
	H304	H	0.937468	0.993819	0.129776
	H305	H	0.916146	0.983924	0.127823
	O306	O	0.011534	1.184620	1.106206
	H307	H	0.010594	1.184751	1.115056
	H308	H	0.022383	1.189510	1.112366
	O309	O	-0.096628	0.037307	1.027584
	H310	H	-0.101035	0.034410	1.040956
	H311	H	-0.089771	0.027858	1.035681
	O312	O	0.046355	-0.032119	-0.089617
	H313	H	0.058898	-0.032815	-0.080408
	H314	H	0.050787	-0.022462	-0.085201
	O315	O	1.089243	0.047606	0.095228
	H316	H	1.093190	0.040889	0.086609
	H317	H	1.084642	0.036661	0.080964
	O318	O	1.161174	0.940848	1.095088
	H319	H	1.158388	0.936895	1.093747
	H320	H	1.155201	0.935636	1.107249
	O321	O	-0.030568	-0.058734	1.026219
	H322	H	-0.025586	-0.055644	1.027614
	H323	H	-0.042807	-0.047622	1.031302
	O324	O	0.455510	0.520644	0.472927
	H325	H	0.453035	0.530744	0.472889
	H326	H	0.461809	0.517519	0.474595
	O327	O	-0.002414	-0.003041	-0.026891
	H328	H	-0.016232	-0.006059	-0.025029
	H329	H	0.010186	-0.006290	-0.026284
	O330	O	0.416280	0.445397	0.613583
	H331	H	0.403730	0.445979	0.626576
	H332	H	0.407722	0.447117	0.608991
	O333	O	-0.070998	1.127272	0.870190
	H334	H	-0.071890	1.124067	0.859569
	H335	H	-0.069614	1.128161	0.875998
	O336	O	0.038964	-0.045037	0.058562
	H337	H	0.051229	-0.048142	0.049711
	H338	H	0.036538	-0.035396	0.059294
	O339	O	0.414890	0.499058	0.494700
	H340	H	0.409186	0.487250	0.496005
	H341	H	0.423209	0.500541	0.495985
	O342	O	1.147534	1.007316	1.005890
	H343	H	1.146275	1.008202	1.004535
	H344	H	1.144894	1.009484	0.999592
	O345	O	0.981350	0.946495	0.031414
	H346	H	0.976593	0.943724	0.024309
	H347	H	0.970613	0.953992	0.051985
	O348	O	0.508412	0.520091	0.458191
	H349	H	0.496385	0.520431	0.448749
	H350	H	0.505668	0.516526	0.464936
	O351	O	0.059723	1.092495	0.143889
	H352	H	0.075410	1.091056	0.149219
	H353	H	0.064570	1.090624	0.140274
	O354	O	0.530730	0.504935	0.531437
	H355	H	0.529868	0.503200	0.529203
	H356	H	0.527456	0.508177	0.544737
	O357	O	1.054746	-0.117869	0.984359
	H358	H	1.051733	-0.125468	0.984304
	H359	H	1.046043	-0.113580	0.973972
	O360	O	0.494644	0.498414	0.549027
	H361	H	0.496687	0.496063	0.546601
	H362	H	0.483704	0.496603	0.549741
	O363	O	0.474072	0.536174	0.463325
	H364	H	0.469777	0.533241	0.466922
	H365	H	0.468308	0.543602	0.457948
	O366	O	0.934387	0.955492	0.846055
	H367	H	0.939889	0.942786	0.834923
	H368	H	0.928467	0.961480	0.844543
	O369	O	0.852656	0.031463	1.005496
	H370	H	0.858927	0.043161	0.998722
	H371	H	0.849666	0.033504	1.016764
	O372	O	0.001038	-0.161604	-0.164665
	H373	H	0.022629	-0.170659	-0.179002
	H374	H	0.015268	-0.162971	-0.164493
	O375	O	0.996967	0.070530	-0.038615
	H376	H	0.985417	0.057731	-0.041008
	H377	H	1.003764	0.080951	-0.044820
	O378	O	0.533428	0.420487	0.455922
	H379	H	0.531552	0.419943	0.450475
	H380	H	0.535700	0.414510	0.453593
	O381	O	0.497403	0.553312	0.589322
	H382	H	0.503338	0.553785	0.587405
	H383	H	0.499497	0.549079	0.576861
