data_Molecule from HDF5

_cell_length_a		16.612516
_cell_length_b		16.437127
_cell_length_c		16.372636
_cell_angle_alpha	90.045779
_cell_angle_beta	90.027947
_cell_angle_gamma	89.730876
_symmetry_space_group_name_H-M	'P 1'
_symmetry_Int_Tables_number		1

loop_
	_symmetry_equiv_pos_as_xyz
	x,y,z

loop_
	_atom_site_label
	_atom_site_type_symbol
	_atom_site_fract_x
	_atom_site_fract_y
	_atom_site_fract_z
	H0	H	0.406108	0.834444	0.716861
	H1	H	0.610456	0.153033	0.720804
	H2	H	0.612061	0.835815	0.278287
	H3	H	0.399326	0.151598	0.275250
	H4	H	0.730360	0.384189	0.841689
	H5	H	0.728428	0.600408	0.156593
	H6	H	0.283818	0.600398	0.839826
	H7	H	0.285049	0.388425	0.155971
	H8	H	0.849740	0.718711	0.391184
	H9	H	0.163599	0.714669	0.602513
	H10	H	0.850002	0.270231	0.606569
	H11	H	0.162007	0.272091	0.392830
	H12	H	0.848355	0.389509	0.719723
	H13	H	0.162907	0.596664	0.718791
	H14	H	0.849061	0.600938	0.275839
	H15	H	0.163098	0.390769	0.278374
	H16	H	0.402231	0.713172	0.838443
	H17	H	0.609929	0.714479	0.157823
	H18	H	0.612436	0.270904	0.840050
	H19	H	0.401871	0.273181	0.156768
	H20	H	0.730723	0.838361	0.391243
	H21	H	0.728262	0.153297	0.605822
	H22	H	0.285663	0.837167	0.605049
	H23	H	0.279341	0.149320	0.387672
	H24	H	0.903787	0.334825	0.218859
	H25	H	0.108125	0.652816	0.217838
	H26	H	0.109955	0.335157	0.777002
	H27	H	0.902257	0.653318	0.780140
	H28	H	0.229204	0.888094	0.341144
	H29	H	0.230355	0.102002	0.654994
	H30	H	0.780431	0.106608	0.341757
	H31	H	0.787481	0.892424	0.656870
	H32	H	0.350180	0.217706	0.890500
	H33	H	0.661409	0.217096	0.105545
	H34	H	0.347902	0.777091	0.100032
	H35	H	0.664186	0.772650	0.895530
	H36	H	0.350314	0.890566	0.220420
	H37	H	0.663215	0.098984	0.219127
	H38	H	0.349738	0.097729	0.776935
	H39	H	0.665420	0.891367	0.780268
	H40	H	0.902021	0.216048	0.339792
	H41	H	0.112336	0.216924	0.655696
	H42	H	0.109769	0.776115	0.338748
	H43	H	0.904160	0.776857	0.656568
	H44	H	0.229189	0.336505	0.890689
	H45	H	0.226599	0.651193	0.103176
	H46	H	0.784592	0.335938	0.105682
	H47	H	0.783221	0.651279	0.894610
	H48	H	0.417596	0.106310	0.583740
	H49	H	0.601797	0.882299	0.581281
	H50	H	0.599231	0.111602	0.404506
	H51	H	0.418408	0.880838	0.406018
	H52	H	0.605076	0.405932	0.114613
	H53	H	0.596611	0.585348	0.883797
	H54	H	0.413529	0.578983	0.111776
	H55	H	0.420992	0.408905	0.886324
	H56	H	0.115080	0.577856	0.409980
	H57	H	0.893176	0.590381	0.582330
	H58	H	0.117079	0.407795	0.589576
	H59	H	0.891958	0.403843	0.408896
	H60	H	0.118143	0.401548	0.586839
	H61	H	0.896143	0.580526	0.586428
	H62	H	0.121364	0.586261	0.399248
	H63	H	0.895426	0.405614	0.412282
	H64	H	0.420244	0.587218	0.111367
	H65	H	0.597699	0.578097	0.885922
	H66	H	0.590204	0.415127	0.106698
	H67	H	0.418364	0.401482	0.883235
	H68	H	0.587963	0.105714	0.408312
	H69	H	0.600986	0.880653	0.591580
	H70	H	0.413857	0.108493	0.586814
	H71	H	0.423495	0.884450	0.412759
	H72	H	0.919563	0.605347	0.088190
	H73	H	0.091570	0.384333	0.082504
	H74	H	0.093662	0.606683	0.907020
	H75	H	0.915897	0.382362	0.914916
	H76	H	0.093766	0.902395	0.612415
	H77	H	0.089806	0.077347	0.389053
	H78	H	0.914534	0.078777	0.610450
	H79	H	0.914417	0.907522	0.382630
	H80	H	0.617724	0.084460	0.912620
	H81	H	0.396545	0.077736	0.085072
	H82	H	0.616198	0.906169	0.080709
	H83	H	0.398231	0.908731	0.914811
	H84	H	0.619542	0.907936	0.094316
	H85	H	0.392506	0.084149	0.089662
	H86	H	0.616239	0.079686	0.910770
	H87	H	0.393214	0.908092	0.897872
	H88	H	0.921559	0.081865	0.609436
	H89	H	0.093204	0.085268	0.384334
	H90	H	0.101245	0.902476	0.614551
	H91	H	0.918044	0.911588	0.384752
	H92	H	0.091996	0.604528	0.912607
	H93	H	0.104111	0.378354	0.084775
	H94	H	0.917286	0.604270	0.080772
	H95	H	0.912590	0.378474	0.907260
	H96	H	0.418866	0.107583	0.588980
	H97	H	0.592856	0.883990	0.585996
	H98	H	0.598598	0.105856	0.416726
	H99	H	0.415054	0.881069	0.414298
	H100	H	0.588022	0.396803	0.112462
	H101	H	0.590747	0.581526	0.887442
	H102	H	0.410684	0.588423	0.114461
	H103	H	0.412580	0.408126	0.884235
	H104	H	0.118812	0.592392	0.412935
	H105	H	0.892068	0.588095	0.593184
	H106	H	0.115000	0.406076	0.582731
	H107	H	0.894248	0.407980	0.408383
	H108	H	0.912511	0.607781	0.085835
	H109	H	0.094480	0.378378	0.094926
	H110	H	0.097989	0.606381	0.911952
	H111	H	0.921234	0.381065	0.907508
	H112	H	0.098455	0.908821	0.611040
	H113	H	0.098607	0.077567	0.385296
	H114	H	0.915922	0.085994	0.612699
	H115	H	0.919524	0.905809	0.384178
	H116	H	0.618926	0.083107	0.907714
	H117	H	0.395917	0.085460	0.081890
	H118	H	0.621346	0.895870	0.088391
	H119	H	0.390532	0.893817	0.908287
	C120	C	0.385962	0.002633	0.619071
	C121	C	0.629166	0.986786	0.619532
	C122	C	0.628473	0.003690	0.376744
	C123	C	0.385025	0.985774	0.377217
	C124	C	0.627200	0.372657	0.006625
	C125	C	0.626444	0.613825	0.990812
	C126	C	0.383687	0.615945	0.006961
	C127	C	0.385494	0.373729	0.989372
	C128	C	0.014697	0.617807	0.375278
	C129	C	0.997374	0.617113	0.619651
	C130	C	0.013467	0.372468	0.619404
	C131	C	0.997617	0.373507	0.377357
	C132	C	0.885031	0.501886	0.118745
	C133	C	0.127693	0.484918	0.119488
	C134	C	0.126929	0.501653	0.877082
	C135	C	0.883958	0.485164	0.877363
	C136	C	0.128740	0.872958	0.507407
	C137	C	0.127192	0.114273	0.490179
	C138	C	0.885007	0.116053	0.506418
	C139	C	0.886249	0.875933	0.489064
	C140	C	0.514681	0.115419	0.876668
	C141	C	0.497909	0.115329	0.119084
	C142	C	0.515069	0.872391	0.119596
	C143	C	0.498131	0.871621	0.875980
	C144	C	0.386283	0.882778	0.678184
	C145	C	0.629971	0.105836	0.680655
	C146	C	0.630862	0.884305	0.316949
	C147	C	0.380954	0.103911	0.315408
	C148	C	0.688832	0.367994	0.888511
	C149	C	0.687174	0.617454	0.109741
	C150	C	0.324208	0.617928	0.887331
	C151	C	0.325344	0.370689	0.108780
	C152	C	0.896806	0.678426	0.372889
	C153	C	0.116279	0.674977	0.620991
	C154	C	0.896364	0.311392	0.623227
	C155	C	0.115423	0.312825	0.374802
	C156	C	0.895583	0.370920	0.679819
	C157	C	0.115965	0.616482	0.678972
	C158	C	0.896572	0.619757	0.315194
	C159	C	0.115979	0.371897	0.317901
	C160	C	0.383027	0.674308	0.886595
	C161	C	0.628324	0.674328	0.110218
	C162	C	0.630130	0.311510	0.887568
	C163	C	0.383509	0.313433	0.109026
	C164	C	0.690183	0.885612	0.373154
	C165	C	0.688484	0.105865	0.623452
	C166	C	0.326541	0.883914	0.622464
	C167	C	0.321479	0.102922	0.371601
	C168	C	0.884318	0.382677	0.179401
	C169	C	0.127589	0.604902	0.178489
	C170	C	0.128484	0.382754	0.816854
	C171	C	0.882902	0.605103	0.818703
	C172	C	0.188569	0.870488	0.388058
	C173	C	0.188987	0.119105	0.608257
	C174	C	0.822558	0.122200	0.388399
	C175	C	0.826974	0.873647	0.608862
	C176	C	0.396993	0.176537	0.873399
	C177	C	0.614927	0.176132	0.122582
	C178	C	0.395719	0.815563	0.119962
	C179	C	0.616952	0.812568	0.876053
	C180	C	0.396798	0.871989	0.179595
	C181	C	0.615670	0.117516	0.179675
	C182	C	0.396541	0.116961	0.816912
	C183	C	0.617659	0.871768	0.818915
	C184	C	0.882980	0.176541	0.387111
	C185	C	0.130330	0.176245	0.608455
	C186	C	0.129065	0.815054	0.386848
	C187	C	0.885396	0.816615	0.609040
	C188	C	0.187963	0.383286	0.873285
	C189	C	0.186509	0.604265	0.121664
	C190	C	0.825124	0.383025	0.122963
	C191	C	0.823773	0.604249	0.875494
	C192	C	0.409916	0.085708	0.593715
	C193	C	0.605307	0.903963	0.593767
	C194	C	0.602635	0.086269	0.402430
	C195	C	0.411374	0.903627	0.403561
	C196	C	0.601643	0.398507	0.089605
	C197	C	0.602072	0.588777	0.907418
	C198	C	0.407649	0.591631	0.090576
	C199	C	0.410130	0.399033	0.906264
	C200	C	0.097050	0.592674	0.400151
	C201	C	0.915262	0.593293	0.594470
	C202	C	0.095349	0.397920	0.593749
	C203	C	0.915331	0.398573	0.402692
	C204	C	0.909549	0.584412	0.092365
	C205	C	0.103595	0.402046	0.094452
	C206	C	0.101835	0.584442	0.903052
	C207	C	0.909375	0.402199	0.902605
	C208	C	0.104881	0.897656	0.590999
	C209	C	0.101236	0.087774	0.407641
	C210	C	0.910283	0.089720	0.589238
	C211	C	0.910335	0.901117	0.405679
	C212	C	0.596485	0.089725	0.902853
	C213	C	0.416175	0.089769	0.093063
	C214	C	0.597496	0.896290	0.094883
	C215	C	0.415554	0.896233	0.900086
	Zn216	Zn	0.507670	-0.005649	0.747166
	Zn217	Zn	0.506452	-0.005184	0.248731
	Zn218	Zn	0.755504	0.493063	-0.000838
	Zn219	Zn	0.256646	0.493837	-0.002312
	Zn220	Zn	0.006188	0.746313	0.497502
	Zn221	Zn	0.005886	0.243412	0.497997
	Zn222	Zn	0.005385	0.494323	0.748416
	Zn223	Zn	0.005290	0.494193	0.247726
	Zn224	Zn	0.506045	0.742942	-0.001517
	Zn225	Zn	0.505922	0.244708	-0.002068
	Zn226	Zn	0.756851	-0.003855	0.497999
	Zn227	Zn	0.256934	-0.005768	0.498762
	N228	N	0.422509	0.957748	0.676236
	N229	N	0.593890	0.030891	0.678270
	N230	N	0.593071	0.958710	0.319148
	N231	N	0.419915	0.030098	0.318791
	N232	N	0.686956	0.405373	0.963494
	N233	N	0.685917	0.580397	0.034501
	N234	N	0.324470	0.582563	0.963178
	N235	N	0.326466	0.407420	0.033487
	N236	N	0.971385	0.677519	0.409131
	N237	N	0.041513	0.675806	0.585078
	N238	N	0.970753	0.312258	0.586463
	N239	N	0.040897	0.313746	0.411016
	N240	N	0.969534	0.408102	0.677569
	N241	N	0.041130	0.581330	0.678397
	N242	N	0.970901	0.582751	0.316489
	N243	N	0.041696	0.408864	0.319327
	N244	N	0.419116	0.673645	0.962131
	N245	N	0.591103	0.672049	0.035400
	N246	N	0.592375	0.314346	0.962183
	N247	N	0.420227	0.315148	0.033874
	N248	N	0.688945	0.960946	0.409438
	N249	N	0.688068	0.030942	0.586063
	N250	N	0.326029	0.959421	0.586650
	N251	N	0.323953	0.028295	0.409289
	N252	N	0.920670	0.457461	0.176987
	N253	N	0.091883	0.529700	0.177411
	N254	N	0.091121	0.457362	0.819277
	N255	N	0.919350	0.529702	0.819457
	N256	N	0.188538	0.905761	0.464116
	N257	N	0.186849	0.081245	0.533747
	N258	N	0.823667	0.085407	0.463737
	N259	N	0.827121	0.909603	0.533234
	N260	N	0.471591	0.175781	0.909703
	N261	N	0.540707	0.175103	0.085832
	N262	N	0.470259	0.815465	0.083698
	N263	N	0.541552	0.812089	0.910477
	N264	N	0.472045	0.906266	0.179918
	N265	N	0.541615	0.080458	0.177701
	N266	N	0.470673	0.079697	0.818894
	N267	N	0.542744	0.907621	0.818645
	N268	N	0.920995	0.172790	0.461559
	N269	N	0.092607	0.173314	0.533965
	N270	N	0.092618	0.816200	0.461997
	N271	N	0.921523	0.817981	0.533525
	N272	N	0.187065	0.458391	0.910054
	N273	N	0.186865	0.528801	0.085648
	N274	N	0.825517	0.458194	0.085945
	N275	N	0.824152	0.528564	0.910749
	O276	O	0.589654	0.676061	0.457283
	H277	H	0.594446	0.677520	0.460021
	H278	H	0.591596	0.670008	0.485630
	O279	O	1.191331	1.145478	0.849766
	H280	H	1.187417	1.156006	0.860598
	H281	H	1.189558	1.155015	0.870140
	O282	O	0.944312	0.881090	-0.064061
	H283	H	0.958263	0.885822	-0.060614
	H284	H	0.935055	0.885805	-0.063193
	O285	O	-0.190229	-0.167222	0.998097
	H286	H	-0.202984	-0.178112	0.998034
	H287	H	-0.169482	-0.162016	1.012418
	O288	O	0.030214	0.143773	0.021336
	H289	H	0.037345	0.136180	0.013086
	H290	H	0.020707	0.145071	0.015382
	O291	O	1.170758	1.038833	-0.092045
	H292	H	1.163151	1.059073	-0.084351
	H293	H	1.186703	1.044970	-0.091012
	O294	O	0.092852	1.164096	0.145155
	H295	H	0.086796	1.180439	0.144881
	H296	H	0.083510	1.156306	0.160268
	O297	O	0.461014	0.288267	0.295848
	H298	H	0.466146	0.282687	0.292036
	H299	H	0.458292	0.301167	0.301230
	O300	O	0.673707	0.709753	0.491686
	H301	H	0.687696	0.714037	0.497882
	H302	H	0.662706	0.703652	0.517730
	O303	O	0.838884	0.158572	0.131500
	H304	H	0.831707	0.162569	0.137193
	H305	H	0.835490	0.173534	0.118404
	O306	O	-0.031350	1.104476	1.162550
	H307	H	-0.046995	1.092307	1.164392
	H308	H	-0.036553	1.107015	1.154780
	O309	O	0.310303	0.612043	0.680672
	H310	H	0.321255	0.613555	0.659028
	H311	H	0.304367	0.598397	0.676953
	O312	O	0.660669	0.563965	0.355814
	H313	H	0.671507	0.548545	0.372041
	H314	H	0.663286	0.571871	0.369530
	O315	O	0.419414	-0.597220	1.495632
	H316	H	0.436891	-0.602549	1.491827
	H317	H	0.419115	-0.580994	1.476267
	O318	O	-0.279313	0.405625	-0.658829
	H319	H	-0.275701	0.399136	-0.636748
	H320	H	-0.264048	0.405566	-0.672007
	O321	O	0.543008	0.712751	0.712707
	H322	H	0.559395	0.711628	0.728177
	H323	H	0.556233	0.725885	0.732284
	O324	O	0.382986	0.427544	0.373429
	H325	H	0.387339	0.421939	0.381926
	H326	H	0.375128	0.445060	0.372524
	O327	O	1.031178	-0.214804	1.010848
	H328	H	1.054180	-0.210798	0.988408
	H329	H	1.032525	-0.219726	1.001208
	O330	O	0.596887	0.414049	-0.284742
	H331	H	0.603574	0.413163	-0.284154
	H332	H	0.593019	0.394419	-0.281935
	O333	O	1.076806	1.014787	0.817401
	H334	H	1.078857	1.023636	0.811197
	H335	H	1.091807	1.024066	0.832264
	O336	O	1.203056	-0.201752	0.802661
	H337	H	1.223985	-0.199721	0.781694
	H338	H	1.201526	-0.174173	0.804515
	O339	O	0.402320	0.425299	0.524318
	H340	H	0.398396	0.438954	0.520624
	H341	H	0.393407	0.426104	0.525277
	O342	O	0.471974	0.527069	0.715917
	H343	H	0.478045	0.518127	0.718846
	H344	H	0.465079	0.538363	0.711396
	O345	O	0.185225	-0.123769	0.103935
	H346	H	0.187655	-0.101568	0.110297
	H347	H	0.172235	-0.122826	0.092674
	O348	O	0.557489	0.300361	0.529574
	H349	H	0.540575	0.306247	0.518142
	H350	H	0.548240	0.300837	0.538999
	O351	O	0.979735	1.022614	-0.120322
	H352	H	0.985914	1.015960	-0.115163
	H353	H	0.988104	1.027835	-0.126253
	O354	O	0.663399	0.285671	0.417953
	H355	H	0.674335	0.261079	0.402163
	H356	H	0.663164	0.289562	0.417235
	O357	O	0.819328	0.807263	1.137719
	H358	H	0.855706	0.808219	1.143322
	H359	H	0.808011	0.820488	1.132182
	O360	O	-0.197938	1.162010	0.941364
	H361	H	-0.208657	1.161252	0.943451
	H362	H	-0.193420	1.164233	0.937381
	O363	O	0.702622	0.408972	0.588112
	H364	H	0.684376	0.395177	0.587843
	H365	H	0.700677	0.404083	0.587568
	O366	O	1.020379	0.206759	0.857222
	H367	H	1.005583	0.193973	0.873153
	H368	H	1.020338	0.235243	0.845111
	O369	O	0.723637	0.527461	0.716215
	H370	H	0.741826	0.522200	0.729524
	H371	H	0.722128	0.523118	0.715725
	O372	O	0.308524	0.295739	0.691325
	H373	H	0.305254	0.294793	0.670755
	H374	H	0.321888	0.311323	0.687211
	O375	O	0.164310	1.049381	1.087576
	H376	H	0.153393	1.042332	1.088192
	H377	H	0.149599	1.043297	1.096070
	O378	O	0.983097	0.783664	0.208579
	H379	H	0.977935	0.761022	0.217196
	H380	H	0.985393	0.773650	0.201837
	O381	O	1.393747	-0.347068	0.422802
	H382	H	1.393700	-0.339499	0.406377
	H383	H	1.380208	-0.332565	0.409280
	O384	O	0.015194	-0.049672	1.175263
	H385	H	0.004627	-0.045808	1.172600
	H386	H	0.009921	-0.071771	1.176923
	O387	O	-0.209669	1.035683	1.044880
	H388	H	-0.210203	1.019865	1.046752
	H389	H	-0.200374	1.022266	1.059228
	O390	O	0.195966	0.009940	1.201353
	H391	H	0.196091	0.013544	1.224007
	H392	H	0.191445	0.018004	1.200624
	O393	O	-0.052211	1.050977	-0.119252
	H394	H	-0.053042	1.066898	-0.121187
	H395	H	-0.065203	1.061918	-0.119444
	O396	O	0.477647	0.287610	0.700131
	H397	H	0.474411	0.305290	0.701793
	H398	H	0.463504	0.269134	0.711540
	O399	O	0.531782	0.705594	0.284894
	H400	H	0.546959	0.703771	0.321368
	H401	H	0.531878	0.723634	0.266719
	O402	O	0.214592	0.191400	1.079238
	H403	H	0.225756	0.201219	1.087713
	H404	H	0.219322	0.175684	1.098277
	O405	O	0.708174	0.693567	-0.308075
	H406	H	0.711980	0.710502	-0.305005
	H407	H	0.722024	0.663062	-0.294588
	O408	O	0.801057	0.931317	1.205346
	H409	H	0.784153	0.948127	1.225344
	H410	H	0.805451	0.926688	1.210964
	O411	O	0.494073	0.599758	0.361029
	H412	H	0.489936	0.601257	0.370011
	H413	H	0.504044	0.613684	0.356106
	O414	O	0.447925	0.424687	0.373673
	H415	H	0.442922	0.427640	0.369119
	H416	H	0.459389	0.448291	0.381888
	O417	O	0.661435	0.522431	0.500544
	H418	H	0.649465	0.518356	0.500939
	H419	H	0.665273	0.508910	0.501970
	O420	O	0.342390	0.583121	0.295700
	H421	H	0.339676	0.603954	0.287562
	H422	H	0.337012	0.573978	0.279258
	O423	O	0.038915	0.775655	-0.214691
	H424	H	0.048684	0.765874	-0.234855
	H425	H	0.062793	0.770342	-0.224234
	O426	O	0.868756	1.015958	0.795511
	H427	H	0.883473	1.012459	0.788072
	H428	H	0.868781	1.009062	0.800341
	O429	O	0.566363	0.471428	0.434707
	H430	H	0.550667	0.476662	0.433331
	H431	H	0.580156	0.478999	0.444859
	O432	O	0.219915	-0.222619	0.971563
	H433	H	0.227104	-0.226474	0.952398
	H434	H	0.235506	-0.236722	0.958091
	O435	O	-0.123096	0.162926	-0.115055
	H436	H	-0.130705	0.143015	-0.114743
	H437	H	-0.118606	0.165352	-0.099191
	O438	O	1.066355	0.043000	-0.080519
	H439	H	1.066110	0.050059	-0.085145
	H440	H	1.064482	0.034291	-0.085193
	O441	O	0.698406	0.301778	0.304975
	H442	H	0.692469	0.304606	0.329348
	H443	H	0.683290	0.330534	0.306969
	O444	O	-0.108760	0.881105	0.864034
	H445	H	-0.087663	0.888364	0.874887
	H446	H	-0.097405	0.887310	0.865792
	O447	O	0.467689	0.678185	0.577157
	H448	H	0.457120	0.679244	0.570464
	H449	H	0.483139	0.688792	0.602598
	O450	O	0.346831	0.422807	0.392797
	H451	H	0.353390	0.427417	0.386336
	H452	H	0.336979	0.425923	0.401779
	O453	O	0.366522	0.381157	0.454993
	H454	H	0.359054	0.387408	0.449362
	H455	H	0.380800	0.380017	0.441656
	O456	O	0.258422	0.704599	0.241596
	H457	H	0.252127	0.718157	0.234866
	H458	H	0.262391	0.708774	0.224027
	O459	O	0.307044	0.459167	0.639447
	H460	H	0.320913	0.452202	0.634383
	H461	H	0.294484	0.460398	0.651990
	O462	O	0.298207	0.657221	0.500964
	H463	H	0.277413	0.678476	0.474491
	H464	H	0.307210	0.646121	0.472266
	O465	O	0.959887	-0.015639	0.015487
	H466	H	0.956035	0.001967	0.006257
	H467	H	0.969314	-0.018763	0.014298
