data_Molecule from HDF5

_cell_length_a		16.353464
_cell_length_b		16.366612
_cell_length_c		16.434607
_cell_angle_alpha	89.960168
_cell_angle_beta	89.980352
_cell_angle_gamma	90.005954
_symmetry_space_group_name_H-M	'P 1'
_symmetry_Int_Tables_number		1

loop_
	_symmetry_equiv_pos_as_xyz
	x,y,z

loop_
	_atom_site_label
	_atom_site_type_symbol
	_atom_site_fract_x
	_atom_site_fract_y
	_atom_site_fract_z
	H0	H	0.389310	0.844102	0.718359
	H1	H	0.605905	0.159613	0.717762
	H2	H	0.602166	0.842735	0.272832
	H3	H	0.386291	0.159457	0.269540
	H4	H	0.721608	0.392405	0.836987
	H5	H	0.718943	0.606160	0.151988
	H6	H	0.274287	0.609146	0.835330
	H7	H	0.275381	0.396275	0.151112
	H8	H	0.839191	0.721521	0.388022
	H9	H	0.155188	0.724321	0.601131
	H10	H	0.837916	0.278854	0.599843
	H11	H	0.156817	0.277528	0.388563
	H12	H	0.838829	0.391896	0.717053
	H13	H	0.154939	0.609835	0.718262
	H14	H	0.839389	0.605039	0.273175
	H15	H	0.158122	0.393987	0.272922
	H16	H	0.390230	0.724391	0.835573
	H17	H	0.602174	0.722610	0.151613
	H18	H	0.605619	0.277354	0.836996
	H19	H	0.388145	0.277702	0.150990
	H20	H	0.719342	0.843003	0.387856
	H21	H	0.718471	0.160292	0.600051
	H22	H	0.273641	0.843244	0.603655
	H23	H	0.273484	0.159174	0.388102
	H24	H	0.890690	0.342486	0.216245
	H25	H	0.102727	0.660418	0.214540
	H26	H	0.105203	0.342064	0.771681
	H27	H	0.893155	0.659240	0.773046
	H28	H	0.219315	0.894474	0.336430
	H29	H	0.217193	0.105624	0.653145
	H30	H	0.776593	0.105748	0.334798
	H31	H	0.778439	0.898189	0.654333
	H32	H	0.338293	0.221155	0.889469
	H33	H	0.657079	0.220961	0.097310
	H34	H	0.337078	0.781435	0.097048
	H35	H	0.656378	0.779943	0.888243
	H36	H	0.336973	0.896069	0.214113
	H37	H	0.656333	0.108726	0.216046
	H38	H	0.339147	0.107357	0.772032
	H39	H	0.656209	0.893972	0.771542
	H40	H	0.890032	0.223929	0.336006
	H41	H	0.102108	0.222148	0.652204
	H42	H	0.100538	0.781162	0.335146
	H43	H	0.893056	0.780051	0.653407
	H44	H	0.219423	0.342494	0.888609
	H45	H	0.215051	0.662559	0.095712
	H46	H	0.775908	0.341983	0.099575
	H47	H	0.777983	0.660011	0.888714
	H48	H	0.413840	0.112131	0.582689
	H49	H	0.581839	0.888562	0.584002
	H50	H	0.586186	0.116627	0.401927
	H51	H	0.401208	0.885550	0.406120
	H52	H	0.580786	0.407815	0.106073
	H53	H	0.589139	0.597843	0.877070
	H54	H	0.409549	0.585996	0.104327
	H55	H	0.409606	0.411417	0.879744
	H56	H	0.111144	0.590315	0.408792
	H57	H	0.888108	0.580928	0.577171
	H58	H	0.112016	0.409784	0.582177
	H59	H	0.883304	0.412813	0.400924
	H60	H	0.108662	0.412456	0.579232
	H61	H	0.882102	0.585836	0.591162
	H62	H	0.111538	0.585517	0.402984
	H63	H	0.883588	0.408226	0.406219
	H64	H	0.411546	0.596172	0.107217
	H65	H	0.591628	0.584459	0.880623
	H66	H	0.592268	0.411627	0.109290
	H67	H	0.408297	0.413475	0.880907
	H68	H	0.583185	0.114317	0.405838
	H69	H	0.587014	0.889586	0.579051
	H70	H	0.406880	0.114087	0.577484
	H71	H	0.412849	0.887276	0.397675
	H72	H	0.904926	0.617386	0.086916
	H73	H	0.091458	0.386793	0.079686
	H74	H	0.086294	0.615192	0.903424
	H75	H	0.915105	0.388155	0.903968
	H76	H	0.089002	0.911000	0.609918
	H77	H	0.088153	0.088021	0.380277
	H78	H	0.910074	0.085925	0.605880
	H79	H	0.906425	0.915564	0.382443
	H80	H	0.612048	0.090373	0.904937
	H81	H	0.383058	0.091527	0.081352
	H82	H	0.609157	0.915416	0.081604
	H83	H	0.382046	0.916062	0.896946
	H84	H	0.611544	0.913318	0.087794
	H85	H	0.383797	0.087448	0.082729
	H86	H	0.610333	0.089236	0.908121
	H87	H	0.382367	0.905157	0.908127
	H88	H	0.910411	0.092449	0.607331
	H89	H	0.084419	0.085854	0.382888
	H90	H	0.085187	0.915741	0.605956
	H91	H	0.911286	0.908203	0.381070
	H92	H	0.082468	0.613652	0.903766
	H93	H	0.087383	0.385409	0.088282
	H94	H	0.914915	0.613555	0.085548
	H95	H	0.906381	0.388459	0.911888
	H96	H	0.406296	0.117134	0.585796
	H97	H	0.588394	0.886233	0.585830
	H98	H	0.587948	0.115237	0.406616
	H99	H	0.413177	0.891474	0.411735
	H100	H	0.583937	0.419442	0.104652
	H101	H	0.579273	0.590053	0.883219
	H102	H	0.401798	0.591575	0.108511
	H103	H	0.410556	0.413527	0.881104
	H104	H	0.113616	0.593123	0.401943
	H105	H	0.883508	0.595706	0.578416
	H106	H	0.110686	0.414116	0.583719
	H107	H	0.886414	0.414677	0.406786
	H108	H	0.907940	0.612892	0.077358
	H109	H	0.081973	0.389385	0.081377
	H110	H	0.084200	0.613851	0.906985
	H111	H	0.905087	0.383277	0.901305
	H112	H	0.082768	0.909021	0.607557
	H113	H	0.083540	0.091139	0.380987
	H114	H	0.904426	0.089226	0.607359
	H115	H	0.902712	0.908868	0.377828
	H116	H	0.610582	0.086533	0.904575
	H117	H	0.382257	0.090041	0.085286
	H118	H	0.612230	0.909130	0.082495
	H119	H	0.388056	0.919104	0.910779
	C120	C	0.376189	0.009810	0.615566
	C121	C	0.618722	0.992922	0.615528
	C122	C	0.618690	0.010190	0.372429
	C123	C	0.375347	0.992892	0.372369
	C124	C	0.619006	0.379789	0.002542
	C125	C	0.619035	0.622995	0.985093
	C126	C	0.375307	0.623549	0.001934
	C127	C	0.375904	0.380163	0.984841
	C128	C	0.006953	0.621695	0.372582
	C129	C	0.988939	0.621350	0.615213
	C130	C	0.005342	0.379099	0.614793
	C131	C	0.989609	0.378769	0.372447
	C132	C	0.876281	0.509455	0.115614
	C133	C	0.118909	0.492753	0.115002
	C134	C	0.118402	0.509761	0.871820
	C135	C	0.876335	0.491618	0.872808
	C136	C	0.118210	0.879610	0.502833
	C137	C	0.117872	0.121451	0.485573
	C138	C	0.875680	0.122220	0.502247
	C139	C	0.874927	0.878768	0.485472
	C140	C	0.506196	0.121838	0.872925
	C141	C	0.488396	0.122517	0.115691
	C142	C	0.505449	0.880202	0.115411
	C143	C	0.488997	0.880240	0.872349
	C144	C	0.372217	0.891358	0.677824
	C145	C	0.622684	0.111977	0.676902
	C146	C	0.620864	0.890593	0.312441
	C147	C	0.370234	0.111692	0.310752
	C148	C	0.680686	0.375569	0.884023
	C149	C	0.678803	0.624615	0.104454
	C150	C	0.314560	0.626745	0.883031
	C151	C	0.314860	0.377742	0.103698
	C152	C	0.886941	0.681510	0.370240
	C153	C	0.107799	0.683445	0.618679
	C154	C	0.885897	0.318365	0.617945
	C155	C	0.109290	0.317692	0.370016
	C156	C	0.886611	0.375014	0.676368
	C157	C	0.107577	0.626277	0.677068
	C158	C	0.886970	0.623658	0.312903
	C159	C	0.109579	0.375644	0.312478
	C160	C	0.372592	0.684124	0.883048
	C161	C	0.621074	0.682800	0.104342
	C162	C	0.622902	0.317988	0.884249
	C163	C	0.371403	0.318680	0.103515
	C164	C	0.679243	0.890686	0.369580
	C165	C	0.678813	0.112654	0.617961
	C166	C	0.314203	0.891120	0.620584
	C167	C	0.313356	0.111702	0.369468
	C168	C	0.873275	0.390015	0.176006
	C169	C	0.120851	0.612915	0.174435
	C170	C	0.122569	0.390113	0.811548
	C171	C	0.874450	0.611406	0.812742
	C172	C	0.178699	0.877030	0.383696
	C173	C	0.177586	0.123811	0.605292
	C174	C	0.815988	0.124257	0.382577
	C175	C	0.816772	0.878505	0.605958
	C176	C	0.386101	0.181682	0.870989
	C177	C	0.608782	0.182034	0.116822
	C178	C	0.385013	0.820904	0.115980
	C179	C	0.608656	0.819804	0.870219
	C180	C	0.385244	0.877810	0.174491
	C181	C	0.608502	0.125749	0.175632
	C182	C	0.386698	0.125147	0.812313
	C183	C	0.608747	0.876569	0.811976
	C184	C	0.872982	0.182890	0.383001
	C185	C	0.120147	0.181749	0.605006
	C186	C	0.119780	0.820388	0.382979
	C187	C	0.874044	0.819898	0.605627
	C188	C	0.179489	0.390026	0.869819
	C189	C	0.176988	0.613746	0.115355
	C190	C	0.815732	0.389920	0.118064
	C191	C	0.816972	0.611792	0.870198
	C192	C	0.401822	0.092844	0.589464
	C193	C	0.593012	0.909802	0.590238
	C194	C	0.593366	0.093620	0.397811
	C195	C	0.401581	0.909912	0.397894
	C196	C	0.593196	0.405690	0.085022
	C197	C	0.593880	0.598081	0.901921
	C198	C	0.400514	0.598414	0.084953
	C199	C	0.402129	0.405690	0.902190
	C200	C	0.090384	0.596812	0.397533
	C201	C	0.906077	0.595030	0.589654
	C202	C	0.088844	0.404741	0.589193
	C203	C	0.906192	0.404366	0.397495
	C204	C	0.901911	0.592808	0.090567
	C205	C	0.094203	0.409093	0.090199
	C206	C	0.092103	0.592583	0.897355
	C207	C	0.901341	0.408490	0.898249
	C208	C	0.093072	0.904471	0.586003
	C209	C	0.092613	0.095878	0.402958
	C210	C	0.900813	0.096778	0.585161
	C211	C	0.899562	0.903609	0.402178
	C212	C	0.589275	0.096194	0.898293
	C213	C	0.404997	0.097002	0.090467
	C214	C	0.589131	0.905327	0.090929
	C215	C	0.405917	0.905933	0.897797
	Zn216	Zn	0.498166	0.001388	0.744231
	Zn217	Zn	0.496704	0.001892	0.243684
	Zn218	Zn	0.748086	0.500987	-0.006165
	Zn219	Zn	0.246719	0.501674	-0.006936
	Zn220	Zn	-0.002657	0.750271	0.494075
	Zn221	Zn	-0.002957	0.250542	0.493815
	Zn222	Zn	-0.002620	0.499853	0.743926
	Zn223	Zn	-0.001676	0.500599	0.243940
	Zn224	Zn	0.496934	0.751839	-0.006478
	Zn225	Zn	0.497322	0.251101	-0.006134
	Zn226	Zn	0.746700	0.001417	0.494136
	Zn227	Zn	0.247492	0.000735	0.495051
	N228	N	0.410108	0.966321	0.674869
	N229	N	0.585778	0.036497	0.675369
	N230	N	0.584014	0.966007	0.313996
	N231	N	0.407956	0.036731	0.312460
	N232	N	0.678356	0.413473	0.958562
	N233	N	0.677641	0.588327	0.029217
	N234	N	0.316031	0.589817	0.958065
	N235	N	0.317429	0.415232	0.028996
	N236	N	0.962643	0.680496	0.406625
	N237	N	0.032959	0.680319	0.580674
	N238	N	0.960839	0.320943	0.580268
	N239	N	0.033598	0.319303	0.406397
	N240	N	0.962207	0.412020	0.674674
	N241	N	0.032919	0.587913	0.674569
	N242	N	0.962494	0.587203	0.314184
	N243	N	0.034090	0.412653	0.313665
	N244	N	0.409672	0.682214	0.957961
	N245	N	0.584518	0.681794	0.029035
	N246	N	0.584955	0.320644	0.958831
	N247	N	0.408734	0.319966	0.028512
	N248	N	0.678081	0.966256	0.406004
	N249	N	0.676416	0.037677	0.580366
	N250	N	0.316856	0.965680	0.582254
	N251	N	0.316376	0.036759	0.407195
	N252	N	0.910368	0.465469	0.174579
	N253	N	0.085548	0.536598	0.174579
	N254	N	0.085714	0.465530	0.812453
	N255	N	0.910452	0.535510	0.814099
	N256	N	0.178009	0.913034	0.459323
	N257	N	0.176416	0.086997	0.530092
	N258	N	0.817572	0.087405	0.457659
	N259	N	0.816854	0.914153	0.530007
	N260	N	0.461454	0.179864	0.907927
	N261	N	0.533075	0.180405	0.080264
	N262	N	0.460902	0.822086	0.079899
	N263	N	0.533109	0.821655	0.906847
	N264	N	0.461195	0.913762	0.174364
	N265	N	0.532689	0.089740	0.174984
	N266	N	0.462480	0.088912	0.813284
	N267	N	0.533398	0.913593	0.813275
	N268	N	0.909282	0.181740	0.458438
	N269	N	0.083838	0.180514	0.529648
	N270	N	0.083141	0.821901	0.458070
	N271	N	0.909151	0.819727	0.529769
	N272	N	0.177166	0.465565	0.906372
	N273	N	0.175998	0.537984	0.079248
	N274	N	0.817397	0.465341	0.081449
	N275	N	0.817905	0.536314	0.906968
	O276	O	0.681454	0.317121	0.310098
	H277	H	0.664841	0.309208	0.335872
	H278	H	0.690579	0.368119	0.300451
	O279	O	0.392303	0.320067	0.628369
	H280	H	0.388129	0.315004	0.615629
	H281	H	0.402871	0.352943	0.630796
	O282	O	0.682742	0.684000	0.670756
	H283	H	0.658955	0.664867	0.679686
	H284	H	0.665579	0.675420	0.687888
	O285	O	1.126780	0.974012	-0.172696
	H286	H	1.110840	0.964758	-0.172786
	H287	H	1.136744	0.989504	-0.187209
	O288	O	0.109524	-0.085116	-0.145374
	H289	H	0.106631	-0.085705	-0.148362
	H290	H	0.100636	-0.085160	-0.135714
	O291	O	0.849281	-0.106540	1.118968
	H292	H	0.849569	-0.102155	1.130868
	H293	H	0.862629	-0.105146	1.115129
	O294	O	0.950466	0.941810	0.983252
	H295	H	0.954886	0.939876	0.989798
	H296	H	0.939601	0.942640	0.990255
	O297	O	0.716518	0.717822	0.516254
	H298	H	0.725271	0.723869	0.548661
	H299	H	0.732710	0.733298	0.540882
	O300	O	0.402254	0.510567	0.625665
	H301	H	0.387624	0.517546	0.645142
	H302	H	0.395642	0.531826	0.607108
	O303	O	0.292988	0.533266	0.283203
	H304	H	0.291982	0.520014	0.265575
	H305	H	0.297265	0.514023	0.285340
	O306	O	0.109881	0.158785	1.183307
	H307	H	0.125286	0.147972	1.157927
	H308	H	0.091292	0.177776	1.195256
	O309	O	1.085464	-0.198229	0.105231
	H310	H	1.097826	-0.191407	0.095461
	H311	H	1.092635	-0.208936	0.101329
	O312	O	0.294045	0.414768	0.699448
	H313	H	0.269657	0.439797	0.716566
	H314	H	0.284921	0.428329	0.664865
	O315	O	0.410916	0.595916	0.527457
	H316	H	0.399592	0.612325	0.531278
	H317	H	0.431957	0.593789	0.538689
	O318	O	-0.053151	0.001221	0.030629
	H319	H	-0.049122	0.007230	0.049192
	H320	H	-0.054276	-0.012254	0.018604
	O321	O	0.647642	0.412437	0.533013
	H322	H	0.654314	0.421857	0.537352
	H323	H	0.641874	0.405221	0.539533
	O324	O	1.180971	-0.107594	0.949554
	H325	H	1.164960	-0.109470	0.949315
	H326	H	1.178210	-0.074430	0.934666
	O327	O	0.543337	0.713873	0.430262
	H328	H	0.542517	0.717695	0.439456
	H329	H	0.553818	0.716841	0.444518
	O330	O	-0.067549	0.965217	0.968381
	H331	H	-0.064980	0.967149	0.959784
	H332	H	-0.053384	0.950498	0.978460
	O333	O	0.148575	0.930758	-0.009059
	H334	H	0.149641	0.947123	-0.016638
	H335	H	0.143078	0.917908	-0.003633
	O336	O	0.975903	1.044274	0.007317
	H337	H	0.964249	1.048728	0.004950
	H338	H	0.969086	1.042201	0.009528
	O339	O	-0.144122	1.101711	0.821194
	H340	H	-0.146141	1.087003	0.831854
	H341	H	-0.150922	1.088922	0.842670
	O342	O	0.287297	0.703821	0.481657
	H343	H	0.257305	0.732928	0.470203
	H344	H	0.300031	0.686254	0.440873
	O345	O	-0.033829	0.073295	1.049674
	H346	H	-0.038331	0.069364	1.038763
	H347	H	-0.026636	0.075215	1.054886
	O348	O	0.519699	0.281407	0.281928
	H349	H	0.513284	0.254844	0.281016
	H350	H	0.549406	0.271598	0.279280
	O351	O	0.473008	0.696256	0.310020
	H352	H	0.481570	0.712555	0.318830
	H353	H	0.481137	0.686935	0.304469
	O354	O	1.025025	1.039112	1.080752
	H355	H	1.013551	1.043565	1.062525
	H356	H	1.038538	1.042670	1.094497
	O357	O	-0.057157	0.167554	0.030175
	H358	H	-0.046456	0.177196	0.036656
	H359	H	-0.039278	0.157588	0.037821
	O360	O	0.452537	0.453210	0.296481
	H361	H	0.443602	0.469185	0.306840
	H362	H	0.463340	0.424168	0.308292
	O363	O	1.162352	0.071405	0.185650
	H364	H	1.171052	0.071873	0.187864
	H365	H	1.169326	0.073650	0.178190
	O366	O	0.072217	0.147024	1.025119
	H367	H	0.081103	0.147519	1.026260
	H368	H	0.074508	0.149900	1.033536
	O369	O	1.514947	0.522679	0.283969
	H370	H	1.533812	0.525805	0.291232
	H371	H	1.510735	0.492055	0.279663
	O372	O	0.480865	0.286748	0.707643
	H373	H	0.437385	0.291810	0.697028
	H374	H	0.480282	0.259988	0.736890
	O375	O	0.114910	0.070187	0.855815
	H376	H	0.100818	0.081945	0.859708
	H377	H	0.117729	0.063191	0.834579
	O378	O	0.690037	0.478290	0.290691
	H379	H	0.681987	0.486722	0.275146
	H380	H	0.700460	0.494539	0.308478
	O381	O	-0.060076	0.826984	0.142943
	H382	H	-0.068846	0.823444	0.157981
	H383	H	-0.027541	0.833169	0.138736
	O384	O	0.707990	0.521195	0.706153
	H385	H	0.721241	0.509725	0.720766
	H386	H	0.700728	0.520791	0.717919
	O387	O	0.290044	0.447647	0.445276
	H388	H	0.306363	0.443021	0.449280
	H389	H	0.292556	0.463403	0.444906
	O390	O	0.930952	1.119389	0.154318
	H391	H	0.938160	1.111509	0.164125
	H392	H	0.913659	1.119301	0.176674
	O393	O	0.898629	0.108973	0.960424
	H394	H	0.894023	0.099015	0.972206
	H395	H	0.907396	0.115214	0.985222
	O396	O	0.709248	0.291253	0.471068
	H397	H	0.739151	0.272032	0.472273
	H398	H	0.697587	0.302633	0.464823
	O399	O	0.393385	0.553819	0.579422
	H400	H	0.397735	0.537660	0.569955
	H401	H	0.395726	0.555951	0.577677
	O402	O	0.910456	0.977185	0.178263
	H403	H	0.896700	0.984525	0.172982
	H404	H	0.926140	0.972849	0.178881
	O405	O	0.551221	0.359310	0.460949
	H406	H	0.557165	0.362549	0.476364
	H407	H	0.545785	0.359205	0.475385
	O408	O	0.297102	0.296774	0.518584
	H409	H	0.301095	0.297360	0.507908
	H410	H	0.290881	0.298393	0.510046
	O411	O	1.314530	0.689465	1.320769
	H412	H	1.301240	0.646928	1.309189
	H413	H	1.354327	0.697643	1.311381
	O414	O	0.403489	0.403629	0.497413
	H415	H	0.416623	0.411640	0.490139
	H416	H	0.424409	0.405943	0.488365
	O417	O	0.024645	0.820828	0.855482
	H418	H	0.005337	0.815294	0.861957
	H419	H	0.024566	0.829863	0.857003
	O420	O	-0.149435	0.965397	0.809559
	H421	H	-0.149963	0.966160	0.817943
	H422	H	-0.158300	0.953170	0.822547
	O423	O	-0.070601	1.200567	-0.182406
	H424	H	-0.094061	1.208673	-0.192943
	H425	H	-0.086020	1.218556	-0.190087
	O426	O	0.519653	0.708644	0.701067
	H427	H	0.502745	0.722074	0.696260
	H428	H	0.503727	0.704020	0.716144
	O429	O	0.598995	0.486909	0.498132
	H430	H	0.606728	0.499057	0.494077
	H431	H	0.600973	0.492869	0.501357
	O432	O	0.553975	0.445625	0.699770
	H433	H	0.550393	0.432686	0.705059
	H434	H	0.544864	0.438167	0.694049
	O435	O	-0.191840	-0.205809	0.005483
	H436	H	-0.209018	-0.226950	0.021807
	H437	H	-0.193228	-0.201931	0.036907
	O438	O	-0.572696	1.662624	1.616285
	H439	H	-0.569552	1.647177	1.603416
	H440	H	-0.598237	1.659567	1.601066
	O441	O	0.697391	0.596329	0.402705
	H442	H	0.704324	0.601407	0.420540
	H443	H	0.673059	0.598445	0.406846
