data_Molecule from HDF5

_cell_length_a		16.235634
_cell_length_b		16.254373
_cell_length_c		16.520644
_cell_angle_alpha	90.273994
_cell_angle_beta	90.220944
_cell_angle_gamma	90.249999
_symmetry_space_group_name_H-M	'P 1'
_symmetry_Int_Tables_number		1

loop_
	_symmetry_equiv_pos_as_xyz
	x,y,z

loop_
	_atom_site_label
	_atom_site_type_symbol
	_atom_site_fract_x
	_atom_site_fract_y
	_atom_site_fract_z
	H0	H	0.396092	0.830180	0.705844
	H1	H	0.611527	0.150062	0.713364
	H2	H	0.604421	0.831076	0.267636
	H3	H	0.392629	0.150762	0.265093
	H4	H	0.721382	0.386647	0.829524
	H5	H	0.723519	0.598631	0.147296
	H6	H	0.284924	0.589121	0.826784
	H7	H	0.279967	0.385806	0.145609
	H8	H	0.839443	0.708198	0.386998
	H9	H	0.164821	0.710157	0.588384
	H10	H	0.839064	0.274073	0.590474
	H11	H	0.163384	0.275224	0.389145
	H12	H	0.842089	0.386832	0.708920
	H13	H	0.164742	0.597156	0.707217
	H14	H	0.843125	0.601368	0.264843
	H15	H	0.161804	0.386025	0.268715
	H16	H	0.399431	0.708110	0.826789
	H17	H	0.603803	0.712770	0.147675
	H18	H	0.607533	0.267144	0.831124
	H19	H	0.395435	0.270248	0.146110
	H20	H	0.716313	0.829275	0.387173
	H21	H	0.718766	0.153898	0.590737
	H22	H	0.283762	0.828735	0.586033
	H23	H	0.282140	0.152657	0.385051
	H24	H	0.892099	0.333813	0.211010
	H25	H	0.110582	0.652003	0.211292
	H26	H	0.110179	0.332557	0.765328
	H27	H	0.900828	0.652919	0.770616
	H28	H	0.220008	0.886440	0.328887
	H29	H	0.223412	0.096915	0.646880
	H30	H	0.781540	0.093523	0.329751
	H31	H	0.781572	0.889630	0.648332
	H32	H	0.339116	0.209457	0.884763
	H33	H	0.660524	0.213461	0.094347
	H34	H	0.337857	0.774892	0.085770
	H35	H	0.663991	0.776771	0.887262
	H36	H	0.338648	0.885735	0.205852
	H37	H	0.658776	0.100615	0.212284
	H38	H	0.340194	0.095007	0.767121
	H39	H	0.661805	0.886647	0.768392
	H40	H	0.895532	0.211512	0.330298
	H41	H	0.107888	0.214823	0.646999
	H42	H	0.104753	0.770215	0.329743
	H43	H	0.899855	0.773796	0.649117
	H44	H	0.218042	0.329309	0.887038
	H45	H	0.219354	0.654781	0.087839
	H46	H	0.781530	0.331395	0.091476
	H47	H	0.785110	0.653303	0.885154
	H48	H	0.411530	0.106911	0.577188
	H49	H	0.580359	0.879966	0.577433
	H50	H	0.592281	0.106560	0.401110
	H51	H	0.414854	0.877410	0.395667
	H52	H	0.592140	0.402328	0.101405
	H53	H	0.595192	0.578971	0.875462
	H54	H	0.415232	0.586713	0.100216
	H55	H	0.411035	0.405420	0.875974
	H56	H	0.118480	0.582171	0.396622
	H57	H	0.884129	0.587663	0.582955
	H58	H	0.115081	0.410904	0.581002
	H59	H	0.887699	0.403541	0.400912
	H60	H	0.120349	0.399471	0.583682
	H61	H	0.888760	0.579790	0.576206
	H62	H	0.115507	0.582720	0.403011
	H63	H	0.885903	0.405901	0.396749
	H64	H	0.406619	0.586524	0.102409
	H65	H	0.589476	0.585851	0.875667
	H66	H	0.592222	0.407170	0.099815
	H67	H	0.416037	0.400841	0.876684
	H68	H	0.589604	0.108113	0.394667
	H69	H	0.595508	0.876724	0.571100
	H70	H	0.412267	0.106900	0.581586
	H71	H	0.409399	0.876438	0.399091
	H72	H	0.909516	0.609238	0.081156
	H73	H	0.090855	0.376560	0.082999
	H74	H	0.090077	0.604709	0.903532
	H75	H	0.910001	0.376684	0.899965
	H76	H	0.087516	0.903179	0.599679
	H77	H	0.091418	0.083416	0.374421
	H78	H	0.913538	0.082950	0.601351
	H79	H	0.909600	0.894382	0.374723
	H80	H	0.618987	0.077377	0.887904
	H81	H	0.389149	0.076102	0.069846
	H82	H	0.615251	0.907782	0.079470
	H83	H	0.385814	0.901315	0.899620
	H84	H	0.617619	0.901579	0.083997
	H85	H	0.386168	0.073159	0.082446
	H86	H	0.616649	0.089753	0.907061
	H87	H	0.384935	0.904682	0.891952
	H88	H	0.909347	0.085237	0.603989
	H89	H	0.090865	0.080343	0.377000
	H90	H	0.093543	0.898915	0.602688
	H91	H	0.903558	0.901721	0.373919
	H92	H	0.099049	0.609268	0.897678
	H93	H	0.086792	0.379009	0.077969
	H94	H	0.922025	0.605979	0.081554
	H95	H	0.913321	0.375000	0.892957
	H96	H	0.415445	0.105901	0.578691
	H97	H	0.592562	0.873186	0.586509
	H98	H	0.585773	0.104941	0.399852
	H99	H	0.409051	0.875265	0.392763
	H100	H	0.588044	0.404704	0.100526
	H101	H	0.597764	0.587092	0.872136
	H102	H	0.410858	0.579083	0.100048
	H103	H	0.410120	0.398427	0.874112
	H104	H	0.115372	0.576628	0.399891
	H105	H	0.886579	0.577292	0.587127
	H106	H	0.115100	0.401615	0.571797
	H107	H	0.884875	0.401326	0.397675
	H108	H	0.915175	0.604485	0.071238
	H109	H	0.093035	0.376698	0.076924
	H110	H	0.088331	0.607763	0.892442
	H111	H	0.917631	0.378502	0.898661
	H112	H	0.094893	0.906663	0.600798
	H113	H	0.088033	0.082887	0.376305
	H114	H	0.909057	0.080036	0.601562
	H115	H	0.912234	0.903069	0.377741
	H116	H	0.608998	0.068007	0.905934
	H117	H	0.382797	0.085214	0.077541
	H118	H	0.616154	0.899902	0.076500
	H119	H	0.382956	0.895965	0.893596
	C120	C	0.381121	-0.000266	0.608460
	C121	C	0.621992	0.982979	0.610165
	C122	C	0.620823	0.000226	0.366997
	C123	C	0.379199	0.982678	0.365528
	C124	C	0.622993	0.370596	-0.003375
	C125	C	0.624758	0.615584	0.979698
	C126	C	0.379969	0.613461	-0.004563
	C127	C	0.379674	0.369377	0.979545
	C128	C	0.010444	0.612650	0.367750
	C129	C	0.993809	0.613450	0.611243
	C130	C	0.010492	0.371524	0.609765
	C131	C	0.992745	0.371146	0.367065
	C132	C	0.881668	0.500748	0.109532
	C133	C	0.123375	0.483661	0.110196
	C134	C	0.123731	0.500691	0.866859
	C135	C	0.882110	0.483105	0.866850
	C136	C	0.122706	0.870466	0.496043
	C137	C	0.123422	0.114475	0.480336
	C138	C	0.879249	0.113400	0.497499
	C139	C	0.877890	0.869063	0.480552
	C140	C	0.509080	0.111252	0.867290
	C141	C	0.491646	0.112585	0.109769
	C142	C	0.508850	0.870868	0.109021
	C143	C	0.492006	0.870157	0.865445
	C144	C	0.378363	0.878204	0.666421
	C145	C	0.626941	0.102932	0.671541
	C146	C	0.622665	0.879215	0.307575
	C147	C	0.375898	0.103085	0.305709
	C148	C	0.682466	0.367819	0.877314
	C149	C	0.683861	0.617547	0.099603
	C150	C	0.322749	0.610702	0.874788
	C151	C	0.319762	0.367537	0.098273
	C152	C	0.888534	0.670457	0.367323
	C153	C	0.116184	0.671835	0.609326
	C154	C	0.888150	0.312955	0.609924
	C155	C	0.114536	0.313176	0.368416
	C156	C	0.889614	0.369064	0.668851
	C157	C	0.116032	0.615855	0.668511
	C158	C	0.890401	0.617217	0.306430
	C159	C	0.113724	0.368901	0.308831
	C160	C	0.379858	0.669673	0.874779
	C161	C	0.624251	0.674287	0.099685
	C162	C	0.625701	0.307981	0.878438
	C163	C	0.377290	0.309582	0.098596
	C164	C	0.678354	0.878138	0.367216
	C165	C	0.680667	0.105038	0.610671
	C166	C	0.322582	0.877427	0.606722
	C167	C	0.320835	0.104086	0.365354
	C168	C	0.876537	0.381174	0.170105
	C169	C	0.127246	0.604285	0.170240
	C170	C	0.126781	0.380096	0.806557
	C171	C	0.881713	0.604503	0.809539
	C172	C	0.180712	0.868395	0.376621
	C173	C	0.183711	0.115969	0.599348
	C174	C	0.820556	0.113385	0.377430
	C175	C	0.820798	0.870141	0.600637
	C176	C	0.387802	0.170239	0.865932
	C177	C	0.612253	0.173671	0.112714
	C178	C	0.386736	0.813127	0.106481
	C179	C	0.614606	0.813847	0.867098
	C180	C	0.387225	0.868203	0.166505
	C181	C	0.611531	0.117379	0.171082
	C182	C	0.388222	0.113422	0.807218
	C183	C	0.613589	0.868696	0.807754
	C184	C	0.877651	0.171844	0.377724
	C185	C	0.125697	0.174348	0.599488
	C186	C	0.123136	0.810426	0.376977
	C187	C	0.879709	0.812439	0.600959
	C188	C	0.180426	0.378349	0.867178
	C189	C	0.181506	0.605695	0.109021
	C190	C	0.821208	0.380016	0.110410
	C191	C	0.823959	0.604599	0.866656
	C192	C	0.406040	0.084502	0.585886
	C193	C	0.596742	0.898764	0.585288
	C194	C	0.596379	0.084614	0.391482
	C195	C	0.403852	0.898416	0.389300
	C196	C	0.597975	0.397081	0.078902
	C197	C	0.601043	0.590971	0.896295
	C198	C	0.403927	0.590798	0.079165
	C199	C	0.405108	0.394327	0.897062
	C200	C	0.094593	0.587741	0.392486
	C201	C	0.908764	0.588809	0.588633
	C202	C	0.094949	0.396727	0.585736
	C203	C	0.908064	0.396209	0.391181
	C204	C	0.907938	0.584778	0.085033
	C205	C	0.097685	0.399271	0.086173
	C206	C	0.099458	0.585192	0.890912
	C207	C	0.906538	0.398729	0.890439
	C208	C	0.098902	0.895623	0.579577
	C209	C	0.097523	0.089399	0.397365
	C210	C	0.903696	0.089692	0.580637
	C211	C	0.901353	0.892736	0.397096
	C212	C	0.593019	0.085762	0.892864
	C213	C	0.407812	0.085909	0.083906
	C214	C	0.594189	0.895857	0.086424
	C215	C	0.406806	0.893907	0.888292
	Zn216	Zn	0.501611	-0.009041	0.737727
	Zn217	Zn	0.499941	-0.008332	0.237573
	Zn218	Zn	0.753365	0.492758	-0.011675
	Zn219	Zn	0.250927	0.491442	-0.012655
	Zn220	Zn	0.001639	0.740471	0.488324
	Zn221	Zn	0.000291	0.243360	0.488856
	Zn222	Zn	0.003650	0.491656	0.738459
	Zn223	Zn	0.001553	0.492968	0.238999
	Zn224	Zn	0.501069	0.743449	-0.013356
	Zn225	Zn	0.500665	0.240292	-0.011049
	Zn226	Zn	0.749056	-0.007743	0.488680
	Zn227	Zn	0.252150	-0.008305	0.487578
	N228	N	0.413829	0.955210	0.667761
	N229	N	0.591273	0.026198	0.671234
	N230	N	0.587783	0.956039	0.307277
	N231	N	0.411431	0.026539	0.305702
	N232	N	0.681220	0.405990	0.951805
	N233	N	0.684406	0.581714	0.024052
	N234	N	0.322629	0.576722	0.950905
	N235	N	0.321055	0.403992	0.023447
	N236	N	0.964342	0.667917	0.404643
	N237	N	0.039083	0.670876	0.574769
	N238	N	0.964414	0.314404	0.574005
	N239	N	0.038019	0.314485	0.403882
	N240	N	0.966657	0.404505	0.669003
	N241	N	0.039154	0.580050	0.669601
	N242	N	0.967125	0.581919	0.306597
	N243	N	0.036835	0.403893	0.307711
	N244	N	0.414641	0.671518	0.950766
	N245	N	0.588580	0.673421	0.024212
	N246	N	0.589623	0.309578	0.953586
	N247	N	0.414065	0.310756	0.023861
	N248	N	0.677372	0.954459	0.403614
	N249	N	0.677723	0.029516	0.573065
	N250	N	0.323933	0.954039	0.571757
	N251	N	0.322734	0.028362	0.401795
	N252	N	0.913591	0.457299	0.169415
	N253	N	0.092069	0.527292	0.171241
	N254	N	0.092197	0.457046	0.806329
	N255	N	0.916992	0.527870	0.809206
	N256	N	0.180169	0.905469	0.451679
	N257	N	0.182257	0.079415	0.524228
	N258	N	0.821420	0.077420	0.452646
	N259	N	0.819467	0.904407	0.524811
	N260	N	0.463807	0.168846	0.902529
	N261	N	0.536631	0.170604	0.075157
	N262	N	0.463513	0.814706	0.071737
	N263	N	0.538003	0.814740	0.902236
	N264	N	0.464361	0.903679	0.168029
	N265	N	0.535468	0.080129	0.169309
	N266	N	0.464984	0.077756	0.807667
	N267	N	0.536186	0.902780	0.806345
	N268	N	0.913532	0.172023	0.453176
	N269	N	0.088920	0.173544	0.524461
	N270	N	0.087706	0.811799	0.452302
	N271	N	0.914391	0.811466	0.525179
	N272	N	0.178496	0.454222	0.904125
	N273	N	0.179497	0.529398	0.072667
	N274	N	0.824423	0.455504	0.073278
	N275	N	0.823962	0.528029	0.901628
	O276	O	0.465439	0.632096	0.419110
	H277	H	0.462229	0.635917	0.424228
	H278	H	0.476230	0.638109	0.422863
	O279	O	0.605648	0.541628	0.545609
	H280	H	0.627057	0.537003	0.550077
	H281	H	0.603667	0.542596	0.527124
	O282	O	0.661666	0.675321	0.679533
	H283	H	0.671499	0.661369	0.677898
	H284	H	0.678095	0.664967	0.664743
	O285	O	1.548078	0.433877	0.669744
	H286	H	1.533230	0.424143	0.668997
	H287	H	1.537230	0.435512	0.666436
	O288	O	0.194083	0.136462	1.110353
	H289	H	0.201063	0.122985	1.117707
	H290	H	0.204606	0.133343	1.114808
	O291	O	0.289373	0.549148	0.293572
	H292	H	0.285105	0.573411	0.301556
	H293	H	0.263552	0.564576	0.271377
	O294	O	1.044841	1.174936	0.835098
	H295	H	1.027899	1.159802	0.845191
	H296	H	1.033135	1.196751	0.819803
	O297	O	1.055424	0.997581	0.846613
	H298	H	1.056342	1.005676	0.847769
	H299	H	1.070648	1.008510	0.854646
	O300	O	0.125166	-0.098244	-0.129149
	H301	H	0.137965	-0.106348	-0.142093
	H302	H	0.140020	-0.090948	-0.133302
	O303	O	-0.072963	1.036298	1.057413
	H304	H	-0.063355	1.046567	1.064854
	H305	H	-0.072960	1.037923	1.046007
	O306	O	0.795329	0.055965	0.054442
	H307	H	0.796144	0.064739	0.041957
	H308	H	0.783412	0.059546	0.038210
	O309	O	0.523464	0.639908	0.684965
	H310	H	0.545373	0.637823	0.674839
	H311	H	0.541644	0.664335	0.705690
	O312	O	1.142792	0.934698	-0.083584
	H313	H	1.143112	0.937383	-0.092559
	H314	H	1.138688	0.927716	-0.088607
	O315	O	0.475802	0.301275	0.441187
	H316	H	0.484200	0.298092	0.422190
	H317	H	0.486511	0.295722	0.460763
	O318	O	0.495538	0.607768	0.522420
	H319	H	0.497905	0.606095	0.534563
	H320	H	0.503161	0.604781	0.511599
	O321	O	1.187460	-0.092407	0.991619
	H322	H	1.193596	-0.094540	0.982035
	H323	H	1.177671	-0.084753	0.980183
	O324	O	-0.051363	-0.159460	0.902297
	H325	H	-0.054616	-0.156382	0.903611
	H326	H	-0.057522	-0.165726	0.914961
	O327	O	0.067460	1.199615	1.187589
	H328	H	0.063566	1.216562	1.171511
	H329	H	0.085103	1.199767	1.201683
	O330	O	0.506760	0.562714	0.500414
	H331	H	0.518351	0.582944	0.496137
	H332	H	0.510171	0.562297	0.490518
	O333	O	0.813659	0.788821	0.997749
	H334	H	0.790969	0.771094	1.007331
	H335	H	0.821456	0.799407	1.023592
	O336	O	0.315597	0.429077	0.542972
	H337	H	0.331919	0.423724	0.539198
	H338	H	0.302323	0.440775	0.530543
	O339	O	0.670770	0.343009	0.390722
	H340	H	0.668678	0.336103	0.408233
	H341	H	0.651618	0.334031	0.394787
	O342	O	-0.133864	0.824756	1.168611
	H343	H	-0.121472	0.833348	1.179797
	H344	H	-0.133754	0.843664	1.177036
	O345	O	0.006489	1.181083	0.941135
	H346	H	-0.000268	1.177601	0.945785
	H347	H	0.007204	1.185177	0.945695
	O348	O	0.517546	0.436873	0.280282
	H349	H	0.496212	0.446756	0.277043
	H350	H	0.517926	0.449665	0.294561
	O351	O	0.001863	-0.035396	0.115043
	H352	H	0.002377	-0.040213	0.113274
	H353	H	-0.001644	-0.042853	0.127023
	O354	O	0.705742	0.497232	-0.650935
	H355	H	0.705972	0.462482	-0.648260
	H356	H	0.712744	0.490702	-0.670425
	O357	O	-0.097660	1.007558	0.178815
	H358	H	-0.097481	1.023056	0.163100
	H359	H	-0.093546	1.013696	0.184519
	O360	O	0.440498	0.622537	0.549940
	H361	H	0.456037	0.611040	0.542373
	H362	H	0.450326	0.632703	0.552826
	O363	O	0.321974	0.362152	0.662906
	H364	H	0.317612	0.376105	0.663144
	H365	H	0.316697	0.366937	0.639043
	O366	O	0.633220	0.442014	0.635319
	H367	H	0.623414	0.430440	0.651252
	H368	H	0.637302	0.443841	0.638526
	O369	O	0.474066	0.283596	0.696398
	H370	H	0.458764	0.263583	0.716600
	H371	H	0.449802	0.284566	0.694486
	O372	O	0.355310	0.497723	0.558286
	H373	H	0.357821	0.496184	0.564541
	H374	H	0.354264	0.483212	0.554163
	O375	O	0.362136	0.530660	0.399258
	H376	H	0.359971	0.520337	0.389892
	H377	H	0.351258	0.535108	0.400994
	O378	O	0.541786	0.607709	0.321541
	H379	H	0.536879	0.601893	0.323122
	H380	H	0.560205	0.598511	0.317328
	O381	O	0.472409	0.312796	0.302866
	H382	H	0.470592	0.312369	0.293348
	H383	H	0.469489	0.338511	0.297626
	O384	O	0.680364	0.425516	1.513026
	H385	H	0.661067	0.430586	1.522395
	H386	H	0.687685	0.432182	1.532964
	O387	O	0.915667	1.082818	0.068543
	H388	H	0.914294	1.076373	0.065390
	H389	H	0.919192	1.093901	0.076797
	O390	O	0.657722	0.413528	0.464342
	H391	H	0.673630	0.418161	0.467033
	H392	H	0.657509	0.404217	0.479360
	O393	O	1.067631	0.098759	1.020290
	H394	H	1.080480	0.098188	1.012071
	H395	H	1.050371	0.114651	1.001236
	O396	O	0.066707	0.831619	1.167774
	H397	H	0.069808	0.827894	1.170911
	H398	H	0.066034	0.825694	1.157234
	O399	O	0.639551	0.581956	0.539766
	H400	H	0.646065	0.585267	0.552655
	H401	H	0.639495	0.581629	0.544131
	O402	O	1.033867	-0.109889	0.962583
	H403	H	1.024729	-0.093398	0.961991
	H404	H	1.040940	-0.112467	0.960727
	O405	O	-0.167047	0.170839	-0.091729
	H406	H	-0.175603	0.159023	-0.097081
	H407	H	-0.158900	0.165020	-0.090159
	O408	O	0.861019	0.949851	0.878707
	H409	H	0.863911	0.934960	0.880390
	H410	H	0.878732	0.947435	0.899337
	O411	O	1.124021	0.993166	-0.093683
	H412	H	1.130360	0.988550	-0.084348
	H413	H	1.127963	1.010734	-0.090164
	O414	O	0.182765	0.040304	1.075932
	H415	H	0.163313	0.049775	1.074706
	H416	H	0.190205	0.034052	1.084322
	O417	O	0.410152	0.340375	0.439398
	H418	H	0.397701	0.325880	0.432082
	H419	H	0.430100	0.328230	0.430043
	O420	O	-0.057529	1.010728	-0.099533
	H421	H	-0.054910	1.010195	-0.079264
	H422	H	-0.051329	0.983714	-0.101906
	O423	O	1.084341	-0.065574	-0.136031
	H424	H	1.072529	-0.057407	-0.133750
	H425	H	1.077287	-0.079077	-0.150195
	O426	O	-0.184377	-0.062360	0.884506
	H427	H	-0.183857	-0.061595	0.892465
	H428	H	-0.185126	-0.069253	0.888493
	O429	O	0.364562	0.665980	0.321578
	H430	H	0.372813	0.663157	0.335301
	H431	H	0.378849	0.682567	0.325160
