data_Molecule from HDF5

_cell_length_a		16.288710
_cell_length_b		16.336661
_cell_length_c		16.293581
_cell_angle_alpha	89.905155
_cell_angle_beta	89.880989
_cell_angle_gamma	89.861218
_symmetry_space_group_name_H-M	'P 1'
_symmetry_Int_Tables_number		1

loop_
	_symmetry_equiv_pos_as_xyz
	x,y,z

loop_
	_atom_site_label
	_atom_site_type_symbol
	_atom_site_fract_x
	_atom_site_fract_y
	_atom_site_fract_z
	H0	H	0.404409	0.842447	0.720048
	H1	H	0.601437	0.167560	0.719417
	H2	H	0.602068	0.840696	0.290272
	H3	H	0.404396	0.167521	0.289127
	H4	H	0.719331	0.404887	0.841627
	H5	H	0.716345	0.601618	0.167579
	H6	H	0.290342	0.601948	0.840755
	H7	H	0.288834	0.406605	0.168685
	H8	H	0.840392	0.720639	0.405182
	H9	H	0.166307	0.719045	0.602245
	H10	H	0.839531	0.291203	0.602669
	H11	H	0.166364	0.288584	0.404960
	H12	H	0.839665	0.408178	0.717967
	H13	H	0.167476	0.602361	0.717229
	H14	H	0.840265	0.605006	0.290168
	H15	H	0.167507	0.406120	0.289968
	H16	H	0.403504	0.719871	0.840922
	H17	H	0.600886	0.718422	0.167326
	H18	H	0.602992	0.288730	0.841633
	H19	H	0.403387	0.288750	0.167739
	H20	H	0.719173	0.841103	0.405463
	H21	H	0.716672	0.168115	0.602076
	H22	H	0.289284	0.841174	0.603852
	H23	H	0.288340	0.167559	0.406472
	H24	H	0.904619	0.342197	0.220548
	H25	H	0.100979	0.668999	0.218733
	H26	H	0.101642	0.341062	0.790386
	H27	H	0.905132	0.667842	0.789871
	H28	H	0.218776	0.905593	0.341228
	H29	H	0.216194	0.101842	0.668337
	H30	H	0.787701	0.103129	0.340792
	H31	H	0.789958	0.908036	0.668272
	H32	H	0.340038	0.219357	0.906185
	H33	H	0.666770	0.218275	0.103872
	H34	H	0.339790	0.789522	0.103969
	H35	H	0.666238	0.790134	0.905795
	H36	H	0.340039	0.905895	0.219410
	H37	H	0.667475	0.100207	0.217825
	H38	H	0.339494	0.103781	0.790941
	H39	H	0.666390	0.905515	0.789344
	H40	H	0.903553	0.220365	0.340250
	H41	H	0.100955	0.218593	0.667943
	H42	H	0.101812	0.790097	0.341101
	H43	H	0.904505	0.790713	0.667629
	H44	H	0.218993	0.341860	0.906370
	H45	H	0.219128	0.668482	0.103371
	H46	H	0.788615	0.341557	0.103829
	H47	H	0.788002	0.667321	0.905657
	H48	H	0.415042	0.119638	0.599810
	H49	H	0.592229	0.889174	0.601070
	H50	H	0.601090	0.121964	0.407898
	H51	H	0.410959	0.888269	0.410158
	H52	H	0.598781	0.407825	0.122941
	H53	H	0.601696	0.590348	0.887701
	H54	H	0.413922	0.596259	0.119456
	H55	H	0.418816	0.414555	0.892250
	H56	H	0.120033	0.596905	0.409965
	H57	H	0.887623	0.594045	0.600355
	H58	H	0.117727	0.419501	0.597494
	H59	H	0.882973	0.409435	0.400020
	H60	H	0.123565	0.406585	0.605020
	H61	H	0.884933	0.602600	0.600539
	H62	H	0.120232	0.599570	0.411824
	H63	H	0.887654	0.404013	0.422646
	H64	H	0.410434	0.601160	0.121117
	H65	H	0.588253	0.596541	0.889978
	H66	H	0.597032	0.415703	0.119669
	H67	H	0.410179	0.403475	0.885973
	H68	H	0.588755	0.118538	0.408093
	H69	H	0.595757	0.890393	0.592553
	H70	H	0.407275	0.119656	0.591314
	H71	H	0.411908	0.889317	0.412770
	H72	H	0.914554	0.617174	0.092142
	H73	H	0.089150	0.393013	0.094989
	H74	H	0.092486	0.621604	0.904443
	H75	H	0.905905	0.388136	0.914554
	H76	H	0.097298	0.908754	0.621848
	H77	H	0.092059	0.097522	0.389483
	H78	H	0.913053	0.100146	0.620034
	H79	H	0.914926	0.909936	0.388089
	H80	H	0.616804	0.094405	0.916838
	H81	H	0.387614	0.096365	0.097277
	H82	H	0.619945	0.917473	0.104301
	H83	H	0.382871	0.908323	0.905663
	H84	H	0.623914	0.899980	0.100123
	H85	H	0.387033	0.097092	0.098867
	H86	H	0.619481	0.093204	0.906873
	H87	H	0.387246	0.907440	0.918942
	H88	H	0.906644	0.101419	0.621855
	H89	H	0.096791	0.100845	0.387537
	H90	H	0.097544	0.914502	0.620622
	H91	H	0.907188	0.909927	0.386734
	H92	H	0.093976	0.618504	0.916751
	H93	H	0.102631	0.389646	0.092423
	H94	H	0.901196	0.622524	0.095197
	H95	H	0.910433	0.386405	0.905489
	H96	H	0.404112	0.123940	0.601389
	H97	H	0.601123	0.886717	0.598824
	H98	H	0.595973	0.118084	0.418974
	H99	H	0.409115	0.887524	0.412354
	H100	H	0.591336	0.409978	0.119500
	H101	H	0.599108	0.604561	0.884598
	H102	H	0.407743	0.595650	0.121024
	H103	H	0.405092	0.416806	0.888676
	H104	H	0.119077	0.596863	0.412803
	H105	H	0.887596	0.598722	0.593154
	H106	H	0.118972	0.405924	0.589533
	H107	H	0.892141	0.425563	0.414235
	H108	H	0.911510	0.622380	0.105077
	H109	H	0.096814	0.387494	0.104427
	H110	H	0.103540	0.622598	0.910243
	H111	H	0.915721	0.390444	0.912903
	H112	H	0.092978	0.911549	0.619456
	H113	H	0.097482	0.095181	0.388797
	H114	H	0.908083	0.094976	0.619005
	H115	H	0.910412	0.916606	0.389298
	H116	H	0.621835	0.102293	0.911347
	H117	H	0.386658	0.097953	0.097423
	H118	H	0.616430	0.910943	0.087562
	H119	H	0.388293	0.918778	0.912189
	C120	C	0.380658	0.013263	0.626575
	C121	C	0.624623	0.996496	0.625904
	C122	C	0.624836	0.012150	0.382794
	C123	C	0.381807	0.996243	0.383089
	C124	C	0.625046	0.382250	0.012904
	C125	C	0.624442	0.625470	0.995462
	C126	C	0.382043	0.626337	0.012807
	C127	C	0.382189	0.382826	0.996847
	C128	C	0.011827	0.626745	0.382926
	C129	C	0.994942	0.626680	0.626092
	C130	C	0.011639	0.383078	0.625883
	C131	C	0.995586	0.383737	0.383338
	C132	C	0.880836	0.513026	0.126819
	C133	C	0.124996	0.497372	0.126144
	C134	C	0.125235	0.513078	0.882266
	C135	C	0.882342	0.496337	0.883009
	C136	C	0.124934	0.882672	0.513022
	C137	C	0.123995	0.125707	0.496273
	C138	C	0.880543	0.127393	0.512415
	C139	C	0.882475	0.883967	0.496180
	C140	C	0.511599	0.125528	0.883305
	C141	C	0.495275	0.125315	0.126332
	C142	C	0.511793	0.881795	0.126183
	C143	C	0.494343	0.883068	0.883322
	C144	C	0.383607	0.890897	0.681872
	C145	C	0.621942	0.119081	0.681254
	C146	C	0.622499	0.889489	0.328069
	C147	C	0.383916	0.118904	0.327305
	C148	C	0.680785	0.384605	0.890235
	C149	C	0.678981	0.622795	0.118932
	C150	C	0.327135	0.623503	0.889592
	C151	C	0.326796	0.385951	0.119810
	C152	C	0.889270	0.682497	0.385253
	C153	C	0.117728	0.681414	0.623085
	C154	C	0.888496	0.328565	0.623423
	C155	C	0.118003	0.327420	0.385020
	C156	C	0.888504	0.386878	0.680492
	C157	C	0.118330	0.623132	0.679918
	C158	C	0.889112	0.624934	0.328127
	C159	C	0.118479	0.385785	0.328002
	C160	C	0.383890	0.681742	0.889549
	C161	C	0.621648	0.680713	0.118621
	C162	C	0.623074	0.326765	0.890377
	C163	C	0.383702	0.327391	0.119407
	C164	C	0.680600	0.889547	0.385293
	C165	C	0.679419	0.119150	0.622933
	C166	C	0.326499	0.890474	0.623833
	C167	C	0.326122	0.118830	0.385401
	C168	C	0.884152	0.390593	0.182254
	C169	C	0.121893	0.620278	0.180924
	C170	C	0.122460	0.389995	0.828083
	C171	C	0.884338	0.619055	0.827715
	C172	C	0.180296	0.885133	0.389812
	C173	C	0.178764	0.122879	0.619379
	C174	C	0.825660	0.124332	0.389374
	C175	C	0.827473	0.887084	0.619447
	C176	C	0.388725	0.181378	0.885828
	C177	C	0.618135	0.180280	0.124082
	C178	C	0.388539	0.827449	0.124084
	C179	C	0.617565	0.828035	0.885024
	C180	C	0.388796	0.885123	0.181623
	C181	C	0.618504	0.121574	0.180625
	C182	C	0.388494	0.124012	0.828493
	C183	C	0.617473	0.885445	0.827321
	C184	C	0.883264	0.182521	0.389191
	C185	C	0.121532	0.180732	0.619344
	C186	C	0.122658	0.827553	0.389822
	C187	C	0.884358	0.828576	0.618992
	C188	C	0.180817	0.390282	0.885542
	C189	C	0.180519	0.620061	0.123749
	C190	C	0.826190	0.390321	0.124627
	C191	C	0.826596	0.618990	0.885540
	C192	C	0.402594	0.099137	0.604157
	C193	C	0.602578	0.910888	0.603986
	C194	C	0.602048	0.097486	0.405025
	C195	C	0.404144	0.910564	0.405153
	C196	C	0.602330	0.404491	0.098705
	C197	C	0.602719	0.603549	0.909762
	C198	C	0.404115	0.604121	0.098347
	C199	C	0.404775	0.404967	0.911137
	C200	C	0.097753	0.604380	0.405153
	C201	C	0.908831	0.604815	0.604557
	C202	C	0.097930	0.404430	0.603905
	C203	C	0.909814	0.406378	0.405770
	C204	C	0.902546	0.598634	0.104055
	C205	C	0.102687	0.412041	0.103826
	C206	C	0.103143	0.598782	0.903940
	C207	C	0.904194	0.410664	0.904733
	C208	C	0.102460	0.904927	0.598488
	C209	C	0.101967	0.104149	0.410718
	C210	C	0.902615	0.105321	0.598134
	C211	C	0.904481	0.905637	0.410168
	C212	C	0.597237	0.103182	0.905184
	C213	C	0.409346	0.103569	0.104208
	C214	C	0.597838	0.903203	0.103901
	C215	C	0.408503	0.904981	0.905703
	Zn216	Zn	0.502540	0.004844	0.754384
	Zn217	Zn	0.503510	0.003720	0.254268
	Zn218	Zn	0.753068	0.504317	0.004218
	Zn219	Zn	0.253752	0.505595	0.004598
	Zn220	Zn	0.003345	0.754856	0.504583
	Zn221	Zn	0.003113	0.254857	0.504440
	Zn222	Zn	0.003540	0.504644	0.753731
	Zn223	Zn	0.003766	0.505550	0.254757
	Zn224	Zn	0.503013	0.754234	0.003827
	Zn225	Zn	0.503567	0.253977	0.004625
	Zn226	Zn	0.753268	0.004169	0.504101
	Zn227	Zn	0.252581	0.004635	0.504611
	N228	N	0.416339	0.968433	0.683782
	N229	N	0.588481	0.041941	0.682976
	N230	N	0.588423	0.966477	0.326456
	N231	N	0.417775	0.041593	0.325710
	N232	N	0.682039	0.418355	0.967484
	N233	N	0.680788	0.589142	0.041588
	N234	N	0.325799	0.589841	0.967049
	N235	N	0.325424	0.419610	0.042451
	N236	N	0.966711	0.683584	0.418860
	N237	N	0.040076	0.683374	0.590201
	N238	N	0.966201	0.326192	0.590172
	N239	N	0.040501	0.326100	0.418730
	N240	N	0.966080	0.419935	0.681869
	N241	N	0.040951	0.589617	0.681623
	N242	N	0.966341	0.590916	0.326591
	N243	N	0.041263	0.420018	0.326770
	N244	N	0.417199	0.683670	0.967061
	N245	N	0.588570	0.682575	0.040925
	N246	N	0.589254	0.325250	0.967849
	N247	N	0.417329	0.325311	0.041966
	N248	N	0.682100	0.966860	0.418772
	N249	N	0.681187	0.041883	0.589180
	N250	N	0.324743	0.967723	0.589988
	N251	N	0.324723	0.041694	0.419262
	N252	N	0.917383	0.467915	0.183703
	N253	N	0.087928	0.543179	0.182194
	N254	N	0.088469	0.467133	0.826169
	N255	N	0.918199	0.541940	0.825975
	N256	N	0.182102	0.918574	0.467185
	N257	N	0.180347	0.089360	0.541990
	N258	N	0.823842	0.090979	0.466878
	N259	N	0.826115	0.920655	0.541952
	N260	N	0.466212	0.182468	0.919212
	N261	N	0.540442	0.182723	0.091058
	N262	N	0.465964	0.825330	0.090309
	N263	N	0.540420	0.826679	0.919281
	N264	N	0.466374	0.918236	0.182965
	N265	N	0.541073	0.088248	0.182078
	N266	N	0.465773	0.089992	0.826613
	N267	N	0.539812	0.919052	0.826053
	N268	N	0.916464	0.184677	0.466846
	N269	N	0.088143	0.182667	0.541870
	N270	N	0.088889	0.825977	0.467321
	N271	N	0.917778	0.826619	0.541341
	N272	N	0.182707	0.467726	0.918592
	N273	N	0.182529	0.542648	0.090381
	N274	N	0.824043	0.467521	0.090856
	N275	N	0.825242	0.541671	0.919242
	O276	O	0.535137	0.490946	0.451945
	H277	H	0.530458	0.493974	0.445095
	H278	H	0.536930	0.486948	0.446775
	O279	O	0.014685	0.036152	0.001199
	H280	H	0.017603	0.049813	0.005474
	H281	H	0.010794	0.044031	-0.001532
	O282	O	0.537631	0.493343	0.477775
	H283	H	0.543630	0.491085	0.481076
	H284	H	0.543153	0.489340	0.475764
	O285	O	0.503811	0.464346	0.480232
	H286	H	0.503957	0.467362	0.474031
	H287	H	0.506034	0.463329	0.479068
	O288	O	0.987348	0.116032	-0.008828
	H289	H	0.993160	0.118601	-0.004204
	H290	H	0.984181	0.111434	-0.002927
	O291	O	-0.406480	0.453416	-0.491574
	H292	H	-0.420054	0.446289	-0.490248
	H293	H	-0.407332	0.449800	-0.489335
	O294	O	0.557838	0.453801	0.475622
	H295	H	0.556094	0.445486	0.484467
	H296	H	0.557036	0.451259	0.467298
	O297	O	0.021728	1.043064	-0.034617
	H298	H	0.028573	1.040185	-0.038854
	H299	H	0.020842	1.041336	-0.035593
	O300	O	1.006770	0.057322	1.017107
	H301	H	1.005718	0.046208	1.022479
	H302	H	1.012328	0.063101	1.006289
	O303	O	0.552919	0.493157	0.442571
	H304	H	0.559787	0.503559	0.446894
	H305	H	0.556383	0.498060	0.437100
	O306	O	0.049124	1.098538	1.025635
	H307	H	0.042180	1.090549	1.029165
	H308	H	0.041477	1.101926	1.026982
	O309	O	0.508920	0.473558	0.441204
	H310	H	0.520162	0.463828	0.438745
	H311	H	0.518608	0.472946	0.436731
