data_Molecule from HDF5

_cell_length_a		16.572247
_cell_length_b		16.463164
_cell_length_c		16.462859
_cell_angle_alpha	90.168762
_cell_angle_beta	90.082848
_cell_angle_gamma	89.995499
_symmetry_space_group_name_H-M	'P 1'
_symmetry_Int_Tables_number		1

loop_
	_symmetry_equiv_pos_as_xyz
	x,y,z

loop_
	_atom_site_label
	_atom_site_type_symbol
	_atom_site_fract_x
	_atom_site_fract_y
	_atom_site_fract_z
	H0	H	0.409981	0.846259	0.729482
	H1	H	0.624921	0.158973	0.741430
	H2	H	0.617085	0.846577	0.290456
	H3	H	0.406650	0.161351	0.290143
	H4	H	0.736239	0.391126	0.855745
	H5	H	0.734500	0.611350	0.167601
	H6	H	0.288961	0.607136	0.854708
	H7	H	0.288079	0.395682	0.168217
	H8	H	0.855275	0.727417	0.406305
	H9	H	0.168347	0.722702	0.615208
	H10	H	0.855342	0.277714	0.620806
	H11	H	0.168699	0.284742	0.410136
	H12	H	0.853690	0.395739	0.735627
	H13	H	0.168251	0.605811	0.732565
	H14	H	0.856156	0.611940	0.287962
	H15	H	0.167461	0.398259	0.290969
	H16	H	0.405613	0.723473	0.854637
	H17	H	0.614819	0.724852	0.169355
	H18	H	0.618982	0.277548	0.856108
	H19	H	0.404920	0.280781	0.167664
	H20	H	0.735763	0.848143	0.404558
	H21	H	0.739687	0.159912	0.624685
	H22	H	0.292453	0.847043	0.614645
	H23	H	0.288274	0.160727	0.404408
	H24	H	0.902906	0.346336	0.234983
	H25	H	0.116138	0.660024	0.234115
	H26	H	0.115729	0.344700	0.790461
	H27	H	0.906171	0.661165	0.792686
	H28	H	0.230762	0.899385	0.354426
	H29	H	0.233492	0.110283	0.670439
	H30	H	0.785711	0.114301	0.357503
	H31	H	0.788351	0.897603	0.668362
	H32	H	0.355924	0.228624	0.901727
	H33	H	0.667397	0.226991	0.118500
	H34	H	0.353302	0.784760	0.115221
	H35	H	0.666268	0.779124	0.904866
	H36	H	0.354562	0.900474	0.232630
	H37	H	0.668156	0.110502	0.234373
	H38	H	0.356810	0.113021	0.785386
	H39	H	0.667463	0.896843	0.789487
	H40	H	0.904495	0.226809	0.355595
	H41	H	0.116266	0.224803	0.671528
	H42	H	0.113341	0.784375	0.354085
	H43	H	0.907673	0.784909	0.671285
	H44	H	0.234491	0.345359	0.903362
	H45	H	0.233878	0.659099	0.118815
	H46	H	0.786341	0.346776	0.119035
	H47	H	0.787695	0.658966	0.906034
	H48	H	0.424864	0.118010	0.601937
	H49	H	0.603064	0.895546	0.590268
	H50	H	0.602800	0.116660	0.427732
	H51	H	0.416323	0.889885	0.424447
	H52	H	0.592998	0.416869	0.121437
	H53	H	0.605423	0.594173	0.895101
	H54	H	0.418207	0.597292	0.127538
	H55	H	0.421800	0.418257	0.899292
	H56	H	0.124567	0.595738	0.424103
	H57	H	0.899418	0.589651	0.600718
	H58	H	0.126108	0.409994	0.608629
	H59	H	0.899202	0.415156	0.423822
	H60	H	0.119952	0.411001	0.593726
	H61	H	0.896419	0.594172	0.606441
	H62	H	0.121384	0.591528	0.426772
	H63	H	0.899169	0.415485	0.424775
	H64	H	0.418358	0.589244	0.125497
	H65	H	0.599093	0.581994	0.901850
	H66	H	0.600985	0.412518	0.126039
	H67	H	0.425170	0.417351	0.899968
	H68	H	0.596765	0.116742	0.421239
	H69	H	0.604259	0.890793	0.604117
	H70	H	0.424420	0.116948	0.597592
	H71	H	0.421622	0.888816	0.416522
	H72	H	0.919487	0.614751	0.097440
	H73	H	0.096220	0.389513	0.102869
	H74	H	0.103653	0.616999	0.921949
	H75	H	0.916774	0.388884	0.926891
	H76	H	0.102933	0.913022	0.626972
	H77	H	0.107669	0.094747	0.396992
	H78	H	0.929477	0.086886	0.620763
	H79	H	0.922418	0.906924	0.396947
	H80	H	0.618759	0.090704	0.934529
	H81	H	0.397678	0.097694	0.100102
	H82	H	0.625865	0.912053	0.105615
	H83	H	0.399971	0.914356	0.923783
	H84	H	0.623975	0.910608	0.097387
	H85	H	0.402222	0.089213	0.096561
	H86	H	0.619248	0.082121	0.923634
	H87	H	0.399170	0.916563	0.919419
	H88	H	0.927579	0.093275	0.624878
	H89	H	0.100632	0.087538	0.401684
	H90	H	0.105455	0.913562	0.627606
	H91	H	0.915914	0.921306	0.399844
	H92	H	0.097512	0.615030	0.922250
	H93	H	0.098536	0.391636	0.096028
	H94	H	0.922766	0.616290	0.102694
	H95	H	0.924363	0.389058	0.918454
	H96	H	0.421186	0.118489	0.599685
	H97	H	0.591815	0.896072	0.599711
	H98	H	0.594656	0.113348	0.429181
	H99	H	0.424798	0.893156	0.424153
	H100	H	0.601399	0.421754	0.121910
	H101	H	0.591318	0.595089	0.900353
	H102	H	0.425380	0.593540	0.124497
	H103	H	0.422689	0.414823	0.898999
	H104	H	0.123418	0.590799	0.421138
	H105	H	0.897504	0.597386	0.599458
	H106	H	0.119093	0.424073	0.603764
	H107	H	0.899269	0.415911	0.424376
	H108	H	0.925282	0.613123	0.097754
	H109	H	0.103040	0.388451	0.100817
	H110	H	0.101538	0.614228	0.927231
	H111	H	0.927171	0.393363	0.928527
	H112	H	0.104048	0.915526	0.626457
	H113	H	0.097189	0.098309	0.399729
	H114	H	0.922880	0.087167	0.624284
	H115	H	0.931601	0.918808	0.403387
	H116	H	0.624692	0.094714	0.922948
	H117	H	0.398644	0.089328	0.105213
	H118	H	0.622266	0.918208	0.100515
	H119	H	0.397383	0.912428	0.920337
	C120	C	0.391697	0.013520	0.632014
	C121	C	0.634343	0.996596	0.633658
	C122	C	0.632493	0.012649	0.391973
	C123	C	0.389268	0.994966	0.389535
	C124	C	0.632394	0.382070	0.019937
	C125	C	0.631509	0.623936	1.003106
	C126	C	0.388584	0.624949	0.021421
	C127	C	0.389994	0.382639	1.002809
	C128	C	0.019762	0.625652	0.390925
	C129	C	1.002042	0.625089	0.634299
	C130	C	0.018849	0.381410	0.635097
	C131	C	1.002571	0.382686	0.391730
	C132	C	0.888996	0.511387	0.133020
	C133	C	0.132082	0.494010	0.132889
	C134	C	0.132414	0.510921	0.890993
	C135	C	0.889368	0.494051	0.891330
	C136	C	0.133646	0.882653	0.521722
	C137	C	0.133759	0.125987	0.504197
	C138	C	0.891430	0.124412	0.520639
	C139	C	0.890757	0.883300	0.504041
	C140	C	0.519275	0.124475	0.891146
	C141	C	0.502807	0.125606	0.133800
	C142	C	0.520013	0.882392	0.132973
	C143	C	0.502442	0.881646	0.889483
	C144	C	0.390750	0.894190	0.690475
	C145	C	0.640613	0.112825	0.698818
	C146	C	0.635544	0.894088	0.330620
	C147	C	0.387812	0.114044	0.329865
	C148	C	0.694704	0.375694	0.902722
	C149	C	0.693061	0.628568	0.120987
	C150	C	0.328855	0.626128	0.902300
	C151	C	0.328622	0.378084	0.120876
	C152	C	0.902127	0.686659	0.388052
	C153	C	0.121077	0.683294	0.634816
	C154	C	0.901724	0.319167	0.638299
	C155	C	0.121269	0.323679	0.390734
	C156	C	0.900993	0.377766	0.695614
	C157	C	0.120897	0.625393	0.693098
	C158	C	0.902564	0.629285	0.329090
	C159	C	0.120447	0.379901	0.331180
	C160	C	0.386758	0.683885	0.902000
	C161	C	0.634110	0.685337	0.121664
	C162	C	0.636134	0.319032	0.902600
	C163	C	0.386722	0.321000	0.120715
	C164	C	0.694684	0.894954	0.387201
	C165	C	0.698186	0.113094	0.640836
	C166	C	0.332256	0.894496	0.633602
	C167	C	0.328941	0.113710	0.386621
	C168	C	0.885442	0.393404	0.194382
	C169	C	0.134664	0.612681	0.193834
	C170	C	0.133871	0.391949	0.830618
	C171	C	0.886931	0.613178	0.831509
	C172	C	0.191390	0.880936	0.402082
	C173	C	0.193590	0.128536	0.622978
	C174	C	0.827550	0.130666	0.403855
	C175	C	0.829732	0.880693	0.622013
	C176	C	0.402741	0.187500	0.885188
	C177	C	0.620364	0.186820	0.136785
	C178	C	0.400956	0.823877	0.134436
	C179	C	0.619684	0.820175	0.886940
	C180	C	0.401602	0.881567	0.192679
	C181	C	0.620712	0.128643	0.194336
	C182	C	0.403229	0.129940	0.826984
	C183	C	0.620244	0.878549	0.829369
	C184	C	0.886632	0.186829	0.403136
	C185	C	0.135032	0.185451	0.623466
	C186	C	0.133174	0.823565	0.402023
	C187	C	0.888631	0.824099	0.623202
	C188	C	0.193339	0.392448	0.886704
	C189	C	0.193301	0.612087	0.136750
	C190	C	0.827255	0.393542	0.136699
	C191	C	0.828072	0.612099	0.887780
	C192	C	0.416526	0.096225	0.607064
	C193	C	0.607287	0.915250	0.605947
	C194	C	0.605788	0.094272	0.418470
	C195	C	0.413844	0.912232	0.414594
	C196	C	0.606033	0.409494	0.101780
	C197	C	0.605954	0.597846	0.920673
	C198	C	0.413530	0.600524	0.104227
	C199	C	0.415821	0.409235	0.920692
	C200	C	0.101802	0.600019	0.416725
	C201	C	0.919316	0.600746	0.609298
	C202	C	0.100458	0.407770	0.609384
	C203	C	0.920530	0.408085	0.417108
	C204	C	0.914881	0.593348	0.106852
	C205	C	0.106588	0.411313	0.107153
	C206	C	0.108004	0.593689	0.916556
	C207	C	0.915368	0.412062	0.917041
	C208	C	0.110701	0.906962	0.605257
	C209	C	0.108947	0.100728	0.421115
	C210	C	0.918745	0.096859	0.602076
	C211	C	0.916121	0.908597	0.421440
	C212	C	0.599881	0.096997	0.919217
	C213	C	0.420938	0.099572	0.107908
	C214	C	0.602565	0.906619	0.108249
	C215	C	0.420125	0.907079	0.914293
	Zn216	Zn	0.512459	0.004319	0.761309
	Zn217	Zn	0.511715	0.003984	0.262417
	Zn218	Zn	0.760271	0.503243	0.011617
	Zn219	Zn	0.260885	0.502135	0.012231
	Zn220	Zn	0.011456	0.754686	0.512935
	Zn221	Zn	0.011021	0.253267	0.512787
	Zn222	Zn	0.010373	0.503003	0.763152
	Zn223	Zn	0.010889	0.503007	0.261833
	Zn224	Zn	0.510281	0.752744	0.011706
	Zn225	Zn	0.511087	0.254353	0.011828
	Zn226	Zn	0.762310	0.004526	0.512164
	Zn227	Zn	0.262151	0.004456	0.511792
	N228	N	0.426938	0.969249	0.689715
	N229	N	0.601314	0.039365	0.694327
	N230	N	0.597812	0.968333	0.333109
	N231	N	0.424586	0.039349	0.331525
	N232	N	0.692534	0.414121	0.976997
	N233	N	0.691482	0.591359	0.046231
	N234	N	0.329664	0.590341	0.977629
	N235	N	0.330366	0.415374	0.046312
	N236	N	0.976239	0.684703	0.425419
	N237	N	0.045974	0.683506	0.599471
	N238	N	0.975932	0.321308	0.601449
	N239	N	0.046825	0.325152	0.427446
	N240	N	0.974807	0.415752	0.693785
	N241	N	0.045544	0.590350	0.693323
	N242	N	0.976839	0.592120	0.330687
	N243	N	0.045600	0.415711	0.331426
	N244	N	0.423012	0.683245	0.977002
	N245	N	0.596203	0.682405	0.047324
	N246	N	0.598081	0.322813	0.976520
	N247	N	0.424033	0.323568	0.046318
	N248	N	0.692962	0.969560	0.424600
	N249	N	0.694116	0.039988	0.600759
	N250	N	0.332398	0.969861	0.598077
	N251	N	0.329612	0.038712	0.422946
	N252	N	0.923063	0.467762	0.192402
	N253	N	0.097436	0.538161	0.191609
	N254	N	0.096686	0.466550	0.833122
	N255	N	0.924066	0.538657	0.833261
	N256	N	0.191950	0.916981	0.477492
	N257	N	0.193215	0.092429	0.547569
	N258	N	0.830511	0.092732	0.478059
	N259	N	0.830680	0.916408	0.546703
	N260	N	0.475925	0.184203	0.924351
	N261	N	0.545765	0.185228	0.099898
	N262	N	0.475492	0.824150	0.098107
	N263	N	0.545164	0.821890	0.923538
	N264	N	0.476597	0.917278	0.191828
	N265	N	0.546773	0.091405	0.192642
	N266	N	0.476842	0.091798	0.830275
	N267	N	0.546291	0.916189	0.830962
	N268	N	0.925511	0.183049	0.476882
	N269	N	0.098689	0.184161	0.548349
	N270	N	0.097946	0.824507	0.477485
	N271	N	0.925871	0.825595	0.548897
	N272	N	0.192668	0.467398	0.923607
	N273	N	0.191980	0.537163	0.099865
	N274	N	0.829194	0.468008	0.099562
	N275	N	0.828993	0.536877	0.923739
	O276	O	0.623600	0.711624	0.395502
	H277	H	0.621629	0.716497	0.398462
	H278	H	0.621876	0.688013	0.394831
	O279	O	0.728553	0.437710	0.576279
	H280	H	0.733183	0.456059	0.554053
	H281	H	0.724446	0.429231	0.586699
	O282	O	0.547403	0.707892	0.603035
	H283	H	0.536958	0.716727	0.580243
	H284	H	0.556823	0.722353	0.613445
	O285	O	0.693690	0.410879	0.308438
	H286	H	0.696299	0.410506	0.296450
	H287	H	0.686157	0.394777	0.323698
	O288	O	-0.028863	0.091059	0.026019
	H289	H	-0.028469	0.093978	0.025360
	H290	H	-0.032958	0.090299	0.005213
	O291	O	1.190724	0.985162	-0.011122
	H292	H	1.176022	0.984884	0.003735
	H293	H	1.194709	0.986958	-0.021263
	O294	O	-0.103029	0.985662	0.004101
	H295	H	-0.087879	0.984254	0.008155
	H296	H	-0.103669	0.980883	0.000598
	O297	O	0.815766	0.814240	0.204114
	H298	H	0.835412	0.820037	0.206055
	H299	H	0.823025	0.800552	0.187785
	O300	O	0.592920	0.629937	0.309693
	H301	H	0.592478	0.615206	0.306900
	H302	H	0.584614	0.630554	0.292217
	O303	O	0.328064	0.319307	0.705940
	H304	H	0.316372	0.346670	0.690612
	H305	H	0.351519	0.305103	0.709818
	O306	O	0.192057	0.990740	0.803614
	H307	H	0.185048	1.013112	0.794228
	H308	H	0.191877	0.998386	0.792198
	O309	O	0.480545	0.477414	0.302622
	H310	H	0.480131	0.477444	0.294272
	H311	H	0.467592	0.483826	0.306681
	O312	O	0.299463	0.520613	0.299758
	H313	H	0.274702	0.530761	0.290350
	H314	H	0.297841	0.556384	0.311229
	O315	O	0.068999	0.151763	0.829927
	H316	H	0.064233	0.169441	0.835204
	H317	H	0.063943	0.148328	0.838424
	O318	O	-0.557930	1.639005	0.376271
	H319	H	-0.546237	1.640956	0.351412
	H320	H	-0.543861	1.654043	0.378268
	O321	O	0.243816	0.822065	0.193569
	H322	H	0.232075	0.819330	0.194551
	H323	H	0.225790	0.835373	0.173808
	O324	O	0.968434	0.175456	1.010764
	H325	H	0.966810	0.162689	1.022055
	H326	H	0.993890	0.169643	1.022903
	O327	O	1.138425	0.034933	0.977013
	H328	H	1.130099	0.026505	0.984110
	H329	H	1.145081	0.026121	0.970554
	O330	O	1.045315	-0.214732	-0.209501
	H331	H	1.049587	-0.245575	-0.234944
	H332	H	1.088154	-0.213274	-0.207496
	O333	O	0.711108	0.701564	0.709966
	H334	H	0.678193	0.700373	0.713782
	H335	H	0.715661	0.666748	0.714639
	O336	O	1.002524	-0.036209	0.951030
	H337	H	0.987200	-0.056679	0.959217
	H338	H	0.996410	-0.053432	0.953244
	O339	O	0.004119	0.142799	0.177690
	H340	H	0.013970	0.142019	0.170203
	H341	H	0.005102	0.160844	0.181163
	O342	O	0.543093	0.570292	0.610135
	H343	H	0.556436	0.565720	0.612005
	H344	H	0.543294	0.552483	0.614327
	O345	O	0.002356	-0.132063	-0.089739
	H346	H	-0.007323	-0.132888	-0.110421
	H347	H	-0.025656	-0.131703	-0.104568
	O348	O	1.212658	-0.198109	0.813396
	H349	H	1.245024	-0.214727	0.782146
	H350	H	1.215960	-0.160060	0.819987
	O351	O	0.907902	1.150487	0.174105
	H352	H	0.912648	1.160547	0.184271
	H353	H	0.913307	1.139116	0.173765
	O354	O	0.723405	0.717112	0.537437
	H355	H	0.717114	0.716379	0.565217
	H356	H	0.740091	0.741946	0.544585
	O357	O	0.983333	0.799935	1.153446
	H358	H	0.990045	0.781300	1.140430
	H359	H	0.980175	0.784651	1.148399
	O360	O	0.337272	0.627762	0.502120
	H361	H	0.344061	0.629336	0.497522
	H362	H	0.326563	0.626106	0.511045
	O363	O	0.425457	0.446936	0.500142
	H364	H	0.424792	0.442797	0.476487
	H365	H	0.451827	0.447908	0.488849
	O366	O	0.820559	-0.135927	0.888797
	H367	H	0.815394	-0.104519	0.890465
	H368	H	0.806680	-0.136594	0.870625
	O369	O	0.056698	1.011969	-0.150580
	H370	H	0.067672	0.995902	-0.143732
	H371	H	0.050048	1.000737	-0.135075
	O372	O	0.320261	0.693288	0.377063
	H373	H	0.324554	0.704590	0.366567
	H374	H	0.329104	0.701273	0.403968
	O375	O	-0.123052	1.019653	0.894700
	H376	H	-0.108860	1.006767	0.900207
	H377	H	-0.131381	1.021001	0.879246
	O378	O	0.523028	0.374323	0.297552
	H379	H	0.516000	0.385396	0.287879
	H380	H	0.527544	0.360418	0.286082
	O381	O	0.979764	-0.049695	0.164734
	H382	H	0.972226	-0.064575	0.169373
	H383	H	0.978963	-0.043384	0.179482
	O384	O	-0.278755	0.289339	1.490249
	H385	H	-0.263539	0.288458	1.496643
	H386	H	-0.281123	0.275906	1.491508
	O387	O	0.224392	1.219098	1.036355
	H388	H	0.238595	1.219535	1.046105
	H389	H	0.238576	1.225113	1.024029
	O390	O	0.726927	0.528996	0.729505
	H391	H	0.722378	0.515639	0.743321
	H392	H	0.743712	0.517069	0.736721
	O393	O	1.212248	1.022028	0.212035
	H394	H	1.198522	1.010657	0.205958
	H395	H	1.220300	1.018978	0.217279
	O396	O	0.301236	0.288471	0.547441
	H397	H	0.279928	0.274910	0.537823
	H398	H	0.301363	0.284079	0.560777
	O399	O	0.425203	0.538815	0.732265
	H400	H	0.421670	0.558084	0.739782
	H401	H	0.449904	0.507245	0.722413
	O402	O	-0.188234	0.190416	1.001044
	H403	H	-0.197869	0.189714	1.007651
	H404	H	-0.179036	0.207162	1.017844
	O405	O	0.062093	-0.219889	0.067859
	H406	H	0.052860	-0.217020	0.050790
	H407	H	0.068873	-0.221881	0.041752
	O408	O	0.668470	0.553003	0.417985
	H409	H	0.667330	0.560612	0.405105
	H410	H	0.677638	0.570423	0.408586
	O411	O	0.226925	0.784401	-0.017696
	H412	H	0.220666	0.786548	-0.049207
	H413	H	0.257219	0.760404	-0.023626
	O414	O	0.491846	0.285022	0.728915
	H415	H	0.489922	0.278611	0.696760
	H416	H	0.486675	0.248530	0.758606
	O417	O	0.828959	0.174758	0.834249
	H418	H	0.850196	0.171878	0.839270
	H419	H	0.821195	0.171620	0.863658
	O420	O	0.707934	0.359444	0.318945
	H421	H	0.708709	0.357771	0.302223
	H422	H	0.700448	0.341290	0.336100
	O423	O	-0.201702	0.980582	0.225409
	H424	H	-0.200809	0.964637	0.223251
	H425	H	-0.214575	0.970026	0.244497
	O426	O	1.134021	0.883480	1.212610
	H427	H	1.132056	0.895297	1.208217
	H428	H	1.112721	0.888571	1.193332
	O429	O	0.361219	0.571217	0.529649
	H430	H	0.361245	0.559541	0.523352
	H431	H	0.367486	0.559238	0.544314
	O432	O	0.576124	0.441145	0.723428
	H433	H	0.585125	0.441894	0.708731
	H434	H	0.557673	0.405580	0.725892
	O435	O	-0.116557	0.112293	-0.203698
	H436	H	-0.132996	0.130094	-0.201647
	H437	H	-0.129505	0.132281	-0.220532
	O438	O	1.203675	0.193360	0.205377
	H439	H	1.209232	0.181106	0.186589
	H440	H	1.189016	0.168245	0.197620
	O441	O	-0.199323	-0.195671	0.030197
	H442	H	-0.209314	-0.196452	0.031733
	H443	H	-0.213210	-0.190041	0.025634
	O444	O	0.471134	0.295053	0.425802
	H445	H	0.456710	0.296019	0.433311
	H446	H	0.466800	0.301596	0.395877
	O447	O	0.590361	0.524876	0.490199
	H448	H	0.606431	0.531462	0.490356
	H449	H	0.591059	0.528307	0.488051
	O450	O	0.489871	0.706180	0.594714
	H451	H	0.496083	0.685424	0.588358
	H452	H	0.491422	0.710016	0.580638
	O453	O	0.343525	0.335984	0.372517
	H454	H	0.336096	0.325650	0.351601
	H455	H	0.339709	0.353776	0.385098
	O456	O	0.568485	0.276029	0.576379
	H457	H	0.572418	0.281507	0.571053
	H458	H	0.557219	0.273362	0.556870
	O459	O	0.042175	0.212422	0.132155
	H460	H	0.051816	0.224098	0.128045
	H461	H	0.054067	0.205543	0.141591
	O462	O	0.309276	0.503239	0.677663
	H463	H	0.311827	0.497115	0.691846
	H464	H	0.323246	0.505722	0.669235
	O465	O	1.321350	-0.308331	-0.305452
	H466	H	1.334849	-0.326997	-0.321857
	H467	H	1.341023	-0.327175	-0.318610
