data_Molecule from HDF5

_cell_length_a		16.174453
_cell_length_b		16.491254
_cell_length_c		16.274326
_cell_angle_alpha	89.945550
_cell_angle_beta	90.108623
_cell_angle_gamma	90.132236
_symmetry_space_group_name_H-M	'P 1'
_symmetry_Int_Tables_number		1

loop_
	_symmetry_equiv_pos_as_xyz
	x,y,z

loop_
	_atom_site_label
	_atom_site_type_symbol
	_atom_site_fract_x
	_atom_site_fract_y
	_atom_site_fract_z
	H0	H	0.400424	0.841585	0.715689
	H1	H	0.608022	0.160655	0.719163
	H2	H	0.605208	0.841477	0.279281
	H3	H	0.399422	0.160488	0.276864
	H4	H	0.719979	0.402954	0.835916
	H5	H	0.717725	0.600388	0.162671
	H6	H	0.289804	0.598922	0.835315
	H7	H	0.289935	0.402643	0.162164
	H8	H	0.841115	0.721446	0.395981
	H9	H	0.166809	0.721545	0.601619
	H10	H	0.843588	0.282129	0.606282
	H11	H	0.166502	0.286221	0.396133
	H12	H	0.840454	0.404313	0.714089
	H13	H	0.168113	0.602537	0.714348
	H14	H	0.838955	0.603206	0.283738
	H15	H	0.167128	0.405021	0.284191
	H16	H	0.400591	0.718391	0.836040
	H17	H	0.608433	0.721841	0.159104
	H18	H	0.608922	0.281992	0.837959
	H19	H	0.398787	0.280397	0.158326
	H20	H	0.722680	0.841287	0.395907
	H21	H	0.721526	0.162518	0.599435
	H22	H	0.285704	0.841557	0.597546
	H23	H	0.287361	0.162339	0.395686
	H24	H	0.901589	0.343286	0.218611
	H25	H	0.107915	0.663992	0.218493
	H26	H	0.107452	0.343482	0.779304
	H27	H	0.901805	0.663559	0.781357
	H28	H	0.216088	0.906087	0.333348
	H29	H	0.221986	0.103679	0.659853
	H30	H	0.787770	0.102816	0.335062
	H31	H	0.787300	0.902161	0.660135
	H32	H	0.342159	0.221903	0.890147
	H33	H	0.664251	0.220846	0.103403
	H34	H	0.340884	0.782402	0.099015
	H35	H	0.665536	0.783288	0.893656
	H36	H	0.338853	0.900456	0.212037
	H37	H	0.666302	0.101145	0.213108
	H38	H	0.339606	0.100315	0.782073
	H39	H	0.666677	0.901338	0.781897
	H40	H	0.899643	0.223299	0.338142
	H41	H	0.111664	0.222749	0.658926
	H42	H	0.107318	0.783941	0.337329
	H43	H	0.898614	0.784751	0.659050
	H44	H	0.219678	0.341136	0.899048
	H45	H	0.224398	0.663185	0.101371
	H46	H	0.785409	0.342507	0.102663
	H47	H	0.786123	0.663205	0.898140
	H48	H	0.416856	0.116330	0.592712
	H49	H	0.595137	0.888123	0.590075
	H50	H	0.592027	0.113328	0.407763
	H51	H	0.406952	0.885690	0.405561
	H52	H	0.592334	0.405506	0.114364
	H53	H	0.591817	0.596122	0.882904
	H54	H	0.425246	0.602279	0.113294
	H55	H	0.413741	0.403547	0.881021
	H56	H	0.118918	0.592784	0.409887
	H57	H	0.889264	0.589607	0.590154
	H58	H	0.121119	0.411141	0.589634
	H59	H	0.885927	0.408041	0.407880
	H60	H	0.120502	0.413095	0.588319
	H61	H	0.885123	0.598859	0.595187
	H62	H	0.119636	0.596452	0.408706
	H63	H	0.889691	0.411947	0.417217
	H64	H	0.404244	0.596297	0.118460
	H65	H	0.598115	0.593770	0.881962
	H66	H	0.597339	0.411161	0.114436
	H67	H	0.407750	0.412419	0.882042
	H68	H	0.598368	0.116233	0.407024
	H69	H	0.592488	0.888891	0.588603
	H70	H	0.415131	0.113794	0.586433
	H71	H	0.412614	0.887385	0.401946
	H72	H	0.907759	0.617928	0.090688
	H73	H	0.096807	0.387617	0.098853
	H74	H	0.093081	0.613827	0.913398
	H75	H	0.911895	0.387392	0.904616
	H76	H	0.091718	0.913395	0.612818
	H77	H	0.093481	0.104424	0.379522
	H78	H	0.914844	0.088594	0.611243
	H79	H	0.915691	0.917205	0.384549
	H80	H	0.618458	0.096657	0.914207
	H81	H	0.386382	0.089943	0.090920
	H82	H	0.620128	0.911390	0.091831
	H83	H	0.386838	0.908804	0.906973
	H84	H	0.620498	0.906766	0.087611
	H85	H	0.385578	0.096263	0.085105
	H86	H	0.616228	0.085809	0.910280
	H87	H	0.386825	0.908360	0.907541
	H88	H	0.919595	0.097391	0.613722
	H89	H	0.100195	0.092672	0.381529
	H90	H	0.094316	0.909241	0.613674
	H91	H	0.918749	0.906822	0.382925
	H92	H	0.102570	0.617885	0.908807
	H93	H	0.088386	0.391980	0.091381
	H94	H	0.913618	0.617767	0.093991
	H95	H	0.915343	0.390598	0.907379
	H96	H	0.410672	0.116464	0.589893
	H97	H	0.594839	0.888282	0.586967
	H98	H	0.593549	0.116270	0.401583
	H99	H	0.413202	0.888930	0.408647
	H100	H	0.589587	0.412611	0.112015
	H101	H	0.592836	0.589708	0.884646
	H102	H	0.418212	0.581175	0.110010
	H103	H	0.418209	0.412551	0.884990
	H104	H	0.118817	0.595734	0.412481
	H105	H	0.887702	0.598789	0.584732
	H106	H	0.120180	0.412969	0.590898
	H107	H	0.889682	0.418220	0.408376
	H108	H	0.913496	0.615507	0.088472
	H109	H	0.100027	0.389820	0.087307
	H110	H	0.093811	0.617781	0.902403
	H111	H	0.910809	0.389124	0.909575
	H112	H	0.096905	0.913518	0.614201
	H113	H	0.087606	0.093184	0.386631
	H114	H	0.909420	0.096367	0.615704
	H115	H	0.908329	0.910159	0.379736
	H116	H	0.622020	0.094594	0.903292
	H117	H	0.388768	0.088469	0.082634
	H118	H	0.618076	0.913080	0.085247
	H119	H	0.386372	0.908809	0.907613
	C120	C	0.382313	0.010109	0.619419
	C121	C	0.625522	0.993654	0.619864
	C122	C	0.625579	0.009977	0.375127
	C123	C	0.380955	0.993012	0.374586
	C124	C	0.624648	0.379937	0.007118
	C125	C	0.625493	0.623837	0.989804
	C126	C	0.384473	0.622342	0.006609
	C127	C	0.382377	0.379478	0.989752
	C128	C	0.011730	0.625167	0.378549
	C129	C	0.995303	0.625255	0.620139
	C130	C	0.013113	0.381795	0.620692
	C131	C	0.995471	0.382631	0.379392
	C132	C	0.881227	0.511354	0.121875
	C133	C	0.126528	0.495315	0.122344
	C134	C	0.126117	0.510676	0.877770
	C135	C	0.882033	0.494741	0.877063
	C136	C	0.124689	0.882251	0.506143
	C137	C	0.125930	0.126097	0.489297
	C138	C	0.882690	0.124908	0.507128
	C139	C	0.882903	0.881651	0.489411
	C140	C	0.511653	0.122290	0.877132
	C141	C	0.494199	0.122290	0.118096
	C142	C	0.511884	0.879592	0.118527
	C143	C	0.494609	0.879249	0.876680
	C144	C	0.381466	0.889612	0.676755
	C145	C	0.626440	0.113186	0.679128
	C146	C	0.625307	0.889309	0.318162
	C147	C	0.381033	0.113026	0.316545
	C148	C	0.681689	0.382080	0.884761
	C149	C	0.680899	0.621796	0.113088
	C150	C	0.327618	0.619758	0.884109
	C151	C	0.326744	0.381611	0.112646
	C152	C	0.889355	0.682393	0.377530
	C153	C	0.118116	0.682625	0.620813
	C154	C	0.891681	0.322490	0.623502
	C155	C	0.117949	0.325612	0.377998
	C156	C	0.890021	0.383144	0.677402
	C157	C	0.118829	0.623414	0.676713
	C158	C	0.888551	0.623953	0.321292
	C159	C	0.118076	0.384454	0.322013
	C160	C	0.382684	0.679216	0.884632
	C161	C	0.626403	0.681984	0.111258
	C162	C	0.626183	0.322211	0.885593
	C163	C	0.381054	0.320957	0.110913
	C164	C	0.683570	0.889324	0.376191
	C165	C	0.682984	0.114128	0.619506
	C166	C	0.324371	0.889651	0.617863
	C167	C	0.324949	0.114101	0.375555
	C168	C	0.881812	0.391328	0.179896
	C169	C	0.127038	0.615729	0.179729
	C170	C	0.125990	0.390857	0.819188
	C171	C	0.882366	0.615399	0.819967
	C172	C	0.179628	0.884850	0.383069
	C173	C	0.183625	0.123860	0.611027
	C174	C	0.825426	0.123549	0.384630
	C175	C	0.825615	0.882622	0.611621
	C176	C	0.390254	0.181534	0.873613
	C177	C	0.615976	0.181073	0.120676
	C178	C	0.389534	0.821389	0.118653
	C179	C	0.617085	0.822282	0.875601
	C180	C	0.388512	0.879822	0.175139
	C181	C	0.616884	0.121242	0.175445
	C182	C	0.388914	0.121214	0.819408
	C183	C	0.617642	0.880855	0.819844
	C184	C	0.881030	0.183587	0.386002
	C185	C	0.128706	0.183533	0.610582
	C186	C	0.125458	0.823996	0.385076
	C187	C	0.880822	0.823841	0.610873
	C188	C	0.181937	0.389533	0.878934
	C189	C	0.185171	0.615412	0.121461
	C190	C	0.824389	0.390730	0.121811
	C191	C	0.824585	0.615147	0.878103
	C192	C	0.407015	0.093864	0.596363
	C193	C	0.601283	0.909965	0.595576
	C194	C	0.601485	0.093603	0.398478
	C195	C	0.404181	0.909153	0.398482
	C196	C	0.600349	0.403002	0.091698
	C197	C	0.601309	0.600281	0.905207
	C198	C	0.408823	0.599896	0.091879
	C199	C	0.406328	0.402659	0.904695
	C200	C	0.096930	0.601779	0.403009
	C201	C	0.909747	0.602525	0.596766
	C202	C	0.098414	0.405539	0.596699
	C203	C	0.910418	0.405926	0.404091
	C204	C	0.904959	0.595384	0.098033
	C205	C	0.102252	0.411448	0.099151
	C206	C	0.103183	0.594769	0.901453
	C207	C	0.905809	0.410770	0.900395
	C208	C	0.101313	0.905363	0.591363
	C209	C	0.100932	0.103299	0.404357
	C210	C	0.907388	0.101150	0.591499
	C211	C	0.907149	0.904690	0.404475
	C212	C	0.596624	0.099082	0.902036
	C213	C	0.408911	0.098533	0.093389
	C214	C	0.597306	0.903408	0.095105
	C215	C	0.408992	0.902111	0.900304
	Zn216	Zn	0.503742	0.000720	0.750007
	Zn217	Zn	0.502157	0.001004	0.246132
	Zn218	Zn	0.753408	0.502168	-0.000792
	Zn219	Zn	0.255577	0.502148	-0.001145
	Zn220	Zn	0.003512	0.753693	0.498902
	Zn221	Zn	0.004521	0.253698	0.499671
	Zn222	Zn	0.004245	0.503676	0.747852
	Zn223	Zn	0.003001	0.504598	0.251051
	Zn224	Zn	0.504044	0.751777	-0.002539
	Zn225	Zn	0.503370	0.250622	-0.002544
	Zn226	Zn	0.755028	0.001936	0.497823
	Zn227	Zn	0.253039	0.003307	0.496930
	N228	N	0.416920	0.965369	0.677721
	N229	N	0.591451	0.037130	0.679640
	N230	N	0.590045	0.965081	0.317283
	N231	N	0.414958	0.036793	0.315906
	N232	N	0.681113	0.417221	0.961321
	N233	N	0.680659	0.586237	0.036692
	N234	N	0.328650	0.584968	0.961060
	N235	N	0.327581	0.417259	0.036337
	N236	N	0.966874	0.683317	0.412332
	N237	N	0.040381	0.684187	0.586671
	N238	N	0.969211	0.321328	0.589136
	N239	N	0.040593	0.324332	0.413050
	N240	N	0.966540	0.419377	0.675764
	N241	N	0.041378	0.588515	0.676542
	N242	N	0.965549	0.588893	0.322024
	N243	N	0.040900	0.419240	0.322557
	N244	N	0.417128	0.680917	0.961902
	N245	N	0.592645	0.683308	0.033689
	N246	N	0.591477	0.320707	0.962555
	N247	N	0.414650	0.319391	0.033358
	N248	N	0.684003	0.965351	0.410993
	N249	N	0.682386	0.038819	0.583520
	N250	N	0.324596	0.965727	0.583063
	N251	N	0.324945	0.038614	0.411315
	N252	N	0.916631	0.467435	0.179870
	N253	N	0.091296	0.540089	0.180422
	N254	N	0.091598	0.467053	0.818610
	N255	N	0.917406	0.539491	0.819183
	N256	N	0.179321	0.920366	0.459542
	N257	N	0.182035	0.088769	0.534427
	N258	N	0.826390	0.087761	0.460893
	N259	N	0.826547	0.917820	0.534973
	N260	N	0.467511	0.182088	0.909091
	N261	N	0.538567	0.181807	0.085664
	N262	N	0.467249	0.820957	0.084473
	N263	N	0.539664	0.821299	0.910329
	N264	N	0.465664	0.915380	0.175127
	N265	N	0.540069	0.085512	0.174107
	N266	N	0.465375	0.085007	0.821361
	N267	N	0.540494	0.915565	0.820530
	N268	N	0.915882	0.184769	0.463189
	N269	N	0.093058	0.184614	0.533916
	N270	N	0.091990	0.822441	0.462565
	N271	N	0.915787	0.823108	0.533904
	N272	N	0.182089	0.465062	0.914682
	N273	N	0.185071	0.539519	0.086548
	N274	N	0.823760	0.466460	0.086545
	N275	N	0.824408	0.539181	0.913056
	O276	O	0.071316	0.142882	-0.028149
	H277	H	0.074151	0.141235	-0.031938
	H278	H	0.067247	0.138535	-0.040104
	O279	O	-0.045286	0.071968	0.000354
	H280	H	-0.042089	0.078590	-0.006310
	H281	H	-0.046854	0.081379	-0.000251
	O282	O	1.088467	-0.123506	-0.083377
	H283	H	1.093425	-0.140953	-0.088699
	H284	H	1.089086	-0.122443	-0.080167
	O285	O	-0.136760	1.015193	-0.094587
	H286	H	-0.138764	1.009701	-0.088037
	H287	H	-0.141352	1.014711	-0.099569
	O288	O	0.422317	0.524697	0.561710
	H289	H	0.414891	0.524503	0.564414
	H290	H	0.423714	0.534074	0.568677
	O291	O	0.520561	0.526522	0.625237
	H292	H	0.507347	0.535686	0.625025
	H293	H	0.518767	0.513476	0.629341
	O294	O	0.875308	1.174415	0.928812
	H295	H	0.879562	1.185816	0.916005
	H296	H	0.879486	1.152425	0.916691
	O297	O	-0.031184	-0.070184	-0.035562
	H298	H	-0.024486	-0.067231	-0.042415
	H299	H	-0.037699	-0.070996	-0.026139
	O300	O	0.478898	0.640697	0.402866
	H301	H	0.470926	0.649366	0.393375
	H302	H	0.463761	0.639718	0.411127
	O303	O	-0.079384	0.929160	1.132107
	H304	H	-0.076413	0.936764	1.123490
	H305	H	-0.072562	0.933975	1.135057
	O306	O	0.445261	0.512146	0.413456
	H307	H	0.451754	0.517141	0.410195
	H308	H	0.442407	0.513441	0.418913
	O309	O	0.998326	-0.128401	0.075150
	H310	H	0.998804	-0.118200	0.093843
	H311	H	0.994978	-0.123367	0.076028
	O312	O	-0.134704	-0.053911	1.033968
	H313	H	-0.140083	-0.049411	1.034250
	H314	H	-0.136140	-0.050063	1.047745
	O315	O	0.110450	0.933900	1.052039
	H316	H	0.112866	0.928910	1.051028
	H317	H	0.114313	0.946058	1.057204
	O318	O	0.608889	0.416324	0.367005
	H319	H	0.614809	0.432570	0.371647
	H320	H	0.624343	0.406727	0.354997
	O321	O	0.631962	0.516177	0.460878
	H322	H	0.623271	0.504774	0.457272
	H323	H	0.631779	0.505454	0.467151
	O324	O	0.455584	0.481032	0.333969
	H325	H	0.451690	0.491352	0.340274
	H326	H	0.451809	0.491651	0.342008
	O327	O	-0.527802	1.555045	1.540297
	H328	H	-0.538553	1.546173	1.537531
	H329	H	-0.534288	1.546501	1.534577
	O330	O	0.348655	0.493723	0.503100
	H331	H	0.345958	0.505407	0.515432
	H332	H	0.341605	0.490410	0.495591
	O333	O	-0.141954	1.019544	1.023933
	H334	H	-0.136512	1.013097	1.011712
	H335	H	-0.167408	1.024408	1.026859
	O336	O	1.012482	0.998518	1.147682
	H337	H	1.011944	0.992314	1.144089
	H338	H	0.992750	0.991618	1.154460
	O339	O	0.463494	0.584210	0.553376
	H340	H	0.468815	0.594559	0.559764
	H341	H	0.464662	0.587843	0.534662
	O342	O	0.972683	0.121304	0.017960
	H343	H	0.973009	0.129461	0.011921
	H344	H	0.972065	0.131337	0.019893
	O345	O	0.464672	0.494414	0.483928
	H346	H	0.480798	0.495051	0.485447
	H347	H	0.460498	0.492170	0.471766
	O348	O	0.374179	0.523451	0.424274
	H349	H	0.376647	0.522537	0.421436
	H350	H	0.386693	0.526222	0.421601
	O351	O	0.983998	1.067178	0.021601
	H352	H	0.982614	1.077722	0.026696
	H353	H	0.991314	1.066248	0.021797
	O354	O	1.104778	0.096294	0.915394
	H355	H	1.124077	0.099395	0.912529
	H356	H	1.099481	0.090242	0.939921
	O357	O	0.544124	0.424629	0.533383
	H358	H	0.550839	0.419404	0.529982
	H359	H	0.554101	0.431545	0.522234
	O360	O	-0.060125	-0.102930	-0.104899
	H361	H	-0.068803	-0.110137	-0.099655
	H362	H	-0.065632	-0.112399	-0.093788
	O363	O	0.635666	0.361687	0.503706
	H364	H	0.618119	0.362188	0.515084
	H365	H	0.637216	0.358293	0.496838
	O366	O	0.663354	0.491067	0.528692
	H367	H	0.656090	0.499957	0.533060
	H368	H	0.672610	0.494372	0.530533
	O369	O	1.052634	-0.003797	0.082183
	H370	H	1.055632	0.009426	0.070340
	H371	H	1.051884	-0.005854	0.096422
	O372	O	0.517142	0.420332	0.344027
	H373	H	0.512552	0.420974	0.326217
	H374	H	0.509707	0.421319	0.360640
	O375	O	0.473644	0.492239	0.590385
	H376	H	0.474078	0.496032	0.586558
	H377	H	0.472214	0.496140	0.589316
	O378	O	0.489987	0.408448	0.662270
	H379	H	0.483837	0.400266	0.665308
	H380	H	0.486294	0.403510	0.655239
	O381	O	0.583736	0.421516	0.471088
	H382	H	0.584950	0.414742	0.466894
	H383	H	0.603337	0.426491	0.464759
	O384	O	0.099722	0.924456	-0.138460
	H385	H	0.099601	0.920916	-0.124339
	H386	H	0.094295	0.901149	-0.142697
	O387	O	0.978063	0.048584	0.952286
	H388	H	0.963142	0.064287	0.945300
	H389	H	1.001488	0.048324	0.958559
	O390	O	0.088019	1.098261	-0.058137
	H391	H	0.085264	1.110952	-0.061799
	H392	H	0.088633	1.082896	-0.058198
	O393	O	1.071641	1.008446	0.098926
	H394	H	1.057087	1.018174	0.094777
	H395	H	1.067263	1.001491	0.087506
	O396	O	0.496154	0.487129	0.450549
	H397	H	0.500656	0.484981	0.448512
	H398	H	0.497996	0.481282	0.458277
	O399	O	0.068445	1.011875	1.095363
	H400	H	0.078226	1.023982	1.103001
	H401	H	0.069117	1.017750	1.083439
	O402	O	1.037735	1.153160	0.906867
	H403	H	1.039355	1.162427	0.894159
	H404	H	1.039635	1.155024	0.894956
	O405	O	0.603471	0.591987	0.636114
	H406	H	0.604324	0.584031	0.645164
	H407	H	0.597454	0.593004	0.632794
