data_Molecule from HDF5

_cell_length_a		16.295146
_cell_length_b		16.447404
_cell_length_c		16.080926
_cell_angle_alpha	90.216491
_cell_angle_beta	90.345612
_cell_angle_gamma	89.868662
_symmetry_space_group_name_H-M	'P 1'
_symmetry_Int_Tables_number		1

loop_
	_symmetry_equiv_pos_as_xyz
	x,y,z

loop_
	_atom_site_label
	_atom_site_type_symbol
	_atom_site_fract_x
	_atom_site_fract_y
	_atom_site_fract_z
	H0	H	0.405666	0.845380	0.714518
	H1	H	0.599931	0.170395	0.720134
	H2	H	0.598885	0.846490	0.287821
	H3	H	0.404782	0.172527	0.289372
	H4	H	0.715282	0.408653	0.837380
	H5	H	0.716880	0.607129	0.167622
	H6	H	0.285409	0.607635	0.838058
	H7	H	0.291099	0.413497	0.168728
	H8	H	0.840569	0.727802	0.398804
	H9	H	0.164213	0.727188	0.607566
	H10	H	0.839807	0.290987	0.604876
	H11	H	0.163678	0.291224	0.401041
	H12	H	0.836788	0.413725	0.713745
	H13	H	0.166583	0.604938	0.717595
	H14	H	0.838625	0.606387	0.288338
	H15	H	0.167321	0.412827	0.293096
	H16	H	0.399833	0.722404	0.837688
	H17	H	0.604077	0.725622	0.165785
	H18	H	0.603821	0.290033	0.838919
	H19	H	0.400473	0.293238	0.166339
	H20	H	0.720766	0.848401	0.400136
	H21	H	0.719863	0.169868	0.607108
	H22	H	0.285769	0.847296	0.602216
	H23	H	0.283203	0.170571	0.400358
	H24	H	0.905875	0.346038	0.216737
	H25	H	0.101087	0.670807	0.220214
	H26	H	0.101201	0.346323	0.787406
	H27	H	0.903042	0.670932	0.788483
	H28	H	0.214748	0.908337	0.337360
	H29	H	0.216753	0.107091	0.667954
	H30	H	0.783689	0.110395	0.339365
	H31	H	0.789359	0.912262	0.667911
	H32	H	0.340063	0.227896	0.898204
	H33	H	0.662890	0.227759	0.107370
	H34	H	0.339308	0.792354	0.102467
	H35	H	0.662056	0.788109	0.896168
	H36	H	0.337035	0.912561	0.214189
	H37	H	0.665556	0.106099	0.216511
	H38	H	0.337330	0.104450	0.788693
	H39	H	0.665236	0.910360	0.789107
	H40	H	0.899526	0.224331	0.337716
	H41	H	0.105224	0.226436	0.666747
	H42	H	0.104378	0.789655	0.340657
	H43	H	0.901083	0.794828	0.667360
	H44	H	0.220485	0.347465	0.901438
	H45	H	0.220101	0.669957	0.106722
	H46	H	0.784409	0.347411	0.104013
	H47	H	0.781088	0.668679	0.897971
	H48	H	0.416790	0.122043	0.596403
	H49	H	0.593091	0.893731	0.596232
	H50	H	0.589383	0.120996	0.415152
	H51	H	0.400517	0.892820	0.410443
	H52	H	0.584588	0.407641	0.119193
	H53	H	0.599025	0.602888	0.881616
	H54	H	0.421361	0.608637	0.118646
	H55	H	0.426299	0.420823	0.891125
	H56	H	0.120522	0.600584	0.404599
	H57	H	0.885162	0.604112	0.598546
	H58	H	0.116072	0.416481	0.591041
	H59	H	0.887864	0.421188	0.411641
	H60	H	0.117260	0.418743	0.597174
	H61	H	0.885405	0.607788	0.591135
	H62	H	0.119189	0.609957	0.418403
	H63	H	0.883709	0.413985	0.405738
	H64	H	0.402635	0.608526	0.125001
	H65	H	0.590921	0.591542	0.887438
	H66	H	0.605588	0.415863	0.125056
	H67	H	0.408157	0.401890	0.880150
	H68	H	0.600770	0.124866	0.414766
	H69	H	0.597027	0.894977	0.590684
	H70	H	0.404913	0.122796	0.586940
	H71	H	0.408857	0.892864	0.401444
	H72	H	0.912939	0.621667	0.094213
	H73	H	0.095800	0.396086	0.088978
	H74	H	0.099631	0.627213	0.905585
	H75	H	0.903033	0.392754	0.911491
	H76	H	0.092020	0.915592	0.620842
	H77	H	0.090115	0.101652	0.385753
	H78	H	0.913053	0.102441	0.620237
	H79	H	0.907684	0.916059	0.383503
	H80	H	0.617524	0.105150	0.917790
	H81	H	0.383452	0.103755	0.098474
	H82	H	0.617153	0.917944	0.094555
	H83	H	0.385889	0.911286	0.915048
	H84	H	0.618088	0.914390	0.094074
	H85	H	0.384841	0.108856	0.090873
	H86	H	0.614841	0.095576	0.914765
	H87	H	0.387426	0.921628	0.908190
	H88	H	0.911639	0.101888	0.619932
	H89	H	0.093104	0.103230	0.383560
	H90	H	0.098130	0.917329	0.622156
	H91	H	0.911933	0.923267	0.387882
	H92	H	0.085240	0.620693	0.911060
	H93	H	0.105942	0.390466	0.097436
	H94	H	0.906308	0.623081	0.091298
	H95	H	0.910318	0.392617	0.905230
	H96	H	0.403462	0.126265	0.601791
	H97	H	0.600047	0.892292	0.596038
	H98	H	0.593227	0.125977	0.404829
	H99	H	0.411866	0.896994	0.413001
	H100	H	0.589780	0.430423	0.114470
	H101	H	0.584414	0.604338	0.885377
	H102	H	0.410666	0.592016	0.117363
	H103	H	0.398899	0.428046	0.884515
	H104	H	0.113887	0.594217	0.418940
	H105	H	0.887910	0.600318	0.591829
	H106	H	0.119743	0.411995	0.596087
	H107	H	0.886078	0.411359	0.415389
	H108	H	0.907523	0.624780	0.098549
	H109	H	0.092821	0.392774	0.102833
	H110	H	0.098534	0.621120	0.921669
	H111	H	0.911980	0.396245	0.914572
	H112	H	0.093962	0.921742	0.619257
	H113	H	0.093499	0.099522	0.384728
	H114	H	0.912854	0.101272	0.620045
	H115	H	0.916498	0.915621	0.386756
	H116	H	0.618826	0.102093	0.908665
	H117	H	0.386618	0.099909	0.091755
	H118	H	0.616764	0.915901	0.090782
	H119	H	0.382824	0.911607	0.903429
	C120	C	0.380171	0.016629	0.623676
	C121	C	0.624943	1.000353	0.625078
	C122	C	0.623889	0.017413	0.381009
	C123	C	0.378121	1.000938	0.379097
	C124	C	0.622962	0.387523	0.010825
	C125	C	0.622387	0.629678	0.993477
	C126	C	0.380687	0.631045	0.011413
	C127	C	0.381973	0.388658	0.994378
	C128	C	0.010681	0.631380	0.382439
	C129	C	0.994013	0.631939	0.624890
	C130	C	0.009930	0.387131	0.624231
	C131	C	0.993570	0.387345	0.381953
	C132	C	0.880087	0.516506	0.124356
	C133	C	0.126143	0.500221	0.126490
	C134	C	0.124086	0.516383	0.882172
	C135	C	0.879092	0.500079	0.880313
	C136	C	0.123056	0.888189	0.511897
	C137	C	0.122736	0.130365	0.493789
	C138	C	0.881108	0.131202	0.511520
	C139	C	0.882103	0.889272	0.494465
	C140	C	0.509745	0.130023	0.881997
	C141	C	0.492624	0.132040	0.124036
	C142	C	0.509658	0.887907	0.122211
	C143	C	0.492981	0.886106	0.879641
	C144	C	0.384106	0.894434	0.677885
	C145	C	0.621594	0.122033	0.682052
	C146	C	0.620685	0.895355	0.325066
	C147	C	0.382789	0.123506	0.325719
	C148	C	0.678318	0.388193	0.886918
	C149	C	0.678917	0.627841	0.117836
	C150	C	0.323549	0.628189	0.887399
	C151	C	0.327586	0.392031	0.118910
	C152	C	0.888812	0.688597	0.380686
	C153	C	0.116084	0.688078	0.625842
	C154	C	0.888035	0.330410	0.623592
	C155	C	0.115765	0.330749	0.382253
	C156	C	0.886528	0.391561	0.677895
	C157	C	0.117082	0.627547	0.680862
	C158	C	0.887788	0.628316	0.325580
	C159	C	0.117328	0.391309	0.328414
	C160	C	0.380625	0.685137	0.887090
	C161	C	0.622774	0.686530	0.117073
	C162	C	0.622825	0.329375	0.887738
	C163	C	0.382310	0.332531	0.117812
	C164	C	0.680856	0.896149	0.381250
	C165	C	0.681151	0.121766	0.625670
	C166	C	0.324526	0.895227	0.621792
	C167	C	0.322189	0.122289	0.380924
	C168	C	0.883768	0.394708	0.179630
	C169	C	0.122266	0.622183	0.182478
	C170	C	0.121853	0.394797	0.825453
	C171	C	0.881695	0.622324	0.825102
	C172	C	0.178161	0.888389	0.387653
	C173	C	0.179110	0.127980	0.618414
	C174	C	0.822892	0.130066	0.388120
	C175	C	0.826615	0.891395	0.618502
	C176	C	0.388073	0.187929	0.880008
	C177	C	0.614744	0.188312	0.125173
	C178	C	0.387538	0.831192	0.121791
	C179	C	0.614257	0.828234	0.878802
	C180	C	0.386336	0.891194	0.177207
	C181	C	0.616053	0.127740	0.179379
	C182	C	0.386919	0.126844	0.825301
	C183	C	0.616032	0.889242	0.825412
	C184	C	0.880589	0.186687	0.387428
	C185	C	0.123423	0.187031	0.617750
	C186	C	0.123036	0.829561	0.388882
	C187	C	0.882305	0.833222	0.618232
	C188	C	0.181307	0.395484	0.882089
	C189	C	0.181482	0.621688	0.125938
	C190	C	0.823603	0.395470	0.123333
	C191	C	0.821403	0.621072	0.880143
	C192	C	0.401871	0.101762	0.601554
	C193	C	0.603163	0.915662	0.601266
	C194	C	0.601128	0.102036	0.404680
	C195	C	0.400455	0.916015	0.401608
	C196	C	0.600107	0.411072	0.097244
	C197	C	0.598361	0.606480	0.907028
	C198	C	0.404686	0.609512	0.097991
	C199	C	0.404485	0.410689	0.907593
	C200	C	0.095766	0.608478	0.406922
	C201	C	0.908329	0.610440	0.600992
	C202	C	0.095560	0.409262	0.601565
	C203	C	0.908067	0.409223	0.404418
	C204	C	0.902340	0.601144	0.101458
	C205	C	0.104368	0.415174	0.103284
	C206	C	0.101059	0.600949	0.905661
	C207	C	0.901919	0.415806	0.903578
	C208	C	0.100930	0.911314	0.598405
	C209	C	0.099129	0.107853	0.407136
	C210	C	0.905409	0.108632	0.597757
	C211	C	0.905131	0.911825	0.408409
	C212	C	0.594923	0.107482	0.906631
	C213	C	0.407144	0.110569	0.100614
	C214	C	0.595107	0.909622	0.099756
	C215	C	0.407492	0.908303	0.902348
	Zn216	Zn	0.501902	0.008236	0.753134
	Zn217	Zn	0.501266	0.009394	0.251236
	Zn218	Zn	0.750275	0.508344	0.002009
	Zn219	Zn	0.254133	0.508926	0.003369
	Zn220	Zn	0.002027	0.761026	0.503549
	Zn221	Zn	0.002058	0.258504	0.502265
	Zn222	Zn	0.001660	0.508916	0.752820
	Zn223	Zn	0.002463	0.508777	0.253973
	Zn224	Zn	0.501698	0.758227	0.001517
	Zn225	Zn	0.501645	0.260388	0.002619
	Zn226	Zn	0.754288	0.009245	0.503048
	Zn227	Zn	0.250087	0.008701	0.502262
	N228	N	0.417860	0.971040	0.679281
	N229	N	0.587581	0.045697	0.682021
	N230	N	0.586169	0.971760	0.324679
	N231	N	0.416452	0.046766	0.323983
	N232	N	0.678333	0.423518	0.964559
	N233	N	0.678956	0.593424	0.039904
	N234	N	0.323571	0.595101	0.965756
	N235	N	0.327571	0.426337	0.041078
	N236	N	0.966225	0.690576	0.415308
	N237	N	0.038552	0.690930	0.591824
	N238	N	0.965934	0.327420	0.591125
	N239	N	0.037942	0.328054	0.414849
	N240	N	0.963494	0.425985	0.678431
	N241	N	0.040100	0.593483	0.680447
	N242	N	0.964558	0.593629	0.326412
	N243	N	0.040262	0.425901	0.328073
	N244	N	0.415470	0.687001	0.965227
	N245	N	0.588637	0.688028	0.038519
	N246	N	0.589085	0.328850	0.966000
	N247	N	0.415219	0.330322	0.039149
	N248	N	0.683122	0.973132	0.415174
	N249	N	0.683376	0.045115	0.590956
	N250	N	0.321892	0.972203	0.588804
	N251	N	0.319072	0.044896	0.413093
	N252	N	0.918278	0.470884	0.180286
	N253	N	0.088474	0.545572	0.182912
	N254	N	0.086901	0.471149	0.825275
	N255	N	0.916731	0.546197	0.824917
	N256	N	0.178178	0.924343	0.465149
	N257	N	0.179036	0.093718	0.540258
	N258	N	0.823128	0.096179	0.466125
	N259	N	0.826349	0.925622	0.540665
	N260	N	0.465592	0.190204	0.914516
	N261	N	0.537053	0.191174	0.091584
	N262	N	0.465166	0.829004	0.088231
	N263	N	0.536625	0.826089	0.911980
	N264	N	0.463064	0.925671	0.177711
	N265	N	0.539086	0.093438	0.178968
	N266	N	0.463440	0.091595	0.826662
	N267	N	0.539588	0.924302	0.825764
	N268	N	0.915967	0.187664	0.465408
	N269	N	0.088934	0.188507	0.539356
	N270	N	0.089578	0.829180	0.467184
	N271	N	0.916255	0.831659	0.540133
	N272	N	0.182918	0.472071	0.916519
	N273	N	0.183886	0.544886	0.091793
	N274	N	0.821545	0.472185	0.089517
	N275	N	0.819412	0.544178	0.913526
	O276	O	0.251604	0.162756	0.776254
	H277	H	0.255052	0.157110	0.771910
	H278	H	0.252623	0.155146	0.770651
	O279	O	0.513171	0.532262	0.567245
	H280	H	0.504339	0.528613	0.560950
	H281	H	0.514654	0.536147	0.558184
	O282	O	1.059151	0.934502	-0.067392
	H283	H	1.050549	0.939456	-0.075014
	H284	H	1.045661	0.931880	-0.064311
	O285	O	0.985519	0.138288	0.892834
	H286	H	0.982972	0.129074	0.887942
	H287	H	0.973649	0.139901	0.877704
	O288	O	0.525809	0.516562	0.551891
	H289	H	0.527338	0.512210	0.559471
	H290	H	0.532090	0.517937	0.553847
	O291	O	0.497985	0.498188	0.514996
	H292	H	0.508218	0.501453	0.503171
	H293	H	0.498028	0.502530	0.524392
	O294	O	0.499248	0.460714	0.482266
	H295	H	0.497827	0.451921	0.479216
	H296	H	0.488028	0.460333	0.473026
	O297	O	0.022260	0.099539	1.130290
	H298	H	0.020556	0.111949	1.133012
	H299	H	0.031193	0.114419	1.125464
	O300	O	0.584450	0.473103	0.527758
	H301	H	0.573422	0.465944	0.528085
	H302	H	0.587156	0.478213	0.536143
	O303	O	0.524381	0.491782	0.475770
	H304	H	0.521838	0.500307	0.466818
	H305	H	0.524335	0.485218	0.474407
	O306	O	0.154429	1.091112	1.074129
	H307	H	0.158468	1.098296	1.066499
	H308	H	0.154879	1.100318	1.056172
	O309	O	0.574962	0.490336	0.482257
	H310	H	0.586786	0.487226	0.477067
	H311	H	0.570844	0.494020	0.479901
	O312	O	0.120579	0.040238	-0.072254
	H313	H	0.117162	0.031974	-0.069837
	H314	H	0.124115	0.029228	-0.075636
	O315	O	0.908140	0.081279	-0.043643
	H316	H	0.911784	0.084409	-0.065309
	H317	H	0.895923	0.083286	-0.050920
	O318	O	0.991985	0.830651	0.990552
	H319	H	0.988625	0.824247	1.005501
	H320	H	1.000040	0.822307	0.995693
	O321	O	0.139275	0.049825	1.024310
	H322	H	0.150170	0.052684	1.018525
	H323	H	0.147610	0.057019	1.024565
	O324	O	0.506131	0.551353	0.452618
	H325	H	0.506702	0.548425	0.454345
	H326	H	0.511747	0.541203	0.454918
	O327	O	0.117431	-0.069374	-0.140689
	H328	H	0.115478	-0.066796	-0.131720
	H329	H	0.121793	-0.070280	-0.141241
	O330	O	0.942461	0.894449	0.026213
	H331	H	0.952847	0.905934	0.030369
	H332	H	0.949236	0.894598	0.041024
	O333	O	0.062559	1.105406	1.024486
	H334	H	0.060048	1.116871	1.009334
	H335	H	0.057396	1.101898	1.029565
	O336	O	-0.133107	0.037865	-0.023722
	H337	H	-0.139214	0.031137	-0.021711
	H338	H	-0.139002	0.023727	-0.019220
	O339	O	0.602561	0.512474	0.428283
	H340	H	0.611921	0.511779	0.428018
	H341	H	0.591706	0.509664	0.431404
	O342	O	0.950597	0.927663	1.103015
	H343	H	0.948916	0.917564	1.091039
	H344	H	0.943701	0.923458	1.119823
	O345	O	0.969028	0.985283	0.002269
	H346	H	0.968637	0.986765	0.009138
	H347	H	0.961810	0.971392	0.011880
	O348	O	0.380578	0.476314	0.563692
	H349	H	0.369494	0.481723	0.565169
	H350	H	0.380437	0.479451	0.566282
	O351	O	0.889724	0.013162	0.141881
	H352	H	0.893984	0.007537	0.132271
	H353	H	0.896109	0.004836	0.146705
	O354	O	0.521398	0.409008	0.456855
	H355	H	0.518930	0.411742	0.455385
	H356	H	0.533792	0.404656	0.445566
	O357	O	0.858444	0.114012	0.888661
	H358	H	0.857285	0.124683	0.891216
	H359	H	0.863102	0.109370	0.884465
	O360	O	-0.054317	0.053208	-0.057525
	H361	H	-0.054492	0.042122	-0.058251
	H362	H	-0.057383	0.041390	-0.036226
	O363	O	0.525857	0.540365	0.554857
	H364	H	0.537307	0.539635	0.558856
	H365	H	0.534951	0.535625	0.554697
	O366	O	0.954663	0.884336	1.152614
	H367	H	0.957878	0.892058	1.164380
	H368	H	0.969040	0.893317	1.145674
	O369	O	1.051525	0.001798	1.046510
	H370	H	1.065795	0.017651	1.055014
	H371	H	1.056559	0.016208	1.032123
	O372	O	0.053640	-0.071821	0.054793
	H373	H	0.058647	-0.080110	0.048666
	H374	H	0.044853	-0.057180	0.062154
	O375	O	0.838897	-0.055831	0.073226
	H376	H	0.833729	-0.046081	0.072408
	H377	H	0.841070	-0.061001	0.071664
	O378	O	0.445175	0.529602	0.436962
	H379	H	0.438566	0.527522	0.444837
	H380	H	0.441860	0.539697	0.441666
	O381	O	0.466912	0.521992	0.517434
	H382	H	0.464942	0.532697	0.525307
	H383	H	0.467934	0.514283	0.509065
