data_Molecule from HDF5

_cell_length_a		16.498262
_cell_length_b		16.438591
_cell_length_c		16.411086
_cell_angle_alpha	90.000939
_cell_angle_beta	90.111828
_cell_angle_gamma	90.242383
_symmetry_space_group_name_H-M	'P 1'
_symmetry_Int_Tables_number		1

loop_
	_symmetry_equiv_pos_as_xyz
	x,y,z

loop_
	_atom_site_label
	_atom_site_type_symbol
	_atom_site_fract_x
	_atom_site_fract_y
	_atom_site_fract_z
	H0	H	0.389365	0.844953	0.712587
	H1	H	0.599911	0.162564	0.713377
	H2	H	0.602563	0.847160	0.269328
	H3	H	0.388112	0.160448	0.269244
	H4	H	0.710909	0.401476	0.834330
	H5	H	0.715968	0.610150	0.152276
	H6	H	0.268493	0.609123	0.837313
	H7	H	0.265772	0.388947	0.149117
	H8	H	0.837267	0.727856	0.383629
	H9	H	0.149560	0.728568	0.602189
	H10	H	0.836856	0.281188	0.597038
	H11	H	0.151540	0.283856	0.385622
	H12	H	0.834338	0.400084	0.710601
	H13	H	0.148249	0.613680	0.719342
	H14	H	0.834937	0.608725	0.271416
	H15	H	0.149137	0.397347	0.268100
	H16	H	0.386653	0.723802	0.835702
	H17	H	0.600907	0.727371	0.152112
	H18	H	0.595369	0.285005	0.833925
	H19	H	0.383276	0.275717	0.148688
	H20	H	0.718573	0.848514	0.382894
	H21	H	0.717109	0.162728	0.598125
	H22	H	0.268683	0.848080	0.602261
	H23	H	0.274423	0.162482	0.386325
	H24	H	0.885802	0.345573	0.215549
	H25	H	0.099133	0.660876	0.217161
	H26	H	0.099912	0.348053	0.768777
	H27	H	0.885568	0.659808	0.770694
	H28	H	0.219034	0.897005	0.335745
	H29	H	0.217069	0.111714	0.650540
	H30	H	0.768961	0.116482	0.335550
	H31	H	0.773815	0.899346	0.648262
	H32	H	0.335565	0.224670	0.886077
	H33	H	0.649370	0.228543	0.100548
	H34	H	0.338025	0.776495	0.104674
	H35	H	0.650629	0.782853	0.889689
	H36	H	0.339300	0.890671	0.221602
	H37	H	0.649554	0.113683	0.218085
	H38	H	0.336678	0.110183	0.767852
	H39	H	0.651339	0.899679	0.773994
	H40	H	0.887382	0.229195	0.334257
	H41	H	0.102282	0.228100	0.649697
	H42	H	0.103686	0.779498	0.335014
	H43	H	0.888878	0.782938	0.647894
	H44	H	0.215012	0.346690	0.885657
	H45	H	0.222207	0.657271	0.109158
	H46	H	0.769615	0.345161	0.100695
	H47	H	0.772160	0.661211	0.889524
	H48	H	0.409733	0.116307	0.581531
	H49	H	0.582937	0.892243	0.580519
	H50	H	0.582661	0.118360	0.403871
	H51	H	0.406285	0.892482	0.407403
	H52	H	0.584359	0.415706	0.107854
	H53	H	0.585006	0.598913	0.877797
	H54	H	0.404071	0.586424	0.106194
	H55	H	0.407754	0.415467	0.882569
	H56	H	0.104726	0.590228	0.406193
	H57	H	0.880434	0.597569	0.578433
	H58	H	0.105345	0.421579	0.582162
	H59	H	0.881106	0.416059	0.402705
	H60	H	0.107375	0.415616	0.585810
	H61	H	0.882371	0.589140	0.578725
	H62	H	0.105971	0.592002	0.403504
	H63	H	0.881194	0.412812	0.406687
	H64	H	0.410123	0.586872	0.104585
	H65	H	0.586191	0.586673	0.882089
	H66	H	0.579802	0.417596	0.105412
	H67	H	0.401388	0.412722	0.879382
	H68	H	0.578383	0.115193	0.406156
	H69	H	0.587650	0.890076	0.580251
	H70	H	0.404853	0.116409	0.577511
	H71	H	0.408207	0.892090	0.408593
	H72	H	0.899365	0.615642	0.077241
	H73	H	0.078215	0.391348	0.080301
	H74	H	0.077723	0.613557	0.910319
	H75	H	0.896857	0.387771	0.905613
	H76	H	0.082459	0.917225	0.603779
	H77	H	0.084658	0.102592	0.376586
	H78	H	0.903268	0.090429	0.604182
	H79	H	0.908609	0.916163	0.377481
	H80	H	0.604995	0.095245	0.908639
	H81	H	0.382396	0.089428	0.077765
	H82	H	0.599835	0.922146	0.073952
	H83	H	0.382732	0.913456	0.908909
	H84	H	0.606719	0.919984	0.088406
	H85	H	0.384557	0.086451	0.078114
	H86	H	0.605684	0.089756	0.899901
	H87	H	0.379953	0.919559	0.900811
	H88	H	0.909515	0.091435	0.601920
	H89	H	0.091291	0.086644	0.378504
	H90	H	0.081354	0.918691	0.603891
	H91	H	0.904850	0.916766	0.376404
	H92	H	0.081844	0.616095	0.909338
	H93	H	0.076564	0.392773	0.079442
	H94	H	0.902241	0.618415	0.087068
	H95	H	0.901011	0.387462	0.898532
	H96	H	0.404219	0.118456	0.583378
	H97	H	0.584731	0.890052	0.584162
	H98	H	0.583244	0.115960	0.409048
	H99	H	0.406160	0.892711	0.409173
	H100	H	0.579680	0.412452	0.107389
	H101	H	0.575109	0.592783	0.883262
	H102	H	0.407015	0.591419	0.106923
	H103	H	0.401300	0.420167	0.881809
	H104	H	0.105280	0.593970	0.406479
	H105	H	0.878778	0.592583	0.585541
	H106	H	0.105954	0.415660	0.578851
	H107	H	0.882560	0.417526	0.407034
	H108	H	0.909011	0.613847	0.080671
	H109	H	0.078402	0.393044	0.078135
	H110	H	0.078236	0.616200	0.905997
	H111	H	0.905353	0.390989	0.905567
	H112	H	0.080229	0.917033	0.603821
	H113	H	0.075209	0.090084	0.383895
	H114	H	0.906698	0.096452	0.606005
	H115	H	0.906847	0.919890	0.377823
	H116	H	0.608387	0.099629	0.899898
	H117	H	0.382234	0.087669	0.080333
	H118	H	0.606921	0.907832	0.078112
	H119	H	0.377031	0.909877	0.900488
	C120	C	0.372670	0.012978	0.614135
	C121	C	0.617031	0.995786	0.613893
	C122	C	0.615772	0.013381	0.371239
	C123	C	0.373168	0.995528	0.372728
	C124	C	0.612886	0.383071	0.002025
	C125	C	0.615165	0.625748	0.985522
	C126	C	0.372111	0.622901	0.002601
	C127	C	0.369467	0.380185	0.984398
	C128	C	0.001677	0.625169	0.371473
	C129	C	0.983962	0.626926	0.615084
	C130	C	0.002177	0.383829	0.613906
	C131	C	0.984770	0.382529	0.371201
	C132	C	0.870135	0.511921	0.115259
	C133	C	0.113574	0.495055	0.115442
	C134	C	0.112246	0.511975	0.874214
	C135	C	0.870173	0.493636	0.871870
	C136	C	0.115508	0.883458	0.500503
	C137	C	0.116385	0.126286	0.483971
	C138	C	0.873297	0.126527	0.499951
	C139	C	0.873488	0.883993	0.481513
	C140	C	0.502170	0.126081	0.870073
	C141	C	0.485589	0.123408	0.113334
	C142	C	0.502178	0.881286	0.115677
	C143	C	0.484184	0.882296	0.871606
	C144	C	0.370207	0.893363	0.673891
	C145	C	0.618738	0.114888	0.673919
	C146	C	0.620073	0.894893	0.309186
	C147	C	0.369903	0.113429	0.310033
	C148	C	0.671745	0.382139	0.882073
	C149	C	0.675975	0.628554	0.104550
	C150	C	0.309340	0.627068	0.884560
	C151	C	0.306939	0.373316	0.101779
	C152	C	0.883872	0.686897	0.366902
	C153	C	0.101956	0.688408	0.619491
	C154	C	0.883785	0.322096	0.615537
	C155	C	0.103627	0.322916	0.367566
	C156	C	0.882407	0.381223	0.672140
	C157	C	0.101203	0.631085	0.678167
	C158	C	0.882783	0.627583	0.310762
	C159	C	0.102398	0.379439	0.308902
	C160	C	0.368364	0.683928	0.883630
	C161	C	0.618372	0.686717	0.104580
	C162	C	0.614299	0.324237	0.881979
	C163	C	0.365431	0.316550	0.101569
	C164	C	0.678196	0.895640	0.365951
	C165	C	0.677326	0.114727	0.616564
	C166	C	0.310143	0.894951	0.618747
	C167	C	0.313169	0.114325	0.368549
	C168	C	0.867799	0.392924	0.175568
	C169	C	0.117905	0.613065	0.177639
	C170	C	0.116779	0.394461	0.810614
	C171	C	0.868212	0.612940	0.811579
	C172	C	0.178098	0.878915	0.382857
	C173	C	0.177016	0.129418	0.602796
	C174	C	0.810674	0.132319	0.382166
	C175	C	0.813334	0.881205	0.600470
	C176	C	0.383201	0.185221	0.867472
	C177	C	0.602596	0.187214	0.117979
	C178	C	0.385073	0.817703	0.121642
	C179	C	0.603035	0.822777	0.870765
	C180	C	0.385803	0.874785	0.180031
	C181	C	0.602729	0.129754	0.176613
	C182	C	0.383802	0.127985	0.808823
	C183	C	0.603582	0.880722	0.812810
	C184	C	0.869899	0.188487	0.381570
	C185	C	0.119700	0.187533	0.602501
	C186	C	0.120694	0.820481	0.382530
	C187	C	0.870851	0.823389	0.600380
	C188	C	0.174144	0.393911	0.868928
	C189	C	0.179142	0.611001	0.123573
	C190	C	0.809633	0.392842	0.118407
	C191	C	0.811439	0.613316	0.870409
	C192	C	0.398711	0.095690	0.588388
	C193	C	0.592210	0.912451	0.589010
	C194	C	0.589154	0.095086	0.398321
	C195	C	0.399260	0.913788	0.400187
	C196	C	0.588324	0.408002	0.085353
	C197	C	0.589498	0.600226	0.902657
	C198	C	0.399253	0.596168	0.084526
	C199	C	0.395968	0.408105	0.902558
	C200	C	0.083742	0.599424	0.397695
	C201	C	0.901863	0.600755	0.588443
	C202	C	0.084678	0.410060	0.589314
	C203	C	0.902887	0.408043	0.397883
	C204	C	0.896004	0.594503	0.089164
	C205	C	0.085738	0.413513	0.087390
	C206	C	0.086540	0.593835	0.900988
	C207	C	0.894299	0.410469	0.896200
	C208	C	0.088831	0.909951	0.582476
	C209	C	0.090802	0.100422	0.401171
	C210	C	0.899228	0.100191	0.582374
	C211	C	0.899549	0.910185	0.398784
	C212	C	0.584838	0.101808	0.895464
	C213	C	0.404266	0.095686	0.086498
	C214	C	0.583294	0.908977	0.088010
	C215	C	0.401490	0.907072	0.896313
	Zn216	Zn	0.494004	0.003598	0.742091
	Zn217	Zn	0.494162	0.003467	0.243890
	Zn218	Zn	0.742268	0.502607	-0.006068
	Zn219	Zn	0.242300	0.502849	-0.005134
	Zn220	Zn	-0.005909	0.754410	0.491146
	Zn221	Zn	-0.005067	0.254943	0.492171
	Zn222	Zn	-0.007464	0.503891	0.743726
	Zn223	Zn	-0.007890	0.503570	0.243197
	Zn224	Zn	0.492582	0.753330	-0.005828
	Zn225	Zn	0.492885	0.254139	-0.007323
	Zn226	Zn	0.744848	0.005074	0.490855
	Zn227	Zn	0.244641	0.004561	0.492865
	N228	N	0.408307	0.967854	0.671351
	N229	N	0.582028	0.039635	0.672578
	N230	N	0.581793	0.969056	0.312475
	N231	N	0.406301	0.038533	0.312354
	N232	N	0.670958	0.417848	0.957813
	N233	N	0.674150	0.591653	0.029458
	N234	N	0.311493	0.590102	0.959634
	N235	N	0.309197	0.412197	0.027774
	N236	N	0.958728	0.685437	0.403708
	N237	N	0.027952	0.686111	0.581011
	N238	N	0.959312	0.323369	0.580268
	N239	N	0.029385	0.324570	0.405430
	N240	N	0.957070	0.418561	0.671452
	N241	N	0.026615	0.593600	0.675687
	N242	N	0.957134	0.589881	0.313423
	N243	N	0.027540	0.415615	0.310968
	N244	N	0.406552	0.681554	0.958228
	N245	N	0.581250	0.685264	0.029496
	N246	N	0.578582	0.324662	0.957589
	N247	N	0.403487	0.320576	0.027359
	N248	N	0.676035	0.970367	0.403385
	N249	N	0.676464	0.039473	0.580187
	N250	N	0.311502	0.970385	0.582550
	N251	N	0.315092	0.039884	0.406780
	N252	N	0.904676	0.468016	0.173844
	N253	N	0.077800	0.539869	0.172433
	N254	N	0.079046	0.468710	0.813745
	N255	N	0.904019	0.537531	0.812260
	N256	N	0.175094	0.917210	0.457080
	N257	N	0.175101	0.092057	0.527909
	N258	N	0.812752	0.094265	0.456807
	N259	N	0.814694	0.917956	0.525301
	N260	N	0.457702	0.184138	0.904843
	N261	N	0.528848	0.183274	0.079129
	N262	N	0.458301	0.821601	0.082334
	N263	N	0.527756	0.823120	0.906309
	N264	N	0.459610	0.913913	0.176216
	N265	N	0.529164	0.090656	0.173593
	N266	N	0.458927	0.092029	0.810042
	N267	N	0.528757	0.917084	0.813297
	N268	N	0.908355	0.184942	0.455741
	N269	N	0.082813	0.185878	0.527466
	N270	N	0.082567	0.822989	0.456971
	N271	N	0.907357	0.824893	0.525308
	N272	N	0.171359	0.467792	0.908124
	N273	N	0.176642	0.536346	0.085710
	N274	N	0.810895	0.467913	0.081672
	N275	N	0.812546	0.538354	0.907204
	O276	O	0.438281	0.411761	0.282882
	H277	H	0.453657	0.405732	0.294799
	H278	H	0.456716	0.411232	0.283166
	O279	O	1.210500	-0.019600	1.131492
	H280	H	1.204795	-0.040724	1.104472
	H281	H	1.228297	-0.028317	1.128292
	O282	O	0.481731	0.537369	0.503205
	H283	H	0.481007	0.548438	0.521711
	H284	H	0.466584	0.546089	0.510910
	O285	O	0.806829	0.816305	0.801546
	H286	H	0.835785	0.841725	0.800684
	H287	H	0.815949	0.827144	0.838320
	O288	O	1.012356	1.212376	0.204782
	H289	H	1.043746	1.219203	0.208272
	H290	H	1.038690	1.229684	0.216971
	O291	O	1.165717	-0.217069	0.004023
	H292	H	1.185509	-0.243535	0.013011
	H293	H	1.140662	-0.210083	-0.037141
	O294	O	-0.213404	0.010397	0.849682
	H295	H	-0.208331	0.005790	0.865628
	H296	H	-0.233264	0.011543	0.821172
	O297	O	0.327787	0.523069	0.505504
	H298	H	0.332922	0.532734	0.513334
	H299	H	0.323261	0.544790	0.475834
	O300	O	0.286490	0.500090	0.635450
	H301	H	0.300512	0.491683	0.631373
	H302	H	0.276944	0.493032	0.643249
	O303	O	0.432755	0.310262	0.703403
	H304	H	0.444660	0.282846	0.722593
	H305	H	0.437125	0.315050	0.685303
	O306	O	0.047686	0.844044	1.109797
	H307	H	0.048295	0.859981	1.114377
	H308	H	0.069219	0.844558	1.112139
	O309	O	0.502444	0.520501	0.331063
	H310	H	0.490654	0.523817	0.332437
	H311	H	0.500412	0.534723	0.340083
	O312	O	-0.026132	1.024562	0.997628
	H313	H	-0.018579	1.005810	0.998970
	H314	H	-0.036055	1.025749	1.008660
	O315	O	0.619510	0.324081	0.526818
	H316	H	0.636653	0.339556	0.536830
	H317	H	0.623016	0.328524	0.525064
	O318	O	1.280682	0.539830	0.282971
	H319	H	1.314275	0.513137	0.279949
	H320	H	1.259491	0.531904	0.246709
	O321	O	-0.027260	0.033703	0.135812
	H322	H	-0.033197	0.046608	0.130562
	H323	H	-0.007067	0.050150	0.129403
	O324	O	0.277118	0.711808	0.480658
	H325	H	0.278546	0.706351	0.438308
	H326	H	0.253824	0.726551	0.475317
	O327	O	0.684006	0.537058	0.688744
	H328	H	0.682706	0.534819	0.700190
	H329	H	0.684468	0.536477	0.684164
	O330	O	-0.059222	0.786916	-0.058133
	H331	H	-0.066558	0.779414	-0.036823
	H332	H	-0.074404	0.782936	-0.063154
	O333	O	0.781207	0.791599	1.007269
	H334	H	0.753403	0.773084	1.015478
	H335	H	0.788796	0.802145	1.051912
	O336	O	0.207996	0.032845	-0.099305
	H337	H	0.216243	0.050323	-0.094358
	H338	H	0.201383	0.024136	-0.093843
	O339	O	-0.111290	0.971760	1.069179
	H340	H	-0.123380	0.951407	1.075724
	H341	H	-0.113797	0.975263	1.048368
	O342	O	-0.010859	1.219632	0.778708
	H343	H	-0.051259	1.212816	0.790134
	H344	H	-0.012050	1.251335	0.751596
	O345	O	0.916995	1.105152	-0.020329
	H346	H	0.909663	1.125637	-0.019088
	H347	H	0.921114	1.073912	-0.004899
	O348	O	1.205886	0.925350	0.784667
	H349	H	1.221316	0.937627	0.761870
	H350	H	1.196529	0.942554	0.803222
	O351	O	0.168216	1.183731	1.173298
	H352	H	0.179466	1.191613	1.133453
	H353	H	0.184931	1.132667	1.187001
	O354	O	-0.338336	0.321442	-0.681436
	H355	H	-0.343159	0.313373	-0.653523
	H356	H	-0.330726	0.364920	-0.687568
	O357	O	0.203287	0.209713	1.009598
	H358	H	0.211579	0.236810	1.015946
	H359	H	0.192000	0.214900	0.994129
	O360	O	0.448901	0.325878	0.431160
	H361	H	0.455315	0.323173	0.428163
	H362	H	0.440302	0.330249	0.432401
	O363	O	0.017569	0.193012	0.982441
	H364	H	0.012137	0.202781	0.985929
	H365	H	0.027002	0.183167	0.995731
	O366	O	0.303452	0.360867	0.681681
	H367	H	0.326345	0.366923	0.683324
	H368	H	0.291501	0.354375	0.669107
	O369	O	0.660231	0.497263	0.287145
	H370	H	0.671735	0.501176	0.270584
	H371	H	0.647151	0.512664	0.281765
	O372	O	1.012180	-0.209749	0.780538
	H373	H	1.003564	-0.219717	0.787726
	H374	H	1.013315	-0.215608	0.759864
	O375	O	0.333113	0.684097	0.314361
	H376	H	0.323544	0.643762	0.300161
	H377	H	0.371160	0.688255	0.311432
	O378	O	0.483092	0.506373	0.480239
	H379	H	0.479640	0.496898	0.480642
	H380	H	0.486693	0.512910	0.478417
	O381	O	0.864534	0.204365	0.904411
	H382	H	0.858770	0.213779	0.917255
	H383	H	0.868687	0.182143	0.912747
	O384	O	0.554007	0.719730	0.440636
	H385	H	0.545845	0.720592	0.472327
	H386	H	0.576644	0.722071	0.465559
	O387	O	-0.208984	0.130037	0.812012
	H388	H	-0.198450	0.112088	0.820750
	H389	H	-0.229103	0.140251	0.793258
	O390	O	-0.186492	-0.175703	0.165331
	H391	H	-0.194589	-0.126666	0.174941
	H392	H	-0.134000	-0.188121	0.179580
	O393	O	0.524603	0.716444	0.706942
	H394	H	0.516016	0.734602	0.723641
	H395	H	0.542364	0.712583	0.709131
	O396	O	0.778641	0.028019	0.002918
	H397	H	0.790581	0.023584	0.023914
	H398	H	0.781310	0.004752	-0.003322
	O399	O	1.188743	-0.187440	0.870857
	H400	H	1.183435	-0.157634	0.870511
	H401	H	1.164034	-0.205443	0.859134
	O402	O	1.707094	0.722328	1.518663
	H403	H	1.716250	0.723443	1.547541
	H404	H	1.727714	0.738470	1.541923
	O405	O	0.971630	0.792534	0.203796
	H406	H	0.979251	0.779340	0.236048
	H407	H	0.994963	0.817428	0.204846
	O408	O	1.198131	-0.030670	0.155861
	H409	H	1.206923	-0.034770	0.173739
	H410	H	1.201846	-0.056393	0.123962
	O411	O	1.053136	1.035483	-0.214699
	H412	H	1.048132	1.067029	-0.226251
	H413	H	1.048936	1.041795	-0.200769
	O414	O	0.417139	0.701831	0.582833
	H415	H	0.405396	0.703177	0.608968
	H416	H	0.389095	0.703243	0.574429
	O417	O	0.695209	0.707957	0.692808
	H418	H	0.728495	0.735362	0.727382
	H419	H	0.674624	0.678338	0.699465
	O420	O	0.129002	0.155143	-0.095535
	H421	H	0.111617	0.148880	-0.114384
	H422	H	0.106146	0.144520	-0.075934
	O423	O	0.583438	0.299894	0.359104
	H424	H	0.594769	0.280480	0.343152
	H425	H	0.604923	0.306284	0.351497
	O426	O	0.280188	0.294124	0.517427
	H427	H	0.252184	0.273545	0.534570
	H428	H	0.273937	0.309157	0.516002
	O429	O	0.658478	0.532612	0.395219
	H430	H	0.654242	0.548648	0.396698
	H431	H	0.671341	0.544047	0.381286
	O432	O	0.500954	0.558261	0.633162
	H433	H	0.503492	0.555847	0.642897
	H434	H	0.499737	0.575861	0.635863
	O435	O	0.491988	0.307032	0.517671
	H436	H	0.485802	0.317286	0.511410
	H437	H	0.489123	0.304773	0.518611
	O438	O	-0.162134	0.020894	0.205528
	H439	H	-0.169881	0.029663	0.217366
	H440	H	-0.166505	0.043111	0.221118
	O441	O	0.939182	-0.029376	-0.220141
	H442	H	0.944474	-0.017161	-0.207835
	H443	H	0.941624	-0.023020	-0.222380
	O444	O	-0.125602	1.058848	1.142070
	H445	H	-0.117721	1.094611	1.138137
	H446	H	-0.120511	1.061282	1.141405
	O447	O	0.672151	0.398875	0.622912
	H448	H	0.652469	0.410424	0.613660
	H449	H	0.671579	0.418420	0.627985
	O450	O	0.468273	0.708553	0.304230
	H451	H	0.486024	0.714019	0.342669
	H452	H	0.470682	0.739202	0.289645
	O453	O	0.495170	0.466538	0.667412
	H454	H	0.478077	0.464648	0.661029
	H455	H	0.478347	0.454939	0.668441
