data_Molecule from HDF5

_cell_length_a		16.547908
_cell_length_b		16.503890
_cell_length_c		16.466567
_cell_angle_alpha	89.858632
_cell_angle_beta	89.963547
_cell_angle_gamma	90.045773
_symmetry_space_group_name_H-M	'P 1'
_symmetry_Int_Tables_number		1

loop_
	_symmetry_equiv_pos_as_xyz
	x,y,z

loop_
	_atom_site_label
	_atom_site_type_symbol
	_atom_site_fract_x
	_atom_site_fract_y
	_atom_site_fract_z
	H0	H	0.399002	0.843833	0.743607
	H1	H	0.606748	0.160469	0.741096
	H2	H	0.609383	0.844626	0.300793
	H3	H	0.398325	0.158273	0.300213
	H4	H	0.725489	0.396844	0.865488
	H5	H	0.725207	0.607995	0.178516
	H6	H	0.281896	0.607421	0.864532
	H7	H	0.282448	0.395638	0.180245
	H8	H	0.848690	0.724226	0.416763
	H9	H	0.159538	0.728170	0.634108
	H10	H	0.846875	0.280139	0.628321
	H11	H	0.162204	0.280238	0.417705
	H12	H	0.846335	0.397741	0.743943
	H13	H	0.160321	0.608893	0.747044
	H14	H	0.849737	0.609734	0.298767
	H15	H	0.161912	0.396048	0.300139
	H16	H	0.396625	0.724634	0.865078
	H17	H	0.606714	0.721600	0.179230
	H18	H	0.608223	0.281977	0.864534
	H19	H	0.398465	0.279543	0.180112
	H20	H	0.726531	0.845448	0.415247
	H21	H	0.725182	0.158729	0.627883
	H22	H	0.280449	0.844046	0.630274
	H23	H	0.281463	0.157671	0.415442
	H24	H	0.899163	0.345202	0.244746
	H25	H	0.111871	0.659078	0.245789
	H26	H	0.109506	0.344350	0.802501
	H27	H	0.896567	0.657503	0.798358
	H28	H	0.227649	0.892614	0.366679
	H29	H	0.226336	0.106899	0.679372
	H30	H	0.782053	0.108355	0.365532
	H31	H	0.779889	0.894131	0.679633
	H32	H	0.346889	0.223956	0.916846
	H33	H	0.660418	0.221915	0.125532
	H34	H	0.347488	0.777704	0.129733
	H35	H	0.660647	0.780975	0.916475
	H36	H	0.346914	0.894360	0.245534
	H37	H	0.660334	0.105662	0.243147
	H38	H	0.346203	0.106297	0.800888
	H39	H	0.661586	0.899254	0.802901
	H40	H	0.899772	0.223431	0.365663
	H41	H	0.108546	0.221593	0.680543
	H42	H	0.110690	0.777898	0.367063
	H43	H	0.896149	0.778179	0.680232
	H44	H	0.225727	0.345086	0.917581
	H45	H	0.228626	0.658385	0.130124
	H46	H	0.779736	0.346565	0.131686
	H47	H	0.780237	0.657967	0.914243
	H48	H	0.417137	0.111949	0.608301
	H49	H	0.592288	0.888747	0.611459
	H50	H	0.589785	0.113201	0.433264
	H51	H	0.415289	0.890641	0.440771
	H52	H	0.593631	0.414214	0.136310
	H53	H	0.589999	0.596013	0.907852
	H54	H	0.414542	0.586211	0.133551
	H55	H	0.411733	0.412503	0.908537
	H56	H	0.116475	0.590564	0.437067
	H57	H	0.890060	0.589454	0.619174
	H58	H	0.115422	0.411916	0.612653
	H59	H	0.893266	0.412428	0.435182
	H60	H	0.116927	0.411713	0.614947
	H61	H	0.892977	0.596273	0.604608
	H62	H	0.114973	0.588430	0.436543
	H63	H	0.893473	0.413381	0.434455
	H64	H	0.419635	0.589546	0.133192
	H65	H	0.597967	0.587675	0.908178
	H66	H	0.589977	0.412536	0.134498
	H67	H	0.415904	0.415619	0.911251
	H68	H	0.593696	0.114220	0.435532
	H69	H	0.591272	0.889282	0.611089
	H70	H	0.410058	0.114015	0.608491
	H71	H	0.409049	0.886420	0.432792
	H72	H	0.919079	0.612999	0.109511
	H73	H	0.089105	0.392354	0.111422
	H74	H	0.089200	0.615012	0.929272
	H75	H	0.915657	0.391185	0.938477
	H76	H	0.095385	0.919482	0.634443
	H77	H	0.093430	0.096483	0.407357
	H78	H	0.918289	0.093960	0.635656
	H79	H	0.923097	0.910621	0.412475
	H80	H	0.617305	0.092006	0.929686
	H81	H	0.389204	0.095062	0.111963
	H82	H	0.613219	0.912354	0.105084
	H83	H	0.390748	0.909614	0.936383
	H84	H	0.614559	0.917610	0.113313
	H85	H	0.393835	0.089162	0.104996
	H86	H	0.616805	0.093908	0.933421
	H87	H	0.392924	0.916848	0.934416
	H88	H	0.909006	0.091959	0.637724
	H89	H	0.098565	0.086549	0.408534
	H90	H	0.084831	0.916999	0.632252
	H91	H	0.910143	0.909642	0.408483
	H92	H	0.088483	0.610550	0.940996
	H93	H	0.095422	0.390969	0.108084
	H94	H	0.912712	0.614113	0.106909
	H95	H	0.912459	0.388575	0.935970
	H96	H	0.413890	0.115084	0.614488
	H97	H	0.592747	0.889234	0.610610
	H98	H	0.593765	0.115138	0.431278
	H99	H	0.419744	0.889463	0.430441
	H100	H	0.592842	0.409824	0.136331
	H101	H	0.587554	0.585825	0.912359
	H102	H	0.413559	0.591905	0.135343
	H103	H	0.416671	0.410052	0.909321
	H104	H	0.116734	0.589645	0.434760
	H105	H	0.897552	0.581295	0.607635
	H106	H	0.118032	0.410178	0.612933
	H107	H	0.892940	0.412853	0.433801
	H108	H	0.914670	0.615508	0.113987
	H109	H	0.094820	0.388757	0.114985
	H110	H	0.099409	0.615188	0.937053
	H111	H	0.916604	0.389814	0.933912
	H112	H	0.091558	0.909589	0.636507
	H113	H	0.088130	0.088623	0.412290
	H114	H	0.914982	0.084705	0.634339
	H115	H	0.914670	0.921226	0.413813
	H116	H	0.614443	0.090387	0.932564
	H117	H	0.391721	0.085491	0.113950
	H118	H	0.616753	0.908100	0.112956
	H119	H	0.389833	0.912600	0.929233
	C120	C	0.381724	0.009776	0.643604
	C121	C	0.624525	0.993264	0.643078
	C122	C	0.625231	0.010352	0.400763
	C123	C	0.382041	0.992295	0.401267
	C124	C	0.624737	0.380350	0.031239
	C125	C	0.624461	0.622662	1.013162
	C126	C	0.382351	0.622995	0.030650
	C127	C	0.382416	0.380124	1.013967
	C128	C	0.013193	0.622764	0.402215
	C129	C	0.996237	0.623070	0.645020
	C130	C	0.012682	0.379500	0.645386
	C131	C	0.996779	0.380174	0.401431
	C132	C	0.882633	0.510700	0.143976
	C133	C	0.126491	0.494038	0.144389
	C134	C	0.124820	0.510061	0.902617
	C135	C	0.882163	0.493188	0.902148
	C136	C	0.124414	0.880873	0.531167
	C137	C	0.125520	0.122614	0.513566
	C138	C	0.882681	0.122779	0.531413
	C139	C	0.881805	0.879979	0.514594
	C140	C	0.512041	0.123734	0.900408
	C141	C	0.495294	0.122005	0.142787
	C142	C	0.511832	0.879591	0.143658
	C143	C	0.495151	0.881033	0.901126
	C144	C	0.379800	0.891346	0.704125
	C145	C	0.625942	0.112385	0.702130
	C146	C	0.627550	0.892044	0.340622
	C147	C	0.379486	0.110655	0.339927
	C148	C	0.685406	0.378420	0.912827
	C149	C	0.684677	0.625702	0.131500
	C150	C	0.321529	0.625951	0.912037
	C151	C	0.321980	0.377099	0.132684
	C152	C	0.895776	0.683945	0.398667
	C153	C	0.112852	0.686415	0.650642
	C154	C	0.894149	0.319974	0.646942
	C155	C	0.114918	0.320067	0.399168
	C156	C	0.893898	0.378245	0.704634
	C157	C	0.113132	0.627406	0.707320
	C158	C	0.896414	0.627163	0.339911
	C159	C	0.114932	0.377839	0.341000
	C160	C	0.378454	0.684407	0.912318
	C161	C	0.625758	0.682265	0.131696
	C162	C	0.627332	0.320962	0.912515
	C163	C	0.379804	0.319525	0.132816
	C164	C	0.686263	0.892652	0.397451
	C165	C	0.684832	0.111750	0.645620
	C166	C	0.320744	0.891546	0.647633
	C167	C	0.321434	0.110488	0.397351
	C168	C	0.880631	0.392499	0.204588
	C169	C	0.129812	0.611862	0.205286
	C170	C	0.127198	0.391643	0.842688
	C171	C	0.879208	0.610789	0.839608
	C172	C	0.186484	0.876011	0.413529
	C173	C	0.185563	0.124913	0.632401
	C174	C	0.822736	0.125824	0.412868
	C175	C	0.820390	0.876490	0.632563
	C176	C	0.393713	0.183564	0.898471
	C177	C	0.613617	0.181827	0.144347
	C178	C	0.394123	0.818398	0.147100
	C179	C	0.613546	0.821255	0.898693
	C180	C	0.393997	0.876603	0.204692
	C181	C	0.613462	0.124287	0.202755
	C182	C	0.393609	0.125393	0.840742
	C183	C	0.614137	0.880323	0.842231
	C184	C	0.881130	0.183301	0.412727
	C185	C	0.127278	0.182076	0.632892
	C186	C	0.128457	0.818689	0.413735
	C187	C	0.878454	0.818758	0.632768
	C188	C	0.185327	0.392049	0.899905
	C189	C	0.188100	0.611574	0.147830
	C190	C	0.821294	0.393314	0.148241
	C191	C	0.820948	0.610969	0.897058
	C192	C	0.406622	0.092146	0.617618
	C193	C	0.599510	0.910753	0.618225
	C194	C	0.599695	0.092730	0.426133
	C195	C	0.407441	0.910127	0.427270
	C196	C	0.599449	0.405272	0.114157
	C197	C	0.599256	0.597212	0.930664
	C198	C	0.408241	0.596812	0.112570
	C199	C	0.407581	0.405445	0.931444
	C200	C	0.094805	0.596635	0.428605
	C201	C	0.914858	0.596612	0.618053
	C202	C	0.095193	0.404277	0.620565
	C203	C	0.914613	0.405663	0.427120
	C204	C	0.908175	0.592739	0.117667
	C205	C	0.100670	0.412021	0.118994
	C206	C	0.099469	0.592212	0.928302
	C207	C	0.907771	0.411279	0.928624
	C208	C	0.098112	0.907638	0.612980
	C209	C	0.100479	0.097617	0.430979
	C210	C	0.907177	0.097382	0.614256
	C211	C	0.908388	0.906355	0.432741
	C212	C	0.594626	0.099353	0.924978
	C213	C	0.412950	0.097036	0.117610
	C214	C	0.593467	0.905268	0.117941
	C215	C	0.412654	0.905823	0.926271
	Zn216	Zn	0.503485	0.001636	0.771829
	Zn217	Zn	0.503400	0.001198	0.272741
	Zn218	Zn	0.752758	0.501900	0.022641
	Zn219	Zn	0.254579	0.501810	0.022349
	Zn220	Zn	0.004175	0.751514	0.523971
	Zn221	Zn	0.004345	0.251449	0.523252
	Zn222	Zn	0.003982	0.501441	0.773800
	Zn223	Zn	0.004821	0.502256	0.272773
	Zn224	Zn	0.503074	0.751364	0.021302
	Zn225	Zn	0.503174	0.252015	0.022164
	Zn226	Zn	0.753278	0.001648	0.522576
	Zn227	Zn	0.253490	0.000769	0.522320
	N228	N	0.416767	0.965858	0.701947
	N229	N	0.588983	0.037736	0.700663
	N230	N	0.590457	0.966479	0.342357
	N231	N	0.416436	0.036113	0.342264
	N232	N	0.684021	0.414494	0.988032
	N233	N	0.684146	0.589601	0.056513
	N234	N	0.323839	0.588368	0.986555
	N235	N	0.323256	0.413967	0.057731
	N236	N	0.969450	0.681459	0.436708
	N237	N	0.038913	0.683940	0.612748
	N238	N	0.969045	0.320494	0.610902
	N239	N	0.040385	0.321472	0.436078
	N240	N	0.968714	0.414449	0.703796
	N241	N	0.039516	0.588989	0.704142
	N242	N	0.970488	0.589845	0.341994
	N243	N	0.040245	0.414302	0.341972
	N244	N	0.415049	0.683100	0.987071
	N245	N	0.589294	0.680661	0.056914
	N246	N	0.590545	0.321902	0.987234
	N247	N	0.416624	0.321192	0.058015
	N248	N	0.684895	0.967341	0.434006
	N249	N	0.684229	0.036760	0.609782
	N250	N	0.321788	0.966275	0.610659
	N251	N	0.322506	0.035752	0.434384
	N252	N	0.918389	0.466616	0.202014
	N253	N	0.092198	0.537726	0.203327
	N254	N	0.090246	0.466034	0.844202
	N255	N	0.916564	0.536427	0.842438
	N256	N	0.183931	0.914002	0.487624
	N257	N	0.184780	0.088864	0.557308
	N258	N	0.823275	0.089118	0.487865
	N259	N	0.822152	0.913582	0.557887
	N260	N	0.468470	0.182711	0.934561
	N261	N	0.539073	0.180445	0.107720
	N262	N	0.468389	0.819895	0.109955
	N263	N	0.538511	0.821574	0.934633
	N264	N	0.468136	0.913854	0.202941
	N265	N	0.538841	0.087867	0.201947
	N266	N	0.468173	0.088882	0.841693
	N267	N	0.539451	0.916753	0.843549
	N268	N	0.917576	0.181547	0.487442
	N269	N	0.090702	0.180991	0.557961
	N270	N	0.090509	0.821715	0.487842
	N271	N	0.916093	0.820640	0.558343
	N272	N	0.183928	0.466673	0.936483
	N273	N	0.186193	0.537388	0.110755
	N274	N	0.822395	0.467911	0.111227
	N275	N	0.822682	0.536950	0.935192
	O276	O	0.659718	0.301052	0.320690
	H277	H	0.633133	0.306063	0.319036
	H278	H	0.649985	0.295767	0.303997
	O279	O	0.474349	0.710302	0.316366
	H280	H	0.495107	0.706049	0.317577
	H281	H	0.491909	0.720179	0.306500
	O282	O	0.294838	0.705942	0.498292
	H283	H	0.308020	0.708403	0.519668
	H284	H	0.282212	0.718616	0.510468
	O285	O	0.222647	1.016665	0.191966
	H286	H	0.232567	1.013662	0.217976
	H287	H	0.214688	1.017894	0.194639
	O288	O	-0.055161	-0.170271	-0.075673
	H289	H	-0.041514	-0.170328	-0.057060
	H290	H	-0.046924	-0.184403	-0.093560
	O291	O	1.134981	0.799249	-0.001351
	H292	H	1.139454	0.805891	0.006301
	H293	H	1.142854	0.799549	0.009073
	O294	O	0.045671	0.911563	-0.101388
	H295	H	0.057304	0.904096	-0.125454
	H296	H	0.031963	0.925465	-0.072036
	O297	O	1.216892	0.982700	-0.188742
	H298	H	1.245250	0.980304	-0.210515
	H299	H	1.205597	0.973103	-0.179149
	O300	O	0.716305	0.463273	0.311068
	H301	H	0.702360	0.454435	0.318864
	H302	H	0.737643	0.448804	0.290358
	O303	O	0.396542	0.459564	0.712879
	H304	H	0.390100	0.464941	0.716677
	H305	H	0.382672	0.470064	0.700771
	O306	O	0.007292	0.970823	1.199785
	H307	H	0.022789	0.962576	1.194248
	H308	H	0.013862	0.977849	1.187405
	O309	O	0.521229	0.420407	0.427097
	H310	H	0.512282	0.407201	0.435453
	H311	H	0.508963	0.410170	0.431332
	O312	O	0.417778	0.334427	0.477016
	H313	H	0.408765	0.345860	0.478291
	H314	H	0.426968	0.342942	0.482972
	O315	O	-0.067768	-0.057583	0.802488
	H316	H	-0.040246	-0.039603	0.807225
	H317	H	-0.059630	-0.076283	0.797412
	O318	O	-0.419847	1.673456	0.532578
	H319	H	-0.411010	1.661452	0.536947
	H320	H	-0.392730	1.673328	0.536079
	O321	O	-0.021634	1.218025	-0.189467
	H322	H	-0.027114	1.210355	-0.196895
	H323	H	-0.038192	1.234614	-0.206872
	O324	O	0.797469	0.214586	1.001021
	H325	H	0.794301	0.209790	1.007526
	H326	H	0.785965	0.226153	0.998004
	O327	O	0.958223	-0.161367	1.072400
	H328	H	0.959594	-0.143910	1.075212
	H329	H	0.952390	-0.176671	1.068901
	O330	O	0.971472	0.149953	0.071880
	H331	H	0.972913	0.153361	0.062122
	H332	H	0.959298	0.154103	0.064905
	O333	O	0.718421	0.716315	0.546024
	H334	H	0.707358	0.706831	0.565883
	H335	H	0.749820	0.741984	0.550193
	O336	O	1.694744	-0.516391	0.578281
	H337	H	1.690489	-0.534513	0.571763
	H338	H	1.703565	-0.509667	0.576703
	O339	O	0.441457	-0.687292	-0.610569
	H340	H	0.427511	-0.694554	-0.608505
	H341	H	0.429800	-0.694089	-0.610505
	O342	O	0.291557	0.537387	0.374070
	H343	H	0.271787	0.541483	0.357988
	H344	H	0.291457	0.567164	0.382328
	O345	O	-0.463455	0.393514	-0.386725
	H346	H	-0.473915	0.390627	-0.394528
	H347	H	-0.466520	0.391841	-0.381666
	O348	O	1.151840	-0.096565	1.090531
	H349	H	1.156118	-0.091318	1.111391
	H350	H	1.139177	-0.092453	1.093000
	O351	O	0.805983	1.170851	-0.179365
	H352	H	0.798578	1.179955	-0.176288
	H353	H	0.798999	1.145608	-0.171606
	O354	O	0.504447	0.370278	0.637582
	H355	H	0.510056	0.375376	0.644118
	H356	H	0.505448	0.359532	0.640779
	O357	O	1.078823	1.163258	1.232360
	H358	H	1.080277	1.155736	1.212482
	H359	H	1.089271	1.189697	1.258281
	O360	O	0.663755	0.606474	0.718824
	H361	H	0.667501	0.600039	0.733504
	H362	H	0.636732	0.592325	0.717911
	O363	O	0.478883	0.716307	0.640990
	H364	H	0.511136	0.705750	0.632240
	H365	H	0.481443	0.729678	0.637299
	O366	O	1.190717	0.187146	1.187389
	H367	H	1.175970	0.181894	1.195178
	H368	H	1.196960	0.178035	1.162326
	O369	O	-0.189899	0.891109	-0.061924
	H370	H	-0.192359	0.885566	-0.051463
	H371	H	-0.183406	0.881284	-0.069556
	O372	O	0.189332	0.817407	-0.160456
	H373	H	0.162324	0.810583	-0.150129
	H374	H	0.196496	0.833245	-0.133391
	O375	O	-0.020116	0.792376	1.233187
	H376	H	-0.006436	0.785125	1.213053
	H377	H	-0.016406	0.772427	1.245750
	O378	O	0.406686	0.514464	0.334361
	H379	H	0.388341	0.525380	0.340633
	H380	H	0.421445	0.515552	0.328629
	O381	O	1.010035	-0.078613	-0.046055
	H382	H	1.001395	-0.078440	-0.036845
	H383	H	1.031504	-0.078654	-0.058341
	O384	O	-0.333618	0.289978	1.692914
	H385	H	-0.317620	0.291706	1.691130
	H386	H	-0.337914	0.292332	1.686262
	O387	O	-0.199734	1.015677	1.231367
	H388	H	-0.184706	1.010995	1.234208
	H389	H	-0.206035	1.020399	1.235026
	O390	O	0.789786	1.027743	0.845439
	H391	H	0.770878	1.025617	0.824250
	H392	H	0.816098	1.015435	0.841073
	O393	O	1.266504	0.734618	0.313308
	H394	H	1.303454	0.738921	0.303680
	H395	H	1.263983	0.730450	0.354496
	O396	O	0.667071	0.692748	0.358292
	H397	H	0.660813	0.671315	0.362114
	H398	H	0.680448	0.709687	0.347432
	O399	O	0.441373	0.608637	0.642253
	H400	H	0.440708	0.614549	0.647300
	H401	H	0.458029	0.590091	0.636163
	O402	O	-0.003011	0.084355	1.077511
	H403	H	-0.015369	0.086283	1.081681
	H404	H	-0.004485	0.083689	1.081942
	O405	O	0.032241	0.108984	0.054776
	H406	H	0.045329	0.114097	0.039809
	H407	H	0.037912	0.111312	0.059261
	O408	O	0.374114	0.433428	0.682315
	H409	H	0.383644	0.438298	0.687467
	H410	H	0.393666	0.431770	0.677744
	O411	O	0.163018	1.195582	-0.141485
	H412	H	0.159011	1.197766	-0.139172
	H413	H	0.152953	1.190469	-0.152187
	O414	O	0.381523	0.492831	0.609130
	H415	H	0.370944	0.481544	0.620534
	H416	H	0.379534	0.492054	0.603969
	O417	O	0.794884	-0.165208	1.086295
	H418	H	0.797765	-0.160220	1.086680
	H419	H	0.776122	-0.181052	1.093574
	O420	O	0.720598	0.288569	0.491941
	H421	H	0.731406	0.277116	0.488122
	H422	H	0.729014	0.280532	0.461856
	O423	O	0.077937	1.052349	-0.149822
	H424	H	0.079357	1.050089	-0.130214
	H425	H	0.091269	1.057602	-0.154584
	O426	O	1.127302	0.848119	1.141434
	H427	H	1.134478	0.838887	1.126057
	H428	H	1.138938	0.857996	1.139706
	O429	O	0.552446	0.526495	0.311274
	H430	H	0.548576	0.514606	0.313453
	H431	H	0.556651	0.536977	0.309796
	O432	O	0.680313	0.520841	0.490835
	H433	H	0.685023	0.537248	0.471005
	H434	H	0.682326	0.508216	0.494010
	O435	O	-0.128714	0.020838	0.031132
	H436	H	-0.138614	0.005644	0.028161
	H437	H	-0.127734	0.013091	0.026920
	O438	O	1.588289	0.393569	0.521924
	H439	H	1.600488	0.383869	0.510287
	H440	H	1.585071	0.401211	0.531077
	O441	O	0.213777	0.083703	-0.006463
	H442	H	0.218036	0.083270	-0.001126
	H443	H	0.206969	0.099641	-0.017824
	O444	O	0.797356	-0.206299	0.213912
	H445	H	0.830359	-0.207576	0.203552
	H446	H	0.792695	-0.171011	0.222277
	O447	O	0.292440	0.286766	0.555711
	H448	H	0.274871	0.279267	0.548675
	H449	H	0.291331	0.290525	0.567757
	O450	O	0.292396	0.486666	0.456968
	H451	H	0.291671	0.500699	0.447409
	H452	H	0.297819	0.504133	0.439062
	O453	O	0.415465	0.369654	0.729675
	H454	H	0.420208	0.378212	0.705204
	H455	H	0.413163	0.372854	0.737980
	O456	O	0.595625	0.702451	0.717749
	H457	H	0.587184	0.697556	0.688160
	H458	H	0.594410	0.690186	0.737506
	O459	O	0.042685	0.182961	0.061199
	H460	H	0.028236	0.180096	0.074619
	H461	H	0.051676	0.203527	0.059056
	O462	O	0.841885	0.169401	0.224017
	H463	H	0.843914	0.171696	0.228193
	H464	H	0.841902	0.159907	0.203536
	O465	O	1.428485	-0.455257	-0.357224
	H466	H	1.430587	-0.459930	-0.350113
	H467	H	1.441370	-0.443502	-0.352601
