data_Molecule from HDF5

_cell_length_a		16.338694
_cell_length_b		16.234875
_cell_length_c		16.364686
_cell_angle_alpha	89.793664
_cell_angle_beta	90.143447
_cell_angle_gamma	90.216757
_symmetry_space_group_name_H-M	'P 1'
_symmetry_Int_Tables_number		1

loop_
	_symmetry_equiv_pos_as_xyz
	x,y,z

loop_
	_atom_site_label
	_atom_site_type_symbol
	_atom_site_fract_x
	_atom_site_fract_y
	_atom_site_fract_z
	H0	H	0.399523	0.842491	0.718687
	H1	H	0.604875	0.166687	0.713066
	H2	H	0.603759	0.839512	0.281838
	H3	H	0.403082	0.165406	0.281122
	H4	H	0.720881	0.402366	0.839625
	H5	H	0.721152	0.604440	0.161817
	H6	H	0.283378	0.604463	0.839653
	H7	H	0.287279	0.398274	0.162854
	H8	H	0.839460	0.713941	0.403023
	H9	H	0.164498	0.720560	0.604092
	H10	H	0.840528	0.283258	0.601356
	H11	H	0.164934	0.285100	0.401768
	H12	H	0.841873	0.396731	0.719831
	H13	H	0.165109	0.603392	0.719455
	H14	H	0.841963	0.601494	0.282891
	H15	H	0.164806	0.398141	0.283998
	H16	H	0.403735	0.717725	0.836378
	H17	H	0.604937	0.720076	0.160805
	H18	H	0.601981	0.290119	0.836256
	H19	H	0.404118	0.283270	0.161776
	H20	H	0.717351	0.838546	0.399573
	H21	H	0.721430	0.164843	0.598401
	H22	H	0.286895	0.839712	0.601341
	H23	H	0.286453	0.164351	0.395918
	H24	H	0.902468	0.337474	0.217378
	H25	H	0.105577	0.663567	0.218356
	H26	H	0.106831	0.338544	0.784024
	H27	H	0.900302	0.662172	0.780994
	H28	H	0.221723	0.897415	0.338899
	H29	H	0.225487	0.105594	0.659441
	H30	H	0.785199	0.104089	0.338344
	H31	H	0.782405	0.897289	0.660539
	H32	H	0.340529	0.219808	0.898027
	H33	H	0.666020	0.218529	0.097111
	H34	H	0.341675	0.784295	0.099317
	H35	H	0.665805	0.786762	0.897056
	H36	H	0.342279	0.899456	0.216214
	H37	H	0.664400	0.107412	0.217399
	H38	H	0.342448	0.109185	0.777625
	H39	H	0.664995	0.904278	0.781470
	H40	H	0.903252	0.217911	0.338692
	H41	H	0.105953	0.217345	0.662385
	H42	H	0.102955	0.783189	0.338954
	H43	H	0.900693	0.783142	0.662377
	H44	H	0.219661	0.338571	0.902627
	H45	H	0.222040	0.663428	0.104800
	H46	H	0.784531	0.339687	0.103685
	H47	H	0.787304	0.663770	0.898420
	H48	H	0.418676	0.118326	0.589179
	H49	H	0.595935	0.888230	0.583627
	H50	H	0.586878	0.115218	0.407955
	H51	H	0.403695	0.885151	0.410683
	H52	H	0.597666	0.412466	0.115257
	H53	H	0.597359	0.595182	0.883670
	H54	H	0.411900	0.595494	0.115508
	H55	H	0.416346	0.409886	0.886583
	H56	H	0.116306	0.590316	0.413117
	H57	H	0.887294	0.590510	0.593186
	H58	H	0.118559	0.408332	0.595142
	H59	H	0.888122	0.409657	0.411474
	H60	H	0.117758	0.408822	0.591205
	H61	H	0.889816	0.590155	0.591374
	H62	H	0.117958	0.589779	0.408897
	H63	H	0.888586	0.412363	0.407333
	H64	H	0.412384	0.592138	0.114245
	H65	H	0.597558	0.593041	0.884222
	H66	H	0.590861	0.412261	0.113395
	H67	H	0.405438	0.408490	0.883379
	H68	H	0.601098	0.117486	0.414239
	H69	H	0.596710	0.883416	0.596906
	H70	H	0.412375	0.116763	0.581775
	H71	H	0.413629	0.884501	0.397960
	H72	H	0.915882	0.616606	0.092956
	H73	H	0.094267	0.387193	0.088039
	H74	H	0.093520	0.616902	0.907846
	H75	H	0.914276	0.384477	0.907211
	H76	H	0.093614	0.909436	0.614306
	H77	H	0.094524	0.096243	0.384966
	H78	H	0.910553	0.093791	0.616808
	H79	H	0.912575	0.901714	0.384144
	H80	H	0.618565	0.096794	0.902698
	H81	H	0.391218	0.089674	0.086215
	H82	H	0.618438	0.914020	0.092875
	H83	H	0.394343	0.919191	0.917430
	H84	H	0.619415	0.910700	0.091604
	H85	H	0.387008	0.091119	0.094128
	H86	H	0.619095	0.098430	0.905901
	H87	H	0.386909	0.917741	0.896339
	H88	H	0.909879	0.086353	0.614091
	H89	H	0.096797	0.090341	0.385447
	H90	H	0.096791	0.911414	0.615157
	H91	H	0.902491	0.910038	0.383617
	H92	H	0.090375	0.614847	0.911980
	H93	H	0.100991	0.383509	0.096000
	H94	H	0.913422	0.617050	0.090694
	H95	H	0.915708	0.387723	0.915819
	H96	H	0.409594	0.120821	0.590054
	H97	H	0.584426	0.889697	0.592633
	H98	H	0.597810	0.121600	0.398922
	H99	H	0.418820	0.889577	0.412083
	H100	H	0.594031	0.406829	0.116128
	H101	H	0.595438	0.594159	0.885076
	H102	H	0.415043	0.594447	0.114538
	H103	H	0.408948	0.418953	0.887900
	H104	H	0.118518	0.593663	0.411129
	H105	H	0.888973	0.588818	0.593242
	H106	H	0.117758	0.411553	0.594452
	H107	H	0.886750	0.407692	0.407303
	H108	H	0.911922	0.617517	0.094091
	H109	H	0.090576	0.384852	0.097841
	H110	H	0.096599	0.615754	0.913114
	H111	H	0.906658	0.385227	0.912678
	H112	H	0.094129	0.912931	0.613476
	H113	H	0.091323	0.091983	0.387100
	H114	H	0.916028	0.089821	0.612977
	H115	H	0.914316	0.914441	0.387825
	H116	H	0.618318	0.095397	0.905747
	H117	H	0.386509	0.097419	0.088096
	H118	H	0.618062	0.913367	0.088853
	H119	H	0.385217	0.899265	0.909477
	C120	C	0.382392	0.011611	0.619069
	C121	C	0.623915	0.994418	0.619968
	C122	C	0.624627	0.010291	0.377388
	C123	C	0.382016	0.993824	0.376713
	C124	C	0.624572	0.381135	0.008258
	C125	C	0.626501	0.624544	0.991020
	C126	C	0.382119	0.623852	0.007840
	C127	C	0.381602	0.380842	0.992736
	C128	C	0.011145	0.621437	0.380307
	C129	C	0.994873	0.621905	0.623557
	C130	C	0.011598	0.378259	0.623679
	C131	C	0.994675	0.379795	0.379438
	C132	C	0.882700	0.509624	0.122827
	C133	C	0.125560	0.492489	0.124057
	C134	C	0.124084	0.508829	0.881265
	C135	C	0.882365	0.492982	0.880573
	C136	C	0.124475	0.880177	0.507941
	C137	C	0.125872	0.123362	0.491880
	C138	C	0.881752	0.121485	0.508058
	C139	C	0.879673	0.878388	0.491750
	C140	C	0.511540	0.126713	0.875539
	C141	C	0.494949	0.123676	0.119549
	C142	C	0.511820	0.881447	0.120348
	C143	C	0.495544	0.882180	0.877211
	C144	C	0.381207	0.890222	0.678667
	C145	C	0.624626	0.117395	0.675367
	C146	C	0.623292	0.888119	0.320567
	C147	C	0.383151	0.116340	0.319465
	C148	C	0.681831	0.382711	0.887302
	C149	C	0.683041	0.624190	0.112967
	C150	C	0.323206	0.623650	0.887403
	C151	C	0.325793	0.379661	0.114429
	C152	C	0.888730	0.677101	0.381967
	C153	C	0.116206	0.680945	0.623674
	C154	C	0.889491	0.321169	0.622074
	C155	C	0.116679	0.323604	0.381778
	C156	C	0.890076	0.377560	0.680961
	C157	C	0.116543	0.622839	0.681051
	C158	C	0.889917	0.620837	0.322447
	C159	C	0.116459	0.379868	0.322991
	C160	C	0.383228	0.679976	0.885735
	C161	C	0.625280	0.681848	0.112564
	C162	C	0.622373	0.327002	0.885503
	C163	C	0.383768	0.322324	0.113658
	C164	C	0.679483	0.887456	0.379450
	C165	C	0.682410	0.116568	0.618356
	C166	C	0.325085	0.888822	0.620252
	C167	C	0.325301	0.116000	0.376834
	C168	C	0.882970	0.386651	0.179407
	C169	C	0.125516	0.614739	0.180703
	C170	C	0.124967	0.386900	0.823877
	C171	C	0.882053	0.614217	0.821261
	C172	C	0.181935	0.879212	0.386959
	C173	C	0.185462	0.123909	0.612002
	C174	C	0.824374	0.122271	0.386764
	C175	C	0.821525	0.878087	0.612684
	C176	C	0.389526	0.182533	0.877230
	C177	C	0.617301	0.180695	0.118015
	C178	C	0.390415	0.822871	0.119474
	C179	C	0.617185	0.825342	0.877554
	C180	C	0.390353	0.880434	0.177425
	C181	C	0.616578	0.125076	0.177497
	C182	C	0.390360	0.127118	0.817560
	C183	C	0.616689	0.883782	0.820125
	C184	C	0.882625	0.179537	0.386913
	C185	C	0.125726	0.179763	0.613395
	C186	C	0.123068	0.822205	0.387047
	C187	C	0.880768	0.821670	0.613835
	C188	C	0.181243	0.386797	0.882703
	C189	C	0.183517	0.614650	0.124178
	C190	C	0.824347	0.387766	0.122783
	C191	C	0.825614	0.614806	0.879820
	C192	C	0.406482	0.096571	0.594245
	C193	C	0.599389	0.909336	0.597647
	C194	C	0.601938	0.096002	0.400288
	C195	C	0.405309	0.908540	0.400179
	C196	C	0.601096	0.403907	0.092943
	C197	C	0.603514	0.601189	0.906332
	C198	C	0.406251	0.600687	0.092744
	C199	C	0.403753	0.405299	0.908009
	C200	C	0.095754	0.598139	0.404164
	C201	C	0.910738	0.597111	0.599556
	C202	C	0.096140	0.402456	0.600546
	C203	C	0.909982	0.402976	0.402192
	C204	C	0.906728	0.594981	0.099428
	C205	C	0.102142	0.407349	0.100770
	C206	C	0.100337	0.593724	0.904364
	C207	C	0.905684	0.407751	0.904943
	C208	C	0.101475	0.904219	0.592390
	C209	C	0.101381	0.099627	0.407502
	C210	C	0.905302	0.096967	0.592682
	C211	C	0.903117	0.901942	0.407201
	C212	C	0.596538	0.103571	0.898265
	C213	C	0.410469	0.099657	0.096315
	C214	C	0.596586	0.905614	0.097599
	C215	C	0.410768	0.905330	0.900869
	Zn216	Zn	0.502578	0.004297	0.748029
	Zn217	Zn	0.503673	0.002725	0.249018
	Zn218	Zn	0.754157	0.501973	0.001383
	Zn219	Zn	0.252578	0.501844	0.002250
	Zn220	Zn	0.002750	0.750718	0.501511
	Zn221	Zn	0.002723	0.250888	0.501228
	Zn222	Zn	0.003708	0.500174	0.752236
	Zn223	Zn	0.003731	0.500649	0.250753
	Zn224	Zn	0.504488	0.752855	-0.001526
	Zn225	Zn	0.503172	0.252756	-0.001545
	Zn226	Zn	0.752243	0.000860	0.499314
	Zn227	Zn	0.254316	0.001535	0.498726
	N228	N	0.416109	0.967410	0.678059
	N229	N	0.589014	0.040472	0.676661
	N230	N	0.589931	0.965662	0.319382
	N231	N	0.417593	0.039199	0.319168
	N232	N	0.683262	0.415570	0.964501
	N233	N	0.683913	0.589292	0.036528
	N234	N	0.322263	0.589940	0.964628
	N235	N	0.324354	0.415288	0.038162
	N236	N	0.965199	0.677419	0.417466
	N237	N	0.039646	0.680715	0.588742
	N238	N	0.966196	0.321184	0.587420
	N239	N	0.039955	0.323221	0.416231
	N240	N	0.966938	0.412239	0.682313
	N241	N	0.039994	0.586890	0.681225
	N242	N	0.966919	0.587061	0.321281
	N243	N	0.039567	0.413940	0.321382
	N244	N	0.419100	0.680209	0.961854
	N245	N	0.590938	0.682245	0.035756
	N246	N	0.587532	0.325805	0.961900
	N247	N	0.417779	0.323058	0.036964
	N248	N	0.680418	0.964667	0.413823
	N249	N	0.682276	0.039072	0.584806
	N250	N	0.325817	0.965368	0.583969
	N251	N	0.324391	0.038788	0.411590
	N252	N	0.918644	0.463446	0.179323
	N253	N	0.090524	0.537631	0.180994
	N254	N	0.090045	0.463674	0.822900
	N255	N	0.916785	0.537217	0.821617
	N256	N	0.182757	0.914592	0.463126
	N257	N	0.185547	0.089727	0.535352
	N258	N	0.823776	0.086806	0.463249
	N259	N	0.820864	0.912589	0.535834
	N260	N	0.465752	0.182327	0.912418
	N261	N	0.540925	0.179922	0.082543
	N262	N	0.466937	0.823460	0.084601
	N263	N	0.540675	0.824410	0.912395
	N264	N	0.466830	0.916152	0.178139
	N265	N	0.539691	0.090223	0.178647
	N266	N	0.467331	0.093060	0.816318
	N267	N	0.539972	0.918316	0.819738
	N268	N	0.917528	0.179118	0.463363
	N269	N	0.089321	0.179679	0.537444
	N270	N	0.087989	0.822637	0.463276
	N271	N	0.915966	0.821479	0.537588
	N272	N	0.180921	0.463633	0.917603
	N273	N	0.183704	0.537615	0.089673
	N274	N	0.823753	0.465305	0.088684
	N275	N	0.825729	0.538365	0.915962
	O276	O	-0.007517	0.098640	0.082016
	H277	H	-0.003335	0.092927	0.072129
	H278	H	0.016857	0.110830	0.093069
	O279	O	0.024237	0.015885	0.071351
	H280	H	0.028776	0.013768	0.068923
	H281	H	0.009243	0.016563	0.063060
	O282	O	1.111020	-0.088612	-0.147467
	H283	H	1.122828	-0.093346	-0.167321
	H284	H	1.106732	-0.081742	-0.150849
	O285	O	-0.086663	0.920519	0.081214
	H286	H	-0.083271	0.914977	0.079960
	H287	H	-0.085973	0.927283	0.093949
	O288	O	0.512716	0.446942	0.491024
	H289	H	0.513014	0.446057	0.490423
	H290	H	0.514898	0.445809	0.475777
	O291	O	0.551275	0.471423	0.462692
	H292	H	0.539399	0.477070	0.453046
	H293	H	0.549429	0.463858	0.479020
	O294	O	1.095871	1.074246	0.988613
	H295	H	1.099055	1.073584	0.998159
	H296	H	1.091726	1.077422	0.987059
	O297	O	0.021818	0.168450	-0.015577
	H298	H	0.016931	0.177062	0.000121
	H299	H	0.031005	0.180648	-0.004460
	O300	O	0.368544	0.484217	0.550488
	H301	H	0.365424	0.488388	0.558224
	H302	H	0.377589	0.485444	0.549421
	O303	O	0.054117	0.887017	0.963505
	H304	H	0.058179	0.886735	0.952272
	H305	H	0.059538	0.879751	0.956429
	O306	O	0.454331	0.506679	0.486462
	H307	H	0.456858	0.499565	0.494254
	H308	H	0.446211	0.502030	0.489005
	O309	O	0.903599	0.012140	0.002890
	H310	H	0.902963	0.014171	0.012045
	H311	H	0.892030	0.018347	-0.008895
	O312	O	0.003489	-0.005101	0.979860
	H313	H	0.002712	-0.007577	0.977606
	H314	H	-0.012895	-0.013356	0.989023
	O315	O	0.120379	0.877598	0.983623
	H316	H	0.100672	0.870208	0.979422
	H317	H	0.117819	0.899207	0.979842
	O318	O	0.483986	0.441835	0.423368
	H319	H	0.482768	0.437834	0.412665
	H320	H	0.477926	0.445125	0.417525
	O321	O	0.490498	0.437540	0.420126
	H322	H	0.484577	0.433437	0.426091
	H323	H	0.492101	0.434446	0.419421
	O324	O	0.436878	0.632720	0.384228
	H325	H	0.445654	0.639206	0.382913
	H326	H	0.428552	0.635170	0.389703
	O327	O	-0.432925	1.600992	1.554653
	H328	H	-0.427678	1.596835	1.554509
	H329	H	-0.430914	1.602681	1.560637
	O330	O	0.523556	0.450796	0.501793
	H331	H	0.523267	0.459173	0.504447
	H332	H	0.545283	0.442406	0.495857
	O333	O	-0.166613	0.907353	1.067871
	H334	H	-0.175048	0.909404	1.081977
	H335	H	-0.164028	0.901976	1.069445
	O336	O	1.016347	1.065446	0.973662
	H337	H	1.006893	1.075235	0.974282
	H338	H	1.031070	1.072529	0.974503
	O339	O	0.697730	0.784774	0.361910
	H340	H	0.714399	0.783148	0.360594
	H341	H	0.696646	0.779935	0.375140
	O342	O	0.938659	-0.031074	-0.163668
	H343	H	0.949123	-0.021456	-0.172378
	H344	H	0.938935	-0.028061	-0.148754
	O345	O	0.535898	0.656786	0.516279
	H346	H	0.539725	0.661677	0.522039
	H347	H	0.545716	0.656531	0.520618
	O348	O	0.342316	0.549640	0.492769
	H349	H	0.347768	0.550859	0.497238
	H350	H	0.337218	0.554565	0.488352
	O351	O	1.103664	0.854336	-0.022601
	H352	H	1.115542	0.841065	-0.027595
	H353	H	1.088884	0.857852	-0.023274
	O354	O	0.958249	0.163386	1.022284
	H355	H	0.965164	0.165112	1.015067
	H356	H	0.960294	0.146632	1.012387
	O357	O	0.524792	0.436810	0.600307
	H358	H	0.532377	0.451679	0.599683
	H359	H	0.522709	0.431447	0.606771
	O360	O	0.131144	0.031770	-0.141904
	H361	H	0.133207	0.042329	-0.122374
	H362	H	0.135808	0.027943	-0.141601
	O363	O	0.545542	0.490456	0.417894
	H364	H	0.528397	0.498892	0.419416
	H365	H	0.553071	0.487029	0.424332
	O366	O	0.541531	0.578240	0.616414
	H367	H	0.538094	0.581577	0.618110
	H368	H	0.553342	0.574482	0.617187
	O369	O	0.990294	-0.038040	0.083226
	H370	H	1.003521	-0.047834	0.095923
	H371	H	1.009473	-0.039748	0.084108
	O372	O	0.422425	0.505900	0.423467
	H373	H	0.431935	0.513235	0.416167
	H374	H	0.418965	0.513780	0.415324
	O375	O	0.423350	0.509807	0.438642
	H376	H	0.429429	0.513897	0.441358
	H377	H	0.414986	0.516642	0.443147
	O378	O	0.549037	0.362703	0.539957
	H379	H	0.538466	0.349744	0.545484
	H380	H	0.538380	0.362936	0.531742
	O381	O	0.581006	0.506536	0.565053
	H382	H	0.576426	0.512080	0.570017
	H383	H	0.589651	0.510119	0.555651
	O384	O	0.045588	0.873664	-0.075024
	H385	H	0.033777	0.880826	-0.068539
	H386	H	0.033766	0.867428	-0.088049
	O387	O	1.004827	0.127672	1.072695
	H388	H	0.994550	0.121846	1.065676
	H389	H	1.002413	0.114891	1.061761
	O390	O	-0.074215	0.861664	-0.010543
	H391	H	-0.080657	0.848498	-0.007041
	H392	H	-0.085764	0.873260	-0.003831
	O393	O	1.140241	0.959584	0.149942
	H394	H	1.150288	0.957635	0.142236
	H395	H	1.142626	0.963456	0.143269
	O396	O	0.632077	0.584781	0.488631
	H397	H	0.623424	0.580014	0.478948
	H398	H	0.632239	0.583569	0.476433
	O399	O	-0.141011	0.999507	0.903114
	H400	H	-0.138839	0.995646	0.907881
	H401	H	-0.139896	0.978237	0.902629
	O402	O	0.968359	1.158882	1.034020
	H403	H	0.983425	1.168913	1.043674
	H404	H	0.964716	1.158074	1.026852
	O405	O	0.403719	0.459214	0.462527
	H406	H	0.406859	0.468411	0.478648
	H407	H	0.387698	0.454766	0.459068
