data_Molecule from HDF5

_cell_length_a		16.445015
_cell_length_b		16.170457
_cell_length_c		16.235995
_cell_angle_alpha	90.075724
_cell_angle_beta	90.041053
_cell_angle_gamma	90.644669
_symmetry_space_group_name_H-M	'P 1'
_symmetry_Int_Tables_number		1

loop_
	_symmetry_equiv_pos_as_xyz
	x,y,z

loop_
	_atom_site_label
	_atom_site_type_symbol
	_atom_site_fract_x
	_atom_site_fract_y
	_atom_site_fract_z
	H0	H	0.408738	0.850114	0.704804
	H1	H	0.612115	0.177974	0.706917
	H2	H	0.603697	0.848383	0.278331
	H3	H	0.413645	0.178643	0.275827
	H4	H	0.728252	0.412587	0.831620
	H5	H	0.726019	0.617780	0.155475
	H6	H	0.290711	0.617085	0.831150
	H7	H	0.291152	0.410529	0.154209
	H8	H	0.844518	0.725684	0.396442
	H9	H	0.169193	0.735998	0.592322
	H10	H	0.849372	0.295059	0.593132
	H11	H	0.171399	0.300265	0.390843
	H12	H	0.849248	0.410790	0.710620
	H13	H	0.171190	0.618793	0.709337
	H14	H	0.846743	0.612666	0.276704
	H15	H	0.170975	0.416975	0.275659
	H16	H	0.414483	0.723597	0.826042
	H17	H	0.607289	0.729769	0.156033
	H18	H	0.606663	0.303725	0.827401
	H19	H	0.410182	0.298264	0.154978
	H20	H	0.722449	0.849642	0.389729
	H21	H	0.728085	0.176789	0.592125
	H22	H	0.289174	0.852415	0.593104
	H23	H	0.294039	0.177464	0.386908
	H24	H	0.909467	0.350841	0.207069
	H25	H	0.109256	0.680181	0.205990
	H26	H	0.108742	0.351951	0.776120
	H27	H	0.910925	0.678786	0.777981
	H28	H	0.225163	0.911906	0.328243
	H29	H	0.233001	0.123017	0.651153
	H30	H	0.792429	0.115139	0.327714
	H31	H	0.790887	0.911604	0.653383
	H32	H	0.348688	0.230325	0.888836
	H33	H	0.670811	0.234482	0.092664
	H34	H	0.347646	0.795843	0.089632
	H35	H	0.672781	0.801133	0.892959
	H36	H	0.347674	0.910606	0.207354
	H37	H	0.671425	0.115790	0.207813
	H38	H	0.349089	0.113337	0.772921
	H39	H	0.671648	0.916027	0.774912
	H40	H	0.912573	0.228682	0.326787
	H41	H	0.110366	0.230634	0.654613
	H42	H	0.103760	0.801196	0.327883
	H43	H	0.910391	0.802567	0.656615
	H44	H	0.226036	0.352968	0.889134
	H45	H	0.229906	0.677533	0.097656
	H46	H	0.789195	0.353742	0.096903
	H47	H	0.794232	0.677939	0.891153
	H48	H	0.421458	0.131834	0.584371
	H49	H	0.600037	0.897894	0.582093
	H50	H	0.601287	0.132986	0.390407
	H51	H	0.419163	0.900462	0.404462
	H52	H	0.600651	0.424788	0.108531
	H53	H	0.606253	0.600966	0.877234
	H54	H	0.426796	0.606513	0.106759
	H55	H	0.419691	0.425914	0.878790
	H56	H	0.126777	0.612543	0.394521
	H57	H	0.899271	0.595487	0.582531
	H58	H	0.123276	0.427735	0.583891
	H59	H	0.893468	0.421324	0.393432
	H60	H	0.125513	0.424478	0.587896
	H61	H	0.889978	0.607254	0.600398
	H62	H	0.122699	0.613904	0.405867
	H63	H	0.894688	0.416465	0.404977
	H64	H	0.413494	0.610796	0.111970
	H65	H	0.599895	0.608681	0.876219
	H66	H	0.600731	0.426290	0.108951
	H67	H	0.415851	0.419381	0.874402
	H68	H	0.597181	0.127003	0.405059
	H69	H	0.601244	0.896367	0.581811
	H70	H	0.422252	0.130103	0.578129
	H71	H	0.407753	0.896443	0.400893
	H72	H	0.915218	0.634611	0.087288
	H73	H	0.101548	0.398750	0.081475
	H74	H	0.105214	0.629716	0.911958
	H75	H	0.910702	0.394428	0.897974
	H76	H	0.106329	0.930353	0.607679
	H77	H	0.104298	0.107424	0.374684
	H78	H	0.923694	0.110922	0.606308
	H79	H	0.908377	0.920810	0.372479
	H80	H	0.622990	0.107333	0.903560
	H81	H	0.399679	0.096837	0.075285
	H82	H	0.619687	0.933378	0.080224
	H83	H	0.392553	0.918369	0.889703
	H84	H	0.627706	0.921349	0.094415
	H85	H	0.393706	0.101504	0.091940
	H86	H	0.624586	0.104483	0.894643
	H87	H	0.394847	0.912872	0.902017
	H88	H	0.908148	0.103838	0.608594
	H89	H	0.101344	0.103698	0.375635
	H90	H	0.095655	0.931295	0.604097
	H91	H	0.916353	0.925518	0.375651
	H92	H	0.107767	0.635149	0.897620
	H93	H	0.100352	0.397009	0.087217
	H94	H	0.920724	0.631631	0.086556
	H95	H	0.925180	0.400744	0.899803
	H96	H	0.417057	0.131398	0.579984
	H97	H	0.600328	0.896844	0.582512
	H98	H	0.611906	0.132657	0.402088
	H99	H	0.416911	0.895366	0.392578
	H100	H	0.599783	0.425378	0.108132
	H101	H	0.608349	0.610208	0.872630
	H102	H	0.415299	0.596602	0.106859
	H103	H	0.411605	0.426989	0.874680
	H104	H	0.121232	0.602887	0.400460
	H105	H	0.892297	0.617327	0.579433
	H106	H	0.124834	0.422155	0.582573
	H107	H	0.898199	0.428678	0.403261
	H108	H	0.917368	0.632220	0.081884
	H109	H	0.096501	0.400070	0.083555
	H110	H	0.094706	0.629355	0.901254
	H111	H	0.914881	0.401483	0.911856
	H112	H	0.099302	0.921677	0.607778
	H113	H	0.099743	0.107873	0.374913
	H114	H	0.921585	0.093860	0.602108
	H115	H	0.915930	0.915879	0.373232
	H116	H	0.626429	0.113486	0.896930
	H117	H	0.394205	0.113765	0.078167
	H118	H	0.624872	0.913817	0.075285
	H119	H	0.396932	0.925793	0.899690
	C120	C	0.388572	0.023328	0.611451
	C121	C	0.631095	1.005273	0.611876
	C122	C	0.630739	0.022111	0.369762
	C123	C	0.387529	1.005845	0.368927
	C124	C	0.630359	0.395351	0.000835
	C125	C	0.633203	0.637277	0.983198
	C126	C	0.389734	0.633762	0.000303
	C127	C	0.386596	0.392889	0.983203
	C128	C	0.016303	0.637341	0.371457
	C129	C	1.000045	0.638360	0.616437
	C130	C	0.018340	0.393300	0.614738
	C131	C	1.001796	0.393549	0.370411
	C132	C	0.887950	0.524430	0.114908
	C133	C	0.130909	0.506530	0.114223
	C134	C	0.131028	0.523859	0.872591
	C135	C	0.888659	0.507026	0.872910
	C136	C	0.129045	0.896344	0.499167
	C137	C	0.132640	0.137373	0.482313
	C138	C	0.888456	0.134251	0.498554
	C139	C	0.885428	0.892103	0.482530
	C140	C	0.518409	0.137226	0.868069
	C141	C	0.502020	0.135603	0.112516
	C142	C	0.517488	0.891847	0.112765
	C143	C	0.501905	0.891552	0.868436
	C144	C	0.388659	0.899633	0.667110
	C145	C	0.631159	0.128827	0.668286
	C146	C	0.626122	0.898152	0.314450
	C147	C	0.391716	0.129334	0.312972
	C148	C	0.688149	0.394563	0.879118
	C149	C	0.688251	0.637178	0.106511
	C150	C	0.331426	0.634618	0.878647
	C151	C	0.329783	0.391673	0.105747
	C152	C	0.893656	0.689518	0.374941
	C153	C	0.121649	0.696512	0.613217
	C154	C	0.897399	0.334082	0.613494
	C155	C	0.122936	0.338044	0.371293
	C156	C	0.897309	0.392073	0.671591
	C157	C	0.122314	0.638782	0.671643
	C158	C	0.894759	0.633187	0.315489
	C159	C	0.122809	0.396090	0.313842
	C160	C	0.392946	0.687882	0.876149
	C161	C	0.629457	0.692961	0.106625
	C162	C	0.627914	0.340137	0.877232
	C163	C	0.388978	0.335849	0.105956
	C164	C	0.684591	0.898461	0.370575
	C165	C	0.689067	0.128193	0.611519
	C166	C	0.329274	0.900835	0.611592
	C167	C	0.332343	0.128770	0.368162
	C168	C	0.889067	0.400576	0.170080
	C169	C	0.129779	0.630604	0.169128
	C170	C	0.129059	0.400976	0.814512
	C171	C	0.890930	0.629813	0.816063
	C172	C	0.185497	0.894707	0.376809
	C173	C	0.192107	0.139829	0.603307
	C174	C	0.831908	0.134238	0.376146
	C175	C	0.829109	0.892594	0.605023
	C176	C	0.397015	0.192390	0.869062
	C177	C	0.622798	0.194638	0.112083
	C178	C	0.395950	0.834539	0.110295
	C179	C	0.623747	0.837669	0.871339
	C180	C	0.395923	0.891902	0.168634
	C181	C	0.622990	0.135730	0.169407
	C182	C	0.397210	0.134095	0.811330
	C183	C	0.623444	0.895376	0.813159
	C184	C	0.891363	0.190829	0.375865
	C185	C	0.131197	0.193632	0.605265
	C186	C	0.125512	0.839319	0.376465
	C187	C	0.888756	0.838372	0.606632
	C188	C	0.187123	0.401384	0.871068
	C189	C	0.189736	0.629063	0.114874
	C190	C	0.829203	0.401989	0.115415
	C191	C	0.833045	0.629639	0.872752
	C192	C	0.413038	0.108788	0.587585
	C193	C	0.607310	0.919397	0.588839
	C194	C	0.609765	0.108454	0.392584
	C195	C	0.408493	0.919724	0.392450
	C196	C	0.607261	0.418852	0.086248
	C197	C	0.611415	0.613559	0.897610
	C198	C	0.412152	0.611241	0.085962
	C199	C	0.409075	0.416942	0.898140
	C200	C	0.101604	0.616065	0.393727
	C201	C	0.915825	0.613941	0.594039
	C202	C	0.102604	0.417666	0.591680
	C203	C	0.917153	0.415767	0.393939
	C204	C	0.911136	0.610612	0.092061
	C205	C	0.106611	0.420761	0.090857
	C206	C	0.108857	0.609402	0.896631
	C207	C	0.910419	0.421293	0.896402
	C208	C	0.106668	0.920641	0.584343
	C209	C	0.108845	0.113194	0.397154
	C210	C	0.911223	0.110095	0.583797
	C211	C	0.907249	0.914186	0.396171
	C212	C	0.602742	0.115210	0.891588
	C213	C	0.417781	0.111122	0.088707
	C214	C	0.602189	0.915854	0.090161
	C215	C	0.416880	0.912785	0.890559
	Zn216	Zn	0.509962	0.014102	0.739357
	Zn217	Zn	0.509187	0.013413	0.241973
	Zn218	Zn	0.760171	0.515506	-0.006755
	Zn219	Zn	0.259012	0.514607	-0.006509
	Zn220	Zn	0.007388	0.766644	0.492395
	Zn221	Zn	0.009924	0.264132	0.491712
	Zn222	Zn	0.009785	0.515350	0.744776
	Zn223	Zn	0.010071	0.515629	0.241863
	Zn224	Zn	0.509782	0.762633	-0.009121
	Zn225	Zn	0.509464	0.266313	-0.009106
	Zn226	Zn	0.758556	0.013015	0.490478
	Zn227	Zn	0.260120	0.015628	0.490436
	N228	N	0.424757	0.976731	0.667159
	N229	N	0.595730	0.051423	0.668552
	N230	N	0.593351	0.975995	0.313793
	N231	N	0.424924	0.051625	0.313049
	N232	N	0.689802	0.428133	0.956971
	N233	N	0.690978	0.603506	0.028619
	N234	N	0.329304	0.601742	0.956732
	N235	N	0.327819	0.425923	0.028315
	N236	N	0.970249	0.692014	0.409103
	N237	N	0.044749	0.696880	0.579823
	N238	N	0.973728	0.334516	0.579041
	N239	N	0.046468	0.336240	0.405619
	N240	N	0.973378	0.428003	0.672692
	N241	N	0.045899	0.603350	0.673813
	N242	N	0.972222	0.601693	0.313116
	N243	N	0.046505	0.429943	0.313288
	N244	N	0.428653	0.687258	0.952855
	N245	N	0.596029	0.693415	0.029077
	N246	N	0.592448	0.340646	0.953946
	N247	N	0.423293	0.336166	0.028906
	N248	N	0.687514	0.976600	0.404121
	N249	N	0.689176	0.050358	0.577269
	N250	N	0.329037	0.978895	0.577929
	N251	N	0.329896	0.051105	0.402509
	N252	N	0.924976	0.477843	0.169692
	N253	N	0.093689	0.553540	0.168855
	N254	N	0.094794	0.478136	0.815475
	N255	N	0.924834	0.552509	0.816184
	N256	N	0.187978	0.929234	0.454155
	N257	N	0.192794	0.105356	0.525951
	N258	N	0.830033	0.099711	0.453469
	N259	N	0.826946	0.925135	0.526766
	N260	N	0.473299	0.194569	0.903691
	N261	N	0.546545	0.194663	0.077303
	N262	N	0.472416	0.834717	0.075923
	N263	N	0.547200	0.835358	0.905315
	N264	N	0.472500	0.926927	0.170076
	N265	N	0.546909	0.099683	0.169806
	N266	N	0.473669	0.100570	0.810558
	N267	N	0.546402	0.927858	0.811030
	N268	N	0.926121	0.190559	0.452984
	N269	N	0.094759	0.192164	0.528986
	N270	N	0.090765	0.840359	0.453533
	N271	N	0.922954	0.837865	0.529317
	N272	N	0.188450	0.478575	0.906580
	N273	N	0.190547	0.550685	0.081611
	N274	N	0.828416	0.479981	0.081724
	N275	N	0.831646	0.552316	0.907801
	O276	O	0.031282	0.046389	0.875600
	H277	H	0.040730	0.036425	0.877508
	H278	H	0.051288	0.052693	0.881433
	O279	O	1.115787	-0.093817	0.818808
	H280	H	1.104343	-0.104113	0.819856
	H281	H	1.112946	-0.086071	0.814240
	O282	O	1.175927	1.089494	0.067688
	H283	H	1.179535	1.099364	0.081714
	H284	H	1.162988	1.073808	0.087903
	O285	O	1.020794	-0.027630	1.077140
	H286	H	1.025512	-0.031344	1.064119
	H287	H	1.013555	-0.038176	1.076327
	O288	O	0.563490	0.512128	0.508159
	H289	H	0.558226	0.523260	0.500781
	H290	H	0.569869	0.504824	0.510805
	O291	O	0.484918	0.485164	0.426786
	H292	H	0.475630	0.490708	0.434496
	H293	H	0.482012	0.483165	0.425310
	O294	O	0.533686	0.544208	0.472173
	H295	H	0.526112	0.535224	0.462136
	H296	H	0.542632	0.538173	0.477907
	O297	O	-0.054864	-0.021126	1.042891
	H298	H	-0.057271	-0.020645	1.036044
	H299	H	-0.062615	-0.010562	1.054194
	O300	O	0.066286	-0.029439	-0.009256
	H301	H	0.078695	-0.025314	-0.016952
	H302	H	0.061462	-0.033262	-0.003653
	O303	O	0.495028	0.553148	0.488895
	H304	H	0.491682	0.542195	0.494200
	H305	H	0.487918	0.549483	0.484665
	O306	O	-0.043383	0.945313	0.998547
	H307	H	-0.059860	0.937880	1.008581
	H308	H	-0.034995	0.946441	1.007505
	O309	O	0.426910	0.495877	0.525924
	H310	H	0.424904	0.498046	0.527935
	H311	H	0.433591	0.500847	0.524120
	O312	O	-0.600379	0.449426	0.598468
	H313	H	-0.598872	0.455128	0.612125
	H314	H	-0.599861	0.445985	0.596107
	O315	O	0.831127	-0.125503	-0.250331
	H316	H	0.835402	-0.129053	-0.253783
	H317	H	0.834279	-0.113992	-0.250945
	O318	O	0.830479	1.043519	0.915557
	H319	H	0.819000	1.033849	0.919174
	H320	H	0.836005	1.045170	0.925379
	O321	O	-0.067618	-0.038691	0.967850
	H322	H	-0.075074	-0.043581	0.973225
	H323	H	-0.076510	-0.040318	0.968242
	O324	O	0.493817	0.522679	0.480952
	H325	H	0.499391	0.516636	0.492863
	H326	H	0.506062	0.514796	0.490808
	O327	O	-0.070469	0.038604	-0.050023
	H328	H	-0.077207	0.039701	-0.050387
	H329	H	-0.066228	0.041438	-0.053758
	O330	O	0.957882	1.084426	0.006307
	H331	H	0.961597	1.084565	0.006165
	H332	H	0.959324	1.089196	0.013787
	O333	O	-0.007723	1.147968	0.949940
	H334	H	0.004715	1.151896	0.947605
	H335	H	-0.007705	1.146907	0.931295
	O336	O	0.106554	0.000380	0.144452
	H337	H	0.097632	-0.007163	0.139634
	H338	H	0.105858	-0.005130	0.149401
	O339	O	0.518162	0.548358	0.486527
	H340	H	0.516626	0.549565	0.489911
	H341	H	0.520557	0.546752	0.494102
	O342	O	0.983524	0.901611	1.064150
	H343	H	0.979757	0.897409	1.063243
	H344	H	0.986394	0.896692	1.064739
	O345	O	1.208027	1.106096	-0.019980
	H346	H	1.225356	1.129110	-0.022153
	H347	H	1.200516	1.105696	0.000479
	O348	O	0.635999	0.481595	0.513887
	H349	H	0.633191	0.476521	0.511916
	H350	H	0.638554	0.486913	0.530892
	O351	O	1.085794	-0.048801	-0.014267
	H352	H	1.085579	-0.052615	-0.019664
	H353	H	1.094452	-0.057108	-0.016241
	O354	O	0.496978	0.445676	0.564513
	H355	H	0.491774	0.446574	0.568894
	H356	H	0.499194	0.434707	0.569918
	O357	O	0.498296	0.486646	1.557129
	H358	H	0.494708	0.482289	1.539747
	H359	H	0.500451	0.483565	1.558481
	O360	O	-0.057761	0.050306	0.069763
	H361	H	-0.077411	0.061368	0.065511
	H362	H	-0.047834	0.050679	0.065651
	O363	O	0.475810	0.513607	0.435959
	H364	H	0.476075	0.522156	0.430161
	H365	H	0.469967	0.511326	0.426168
	O366	O	0.919284	1.171024	0.911961
	H367	H	0.915168	1.167254	0.908929
	H368	H	0.925584	1.187522	0.890118
	O369	O	1.009357	-0.001460	0.913592
	H370	H	1.010246	-0.004082	0.912396
	H371	H	1.010775	0.008564	0.923581
	O372	O	0.087841	0.116700	0.129463
	H373	H	0.087254	0.121985	0.130041
	H374	H	0.081532	0.117479	0.130213
	O375	O	0.461715	-0.445506	0.467060
	H376	H	0.460271	-0.455331	0.468724
	H377	H	0.457977	-0.445646	0.463978
	O378	O	1.141726	-0.014533	0.937256
	H379	H	1.135184	-0.014523	0.932698
	H380	H	1.140322	-0.020463	0.934247
	O381	O	0.416171	0.449804	0.592233
	H382	H	0.407428	0.467702	0.593261
	H383	H	0.413378	0.450561	0.595550
