data_Molecule from HDF5

_cell_length_a		16.452224
_cell_length_b		16.303941
_cell_length_c		16.141057
_cell_angle_alpha	90.148019
_cell_angle_beta	89.831713
_cell_angle_gamma	90.060707
_symmetry_space_group_name_H-M	'P 1'
_symmetry_Int_Tables_number		1

loop_
	_symmetry_equiv_pos_as_xyz
	x,y,z

loop_
	_atom_site_label
	_atom_site_type_symbol
	_atom_site_fract_x
	_atom_site_fract_y
	_atom_site_fract_z
	H0	H	0.405143	0.835013	0.711927
	H1	H	0.599731	0.163763	0.711532
	H2	H	0.600271	0.835862	0.284805
	H3	H	0.407872	0.163618	0.285348
	H4	H	0.719284	0.398233	0.835843
	H5	H	0.718420	0.600465	0.163115
	H6	H	0.287459	0.600785	0.835528
	H7	H	0.285692	0.397175	0.162785
	H8	H	0.840461	0.714969	0.400112
	H9	H	0.163237	0.718126	0.599576
	H10	H	0.840931	0.282892	0.599297
	H11	H	0.164074	0.281761	0.396212
	H12	H	0.839804	0.401613	0.714281
	H13	H	0.164807	0.599098	0.714531
	H14	H	0.839403	0.595148	0.286446
	H15	H	0.164938	0.402861	0.283414
	H16	H	0.405779	0.712820	0.833988
	H17	H	0.600395	0.712768	0.163912
	H18	H	0.602508	0.284776	0.835126
	H19	H	0.404838	0.286103	0.164168
	H20	H	0.719136	0.837174	0.396881
	H21	H	0.720368	0.162051	0.600109
	H22	H	0.283892	0.837985	0.600961
	H23	H	0.286520	0.162079	0.396790
	H24	H	0.905310	0.335277	0.211916
	H25	H	0.099514	0.663069	0.212642
	H26	H	0.100708	0.335634	0.783137
	H27	H	0.908183	0.663726	0.788755
	H28	H	0.217645	0.899226	0.334808
	H29	H	0.218894	0.102528	0.662707
	H30	H	0.789937	0.098702	0.334241
	H31	H	0.786047	0.898750	0.662319
	H32	H	0.341269	0.217283	0.897733
	H33	H	0.664703	0.216270	0.098245
	H34	H	0.341448	0.783243	0.098542
	H35	H	0.665213	0.783357	0.898244
	H36	H	0.340875	0.901928	0.214207
	H37	H	0.666791	0.096477	0.211592
	H38	H	0.340741	0.096977	0.784424
	H39	H	0.666435	0.903021	0.784198
	H40	H	0.906454	0.212333	0.334341
	H41	H	0.099748	0.214351	0.663642
	H42	H	0.100328	0.785364	0.334381
	H43	H	0.904194	0.786372	0.663626
	H44	H	0.221748	0.337455	0.894885
	H45	H	0.220414	0.661220	0.101381
	H46	H	0.784050	0.337747	0.101668
	H47	H	0.785863	0.661111	0.897297
	H48	H	0.414010	0.112089	0.584454
	H49	H	0.594410	0.883766	0.591073
	H50	H	0.597021	0.114021	0.413699
	H51	H	0.409373	0.881986	0.402472
	H52	H	0.593782	0.411355	0.115412
	H53	H	0.590987	0.583174	0.885021
	H54	H	0.417014	0.583219	0.112104
	H55	H	0.414572	0.400457	0.880560
	H56	H	0.118226	0.593865	0.406329
	H57	H	0.884593	0.597125	0.598547
	H58	H	0.116380	0.410367	0.591805
	H59	H	0.884538	0.396590	0.403059
	H60	H	0.118530	0.404217	0.592283
	H61	H	0.888266	0.596030	0.587989
	H62	H	0.116637	0.593500	0.407790
	H63	H	0.889519	0.404555	0.415096
	H64	H	0.414158	0.600744	0.117739
	H65	H	0.592944	0.600178	0.879696
	H66	H	0.594329	0.404953	0.117219
	H67	H	0.403308	0.411208	0.881101
	H68	H	0.605299	0.119176	0.404635
	H69	H	0.596861	0.884643	0.587404
	H70	H	0.403228	0.116226	0.589121
	H71	H	0.414630	0.886694	0.409522
	H72	H	0.908992	0.615651	0.091916
	H73	H	0.107333	0.380572	0.088432
	H74	H	0.096350	0.614380	0.909959
	H75	H	0.915079	0.383120	0.900791
	H76	H	0.095506	0.917325	0.614932
	H77	H	0.093066	0.096482	0.381115
	H78	H	0.905461	0.092294	0.618570
	H79	H	0.900243	0.907998	0.378697
	H80	H	0.615258	0.093657	0.914193
	H81	H	0.388490	0.085260	0.096857
	H82	H	0.613922	0.912191	0.084121
	H83	H	0.386300	0.905325	0.899762
	H84	H	0.620063	0.909007	0.100910
	H85	H	0.385197	0.100983	0.096648
	H86	H	0.616341	0.086056	0.901839
	H87	H	0.388122	0.899645	0.910776
	H88	H	0.911209	0.086249	0.614322
	H89	H	0.102228	0.090862	0.379438
	H90	H	0.086851	0.906989	0.613880
	H91	H	0.914959	0.914915	0.385088
	H92	H	0.098320	0.615044	0.907970
	H93	H	0.090663	0.381097	0.100086
	H94	H	0.908885	0.615052	0.091595
	H95	H	0.912709	0.386058	0.915795
	H96	H	0.413036	0.115493	0.596253
	H97	H	0.598265	0.882446	0.591016
	H98	H	0.593068	0.115714	0.401055
	H99	H	0.404717	0.884030	0.411664
	H100	H	0.599096	0.409194	0.117973
	H101	H	0.607178	0.589137	0.879348
	H102	H	0.400376	0.588906	0.118131
	H103	H	0.417559	0.414789	0.886110
	H104	H	0.116463	0.592622	0.406379
	H105	H	0.888741	0.587794	0.594324
	H106	H	0.116022	0.406065	0.586087
	H107	H	0.888282	0.411809	0.401127
	H108	H	0.908644	0.616232	0.091400
	H109	H	0.091054	0.387931	0.080826
	H110	H	0.096110	0.614829	0.907094
	H111	H	0.901177	0.380572	0.907004
	H112	H	0.100207	0.904301	0.618800
	H113	H	0.093721	0.085535	0.384065
	H114	H	0.913937	0.094623	0.616211
	H115	H	0.914437	0.898294	0.379439
	H116	H	0.620666	0.099647	0.902454
	H117	H	0.391193	0.093866	0.083382
	H118	H	0.620187	0.895736	0.088332
	H119	H	0.391508	0.911510	0.910175
	C120	C	0.380557	0.007684	0.620412
	C121	C	0.625025	0.991362	0.619557
	C122	C	0.625821	0.008263	0.377076
	C123	C	0.381392	0.991551	0.377589
	C124	C	0.624625	0.378838	0.008246
	C125	C	0.625296	0.620493	0.990376
	C126	C	0.382215	0.620225	0.007364
	C127	C	0.382273	0.378787	0.990903
	C128	C	0.010109	0.620879	0.378236
	C129	C	0.994307	0.622885	0.622346
	C130	C	0.010163	0.378186	0.620027
	C131	C	0.994318	0.376448	0.376480
	C132	C	0.880460	0.507767	0.120669
	C133	C	0.124741	0.490779	0.119858
	C134	C	0.125717	0.507569	0.877250
	C135	C	0.881576	0.490916	0.878889
	C136	C	0.123326	0.879151	0.507350
	C137	C	0.124338	0.120976	0.490298
	C138	C	0.882300	0.119636	0.507392
	C139	C	0.881157	0.878623	0.490032
	C140	C	0.510754	0.121804	0.877190
	C141	C	0.495466	0.121614	0.120662
	C142	C	0.511417	0.877159	0.120866
	C143	C	0.495438	0.877060	0.877028
	C144	C	0.384041	0.884289	0.674778
	C145	C	0.621392	0.114552	0.674443
	C146	C	0.621678	0.884940	0.322059
	C147	C	0.385684	0.114653	0.322535
	C148	C	0.680811	0.378898	0.884780
	C149	C	0.680202	0.619585	0.114067
	C150	C	0.326276	0.619696	0.884158
	C151	C	0.324951	0.378555	0.114072
	C152	C	0.888325	0.676086	0.380302
	C153	C	0.115496	0.678853	0.619701
	C154	C	0.888915	0.321636	0.619126
	C155	C	0.115955	0.320835	0.377233
	C156	C	0.888355	0.380971	0.675997
	C157	C	0.116096	0.620047	0.677128
	C158	C	0.887939	0.616973	0.323501
	C159	C	0.116309	0.380585	0.320701
	C160	C	0.385098	0.675225	0.883334
	C161	C	0.621563	0.675565	0.114402
	C162	C	0.622795	0.322612	0.884335
	C163	C	0.384136	0.323311	0.114800
	C164	C	0.680817	0.885596	0.377740
	C165	C	0.681237	0.113609	0.618947
	C166	C	0.323663	0.885793	0.619922
	C167	C	0.325134	0.113699	0.377440
	C168	C	0.883887	0.384495	0.175043
	C169	C	0.121094	0.613970	0.175202
	C170	C	0.122071	0.384532	0.820933
	C171	C	0.885708	0.614287	0.824657
	C172	C	0.179302	0.879669	0.383816
	C173	C	0.180084	0.121358	0.613822
	C174	C	0.827559	0.118304	0.383414
	C175	C	0.825129	0.879643	0.613610
	C176	C	0.389657	0.178299	0.878511
	C177	C	0.616952	0.177312	0.118207
	C178	C	0.389741	0.821210	0.119308
	C179	C	0.617094	0.821754	0.878110
	C180	C	0.389424	0.880555	0.176359
	C181	C	0.617916	0.117648	0.174460
	C182	C	0.388956	0.118426	0.822085
	C183	C	0.617632	0.881307	0.821566
	C184	C	0.885543	0.174592	0.383362
	C185	C	0.121294	0.177040	0.614213
	C186	C	0.121120	0.823047	0.383520
	C187	C	0.883701	0.823820	0.614318
	C188	C	0.182259	0.385488	0.876573
	C189	C	0.180957	0.613002	0.119825
	C190	C	0.823656	0.385844	0.120070
	C191	C	0.825228	0.613027	0.878921
	C192	C	0.403402	0.092711	0.597003
	C193	C	0.602846	0.905695	0.596575
	C194	C	0.604724	0.094109	0.399743
	C195	C	0.403091	0.906343	0.401018
	C196	C	0.602243	0.401690	0.094676
	C197	C	0.603505	0.597598	0.903673
	C198	C	0.404129	0.597746	0.093678
	C199	C	0.405240	0.402097	0.904813
	C200	C	0.095067	0.599592	0.400345
	C201	C	0.909104	0.600365	0.600155
	C202	C	0.095074	0.400460	0.596771
	C203	C	0.909414	0.398083	0.399673
	C204	C	0.902621	0.593497	0.098365
	C205	C	0.102823	0.405329	0.096608
	C206	C	0.103469	0.592719	0.901185
	C207	C	0.903279	0.405443	0.901386
	C208	C	0.100765	0.902551	0.593635
	C209	C	0.102849	0.097794	0.403985
	C210	C	0.903949	0.097556	0.593992
	C211	C	0.903533	0.900544	0.403307
	C212	C	0.595603	0.099569	0.899527
	C213	C	0.410308	0.099852	0.098706
	C214	C	0.596220	0.899173	0.097730
	C215	C	0.410575	0.898919	0.900176
	Zn216	Zn	0.502780	-0.000660	0.748098
	Zn217	Zn	0.503749	-0.000159	0.249744
	Zn218	Zn	0.752478	0.499105	-0.001073
	Zn219	Zn	0.254082	0.499433	-0.000829
	Zn220	Zn	0.002108	0.751443	0.498793
	Zn221	Zn	0.002557	0.247689	0.498795
	Zn222	Zn	0.002536	0.499385	0.750433
	Zn223	Zn	0.002253	0.499571	0.248302
	Zn224	Zn	0.503486	0.747570	-0.001406
	Zn225	Zn	0.503189	0.251352	-0.000464
	Zn226	Zn	0.753997	-0.000364	0.498441
	Zn227	Zn	0.251811	-0.000214	0.498992
	N228	N	0.418764	0.961069	0.675103
	N229	N	0.587221	0.037563	0.675081
	N230	N	0.588311	0.962265	0.321409
	N231	N	0.419881	0.037879	0.322474
	N232	N	0.682054	0.413052	0.962782
	N233	N	0.682456	0.586001	0.035809
	N234	N	0.324556	0.585894	0.962148
	N235	N	0.323715	0.412478	0.036029
	N236	N	0.965256	0.678830	0.413423
	N237	N	0.038744	0.680664	0.586460
	N238	N	0.965666	0.319750	0.585059
	N239	N	0.039092	0.318163	0.411029
	N240	N	0.964846	0.415358	0.676644
	N241	N	0.039594	0.585731	0.678676
	N242	N	0.964664	0.583464	0.322052
	N243	N	0.039778	0.414316	0.320061
	N244	N	0.419126	0.675789	0.961043
	N245	N	0.588119	0.676111	0.036450
	N246	N	0.588268	0.322614	0.962160
	N247	N	0.419068	0.323281	0.037222
	N248	N	0.683474	0.963288	0.411217
	N249	N	0.683641	0.035867	0.585616
	N250	N	0.321451	0.963370	0.586707
	N251	N	0.322312	0.036285	0.411257
	N252	N	0.918577	0.461427	0.175520
	N253	N	0.086557	0.537073	0.175259
	N254	N	0.087870	0.461536	0.821143
	N255	N	0.920172	0.537586	0.824679
	N256	N	0.180889	0.913656	0.461872
	N257	N	0.182161	0.087095	0.535746
	N258	N	0.825501	0.084781	0.461558
	N259	N	0.823536	0.912877	0.535467
	N260	N	0.466483	0.180542	0.911977
	N261	N	0.539858	0.179786	0.085465
	N262	N	0.466538	0.819225	0.085223
	N263	N	0.540230	0.819052	0.911911
	N264	N	0.466103	0.914315	0.177542
	N265	N	0.541372	0.083644	0.175968
	N266	N	0.465259	0.084052	0.821090
	N267	N	0.540898	0.914911	0.820725
	N268	N	0.919020	0.175511	0.461340
	N269	N	0.087365	0.176807	0.536535
	N270	N	0.087141	0.822661	0.461448
	N271	N	0.917938	0.823063	0.536349
	N272	N	0.184520	0.462852	0.910911
	N273	N	0.183085	0.535531	0.086063
	N274	N	0.821548	0.463406	0.086992
	N275	N	0.822465	0.535295	0.911830
	O276	O	1.001374	1.012054	-0.030463
	H277	H	0.999165	1.001151	-0.032535
	H278	H	1.001347	1.012409	-0.029700
	O279	O	0.025310	0.005072	-0.062668
	H280	H	0.022180	0.000418	-0.065976
	H281	H	0.027262	0.009082	-0.063144
	O282	O	0.028760	-0.029366	0.987484
	H283	H	0.024003	-0.029494	0.986188
	H284	H	0.032541	-0.035980	0.978163
	O285	O	0.374068	0.527992	0.498167
	H286	H	0.371506	0.524798	0.496268
	H287	H	0.377312	0.536743	0.493395
	O288	O	0.421655	0.463246	0.513758
	H289	H	0.416580	0.459475	0.516859
	H290	H	0.417577	0.464750	0.509816
	O291	O	0.392269	0.434310	0.557687
	H292	H	0.392982	0.440334	0.561807
	H293	H	0.390275	0.425092	0.564685
	O294	O	0.061791	-0.014348	0.047331
	H295	H	0.064354	-0.017544	0.042431
	H296	H	0.066456	-0.017952	0.043393
	O297	O	0.456287	0.490017	0.491929
	H298	H	0.462505	0.480582	0.491283
	H299	H	0.450167	0.493977	0.484575
	O300	O	0.062565	0.953747	0.994009
	H301	H	0.062996	0.954237	1.000488
	H302	H	0.056979	0.964211	0.999110
	O303	O	0.396234	0.458022	0.534097
	H304	H	0.383757	0.463213	0.538755
	H305	H	0.391806	0.459118	0.532543
	O306	O	0.017684	0.029774	1.064965
	H307	H	0.020793	0.027244	1.070776
	H308	H	0.015308	0.028035	1.061061
	O309	O	0.985286	0.986603	0.995822
	H310	H	0.986141	0.977383	0.989548
	H311	H	0.980478	0.982697	0.991230
	O312	O	0.438419	0.477174	0.534912
	H313	H	0.436902	0.475218	0.538379
	H314	H	0.440920	0.472505	0.544244
	O315	O	0.467338	0.520039	0.553524
	H316	H	0.468200	0.524897	0.548512
	H317	H	0.468720	0.529671	0.548201
	O318	O	0.015853	0.920909	-0.035055
	H319	H	0.014814	0.929513	-0.032337
	H320	H	0.024948	0.925316	-0.034602
	O321	O	1.064599	0.983305	-0.035739
	H322	H	1.065801	0.999401	-0.028407
	H323	H	1.067083	0.980978	-0.030621
