data_Molecule from HDF5

_cell_length_a		16.471698
_cell_length_b		16.524044
_cell_length_c		16.661158
_cell_angle_alpha	89.987126
_cell_angle_beta	90.096748
_cell_angle_gamma	90.017080
_symmetry_space_group_name_H-M	'P 1'
_symmetry_Int_Tables_number		1

loop_
	_symmetry_equiv_pos_as_xyz
	x,y,z

loop_
	_atom_site_label
	_atom_site_type_symbol
	_atom_site_fract_x
	_atom_site_fract_y
	_atom_site_fract_z
	H0	H	0.416113	0.837005	0.718556
	H1	H	0.632758	0.146851	0.720662
	H2	H	0.627439	0.833309	0.277416
	H3	H	0.415544	0.146417	0.272193
	H4	H	0.746542	0.380922	0.841180
	H5	H	0.745546	0.594789	0.150787
	H6	H	0.297001	0.597987	0.842885
	H7	H	0.300820	0.384133	0.152319
	H8	H	0.864774	0.707559	0.394217
	H9	H	0.179313	0.708002	0.600553
	H10	H	0.865625	0.266857	0.600906
	H11	H	0.178956	0.267634	0.388774
	H12	H	0.867676	0.378498	0.719896
	H13	H	0.178427	0.593856	0.717970
	H14	H	0.864010	0.592574	0.277429
	H15	H	0.178536	0.382729	0.272836
	H16	H	0.414183	0.714396	0.842502
	H17	H	0.628512	0.711454	0.150946
	H18	H	0.632059	0.263227	0.843469
	H19	H	0.417172	0.267197	0.151818
	H20	H	0.740741	0.832612	0.395889
	H21	H	0.747315	0.146857	0.603136
	H22	H	0.305287	0.834127	0.598252
	H23	H	0.299710	0.146470	0.388713
	H24	H	0.913457	0.332827	0.219137
	H25	H	0.125235	0.647086	0.213877
	H26	H	0.132271	0.332420	0.771695
	H27	H	0.914709	0.642330	0.771573
	H28	H	0.244001	0.885700	0.341306
	H29	H	0.247028	0.097990	0.651680
	H30	H	0.798161	0.097418	0.341070
	H31	H	0.801202	0.884550	0.651903
	H32	H	0.365930	0.214509	0.888952
	H33	H	0.679248	0.214765	0.104860
	H34	H	0.365323	0.771421	0.097504
	H35	H	0.681188	0.774400	0.895077
	H36	H	0.365453	0.886422	0.215654
	H37	H	0.680242	0.097491	0.218970
	H38	H	0.367760	0.103484	0.770404
	H39	H	0.680213	0.889748	0.778289
	H40	H	0.915218	0.212814	0.339539
	H41	H	0.133101	0.216619	0.650191
	H42	H	0.128593	0.767118	0.341851
	H43	H	0.914659	0.765237	0.650407
	H44	H	0.244417	0.331012	0.891206
	H45	H	0.240050	0.646676	0.096294
	H46	H	0.799549	0.332647	0.101527
	H47	H	0.804716	0.645979	0.892631
	H48	H	0.434626	0.104463	0.581235
	H49	H	0.609814	0.877397	0.593264
	H50	H	0.609331	0.104129	0.402111
	H51	H	0.433582	0.878488	0.407264
	H52	H	0.604319	0.407254	0.102833
	H53	H	0.614777	0.583369	0.882530
	H54	H	0.434946	0.578741	0.106454
	H55	H	0.434229	0.400989	0.885451
	H56	H	0.137444	0.580422	0.404000
	H57	H	0.912130	0.571953	0.582150
	H58	H	0.133786	0.400856	0.578680
	H59	H	0.909696	0.404215	0.403877
	H60	H	0.131736	0.407924	0.582614
	H61	H	0.907541	0.576018	0.591089
	H62	H	0.135695	0.578048	0.406641
	H63	H	0.908708	0.398243	0.407731
	H64	H	0.433327	0.579524	0.108533
	H65	H	0.613800	0.577998	0.883493
	H66	H	0.609723	0.396030	0.108532
	H67	H	0.433408	0.403390	0.886375
	H68	H	0.606412	0.101557	0.409786
	H69	H	0.606657	0.882329	0.583519
	H70	H	0.436106	0.104619	0.585570
	H71	H	0.432723	0.877184	0.405063
	H72	H	0.932719	0.601494	0.087703
	H73	H	0.106273	0.377017	0.086482
	H74	H	0.108735	0.600108	0.903523
	H75	H	0.934650	0.376108	0.910725
	H76	H	0.116993	0.898127	0.610099
	H77	H	0.113789	0.072516	0.387401
	H78	H	0.933046	0.070636	0.604587
	H79	H	0.932126	0.896811	0.383510
	H80	H	0.636764	0.076271	0.901202
	H81	H	0.410319	0.082266	0.081453
	H82	H	0.635698	0.905365	0.087651
	H83	H	0.409780	0.907829	0.906260
	H84	H	0.639762	0.898737	0.093381
	H85	H	0.414015	0.072346	0.080798
	H86	H	0.633989	0.084131	0.916089
	H87	H	0.406846	0.900192	0.903348
	H88	H	0.944438	0.080250	0.603549
	H89	H	0.104309	0.077712	0.388714
	H90	H	0.111785	0.902708	0.607352
	H91	H	0.931446	0.901734	0.385284
	H92	H	0.107684	0.597070	0.908901
	H93	H	0.113190	0.376295	0.082185
	H94	H	0.935624	0.600739	0.087484
	H95	H	0.934322	0.375227	0.905245
	H96	H	0.439040	0.103037	0.582496
	H97	H	0.616678	0.877378	0.584991
	H98	H	0.614748	0.104134	0.409174
	H99	H	0.435096	0.878836	0.404970
	H100	H	0.617324	0.407081	0.107039
	H101	H	0.609677	0.581252	0.884320
	H102	H	0.433041	0.577037	0.107231
	H103	H	0.436166	0.402843	0.886932
	H104	H	0.136114	0.576926	0.403514
	H105	H	0.907884	0.581637	0.581951
	H106	H	0.136170	0.402015	0.586677
	H107	H	0.911976	0.403574	0.410690
	H108	H	0.933974	0.601440	0.084620
	H109	H	0.112950	0.373551	0.090292
	H110	H	0.112918	0.600282	0.908073
	H111	H	0.938601	0.376828	0.907388
	H112	H	0.109732	0.895909	0.609403
	H113	H	0.112627	0.082768	0.383792
	H114	H	0.931623	0.084547	0.609236
	H115	H	0.935896	0.899449	0.385073
	H116	H	0.627766	0.067649	0.913981
	H117	H	0.410224	0.076320	0.090231
	H118	H	0.637781	0.896160	0.083762
	H119	H	0.409909	0.900652	0.910930
	C120	C	0.403310	0.000605	0.616039
	C121	C	0.645200	0.982459	0.619119
	C122	C	0.642664	-0.000914	0.376184
	C123	C	0.400790	0.981675	0.373445
	C124	C	0.644464	0.368612	0.004462
	C125	C	0.644952	0.612391	0.986641
	C126	C	0.400628	0.611344	0.005003
	C127	C	0.401506	0.368653	0.988473
	C128	C	0.031633	0.610070	0.374439
	C129	C	1.013209	0.609032	0.617244
	C130	C	0.030840	0.368525	0.615905
	C131	C	1.013562	0.368463	0.374083
	C132	C	0.900405	0.497754	0.118168
	C133	C	0.142623	0.480035	0.117169
	C134	C	0.144101	0.496252	0.874055
	C135	C	0.902815	0.479326	0.874718
	C136	C	0.144355	0.867506	0.505634
	C137	C	0.144795	0.112328	0.488314
	C138	C	0.902186	0.111319	0.503537
	C139	C	0.900920	0.867733	0.487801
	C140	C	0.530854	0.112070	0.875688
	C141	C	0.514845	0.110849	0.117274
	C142	C	0.532502	0.868795	0.118318
	C143	C	0.513421	0.870961	0.875396
	C144	C	0.399224	0.883462	0.677413
	C145	C	0.649823	0.099961	0.680049
	C146	C	0.645449	0.880663	0.317210
	C147	C	0.397726	0.099285	0.312722
	C148	C	0.705799	0.364062	0.888085
	C149	C	0.705445	0.613719	0.103761
	C150	C	0.338216	0.615380	0.888935
	C151	C	0.340700	0.365658	0.105437
	C152	C	0.912242	0.668675	0.374337
	C153	C	0.131776	0.668783	0.619160
	C154	C	0.913061	0.306921	0.618827
	C155	C	0.131568	0.307751	0.370861
	C156	C	0.914022	0.362436	0.678323
	C157	C	0.131332	0.611889	0.677519
	C158	C	0.912042	0.611238	0.316467
	C159	C	0.131334	0.364939	0.312939
	C160	C	0.396407	0.673441	0.888901
	C161	C	0.647022	0.671535	0.104167
	C162	C	0.648792	0.305389	0.889048
	C163	C	0.398827	0.307846	0.105388
	C164	C	0.701839	0.880251	0.376016
	C165	C	0.706812	0.099855	0.621463
	C166	C	0.343860	0.881870	0.617772
	C167	C	0.340083	0.099516	0.370610
	C168	C	0.896315	0.379963	0.178575
	C169	C	0.144118	0.599321	0.174957
	C170	C	0.148739	0.378931	0.812977
	C171	C	0.898152	0.596133	0.812953
	C172	C	0.204065	0.866530	0.388243
	C173	C	0.206607	0.116212	0.604911
	C174	C	0.839404	0.115117	0.387348
	C175	C	0.840541	0.865627	0.604787
	C176	C	0.413414	0.174510	0.871288
	C177	C	0.632442	0.173343	0.121436
	C178	C	0.412808	0.810674	0.117817
	C179	C	0.632999	0.813035	0.875348
	C180	C	0.412997	0.867796	0.176196
	C181	C	0.632897	0.115145	0.178484
	C182	C	0.414467	0.119126	0.811878
	C183	C	0.632542	0.870532	0.817364
	C184	C	0.897825	0.172714	0.386800
	C185	C	0.149717	0.175306	0.604027
	C186	C	0.146738	0.807470	0.388649
	C187	C	0.897483	0.806681	0.604268
	C188	C	0.204942	0.378410	0.872204
	C189	C	0.201036	0.599339	0.116455
	C190	C	0.839511	0.379953	0.119978
	C191	C	0.843284	0.598077	0.872979
	C192	C	0.429165	0.082512	0.590308
	C193	C	0.618755	0.900467	0.594258
	C194	C	0.617558	0.081716	0.400293
	C195	C	0.426390	0.899427	0.398647
	C196	C	0.617898	0.395619	0.085081
	C197	C	0.619812	0.587895	0.904761
	C198	C	0.426465	0.585671	0.086256
	C199	C	0.427350	0.394777	0.907401
	C200	C	0.114777	0.585740	0.398173
	C201	C	0.930737	0.583823	0.592316
	C202	C	0.112617	0.395710	0.590272
	C203	C	0.931466	0.394620	0.399813
	C204	C	0.926612	0.579872	0.093623
	C205	C	0.117881	0.397249	0.093248
	C206	C	0.117232	0.577886	0.899346
	C207	C	0.928441	0.397300	0.900435
	C208	C	0.119848	0.891964	0.587589
	C209	C	0.117959	0.085405	0.407633
	C210	C	0.928705	0.085626	0.584636
	C211	C	0.926021	0.892519	0.405988
	C212	C	0.611797	0.084192	0.902675
	C213	C	0.432989	0.084554	0.091408
	C214	C	0.615952	0.892987	0.095075
	C215	C	0.430441	0.895574	0.899797
	Zn216	Zn	0.522283	-0.007342	0.746478
	Zn217	Zn	0.523667	-0.008977	0.246395
	Zn218	Zn	0.773748	0.489347	-0.005224
	Zn219	Zn	0.271316	0.488816	-0.003985
	Zn220	Zn	0.022076	0.737668	0.496519
	Zn221	Zn	0.022738	0.240739	0.495419
	Zn222	Zn	0.022467	0.487316	0.746008
	Zn223	Zn	0.021928	0.489338	0.246078
	Zn224	Zn	0.522477	0.741166	-0.004170
	Zn225	Zn	0.522489	0.239607	-0.002904
	Zn226	Zn	0.772324	-0.010003	0.496411
	Zn227	Zn	0.273833	-0.008862	0.497022
	N228	N	0.435270	0.958357	0.676650
	N229	N	0.612079	0.025814	0.678800
	N230	N	0.609321	0.955682	0.317047
	N231	N	0.434280	0.024749	0.314043
	N232	N	0.703354	0.402671	0.960889
	N233	N	0.704191	0.577500	0.029660
	N234	N	0.340918	0.577201	0.962009
	N235	N	0.342210	0.402785	0.031657
	N236	N	0.987681	0.668302	0.409538
	N237	N	0.057291	0.667096	0.582377
	N238	N	0.986774	0.310636	0.580868
	N239	N	0.057325	0.309948	0.408253
	N240	N	0.988618	0.399730	0.676869
	N241	N	0.056479	0.575517	0.676706
	N242	N	0.987566	0.575967	0.316042
	N243	N	0.056671	0.401722	0.314613
	N244	N	0.434658	0.671029	0.962104
	N245	N	0.610056	0.670809	0.030251
	N246	N	0.611305	0.307958	0.962575
	N247	N	0.435714	0.309499	0.031664
	N248	N	0.700343	0.954979	0.411787
	N249	N	0.704123	0.025811	0.584322
	N250	N	0.346297	0.955895	0.580318
	N251	N	0.341600	0.025205	0.407669
	N252	N	0.933428	0.454513	0.177810
	N253	N	0.108654	0.524092	0.175652
	N254	N	0.111778	0.453347	0.813793
	N255	N	0.934258	0.521151	0.813838
	N256	N	0.202962	0.903114	0.462055
	N257	N	0.203710	0.077811	0.531915
	N258	N	0.841717	0.077869	0.461015
	N259	N	0.842661	0.903025	0.531344
	N260	N	0.486832	0.170522	0.910174
	N261	N	0.557929	0.170838	0.084033
	N262	N	0.488308	0.810816	0.082899
	N263	N	0.557589	0.812869	0.910434
	N264	N	0.488683	0.902810	0.176993
	N265	N	0.558819	0.077018	0.176133
	N266	N	0.488552	0.080999	0.814328
	N267	N	0.556814	0.905525	0.816863
	N268	N	0.936092	0.170564	0.460119
	N269	N	0.112286	0.173401	0.530302
	N270	N	0.110404	0.807759	0.462794
	N271	N	0.934494	0.807800	0.530464
	N272	N	0.202379	0.452548	0.909271
	N273	N	0.200642	0.523930	0.081722
	N274	N	0.841762	0.454375	0.083362
	N275	N	0.846039	0.524373	0.910709
	O276	O	1.001057	0.928907	-0.157667
	H277	H	0.981501	0.914001	-0.163483
	H278	H	1.013591	0.947365	-0.161631
	O279	O	0.025762	-0.209822	1.020029
	H280	H	0.010708	-0.216630	1.037277
	H281	H	0.011382	-0.199669	1.024745
	O282	O	0.302403	0.705070	0.463851
	H283	H	0.286920	0.726688	0.454722
	H284	H	0.297084	0.710984	0.436145
	O285	O	0.613746	1.595495	0.652446
	H286	H	0.607581	1.609863	0.666283
	H287	H	0.632560	1.595858	0.635629
	O288	O	1.112912	-0.170315	0.847612
	H289	H	1.094352	-0.161662	0.844739
	H290	H	1.115936	-0.175645	0.859670
	O291	O	0.816327	1.018002	0.779567
	H292	H	0.805506	1.007737	0.756815
	H293	H	0.824866	1.026803	0.779885
	O294	O	-0.097560	-0.224145	-0.132952
	H295	H	-0.096516	-0.206157	-0.120827
	H296	H	-0.099838	-0.212073	-0.112150
	O297	O	1.043145	-0.037334	0.226218
	H298	H	1.045851	-0.017381	0.231158
	H299	H	1.041413	-0.016557	0.226684
	O300	O	-0.185088	-0.227461	0.029157
	H301	H	-0.200144	-0.237929	0.059568
	H302	H	-0.196005	-0.237891	0.047501
	O303	O	-0.502507	0.514859	-0.280875
	H304	H	-0.506106	0.504914	-0.295883
	H305	H	-0.502868	0.497344	-0.276941
	O306	O	0.769308	-0.262183	0.244178
	H307	H	0.748931	-0.247580	0.245612
	H308	H	0.749224	-0.279754	0.283206
	O309	O	0.124894	1.109283	0.887005
	H310	H	0.126890	1.113530	0.878838
	H311	H	0.114255	1.102380	0.885740
	O312	O	0.646315	0.381572	0.610927
	H313	H	0.660625	0.392107	0.620806
	H314	H	0.651582	0.376253	0.609089
	O315	O	0.241884	0.174909	0.011909
	H316	H	0.264561	0.194200	0.006700
	H317	H	0.239525	0.164052	-0.005558
	O318	O	0.981879	1.190925	0.011299
	H319	H	0.979044	1.179678	0.008838
	H320	H	0.975618	1.196789	0.012054
	O321	O	-0.039995	1.100493	1.085281
	H322	H	-0.044177	1.107622	1.084100
	H323	H	-0.043479	1.099573	1.087884
	O324	O	1.338525	-0.321615	0.681254
	H325	H	1.337134	-0.326198	0.698030
	H326	H	1.326354	-0.311214	0.706139
	O327	O	0.724761	0.700533	0.704633
	H328	H	0.736498	0.702347	0.709422
	H329	H	0.708102	0.676020	0.702607
	O330	O	-0.162920	0.870859	0.065961
	H331	H	-0.139398	0.874121	0.062363
	H332	H	-0.162530	0.853880	0.086651
	O333	O	0.216335	0.184677	0.165517
	H334	H	0.237411	0.206361	0.157448
	H335	H	0.194078	0.177015	0.153324
	O336	O	-0.060286	1.086577	1.193476
	H337	H	-0.057931	1.097571	1.184387
	H338	H	-0.073915	1.091089	1.210268
	O339	O	0.410670	0.513288	0.424488
	H340	H	0.413766	0.529841	0.423870
	H341	H	0.408937	0.520748	0.431721
	O342	O	0.049998	1.203784	0.212154
	H343	H	0.059214	1.215324	0.222190
	H344	H	0.063251	1.215471	0.210447
	O345	O	0.299559	0.521408	0.270530
	H346	H	0.268575	0.531196	0.239645
	H347	H	0.301800	0.565976	0.278734
	O348	O	0.238234	1.016391	1.214257
	H349	H	0.259617	1.015546	1.230597
	H350	H	0.237637	1.049937	1.218252
	O351	O	0.731751	0.459321	1.276501
	H352	H	0.730854	0.464314	1.271148
	H353	H	0.745310	0.439400	1.262075
	O354	O	1.067379	0.139219	0.931186
	H355	H	1.059621	0.144136	0.918984
	H356	H	1.070164	0.142389	0.925134
	O357	O	0.524191	0.521277	0.350045
	H358	H	0.521774	0.522251	0.357822
	H359	H	0.511437	0.518275	0.350718
	O360	O	0.308437	0.536082	0.556424
	H361	H	0.310858	0.558525	0.552853
	H362	H	0.311717	0.549313	0.559199
	O363	O	0.503691	0.662989	0.695280
	H364	H	0.513356	0.689091	0.717240
	H365	H	0.492124	0.639644	0.702688
	O366	O	0.621432	0.292830	0.593951
	H367	H	0.595685	0.302167	0.586057
	H368	H	0.609779	0.296692	0.586430
	O369	O	-0.190598	0.167592	0.970878
	H370	H	-0.182443	0.168932	0.991146
	H371	H	-0.212206	0.167384	0.981359
	O372	O	0.234105	0.777760	0.781049
	H373	H	0.221554	0.806823	0.786188
	H374	H	0.207911	0.783227	0.805448
	O375	O	1.183682	-0.171800	-0.008897
	H376	H	1.187891	-0.152232	-0.014473
	H377	H	1.161417	-0.171436	-0.007593
	O378	O	0.703841	0.575043	0.656104
	H379	H	0.713998	0.558352	0.657607
	H380	H	0.682503	0.567002	0.656003
	O381	O	-0.486846	1.277033	-0.287246
	H382	H	-0.509062	1.271453	-0.273266
	H383	H	-0.509453	1.272487	-0.281715
	O384	O	0.558373	0.572259	0.459879
	H385	H	0.562858	0.564391	0.469149
	H386	H	0.563538	0.578968	0.462916
	O387	O	0.499289	1.668397	1.522908
	H388	H	0.496706	1.675794	1.542412
	H389	H	0.473110	1.665089	1.536599
	O390	O	-0.761667	0.968045	0.780222
	H391	H	-0.767628	0.965879	0.783123
	H392	H	-0.745150	0.971364	0.769427
	O393	O	1.001104	0.211080	-0.225777
	H394	H	0.962219	0.208914	-0.217350
	H395	H	0.985095	0.239402	-0.251825
	O396	O	0.867615	0.172450	0.828023
	H397	H	0.847074	0.179092	0.834111
	H398	H	0.856214	0.152422	0.846719
	O399	O	0.520590	0.331785	0.285840
	H400	H	0.509335	0.348167	0.287918
	H401	H	0.513177	0.331902	0.291646
	O402	O	0.811055	-0.040577	1.209966
	H403	H	0.785678	-0.034690	1.223324
	H404	H	0.821878	-0.051432	1.202272
	O405	O	-0.073925	-0.021875	-0.057457
	H406	H	-0.080146	-0.045084	-0.051379
	H407	H	-0.070942	-0.022343	-0.065457
	O408	O	1.200081	0.811089	1.197484
	H409	H	1.178069	0.838556	1.186475
	H410	H	1.190878	0.824416	1.174326
	O411	O	1.348698	0.308649	-0.670056
	H412	H	1.354412	0.312535	-0.665269
	H413	H	1.358742	0.322787	-0.658756
	O414	O	0.351193	-0.695400	0.675264
	H415	H	0.339680	-0.666332	0.663795
	H416	H	0.347718	-0.686741	0.653803
	O417	O	0.312865	-0.540874	0.716262
	H418	H	0.309266	-0.530079	0.729801
	H419	H	0.297714	-0.530680	0.712998
	O420	O	1.024381	-0.063603	1.026258
	H421	H	1.003148	-0.062655	1.016268
	H422	H	1.013153	-0.074250	1.032818
	O423	O	0.709850	1.296411	0.302737
	H424	H	0.696876	1.290556	0.332851
	H425	H	0.691101	1.315049	0.300015
	O426	O	-0.007798	0.768366	0.216942
	H427	H	-0.007130	0.751039	0.244411
	H428	H	-0.015807	0.781452	0.227032
	O429	O	0.728800	0.530793	0.438433
	H430	H	0.730890	0.520603	0.452617
	H431	H	0.735332	0.538504	0.425338
	O432	O	1.067692	0.026019	0.900207
	H433	H	1.074351	0.030928	0.897371
	H434	H	1.064626	0.036848	0.903433
	O435	O	0.336430	0.693779	0.289569
	H436	H	0.389374	0.698091	0.281290
	H437	H	0.312049	0.728220	0.257177
	O438	O	0.497726	0.692789	0.273675
	H439	H	0.511744	0.714173	0.263781
	H440	H	0.514604	0.683397	0.275762
	O441	O	1.194843	0.915465	0.039836
	H442	H	1.192164	0.925464	0.038431
	H443	H	1.186349	0.922883	0.051427
	O444	O	0.309264	0.273849	0.517422
	H445	H	0.298746	0.300455	0.500334
	H446	H	0.280978	0.256650	0.517493
	O447	O	0.078814	-0.047575	0.878156
	H448	H	0.090533	-0.066347	0.887291
	H449	H	0.085248	-0.043773	0.870345
	O450	O	0.637807	0.690037	0.366598
	H451	H	0.627333	0.685419	0.376801
	H452	H	0.616440	0.682556	0.393430
	O453	O	0.498804	0.281097	0.405094
	H454	H	0.484196	0.289583	0.400513
	H455	H	0.499137	0.266172	0.406459
	O456	O	0.737895	1.272623	0.467913
	H457	H	0.741727	1.257212	0.479508
	H458	H	0.734168	1.254693	0.465822
	O459	O	0.347286	0.494092	0.485028
	H460	H	0.345026	0.514713	0.503444
	H461	H	0.340070	0.512370	0.465681
	O462	O	0.721576	0.685501	0.498954
	H463	H	0.726577	0.695513	0.510167
	H464	H	0.706535	0.678921	0.519363
	O465	O	0.499831	0.470544	0.294154
	H466	H	0.472315	0.477482	0.290896
	H467	H	0.500805	0.467786	0.312236
	O468	O	0.018570	0.829523	-0.213107
	H469	H	0.014690	0.823609	-0.202657
	H470	H	0.023564	0.822534	-0.211472
	O471	O	0.572243	0.449098	0.650735
	H472	H	0.598516	0.458195	0.651581
	H473	H	0.566230	0.441751	0.634788
	O474	O	0.845168	1.035215	0.044600
	H475	H	0.847748	1.033029	0.050754
	H476	H	0.851532	1.016764	0.024000
	O477	O	-0.307847	0.376589	1.549288
	H478	H	-0.312760	0.364806	1.550819
	H479	H	-0.328095	0.370023	1.544955
