data_Molecule from HDF5

_cell_length_a		16.467265
_cell_length_b		16.293274
_cell_length_c		16.162918
_cell_angle_alpha	90.136879
_cell_angle_beta	89.654131
_cell_angle_gamma	90.403282
_symmetry_space_group_name_H-M	'P 1'
_symmetry_Int_Tables_number		1

loop_
	_symmetry_equiv_pos_as_xyz
	x,y,z

loop_
	_atom_site_label
	_atom_site_type_symbol
	_atom_site_fract_x
	_atom_site_fract_y
	_atom_site_fract_z
	H0	H	0.401132	0.838081	0.711242
	H1	H	0.600360	0.165472	0.711132
	H2	H	0.599483	0.838174	0.281966
	H3	H	0.407457	0.164775	0.283265
	H4	H	0.723206	0.398389	0.835068
	H5	H	0.720644	0.602833	0.161340
	H6	H	0.289888	0.604167	0.835254
	H7	H	0.284025	0.397978	0.159304
	H8	H	0.841422	0.717694	0.394205
	H9	H	0.163527	0.724245	0.595123
	H10	H	0.843190	0.284576	0.597197
	H11	H	0.163975	0.283361	0.389071
	H12	H	0.844005	0.400860	0.714455
	H13	H	0.165819	0.606667	0.710570
	H14	H	0.841203	0.597739	0.281048
	H15	H	0.165587	0.404512	0.277552
	H16	H	0.407931	0.713898	0.833933
	H17	H	0.603583	0.716828	0.162281
	H18	H	0.603226	0.287124	0.833255
	H19	H	0.403364	0.287434	0.161583
	H20	H	0.720267	0.840846	0.391513
	H21	H	0.722178	0.162753	0.601893
	H22	H	0.281295	0.840645	0.600149
	H23	H	0.286670	0.163732	0.393292
	H24	H	0.905340	0.338267	0.209764
	H25	H	0.103066	0.666271	0.211062
	H26	H	0.106520	0.340614	0.776548
	H27	H	0.910272	0.665889	0.784259
	H28	H	0.219565	0.899841	0.333560
	H29	H	0.220384	0.107636	0.658459
	H30	H	0.784895	0.104943	0.333409
	H31	H	0.783469	0.899733	0.658529
	H32	H	0.343043	0.221947	0.895287
	H33	H	0.663580	0.223704	0.101266
	H34	H	0.343314	0.780929	0.100611
	H35	H	0.664700	0.786423	0.895230
	H36	H	0.341241	0.901787	0.212944
	H37	H	0.664902	0.103344	0.214197
	H38	H	0.340557	0.101184	0.782266
	H39	H	0.663493	0.903657	0.778303
	H40	H	0.904860	0.215756	0.331406
	H41	H	0.103074	0.220161	0.658793
	H42	H	0.100394	0.790132	0.331382
	H43	H	0.900120	0.786014	0.658741
	H44	H	0.223275	0.340613	0.891989
	H45	H	0.225393	0.663126	0.101764
	H46	H	0.784599	0.340316	0.102224
	H47	H	0.788693	0.663385	0.895670
	H48	H	0.412623	0.115444	0.581970
	H49	H	0.595910	0.886431	0.585218
	H50	H	0.594097	0.117147	0.407578
	H51	H	0.417334	0.886235	0.398483
	H52	H	0.604038	0.406661	0.119518
	H53	H	0.606827	0.594588	0.878896
	H54	H	0.415194	0.597217	0.116198
	H55	H	0.419547	0.405373	0.881423
	H56	H	0.117202	0.599917	0.405210
	H57	H	0.891292	0.596431	0.580672
	H58	H	0.117639	0.414526	0.583524
	H59	H	0.892259	0.415457	0.405647
	H60	H	0.119442	0.410158	0.587683
	H61	H	0.891491	0.585124	0.592254
	H62	H	0.115984	0.594848	0.404079
	H63	H	0.886914	0.406903	0.396087
	H64	H	0.406860	0.587090	0.116382
	H65	H	0.596325	0.585317	0.884019
	H66	H	0.596856	0.424757	0.110409
	H67	H	0.406773	0.410035	0.878754
	H68	H	0.596831	0.117225	0.407885
	H69	H	0.591679	0.886133	0.588375
	H70	H	0.403813	0.119493	0.588413
	H71	H	0.408731	0.889419	0.418080
	H72	H	0.908417	0.616724	0.082970
	H73	H	0.091722	0.388352	0.088134
	H74	H	0.099063	0.618284	0.904001
	H75	H	0.906790	0.386008	0.910537
	H76	H	0.097858	0.909957	0.615888
	H77	H	0.098374	0.094449	0.377323
	H78	H	0.912296	0.087958	0.610292
	H79	H	0.906615	0.910314	0.377420
	H80	H	0.616222	0.095327	0.907319
	H81	H	0.390787	0.092486	0.086891
	H82	H	0.619082	0.906564	0.089075
	H83	H	0.385780	0.904763	0.899538
	H84	H	0.616186	0.910415	0.086324
	H85	H	0.389782	0.092742	0.091651
	H86	H	0.615228	0.092187	0.905928
	H87	H	0.388895	0.901564	0.912616
	H88	H	0.914894	0.095197	0.610917
	H89	H	0.097755	0.087412	0.380137
	H90	H	0.092386	0.922480	0.609772
	H91	H	0.910525	0.912544	0.379729
	H92	H	0.097513	0.616387	0.907050
	H93	H	0.094060	0.389714	0.080489
	H94	H	0.908164	0.620570	0.093246
	H95	H	0.911667	0.384006	0.898785
	H96	H	0.413972	0.116902	0.593804
	H97	H	0.591334	0.887959	0.583382
	H98	H	0.595833	0.118238	0.404831
	H99	H	0.396790	0.881310	0.402245
	H100	H	0.583893	0.407326	0.112251
	H101	H	0.593123	0.599457	0.880589
	H102	H	0.418848	0.586115	0.110891
	H103	H	0.416833	0.419418	0.883867
	H104	H	0.118727	0.597553	0.400557
	H105	H	0.886520	0.599748	0.595509
	H106	H	0.118584	0.408854	0.582057
	H107	H	0.889159	0.401910	0.409081
	H108	H	0.917270	0.615989	0.088844
	H109	H	0.099403	0.385818	0.086103
	H110	H	0.101166	0.617487	0.906788
	H111	H	0.919055	0.388295	0.908521
	H112	H	0.083954	0.909889	0.611570
	H113	H	0.091449	0.092127	0.380888
	H114	H	0.907912	0.093321	0.613164
	H115	H	0.910846	0.907550	0.378374
	H116	H	0.616879	0.094878	0.903635
	H117	H	0.389601	0.097135	0.088601
	H118	H	0.618520	0.911616	0.091188
	H119	H	0.391659	0.913678	0.908349
	C120	C	0.379454	0.010116	0.618512
	C121	C	0.623043	0.993571	0.617374
	C122	C	0.624616	0.010403	0.375359
	C123	C	0.380650	0.993168	0.376087
	C124	C	0.625434	0.381537	0.006304
	C125	C	0.627215	0.623062	0.989423
	C126	C	0.384454	0.620962	0.006706
	C127	C	0.382762	0.380727	0.988667
	C128	C	0.010941	0.624635	0.373533
	C129	C	0.995883	0.625260	0.618003
	C130	C	0.012627	0.380955	0.616090
	C131	C	0.995834	0.379291	0.372586
	C132	C	0.882119	0.510197	0.118359
	C133	C	0.125455	0.494756	0.116296
	C134	C	0.128694	0.510657	0.873772
	C135	C	0.884288	0.493675	0.876384
	C136	C	0.121879	0.883205	0.504476
	C137	C	0.125105	0.123233	0.487205
	C138	C	0.882339	0.122136	0.503699
	C139	C	0.879484	0.880317	0.486774
	C140	C	0.510212	0.123460	0.876223
	C141	C	0.495867	0.124287	0.119209
	C142	C	0.511618	0.879136	0.119193
	C143	C	0.494777	0.878286	0.875213
	C144	C	0.380530	0.887468	0.674394
	C145	C	0.621424	0.116192	0.673970
	C146	C	0.620919	0.887586	0.319039
	C147	C	0.385115	0.115878	0.320282
	C148	C	0.683489	0.380141	0.883431
	C149	C	0.682464	0.622368	0.112568
	C150	C	0.328609	0.622015	0.883710
	C151	C	0.323850	0.379779	0.110946
	C152	C	0.889596	0.679189	0.375017
	C153	C	0.115856	0.684595	0.615614
	C154	C	0.891614	0.322974	0.617157
	C155	C	0.116251	0.322725	0.371302
	C156	C	0.892090	0.381206	0.675117
	C157	C	0.117061	0.625710	0.672901
	C158	C	0.889593	0.619780	0.318392
	C159	C	0.117123	0.382996	0.315615
	C160	C	0.387257	0.676777	0.883152
	C161	C	0.624476	0.679171	0.112871
	C162	C	0.624131	0.324614	0.882697
	C163	C	0.383076	0.324759	0.112247
	C164	C	0.681202	0.888942	0.373529
	C165	C	0.681869	0.114986	0.619346
	C166	C	0.320972	0.888586	0.618874
	C167	C	0.325354	0.115351	0.375322
	C168	C	0.884065	0.387596	0.173575
	C169	C	0.123618	0.617151	0.173340
	C170	C	0.126890	0.389107	0.815422
	C171	C	0.888306	0.616533	0.821123
	C172	C	0.179805	0.882142	0.382026
	C173	C	0.182013	0.125867	0.609478
	C174	C	0.824506	0.122925	0.381809
	C175	C	0.822442	0.880714	0.609730
	C176	C	0.390252	0.181749	0.876514
	C177	C	0.616005	0.183340	0.119599
	C178	C	0.390896	0.820794	0.119459
	C179	C	0.616066	0.823757	0.875374
	C180	C	0.389934	0.881073	0.175340
	C181	C	0.616653	0.123312	0.175907
	C182	C	0.389042	0.121587	0.820279
	C183	C	0.615406	0.881904	0.816932
	C184	C	0.884479	0.178000	0.380536
	C185	C	0.123543	0.181857	0.609731
	C186	C	0.120392	0.827429	0.380782
	C187	C	0.880525	0.824239	0.609880
	C188	C	0.185046	0.389167	0.872947
	C189	C	0.184544	0.615581	0.119144
	C190	C	0.824304	0.388473	0.119498
	C191	C	0.828128	0.615465	0.876721
	C192	C	0.403237	0.094980	0.595129
	C193	C	0.599778	0.908788	0.592745
	C194	C	0.602282	0.095483	0.399660
	C195	C	0.401441	0.907940	0.399384
	C196	C	0.601766	0.405720	0.091822
	C197	C	0.605390	0.599893	0.903451
	C198	C	0.407055	0.596954	0.092267
	C199	C	0.407303	0.404576	0.903542
	C200	C	0.095562	0.603649	0.396380
	C201	C	0.911651	0.600908	0.595718
	C202	C	0.096654	0.404360	0.591606
	C203	C	0.911338	0.401367	0.396760
	C204	C	0.904837	0.595644	0.095155
	C205	C	0.101868	0.409912	0.091918
	C206	C	0.105873	0.595430	0.898657
	C207	C	0.906072	0.408273	0.899271
	C208	C	0.098103	0.907051	0.590139
	C209	C	0.102338	0.098674	0.401617
	C210	C	0.905088	0.098993	0.589141
	C211	C	0.902437	0.903555	0.400642
	C212	C	0.594129	0.100797	0.898996
	C213	C	0.411751	0.100967	0.095728
	C214	C	0.596114	0.902527	0.095573
	C215	C	0.410644	0.900288	0.899665
	Zn216	Zn	0.501635	0.001362	0.745931
	Zn217	Zn	0.503122	0.001413	0.248186
	Zn218	Zn	0.754571	0.501229	-0.002275
	Zn219	Zn	0.256112	0.502151	-0.003203
	Zn220	Zn	0.001988	0.754375	0.495129
	Zn221	Zn	0.003744	0.250312	0.494862
	Zn222	Zn	0.005492	0.502483	0.746390
	Zn223	Zn	0.003554	0.502031	0.244785
	Zn224	Zn	0.504106	0.749022	-0.001994
	Zn225	Zn	0.503736	0.254152	-0.002689
	Zn226	Zn	0.752719	0.002032	0.496144
	Zn227	Zn	0.251435	0.001847	0.496772
	N228	N	0.415949	0.964099	0.674608
	N229	N	0.585570	0.039768	0.672944
	N230	N	0.586599	0.964363	0.319879
	N231	N	0.419089	0.039248	0.320618
	N232	N	0.684525	0.414483	0.961286
	N233	N	0.684446	0.588170	0.034777
	N234	N	0.326818	0.587871	0.961415
	N235	N	0.323335	0.413605	0.032935
	N236	N	0.966157	0.682556	0.408380
	N237	N	0.039295	0.684562	0.582145
	N238	N	0.967517	0.322532	0.581044
	N239	N	0.039712	0.320418	0.406027
	N240	N	0.968341	0.416139	0.674872
	N241	N	0.041451	0.589637	0.674514
	N242	N	0.966013	0.586322	0.317718
	N243	N	0.041146	0.417342	0.316261
	N244	N	0.421251	0.676347	0.960712
	N245	N	0.590634	0.679563	0.035252
	N246	N	0.588835	0.325420	0.959983
	N247	N	0.418919	0.325118	0.035301
	N248	N	0.683312	0.966076	0.407914
	N249	N	0.683052	0.037700	0.584679
	N250	N	0.320206	0.965904	0.584960
	N251	N	0.322452	0.038092	0.409515
	N252	N	0.919375	0.464358	0.173049
	N253	N	0.087484	0.540751	0.171804
	N254	N	0.092711	0.465686	0.815827
	N255	N	0.922455	0.539706	0.820831
	N256	N	0.180861	0.915998	0.460009
	N257	N	0.183008	0.090259	0.532317
	N258	N	0.823161	0.088742	0.459324
	N259	N	0.821639	0.914559	0.531947
	N260	N	0.466514	0.183132	0.910568
	N261	N	0.539940	0.183980	0.085043
	N262	N	0.467647	0.819359	0.085496
	N263	N	0.540048	0.821355	0.910847
	N264	N	0.465978	0.916665	0.175233
	N265	N	0.540869	0.087422	0.175904
	N266	N	0.464365	0.085718	0.820081
	N267	N	0.538890	0.914928	0.816610
	N268	N	0.919940	0.177502	0.457274
	N269	N	0.089115	0.180679	0.532344
	N270	N	0.084763	0.828177	0.457933
	N271	N	0.915086	0.823744	0.532189
	N272	N	0.186386	0.466085	0.908358
	N273	N	0.185787	0.538618	0.084388
	N274	N	0.823074	0.465768	0.085684
	N275	N	0.825442	0.538017	0.910324
	O276	O	0.071800	0.098772	-0.007721
	H277	H	0.076720	0.088318	-0.013658
	H278	H	0.061305	0.091984	-0.003861
	O279	O	0.048908	-0.117748	-0.033635
	H280	H	0.054597	-0.121601	-0.023524
	H281	H	0.050518	-0.116983	-0.039763
	O282	O	0.910478	-0.041036	0.088559
	H283	H	0.911728	-0.044646	0.092640
	H284	H	0.908369	-0.037364	0.086709
	O285	O	0.132472	0.884521	-0.061743
	H286	H	0.137570	0.897130	-0.076928
	H287	H	0.130624	0.890624	-0.059065
	O288	O	0.516443	0.410377	0.516222
	H289	H	0.506210	0.405495	0.505406
	H290	H	0.515145	0.422225	0.513594
	O291	O	0.491148	0.622637	0.572165
	H292	H	0.493380	0.617372	0.573979
	H293	H	0.499865	0.619850	0.578720
	O294	O	0.871883	0.834280	1.008391
	H295	H	0.891261	0.840027	1.009684
	H296	H	0.880855	0.827079	1.003626
	O297	O	0.121634	-0.062438	-0.007970
	H298	H	0.113014	-0.055821	-0.010782
	H299	H	0.120521	-0.057462	-0.009455
	O300	O	0.341865	0.416241	0.558518
	H301	H	0.350075	0.410520	0.561491
	H302	H	0.343970	0.416846	0.546048
	O303	O	-0.042262	0.956566	0.976509
	H304	H	-0.026481	0.963880	0.982523
	H305	H	-0.052123	0.971322	0.964624
	O306	O	0.399857	0.524276	0.528523
	H307	H	0.393306	0.527297	0.535357
	H308	H	0.395420	0.528764	0.531668
	O309	O	0.990015	-0.002465	0.015751
	H310	H	0.992034	-0.006351	0.014350
	H311	H	0.974416	-0.010063	0.029105
	O312	O	0.123139	-0.039228	0.793439
	H313	H	0.125731	-0.042352	0.795578
	H314	H	0.123487	-0.033577	0.771946
	O315	O	0.117776	1.002984	0.988949
	H316	H	0.100127	1.004167	0.994231
	H317	H	0.109320	1.006492	0.980727
	O318	O	0.527872	0.451797	0.373943
	H319	H	0.519735	0.455697	0.364927
	H320	H	0.527199	0.442771	0.376436
	O321	O	0.352341	0.443282	0.619994
	H322	H	0.355320	0.416304	0.620913
	H323	H	0.333130	0.446473	0.638675
	O324	O	0.534051	0.506551	0.429091
	H325	H	0.523056	0.511047	0.427085
	H326	H	0.544375	0.519726	0.434404
	O327	O	-0.448485	1.548330	1.516054
	H328	H	-0.445859	1.550451	1.521883
	H329	H	-0.431160	1.547947	1.522244
	O330	O	0.550040	0.407511	0.471268
	H331	H	0.561493	0.401305	0.467308
	H332	H	0.544153	0.402473	0.457402
	O333	O	0.050760	1.044307	1.007303
	H334	H	0.049380	1.049134	1.015717
	H335	H	0.048393	1.057056	1.010244
	O336	O	1.129188	1.179864	1.106493
	H337	H	1.146170	1.183785	1.098771
	H338	H	1.129869	1.172578	1.107090
	O339	O	0.532329	0.584582	0.500018
	H340	H	0.536287	0.575015	0.499928
	H341	H	0.521464	0.583780	0.502847
	O342	O	1.009219	-0.000917	-0.041153
	H343	H	1.005073	0.003718	-0.043622
	H344	H	1.018448	0.002971	-0.041402
	O345	O	0.408966	0.575638	0.455232
	H346	H	0.407553	0.581063	0.460371
	H347	H	0.414584	0.582422	0.453187
	O348	O	0.545771	0.620641	0.647414
	H349	H	0.543818	0.619021	0.650132
	H350	H	0.550426	0.617641	0.666100
	O351	O	0.872866	0.947321	-0.001527
	H352	H	0.865803	0.945068	-0.006838
	H353	H	0.869531	0.938722	0.003022
	O354	O	0.905679	0.026191	0.943496
	H355	H	0.899257	0.009697	0.956976
	H356	H	0.909993	0.030438	0.940460
	O357	O	0.646633	0.436091	0.570649
	H358	H	0.644088	0.442389	0.562158
	H359	H	0.648809	0.444969	0.560881
	O360	O	-0.087336	0.048432	-0.022051
	H361	H	-0.087745	0.040386	-0.019541
	H362	H	-0.087217	0.057375	-0.015242
	O363	O	0.585829	0.458092	0.494717
	H364	H	0.591940	0.462112	0.497396
	H365	H	0.587896	0.451691	0.490595
	O366	O	0.556315	0.615789	0.533294
	H367	H	0.572023	0.618244	0.532906
	H368	H	0.552675	0.598217	0.547097
	O369	O	1.006242	0.097054	-0.052879
	H370	H	1.019875	0.102005	-0.060425
	H371	H	1.007333	0.110953	-0.049696
	O372	O	0.524234	0.416332	0.441000
	H373	H	0.527480	0.419378	0.455431
	H374	H	0.523132	0.424736	0.440134
	O375	O	0.435903	0.417659	0.478447
	H376	H	0.434496	0.417774	0.481516
	H377	H	0.436764	0.427772	0.468286
	O378	O	0.468188	0.529044	0.548152
	H379	H	0.467524	0.543374	0.543335
	H380	H	0.465964	0.529107	0.554543
	O381	O	0.527759	0.593826	0.473718
	H382	H	0.540337	0.603512	0.473445
	H383	H	0.532291	0.587413	0.488641
	O384	O	-0.118060	1.085065	-0.041684
	H385	H	-0.113057	1.100390	-0.031034
	H386	H	-0.131462	1.090888	-0.045019
	O387	O	0.926827	-0.137662	1.057833
	H388	H	0.922072	-0.157185	1.052291
	H389	H	0.926886	-0.141695	1.041292
	O390	O	0.031520	0.968312	0.101539
	H391	H	0.042593	0.968494	0.108723
	H392	H	0.046697	0.972648	0.110082
	O393	O	1.165533	1.109679	0.125462
	H394	H	1.168830	1.104330	0.135294
	H395	H	1.176413	1.104049	0.133904
	O396	O	0.574347	0.613100	0.571853
	H397	H	0.591613	0.620335	0.580297
	H398	H	0.572786	0.618023	0.569513
	O399	O	-0.129169	1.086619	0.969103
	H400	H	-0.129963	1.075194	0.979868
	H401	H	-0.127781	1.077871	0.969862
	O402	O	0.968201	1.117233	0.934647
	H403	H	0.976475	1.123204	0.935107
	H404	H	0.953816	1.134437	0.926578
	O405	O	0.566801	0.483220	0.476931
	H406	H	0.563582	0.489398	0.471171
	H407	H	0.565134	0.491700	0.483210
