data_Molecule from HDF5

_cell_length_a		16.304034
_cell_length_b		16.433004
_cell_length_c		16.404015
_cell_angle_alpha	89.920735
_cell_angle_beta	90.051860
_cell_angle_gamma	89.910761
_symmetry_space_group_name_H-M	'P 1'
_symmetry_Int_Tables_number		1

loop_
	_symmetry_equiv_pos_as_xyz
	x,y,z

loop_
	_atom_site_label
	_atom_site_type_symbol
	_atom_site_fract_x
	_atom_site_fract_y
	_atom_site_fract_z
	H0	H	0.396177	0.853536	0.724346
	H1	H	0.608320	0.170318	0.724766
	H2	H	0.608017	0.854398	0.279502
	H3	H	0.392129	0.170142	0.278570
	H4	H	0.722331	0.407018	0.843222
	H5	H	0.722157	0.614253	0.161761
	H6	H	0.279189	0.618031	0.843769
	H7	H	0.283854	0.409594	0.162835
	H8	H	0.843589	0.733866	0.395561
	H9	H	0.161894	0.732005	0.609073
	H10	H	0.843427	0.288859	0.608353
	H11	H	0.162080	0.290078	0.397380
	H12	H	0.843214	0.403757	0.723878
	H13	H	0.161254	0.617168	0.724228
	H14	H	0.842882	0.617263	0.281467
	H15	H	0.161868	0.405613	0.281769
	H16	H	0.394121	0.735187	0.844273
	H17	H	0.608652	0.733617	0.161090
	H18	H	0.610846	0.288303	0.844772
	H19	H	0.396336	0.290781	0.161159
	H20	H	0.723488	0.854046	0.396229
	H21	H	0.723824	0.170689	0.608778
	H22	H	0.283391	0.851054	0.606004
	H23	H	0.279291	0.170234	0.397705
	H24	H	0.895478	0.352616	0.224657
	H25	H	0.108164	0.669106	0.225251
	H26	H	0.109255	0.352980	0.780710
	H27	H	0.894670	0.668516	0.778667
	H28	H	0.222106	0.906729	0.343389
	H29	H	0.221062	0.111694	0.662976
	H30	H	0.780300	0.118782	0.343122
	H31	H	0.782709	0.908670	0.662302
	H32	H	0.343076	0.234589	0.895623
	H33	H	0.662339	0.230259	0.106055
	H34	H	0.341249	0.791698	0.106533
	H35	H	0.661267	0.789861	0.895919
	H36	H	0.340932	0.907194	0.222086
	H37	H	0.661165	0.116684	0.222840
	H38	H	0.340185	0.114675	0.784449
	H39	H	0.662178	0.908230	0.782353
	H40	H	0.897503	0.233040	0.343354
	H41	H	0.108942	0.231597	0.661694
	H42	H	0.109844	0.788709	0.344665
	H43	H	0.897700	0.791351	0.662193
	H44	H	0.223175	0.352309	0.899581
	H45	H	0.221943	0.671163	0.107358
	H46	H	0.781939	0.351494	0.105966
	H47	H	0.781126	0.669768	0.896718
	H48	H	0.416207	0.122466	0.590265
	H49	H	0.589475	0.899532	0.591867
	H50	H	0.591028	0.126876	0.409603
	H51	H	0.422692	0.902138	0.411028
	H52	H	0.587551	0.420280	0.115387
	H53	H	0.587083	0.595060	0.892217
	H54	H	0.406207	0.597774	0.117362
	H55	H	0.417209	0.418320	0.888957
	H56	H	0.115980	0.602600	0.417678
	H57	H	0.890015	0.599163	0.589677
	H58	H	0.115319	0.419666	0.583701
	H59	H	0.884843	0.411368	0.415947
	H60	H	0.114006	0.429417	0.593718
	H61	H	0.887319	0.599887	0.591979
	H62	H	0.115178	0.595221	0.413663
	H63	H	0.893246	0.428065	0.421053
	H64	H	0.419565	0.599180	0.112777
	H65	H	0.585923	0.606182	0.888496
	H66	H	0.594204	0.419199	0.117900
	H67	H	0.406962	0.423227	0.886806
	H68	H	0.585372	0.123564	0.412821
	H69	H	0.591666	0.899780	0.589775
	H70	H	0.406944	0.125504	0.588383
	H71	H	0.408611	0.899488	0.419886
	H72	H	0.912230	0.624228	0.088312
	H73	H	0.098213	0.396092	0.094327
	H74	H	0.087266	0.623642	0.914352
	H75	H	0.919372	0.401337	0.917290
	H76	H	0.087519	0.922873	0.615632
	H77	H	0.091626	0.100775	0.388789
	H78	H	0.915867	0.106395	0.616606
	H79	H	0.911971	0.922806	0.388891
	H80	H	0.616841	0.103070	0.912160
	H81	H	0.385078	0.096544	0.099357
	H82	H	0.616636	0.914694	0.087302
	H83	H	0.387883	0.919645	0.916598
	H84	H	0.610912	0.928709	0.085040
	H85	H	0.384235	0.111427	0.087532
	H86	H	0.614977	0.100291	0.914578
	H87	H	0.389253	0.927879	0.913634
	H88	H	0.907764	0.097912	0.616565
	H89	H	0.090460	0.099414	0.389380
	H90	H	0.091957	0.915529	0.618630
	H91	H	0.914350	0.922062	0.389355
	H92	H	0.091217	0.624549	0.914079
	H93	H	0.086800	0.398247	0.096469
	H94	H	0.911452	0.624806	0.093997
	H95	H	0.905418	0.396138	0.916343
	H96	H	0.411214	0.126656	0.597274
	H97	H	0.592005	0.898528	0.592587
	H98	H	0.591565	0.124560	0.416460
	H99	H	0.409530	0.894761	0.403873
	H100	H	0.592661	0.425039	0.114631
	H101	H	0.596407	0.600100	0.887211
	H102	H	0.412551	0.610433	0.119030
	H103	H	0.415411	0.429561	0.891593
	H104	H	0.118658	0.601754	0.409444
	H105	H	0.888653	0.602248	0.589208
	H106	H	0.119781	0.416595	0.596461
	H107	H	0.886077	0.425732	0.402777
	H108	H	0.916625	0.623065	0.092267
	H109	H	0.091049	0.399905	0.086004
	H110	H	0.088944	0.624822	0.910505
	H111	H	0.914615	0.395069	0.904650
	H112	H	0.096248	0.923069	0.616799
	H113	H	0.089978	0.101369	0.389039
	H114	H	0.918351	0.095638	0.612346
	H115	H	0.912688	0.920208	0.388209
	H116	H	0.616543	0.099113	0.911002
	H117	H	0.391981	0.095140	0.081100
	H118	H	0.617880	0.925268	0.098512
	H119	H	0.386034	0.921596	0.908098
	C120	C	0.380258	0.019717	0.623554
	C121	C	0.623460	1.004236	0.623921
	C122	C	0.622882	0.020755	0.379914
	C123	C	0.379839	1.003468	0.380010
	C124	C	0.623953	0.389440	0.011033
	C125	C	0.623284	0.633118	0.994014
	C126	C	0.379707	0.634502	0.011240
	C127	C	0.381321	0.391424	0.994277
	C128	C	0.011093	0.632837	0.380876
	C129	C	0.993907	0.632341	0.623373
	C130	C	0.011171	0.389209	0.623825
	C131	C	0.993832	0.389816	0.381267
	C132	C	0.881048	0.519118	0.123370
	C133	C	0.123630	0.503146	0.124175
	C134	C	0.122908	0.519755	0.881067
	C135	C	0.880549	0.502237	0.880322
	C136	C	0.124136	0.888825	0.511702
	C137	C	0.123365	0.132054	0.494211
	C138	C	0.880788	0.132806	0.510451
	C139	C	0.881110	0.890381	0.494316
	C140	C	0.510797	0.133650	0.880348
	C141	C	0.492981	0.132773	0.122407
	C142	C	0.509586	0.890884	0.122681
	C143	C	0.493273	0.890750	0.880358
	C144	C	0.378340	0.900666	0.683827
	C145	C	0.626334	0.122823	0.684654
	C146	C	0.626055	0.901872	0.319518
	C147	C	0.375175	0.122281	0.318916
	C148	C	0.683458	0.387961	0.891286
	C149	C	0.682772	0.633736	0.113933
	C150	C	0.319032	0.636536	0.891637
	C151	C	0.322723	0.390333	0.114606
	C152	C	0.891604	0.693808	0.377665
	C153	C	0.113956	0.692211	0.626596
	C154	C	0.891323	0.328630	0.626640
	C155	C	0.113923	0.329699	0.378869
	C156	C	0.891235	0.386354	0.684049
	C157	C	0.113633	0.634789	0.684046
	C158	C	0.891052	0.635532	0.320835
	C159	C	0.113888	0.387328	0.321167
	C160	C	0.376451	0.694765	0.891789
	C161	C	0.626001	0.692935	0.113608
	C162	C	0.627377	0.328989	0.892177
	C163	C	0.378984	0.331218	0.113672
	C164	C	0.683752	0.901811	0.377642
	C165	C	0.683973	0.122924	0.626508
	C166	C	0.321877	0.899349	0.624878
	C167	C	0.318741	0.122442	0.378494
	C168	C	0.878159	0.399906	0.183926
	C169	C	0.125923	0.622100	0.184658
	C170	C	0.126537	0.400319	0.821249
	C171	C	0.877049	0.620958	0.819003
	C172	C	0.183366	0.887757	0.391562
	C173	C	0.182376	0.132066	0.614719
	C174	C	0.820417	0.136118	0.390929
	C175	C	0.821949	0.889685	0.614347
	C176	C	0.390663	0.194184	0.877878
	C177	C	0.613767	0.191507	0.124890
	C178	C	0.389209	0.831457	0.124863
	C179	C	0.613320	0.830068	0.877727
	C180	C	0.389049	0.889277	0.182108
	C181	C	0.613355	0.134692	0.182754
	C182	C	0.389260	0.134674	0.822246
	C183	C	0.613931	0.889058	0.821312
	C184	C	0.878774	0.193205	0.390998
	C185	C	0.126320	0.191389	0.614194
	C186	C	0.127277	0.828941	0.392244
	C187	C	0.879134	0.830967	0.614047
	C188	C	0.183676	0.400262	0.880091
	C189	C	0.182441	0.623270	0.125690
	C190	C	0.821263	0.399487	0.124899
	C191	C	0.820642	0.621934	0.878275
	C192	C	0.404455	0.103184	0.598953
	C193	C	0.598108	0.921022	0.598766
	C194	C	0.596770	0.103512	0.405538
	C195	C	0.405925	0.920585	0.404657
	C196	C	0.598774	0.414403	0.094375
	C197	C	0.597220	0.607838	0.910848
	C198	C	0.405374	0.609668	0.094506
	C199	C	0.406095	0.416308	0.910795
	C200	C	0.094800	0.607118	0.406387
	C201	C	0.910563	0.607567	0.597681
	C202	C	0.094541	0.414628	0.598473
	C203	C	0.909914	0.414758	0.405889
	C204	C	0.906203	0.602335	0.098654
	C205	C	0.099080	0.419887	0.099447
	C206	C	0.096689	0.602799	0.905900
	C207	C	0.905753	0.419212	0.905311
	C208	C	0.099302	0.913354	0.595165
	C209	C	0.098023	0.107526	0.410840
	C210	C	0.906469	0.107262	0.593643
	C211	C	0.905972	0.914676	0.410502
	C212	C	0.594307	0.108229	0.905333
	C213	C	0.409204	0.108189	0.096641
	C214	C	0.593385	0.915758	0.097595
	C215	C	0.409498	0.915823	0.905597
	Zn216	Zn	0.501402	0.012197	0.752229
	Zn217	Zn	0.501002	0.012215	0.250575
	Zn218	Zn	0.751673	0.511048	0.002048
	Zn219	Zn	0.252155	0.512091	0.002915
	Zn220	Zn	0.002638	0.760912	0.502635
	Zn221	Zn	0.002532	0.261128	0.502874
	Zn222	Zn	0.002599	0.510940	0.751323
	Zn223	Zn	0.002052	0.510782	0.252852
	Zn224	Zn	0.501852	0.762310	0.002236
	Zn225	Zn	0.501973	0.261478	0.002311
	Zn226	Zn	0.752277	0.011958	0.501915
	Zn227	Zn	0.251744	0.010499	0.502753
	N228	N	0.413970	0.976411	0.683067
	N229	N	0.589403	0.047830	0.683211
	N230	N	0.589165	0.977000	0.320518
	N231	N	0.412510	0.047335	0.319867
	N232	N	0.681434	0.425027	0.966227
	N233	N	0.680982	0.597356	0.038652
	N234	N	0.320813	0.600028	0.966973
	N235	N	0.323960	0.427124	0.039291
	N236	N	0.967405	0.692372	0.414166
	N237	N	0.038577	0.690624	0.589267
	N238	N	0.966867	0.330182	0.590002
	N239	N	0.038272	0.331064	0.415640
	N240	N	0.966806	0.423262	0.682458
	N241	N	0.038033	0.598199	0.682138
	N242	N	0.966524	0.598457	0.322453
	N243	N	0.038197	0.424035	0.322652
	N244	N	0.413462	0.693571	0.967069
	N245	N	0.589991	0.692951	0.037638
	N246	N	0.591097	0.329812	0.967700
	N247	N	0.414828	0.331968	0.037885
	N248	N	0.681885	0.976705	0.414653
	N249	N	0.681999	0.048121	0.589264
	N250	N	0.323155	0.974444	0.587897
	N251	N	0.321422	0.047625	0.415712
	N252	N	0.914573	0.475244	0.183060
	N253	N	0.089979	0.546587	0.183608
	N254	N	0.089680	0.475597	0.821773
	N255	N	0.913517	0.545502	0.820017
	N256	N	0.181629	0.924404	0.466882
	N257	N	0.180963	0.096108	0.539138
	N258	N	0.821631	0.099553	0.466199
	N259	N	0.823013	0.925785	0.538750
	N260	N	0.467260	0.194071	0.912966
	N261	N	0.537945	0.190552	0.088235
	N262	N	0.465182	0.832358	0.088610
	N263	N	0.537143	0.831045	0.913677
	N264	N	0.465082	0.925439	0.180899
	N265	N	0.537066	0.099141	0.181548
	N266	N	0.465067	0.097877	0.823438
	N267	N	0.538156	0.925686	0.822594
	N268	N	0.915651	0.191364	0.466469
	N269	N	0.090400	0.191465	0.538203
	N270	N	0.091184	0.829669	0.467823
	N271	N	0.915076	0.831309	0.538203
	N272	N	0.181584	0.475610	0.916394
	N273	N	0.181115	0.548227	0.088697
	N274	N	0.822875	0.474744	0.087944
	N275	N	0.822480	0.547104	0.915512
	O276	O	0.991813	0.191402	0.890002
	H277	H	0.998434	0.202708	0.892928
	H278	H	0.979004	0.176103	0.900770
	O279	O	0.695763	0.589320	0.706241
	H280	H	0.725384	0.595312	0.717329
	H281	H	0.705548	0.564543	0.678774
	O282	O	0.533690	0.299859	0.294095
	H283	H	0.542396	0.274000	0.262186
	H284	H	0.562820	0.320019	0.298964
	O285	O	1.106093	0.023293	-0.005770
	H286	H	1.107541	0.020982	-0.017300
	H287	H	1.117764	0.016627	0.002731
	O288	O	-0.028908	-0.133550	0.945265
	H289	H	-0.023714	-0.128285	0.950445
	H290	H	-0.036336	-0.147820	0.944266
	O291	O	0.661223	0.704346	0.575714
	H292	H	0.631588	0.717970	0.576831
	H293	H	0.656069	0.671200	0.588720
	O294	O	0.286237	0.585389	0.483803
	H295	H	0.277254	0.569752	0.495864
	H296	H	0.277018	0.587466	0.499616
	O297	O	0.948995	1.159031	0.994137
	H298	H	0.935552	1.164912	1.002960
	H299	H	0.954138	1.169342	0.995853
	O300	O	-0.144458	0.171496	-0.097957
	H301	H	-0.149900	0.157054	-0.097921
	H302	H	-0.142143	0.182124	-0.089777
	O303	O	0.624894	0.594468	0.620138
	H304	H	0.635931	0.582437	0.605694
	H305	H	0.634678	0.597283	0.604378
	O306	O	1.017547	0.187785	-0.024629
	H307	H	1.037925	0.181382	-0.021260
	H308	H	1.021797	0.197946	-0.032842
	O309	O	0.324209	0.422379	0.504837
	H310	H	0.333099	0.414703	0.507712
	H311	H	0.347647	0.408744	0.512691
	O312	O	0.904273	0.994425	0.016964
	H313	H	0.907923	0.982925	0.026961
	H314	H	0.899768	0.987449	0.007283
	O315	O	0.388638	0.327833	0.456159
	H316	H	0.414665	0.329676	0.435445
	H317	H	0.397643	0.305268	0.459332
	O318	O	0.292143	0.493577	0.711057
	H319	H	0.277001	0.477782	0.716093
	H320	H	0.282792	0.462552	0.720114
	O321	O	1.084125	-0.015311	0.832868
	H322	H	1.079291	-0.004047	0.838333
	H323	H	1.083925	0.000221	0.834183
	O324	O	0.106850	0.054857	0.960936
	H325	H	0.102794	0.045674	0.954817
	H326	H	0.119330	0.069324	0.967634
	O327	O	0.706564	0.581745	0.459088
	H328	H	0.701906	0.594530	0.460391
	H329	H	0.718978	0.595129	0.452056
	O330	O	0.632297	0.380649	0.358918
	H331	H	0.632768	0.401171	0.372332
	H332	H	0.637548	0.402122	0.358410
	O333	O	0.486182	0.673885	0.447579
	H334	H	0.481894	0.679761	0.453749
	H335	H	0.465649	0.686214	0.442963
	O336	O	0.707474	0.309457	0.484975
	H337	H	0.710459	0.287559	0.472944
	H338	H	0.693891	0.300940	0.501134
	O339	O	1.046535	-0.060559	1.095547
	H340	H	1.069029	-0.076427	1.097022
	H341	H	1.051082	-0.049522	1.098790
	O342	O	-0.314464	0.606873	0.537715
	H343	H	-0.315586	0.616609	0.539026
	H344	H	-0.316002	0.617982	0.557941
	O345	O	-0.038452	0.897582	0.844460
	H346	H	-0.036498	0.904550	0.850404
	H347	H	-0.026795	0.886667	0.835368
	O348	O	-0.400286	0.662950	-0.639437
	H349	H	-0.411577	0.676881	-0.638168
	H350	H	-0.405885	0.675176	-0.629208
	O351	O	-0.037829	-0.092433	-0.031499
	H352	H	-0.040341	-0.061582	-0.036423
	H353	H	-0.051309	-0.101935	-0.030898
	O354	O	1.640648	1.514547	0.303443
	H355	H	1.643435	1.532187	0.299152
	H356	H	1.621930	1.531275	0.297402
	O357	O	0.073998	1.153968	0.188140
	H358	H	0.067010	1.152206	0.184857
	H359	H	0.054051	1.155054	0.186952
	O360	O	0.545062	0.451659	0.711186
	H361	H	0.552025	0.470228	0.691603
	H362	H	0.552358	0.471491	0.705360
	O363	O	0.460037	0.540065	0.499299
	H364	H	0.453238	0.540109	0.515727
	H365	H	0.449427	0.525316	0.489272
	O366	O	0.483107	0.711758	0.615320
	H367	H	0.477021	0.701672	0.639091
	H368	H	0.479131	0.707947	0.625097
	O369	O	0.478938	0.299065	0.711603
	H370	H	0.483701	0.297880	0.742023
	H371	H	0.493353	0.321250	0.725829
	O372	O	0.561225	0.439346	0.536717
	H373	H	0.572508	0.424949	0.528005
	H374	H	0.556702	0.453977	0.520388
	O375	O	0.321740	0.699352	0.373688
	H376	H	0.309302	0.673092	0.370251
	H377	H	0.320671	0.703902	0.414326
	O378	O	0.321436	0.526726	0.304579
	H379	H	0.305163	0.514698	0.330485
	H380	H	0.327162	0.517201	0.291620
	O381	O	0.491854	0.340700	0.523003
	H382	H	0.480253	0.339902	0.539623
	H383	H	0.489456	0.342746	0.543955
	O384	O	-0.011547	1.180862	1.034866
	H385	H	-0.012698	1.182248	1.047263
	H386	H	-0.002596	1.170801	1.037734
	O387	O	0.888818	0.908120	0.071871
	H388	H	0.879731	0.927623	0.069198
	H389	H	0.898133	0.905738	0.083264
	O390	O	0.317160	0.333368	0.678724
	H391	H	0.325209	0.323545	0.649764
	H392	H	0.346925	0.317585	0.678532
	O393	O	1.026189	0.040139	1.074932
	H394	H	1.017540	0.036190	1.081263
	H395	H	1.019859	0.030450	1.072815
	O396	O	0.174469	-0.112523	-0.104072
	H397	H	0.181077	-0.117881	-0.106248
	H398	H	0.171862	-0.104334	-0.099156
	O399	O	0.530609	0.477527	0.351510
	H400	H	0.527828	0.473964	0.353549
	H401	H	0.537347	0.497138	0.344500
	O402	O	0.437848	0.712596	1.301480
	H403	H	0.424441	0.730464	1.309485
	H404	H	0.407482	0.700292	1.299068
	O405	O	-0.095440	-0.054159	0.124397
	H406	H	-0.088408	-0.044148	0.113165
	H407	H	-0.108970	-0.048092	0.134478
	O408	O	0.920680	0.968766	0.952885
	H409	H	0.916117	0.963033	0.954681
	H410	H	0.912943	0.959443	0.953319
	O411	O	1.455246	0.554261	-0.366405
	H412	H	1.459478	0.564156	-0.363974
	H413	H	1.460169	0.570953	-0.365377
	O414	O	-0.094211	-0.112619	0.982419
	H415	H	-0.083979	-0.105281	0.983427
	H416	H	-0.098958	-0.123640	0.986485
	O417	O	1.125213	-0.047580	1.029800
	H418	H	1.129221	-0.052657	1.031875
	H419	H	1.124948	-0.054964	1.024617
	O420	O	-0.076200	1.061304	0.140190
	H421	H	-0.097592	1.062339	0.139684
	H422	H	-0.081747	1.059364	0.151880
	O423	O	1.056771	-0.098943	0.127169
	H424	H	1.069254	-0.120464	0.120229
	H425	H	1.055314	-0.093576	0.133295
	O426	O	0.058470	-0.026479	1.158943
	H427	H	0.048644	-0.025322	1.160706
	H428	H	0.054605	-0.041556	1.163699
	O429	O	0.381028	0.581705	0.655143
	H430	H	0.380324	0.559867	0.656248
	H431	H	0.369770	0.580979	0.648903
