data_Molecule from HDF5

_cell_length_a		16.429936
_cell_length_b		16.233313
_cell_length_c		16.205625
_cell_angle_alpha	89.892058
_cell_angle_beta	89.875384
_cell_angle_gamma	90.049346
_symmetry_space_group_name_H-M	'P 1'
_symmetry_Int_Tables_number		1

loop_
	_symmetry_equiv_pos_as_xyz
	x,y,z

loop_
	_atom_site_label
	_atom_site_type_symbol
	_atom_site_fract_x
	_atom_site_fract_y
	_atom_site_fract_z
	H0	H	0.399564	0.834165	0.713208
	H1	H	0.593988	0.162804	0.710583
	H2	H	0.594544	0.833598	0.286087
	H3	H	0.401195	0.163272	0.286302
	H4	H	0.713768	0.397750	0.836198
	H5	H	0.713028	0.599935	0.162336
	H6	H	0.282130	0.599575	0.835671
	H7	H	0.279726	0.396684	0.162148
	H8	H	0.835790	0.714530	0.401577
	H9	H	0.160740	0.713361	0.596867
	H10	H	0.835500	0.282434	0.599230
	H11	H	0.160133	0.282751	0.399296
	H12	H	0.835439	0.398877	0.716157
	H13	H	0.160465	0.596195	0.713812
	H14	H	0.835382	0.598515	0.285038
	H15	H	0.159767	0.399902	0.281934
	H16	H	0.401690	0.710678	0.834381
	H17	H	0.594275	0.711921	0.163355
	H18	H	0.593764	0.287693	0.833837
	H19	H	0.398612	0.284141	0.163418
	H20	H	0.713556	0.835355	0.397393
	H21	H	0.714175	0.161058	0.599682
	H22	H	0.282712	0.834581	0.598439
	H23	H	0.282141	0.161144	0.397888
	H24	H	0.898800	0.335145	0.214281
	H25	H	0.092878	0.664627	0.209899
	H26	H	0.094707	0.334075	0.786768
	H27	H	0.901968	0.663453	0.786360
	H28	H	0.214288	0.897241	0.336207
	H29	H	0.213530	0.098409	0.662236
	H30	H	0.782302	0.098458	0.336224
	H31	H	0.780275	0.895590	0.661835
	H32	H	0.335236	0.214802	0.900039
	H33	H	0.659622	0.215896	0.097440
	H34	H	0.335031	0.782423	0.098646
	H35	H	0.660268	0.784336	0.900195
	H36	H	0.335458	0.899337	0.215529
	H37	H	0.660194	0.098452	0.214207
	H38	H	0.334577	0.096928	0.784404
	H39	H	0.660028	0.901574	0.783957
	H40	H	0.900236	0.212602	0.335254
	H41	H	0.094282	0.210108	0.664261
	H42	H	0.094677	0.786627	0.334620
	H43	H	0.901683	0.786403	0.664180
	H44	H	0.214157	0.335749	0.898352
	H45	H	0.213305	0.661556	0.100282
	H46	H	0.780060	0.335538	0.100615
	H47	H	0.781940	0.662328	0.898444
	H48	H	0.407789	0.115664	0.595747
	H49	H	0.588594	0.880413	0.596751
	H50	H	0.590330	0.112825	0.414271
	H51	H	0.408267	0.878675	0.393613
	H52	H	0.581903	0.408028	0.113374
	H53	H	0.590714	0.587371	0.883649
	H54	H	0.405422	0.589690	0.115491
	H55	H	0.406698	0.408447	0.883742
	H56	H	0.110964	0.591253	0.412240
	H57	H	0.880410	0.592112	0.601407
	H58	H	0.114148	0.403823	0.595265
	H59	H	0.887236	0.408639	0.416640
	H60	H	0.112935	0.402530	0.590998
	H61	H	0.881259	0.598951	0.589216
	H62	H	0.113093	0.587570	0.399421
	H63	H	0.883200	0.412408	0.399997
	H64	H	0.402634	0.592936	0.116918
	H65	H	0.589037	0.595507	0.880730
	H66	H	0.591071	0.401523	0.117899
	H67	H	0.402882	0.405571	0.881325
	H68	H	0.596494	0.117676	0.404656
	H69	H	0.587061	0.884135	0.586982
	H70	H	0.406735	0.112677	0.584892
	H71	H	0.413712	0.886755	0.416256
	H72	H	0.901096	0.615826	0.090429
	H73	H	0.089489	0.384270	0.085962
	H74	H	0.096492	0.617140	0.908458
	H75	H	0.900582	0.380860	0.907900
	H76	H	0.098969	0.913072	0.616910
	H77	H	0.099226	0.094507	0.378880
	H78	H	0.897414	0.089780	0.618961
	H79	H	0.891686	0.904791	0.377182
	H80	H	0.611850	0.089718	0.904206
	H81	H	0.385004	0.086883	0.089870
	H82	H	0.615001	0.897297	0.090609
	H83	H	0.380585	0.905451	0.899213
	H84	H	0.608860	0.909754	0.086009
	H85	H	0.381588	0.091697	0.095790
	H86	H	0.614200	0.095211	0.901771
	H87	H	0.381416	0.899138	0.908659
	H88	H	0.906648	0.082502	0.613462
	H89	H	0.091415	0.080685	0.384670
	H90	H	0.082117	0.909661	0.613379
	H91	H	0.907788	0.918685	0.387241
	H92	H	0.088581	0.615767	0.901716
	H93	H	0.093176	0.381061	0.093329
	H94	H	0.901906	0.617062	0.093575
	H95	H	0.906223	0.382990	0.906430
	H96	H	0.398013	0.117049	0.590416
	H97	H	0.596368	0.878953	0.589760
	H98	H	0.585430	0.114057	0.403220
	H99	H	0.391170	0.878444	0.410695
	H100	H	0.592539	0.413616	0.115183
	H101	H	0.596060	0.591558	0.880257
	H102	H	0.401392	0.589157	0.117006
	H103	H	0.402507	0.410787	0.883003
	H104	H	0.116768	0.600382	0.404100
	H105	H	0.885725	0.586283	0.590363
	H106	H	0.111857	0.407009	0.592406
	H107	H	0.880204	0.395938	0.406049
	H108	H	0.904418	0.615166	0.091230
	H109	H	0.085070	0.382884	0.092952
	H110	H	0.087800	0.612900	0.912169
	H111	H	0.904765	0.383776	0.912038
	H112	H	0.092090	0.896175	0.619587
	H113	H	0.083180	0.095159	0.383299
	H114	H	0.909011	0.094830	0.616767
	H115	H	0.912821	0.897168	0.381934
	H116	H	0.612210	0.095293	0.908895
	H117	H	0.383158	0.094772	0.088392
	H118	H	0.613515	0.908396	0.099764
	H119	H	0.384443	0.910482	0.909536
	C120	C	0.375915	0.006576	0.619911
	C121	C	0.618857	0.989674	0.619657
	C122	C	0.618962	0.006535	0.378140
	C123	C	0.376321	0.989770	0.377533
	C124	C	0.617785	0.378620	0.007427
	C125	C	0.619300	0.620263	0.990334
	C126	C	0.375100	0.619905	0.007843
	C127	C	0.375106	0.377731	0.990499
	C128	C	0.006012	0.621464	0.377412
	C129	C	0.989926	0.620578	0.621399
	C130	C	0.005698	0.375721	0.621897
	C131	C	0.990015	0.376596	0.377279
	C132	C	0.874316	0.507642	0.121094
	C133	C	0.117730	0.490922	0.119708
	C134	C	0.119171	0.506963	0.878700
	C135	C	0.876042	0.490659	0.879024
	C136	C	0.119227	0.877438	0.508032
	C137	C	0.119533	0.119255	0.490717
	C138	C	0.875786	0.119019	0.508403
	C139	C	0.876080	0.877265	0.490752
	C140	C	0.505757	0.121500	0.876579
	C141	C	0.489964	0.120810	0.120364
	C142	C	0.505492	0.876580	0.121045
	C143	C	0.489560	0.876691	0.877018
	C144	C	0.378786	0.883288	0.675517
	C145	C	0.615878	0.113590	0.673989
	C146	C	0.615837	0.882985	0.322962
	C147	C	0.379689	0.113672	0.322946
	C148	C	0.674627	0.378996	0.884710
	C149	C	0.674248	0.618905	0.113745
	C150	C	0.320398	0.618622	0.884464
	C151	C	0.318972	0.377653	0.113768
	C152	C	0.883988	0.676532	0.380788
	C153	C	0.112096	0.675820	0.618215
	C154	C	0.883859	0.320624	0.619760
	C155	C	0.111673	0.320853	0.378843
	C156	C	0.884072	0.378628	0.677863
	C157	C	0.112136	0.617319	0.676021
	C158	C	0.883781	0.618613	0.323092
	C159	C	0.111600	0.379140	0.320768
	C160	C	0.379478	0.674373	0.883980
	C161	C	0.615440	0.674822	0.114064
	C162	C	0.615185	0.324251	0.883370
	C163	C	0.377702	0.321600	0.114167
	C164	C	0.674732	0.883683	0.378711
	C165	C	0.675173	0.112601	0.618475
	C166	C	0.320491	0.883582	0.618837
	C167	C	0.320633	0.112748	0.378394
	C168	C	0.877611	0.384126	0.176469
	C169	C	0.114233	0.614920	0.173618
	C170	C	0.115726	0.383289	0.823928
	C171	C	0.880333	0.614515	0.823929
	C172	C	0.175560	0.878181	0.384879
	C173	C	0.175234	0.118051	0.613671
	C174	C	0.820695	0.118211	0.384808
	C175	C	0.819599	0.877057	0.613472
	C176	C	0.383363	0.176356	0.879639
	C177	C	0.611305	0.177655	0.118373
	C178	C	0.383554	0.820606	0.119051
	C179	C	0.611510	0.821795	0.879569
	C180	C	0.383637	0.878664	0.177097
	C181	C	0.611792	0.118869	0.176103
	C182	C	0.383390	0.118246	0.821790
	C183	C	0.611667	0.880195	0.821767
	C184	C	0.879009	0.174971	0.384484
	C185	C	0.116347	0.173902	0.614584
	C186	C	0.116096	0.823135	0.384106
	C187	C	0.879887	0.822735	0.614668
	C188	C	0.174942	0.384115	0.879433
	C189	C	0.173964	0.613557	0.118993
	C190	C	0.818566	0.384409	0.120252
	C191	C	0.820942	0.613730	0.879705
	C192	C	0.397877	0.092926	0.597072
	C193	C	0.597087	0.903441	0.597647
	C194	C	0.597079	0.092501	0.400655
	C195	C	0.397962	0.903501	0.400176
	C196	C	0.595069	0.401164	0.093383
	C197	C	0.598139	0.598013	0.903770
	C198	C	0.396593	0.597156	0.094526
	C199	C	0.397569	0.401235	0.904753
	C200	C	0.091520	0.599503	0.398993
	C201	C	0.904523	0.598918	0.599798
	C202	C	0.091049	0.397971	0.599348
	C203	C	0.905457	0.399206	0.400586
	C204	C	0.895889	0.593738	0.098432
	C205	C	0.095638	0.404913	0.097343
	C206	C	0.097368	0.593017	0.901094
	C207	C	0.897561	0.404775	0.901912
	C208	C	0.097501	0.899721	0.594422
	C209	C	0.097577	0.096748	0.404557
	C210	C	0.897923	0.095988	0.594146
	C211	C	0.897783	0.900187	0.404371
	C212	C	0.590832	0.099839	0.898476
	C213	C	0.405160	0.097832	0.097891
	C214	C	0.590431	0.898736	0.098523
	C215	C	0.404197	0.898558	0.899236
	Zn216	Zn	0.497446	-0.001073	0.747780
	Zn217	Zn	0.497802	-0.001382	0.249964
	Zn218	Zn	0.746639	0.498704	-0.000623
	Zn219	Zn	0.247197	0.498731	-0.000128
	Zn220	Zn	-0.002166	0.750002	0.499012
	Zn221	Zn	-0.002143	0.246565	0.499636
	Zn222	Zn	-0.002146	0.498560	0.750748
	Zn223	Zn	-0.002732	0.499627	0.248408
	Zn224	Zn	0.497225	0.746899	-0.000869
	Zn225	Zn	0.497252	0.250683	-0.001619
	Zn226	Zn	0.747199	-0.002108	0.498926
	Zn227	Zn	0.247957	-0.001857	0.498627
	N228	N	0.412538	0.960889	0.676215
	N229	N	0.581321	0.036404	0.674686
	N230	N	0.581945	0.960489	0.322304
	N231	N	0.413507	0.036152	0.322167
	N232	N	0.676428	0.412004	0.962842
	N233	N	0.676781	0.585636	0.035667
	N234	N	0.317562	0.585550	0.962856
	N235	N	0.317262	0.411877	0.036049
	N236	N	0.961006	0.678252	0.413760
	N237	N	0.035065	0.677762	0.584900
	N238	N	0.960656	0.318565	0.585843
	N239	N	0.035178	0.319253	0.413428
	N240	N	0.960992	0.412331	0.679162
	N241	N	0.035250	0.583863	0.678128
	N242	N	0.960675	0.585078	0.320874
	N243	N	0.034983	0.413297	0.319828
	N244	N	0.412825	0.674952	0.961686
	N245	N	0.582085	0.675637	0.036379
	N246	N	0.580203	0.324128	0.960606
	N247	N	0.412025	0.321623	0.036587
	N248	N	0.676818	0.961544	0.412170
	N249	N	0.677198	0.034428	0.585676
	N250	N	0.318752	0.961301	0.584858
	N251	N	0.318419	0.034677	0.411631
	N252	N	0.911488	0.461610	0.177119
	N253	N	0.079945	0.537506	0.174324
	N254	N	0.081830	0.460749	0.823309
	N255	N	0.913904	0.536988	0.823400
	N256	N	0.177461	0.911486	0.462899
	N257	N	0.177412	0.084839	0.535519
	N258	N	0.818367	0.084353	0.462616
	N259	N	0.817304	0.910435	0.535415
	N260	N	0.460173	0.178405	0.912995
	N261	N	0.534776	0.178727	0.084415
	N262	N	0.460282	0.819367	0.084820
	N263	N	0.534578	0.819610	0.913211
	N264	N	0.460372	0.912536	0.178572
	N265	N	0.535182	0.084325	0.177570
	N266	N	0.460379	0.084700	0.819686
	N267	N	0.534759	0.913823	0.820403
	N268	N	0.912694	0.175706	0.462172
	N269	N	0.082359	0.174593	0.537148
	N270	N	0.081770	0.822713	0.461539
	N271	N	0.914363	0.822794	0.537229
	N272	N	0.177188	0.461905	0.912686
	N273	N	0.176319	0.535537	0.086263
	N274	N	0.816493	0.462329	0.086650
	N275	N	0.818226	0.535832	0.913245
	O276	O	1.021019	1.032379	-0.018647
	H277	H	1.025393	1.034967	-0.013483
	H278	H	1.017054	1.026250	-0.017746
	O279	O	-0.005600	-0.015610	0.057649
	H280	H	-0.008459	-0.031121	0.055038
	H281	H	-0.003499	-0.011846	0.064223
	O282	O	-0.007937	-0.032414	1.065589
	H283	H	-0.006726	-0.025172	1.076777
	H284	H	-0.011271	-0.025910	1.067863
	O285	O	0.556298	0.466464	0.508613
	H286	H	0.558685	0.473911	0.505960
	H287	H	0.563215	0.466117	0.505973
	O288	O	0.553842	0.417278	0.424519
	H289	H	0.557712	0.412173	0.419051
	H290	H	0.559873	0.408099	0.435328
	O291	O	0.535261	0.491785	0.524482
	H292	H	0.525104	0.483663	0.518701
	H293	H	0.534919	0.491224	0.528858
	O294	O	-0.014450	0.050413	0.001663
	H295	H	-0.011778	0.054917	0.011557
	H296	H	-0.018375	0.049937	0.002108
	O297	O	0.585582	0.455668	0.488480
	H298	H	0.596647	0.458737	0.481169
	H299	H	0.586067	0.449164	0.481866
	O300	O	0.058219	0.994721	1.031106
	H301	H	0.061974	1.006329	1.022713
	H302	H	0.054501	0.994997	1.033340
	O303	O	0.584450	0.442521	0.476521
	H304	H	0.580916	0.448956	0.484147
	H305	H	0.585533	0.435604	0.474471
	O306	O	0.037862	0.001512	1.015052
	H307	H	0.035815	0.002818	1.008366
	H308	H	0.047614	-0.004835	1.014405
	O309	O	1.023823	1.000675	1.012014
	H310	H	1.024274	1.005127	1.007296
	H311	H	1.023157	0.999282	1.009300
	O312	O	0.572360	0.461453	0.485322
	H313	H	0.568708	0.464028	0.483053
	H314	H	0.578859	0.470092	0.490796
	O315	O	0.531049	0.461552	0.466855
	H316	H	0.535856	0.456244	0.461412
	H317	H	0.532625	0.456741	0.465996
	O318	O	-0.002345	1.058650	0.021026
	H319	H	-0.007813	1.062330	0.014909
	H320	H	0.004160	1.057865	0.022717
	O321	O	1.017302	1.061651	0.013593
	H322	H	1.020048	1.060220	0.010527
	H323	H	1.011967	1.063597	0.013666
