data_Molecule from HDF5

_cell_length_a		16.252475
_cell_length_b		16.290468
_cell_length_c		16.502444
_cell_angle_alpha	90.120031
_cell_angle_beta	89.970728
_cell_angle_gamma	89.859239
_symmetry_space_group_name_H-M	'P 1'
_symmetry_Int_Tables_number		1

loop_
	_symmetry_equiv_pos_as_xyz
	x,y,z

loop_
	_atom_site_label
	_atom_site_type_symbol
	_atom_site_fract_x
	_atom_site_fract_y
	_atom_site_fract_z
	H0	H	0.382858	0.818694	0.715693
	H1	H	0.591744	0.140042	0.719366
	H2	H	0.587303	0.818510	0.279205
	H3	H	0.381188	0.141938	0.280330
	H4	H	0.704220	0.379746	0.839180
	H5	H	0.702176	0.583017	0.160217
	H6	H	0.265229	0.583252	0.840044
	H7	H	0.267326	0.378280	0.159210
	H8	H	0.821099	0.694603	0.402251
	H9	H	0.146984	0.696271	0.600838
	H10	H	0.822521	0.264325	0.601963
	H11	H	0.146339	0.261330	0.397924
	H12	H	0.824363	0.376846	0.720593
	H13	H	0.145656	0.583642	0.719434
	H14	H	0.823951	0.584790	0.281270
	H15	H	0.145305	0.373300	0.279477
	H16	H	0.383878	0.697562	0.838132
	H17	H	0.587167	0.701950	0.158675
	H18	H	0.589896	0.260077	0.839373
	H19	H	0.381420	0.259570	0.157242
	H20	H	0.701489	0.817079	0.398168
	H21	H	0.701554	0.141926	0.599161
	H22	H	0.268988	0.817456	0.598011
	H23	H	0.268635	0.143131	0.398949
	H24	H	0.881023	0.319609	0.218659
	H25	H	0.088941	0.640944	0.220846
	H26	H	0.092600	0.321319	0.778788
	H27	H	0.880966	0.641796	0.782469
	H28	H	0.202967	0.876166	0.337810
	H29	H	0.203706	0.081665	0.658662
	H30	H	0.767098	0.082499	0.339205
	H31	H	0.764190	0.876375	0.657864
	H32	H	0.323174	0.197904	0.896251
	H33	H	0.646808	0.196856	0.099056
	H34	H	0.321116	0.765651	0.097285
	H35	H	0.647583	0.763871	0.897710
	H36	H	0.323224	0.875576	0.218149
	H37	H	0.644566	0.086444	0.219976
	H38	H	0.324328	0.084763	0.778546
	H39	H	0.645731	0.873004	0.776738
	H40	H	0.881145	0.200979	0.340836
	H41	H	0.088973	0.199743	0.659221
	H42	H	0.087488	0.758240	0.339510
	H43	H	0.883890	0.763709	0.660534
	H44	H	0.201899	0.318709	0.899872
	H45	H	0.200539	0.643500	0.100291
	H46	H	0.767803	0.318839	0.100687
	H47	H	0.769445	0.643138	0.900734
	H48	H	0.397563	0.093264	0.588708
	H49	H	0.574134	0.865725	0.587523
	H50	H	0.571949	0.093127	0.410207
	H51	H	0.400948	0.866366	0.406063
	H52	H	0.574920	0.388414	0.112380
	H53	H	0.566797	0.569589	0.889432
	H54	H	0.394423	0.576184	0.113341
	H55	H	0.396152	0.389135	0.885776
	H56	H	0.095555	0.560596	0.412900
	H57	H	0.866675	0.571768	0.597514
	H58	H	0.101909	0.391889	0.594313
	H59	H	0.866176	0.382971	0.405256
	H60	H	0.100126	0.387594	0.588409
	H61	H	0.867304	0.574985	0.591353
	H62	H	0.102775	0.569164	0.401902
	H63	H	0.872205	0.392427	0.418650
	H64	H	0.392124	0.572133	0.113685
	H65	H	0.579880	0.583695	0.881751
	H66	H	0.576644	0.389884	0.112117
	H67	H	0.392266	0.389514	0.884785
	H68	H	0.578337	0.095824	0.408582
	H69	H	0.574976	0.864488	0.588760
	H70	H	0.391941	0.095795	0.587777
	H71	H	0.391885	0.865641	0.411148
	H72	H	0.892964	0.596894	0.093623
	H73	H	0.071176	0.365586	0.096005
	H74	H	0.073835	0.596980	0.906357
	H75	H	0.892294	0.366028	0.914609
	H76	H	0.077713	0.892154	0.610977
	H77	H	0.070782	0.074269	0.386150
	H78	H	0.886579	0.074453	0.615841
	H79	H	0.903801	0.889413	0.388713
	H80	H	0.601506	0.068413	0.900867
	H81	H	0.368137	0.065409	0.096890
	H82	H	0.595795	0.899680	0.087025
	H83	H	0.365438	0.880195	0.903871
	H84	H	0.603081	0.889943	0.097120
	H85	H	0.366301	0.078383	0.088413
	H86	H	0.601173	0.074350	0.910027
	H87	H	0.374429	0.894068	0.916249
	H88	H	0.893904	0.062979	0.610736
	H89	H	0.078112	0.072594	0.384215
	H90	H	0.073333	0.886525	0.611135
	H91	H	0.892514	0.877022	0.382016
	H92	H	0.070971	0.594569	0.910978
	H93	H	0.073352	0.368698	0.084740
	H94	H	0.897068	0.595128	0.093653
	H95	H	0.891983	0.362512	0.902722
	H96	H	0.394541	0.095490	0.592865
	H97	H	0.573342	0.865014	0.588840
	H98	H	0.573318	0.095598	0.403495
	H99	H	0.391777	0.862788	0.402151
	H100	H	0.574834	0.390412	0.111534
	H101	H	0.586360	0.564261	0.886109
	H102	H	0.395966	0.572598	0.111301
	H103	H	0.393797	0.392423	0.887164
	H104	H	0.100330	0.575645	0.416028
	H105	H	0.870548	0.568562	0.592933
	H106	H	0.097326	0.395018	0.588533
	H107	H	0.870431	0.399832	0.403306
	H108	H	0.895280	0.595867	0.090215
	H109	H	0.081490	0.363106	0.090937
	H110	H	0.076111	0.596092	0.911452
	H111	H	0.902603	0.366661	0.907568
	H112	H	0.080157	0.886083	0.614362
	H113	H	0.073646	0.066303	0.387866
	H114	H	0.900893	0.075844	0.611616
	H115	H	0.886745	0.894094	0.385371
	H116	H	0.597637	0.064429	0.910460
	H117	H	0.373277	0.065726	0.082338
	H118	H	0.599322	0.884692	0.083187
	H119	H	0.370079	0.899273	0.896761
	C120	C	0.364134	-0.011809	0.619405
	C121	C	0.606169	0.971212	0.619408
	C122	C	0.605971	-0.011865	0.376749
	C123	C	0.363533	0.972134	0.376877
	C124	C	0.606737	0.358925	0.006673
	C125	C	0.607520	0.603458	0.991147
	C126	C	0.363338	0.603481	0.007228
	C127	C	0.363602	0.359285	0.990941
	C128	C	-0.006834	0.600026	0.379873
	C129	C	0.975632	0.601958	0.623173
	C130	C	-0.006750	0.360150	0.621609
	C131	C	0.975980	0.358965	0.378209
	C132	C	0.864365	0.488946	0.121811
	C133	C	0.106396	0.472061	0.121636
	C134	C	0.106194	0.489552	0.878509
	C135	C	0.864629	0.472188	0.878954
	C136	C	0.107556	0.856515	0.506786
	C137	C	0.105610	0.101521	0.491488
	C138	C	0.862729	0.102407	0.507606
	C139	C	0.863662	0.857742	0.491283
	C140	C	0.493539	0.100752	0.876226
	C141	C	0.476043	0.101199	0.119679
	C142	C	0.492392	0.860203	0.119244
	C143	C	0.476722	0.859059	0.875635
	C144	C	0.363723	0.866877	0.676871
	C145	C	0.609031	0.092212	0.679097
	C146	C	0.606701	0.866695	0.318507
	C147	C	0.362586	0.093742	0.319866
	C148	C	0.665274	0.359491	0.886914
	C149	C	0.663700	0.602894	0.112061
	C150	C	0.304564	0.602961	0.887598
	C151	C	0.306152	0.359092	0.111223
	C152	C	0.870384	0.657121	0.381329
	C153	C	0.097972	0.658527	0.621265
	C154	C	0.871283	0.302651	0.621521
	C155	C	0.097564	0.299915	0.378362
	C156	C	0.872280	0.358586	0.680815
	C157	C	0.097707	0.602268	0.679937
	C158	C	0.871629	0.601989	0.321557
	C159	C	0.097113	0.355759	0.319308
	C160	C	0.363618	0.659730	0.886447
	C161	C	0.606357	0.661851	0.111171
	C162	C	0.607890	0.300405	0.886879
	C163	C	0.363139	0.300032	0.110278
	C164	C	0.663326	0.865855	0.377541
	C165	C	0.663775	0.093226	0.619164
	C166	C	0.307156	0.866265	0.618115
	C167	C	0.306236	0.094224	0.378409
	C168	C	0.862527	0.367989	0.179608
	C169	C	0.107749	0.592985	0.181180
	C170	C	0.109257	0.368840	0.819341
	C171	C	0.863349	0.593562	0.821734
	C172	C	0.164511	0.856625	0.386334
	C173	C	0.164176	0.101444	0.611241
	C174	C	0.805320	0.102060	0.387540
	C175	C	0.804348	0.857509	0.610734
	C176	C	0.371980	0.159641	0.876036
	C177	C	0.597978	0.159035	0.119297
	C178	C	0.370152	0.803274	0.117651
	C179	C	0.598661	0.801521	0.877170
	C180	C	0.371225	0.857918	0.177940
	C181	C	0.596824	0.103788	0.179254
	C182	C	0.372489	0.103008	0.817577
	C183	C	0.597747	0.856073	0.816911
	C184	C	0.862254	0.161216	0.388204
	C185	C	0.107091	0.160272	0.611261
	C186	C	0.107058	0.797843	0.387091
	C187	C	0.863571	0.801076	0.611966
	C188	C	0.164079	0.367694	0.879249
	C189	C	0.163418	0.594201	0.121237
	C190	C	0.806565	0.367274	0.120577
	C191	C	0.807271	0.594118	0.880368
	C192	C	0.387863	0.072665	0.596487
	C193	C	0.581479	0.887098	0.595426
	C194	C	0.581673	0.072632	0.400595
	C195	C	0.387600	0.887165	0.399900
	C196	C	0.582388	0.382760	0.090368
	C197	C	0.584524	0.579395	0.907539
	C198	C	0.387219	0.580309	0.090961
	C199	C	0.387355	0.383285	0.907488
	C200	C	0.077680	0.575538	0.403563
	C201	C	0.890323	0.578512	0.600736
	C202	C	0.077711	0.384473	0.597324
	C203	C	0.891560	0.384252	0.402180
	C204	C	0.888143	0.573835	0.098976
	C205	C	0.082284	0.387558	0.097422
	C206	C	0.080973	0.573887	0.902619
	C207	C	0.888594	0.387199	0.901714
	C208	C	0.083915	0.881115	0.590481
	C209	C	0.081227	0.077852	0.407890
	C210	C	0.886950	0.078089	0.591181
	C211	C	0.887507	0.880303	0.407162
	C212	C	0.578052	0.076140	0.900256
	C213	C	0.391390	0.076874	0.096004
	C214	C	0.577244	0.884668	0.095866
	C215	C	0.391785	0.884014	0.898878
	Zn216	Zn	0.485613	-0.019939	0.747715
	Zn217	Zn	0.483894	-0.019748	0.247968
	Zn218	Zn	0.736610	0.480846	0.000332
	Zn219	Zn	0.234047	0.480870	-0.000153
	Zn220	Zn	-0.015435	0.728276	0.499946
	Zn221	Zn	-0.015487	0.232056	0.500353
	Zn222	Zn	-0.014651	0.480944	0.750350
	Zn223	Zn	-0.015057	0.480133	0.250252
	Zn224	Zn	0.484555	0.732688	-0.001961
	Zn225	Zn	0.484565	0.228939	-0.002194
	Zn226	Zn	0.734591	-0.020366	0.498721
	Zn227	Zn	0.235437	-0.019717	0.498217
	N228	N	0.398578	0.943668	0.677679
	N229	N	0.573953	0.015502	0.679444
	N230	N	0.572069	0.943692	0.317613
	N231	N	0.397291	0.016761	0.318739
	N232	N	0.664625	0.395064	0.962514
	N233	N	0.664656	0.567392	0.036474
	N234	N	0.304091	0.568702	0.963719
	N235	N	0.306243	0.395236	0.035996
	N236	N	0.946785	0.655714	0.417311
	N237	N	0.021135	0.658478	0.586706
	N238	N	0.947457	0.303510	0.585518
	N239	N	0.021333	0.302020	0.414436
	N240	N	0.949220	0.393651	0.681063
	N241	N	0.020441	0.568259	0.681452
	N242	N	0.948717	0.567035	0.320523
	N243	N	0.020518	0.391705	0.318967
	N244	N	0.399307	0.660298	0.961823
	N245	N	0.572315	0.662573	0.035001
	N246	N	0.572385	0.299822	0.962447
	N247	N	0.398172	0.300055	0.034516
	N248	N	0.663086	0.942371	0.412982
	N249	N	0.662466	0.017141	0.582976
	N250	N	0.307156	0.942752	0.583186
	N251	N	0.306523	0.017330	0.412956
	N252	N	0.897894	0.444549	0.180115
	N253	N	0.073180	0.515993	0.181454
	N254	N	0.074024	0.445657	0.818717
	N255	N	0.898319	0.516618	0.820705
	N256	N	0.164917	0.892521	0.461907
	N257	N	0.163682	0.065790	0.535769
	N258	N	0.805757	0.066219	0.462861
	N259	N	0.804474	0.892131	0.534876
	N260	N	0.448245	0.158528	0.911611
	N261	N	0.521886	0.157624	0.082891
	N262	N	0.446692	0.804459	0.082023
	N263	N	0.522222	0.803120	0.912780
	N264	N	0.448373	0.892303	0.179196
	N265	N	0.520038	0.068681	0.179741
	N266	N	0.449263	0.067221	0.817406
	N267	N	0.520869	0.891297	0.816016
	N268	N	0.897123	0.161638	0.464012
	N269	N	0.071391	0.160365	0.535682
	N270	N	0.072522	0.797572	0.463104
	N271	N	0.900093	0.801354	0.536670
	N272	N	0.162259	0.443811	0.915363
	N273	N	0.162808	0.518022	0.085173
	N274	N	0.807599	0.443599	0.085325
	N275	N	0.808081	0.517690	0.915488
	O276	O	0.444112	0.567863	0.582948
	H277	H	0.447387	0.583540	0.573350
	H278	H	0.445382	0.562013	0.588293
	O279	O	0.529873	0.512198	0.369341
	H280	H	0.524358	0.519859	0.373305
	H281	H	0.537131	0.516198	0.383479
	O282	O	1.177083	0.064881	1.169972
	H283	H	1.161634	0.082638	1.164904
	H284	H	1.191541	0.076590	1.166543
	O285	O	0.614410	0.447109	0.570890
	H286	H	0.636909	0.455262	0.580229
	H287	H	0.598146	0.437797	0.567768
	O288	O	0.972165	0.915376	1.019900
	H289	H	0.967144	0.897576	1.014086
	H290	H	0.965340	0.916431	1.012173
	O291	O	-0.142918	1.156424	-0.058929
	H292	H	-0.140425	1.147744	-0.051642
	H293	H	-0.143815	1.169697	-0.040704
	O294	O	0.623222	0.337824	0.415166
	H295	H	0.624146	0.335292	0.410969
	H296	H	0.627318	0.344636	0.415665
	O297	O	0.337077	0.331999	0.580260
	H298	H	0.342785	0.346124	0.573207
	H299	H	0.352604	0.325850	0.589377
	O300	O	0.573821	0.557078	0.587512
	H301	H	0.569153	0.557442	0.579427
	H302	H	0.590870	0.557280	0.572921
	O303	O	0.535116	0.410454	0.389071
	H304	H	0.525773	0.424534	0.402813
	H305	H	0.532745	0.409917	0.377035
	O306	O	0.441147	0.618145	0.386158
	H307	H	0.430872	0.628967	0.372243
	H308	H	0.435674	0.608193	0.382790
	O309	O	1.111140	0.985768	-0.085543
	H310	H	1.118006	0.972998	-0.083274
	H311	H	1.121105	0.976657	-0.092272
	O312	O	-0.057739	-0.122162	0.050093
	H313	H	-0.043201	-0.114243	0.042234
	H314	H	-0.073055	-0.115469	0.052206
	O315	O	0.395836	0.583954	0.518535
	H316	H	0.395675	0.575001	0.502345
	H317	H	0.407533	0.589707	0.526586
	O318	O	-0.093930	0.956488	0.814358
	H319	H	-0.100576	0.978267	0.804419
	H320	H	-0.093590	0.966097	0.803699
	O321	O	0.507164	0.393435	0.342008
	H322	H	0.506257	0.409622	0.336306
	H323	H	0.489557	0.395716	0.347388
	O324	O	-0.083048	1.065053	0.161313
	H325	H	-0.100747	1.049320	0.164772
	H326	H	-0.073920	1.058526	0.165440
	O327	O	0.468881	0.346394	0.358114
	H328	H	0.468358	0.359338	0.354108
	H329	H	0.466128	0.341106	0.345555
	O330	O	-1.148924	0.791425	2.096504
	H331	H	-1.149775	0.785179	2.088589
	H332	H	-1.135785	0.792123	2.084938
	O333	O	-0.080105	-0.141435	0.841027
	H334	H	-0.087926	-0.139919	0.833352
	H335	H	-0.095001	-0.117976	0.835163
	O336	O	0.466499	0.485835	0.574798
	H337	H	0.459271	0.485512	0.583340
	H338	H	0.455485	0.487647	0.561632
	O339	O	1.091040	0.094899	0.195750
	H340	H	1.090880	0.114652	0.191685
	H341	H	1.100537	0.100622	0.210569
	O342	O	0.106187	-0.160442	-0.115528
	H343	H	0.090069	-0.160800	-0.123363
	H344	H	0.108623	-0.167442	-0.125942
	O345	O	1.494921	0.478928	0.513860
	H346	H	1.477569	0.472644	0.514012
	H347	H	1.501274	0.474025	0.516428
	O348	O	1.413457	1.556415	0.471897
	H349	H	1.423882	1.551401	0.469606
	H350	H	1.407639	1.554481	0.468423
	O351	O	0.364087	0.327314	0.608634
	H352	H	0.355699	0.325147	0.602175
	H353	H	0.374139	0.319088	0.602158
	O354	O	0.897485	0.090457	0.981357
	H355	H	0.894202	0.092290	0.997089
	H356	H	0.891061	0.086855	0.982346
	O357	O	0.814178	0.126926	0.739823
	H358	H	0.817649	0.136099	0.748430
	H359	H	0.813847	0.134304	0.735408
	O360	O	0.552287	0.374478	0.462085
	H361	H	0.554808	0.371913	0.441671
	H362	H	0.554098	0.384034	0.472157
	O363	O	0.082425	0.879573	0.943749
	H364	H	0.085867	0.879444	0.944548
	H365	H	0.097344	0.880116	0.938451
	O366	O	1.047845	0.896673	0.111606
	H367	H	1.053473	0.918334	0.122014
	H368	H	1.041410	0.897662	0.098562
	O369	O	-0.039549	1.079197	-0.056297
	H370	H	-0.058189	1.076570	-0.052176
	H371	H	-0.041219	1.053310	-0.055609
	O372	O	0.884544	0.159014	-0.182612
	H373	H	0.895764	0.174152	-0.176896
	H374	H	0.897013	0.170677	-0.166790
	O375	O	0.351398	0.518979	0.429659
	H376	H	0.347213	0.499996	0.412867
	H377	H	0.338970	0.516446	0.453309
	O378	O	1.473058	1.507267	0.531901
	H379	H	1.475203	1.509951	0.539946
	H380	H	1.475405	1.502305	0.540617
	O381	O	1.086962	0.168885	0.163645
	H382	H	1.066531	0.169769	0.168754
	H383	H	1.087286	0.165695	0.151990
	O384	O	1.132583	1.136348	-0.019558
	H385	H	1.121707	1.119778	-0.026645
	H386	H	1.135416	1.134222	-0.028308
	O387	O	-0.027149	-0.081781	0.033852
	H388	H	-0.028177	-0.084397	0.054210
	H389	H	-0.032891	-0.097776	0.029708
	O390	O	-0.014582	0.956637	-0.077519
	H391	H	-0.000222	0.955028	-0.076070
	H392	H	-0.012254	0.974445	-0.079890
	O393	O	1.164318	1.018708	0.885350
	H394	H	1.169579	0.997648	0.868554
	H395	H	1.155375	1.002111	0.890241
	O396	O	0.529769	0.571129	0.486282
	H397	H	0.527249	0.564748	0.495148
	H398	H	0.531882	0.557334	0.494225
	O399	O	-0.209161	0.965276	1.196634
	H400	H	-0.212919	0.939423	1.188049
	H401	H	-0.223872	0.947702	1.220340
	O402	O	0.467924	0.429240	0.432467
	H403	H	0.459747	0.425363	0.429172
	H404	H	0.460173	0.442886	0.437010
	O405	O	0.819876	0.816284	0.160664
	H406	H	0.841498	0.809242	0.162776
	H407	H	0.817605	0.803944	0.146225
	O408	O	1.373843	0.488840	0.570583
	H409	H	1.370277	0.499524	0.589460
	H410	H	1.362803	0.478450	0.570541
	O411	O	0.957657	-0.139293	0.882863
	H412	H	0.952572	-0.131221	0.885711
	H413	H	0.949912	-0.127288	0.883290
	O414	O	0.510551	0.638791	0.552869
	H415	H	0.530591	0.633672	0.560123
	H416	H	0.508568	0.636347	0.548939
	O417	O	0.534966	0.366059	0.666389
	H418	H	0.524627	0.369697	0.670954
	H419	H	0.531254	0.362948	0.666393
