data_Molecule from HDF5

_cell_length_a		16.357541
_cell_length_b		16.219500
_cell_length_c		16.332588
_cell_angle_alpha	90.097854
_cell_angle_beta	89.923967
_cell_angle_gamma	89.945849
_symmetry_space_group_name_H-M	'P 1'
_symmetry_Int_Tables_number		1

loop_
	_symmetry_equiv_pos_as_xyz
	x,y,z

loop_
	_atom_site_label
	_atom_site_type_symbol
	_atom_site_fract_x
	_atom_site_fract_y
	_atom_site_fract_z
	H0	H	0.402413	0.844269	0.712405
	H1	H	0.598496	0.173159	0.711977
	H2	H	0.600249	0.844565	0.282565
	H3	H	0.403588	0.172868	0.285134
	H4	H	0.716844	0.408849	0.835383
	H5	H	0.717629	0.609494	0.160814
	H6	H	0.286325	0.608121	0.835058
	H7	H	0.285229	0.410326	0.160708
	H8	H	0.838802	0.723321	0.401485
	H9	H	0.164918	0.722077	0.595715
	H10	H	0.838703	0.295449	0.595035
	H11	H	0.165978	0.294164	0.401241
	H12	H	0.839247	0.409083	0.713975
	H13	H	0.164061	0.607451	0.713569
	H14	H	0.838766	0.608286	0.283291
	H15	H	0.165150	0.408701	0.281893
	H16	H	0.405310	0.721180	0.834040
	H17	H	0.599303	0.723930	0.161543
	H18	H	0.598747	0.295443	0.835076
	H19	H	0.404217	0.296742	0.162970
	H20	H	0.715792	0.843747	0.399129
	H21	H	0.716126	0.172558	0.597245
	H22	H	0.287817	0.844866	0.596242
	H23	H	0.286708	0.172658	0.399756
	H24	H	0.903134	0.345070	0.212205
	H25	H	0.098826	0.673453	0.211965
	H26	H	0.100195	0.344562	0.784153
	H27	H	0.902777	0.672886	0.784580
	H28	H	0.218117	0.907627	0.336105
	H29	H	0.216201	0.107917	0.662150
	H30	H	0.785895	0.108859	0.335826
	H31	H	0.786189	0.909386	0.661372
	H32	H	0.337809	0.222255	0.902415
	H33	H	0.665258	0.222608	0.094572
	H34	H	0.338484	0.794315	0.096025
	H35	H	0.664738	0.794061	0.899675
	H36	H	0.338721	0.909165	0.213685
	H37	H	0.664542	0.108136	0.212702
	H38	H	0.338071	0.107303	0.784164
	H39	H	0.664461	0.909965	0.783129
	H40	H	0.905281	0.222189	0.334696
	H41	H	0.099159	0.223286	0.661857
	H42	H	0.099464	0.794201	0.335102
	H43	H	0.905444	0.796047	0.662177
	H44	H	0.216315	0.344986	0.899779
	H45	H	0.216498	0.673258	0.098434
	H46	H	0.787231	0.344585	0.097185
	H47	H	0.786926	0.672356	0.899900
	H48	H	0.410778	0.124772	0.590333
	H49	H	0.591370	0.891382	0.594684
	H50	H	0.596831	0.121929	0.416464
	H51	H	0.406817	0.888294	0.393104
	H52	H	0.595662	0.417735	0.114255
	H53	H	0.592760	0.592608	0.885856
	H54	H	0.413074	0.601918	0.112542
	H55	H	0.399147	0.414694	0.879364
	H56	H	0.119197	0.600047	0.398223
	H57	H	0.887707	0.596358	0.591220
	H58	H	0.117539	0.416028	0.591088
	H59	H	0.886638	0.408932	0.408770
	H60	H	0.117506	0.416702	0.592287
	H61	H	0.883278	0.603312	0.597800
	H62	H	0.118308	0.606313	0.406354
	H63	H	0.889979	0.422378	0.407765
	H64	H	0.405278	0.605441	0.116188
	H65	H	0.589352	0.607522	0.881820
	H66	H	0.594211	0.416410	0.113464
	H67	H	0.410418	0.423847	0.885381
	H68	H	0.602209	0.129943	0.398332
	H69	H	0.593764	0.893170	0.586827
	H70	H	0.406214	0.126420	0.590609
	H71	H	0.420681	0.895835	0.408652
	H72	H	0.912480	0.626099	0.095020
	H73	H	0.092533	0.391447	0.094959
	H74	H	0.095927	0.626366	0.906140
	H75	H	0.902688	0.390511	0.909728
	H76	H	0.100776	0.912842	0.617032
	H77	H	0.088996	0.108030	0.382615
	H78	H	0.901572	0.111530	0.619788
	H79	H	0.917480	0.916077	0.384580
	H80	H	0.619638	0.108026	0.904063
	H81	H	0.386250	0.101342	0.091054
	H82	H	0.616496	0.913398	0.085093
	H83	H	0.382848	0.911336	0.901490
	H84	H	0.614115	0.923630	0.089467
	H85	H	0.385371	0.102157	0.095443
	H86	H	0.614827	0.099460	0.909223
	H87	H	0.387307	0.915139	0.909449
	H88	H	0.901323	0.092187	0.613075
	H89	H	0.104537	0.101079	0.379692
	H90	H	0.096351	0.921462	0.613219
	H91	H	0.904538	0.909943	0.379522
	H92	H	0.094041	0.626053	0.903392
	H93	H	0.090580	0.394974	0.085295
	H94	H	0.908748	0.624026	0.085726
	H95	H	0.908998	0.390139	0.898405
	H96	H	0.409261	0.126101	0.593880
	H97	H	0.598951	0.890184	0.592174
	H98	H	0.583445	0.123073	0.401140
	H99	H	0.399955	0.891982	0.413601
	H100	H	0.595957	0.415999	0.114914
	H101	H	0.603616	0.602042	0.879681
	H102	H	0.405488	0.596639	0.112865
	H103	H	0.413543	0.408481	0.882355
	H104	H	0.115701	0.596578	0.406972
	H105	H	0.885060	0.606292	0.588644
	H106	H	0.117888	0.415759	0.592247
	H107	H	0.884226	0.415671	0.397486
	H108	H	0.902995	0.627469	0.092830
	H109	H	0.099853	0.391642	0.088545
	H110	H	0.092641	0.625524	0.906634
	H111	H	0.915458	0.395201	0.908920
	H112	H	0.090861	0.912689	0.614200
	H113	H	0.092335	0.091391	0.386861
	H114	H	0.918236	0.103306	0.611587
	H115	H	0.905093	0.924149	0.384115
	H116	H	0.618164	0.098660	0.898578
	H117	H	0.384708	0.105738	0.091921
	H118	H	0.618821	0.915534	0.095890
	H119	H	0.385644	0.920635	0.901815
	C120	C	0.380225	0.017112	0.619714
	C121	C	0.622549	1.000522	0.619324
	C122	C	0.623113	0.016603	0.376371
	C123	C	0.380109	1.000233	0.376662
	C124	C	0.623431	0.387664	0.006622
	C125	C	0.623274	0.630256	0.989979
	C126	C	0.379933	0.630270	0.006185
	C127	C	0.379452	0.387379	0.990335
	C128	C	0.009921	0.629930	0.376412
	C129	C	0.993219	0.630414	0.620352
	C130	C	0.010177	0.387540	0.620217
	C131	C	0.994380	0.386420	0.375850
	C132	C	0.879648	0.517244	0.119597
	C133	C	0.122789	0.500942	0.119037
	C134	C	0.122883	0.517365	0.876895
	C135	C	0.880351	0.500356	0.877239
	C136	C	0.124103	0.886845	0.506917
	C137	C	0.123464	0.129831	0.490610
	C138	C	0.879355	0.130755	0.506894
	C139	C	0.880567	0.887851	0.490361
	C140	C	0.509530	0.130264	0.876532
	C141	C	0.493279	0.131262	0.120292
	C142	C	0.509414	0.888069	0.119129
	C143	C	0.493210	0.887003	0.876105
	C144	C	0.382334	0.893487	0.674781
	C145	C	0.619536	0.124119	0.674308
	C146	C	0.620936	0.893490	0.320450
	C147	C	0.383066	0.124041	0.322812
	C148	C	0.678918	0.388874	0.884060
	C149	C	0.679029	0.629310	0.112379
	C150	C	0.324732	0.628189	0.883577
	C151	C	0.324348	0.390360	0.112815
	C152	C	0.887285	0.685515	0.380044
	C153	C	0.116159	0.684589	0.616766
	C154	C	0.887621	0.332452	0.616802
	C155	C	0.117063	0.331369	0.379173
	C156	C	0.887688	0.389167	0.675469
	C157	C	0.115611	0.627701	0.675480
	C158	C	0.887261	0.628439	0.321444
	C159	C	0.116660	0.388585	0.320357
	C160	C	0.383654	0.684364	0.883060
	C161	C	0.620243	0.686166	0.112699
	C162	C	0.619951	0.332843	0.883629
	C163	C	0.383346	0.333782	0.113629
	C164	C	0.678316	0.893099	0.378426
	C165	C	0.677680	0.123767	0.617086
	C166	C	0.325686	0.893555	0.616750
	C167	C	0.324554	0.123716	0.379286
	C168	C	0.882783	0.393866	0.174129
	C169	C	0.119799	0.624557	0.174122
	C170	C	0.120380	0.393507	0.822362
	C171	C	0.882555	0.623844	0.822315
	C172	C	0.179709	0.887921	0.384584
	C173	C	0.178699	0.128342	0.613282
	C174	C	0.824342	0.128803	0.384171
	C175	C	0.825184	0.890124	0.613008
	C176	C	0.386573	0.184826	0.880739
	C177	C	0.616331	0.185295	0.116282
	C178	C	0.386952	0.832291	0.116773
	C179	C	0.615939	0.831775	0.878954
	C180	C	0.387021	0.889408	0.175013
	C181	C	0.615927	0.128676	0.175070
	C182	C	0.386814	0.127708	0.822126
	C183	C	0.615818	0.889039	0.820756
	C184	C	0.883508	0.185351	0.383846
	C185	C	0.120205	0.185333	0.613290
	C186	C	0.120622	0.831634	0.384002
	C187	C	0.883984	0.833515	0.613477
	C188	C	0.178531	0.393953	0.879267
	C189	C	0.178140	0.624481	0.117625
	C190	C	0.824578	0.393869	0.117384
	C191	C	0.824977	0.623568	0.879578
	C192	C	0.402382	0.103446	0.598048
	C193	C	0.601013	0.913981	0.597608
	C194	C	0.600710	0.102764	0.398659
	C195	C	0.402570	0.914111	0.398719
	C196	C	0.601682	0.410148	0.092237
	C197	C	0.601456	0.607525	0.904643
	C198	C	0.401550	0.607815	0.091684
	C199	C	0.401318	0.409334	0.904512
	C200	C	0.095474	0.607592	0.397570
	C201	C	0.907552	0.608579	0.598842
	C202	C	0.095686	0.409803	0.598479
	C203	C	0.909156	0.409073	0.397922
	C204	C	0.901547	0.603534	0.097514
	C205	C	0.100650	0.414915	0.096478
	C206	C	0.100709	0.603660	0.898946
	C207	C	0.902680	0.414147	0.899149
	C208	C	0.102346	0.909190	0.592641
	C209	C	0.101833	0.106872	0.405110
	C210	C	0.900862	0.108909	0.592592
	C211	C	0.902620	0.910076	0.404852
	C212	C	0.595341	0.108286	0.897604
	C213	C	0.407621	0.109301	0.099244
	C214	C	0.594429	0.910841	0.096665
	C215	C	0.407418	0.909110	0.897839
	Zn216	Zn	0.501292	0.008493	0.747668
	Zn217	Zn	0.501217	0.009213	0.248491
	Zn218	Zn	0.751883	0.508646	-0.001896
	Zn219	Zn	0.250877	0.509555	-0.001938
	Zn220	Zn	0.001581	0.758760	0.498811
	Zn221	Zn	0.002441	0.258845	0.498606
	Zn222	Zn	0.001412	0.508727	0.748982
	Zn223	Zn	0.001632	0.508847	0.247264
	Zn224	Zn	0.501311	0.758596	-0.001969
	Zn225	Zn	0.501727	0.259400	-0.001557
	Zn226	Zn	0.751019	0.008428	0.497704
	Zn227	Zn	0.252765	0.008872	0.498710
	N228	N	0.415903	0.971336	0.676449
	N229	N	0.585906	0.046401	0.675749
	N230	N	0.587485	0.971308	0.319022
	N231	N	0.416563	0.046248	0.320713
	N232	N	0.681342	0.422045	0.961662
	N233	N	0.681144	0.595315	0.035171
	N234	N	0.322269	0.595257	0.961094
	N235	N	0.321650	0.422802	0.035175
	N236	N	0.964481	0.686563	0.413502
	N237	N	0.038997	0.686373	0.583397
	N238	N	0.964650	0.331597	0.582922
	N239	N	0.040183	0.330102	0.413045
	N240	N	0.964921	0.422592	0.677883
	N241	N	0.038107	0.594626	0.677745
	N242	N	0.964371	0.594607	0.319117
	N243	N	0.039279	0.422107	0.318213
	N244	N	0.417248	0.685866	0.960301
	N245	N	0.586354	0.686795	0.035664
	N246	N	0.586096	0.331996	0.960631
	N247	N	0.416790	0.331741	0.036221
	N248	N	0.679663	0.970892	0.412422
	N249	N	0.679425	0.045921	0.583531
	N250	N	0.324279	0.971359	0.583455
	N251	N	0.322828	0.045666	0.412211
	N252	N	0.916243	0.471461	0.175616
	N253	N	0.086173	0.546809	0.175221
	N254	N	0.086482	0.471099	0.820689
	N255	N	0.916392	0.546171	0.820809
	N256	N	0.181713	0.921855	0.461777
	N257	N	0.180818	0.094545	0.535878
	N258	N	0.821569	0.095676	0.461553
	N259	N	0.822884	0.923207	0.535318
	N260	N	0.463960	0.186713	0.913710
	N261	N	0.539298	0.186963	0.082928
	N262	N	0.463843	0.831441	0.082639
	N263	N	0.538724	0.830447	0.912531
	N264	N	0.464164	0.923114	0.176952
	N265	N	0.538382	0.095705	0.177630
	N266	N	0.464275	0.094474	0.819504
	N267	N	0.538527	0.922700	0.818918
	N268	N	0.917139	0.186735	0.461199
	N269	N	0.086615	0.186238	0.536132
	N270	N	0.086689	0.830831	0.461180
	N271	N	0.917693	0.832108	0.536356
	N272	N	0.179921	0.472084	0.912598
	N273	N	0.179984	0.546729	0.083933
	N274	N	0.822595	0.471794	0.084278
	N275	N	0.823597	0.545844	0.913020
	O276	O	0.571121	0.481575	0.456905
	H277	H	0.567395	0.473514	0.461160
	H278	H	0.572959	0.484354	0.453797
	O279	O	-0.029496	0.025430	0.090088
	H280	H	-0.032917	0.021165	0.092466
	H281	H	-0.024389	0.012952	0.095527
	O282	O	0.977589	0.025957	1.059590
	H283	H	0.975876	0.028397	1.053455
	H284	H	0.978081	0.017631	1.069589
	O285	O	0.516743	0.439054	0.440068
	H286	H	0.513173	0.439651	0.438706
	H287	H	0.521740	0.442105	0.436566
	O288	O	0.989403	0.041491	0.062020
	H289	H	0.994325	0.049870	0.058326
	H290	H	0.984783	0.045636	0.063671
	O291	O	-0.475168	0.488706	-0.521215
	H292	H	-0.473270	0.483756	-0.520488
	H293	H	-0.468994	0.485693	-0.529528
	O294	O	0.572547	0.449587	0.470865
	H295	H	0.568205	0.452056	0.476671
	H296	H	0.562668	0.456347	0.468860
	O297	O	-0.003576	1.035786	0.104423
	H298	H	-0.005396	1.041115	0.098713
	H299	H	-0.011908	1.042683	0.113804
	O300	O	0.961212	0.062909	1.088276
	H301	H	0.965370	0.068004	1.082183
	H302	H	0.968838	0.068776	1.089911
	O303	O	0.522980	0.473406	0.432667
	H304	H	0.531020	0.471289	0.427240
	H305	H	0.537152	0.469939	0.436344
	O306	O	-0.009679	0.982852	1.085264
	H307	H	-0.004930	0.981973	1.092651
	H308	H	-0.014741	0.974363	1.083775
	O309	O	0.520541	0.525686	0.452469
	H310	H	0.521222	0.520193	0.450788
	H311	H	0.515672	0.525271	0.451047
