data_Molecule from HDF5

_cell_length_a		16.333724
_cell_length_b		16.202148
_cell_length_c		16.360571
_cell_angle_alpha	90.024088
_cell_angle_beta	90.126565
_cell_angle_gamma	89.990512
_symmetry_space_group_name_H-M	'P 1'
_symmetry_Int_Tables_number		1

loop_
	_symmetry_equiv_pos_as_xyz
	x,y,z

loop_
	_atom_site_label
	_atom_site_type_symbol
	_atom_site_fract_x
	_atom_site_fract_y
	_atom_site_fract_z
	H0	H	0.399796	0.832754	0.715625
	H1	H	0.598092	0.161261	0.716459
	H2	H	0.596749	0.833161	0.286802
	H3	H	0.399707	0.161579	0.286057
	H4	H	0.715497	0.396160	0.838597
	H5	H	0.716232	0.597003	0.163174
	H6	H	0.282893	0.596951	0.838868
	H7	H	0.284631	0.395805	0.163708
	H8	H	0.835700	0.711239	0.401905
	H9	H	0.162977	0.711010	0.598043
	H10	H	0.835662	0.284023	0.597827
	H11	H	0.163014	0.282020	0.403591
	H12	H	0.836822	0.397517	0.716414
	H13	H	0.161926	0.596815	0.716300
	H14	H	0.837957	0.598755	0.282567
	H15	H	0.162205	0.397473	0.285929
	H16	H	0.402465	0.709722	0.836742
	H17	H	0.597118	0.710903	0.164259
	H18	H	0.596603	0.282963	0.837652
	H19	H	0.404323	0.283110	0.164050
	H20	H	0.711435	0.832437	0.403431
	H21	H	0.713422	0.161571	0.600333
	H22	H	0.285228	0.831948	0.598366
	H23	H	0.284658	0.162068	0.402934
	H24	H	0.901659	0.332775	0.215183
	H25	H	0.100365	0.660685	0.216281
	H26	H	0.098174	0.332756	0.786903
	H27	H	0.900679	0.660805	0.786529
	H28	H	0.215151	0.896164	0.339063
	H29	H	0.214667	0.096533	0.663612
	H30	H	0.781188	0.097761	0.338935
	H31	H	0.781960	0.896518	0.663520
	H32	H	0.336107	0.211270	0.903180
	H33	H	0.663813	0.209994	0.097870
	H34	H	0.335382	0.783293	0.097321
	H35	H	0.663584	0.783896	0.904463
	H36	H	0.335618	0.898230	0.215112
	H37	H	0.662246	0.097435	0.217159
	H38	H	0.336342	0.096239	0.785973
	H39	H	0.661528	0.896958	0.784547
	H40	H	0.899277	0.212558	0.338236
	H41	H	0.095704	0.210149	0.664608
	H42	H	0.096781	0.782723	0.337978
	H43	H	0.901030	0.782703	0.663800
	H44	H	0.213555	0.332478	0.902800
	H45	H	0.213848	0.660888	0.099551
	H46	H	0.785552	0.332900	0.099401
	H47	H	0.785262	0.660811	0.901512
	H48	H	0.412412	0.111796	0.593224
	H49	H	0.592194	0.879897	0.595910
	H50	H	0.589331	0.115332	0.405605
	H51	H	0.411034	0.885344	0.416053
	H52	H	0.592368	0.404105	0.116328
	H53	H	0.598386	0.588234	0.884061
	H54	H	0.417923	0.586148	0.111920
	H55	H	0.399125	0.404819	0.883182
	H56	H	0.115732	0.595183	0.412416
	H57	H	0.884434	0.587769	0.592696
	H58	H	0.113735	0.416701	0.600606
	H59	H	0.881435	0.404745	0.399532
	H60	H	0.120168	0.394108	0.602237
	H61	H	0.882798	0.589992	0.596901
	H62	H	0.112819	0.583699	0.410161
	H63	H	0.882896	0.399446	0.412177
	H64	H	0.405630	0.601489	0.120631
	H65	H	0.589844	0.587125	0.886389
	H66	H	0.594894	0.402503	0.117614
	H67	H	0.407910	0.410012	0.887320
	H68	H	0.588593	0.112934	0.411047
	H69	H	0.587915	0.882152	0.592609
	H70	H	0.401873	0.114088	0.588746
	H71	H	0.394824	0.877538	0.408120
	H72	H	0.897958	0.614298	0.085265
	H73	H	0.083318	0.382847	0.092672
	H74	H	0.088181	0.612634	0.907833
	H75	H	0.908203	0.378180	0.902139
	H76	H	0.090762	0.903041	0.616616
	H77	H	0.098668	0.085848	0.384220
	H78	H	0.913029	0.084128	0.612459
	H79	H	0.898290	0.913748	0.386313
	H80	H	0.612950	0.084536	0.910447
	H81	H	0.383918	0.088829	0.094007
	H82	H	0.617963	0.902630	0.103048
	H83	H	0.382671	0.904359	0.905649
	H84	H	0.615759	0.897954	0.089760
	H85	H	0.383354	0.090975	0.094625
	H86	H	0.616786	0.088879	0.901862
	H87	H	0.382925	0.903229	0.906657
	H88	H	0.906203	0.099166	0.619371
	H89	H	0.085542	0.085620	0.388413
	H90	H	0.095238	0.905819	0.617095
	H91	H	0.914600	0.905593	0.388899
	H92	H	0.093401	0.612673	0.913269
	H93	H	0.099522	0.380081	0.086882
	H94	H	0.908059	0.616919	0.104120
	H95	H	0.911778	0.381708	0.911594
	H96	H	0.403592	0.116597	0.600330
	H97	H	0.592159	0.880219	0.590812
	H98	H	0.594079	0.114404	0.409326
	H99	H	0.411335	0.879191	0.397091
	H100	H	0.595013	0.406133	0.116419
	H101	H	0.592973	0.595247	0.883517
	H102	H	0.397237	0.581568	0.117064
	H103	H	0.408352	0.399092	0.884996
	H104	H	0.116819	0.591014	0.401554
	H105	H	0.883115	0.592305	0.592657
	H106	H	0.112599	0.401918	0.582035
	H107	H	0.887296	0.412049	0.409819
	H108	H	0.918610	0.608304	0.087837
	H109	H	0.095576	0.376382	0.103364
	H110	H	0.095382	0.615556	0.905808
	H111	H	0.901586	0.379335	0.910560
	H112	H	0.090973	0.907814	0.615499
	H113	H	0.090795	0.096748	0.383533
	H114	H	0.896624	0.084585	0.617203
	H115	H	0.900581	0.895408	0.381666
	H116	H	0.615591	0.094111	0.910454
	H117	H	0.383982	0.089950	0.092234
	H118	H	0.612409	0.911487	0.093423
	H119	H	0.383457	0.904817	0.907131
	C120	C	0.377674	0.005291	0.622190
	C121	C	0.619611	0.989152	0.622252
	C122	C	0.619440	0.005667	0.379854
	C123	C	0.377011	0.989129	0.378936
	C124	C	0.622019	0.375373	0.008982
	C125	C	0.621678	0.618707	0.992624
	C126	C	0.378070	0.618731	0.009111
	C127	C	0.377891	0.375383	0.993086
	C128	C	0.007794	0.619307	0.378770
	C129	C	0.990915	0.619197	0.622673
	C130	C	0.007619	0.375594	0.622764
	C131	C	0.991634	0.375935	0.379523
	C132	C	0.879229	0.505205	0.121729
	C133	C	0.121787	0.488075	0.123087
	C134	C	0.121052	0.505351	0.880038
	C135	C	0.878286	0.488256	0.879416
	C136	C	0.120826	0.875784	0.508981
	C137	C	0.120615	0.118445	0.492892
	C138	C	0.876296	0.118985	0.509398
	C139	C	0.876159	0.875548	0.492777
	C140	C	0.507505	0.118416	0.879214
	C141	C	0.491563	0.118780	0.122333
	C142	C	0.507078	0.875673	0.122547
	C143	C	0.490905	0.875164	0.878433
	C144	C	0.379647	0.881570	0.677470
	C145	C	0.617627	0.112601	0.677856
	C146	C	0.616858	0.882026	0.324997
	C147	C	0.379133	0.112740	0.323849
	C148	C	0.677076	0.376710	0.886926
	C149	C	0.677485	0.616921	0.114814
	C150	C	0.321941	0.616611	0.886916
	C151	C	0.323284	0.376701	0.115378
	C152	C	0.884830	0.674149	0.380909
	C153	C	0.113856	0.674014	0.619400
	C154	C	0.884752	0.320793	0.619505
	C155	C	0.114334	0.320462	0.383221
	C156	C	0.885176	0.377631	0.678018
	C157	C	0.113329	0.617365	0.678250
	C158	C	0.886004	0.618266	0.321604
	C159	C	0.114027	0.377682	0.324556
	C160	C	0.381083	0.673060	0.886087
	C161	C	0.618325	0.673522	0.115417
	C162	C	0.618094	0.320352	0.886350
	C163	C	0.382535	0.320613	0.115442
	C164	C	0.673760	0.881790	0.383088
	C165	C	0.675482	0.112541	0.620904
	C166	C	0.322696	0.881248	0.619467
	C167	C	0.322122	0.112882	0.382112
	C168	C	0.881117	0.381914	0.177473
	C169	C	0.119844	0.611753	0.178139
	C170	C	0.118646	0.381706	0.824751
	C171	C	0.880576	0.611900	0.824426
	C172	C	0.176447	0.876729	0.387170
	C173	C	0.176278	0.116602	0.615198
	C174	C	0.819741	0.117819	0.387269
	C175	C	0.820683	0.876990	0.615113
	C176	C	0.385031	0.173970	0.882113
	C177	C	0.614572	0.173337	0.119381
	C178	C	0.384117	0.821284	0.118469
	C179	C	0.614274	0.820791	0.882755
	C180	C	0.384268	0.878292	0.176908
	C181	C	0.613826	0.117238	0.178646
	C182	C	0.385073	0.116943	0.823721
	C183	C	0.613401	0.877007	0.823350
	C184	C	0.878901	0.174523	0.386844
	C185	C	0.117009	0.172769	0.615814
	C186	C	0.117555	0.820346	0.386761
	C187	C	0.879569	0.820344	0.615334
	C188	C	0.175643	0.381528	0.882763
	C189	C	0.176524	0.611862	0.120443
	C190	C	0.823913	0.381818	0.119458
	C191	C	0.823064	0.611691	0.881517
	C192	C	0.399476	0.091497	0.600433
	C193	C	0.597224	0.902938	0.599709
	C194	C	0.597140	0.091959	0.402112
	C195	C	0.399150	0.903061	0.400606
	C196	C	0.600316	0.397622	0.094698
	C197	C	0.599915	0.596746	0.906990
	C198	C	0.400236	0.596330	0.094589
	C199	C	0.398925	0.398005	0.907146
	C200	C	0.092974	0.596683	0.401393
	C201	C	0.905463	0.596758	0.600535
	C202	C	0.093453	0.397848	0.601361
	C203	C	0.905866	0.398674	0.401078
	C204	C	0.901723	0.591348	0.099190
	C205	C	0.099414	0.402063	0.100809
	C206	C	0.098846	0.591433	0.902469
	C207	C	0.900654	0.402086	0.901436
	C208	C	0.098759	0.898694	0.594548
	C209	C	0.098304	0.095998	0.407392
	C210	C	0.898696	0.095955	0.594481
	C211	C	0.898045	0.898290	0.407659
	C212	C	0.593078	0.095850	0.901350
	C213	C	0.405870	0.096508	0.100182
	C214	C	0.593029	0.897711	0.101677
	C215	C	0.405173	0.897646	0.900081
	Zn216	Zn	0.498904	-0.003012	0.750390
	Zn217	Zn	0.498805	-0.002398	0.251113
	Zn218	Zn	0.750589	0.496792	0.000463
	Zn219	Zn	0.249089	0.496600	0.001850
	Zn220	Zn	-0.001322	0.747614	0.500541
	Zn221	Zn	-0.000956	0.246909	0.501098
	Zn222	Zn	-0.000725	0.497246	0.751791
	Zn223	Zn	0.000292	0.497387	0.250237
	Zn224	Zn	0.499469	0.747444	0.000719
	Zn225	Zn	0.500093	0.247128	0.000480
	Zn226	Zn	0.747454	-0.002500	0.501518
	Zn227	Zn	0.249372	-0.002844	0.500830
	N228	N	0.413111	0.959570	0.679340
	N229	N	0.583752	0.034759	0.678807
	N230	N	0.583817	0.960090	0.322811
	N231	N	0.412590	0.034840	0.321659
	N232	N	0.679360	0.410204	0.964131
	N233	N	0.679863	0.583640	0.037396
	N234	N	0.319872	0.583459	0.964426
	N235	N	0.320659	0.410392	0.038156
	N236	N	0.961421	0.674899	0.415879
	N237	N	0.036814	0.675082	0.585372
	N238	N	0.961736	0.319588	0.585745
	N239	N	0.037035	0.319295	0.416596
	N240	N	0.962752	0.410964	0.680283
	N241	N	0.035905	0.584090	0.680627
	N242	N	0.963484	0.584926	0.319994
	N243	N	0.036810	0.411472	0.322209
	N244	N	0.415195	0.674406	0.963033
	N245	N	0.584305	0.674594	0.038480
	N246	N	0.584482	0.319484	0.963440
	N247	N	0.415660	0.319705	0.038269
	N248	N	0.675484	0.959844	0.416308
	N249	N	0.676606	0.034893	0.586859
	N250	N	0.321143	0.959151	0.585861
	N251	N	0.320512	0.035036	0.415282
	N252	N	0.914984	0.459699	0.178828
	N253	N	0.086375	0.533822	0.179841
	N254	N	0.085177	0.459683	0.823030
	N255	N	0.914483	0.534132	0.823125
	N256	N	0.178306	0.910609	0.464191
	N257	N	0.178403	0.083365	0.537750
	N258	N	0.818307	0.083867	0.464234
	N259	N	0.818552	0.910754	0.537976
	N260	N	0.462198	0.174866	0.915934
	N261	N	0.537613	0.174263	0.085060
	N262	N	0.461383	0.819695	0.085349
	N263	N	0.536986	0.819854	0.916418
	N264	N	0.461984	0.911382	0.179668
	N265	N	0.536252	0.083957	0.180509
	N266	N	0.462209	0.083075	0.821927
	N267	N	0.535844	0.909879	0.820502
	N268	N	0.913327	0.175414	0.463677
	N269	N	0.083296	0.174026	0.538737
	N270	N	0.083355	0.820020	0.463637
	N271	N	0.913266	0.819129	0.538350
	N272	N	0.177297	0.459426	0.916337
	N273	N	0.177841	0.534049	0.086893
	N274	N	0.822681	0.459526	0.085575
	N275	N	0.821734	0.533871	0.914941
	O276	O	1.043314	0.952189	-0.017474
	H277	H	1.050797	0.951334	-0.015226
	H278	H	1.049545	0.952269	-0.022144
	O279	O	-0.036127	0.014654	0.008946
	H280	H	-0.029633	0.007066	0.011032
	H281	H	-0.035900	0.016807	0.009462
	O282	O	0.012787	-0.083376	0.982894
	H283	H	0.025446	-0.076370	0.984285
	H284	H	0.006063	-0.091530	0.974352
	O285	O	0.710540	0.651763	0.302576
	H286	H	0.706608	0.656933	0.297965
	H287	H	0.719559	0.641023	0.305821
	O288	O	0.545899	0.491022	0.497415
	H289	H	0.540043	0.491526	0.499636
	H290	H	0.542073	0.488133	0.507182
	O291	O	0.521277	0.495851	0.535829
	H292	H	0.522325	0.504131	0.535378
	H293	H	0.521297	0.501143	0.533278
	O294	O	-0.021955	-0.010978	0.015096
	H295	H	-0.029854	-0.009091	0.018377
	H296	H	-0.022498	-0.009298	0.016154
	O297	O	0.501492	0.541171	0.453247
	H298	H	0.496498	0.547317	0.458983
	H299	H	0.503755	0.538255	0.453874
	O300	O	-0.053807	0.997678	0.988077
	H301	H	-0.047842	0.994245	0.978590
	H302	H	-0.049399	0.997812	0.986594
	O303	O	0.510549	0.541575	0.499008
	H304	H	0.518712	0.536434	0.500909
	H305	H	0.515845	0.540131	0.502792
	O306	O	-0.066552	-0.017887	0.996681
	H307	H	-0.071502	-0.023560	1.004406
	H308	H	-0.071531	-0.018758	0.994494
	O309	O	0.991333	0.981850	1.053506
	H310	H	0.984787	0.989555	1.054815
	H311	H	0.996579	0.979320	1.053149
	O312	O	0.539602	0.518349	0.513786
	H313	H	0.543514	0.516321	0.514107
	H314	H	0.537281	0.519138	0.508077
	O315	O	0.559309	0.506697	0.444345
	H316	H	0.558404	0.508641	0.439300
	H317	H	0.552562	0.508346	0.431470
	O318	O	0.039355	0.969119	0.013817
	H319	H	0.036865	0.955562	0.025777
	H320	H	0.026129	0.978427	0.012471
	O321	O	0.978162	1.028032	0.023339
	H322	H	0.980438	1.025749	0.016978
	H323	H	0.970130	1.024216	0.023992
