data_Molecule from HDF5

_cell_length_a		16.395905
_cell_length_b		16.522192
_cell_length_c		16.589613
_cell_angle_alpha	90.002792
_cell_angle_beta	89.860787
_cell_angle_gamma	89.971873
_symmetry_space_group_name_H-M	'P 1'
_symmetry_Int_Tables_number		1

loop_
	_symmetry_equiv_pos_as_xyz
	x,y,z

loop_
	_atom_site_label
	_atom_site_type_symbol
	_atom_site_fract_x
	_atom_site_fract_y
	_atom_site_fract_z
	H0	H	0.401783	0.849376	0.732072
	H1	H	0.616458	0.162033	0.732068
	H2	H	0.616813	0.849177	0.286049
	H3	H	0.402141	0.162142	0.286839
	H4	H	0.731602	0.398025	0.851845
	H5	H	0.727396	0.607328	0.166058
	H6	H	0.287760	0.608004	0.853325
	H7	H	0.283966	0.396284	0.165518
	H8	H	0.852125	0.725325	0.403537
	H9	H	0.166980	0.724463	0.613224
	H10	H	0.852565	0.280311	0.617965
	H11	H	0.168509	0.282588	0.403137
	H12	H	0.851676	0.395567	0.733151
	H13	H	0.165755	0.610013	0.730928
	H14	H	0.851979	0.608294	0.288824
	H15	H	0.166382	0.394786	0.284605
	H16	H	0.400553	0.728276	0.855256
	H17	H	0.612839	0.725838	0.164992
	H18	H	0.612990	0.282650	0.851020
	H19	H	0.398701	0.278673	0.164415
	H20	H	0.730535	0.847842	0.404809
	H21	H	0.729980	0.163381	0.613250
	H22	H	0.289484	0.847547	0.612289
	H23	H	0.289129	0.163650	0.406061
	H24	H	0.902765	0.348349	0.231940
	H25	H	0.117282	0.659385	0.233441
	H26	H	0.119296	0.349673	0.783268
	H27	H	0.900524	0.660030	0.785270
	H28	H	0.231589	0.899502	0.352372
	H29	H	0.232252	0.110119	0.666459
	H30	H	0.789884	0.108128	0.354042
	H31	H	0.787059	0.898535	0.666464
	H32	H	0.350992	0.227060	0.901300
	H33	H	0.665289	0.225642	0.113297
	H34	H	0.349495	0.782888	0.115241
	H35	H	0.666096	0.782354	0.903993
	H36	H	0.351103	0.896394	0.233456
	H37	H	0.665397	0.109300	0.229976
	H38	H	0.352650	0.112468	0.784880
	H39	H	0.666680	0.896487	0.786395
	H40	H	0.904995	0.227187	0.355286
	H41	H	0.120266	0.229884	0.664666
	H42	H	0.115810	0.782283	0.352702
	H43	H	0.903042	0.781516	0.665664
	H44	H	0.231485	0.347744	0.902800
	H45	H	0.229933	0.661103	0.114348
	H46	H	0.788320	0.347042	0.112297
	H47	H	0.787706	0.661714	0.905137
	H48	H	0.422932	0.117688	0.597689
	H49	H	0.598546	0.892765	0.597904
	H50	H	0.595837	0.116708	0.418879
	H51	H	0.424128	0.890899	0.412761
	H52	H	0.593953	0.418095	0.118176
	H53	H	0.598075	0.592606	0.896805
	H54	H	0.425292	0.595715	0.121096
	H55	H	0.423731	0.420776	0.901387
	H56	H	0.121576	0.594213	0.426525
	H57	H	0.892964	0.597634	0.600052
	H58	H	0.121118	0.415903	0.593753
	H59	H	0.897285	0.415879	0.422530
	H60	H	0.119546	0.422121	0.596997
	H61	H	0.896785	0.592044	0.591645
	H62	H	0.122590	0.586207	0.417305
	H63	H	0.897479	0.416052	0.421629
	H64	H	0.415735	0.596127	0.124372
	H65	H	0.595483	0.594628	0.896579
	H66	H	0.594013	0.409226	0.120073
	H67	H	0.424103	0.409420	0.897335
	H68	H	0.599996	0.117664	0.420564
	H69	H	0.598377	0.892319	0.599880
	H70	H	0.421695	0.117335	0.597462
	H71	H	0.426117	0.896157	0.424905
	H72	H	0.917050	0.616909	0.096950
	H73	H	0.097975	0.390303	0.099899
	H74	H	0.095403	0.616718	0.919497
	H75	H	0.921041	0.390841	0.916995
	H76	H	0.098712	0.909674	0.622014
	H77	H	0.091936	0.086021	0.402861
	H78	H	0.923937	0.094142	0.622326
	H79	H	0.922258	0.917037	0.398654
	H80	H	0.624499	0.100089	0.917737
	H81	H	0.396016	0.089940	0.095728
	H82	H	0.619727	0.912096	0.091963
	H83	H	0.395556	0.921788	0.915746
	H84	H	0.618324	0.922668	0.097459
	H85	H	0.394732	0.089755	0.099031
	H86	H	0.618674	0.091902	0.928308
	H87	H	0.394479	0.911922	0.920734
	H88	H	0.919428	0.094060	0.623179
	H89	H	0.094599	0.103128	0.397192
	H90	H	0.102807	0.916030	0.622246
	H91	H	0.923024	0.911958	0.397542
	H92	H	0.096219	0.616136	0.921383
	H93	H	0.091500	0.392381	0.099492
	H94	H	0.917503	0.618180	0.102560
	H95	H	0.924828	0.394606	0.921577
	H96	H	0.421939	0.117756	0.598652
	H97	H	0.597264	0.893826	0.599374
	H98	H	0.598435	0.119639	0.416863
	H99	H	0.413721	0.891254	0.421606
	H100	H	0.601489	0.414172	0.121909
	H101	H	0.598343	0.595467	0.895463
	H102	H	0.419131	0.587625	0.120651
	H103	H	0.414256	0.415765	0.895969
	H104	H	0.126333	0.597602	0.415920
	H105	H	0.895394	0.587122	0.601577
	H106	H	0.123002	0.417317	0.600269
	H107	H	0.897408	0.415528	0.422018
	H108	H	0.922353	0.616624	0.099202
	H109	H	0.095654	0.393210	0.093740
	H110	H	0.097714	0.616698	0.919372
	H111	H	0.918435	0.391897	0.923282
	H112	H	0.095772	0.916195	0.619846
	H113	H	0.108124	0.090988	0.395731
	H114	H	0.921816	0.089792	0.621569
	H115	H	0.917628	0.914112	0.397600
	H116	H	0.621631	0.085993	0.915666
	H117	H	0.394534	0.092623	0.097486
	H118	H	0.624124	0.913420	0.103252
	H119	H	0.399243	0.920350	0.926497
	C120	C	0.388950	0.013855	0.630197
	C121	C	0.630970	0.996836	0.631199
	C122	C	0.630873	0.013967	0.386952
	C123	C	0.387563	0.996703	0.387562
	C124	C	0.629482	0.381991	0.016467
	C125	C	0.629057	0.625528	1.000230
	C126	C	0.387038	0.625527	0.018894
	C127	C	0.385600	0.381250	1.000783
	C128	C	0.018618	0.625073	0.387896
	C129	C	0.999943	0.624552	0.629843
	C130	C	0.017867	0.383498	0.631430
	C131	C	1.001717	0.382926	0.388597
	C132	C	0.886907	0.513199	0.131325
	C133	C	0.129119	0.495245	0.130679
	C134	C	0.130318	0.513190	0.886913
	C135	C	0.887869	0.495800	0.887738
	C136	C	0.131676	0.882327	0.517619
	C137	C	0.131412	0.126000	0.501540
	C138	C	0.889487	0.125338	0.519051
	C139	C	0.887490	0.881982	0.501047
	C140	C	0.517515	0.125365	0.887370
	C141	C	0.499191	0.124608	0.129626
	C142	C	0.516342	0.883557	0.130578
	C143	C	0.500257	0.883756	0.887831
	C144	C	0.384661	0.896152	0.691185
	C145	C	0.633984	0.115024	0.691379
	C146	C	0.634492	0.896209	0.326310
	C147	C	0.384720	0.115231	0.327822
	C148	C	0.690725	0.379947	0.898896
	C149	C	0.687844	0.626489	0.118689
	C150	C	0.327460	0.627305	0.900602
	C151	C	0.324189	0.378329	0.118283
	C152	C	0.899646	0.685304	0.385563
	C153	C	0.119393	0.684492	0.631989
	C154	C	0.900025	0.320785	0.635589
	C155	C	0.120407	0.322309	0.385144
	C156	C	0.899467	0.378398	0.693044
	C157	C	0.118582	0.627891	0.690699
	C158	C	0.899472	0.627064	0.328371
	C159	C	0.119675	0.378682	0.326327
	C160	C	0.383196	0.687184	0.901522
	C161	C	0.630825	0.685307	0.118213
	C162	C	0.632038	0.322211	0.898402
	C163	C	0.381111	0.319328	0.117488
	C164	C	0.690959	0.895622	0.385643
	C165	C	0.690500	0.115717	0.632413
	C166	C	0.328640	0.895250	0.631830
	C167	C	0.328097	0.115817	0.386927
	C168	C	0.884520	0.395045	0.191296
	C169	C	0.134154	0.612766	0.192473
	C170	C	0.135577	0.396118	0.824484
	C171	C	0.883404	0.613577	0.826484
	C172	C	0.191817	0.880744	0.399646
	C173	C	0.192253	0.128252	0.619313
	C174	C	0.830154	0.126884	0.400734
	C175	C	0.827213	0.880266	0.618971
	C176	C	0.398563	0.186424	0.883693
	C177	C	0.618022	0.185384	0.131729
	C178	C	0.397310	0.823022	0.133515
	C179	C	0.618689	0.822169	0.885179
	C180	C	0.398029	0.879613	0.192398
	C181	C	0.618156	0.127667	0.189534
	C182	C	0.399431	0.129627	0.825515
	C183	C	0.619054	0.879544	0.827156
	C184	C	0.886880	0.186074	0.401555
	C185	C	0.136653	0.188140	0.618448
	C186	C	0.134225	0.822457	0.399787
	C187	C	0.885215	0.821935	0.618747
	C188	C	0.191639	0.395297	0.884039
	C189	C	0.190216	0.613588	0.133123
	C190	C	0.827718	0.394428	0.132045
	C191	C	0.827237	0.614270	0.885969
	C192	C	0.414715	0.096051	0.605075
	C193	C	0.605382	0.914510	0.606239
	C194	C	0.605288	0.096570	0.411800
	C195	C	0.413861	0.914479	0.412496
	C196	C	0.603906	0.406676	0.098610
	C197	C	0.604236	0.601114	0.917704
	C198	C	0.412737	0.600201	0.100708
	C199	C	0.412769	0.407824	0.919376
	C200	C	0.101847	0.599746	0.412741
	C201	C	0.916826	0.599524	0.604963
	C202	C	0.099889	0.410574	0.604673
	C203	C	0.918930	0.408563	0.414581
	C204	C	0.911853	0.595845	0.106672
	C205	C	0.102657	0.413522	0.105243
	C206	C	0.103882	0.595160	0.912712
	C207	C	0.914141	0.413832	0.913037
	C208	C	0.106305	0.906925	0.600031
	C209	C	0.105571	0.100771	0.419949
	C210	C	0.914527	0.099981	0.601045
	C211	C	0.913430	0.907176	0.419055
	C212	C	0.599998	0.099882	0.913218
	C213	C	0.416686	0.098381	0.104436
	C214	C	0.599108	0.908884	0.104876
	C215	C	0.417840	0.910494	0.913530
	Zn216	Zn	0.509724	0.004936	0.759399
	Zn217	Zn	0.508316	0.004428	0.258896
	Zn218	Zn	0.758425	0.504698	0.009109
	Zn219	Zn	0.258008	0.504190	0.009519
	Zn220	Zn	0.009956	0.753225	0.508889
	Zn221	Zn	0.010799	0.255036	0.510139
	Zn222	Zn	0.008378	0.504327	0.758951
	Zn223	Zn	0.009191	0.503737	0.260073
	Zn224	Zn	0.507838	0.755273	0.009549
	Zn225	Zn	0.507916	0.252844	0.008367
	Zn226	Zn	0.759200	0.005180	0.509532
	Zn227	Zn	0.259781	0.004922	0.509432
	N228	N	0.421215	0.970859	0.690491
	N229	N	0.597942	0.039949	0.690842
	N230	N	0.597818	0.970954	0.327180
	N231	N	0.420625	0.040100	0.327861
	N232	N	0.689599	0.416011	0.973422
	N233	N	0.686950	0.590047	0.044124
	N234	N	0.329512	0.589785	0.974580
	N235	N	0.326816	0.415927	0.044486
	N236	N	0.975027	0.684343	0.421676
	N237	N	0.044640	0.682550	0.594907
	N238	N	0.974879	0.323567	0.597995
	N239	N	0.046124	0.324983	0.423444
	N240	N	0.973745	0.416539	0.690636
	N241	N	0.043310	0.591363	0.689467
	N242	N	0.974714	0.590668	0.329568
	N243	N	0.044563	0.415869	0.328432
	N244	N	0.419526	0.686087	0.975898
	N245	N	0.595055	0.684888	0.043486
	N246	N	0.594969	0.323165	0.972764
	N247	N	0.418353	0.320803	0.043103
	N248	N	0.688963	0.969920	0.422551
	N249	N	0.688921	0.041096	0.595799
	N250	N	0.331007	0.969597	0.594752
	N251	N	0.329606	0.040927	0.423107
	N252	N	0.920542	0.470036	0.191076
	N253	N	0.096999	0.538266	0.191120
	N254	N	0.098228	0.470648	0.826081
	N255	N	0.920279	0.538851	0.827424
	N256	N	0.190279	0.917321	0.474008
	N257	N	0.189335	0.090511	0.545585
	N258	N	0.831582	0.090027	0.474852
	N259	N	0.828655	0.916928	0.544758
	N260	N	0.472835	0.183705	0.921879
	N261	N	0.543019	0.183515	0.095185
	N262	N	0.471778	0.825382	0.095639
	N263	N	0.543845	0.824718	0.922381
	N264	N	0.473036	0.916598	0.190692
	N265	N	0.543173	0.090832	0.188540
	N266	N	0.474154	0.092151	0.827924
	N267	N	0.544348	0.917240	0.828675
	N268	N	0.923047	0.185159	0.476131
	N269	N	0.099353	0.186753	0.544410
	N270	N	0.097768	0.823030	0.474406
	N271	N	0.921796	0.822624	0.544138
	N272	N	0.188687	0.468985	0.922034
	N273	N	0.187444	0.539638	0.095419
	N274	N	0.829131	0.468923	0.095511
	N275	N	0.829577	0.540072	0.923177
	O276	O	0.714834	0.304322	0.493667
	H277	H	0.740461	0.275943	0.481664
	H278	H	0.702244	0.314903	0.462843
	O279	O	0.716866	0.458017	0.519057
	H280	H	0.711468	0.471840	0.513454
	H281	H	0.720151	0.440681	0.509676
	O282	O	0.989550	0.790928	0.174799
	H283	H	1.000361	0.797932	0.177600
	H284	H	0.999045	0.789923	0.186238
	O285	O	0.499388	0.473929	0.388105
	H286	H	0.483586	0.477043	0.398853
	H287	H	0.496110	0.473238	0.401769
	O288	O	-0.030728	-0.014183	0.226740
	H289	H	-0.039718	-0.016422	0.231975
	H290	H	-0.029988	-0.009626	0.218935
	O291	O	1.051925	1.119873	0.062924
	H292	H	1.032552	1.116135	0.070322
	H293	H	1.053828	1.124473	0.051072
	O294	O	0.078265	1.105233	0.166031
	H295	H	0.070487	1.110546	0.153636
	H296	H	0.070429	1.103149	0.176345
	O297	O	0.536100	0.632849	0.497809
	H298	H	0.556902	0.629992	0.484429
	H299	H	0.554302	0.643397	0.495626
	O300	O	0.569542	0.380300	0.572365
	H301	H	0.578201	0.383467	0.567659
	H302	H	0.571568	0.378953	0.567802
	O303	O	0.298088	0.292919	0.541743
	H304	H	0.301891	0.299414	0.589560
	H305	H	0.269824	0.277287	0.539409
	O306	O	-0.192770	0.802567	1.204756
	H307	H	-0.157482	0.792789	1.206586
	H308	H	-0.196148	0.795282	1.218683
	O309	O	0.374542	0.705998	0.636973
	H310	H	0.386889	0.702278	0.644938
	H311	H	0.372398	0.694130	0.625652
	O312	O	0.518726	0.508992	0.440726
	H313	H	0.523165	0.511179	0.455928
	H314	H	0.505779	0.497907	0.436210
	O315	O	-0.100019	0.039497	0.900936
	H316	H	-0.103229	0.019259	0.916610
	H317	H	-0.112374	0.030445	0.881417
	O318	O	-0.191121	1.201100	0.213085
	H319	H	-0.167354	1.184511	0.193191
	H320	H	-0.180541	1.183803	0.195460
	O321	O	0.411585	0.623943	0.304049
	H322	H	0.401191	0.614410	0.320599
	H323	H	0.414891	0.619090	0.289616
	O324	O	1.002074	-0.132643	0.934021
	H325	H	0.989395	-0.123111	0.938925
	H326	H	0.990135	-0.141610	0.931878
	O327	O	1.173356	0.034648	0.802737
	H328	H	1.196216	0.037910	0.793468
	H329	H	1.166621	0.049136	0.815649
	O330	O	0.879023	-0.171613	0.011438
	H331	H	0.866561	-0.172674	0.018915
	H332	H	0.877843	-0.165919	0.031022
	O333	O	0.694479	0.696663	0.702202
	H334	H	0.707455	0.654498	0.714460
	H335	H	0.673927	0.709065	0.697859
	O336	O	0.813215	0.028040	1.010439
	H337	H	0.808974	0.041006	1.004095
	H338	H	0.810976	0.008374	1.002952
	O339	O	0.185215	0.185476	0.192943
	H340	H	0.197343	0.190600	0.146918
	H341	H	0.143539	0.192160	0.198312
	O342	O	0.481612	0.710990	0.496959
	H343	H	0.473346	0.718139	0.489571
	H344	H	0.478214	0.720605	0.493944
	O345	O	0.011658	-0.138133	0.120861
	H346	H	0.035348	-0.120536	0.118375
	H347	H	0.016688	-0.141623	0.129102
	O348	O	1.205222	-0.035682	1.024087
	H349	H	1.206168	-0.038590	1.042396
	H350	H	1.207289	-0.049564	1.021917
	O351	O	1.083222	1.168826	-0.142419
	H352	H	1.059146	1.156161	-0.139906
	H353	H	1.098458	1.179071	-0.136077
	O354	O	0.715927	0.532497	0.717674
	H355	H	0.725181	0.522974	0.714429
	H356	H	0.728844	0.522039	0.715784
	O357	O	0.787564	0.976898	1.126715
	H358	H	0.796605	0.956712	1.112984
	H359	H	0.768310	0.969220	1.139441
	O360	O	0.304103	0.551732	0.574930
	H361	H	0.306059	0.557972	0.578588
	H362	H	0.311212	0.555678	0.551946
	O363	O	0.571728	0.451947	0.475105
	H364	H	0.566785	0.473324	0.475485
	H365	H	0.586496	0.448156	0.457605
	O366	O	0.837000	-0.076703	0.840910
	H367	H	0.865058	-0.092816	0.834012
	H368	H	0.819576	-0.077574	0.824061
	O369	O	-0.025604	0.960604	-0.195961
	H370	H	-0.025902	0.945232	-0.191461
	H371	H	-0.010215	0.960987	-0.202967
	O372	O	0.298211	0.715189	0.488643
	H373	H	0.274437	0.741750	0.479287
	H374	H	0.302155	0.704107	0.465839
	O375	O	-0.097668	1.115467	1.049410
	H376	H	-0.104322	1.118448	1.044963
	H377	H	-0.113768	1.116917	1.047567
	O378	O	0.540005	0.291091	0.294079
	H379	H	0.528866	0.294929	0.310087
	H380	H	0.535427	0.271854	0.272760
	O381	O	0.790521	0.222546	-0.015645
	H382	H	0.761647	0.242055	-0.027057
	H383	H	0.795322	0.219477	-0.059965
	O384	O	-0.291549	0.308238	1.309955
	H385	H	-0.324858	0.314655	1.306774
	H386	H	-0.266011	0.277372	1.277999
	O387	O	0.089737	0.926638	0.943515
	H388	H	0.073709	0.920913	0.932373
	H389	H	0.100377	0.902404	0.935248
	O390	O	0.499557	0.309714	0.696445
	H391	H	0.512377	0.322602	0.701421
	H392	H	0.514750	0.303232	0.677747
	O393	O	1.118878	0.872964	0.058685
	H394	H	1.115850	0.869423	0.063377
	H395	H	1.121534	0.870226	0.063200
	O396	O	0.600901	0.593769	0.422466
	H397	H	0.600162	0.592301	0.426021
	H398	H	0.608451	0.578369	0.422397
	O399	O	0.431771	0.585325	0.726252
	H400	H	0.432226	0.590535	0.722867
	H401	H	0.424159	0.581561	0.726177
	O402	O	-0.018754	0.217111	0.802826
	H403	H	-0.019449	0.245627	0.775708
	H404	H	-0.004641	0.206393	0.818356
	O405	O	0.179772	0.071427	-0.049227
	H406	H	0.184125	0.048082	-0.032541
	H407	H	0.177460	0.072714	-0.051138
	O408	O	0.725401	0.723901	0.541141
	H409	H	0.753730	0.744496	0.551748
	H410	H	0.727971	0.715565	0.558366
	O411	O	0.264636	0.731337	0.266417
	H412	H	0.279040	0.738335	0.267165
	H413	H	0.251738	0.704353	0.259362
	O414	O	0.306377	0.478263	0.719949
	H415	H	0.307345	0.492766	0.719038
	H416	H	0.286839	0.477372	0.719936
	O417	O	0.824296	0.180760	0.824643
	H418	H	0.809941	0.138670	0.807245
	H419	H	0.867715	0.179331	0.816422
	O420	O	0.519715	0.344741	0.470447
	H421	H	0.518304	0.339695	0.469711
	H422	H	0.528956	0.351811	0.478454
	O423	O	0.227200	1.029928	0.228783
	H424	H	0.209434	1.064009	0.218966
	H425	H	0.263600	1.034596	0.260618
	O426	O	1.212978	0.873700	0.805891
	H427	H	1.215141	0.866079	0.820520
	H428	H	1.231027	0.881873	0.807531
	O429	O	0.520395	0.707806	0.720586
	H430	H	0.523123	0.714160	0.728124
	H431	H	0.521560	0.712395	0.715291
	O432	O	0.306823	0.476546	0.371767
	H433	H	0.325427	0.462022	0.384959
	H434	H	0.290998	0.461793	0.357424
	O435	O	0.165295	-0.132190	-0.012890
	H436	H	0.170100	-0.122386	-0.018362
	H437	H	0.174283	-0.137467	-0.017725
	O438	O	1.224289	0.219753	0.033557
	H439	H	1.213248	0.196254	0.008399
	H440	H	1.265337	0.254162	0.034593
	O441	O	-0.115714	-0.154514	-0.002976
	H442	H	-0.118244	-0.154435	0.007717
	H443	H	-0.109389	-0.164122	0.019944
	O444	O	0.382501	0.383395	0.457318
	H445	H	0.382256	0.376123	0.466010
	H446	H	0.381955	0.392049	0.449540
	O447	O	0.554146	0.460254	0.663095
	H448	H	0.559113	0.465620	0.646507
	H449	H	0.549526	0.472345	0.672787
	O450	O	0.331163	0.312490	0.696740
	H451	H	0.319475	0.347255	0.714259
	H452	H	0.379544	0.303669	0.702298
	O453	O	0.681286	0.674303	0.316391
	H454	H	0.664581	0.672595	0.317190
	H455	H	0.672918	0.656828	0.328384
	O456	O	0.712701	0.478884	0.296027
	H457	H	0.720566	0.476488	0.273977
	H458	H	0.714015	0.450046	0.301783
	O459	O	-0.027351	0.206225	0.139521
	H460	H	-0.040268	0.208213	0.124685
	H461	H	-0.025813	0.209709	0.134529
	O462	O	0.454154	0.620472	0.340272
	H463	H	0.451834	0.600937	0.339856
	H464	H	0.458069	0.618774	0.348744
	O465	O	0.963059	-0.174203	-0.202649
	H466	H	0.974967	-0.195679	-0.213925
	H467	H	0.996068	-0.163834	-0.184621
