data_Molecule from HDF5

_cell_length_a		16.405932
_cell_length_b		16.208015
_cell_length_c		16.258851
_cell_angle_alpha	89.766240
_cell_angle_beta	90.088957
_cell_angle_gamma	90.111427
_symmetry_space_group_name_H-M	'P 1'
_symmetry_Int_Tables_number		1

loop_
	_symmetry_equiv_pos_as_xyz
	x,y,z

loop_
	_atom_site_label
	_atom_site_type_symbol
	_atom_site_fract_x
	_atom_site_fract_y
	_atom_site_fract_z
	H0	H	0.402486	0.834502	0.714339
	H1	H	0.598306	0.163934	0.711708
	H2	H	0.596000	0.833237	0.288027
	H3	H	0.401596	0.162613	0.285268
	H4	H	0.715166	0.400198	0.835427
	H5	H	0.716555	0.598538	0.162672
	H6	H	0.283397	0.601370	0.836181
	H7	H	0.283816	0.398150	0.161776
	H8	H	0.837174	0.714802	0.399256
	H9	H	0.162802	0.713667	0.596674
	H10	H	0.838123	0.282366	0.599533
	H11	H	0.163044	0.284934	0.403073
	H12	H	0.837694	0.398489	0.714875
	H13	H	0.162128	0.598380	0.714569
	H14	H	0.836989	0.598696	0.282432
	H15	H	0.162247	0.400107	0.284126
	H16	H	0.403763	0.713576	0.835085
	H17	H	0.597142	0.711365	0.164095
	H18	H	0.595939	0.288169	0.834328
	H19	H	0.402609	0.285188	0.162786
	H20	H	0.714642	0.834902	0.400881
	H21	H	0.717095	0.162245	0.599300
	H22	H	0.285229	0.834390	0.599577
	H23	H	0.284370	0.162135	0.398642
	H24	H	0.902954	0.334262	0.212067
	H25	H	0.098098	0.663697	0.212021
	H26	H	0.095846	0.334475	0.788439
	H27	H	0.902600	0.662997	0.784428
	H28	H	0.215420	0.898992	0.337233
	H29	H	0.217894	0.099600	0.662161
	H30	H	0.784606	0.099589	0.336173
	H31	H	0.783785	0.896703	0.662102
	H32	H	0.337247	0.214625	0.898979
	H33	H	0.663143	0.213918	0.096464
	H34	H	0.337580	0.782515	0.098808
	H35	H	0.663498	0.785739	0.902240
	H36	H	0.337300	0.898270	0.215300
	H37	H	0.662092	0.099168	0.215427
	H38	H	0.337842	0.098895	0.782067
	H39	H	0.663142	0.901218	0.784265
	H40	H	0.904019	0.212739	0.335495
	H41	H	0.097681	0.211097	0.664689
	H42	H	0.098554	0.785351	0.335764
	H43	H	0.902521	0.784072	0.663216
	H44	H	0.215121	0.335847	0.899498
	H45	H	0.215855	0.662923	0.098462
	H46	H	0.783252	0.335818	0.100649
	H47	H	0.785519	0.663220	0.898973
	H48	H	0.396433	0.118196	0.586491
	H49	H	0.593555	0.881096	0.594946
	H50	H	0.591050	0.115806	0.403211
	H51	H	0.401392	0.879028	0.402774
	H52	H	0.593253	0.411929	0.114454
	H53	H	0.603424	0.583628	0.883113
	H54	H	0.401283	0.590212	0.117181
	H55	H	0.400854	0.411363	0.881450
	H56	H	0.114263	0.583556	0.399034
	H57	H	0.883193	0.582949	0.603742
	H58	H	0.115695	0.395904	0.583787
	H59	H	0.886857	0.411845	0.407356
	H60	H	0.111480	0.419212	0.592609
	H61	H	0.880204	0.605564	0.591859
	H62	H	0.118959	0.602128	0.402263
	H63	H	0.883407	0.404041	0.400905
	H64	H	0.409691	0.585812	0.113650
	H65	H	0.582096	0.590164	0.887111
	H66	H	0.588292	0.403887	0.114780
	H67	H	0.410842	0.411560	0.884473
	H68	H	0.590949	0.113893	0.411263
	H69	H	0.589977	0.883349	0.591364
	H70	H	0.409692	0.118205	0.602326
	H71	H	0.413395	0.883519	0.406308
	H72	H	0.909416	0.615559	0.089757
	H73	H	0.097449	0.383803	0.082874
	H74	H	0.102847	0.620145	0.903881
	H75	H	0.910076	0.384647	0.912314
	H76	H	0.089975	0.909101	0.614452
	H77	H	0.092620	0.098511	0.381831
	H78	H	0.902473	0.082981	0.615072
	H79	H	0.903430	0.909955	0.382808
	H80	H	0.614500	0.089920	0.903109
	H81	H	0.384382	0.093874	0.092434
	H82	H	0.616391	0.902501	0.096265
	H83	H	0.386480	0.902613	0.915056
	H84	H	0.614824	0.905675	0.090710
	H85	H	0.385367	0.090868	0.090700
	H86	H	0.616851	0.096968	0.904419
	H87	H	0.387694	0.915127	0.905525
	H88	H	0.913978	0.089551	0.613791
	H89	H	0.098542	0.088844	0.382929
	H90	H	0.092302	0.902384	0.616997
	H91	H	0.910031	0.908989	0.384443
	H92	H	0.084179	0.615895	0.899490
	H93	H	0.096612	0.378571	0.099467
	H94	H	0.905693	0.615795	0.089444
	H95	H	0.899740	0.380543	0.909860
	H96	H	0.415496	0.110015	0.584035
	H97	H	0.594807	0.882690	0.589307
	H98	H	0.597342	0.116464	0.407768
	H99	H	0.403741	0.883029	0.415527
	H100	H	0.596948	0.404612	0.117374
	H101	H	0.597459	0.605181	0.878282
	H102	H	0.409512	0.595320	0.116952
	H103	H	0.406658	0.402808	0.880827
	H104	H	0.110978	0.591011	0.416210
	H105	H	0.890384	0.585355	0.579015
	H106	H	0.120943	0.401566	0.607424
	H107	H	0.885347	0.402086	0.411032
	H108	H	0.906548	0.616025	0.092764
	H109	H	0.082980	0.385425	0.091650
	H110	H	0.090541	0.612663	0.917437
	H111	H	0.907364	0.380599	0.902185
	H112	H	0.096941	0.907253	0.617399
	H113	H	0.087914	0.088928	0.386664
	H114	H	0.903046	0.096270	0.619851
	H115	H	0.906189	0.904718	0.382130
	H116	H	0.614299	0.092584	0.909968
	H117	H	0.384529	0.091199	0.094856
	H118	H	0.615448	0.909295	0.096603
	H119	H	0.382042	0.902259	0.900162
	C120	C	0.378729	0.007037	0.620395
	C121	C	0.621818	0.990891	0.620537
	C122	C	0.621135	0.006943	0.378633
	C123	C	0.377848	0.990002	0.378337
	C124	C	0.621067	0.378618	0.007220
	C125	C	0.622367	0.620922	0.991298
	C126	C	0.378865	0.620114	0.007686
	C127	C	0.377889	0.378553	0.990213
	C128	C	0.007511	0.621161	0.376846
	C129	C	0.991931	0.620501	0.620528
	C130	C	0.008636	0.376248	0.622705
	C131	C	0.992039	0.377267	0.378223
	C132	C	0.878227	0.507408	0.120095
	C133	C	0.121665	0.490845	0.120375
	C134	C	0.121149	0.507758	0.878446
	C135	C	0.877698	0.490243	0.878189
	C136	C	0.121111	0.877752	0.508213
	C137	C	0.122029	0.120315	0.491529
	C138	C	0.878633	0.119803	0.508075
	C139	C	0.877957	0.877441	0.491044
	C140	C	0.507966	0.121852	0.876690
	C141	C	0.492034	0.120978	0.120784
	C142	C	0.507937	0.876671	0.122109
	C143	C	0.492630	0.878029	0.877995
	C144	C	0.381721	0.883361	0.676123
	C145	C	0.619299	0.114558	0.674673
	C146	C	0.617608	0.882893	0.324447
	C147	C	0.381317	0.113681	0.323122
	C148	C	0.676464	0.380891	0.884089
	C149	C	0.678001	0.618483	0.114293
	C150	C	0.322833	0.620084	0.884620
	C151	C	0.322172	0.378624	0.113075
	C152	C	0.885380	0.676452	0.378875
	C153	C	0.114020	0.675950	0.617530
	C154	C	0.886583	0.320485	0.620015
	C155	C	0.114532	0.322729	0.381831
	C156	C	0.886377	0.378351	0.677307
	C157	C	0.113674	0.618672	0.676198
	C158	C	0.885486	0.618872	0.320731
	C159	C	0.114104	0.379742	0.322668
	C160	C	0.382256	0.675930	0.884157
	C161	C	0.618571	0.674344	0.115069
	C162	C	0.617789	0.324579	0.883484
	C163	C	0.381315	0.322575	0.113711
	C164	C	0.676323	0.883590	0.380704
	C165	C	0.678089	0.113830	0.618846
	C166	C	0.323190	0.883544	0.619625
	C167	C	0.322781	0.113289	0.379358
	C168	C	0.881576	0.383474	0.174929
	C169	C	0.119236	0.614459	0.174905
	C170	C	0.118086	0.383955	0.824537
	C171	C	0.881239	0.614073	0.822285
	C172	C	0.176923	0.879258	0.385537
	C173	C	0.178606	0.118746	0.614082
	C174	C	0.823019	0.119264	0.385010
	C175	C	0.822417	0.877612	0.613629
	C176	C	0.385820	0.176643	0.878764
	C177	C	0.614187	0.176498	0.117691
	C178	C	0.385956	0.820954	0.119114
	C179	C	0.614921	0.823382	0.881521
	C180	C	0.385773	0.878538	0.177087
	C181	C	0.613808	0.119183	0.176806
	C182	C	0.386178	0.119332	0.820518
	C183	C	0.614677	0.880568	0.822726
	C184	C	0.882388	0.175381	0.384690
	C185	C	0.118960	0.174303	0.615339
	C186	C	0.118571	0.823019	0.384802
	C187	C	0.881316	0.821459	0.614123
	C188	C	0.177024	0.384656	0.880003
	C189	C	0.177756	0.613902	0.118578
	C190	C	0.822442	0.384373	0.119180
	C191	C	0.823168	0.614046	0.879087
	C192	C	0.400618	0.093239	0.597502
	C193	C	0.599482	0.904730	0.598395
	C194	C	0.599403	0.093127	0.400758
	C195	C	0.399758	0.903982	0.401361
	C196	C	0.599330	0.400486	0.093254
	C197	C	0.600760	0.599377	0.904930
	C198	C	0.400478	0.597250	0.093639
	C199	C	0.399717	0.401629	0.904466
	C200	C	0.092591	0.598833	0.399346
	C201	C	0.906625	0.597752	0.598116
	C202	C	0.094038	0.398824	0.601006
	C203	C	0.907171	0.399324	0.400152
	C204	C	0.900575	0.593592	0.097410
	C205	C	0.098940	0.404759	0.098099
	C206	C	0.099035	0.594077	0.900532
	C207	C	0.899373	0.404145	0.901275
	C208	C	0.099385	0.899800	0.593964
	C209	C	0.099669	0.098546	0.405888
	C210	C	0.900306	0.096442	0.594020
	C211	C	0.899932	0.900936	0.405261
	C212	C	0.593111	0.099615	0.899384
	C213	C	0.406634	0.098667	0.099048
	C214	C	0.593456	0.899213	0.100608
	C215	C	0.407304	0.900309	0.900228
	Zn216	Zn	0.500178	-0.000570	0.748261
	Zn217	Zn	0.499596	-0.001545	0.250608
	Zn218	Zn	0.750143	0.499560	-0.000980
	Zn219	Zn	0.249573	0.499473	-0.001255
	Zn220	Zn	-0.000347	0.749945	0.498653
	Zn221	Zn	0.000311	0.248068	0.500690
	Zn222	Zn	-0.000261	0.498704	0.750744
	Zn223	Zn	0.000027	0.499275	0.248011
	Zn224	Zn	0.500313	0.748812	-0.000076
	Zn225	Zn	0.499819	0.250578	-0.001580
	Zn226	Zn	0.749832	-0.001415	0.499400
	Zn227	Zn	0.249908	-0.001487	0.499975
	N228	N	0.415379	0.961154	0.676836
	N229	N	0.584735	0.037218	0.675631
	N230	N	0.583919	0.960592	0.323078
	N231	N	0.414761	0.035900	0.322243
	N232	N	0.678900	0.413379	0.962192
	N233	N	0.680473	0.586081	0.036245
	N234	N	0.320451	0.586225	0.962392
	N235	N	0.319846	0.412516	0.035375
	N236	N	0.962095	0.677937	0.412962
	N237	N	0.037195	0.677023	0.583505
	N238	N	0.963630	0.319008	0.586974
	N239	N	0.037601	0.321023	0.415481
	N240	N	0.963278	0.412595	0.678955
	N241	N	0.036577	0.584862	0.678114
	N242	N	0.962517	0.585241	0.319136
	N243	N	0.037162	0.413084	0.320203
	N244	N	0.416267	0.676056	0.961653
	N245	N	0.584819	0.675905	0.037606
	N246	N	0.583878	0.323139	0.960828
	N247	N	0.415157	0.322325	0.036340
	N248	N	0.678504	0.961588	0.413762
	N249	N	0.679867	0.035783	0.585928
	N250	N	0.321462	0.961373	0.585688
	N251	N	0.320641	0.035454	0.413069
	N252	N	0.915723	0.461143	0.175792
	N253	N	0.085033	0.536925	0.176117
	N254	N	0.084108	0.461356	0.823523
	N255	N	0.914511	0.536070	0.821595
	N256	N	0.178712	0.912411	0.463210
	N257	N	0.180378	0.086019	0.536253
	N258	N	0.820534	0.085447	0.462745
	N259	N	0.820036	0.911547	0.536072
	N260	N	0.462585	0.178509	0.912824
	N261	N	0.537431	0.177544	0.083535
	N262	N	0.462909	0.819828	0.085762
	N263	N	0.537823	0.821572	0.914988
	N264	N	0.462653	0.912740	0.178882
	N265	N	0.536805	0.085210	0.178865
	N266	N	0.463245	0.085902	0.819162
	N267	N	0.537665	0.913883	0.820677
	N268	N	0.915890	0.175857	0.462310
	N269	N	0.084620	0.175640	0.538117
	N270	N	0.084407	0.821852	0.462056
	N271	N	0.915270	0.821486	0.536789
	N272	N	0.179049	0.462936	0.912692
	N273	N	0.179263	0.535876	0.085324
	N274	N	0.820591	0.462318	0.085746
	N275	N	0.820883	0.536153	0.912867
	O276	O	0.970357	0.989063	0.059399
	H277	H	0.980525	0.994003	0.066227
	H278	H	0.962583	0.989827	0.061814
	O279	O	0.002950	0.008041	-0.006773
	H280	H	0.006687	-0.002772	-0.004426
	H281	H	0.000421	0.015405	-0.014990
	O282	O	0.046062	-0.060920	1.019746
	H283	H	0.035602	-0.054565	1.018201
	H284	H	0.050694	-0.070620	1.024645
	O285	O	0.487695	0.517081	0.503219
	H286	H	0.490291	0.532014	0.499716
	H287	H	0.486149	0.512776	0.509016
	O288	O	0.526702	0.489576	0.485943
	H289	H	0.525650	0.477369	0.486967
	H290	H	0.522994	0.486088	0.493943
	O291	O	0.465682	0.491326	0.465629
	H292	H	0.465990	0.496970	0.472427
	H293	H	0.454198	0.485897	0.469215
	O294	O	0.004224	-0.002407	0.020430
	H295	H	0.001475	-0.005984	0.021492
	H296	H	0.011785	-0.004563	0.022503
	O297	O	0.460282	0.508891	0.489659
	H298	H	0.470099	0.507448	0.498151
	H299	H	0.460155	0.505156	0.493161
	O300	O	0.014481	1.016679	1.001435
	H301	H	0.007577	1.019540	1.004309
	H302	H	0.015515	1.021294	1.003794
	O303	O	0.490867	0.463858	0.484354
	H304	H	0.497955	0.467625	0.480504
	H305	H	0.492802	0.470774	0.478190
	O306	O	-0.005613	0.007775	1.032027
	H307	H	-0.009128	0.017634	1.035778
	H308	H	-0.011575	0.006158	1.041852
	O309	O	1.026522	1.011088	1.022325
	H310	H	1.022357	1.009728	1.011513
	H311	H	1.030723	1.016014	1.024238
	O312	O	0.549670	0.416404	0.498076
	H313	H	0.550156	0.414933	0.488479
	H314	H	0.560658	0.403036	0.499978
	O315	O	0.518594	0.474608	0.439649
	H316	H	0.523088	0.475822	0.439207
	H317	H	0.513871	0.489911	0.436259
	O318	O	0.065511	0.971160	0.013532
	H319	H	0.076641	0.981295	0.005667
	H320	H	0.064453	0.968832	0.010675
	O321	O	1.040277	0.983382	0.010818
	H322	H	1.052943	0.980371	0.015195
	H323	H	1.036424	0.974539	0.024518
