data_Molecule from HDF5

_cell_length_a		16.528114
_cell_length_b		16.343133
_cell_length_c		16.046732
_cell_angle_alpha	90.098366
_cell_angle_beta	90.168758
_cell_angle_gamma	89.994429
_symmetry_space_group_name_H-M	'P 1'
_symmetry_Int_Tables_number		1

loop_
	_symmetry_equiv_pos_as_xyz
	x,y,z

loop_
	_atom_site_label
	_atom_site_type_symbol
	_atom_site_fract_x
	_atom_site_fract_y
	_atom_site_fract_z
	H0	H	0.410521	0.836513	0.712509
	H1	H	0.604078	0.162570	0.713994
	H2	H	0.603944	0.837227	0.283911
	H3	H	0.407798	0.162645	0.285859
	H4	H	0.724675	0.396005	0.838746
	H5	H	0.725214	0.607824	0.163467
	H6	H	0.285866	0.603141	0.837417
	H7	H	0.288263	0.395956	0.163779
	H8	H	0.848646	0.720911	0.396063
	H9	H	0.165852	0.721857	0.609329
	H10	H	0.847636	0.279183	0.605974
	H11	H	0.165658	0.278737	0.397176
	H12	H	0.844287	0.401726	0.715721
	H13	H	0.167829	0.597820	0.718405
	H14	H	0.847106	0.600154	0.283500
	H15	H	0.168308	0.399449	0.285477
	H16	H	0.404713	0.714849	0.834286
	H17	H	0.607147	0.719274	0.163436
	H18	H	0.606032	0.285530	0.835453
	H19	H	0.404926	0.283626	0.163704
	H20	H	0.729112	0.840771	0.390338
	H21	H	0.727981	0.159228	0.606548
	H22	H	0.286050	0.839970	0.605962
	H23	H	0.285555	0.159414	0.393598
	H24	H	0.910504	0.335768	0.213653
	H25	H	0.104025	0.663132	0.216684
	H26	H	0.102639	0.336716	0.787824
	H27	H	0.907908	0.663276	0.786814
	H28	H	0.222852	0.896448	0.336221
	H29	H	0.224773	0.102735	0.664017
	H30	H	0.789651	0.102669	0.336193
	H31	H	0.789115	0.896707	0.662785
	H32	H	0.345984	0.218912	0.895838
	H33	H	0.665788	0.219535	0.103510
	H34	H	0.345972	0.780769	0.101362
	H35	H	0.664781	0.779438	0.893201
	H36	H	0.344326	0.900895	0.215301
	H37	H	0.666540	0.100217	0.218016
	H38	H	0.344270	0.095804	0.785253
	H39	H	0.667669	0.903123	0.786737
	H40	H	0.908665	0.213752	0.336044
	H41	H	0.107009	0.213586	0.666333
	H42	H	0.107317	0.782670	0.337196
	H43	H	0.908678	0.787204	0.665861
	H44	H	0.226768	0.340591	0.894715
	H45	H	0.227970	0.660186	0.108370
	H46	H	0.784409	0.340590	0.107439
	H47	H	0.785840	0.660960	0.896497
	H48	H	0.407803	0.117897	0.592596
	H49	H	0.605084	0.881432	0.592965
	H50	H	0.598630	0.115226	0.410263
	H51	H	0.405707	0.881363	0.408899
	H52	H	0.589591	0.411232	0.115582
	H53	H	0.598271	0.595622	0.881434
	H54	H	0.414546	0.586987	0.116436
	H55	H	0.416013	0.413913	0.884486
	H56	H	0.124312	0.596060	0.406917
	H57	H	0.891610	0.602026	0.589799
	H58	H	0.120094	0.405665	0.592990
	H59	H	0.897135	0.417115	0.412335
	H60	H	0.120519	0.407087	0.595049
	H61	H	0.897180	0.588103	0.585743
	H62	H	0.119769	0.595774	0.418259
	H63	H	0.890207	0.404601	0.400243
	H64	H	0.421151	0.589325	0.114445
	H65	H	0.602843	0.584471	0.882783
	H66	H	0.597898	0.405583	0.119656
	H67	H	0.416307	0.406848	0.882578
	H68	H	0.598407	0.113457	0.411878
	H69	H	0.594377	0.886171	0.592521
	H70	H	0.419085	0.114560	0.593488
	H71	H	0.418552	0.884053	0.403791
	H72	H	0.917269	0.615820	0.100998
	H73	H	0.104707	0.383353	0.092085
	H74	H	0.093629	0.612792	0.916180
	H75	H	0.912980	0.384780	0.907869
	H76	H	0.090274	0.913960	0.614389
	H77	H	0.093963	0.082944	0.386398
	H78	H	0.908564	0.086777	0.619280
	H79	H	0.908328	0.915148	0.381364
	H80	H	0.619572	0.094868	0.912339
	H81	H	0.391835	0.093967	0.090196
	H82	H	0.618873	0.912138	0.092406
	H83	H	0.388525	0.905298	0.897377
	H84	H	0.620524	0.903595	0.089838
	H85	H	0.392809	0.092219	0.089670
	H86	H	0.620279	0.091533	0.905157
	H87	H	0.390691	0.898058	0.912825
	H88	H	0.920111	0.083968	0.614620
	H89	H	0.093039	0.096767	0.382923
	H90	H	0.100407	0.902485	0.621138
	H91	H	0.924151	0.915596	0.387268
	H92	H	0.102898	0.615440	0.916194
	H93	H	0.096346	0.385382	0.094224
	H94	H	0.919093	0.610588	0.083959
	H95	H	0.914465	0.386016	0.913991
	H96	H	0.413168	0.113025	0.583508
	H97	H	0.601168	0.886568	0.582471
	H98	H	0.600258	0.114808	0.411230
	H99	H	0.415189	0.887844	0.417029
	H100	H	0.598999	0.417220	0.116827
	H101	H	0.591186	0.586620	0.886110
	H102	H	0.415795	0.594239	0.118048
	H103	H	0.409530	0.410623	0.881910
	H104	H	0.119231	0.585061	0.411658
	H105	H	0.891628	0.590738	0.600210
	H106	H	0.121072	0.404866	0.595241
	H107	H	0.893685	0.399943	0.418048
	H108	H	0.904326	0.617133	0.089322
	H109	H	0.099217	0.386698	0.085913
	H110	H	0.097437	0.616392	0.906947
	H111	H	0.908538	0.384448	0.912210
	H112	H	0.105823	0.918226	0.617769
	H113	H	0.104718	0.089733	0.380513
	H114	H	0.917306	0.095254	0.619490
	H115	H	0.917574	0.901213	0.380392
	H116	H	0.622587	0.099168	0.906263
	H117	H	0.392762	0.092131	0.091886
	H118	H	0.616504	0.909319	0.084140
	H119	H	0.395175	0.914422	0.910753
	C120	C	0.384676	0.008350	0.620924
	C121	C	0.629091	0.991123	0.621084
	C122	C	0.628619	0.008151	0.378628
	C123	C	0.383804	0.990996	0.378544
	C124	C	0.625800	0.380525	0.009065
	C125	C	0.627591	0.621568	0.991117
	C126	C	0.385626	0.620436	0.008056
	C127	C	0.384462	0.379370	0.991427
	C128	C	0.015727	0.622194	0.380304
	C129	C	0.998724	0.623226	0.623830
	C130	C	0.014544	0.376875	0.624027
	C131	C	0.999334	0.377315	0.379669
	C132	C	0.884152	0.508174	0.122838
	C133	C	0.129212	0.492029	0.122628
	C134	C	0.127136	0.508389	0.881090
	C135	C	0.883038	0.491958	0.880198
	C136	C	0.128278	0.879648	0.509502
	C137	C	0.127601	0.120130	0.492073
	C138	C	0.885654	0.119743	0.509440
	C139	C	0.886395	0.879728	0.491551
	C140	C	0.514429	0.122903	0.877767
	C141	C	0.497797	0.123007	0.122109
	C142	C	0.513271	0.878211	0.120235
	C143	C	0.497501	0.876814	0.876735
	C144	C	0.388277	0.885979	0.676716
	C145	C	0.625884	0.113359	0.677417
	C146	C	0.625727	0.886301	0.321069
	C147	C	0.386551	0.113413	0.322643
	C148	C	0.684671	0.378466	0.886975
	C149	C	0.685582	0.624758	0.114568
	C150	C	0.326185	0.621691	0.885514
	C151	C	0.327350	0.377742	0.114728
	C152	C	0.895802	0.680488	0.378165
	C153	C	0.118413	0.681770	0.626867
	C154	C	0.894813	0.318983	0.624495
	C155	C	0.118567	0.318933	0.379026
	C156	C	0.893295	0.380108	0.679270
	C157	C	0.119352	0.620203	0.681580
	C158	C	0.895219	0.620519	0.321920
	C159	C	0.119764	0.378755	0.323015
	C160	C	0.385453	0.676780	0.884042
	C161	C	0.627040	0.680459	0.114385
	C162	C	0.625301	0.323719	0.885321
	C163	C	0.385137	0.321577	0.114552
	C164	C	0.687976	0.888183	0.374193
	C165	C	0.687272	0.111787	0.623567
	C166	C	0.326584	0.887529	0.623148
	C167	C	0.325637	0.111863	0.376208
	C168	C	0.888088	0.385479	0.177848
	C169	C	0.126020	0.614059	0.179613
	C170	C	0.124052	0.385978	0.824713
	C171	C	0.886475	0.614312	0.824222
	C172	C	0.184519	0.878034	0.385510
	C173	C	0.185532	0.121113	0.615238
	C174	C	0.828840	0.120878	0.385405
	C175	C	0.828512	0.878680	0.614285
	C176	C	0.393629	0.179057	0.877438
	C177	C	0.617826	0.180561	0.122491
	C178	C	0.393524	0.820434	0.120583
	C179	C	0.617385	0.819249	0.875850
	C180	C	0.392735	0.880279	0.177148
	C181	C	0.618426	0.121220	0.179642
	C182	C	0.392873	0.118361	0.822043
	C183	C	0.618827	0.880662	0.822366
	C184	C	0.887869	0.176153	0.385324
	C185	C	0.126751	0.176286	0.616288
	C186	C	0.127133	0.821331	0.386067
	C187	C	0.887844	0.824186	0.615918
	C188	C	0.185587	0.387782	0.878198
	C189	C	0.187312	0.612768	0.125330
	C190	C	0.825521	0.387680	0.124788
	C191	C	0.825895	0.613137	0.879073
	C192	C	0.406817	0.093366	0.596817
	C193	C	0.606645	0.906578	0.596460
	C194	C	0.605701	0.092661	0.403748
	C195	C	0.406549	0.906388	0.402734
	C196	C	0.602365	0.404607	0.095077
	C197	C	0.604129	0.596077	0.905650
	C198	C	0.410090	0.596883	0.093789
	C199	C	0.407267	0.403583	0.905309
	C200	C	0.099138	0.599001	0.405172
	C201	C	0.915190	0.600345	0.598998
	C202	C	0.098703	0.399295	0.601147
	C203	C	0.915300	0.400507	0.403373
	C204	C	0.906818	0.592637	0.098578
	C205	C	0.106722	0.407232	0.098027
	C206	C	0.104502	0.593006	0.905984
	C207	C	0.905484	0.407033	0.904304
	C208	C	0.105406	0.904373	0.595459
	C209	C	0.104176	0.096489	0.405706
	C210	C	0.908591	0.095622	0.595370
	C211	C	0.909766	0.903533	0.405451
	C212	C	0.598914	0.101517	0.901135
	C213	C	0.414173	0.099702	0.097933
	C214	C	0.596873	0.901509	0.095989
	C215	C	0.413408	0.899173	0.900211
	Zn216	Zn	0.506637	-0.000167	0.749300
	Zn217	Zn	0.505443	-0.000260	0.251036
	Zn218	Zn	0.754397	0.500280	0.001718
	Zn219	Zn	0.257867	0.500022	0.000960
	Zn220	Zn	0.007504	0.752495	0.501617
	Zn221	Zn	0.006808	0.247608	0.501666
	Zn222	Zn	0.005649	0.500015	0.752774
	Zn223	Zn	0.007492	0.499329	0.251044
	Zn224	Zn	0.506025	0.748074	-0.001380
	Zn225	Zn	0.505738	0.252653	-0.000442
	Zn226	Zn	0.757956	-0.000673	0.499717
	Zn227	Zn	0.255614	-0.000083	0.499675
	N228	N	0.423782	0.961999	0.675335
	N229	N	0.590520	0.037345	0.676267
	N230	N	0.589198	0.961892	0.323938
	N231	N	0.421981	0.037270	0.323799
	N232	N	0.685038	0.413237	0.965014
	N233	N	0.686074	0.588801	0.036979
	N234	N	0.326061	0.587533	0.963699
	N235	N	0.326908	0.413059	0.037009
	N236	N	0.971728	0.682072	0.413471
	N237	N	0.042489	0.683830	0.591751
	N238	N	0.971198	0.316848	0.590800
	N239	N	0.042437	0.317869	0.413477
	N240	N	0.968685	0.415372	0.679175
	N241	N	0.044004	0.584466	0.679909
	N242	N	0.970683	0.585205	0.322928
	N243	N	0.044465	0.414451	0.323545
	N244	N	0.421918	0.675853	0.961150
	N245	N	0.591876	0.678816	0.036613
	N246	N	0.589493	0.324789	0.962557
	N247	N	0.419927	0.322505	0.036935
	N248	N	0.689711	0.964905	0.409364
	N249	N	0.689585	0.034712	0.589198
	N250	N	0.324202	0.964691	0.589269
	N251	N	0.323723	0.034753	0.410366
	N252	N	0.923713	0.461413	0.176951
	N253	N	0.090583	0.538060	0.177709
	N254	N	0.088172	0.461829	0.826466
	N255	N	0.921328	0.537862	0.824825
	N256	N	0.185359	0.913544	0.463332
	N257	N	0.186256	0.086851	0.536921
	N258	N	0.827394	0.086544	0.463542
	N259	N	0.827526	0.912527	0.535921
	N260	N	0.470054	0.182032	0.911358
	N261	N	0.541596	0.181915	0.087677
	N262	N	0.469460	0.819041	0.085918
	N263	N	0.540674	0.816647	0.908959
	N264	N	0.468406	0.915297	0.177283
	N265	N	0.542945	0.086217	0.179607
	N266	N	0.469010	0.084277	0.821969
	N267	N	0.543372	0.915667	0.822766
	N268	N	0.922449	0.175738	0.463361
	N269	N	0.091362	0.175839	0.538553
	N270	N	0.092774	0.822279	0.463994
	N271	N	0.922945	0.824440	0.538303
	N272	N	0.187804	0.465020	0.912412
	N273	N	0.189663	0.535495	0.090875
	N274	N	0.822580	0.465179	0.091666
	N275	N	0.823686	0.535997	0.913045
	O276	O	-0.015102	-0.089952	0.063697
	H277	H	-0.013043	-0.088281	0.057314
	H278	H	-0.011336	-0.081199	0.082061
	O279	O	-0.553198	0.529070	-0.393246
	H280	H	-0.553685	0.518038	-0.402798
	H281	H	-0.532031	0.539541	-0.365957
	O282	O	1.635547	-0.525105	0.457459
	H283	H	1.652731	-0.538807	0.472545
	H284	H	1.632989	-0.539012	0.449417
	O285	O	-0.037803	1.121675	-0.105501
	H286	H	-0.030023	1.121935	-0.097478
	H287	H	-0.040824	1.124436	-0.106362
	O288	O	0.362425	0.544900	0.540126
	H289	H	0.368638	0.546845	0.533758
	H290	H	0.369331	0.551144	0.547960
	O291	O	0.437321	0.443464	0.418882
	H292	H	0.435830	0.453048	0.420176
	H293	H	0.436155	0.430174	0.425129
	O294	O	1.030583	1.086621	1.016714
	H295	H	1.025768	1.093856	1.016593
	H296	H	1.031229	1.078465	0.993243
	O297	O	-0.009046	0.037495	-0.024687
	H298	H	-0.008832	0.032640	-0.020201
	H299	H	0.003105	0.037964	-0.038603
	O300	O	0.394946	0.444959	0.407146
	H301	H	0.396218	0.434461	0.415935
	H302	H	0.400569	0.448150	0.405334
	O303	O	-0.455880	0.668655	1.378748
	H304	H	-0.455001	0.653234	1.389428
	H305	H	-0.452309	0.685193	1.369926
	O306	O	0.372935	0.580595	0.347713
	H307	H	0.376666	0.593760	0.340684
	H308	H	0.361636	0.572216	0.345882
	O309	O	1.038422	-0.043837	-0.000343
	H310	H	1.044600	-0.044384	-0.014874
	H311	H	1.039751	-0.036146	-0.004573
	O312	O	0.087795	-0.010435	1.102609
	H313	H	0.098640	-0.011538	1.115389
	H314	H	0.079430	-0.009828	1.104797
	O315	O	0.369028	1.590538	0.489009
	H316	H	0.357106	1.595317	0.498616
	H317	H	0.390986	1.593180	0.486325
	O318	O	0.556068	0.377209	0.519793
	H319	H	0.555112	0.372008	0.524861
	H320	H	0.554034	0.373571	0.517751
	O321	O	0.698723	0.459131	0.383270
	H322	H	0.702021	0.452081	0.383775
	H323	H	0.711505	0.466855	0.387579
	O324	O	0.361759	0.673137	0.513272
	H325	H	0.376724	0.675104	0.518423
	H326	H	0.355206	0.686709	0.505712
	O327	O	-0.662082	1.446138	1.587534
	H328	H	-0.673800	1.459198	1.586383
	H329	H	-0.661692	1.460392	1.572707
	O330	O	0.652832	0.625599	0.543584
	H331	H	0.649232	0.620875	0.543819
	H332	H	0.655473	0.628869	0.519132
	O333	O	0.406900	0.420534	0.466507
	H334	H	0.404366	0.422335	0.472927
	H335	H	0.413056	0.428694	0.474312
	O336	O	-0.064315	-0.041560	-0.062676
	H337	H	-0.058003	-0.045337	-0.050216
	H338	H	-0.071773	-0.035980	-0.056964
	O339	O	0.925923	1.018360	-0.094056
	H340	H	0.920314	1.028630	-0.093750
	H341	H	0.925958	1.015191	-0.088209
	O342	O	0.989364	0.010466	0.026563
	H343	H	0.999935	0.019467	0.021712
	H344	H	1.000085	0.007787	0.031054
	O345	O	0.606772	0.474859	0.348835
	H346	H	0.612084	0.481651	0.350032
	H347	H	0.588745	0.472220	0.356081
	O348	O	0.457076	0.492556	0.598460
	H349	H	0.453033	0.497484	0.602939
	H350	H	0.466315	0.473710	0.594180
	O351	O	0.884072	1.066676	0.069756
	H352	H	0.878059	1.063658	0.082469
	H353	H	0.873495	1.072988	0.060215
	O354	O	1.019749	-0.074141	0.925298
	H355	H	1.016740	-0.080235	0.914562
	H356	H	1.019215	-0.071613	0.925665
	O357	O	0.551112	0.311589	0.341886
	H358	H	0.543888	0.314704	0.354021
	H359	H	0.552051	0.307050	0.324703
	O360	O	-0.093217	-0.057811	0.096243
	H361	H	-0.109883	-0.068985	0.111473
	H362	H	-0.081905	-0.086336	0.086922
	O363	O	0.529254	0.318475	0.565137
	H364	H	0.549013	0.308767	0.575487
	H365	H	0.512161	0.331681	0.557639
	O366	O	0.993408	0.919183	0.907005
	H367	H	0.996843	0.924897	0.910158
	H368	H	0.993413	0.913444	0.903124
	O369	O	1.017274	-0.063684	0.053205
	H370	H	1.012863	-0.069628	0.060619
	H371	H	1.028992	-0.058760	0.050186
	O372	O	0.574864	0.535456	0.531841
	H373	H	0.557511	0.529860	0.547426
	H374	H	0.574415	0.543310	0.517594
	O375	O	0.008286	1.010714	0.971811
	H376	H	-0.000599	1.013346	0.983739
	H377	H	-0.005981	1.007314	0.979636
	O378	O	0.572983	0.650999	0.680832
	H379	H	0.585478	0.654340	0.685687
	H380	H	0.561902	0.644760	0.689124
	O381	O	0.534583	0.376341	0.593984
	H382	H	0.537991	0.372458	0.580972
	H383	H	0.536605	0.362463	0.602325
	O384	O	-0.115935	1.051991	-0.034023
	H385	H	-0.103991	1.048041	-0.043126
	H386	H	-0.117052	1.043029	-0.017892
	O387	O	0.695230	0.621815	1.637740
	H388	H	0.712108	0.626932	1.632861
	H389	H	0.683528	0.619898	1.632079
	O390	O	-0.047096	0.931155	0.132852
	H391	H	-0.024243	0.932001	0.132669
	H392	H	-0.045887	0.933289	0.122252
	O393	O	1.061965	1.156384	0.024568
	H394	H	1.050170	1.151988	0.026203
	H395	H	1.055325	1.164371	0.026933
	O396	O	0.643923	0.476099	0.617240
	H397	H	0.662705	0.458606	0.622934
	H398	H	0.641543	0.493795	0.613067
	O399	O	0.066481	1.004214	1.043697
	H400	H	0.073861	0.999294	1.036763
	H401	H	0.059903	1.009396	1.042279
	O402	O	1.159462	1.038723	1.019202
	H403	H	1.168706	1.028895	1.022841
	H404	H	1.164755	1.044876	1.021264
	O405	O	0.637008	0.457526	0.301606
	H406	H	0.630930	0.450823	0.295054
	H407	H	0.622642	0.468891	0.294917
