data_Molecule from HDF5

_cell_length_a		16.326469
_cell_length_b		16.295053
_cell_length_c		16.311066
_cell_angle_alpha	90.084855
_cell_angle_beta	89.939915
_cell_angle_gamma	90.007374
_symmetry_space_group_name_H-M	'P 1'
_symmetry_Int_Tables_number		1

loop_
	_symmetry_equiv_pos_as_xyz
	x,y,z

loop_
	_atom_site_label
	_atom_site_type_symbol
	_atom_site_fract_x
	_atom_site_fract_y
	_atom_site_fract_z
	H0	H	0.402802	0.836136	0.713163
	H1	H	0.598916	0.163194	0.715248
	H2	H	0.598249	0.836410	0.285170
	H3	H	0.401860	0.163901	0.286035
	H4	H	0.713848	0.401859	0.836242
	H5	H	0.713626	0.597839	0.163805
	H6	H	0.286879	0.596759	0.835976
	H7	H	0.285519	0.403235	0.163290
	H8	H	0.837004	0.713482	0.402791
	H9	H	0.163742	0.714119	0.598146
	H10	H	0.836500	0.286324	0.597487
	H11	H	0.162975	0.285591	0.402047
	H12	H	0.836196	0.402657	0.714096
	H13	H	0.163722	0.597294	0.714019
	H14	H	0.836915	0.598152	0.285356
	H15	H	0.162913	0.400644	0.284111
	H16	H	0.403377	0.712387	0.835776
	H17	H	0.597078	0.714256	0.163991
	H18	H	0.598103	0.285025	0.836929
	H19	H	0.401493	0.286480	0.164321
	H20	H	0.713316	0.835732	0.401948
	H21	H	0.713564	0.164037	0.596598
	H22	H	0.285680	0.836309	0.597838
	H23	H	0.286019	0.163739	0.402431
	H24	H	0.900916	0.336345	0.214147
	H25	H	0.098493	0.663766	0.214158
	H26	H	0.096932	0.335663	0.786778
	H27	H	0.901791	0.664063	0.785957
	H28	H	0.215809	0.900865	0.337647
	H29	H	0.214539	0.098921	0.663554
	H30	H	0.786769	0.097378	0.336140
	H31	H	0.784435	0.901342	0.663169
	H32	H	0.336492	0.213668	0.902998
	H33	H	0.663460	0.214676	0.097699
	H34	H	0.335561	0.787626	0.096538
	H35	H	0.663945	0.786193	0.902451
	H36	H	0.337118	0.902740	0.214589
	H37	H	0.663622	0.098439	0.213873
	H38	H	0.336519	0.097662	0.785736
	H39	H	0.663872	0.901310	0.785649
	H40	H	0.903064	0.214021	0.336542
	H41	H	0.097430	0.214555	0.664118
	H42	H	0.098160	0.786308	0.336963
	H43	H	0.902848	0.786913	0.664458
	H44	H	0.214072	0.336531	0.902627
	H45	H	0.215365	0.662831	0.099273
	H46	H	0.785335	0.336254	0.097467
	H47	H	0.785337	0.663291	0.902332
	H48	H	0.409400	0.116489	0.596737
	H49	H	0.600687	0.884365	0.583518
	H50	H	0.592150	0.116295	0.406716
	H51	H	0.400556	0.884552	0.416119
	H52	H	0.594254	0.413350	0.115232
	H53	H	0.592289	0.594296	0.883804
	H54	H	0.403904	0.598236	0.119366
	H55	H	0.407580	0.400787	0.882968
	H56	H	0.117782	0.593113	0.401569
	H57	H	0.882122	0.601417	0.590270
	H58	H	0.116127	0.402305	0.590113
	H59	H	0.885927	0.404696	0.415325
	H60	H	0.113976	0.411800	0.594071
	H61	H	0.887315	0.587924	0.588485
	H62	H	0.116754	0.597412	0.408445
	H63	H	0.885427	0.415421	0.403858
	H64	H	0.403652	0.589701	0.114994
	H65	H	0.594771	0.594122	0.883562
	H66	H	0.586730	0.404560	0.115690
	H67	H	0.401778	0.408907	0.883064
	H68	H	0.595035	0.116212	0.407099
	H69	H	0.596895	0.879309	0.603174
	H70	H	0.407406	0.114822	0.590348
	H71	H	0.401963	0.879657	0.396600
	H72	H	0.915277	0.614819	0.097523
	H73	H	0.085297	0.385017	0.094513
	H74	H	0.099972	0.618582	0.905763
	H75	H	0.912135	0.385502	0.906117
	H76	H	0.097767	0.915740	0.615044
	H77	H	0.102352	0.091840	0.382080
	H78	H	0.898048	0.091586	0.617870
	H79	H	0.905108	0.909983	0.384248
	H80	H	0.614685	0.089534	0.908893
	H81	H	0.382495	0.093394	0.099897
	H82	H	0.617023	0.902171	0.089509
	H83	H	0.386932	0.914918	0.908740
	H84	H	0.614213	0.911221	0.091814
	H85	H	0.383313	0.098579	0.089936
	H86	H	0.616709	0.093061	0.902282
	H87	H	0.380058	0.905012	0.896101
	H88	H	0.911681	0.087627	0.613098
	H89	H	0.088578	0.085607	0.387861
	H90	H	0.084043	0.905948	0.614709
	H91	H	0.909236	0.904066	0.384341
	H92	H	0.090476	0.617369	0.901724
	H93	H	0.095420	0.385557	0.085454
	H94	H	0.905625	0.613503	0.083405
	H95	H	0.903332	0.384397	0.911650
	H96	H	0.403122	0.118349	0.594506
	H97	H	0.581897	0.887338	0.591289
	H98	H	0.593815	0.117232	0.404955
	H99	H	0.417936	0.886758	0.406605
	H100	H	0.597941	0.402197	0.118391
	H101	H	0.593856	0.592238	0.884363
	H102	H	0.411705	0.594797	0.115001
	H103	H	0.411156	0.409550	0.885987
	H104	H	0.115048	0.589146	0.408217
	H105	H	0.882930	0.592083	0.601721
	H106	H	0.118930	0.404414	0.599596
	H107	H	0.880427	0.401141	0.401298
	H108	H	0.898879	0.620303	0.098517
	H109	H	0.097757	0.380888	0.097418
	H110	H	0.092592	0.614989	0.911299
	H111	H	0.903676	0.381595	0.900991
	H112	H	0.098895	0.900108	0.620836
	H113	H	0.089130	0.101252	0.383178
	H114	H	0.908863	0.101203	0.617639
	H115	H	0.902693	0.903510	0.382204
	H116	H	0.616598	0.096974	0.908932
	H117	H	0.386436	0.087803	0.090917
	H118	H	0.618209	0.905539	0.098447
	H119	H	0.383047	0.897807	0.912042
	C120	C	0.378378	0.008296	0.621812
	C121	C	0.621596	0.991767	0.621184
	C122	C	0.621514	0.008079	0.378289
	C123	C	0.378589	0.992080	0.378335
	C124	C	0.621155	0.378411	0.008241
	C125	C	0.621702	0.621715	0.991907
	C126	C	0.378612	0.621735	0.008190
	C127	C	0.378101	0.378171	0.991818
	C128	C	0.008369	0.621362	0.378238
	C129	C	0.992137	0.621405	0.621630
	C130	C	0.008304	0.378448	0.621844
	C131	C	0.991556	0.378544	0.378570
	C132	C	0.878256	0.507986	0.121309
	C133	C	0.121524	0.491836	0.121200
	C134	C	0.121758	0.508500	0.878282
	C135	C	0.878269	0.491866	0.878276
	C136	C	0.121591	0.878752	0.508935
	C137	C	0.121490	0.121650	0.492347
	C138	C	0.878353	0.121402	0.507979
	C139	C	0.878213	0.878320	0.492041
	C140	C	0.508165	0.121288	0.878539
	C141	C	0.491874	0.121619	0.121776
	C142	C	0.508327	0.878667	0.121368
	C143	C	0.492059	0.878129	0.877948
	C144	C	0.381872	0.884959	0.676019
	C145	C	0.619065	0.114718	0.676524
	C146	C	0.618980	0.884980	0.323153
	C147	C	0.381300	0.115062	0.323837
	C148	C	0.675830	0.381397	0.885143
	C149	C	0.676090	0.618711	0.114996
	C150	C	0.324667	0.617515	0.884659
	C151	C	0.323134	0.381826	0.114854
	C152	C	0.885591	0.675932	0.381821
	C153	C	0.114985	0.676530	0.619068
	C154	C	0.884996	0.324159	0.618220
	C155	C	0.114474	0.323104	0.381142
	C156	C	0.885052	0.381357	0.676469
	C157	C	0.114982	0.618534	0.676474
	C158	C	0.885799	0.618593	0.323362
	C159	C	0.114190	0.380222	0.322662
	C160	C	0.382103	0.675504	0.884579
	C161	C	0.618096	0.676302	0.115208
	C162	C	0.618427	0.323421	0.885164
	C163	C	0.381084	0.324312	0.115328
	C164	C	0.676115	0.884907	0.381072
	C165	C	0.676040	0.115191	0.617851
	C166	C	0.323457	0.885302	0.619011
	C167	C	0.323640	0.114997	0.381552
	C168	C	0.880869	0.385048	0.175911
	C169	C	0.118676	0.614939	0.175913
	C170	C	0.118335	0.385033	0.823909
	C171	C	0.881261	0.615185	0.823937
	C172	C	0.176886	0.880918	0.386029
	C173	C	0.176235	0.119269	0.615215
	C174	C	0.824183	0.118202	0.384781
	C175	C	0.823080	0.881216	0.614893
	C176	C	0.385165	0.175836	0.882069
	C177	C	0.614926	0.176591	0.118437
	C178	C	0.384723	0.824734	0.117975
	C179	C	0.614974	0.823554	0.881088
	C180	C	0.385201	0.882111	0.176178
	C181	C	0.614991	0.118995	0.176193
	C182	C	0.384953	0.118136	0.824152
	C183	C	0.615042	0.881178	0.823600
	C184	C	0.882016	0.176043	0.385095
	C185	C	0.118456	0.176784	0.615246
	C186	C	0.118715	0.823848	0.385735
	C187	C	0.881621	0.824253	0.615473
	C188	C	0.176335	0.385233	0.881519
	C189	C	0.176764	0.614734	0.118882
	C190	C	0.823047	0.385035	0.118353
	C191	C	0.823414	0.614801	0.881731
	C192	C	0.400035	0.094576	0.600115
	C193	C	0.599781	0.905797	0.599290
	C194	C	0.599889	0.094329	0.399863
	C195	C	0.400301	0.905927	0.399874
	C196	C	0.599247	0.400239	0.094216
	C197	C	0.599882	0.600033	0.905917
	C198	C	0.400104	0.600565	0.094361
	C199	C	0.400404	0.399930	0.906053
	C200	C	0.094360	0.599635	0.399777
	C201	C	0.906148	0.600013	0.599913
	C202	C	0.094121	0.399829	0.600848
	C203	C	0.906126	0.400614	0.400416
	C204	C	0.900321	0.594169	0.099656
	C205	C	0.099364	0.405888	0.098924
	C206	C	0.100570	0.594617	0.899923
	C207	C	0.900050	0.406018	0.899987
	C208	C	0.099975	0.900909	0.594721
	C209	C	0.099867	0.099401	0.406514
	C210	C	0.899785	0.099727	0.594054
	C211	C	0.899507	0.899648	0.405952
	C212	C	0.593935	0.099610	0.900148
	C213	C	0.406387	0.099644	0.100072
	C214	C	0.594168	0.900057	0.099617
	C215	C	0.405781	0.899583	0.899223
	Zn216	Zn	0.500131	-0.000111	0.749561
	Zn217	Zn	0.500700	0.000226	0.250258
	Zn218	Zn	0.749941	0.499658	0.000034
	Zn219	Zn	0.250178	0.500126	0.000145
	Zn220	Zn	0.000198	0.750216	0.500314
	Zn221	Zn	-0.000119	0.250186	0.500625
	Zn222	Zn	-0.000169	0.500086	0.749838
	Zn223	Zn	0.000147	0.499610	0.249210
	Zn224	Zn	0.499892	0.750109	-0.000324
	Zn225	Zn	0.499752	0.249992	0.000389
	Zn226	Zn	0.749717	-0.000099	0.499609
	Zn227	Zn	0.249992	0.000083	0.500402
	N228	N	0.414892	0.962595	0.678067
	N229	N	0.585811	0.037075	0.678541
	N230	N	0.585597	0.962528	0.321524
	N231	N	0.414785	0.037721	0.322002
	N232	N	0.677573	0.414784	0.962752
	N233	N	0.678190	0.585439	0.037480
	N234	N	0.322283	0.584931	0.962466
	N235	N	0.321214	0.414571	0.037143
	N236	N	0.962924	0.677798	0.415087
	N237	N	0.037665	0.678168	0.585549
	N238	N	0.962509	0.322174	0.585157
	N239	N	0.037382	0.321821	0.415076
	N240	N	0.962415	0.414564	0.678595
	N241	N	0.037542	0.585152	0.678354
	N242	N	0.963235	0.585291	0.321008
	N243	N	0.036899	0.414023	0.320994
	N244	N	0.414840	0.678176	0.962230
	N245	N	0.585093	0.678407	0.037562
	N246	N	0.584955	0.321505	0.962634
	N247	N	0.414504	0.321951	0.037797
	N248	N	0.677689	0.962417	0.414828
	N249	N	0.677543	0.037742	0.584169
	N250	N	0.321476	0.962859	0.585695
	N251	N	0.321713	0.037357	0.414935
	N252	N	0.914793	0.462512	0.177559
	N253	N	0.085071	0.537493	0.177363
	N254	N	0.084883	0.462604	0.821989
	N255	N	0.914589	0.537581	0.821533
	N256	N	0.178592	0.914582	0.463413
	N257	N	0.178261	0.085754	0.537862
	N258	N	0.821986	0.084967	0.462301
	N259	N	0.820887	0.914154	0.537293
	N260	N	0.462666	0.177921	0.915154
	N261	N	0.537522	0.178392	0.085397
	N262	N	0.462260	0.822582	0.084429
	N263	N	0.537504	0.821714	0.914274
	N264	N	0.462917	0.914705	0.178572
	N265	N	0.537651	0.085457	0.178386
	N266	N	0.462349	0.084910	0.821852
	N267	N	0.537332	0.914238	0.821364
	N268	N	0.914944	0.178156	0.462695
	N269	N	0.085188	0.178545	0.537727
	N270	N	0.085094	0.822278	0.463173
	N271	N	0.915052	0.822172	0.537962
	N272	N	0.178687	0.462970	0.914512
	N273	N	0.178398	0.537173	0.085336
	N274	N	0.821372	0.462555	0.085247
	N275	N	0.821572	0.537206	0.914715
