data_Molecule from HDF5

_cell_length_a		16.239480
_cell_length_b		16.401658
_cell_length_c		16.189165
_cell_angle_alpha	90.221865
_cell_angle_beta	89.893034
_cell_angle_gamma	90.033639
_symmetry_space_group_name_H-M	'P 1'
_symmetry_Int_Tables_number		1

loop_
	_symmetry_equiv_pos_as_xyz
	x,y,z

loop_
	_atom_site_label
	_atom_site_type_symbol
	_atom_site_fract_x
	_atom_site_fract_y
	_atom_site_fract_z
	H0	H	0.407608	0.822401	0.719655
	H1	H	0.603818	0.148533	0.719380
	H2	H	0.606594	0.823527	0.288041
	H3	H	0.406704	0.148255	0.290714
	H4	H	0.719911	0.388842	0.839574
	H5	H	0.720830	0.583903	0.169431
	H6	H	0.294534	0.584163	0.839275
	H7	H	0.292769	0.388152	0.168360
	H8	H	0.843080	0.701861	0.403912
	H9	H	0.169374	0.703825	0.606687
	H10	H	0.843100	0.272223	0.605242
	H11	H	0.168980	0.268664	0.402351
	H12	H	0.842677	0.391254	0.717623
	H13	H	0.171592	0.584526	0.716658
	H14	H	0.842113	0.583866	0.291496
	H15	H	0.170612	0.388070	0.290122
	H16	H	0.408157	0.701183	0.841173
	H17	H	0.610316	0.703627	0.167629
	H18	H	0.608765	0.269470	0.840853
	H19	H	0.407600	0.271611	0.168328
	H20	H	0.723843	0.823629	0.403944
	H21	H	0.721021	0.147700	0.604670
	H22	H	0.290570	0.823170	0.603630
	H23	H	0.290276	0.147651	0.406942
	H24	H	0.906944	0.324380	0.220305
	H25	H	0.105086	0.649147	0.220096
	H26	H	0.106037	0.323941	0.787611
	H27	H	0.909590	0.649954	0.791204
	H28	H	0.221459	0.886389	0.341240
	H29	H	0.219017	0.084913	0.669679
	H30	H	0.791163	0.084516	0.341867
	H31	H	0.792479	0.889293	0.670776
	H32	H	0.344668	0.202229	0.904535
	H33	H	0.670598	0.202794	0.105697
	H34	H	0.345425	0.768228	0.107305
	H35	H	0.670282	0.769015	0.901530
	H36	H	0.342507	0.889214	0.217579
	H37	H	0.670707	0.086991	0.220106
	H38	H	0.341562	0.081973	0.794290
	H39	H	0.670883	0.888096	0.790044
	H40	H	0.905492	0.201402	0.342023
	H41	H	0.106781	0.202873	0.668699
	H42	H	0.106988	0.768891	0.341932
	H43	H	0.903827	0.769935	0.669076
	H44	H	0.223274	0.323468	0.903312
	H45	H	0.224468	0.647804	0.104970
	H46	H	0.791513	0.323690	0.103383
	H47	H	0.790788	0.648230	0.904575
	H48	H	0.422345	0.099898	0.605305
	H49	H	0.605385	0.869004	0.593710
	H50	H	0.604179	0.102691	0.411683
	H51	H	0.415660	0.870701	0.410677
	H52	H	0.599433	0.392715	0.122132
	H53	H	0.593863	0.577666	0.889635
	H54	H	0.415889	0.584220	0.123026
	H55	H	0.419913	0.394127	0.888792
	H56	H	0.124379	0.584421	0.413261
	H57	H	0.886866	0.591330	0.594844
	H58	H	0.127951	0.392367	0.607642
	H59	H	0.889669	0.393984	0.408753
	H60	H	0.124941	0.382035	0.588684
	H61	H	0.894744	0.572777	0.588480
	H62	H	0.121478	0.577262	0.418058
	H63	H	0.888906	0.387698	0.414494
	H64	H	0.411424	0.574750	0.120958
	H65	H	0.601630	0.583942	0.885585
	H66	H	0.600223	0.393538	0.121987
	H67	H	0.416417	0.388492	0.885561
	H68	H	0.594956	0.100589	0.409533
	H69	H	0.599376	0.867646	0.603853
	H70	H	0.409367	0.098825	0.589522
	H71	H	0.414615	0.871385	0.414396
	H72	H	0.910035	0.603207	0.098876
	H73	H	0.096815	0.372296	0.094512
	H74	H	0.099343	0.603757	0.904039
	H75	H	0.928789	0.372725	0.900021
	H76	H	0.098073	0.889214	0.623887
	H77	H	0.097478	0.082292	0.386898
	H78	H	0.911703	0.083554	0.624570
	H79	H	0.918586	0.892178	0.390007
	H80	H	0.624005	0.072273	0.904443
	H81	H	0.391348	0.073078	0.102758
	H82	H	0.624756	0.889084	0.094686
	H83	H	0.395966	0.902852	0.920521
	H84	H	0.620279	0.897432	0.090239
	H85	H	0.387321	0.087825	0.099537
	H86	H	0.627612	0.088537	0.909453
	H87	H	0.387133	0.893575	0.900205
	H88	H	0.912137	0.077118	0.622389
	H89	H	0.102869	0.076594	0.387174
	H90	H	0.100851	0.897097	0.622598
	H91	H	0.914067	0.892872	0.388262
	H92	H	0.094886	0.597704	0.917335
	H93	H	0.104200	0.371345	0.093979
	H94	H	0.917722	0.601329	0.101177
	H95	H	0.914448	0.375856	0.927530
	H96	H	0.403056	0.105957	0.607613
	H97	H	0.594192	0.872688	0.594929
	H98	H	0.598501	0.098738	0.418689
	H99	H	0.412216	0.870291	0.412235
	H100	H	0.599779	0.393412	0.121192
	H101	H	0.603360	0.573622	0.888005
	H102	H	0.422172	0.575661	0.118582
	H103	H	0.412771	0.394045	0.886632
	H104	H	0.123187	0.576584	0.408907
	H105	H	0.888305	0.575139	0.608406
	H106	H	0.119225	0.402970	0.590645
	H107	H	0.891257	0.395264	0.416831
	H108	H	0.915027	0.599363	0.092931
	H109	H	0.100281	0.369371	0.100521
	H110	H	0.109637	0.602914	0.915631
	H111	H	0.899647	0.364535	0.903398
	H112	H	0.092433	0.895348	0.620166
	H113	H	0.095394	0.075578	0.390017
	H114	H	0.917799	0.081081	0.621761
	H115	H	0.915514	0.895555	0.390340
	H116	H	0.621124	0.076843	0.920908
	H117	H	0.393209	0.078471	0.088295
	H118	H	0.624153	0.897721	0.100280
	H119	H	0.389037	0.879758	0.920681
	C120	C	0.383111	-0.006077	0.628607
	C121	C	0.627859	0.977377	0.626949
	C122	C	0.629076	-0.006170	0.383084
	C123	C	0.384746	0.977645	0.383599
	C124	C	0.628263	0.364764	0.012997
	C125	C	0.629319	0.607740	0.996165
	C126	C	0.387093	0.607158	0.012501
	C127	C	0.386807	0.364291	0.995701
	C128	C	0.014658	0.607835	0.383983
	C129	C	0.998219	0.608502	0.626342
	C130	C	0.015585	0.365040	0.625228
	C131	C	0.998053	0.363861	0.383300
	C132	C	0.885161	0.494306	0.126425
	C133	C	0.129213	0.478099	0.126013
	C134	C	0.130007	0.494213	0.882393
	C135	C	0.885785	0.478607	0.882160
	C136	C	0.127177	0.864320	0.513960
	C137	C	0.127141	0.107013	0.496818
	C138	C	0.884858	0.108218	0.514237
	C139	C	0.885536	0.864720	0.497403
	C140	C	0.515744	0.107474	0.883339
	C141	C	0.498842	0.108565	0.126375
	C142	C	0.515649	0.865131	0.125254
	C143	C	0.498825	0.864023	0.883817
	C144	C	0.386127	0.871386	0.682611
	C145	C	0.624522	0.099714	0.681987
	C146	C	0.627042	0.872092	0.326310
	C147	C	0.386681	0.099713	0.328508
	C148	C	0.682726	0.367754	0.888810
	C149	C	0.684311	0.605201	0.119869
	C150	C	0.331708	0.604660	0.888977
	C151	C	0.330754	0.367492	0.119307
	C152	C	0.891802	0.663390	0.384847
	C153	C	0.120960	0.664836	0.625718
	C154	C	0.892012	0.310079	0.624857
	C155	C	0.120562	0.307426	0.383120
	C156	C	0.891924	0.369413	0.680662
	C157	C	0.122072	0.605716	0.680621
	C158	C	0.891502	0.604887	0.328582
	C159	C	0.121454	0.366804	0.327666
	C160	C	0.388549	0.662527	0.889639
	C161	C	0.629218	0.664755	0.118929
	C162	C	0.627448	0.308530	0.889545
	C163	C	0.388063	0.309738	0.119382
	C164	C	0.685438	0.872134	0.384069
	C165	C	0.682732	0.099427	0.624982
	C166	C	0.327779	0.871810	0.624975
	C167	C	0.328947	0.099541	0.386454
	C168	C	0.886933	0.372476	0.181712
	C169	C	0.126169	0.600366	0.182042
	C170	C	0.127109	0.372210	0.826001
	C171	C	0.888520	0.601036	0.827955
	C172	C	0.183206	0.866136	0.390261
	C173	C	0.181492	0.105015	0.620537
	C174	C	0.829678	0.104701	0.390667
	C175	C	0.829646	0.867947	0.621211
	C176	C	0.392917	0.163427	0.885194
	C177	C	0.621653	0.164767	0.125666
	C178	C	0.393509	0.807662	0.125866
	C179	C	0.621678	0.808029	0.883485
	C180	C	0.392162	0.867717	0.180903
	C181	C	0.621762	0.106821	0.182299
	C182	C	0.391530	0.103747	0.830177
	C183	C	0.622165	0.867199	0.827885
	C184	C	0.886060	0.163151	0.390803
	C185	C	0.125984	0.164117	0.619709
	C186	C	0.126915	0.807315	0.390772
	C187	C	0.885112	0.808650	0.620372
	C188	C	0.185238	0.372030	0.883524
	C189	C	0.185575	0.599736	0.125050
	C190	C	0.829619	0.372196	0.123513
	C191	C	0.829634	0.600256	0.884834
	C192	C	0.405102	0.079367	0.607196
	C193	C	0.606034	0.891924	0.604169
	C194	C	0.606013	0.078691	0.406667
	C195	C	0.407445	0.892800	0.405813
	C196	C	0.606140	0.386779	0.099350
	C197	C	0.606211	0.585221	0.909788
	C198	C	0.410017	0.584673	0.098670
	C199	C	0.409707	0.385804	0.909424
	C200	C	0.100598	0.585836	0.406884
	C201	C	0.912263	0.586356	0.603830
	C202	C	0.101804	0.386240	0.602306
	C203	C	0.912050	0.385937	0.406476
	C204	C	0.907677	0.579301	0.104146
	C205	C	0.106780	0.393000	0.103187
	C206	C	0.107657	0.579321	0.905512
	C207	C	0.907859	0.393229	0.903874
	C208	C	0.103926	0.887064	0.599804
	C209	C	0.105018	0.084573	0.410442
	C210	C	0.907309	0.086716	0.600464
	C211	C	0.909085	0.887021	0.411801
	C212	C	0.601997	0.085638	0.905224
	C213	C	0.412902	0.086334	0.103556
	C214	C	0.600821	0.887931	0.102006
	C215	C	0.412969	0.885627	0.907002
	Zn216	Zn	0.506788	-0.014596	0.755946
	Zn217	Zn	0.506926	-0.013529	0.254069
	Zn218	Zn	0.756309	0.485859	0.004507
	Zn219	Zn	0.259023	0.485614	0.003751
	Zn220	Zn	0.005918	0.736045	0.505626
	Zn221	Zn	0.006534	0.235689	0.504663
	Zn222	Zn	0.007665	0.487200	0.753392
	Zn223	Zn	0.006612	0.486189	0.255758
	Zn224	Zn	0.507847	0.735525	0.004879
	Zn225	Zn	0.507930	0.235701	0.004482
	Zn226	Zn	0.757645	-0.014219	0.505971
	Zn227	Zn	0.255323	-0.014043	0.505306
	N228	N	0.419972	0.948227	0.684733
	N229	N	0.590987	0.022640	0.683096
	N230	N	0.592934	0.948851	0.325492
	N231	N	0.421012	0.023027	0.326695
	N232	N	0.683495	0.401978	0.966496
	N233	N	0.684552	0.570526	0.042323
	N234	N	0.330592	0.570858	0.966636
	N235	N	0.330188	0.400766	0.041384
	N236	N	0.969515	0.665390	0.418590
	N237	N	0.043017	0.666901	0.592795
	N238	N	0.969908	0.307158	0.591133
	N239	N	0.042671	0.305453	0.416765
	N240	N	0.969646	0.402957	0.680957
	N241	N	0.044667	0.571516	0.681147
	N242	N	0.968902	0.571081	0.327951
	N243	N	0.044164	0.401079	0.327412
	N244	N	0.422086	0.664257	0.967577
	N245	N	0.595923	0.666424	0.040714
	N246	N	0.594077	0.306794	0.967712
	N247	N	0.422132	0.307464	0.041563
	N248	N	0.686730	0.949025	0.418586
	N249	N	0.684862	0.022403	0.591373
	N250	N	0.325672	0.949107	0.592377
	N251	N	0.327595	0.022704	0.419875
	N252	N	0.920589	0.449348	0.183941
	N253	N	0.091810	0.523640	0.182856
	N254	N	0.093537	0.449207	0.824915
	N255	N	0.922879	0.524548	0.826534
	N256	N	0.183744	0.900634	0.467818
	N257	N	0.182400	0.070366	0.543070
	N258	N	0.828743	0.071221	0.468421
	N259	N	0.829857	0.902114	0.543690
	N260	N	0.471107	0.165588	0.917808
	N261	N	0.544178	0.165902	0.091475
	N262	N	0.471278	0.805529	0.092308
	N263	N	0.544094	0.806107	0.917707
	N264	N	0.469111	0.902967	0.180748
	N265	N	0.544340	0.072713	0.183103
	N266	N	0.468987	0.069880	0.828733
	N267	N	0.544924	0.901319	0.827941
	N268	N	0.919869	0.165173	0.468621
	N269	N	0.092816	0.165497	0.541527
	N270	N	0.092566	0.806246	0.468492
	N271	N	0.919091	0.806485	0.542430
	N272	N	0.187196	0.448890	0.917568
	N273	N	0.187567	0.522740	0.091019
	N274	N	0.828393	0.449104	0.089907
	N275	N	0.827789	0.523102	0.917846
	O276	O	-0.041038	0.021111	-0.082689
	H277	H	-0.042026	0.017919	-0.078690
	H278	H	-0.044649	0.022427	-0.080740
	O279	O	0.484709	0.503336	0.484124
	H280	H	0.478923	0.506573	0.485352
	H281	H	0.486314	0.508218	0.469771
	O282	O	0.430679	0.472998	0.494543
	H283	H	0.428497	0.464370	0.486174
	H284	H	0.429885	0.472762	0.495151
	O285	O	1.014294	-0.066745	0.991766
	H286	H	1.016104	-0.066600	0.981168
	H287	H	1.007730	-0.073263	0.991619
	O288	O	1.003766	-0.048902	0.096318
	H289	H	1.011800	-0.046102	0.089813
	H290	H	1.011598	-0.047902	0.095863
	O291	O	0.067262	0.929137	-0.064765
	H292	H	0.068551	0.937844	-0.072513
	H293	H	0.062223	0.933955	-0.054747
	O294	O	1.572723	0.490653	1.468246
	H295	H	1.563372	0.493905	1.467372
	H296	H	1.575823	0.498231	1.459123
	O297	O	-0.027304	0.066137	-0.013944
	H298	H	-0.031469	0.056387	-0.007313
	H299	H	-0.031792	0.065250	-0.009279
	O300	O	-0.010660	0.881589	-0.003801
	H301	H	-0.018013	0.881369	-0.004519
	H302	H	-0.007989	0.882933	-0.002057
	O303	O	0.512222	0.467897	0.544884
	H304	H	0.495039	0.470924	0.541723
	H305	H	0.511204	0.464954	0.538816
	O306	O	0.993743	-0.006842	0.033954
	H307	H	0.989012	-0.006351	0.032606
	H308	H	0.994805	-0.018887	0.041796
	O309	O	0.103351	-0.055536	0.989274
	H310	H	0.099902	-0.054829	0.983653
	H311	H	0.100905	-0.047727	0.986613
	O312	O	1.068050	1.004823	1.046262
	H313	H	1.070826	1.005576	1.040053
	H314	H	1.044081	0.997158	1.038999
	O315	O	0.552316	0.487583	0.481220
	H316	H	0.549945	0.490899	0.483839
	H317	H	0.564586	0.477180	0.480745
	O318	O	0.494566	0.550729	0.503587
	H319	H	0.491694	0.550099	0.512267
	H320	H	0.487946	0.554956	0.512614
	O321	O	-0.005759	0.991673	1.048316
	H322	H	-0.006625	0.992814	1.061387
	H323	H	-0.006522	0.981616	1.047891
	O324	O	0.543441	0.533165	0.458544
	H325	H	0.538139	0.536584	0.463663
	H326	H	0.552250	0.531237	0.467549
	O327	O	1.110064	0.975885	0.040281
	H328	H	1.111077	0.974199	0.028037
	H329	H	1.103565	0.974850	0.034018
	O330	O	-0.101460	0.858075	0.147225
	H331	H	-0.100267	0.845767	0.156656
	H332	H	-0.090593	0.865700	0.143446
	O333	O	-0.064746	0.894415	1.090229
	H334	H	-0.067624	0.878886	1.087383
	H335	H	-0.069120	0.892260	1.082448
	O336	O	0.537694	0.475572	0.410075
	H337	H	0.544353	0.478918	0.413886
	H338	H	0.547485	0.463648	0.408141
	O339	O	1.067103	1.085932	0.079871
	H340	H	1.071291	1.095111	0.095005
	H341	H	1.060393	1.086533	0.083652
	O342	O	0.974674	0.892258	-0.071416
	H343	H	0.971266	0.897586	-0.067540
	H344	H	0.975514	0.888640	-0.075794
	O345	O	0.456550	0.527277	0.492967
	H346	H	0.454871	0.532924	0.477277
	H347	H	0.462306	0.517718	0.495139
	O348	O	0.020869	-0.017193	0.074430
	H349	H	0.034209	-0.015567	0.072507
	H350	H	0.018193	-0.021194	0.070495
	O351	O	-0.027444	0.961936	1.016456
	H352	H	-0.031853	0.959683	1.022689
	H353	H	-0.026449	0.959069	1.025331
	O354	O	0.561815	0.476549	0.470253
	H355	H	0.550097	0.484244	0.473295
	H356	H	0.569124	0.482345	0.463033
	O357	O	0.014209	1.078480	0.993838
	H358	H	0.010853	1.076060	0.996205
	H359	H	0.022340	1.093442	0.992240
