data_Molecule from HDF5

_cell_length_a		16.302329
_cell_length_b		16.308443
_cell_length_c		16.249385
_cell_angle_alpha	90.208808
_cell_angle_beta	89.625383
_cell_angle_gamma	90.321963
_symmetry_space_group_name_H-M	'P 1'
_symmetry_Int_Tables_number		1

loop_
	_symmetry_equiv_pos_as_xyz
	x,y,z

loop_
	_atom_site_label
	_atom_site_type_symbol
	_atom_site_fract_x
	_atom_site_fract_y
	_atom_site_fract_z
	H0	H	0.392043	0.840564	0.715713
	H1	H	0.595497	0.165356	0.715632
	H2	H	0.595463	0.840684	0.280000
	H3	H	0.395040	0.165068	0.283665
	H4	H	0.712765	0.399758	0.836416
	H5	H	0.711724	0.602573	0.161953
	H6	H	0.280460	0.601697	0.835978
	H7	H	0.278255	0.401458	0.162120
	H8	H	0.833477	0.716639	0.399773
	H9	H	0.156890	0.721446	0.601984
	H10	H	0.833244	0.283905	0.600887
	H11	H	0.158286	0.285009	0.397344
	H12	H	0.833584	0.398651	0.717124
	H13	H	0.158737	0.602845	0.714709
	H14	H	0.833372	0.599733	0.284240
	H15	H	0.158331	0.400481	0.280049
	H16	H	0.395869	0.718476	0.836845
	H17	H	0.596526	0.719747	0.161912
	H18	H	0.596863	0.284803	0.836319
	H19	H	0.393257	0.285631	0.162277
	H20	H	0.711893	0.840220	0.395337
	H21	H	0.712622	0.164775	0.600432
	H22	H	0.275535	0.841275	0.602259
	H23	H	0.279843	0.164775	0.399731
	H24	H	0.894527	0.338437	0.215618
	H25	H	0.096846	0.663065	0.214928
	H26	H	0.096409	0.337673	0.781868
	H27	H	0.898846	0.663518	0.784782
	H28	H	0.212604	0.901420	0.337349
	H29	H	0.212051	0.105611	0.662180
	H30	H	0.780574	0.101699	0.335818
	H31	H	0.775284	0.900975	0.661920
	H32	H	0.333216	0.217709	0.899705
	H33	H	0.657385	0.219386	0.099506
	H34	H	0.333989	0.784932	0.100595
	H35	H	0.657429	0.785583	0.894748
	H36	H	0.332878	0.901498	0.215095
	H37	H	0.657557	0.104490	0.214736
	H38	H	0.332634	0.101716	0.784721
	H39	H	0.657475	0.902521	0.780281
	H40	H	0.895671	0.217680	0.336281
	H41	H	0.095423	0.219596	0.662270
	H42	H	0.097306	0.784221	0.337520
	H43	H	0.892890	0.785598	0.663056
	H44	H	0.213202	0.337757	0.897493
	H45	H	0.212362	0.663612	0.099256
	H46	H	0.778285	0.337829	0.099296
	H47	H	0.780083	0.662872	0.897790
	H48	H	0.406811	0.116707	0.590491
	H49	H	0.585007	0.887087	0.591333
	H50	H	0.593325	0.119508	0.408536
	H51	H	0.411134	0.889209	0.404190
	H52	H	0.585322	0.405231	0.116727
	H53	H	0.589255	0.589699	0.884427
	H54	H	0.400313	0.595342	0.116214
	H55	H	0.402450	0.409467	0.883403
	H56	H	0.109910	0.592129	0.411484
	H57	H	0.879798	0.597503	0.590594
	H58	H	0.114108	0.397100	0.586320
	H59	H	0.878374	0.400323	0.406411
	H60	H	0.106930	0.418081	0.580681
	H61	H	0.882060	0.588273	0.589422
	H62	H	0.111955	0.590632	0.404787
	H63	H	0.883133	0.410518	0.416738
	H64	H	0.404170	0.589547	0.113482
	H65	H	0.586152	0.595329	0.883411
	H66	H	0.591474	0.412610	0.116444
	H67	H	0.406206	0.410971	0.884030
	H68	H	0.586375	0.118001	0.403379
	H69	H	0.582578	0.888383	0.587979
	H70	H	0.399136	0.119431	0.590409
	H71	H	0.401670	0.889082	0.415807
	H72	H	0.910095	0.615159	0.092354
	H73	H	0.088606	0.383487	0.090708
	H74	H	0.088069	0.612078	0.916298
	H75	H	0.904188	0.386733	0.911721
	H76	H	0.091448	0.906214	0.619265
	H77	H	0.082242	0.096646	0.384781
	H78	H	0.906847	0.093312	0.613719
	H79	H	0.905822	0.913325	0.386309
	H80	H	0.610153	0.092161	0.908521
	H81	H	0.380481	0.091349	0.090694
	H82	H	0.613319	0.912264	0.094412
	H83	H	0.381387	0.914683	0.910232
	H84	H	0.611349	0.908123	0.084672
	H85	H	0.378417	0.094368	0.095179
	H86	H	0.611964	0.094405	0.906112
	H87	H	0.377712	0.908921	0.902009
	H88	H	0.900721	0.096144	0.616512
	H89	H	0.092957	0.096877	0.380505
	H90	H	0.087501	0.920872	0.613581
	H91	H	0.907041	0.904826	0.384486
	H92	H	0.098309	0.618750	0.904327
	H93	H	0.084832	0.386091	0.090325
	H94	H	0.901792	0.615209	0.086116
	H95	H	0.899699	0.383604	0.905684
	H96	H	0.402998	0.120144	0.596755
	H97	H	0.586669	0.887441	0.587321
	H98	H	0.585275	0.116407	0.411578
	H99	H	0.397772	0.883566	0.402340
	H100	H	0.582485	0.413480	0.112770
	H101	H	0.591666	0.594455	0.882037
	H102	H	0.407917	0.595963	0.115401
	H103	H	0.405753	0.407556	0.882328
	H104	H	0.111724	0.597735	0.407151
	H105	H	0.879441	0.591907	0.598118
	H106	H	0.113953	0.413520	0.601622
	H107	H	0.880677	0.414322	0.402095
	H108	H	0.901470	0.618515	0.095828
	H109	H	0.087864	0.385892	0.087060
	H110	H	0.082203	0.616160	0.900818
	H111	H	0.907682	0.384550	0.904725
	H112	H	0.076149	0.909261	0.613680
	H113	H	0.089143	0.086930	0.385595
	H114	H	0.901043	0.089019	0.614751
	H115	H	0.899534	0.908528	0.381219
	H116	H	0.610234	0.094808	0.909285
	H117	H	0.378589	0.096895	0.090118
	H118	H	0.608693	0.917623	0.086993
	H119	H	0.379782	0.903729	0.911468
	C120	C	0.372338	0.011630	0.622115
	C121	C	0.615760	0.994506	0.619826
	C122	C	0.617327	0.010962	0.376601
	C123	C	0.374187	0.994504	0.378244
	C124	C	0.616556	0.380235	0.007607
	C125	C	0.618056	0.623661	0.990560
	C126	C	0.374962	0.622961	0.007383
	C127	C	0.374286	0.379716	0.990760
	C128	C	0.004084	0.622287	0.378424
	C129	C	0.987287	0.623206	0.621842
	C130	C	0.004294	0.379473	0.620310
	C131	C	0.987754	0.378866	0.377416
	C132	C	0.874026	0.509102	0.121170
	C133	C	0.116978	0.492277	0.119556
	C134	C	0.118912	0.508415	0.876899
	C135	C	0.874952	0.492453	0.877865
	C136	C	0.116187	0.881627	0.508275
	C137	C	0.117341	0.123907	0.491170
	C138	C	0.874043	0.122505	0.507185
	C139	C	0.873056	0.879547	0.491453
	C140	C	0.503671	0.123105	0.878477
	C141	C	0.486514	0.124512	0.121257
	C142	C	0.504254	0.881538	0.120213
	C143	C	0.486829	0.880089	0.876651
	C144	C	0.372375	0.889508	0.678236
	C145	C	0.615415	0.116696	0.677140
	C146	C	0.615869	0.889128	0.318674
	C147	C	0.375635	0.116571	0.322238
	C148	C	0.673832	0.380372	0.884970
	C149	C	0.673901	0.622825	0.113202
	C150	C	0.318893	0.621428	0.884787
	C151	C	0.316871	0.381174	0.113566
	C152	C	0.881922	0.678326	0.379844
	C153	C	0.108963	0.681397	0.620908
	C154	C	0.881810	0.322632	0.620102
	C155	C	0.110003	0.323356	0.377702
	C156	C	0.882086	0.379727	0.677820
	C157	C	0.109861	0.622547	0.677207
	C158	C	0.881919	0.620294	0.322291
	C159	C	0.109789	0.380628	0.319391
	C160	C	0.376340	0.679467	0.885018
	C161	C	0.616787	0.681167	0.113079
	C162	C	0.616235	0.323206	0.885045
	C163	C	0.374398	0.323908	0.113696
	C164	C	0.673877	0.888927	0.376029
	C165	C	0.673480	0.116373	0.619522
	C166	C	0.314669	0.889808	0.621421
	C167	C	0.318212	0.116324	0.379960
	C168	C	0.874466	0.386796	0.177404
	C169	C	0.116526	0.614678	0.176368
	C170	C	0.116903	0.386431	0.820162
	C171	C	0.878146	0.614874	0.822637
	C172	C	0.174091	0.881527	0.386086
	C173	C	0.173688	0.124512	0.613467
	C174	C	0.818657	0.121510	0.384630
	C175	C	0.814786	0.881042	0.613541
	C176	C	0.381727	0.179401	0.879829
	C177	C	0.608737	0.181296	0.119742
	C178	C	0.382325	0.823768	0.120088
	C179	C	0.608927	0.823902	0.875776
	C180	C	0.381769	0.881816	0.176893
	C181	C	0.608815	0.124066	0.177056
	C182	C	0.381324	0.121378	0.822831
	C183	C	0.608794	0.882030	0.818593
	C184	C	0.876071	0.179190	0.384960
	C185	C	0.115566	0.181231	0.613559
	C186	C	0.116515	0.823583	0.386157
	C187	C	0.872949	0.823697	0.614142
	C188	C	0.174949	0.386454	0.877776
	C189	C	0.173693	0.614969	0.118534
	C190	C	0.816372	0.386845	0.119745
	C191	C	0.819131	0.614431	0.878884
	C192	C	0.396019	0.096638	0.599247
	C193	C	0.591791	0.909738	0.595896
	C194	C	0.594829	0.095812	0.400755
	C195	C	0.396894	0.909409	0.400862
	C196	C	0.593235	0.403687	0.093161
	C197	C	0.595638	0.600178	0.905318
	C198	C	0.397469	0.600371	0.092800
	C199	C	0.397855	0.402577	0.905361
	C200	C	0.089162	0.599831	0.400991
	C201	C	0.902293	0.599459	0.599283
	C202	C	0.089475	0.402802	0.596440
	C203	C	0.902710	0.401670	0.401520
	C204	C	0.897440	0.594121	0.098179
	C205	C	0.093808	0.407285	0.096211
	C206	C	0.096145	0.593671	0.900392
	C207	C	0.897234	0.406983	0.900791
	C208	C	0.092059	0.905170	0.593556
	C209	C	0.094804	0.100415	0.405666
	C210	C	0.896266	0.099553	0.592821
	C211	C	0.897101	0.902233	0.406134
	C212	C	0.588720	0.100308	0.901289
	C213	C	0.401387	0.101209	0.098669
	C214	C	0.589074	0.905621	0.095926
	C215	C	0.401800	0.902497	0.900869
	Zn216	Zn	0.494620	0.002615	0.749176
	Zn217	Zn	0.495086	0.002901	0.248793
	Zn218	Zn	0.745670	0.500982	-0.001225
	Zn219	Zn	0.246885	0.501037	-0.000764
	Zn220	Zn	-0.004736	0.751845	0.500102
	Zn221	Zn	-0.004384	0.251003	0.499400
	Zn222	Zn	-0.003582	0.500311	0.748651
	Zn223	Zn	-0.003889	0.500743	0.249005
	Zn224	Zn	0.496226	0.752377	-0.001088
	Zn225	Zn	0.495225	0.252077	-0.000302
	Zn226	Zn	0.745182	0.001983	0.498568
	Zn227	Zn	0.245509	0.002431	0.500057
	N228	N	0.407769	0.966252	0.678777
	N229	N	0.580017	0.039916	0.677227
	N230	N	0.581559	0.965814	0.319014
	N231	N	0.409464	0.039579	0.320727
	N232	N	0.674022	0.415374	0.961985
	N233	N	0.674991	0.587820	0.036054
	N234	N	0.318076	0.586860	0.961910
	N235	N	0.316814	0.415253	0.036254
	N236	N	0.958751	0.679731	0.414078
	N237	N	0.031862	0.681888	0.586998
	N238	N	0.958869	0.322306	0.584960
	N239	N	0.033121	0.322259	0.413060
	N240	N	0.959236	0.414268	0.678088
	N241	N	0.033290	0.586800	0.677807
	N242	N	0.958795	0.586039	0.321430
	N243	N	0.032825	0.414418	0.319206
	N244	N	0.410294	0.680512	0.962094
	N245	N	0.583089	0.682138	0.035691
	N246	N	0.581433	0.323033	0.962434
	N247	N	0.409178	0.322833	0.036319
	N248	N	0.674835	0.965647	0.411553
	N249	N	0.673684	0.039403	0.584570
	N250	N	0.314533	0.966705	0.587174
	N251	N	0.317353	0.039504	0.414444
	N252	N	0.909530	0.463676	0.178398
	N253	N	0.081719	0.537719	0.177027
	N254	N	0.083158	0.463506	0.819229
	N255	N	0.912085	0.537944	0.822039
	N256	N	0.174018	0.916780	0.463074
	N257	N	0.174893	0.089511	0.536352
	N258	N	0.817406	0.086981	0.461628
	N259	N	0.814590	0.914758	0.536134
	N260	N	0.458671	0.180474	0.913745
	N261	N	0.531812	0.181606	0.085601
	N262	N	0.459486	0.823533	0.085378
	N263	N	0.532005	0.822465	0.910956
	N264	N	0.458717	0.917025	0.177175
	N265	N	0.531720	0.089252	0.178048
	N266	N	0.458196	0.087213	0.821730
	N267	N	0.531763	0.916158	0.818979
	N268	N	0.909851	0.179804	0.462302
	N269	N	0.081348	0.181117	0.536394
	N270	N	0.081352	0.823369	0.463256
	N271	N	0.908232	0.822335	0.537073
	N272	N	0.176368	0.463535	0.912270
	N273	N	0.174425	0.537847	0.084162
	N274	N	0.815973	0.463906	0.085457
	N275	N	0.817249	0.537165	0.912693
	O276	O	0.947099	0.082025	0.873789
	H277	H	0.932236	0.083370	0.885457
	H278	H	0.946146	0.065140	0.876192
	O279	O	0.484719	0.562181	0.615984
	H280	H	0.485223	0.571061	0.630766
	H281	H	0.477876	0.569353	0.609204
	O282	O	0.549592	0.613737	0.634591
	H283	H	0.545567	0.625130	0.646755
	H284	H	0.540493	0.620213	0.614661
	O285	O	0.491386	0.505946	0.496237
	H286	H	0.485187	0.508532	0.509401
	H287	H	0.484960	0.499346	0.500129
	O288	O	0.559240	0.399243	0.418694
	H289	H	0.559719	0.408564	0.418574
	H290	H	0.561492	0.392263	0.416165
	O291	O	0.045690	-0.032060	0.969530
	H292	H	0.041505	-0.033596	0.964026
	H293	H	0.050604	-0.035631	0.959995
	O294	O	0.958687	1.052609	-0.086276
	H295	H	0.970104	1.059424	-0.080143
	H296	H	0.946461	1.051430	-0.078552
	O297	O	0.946921	0.886151	0.140164
	H298	H	0.956723	0.895437	0.144991
	H299	H	0.963204	0.883658	0.147122
	O300	O	0.574951	0.521412	0.557676
	H301	H	0.577310	0.520891	0.572179
	H302	H	0.571180	0.515779	0.561772
	O303	O	0.489631	0.567237	0.480479
	H304	H	0.484390	0.565617	0.477182
	H305	H	0.506175	0.568221	0.463329
	O306	O	0.492625	0.587591	0.440755
	H307	H	0.499303	0.587487	0.451132
	H308	H	0.493137	0.586413	0.442607
	O309	O	0.405190	0.548831	0.471962
	H310	H	0.387906	0.551655	0.464076
	H311	H	0.413658	0.554740	0.471198
	O312	O	1.076068	1.021273	1.076282
	H313	H	1.085580	1.025930	1.066360
	H314	H	1.071290	1.023126	1.074556
	O315	O	1.034756	0.940889	-0.046874
	H316	H	1.036557	0.934918	-0.041463
	H317	H	1.025525	0.944212	-0.041430
	O318	O	0.412852	0.442812	0.560771
	H319	H	0.421909	0.440726	0.555348
	H320	H	0.400800	0.438236	0.553371
	O321	O	0.482096	0.439681	0.500466
	H322	H	0.484412	0.435430	0.510204
	H323	H	0.468147	0.436794	0.506781
	O324	O	-0.037167	0.922729	1.084913
	H325	H	-0.013973	0.930117	1.077311
	H326	H	-0.037191	0.916776	1.088723
	O327	O	-0.127894	0.945818	1.058891
	H328	H	-0.113806	0.952496	1.064823
	H329	H	-0.139915	0.922126	1.070607
	O330	O	-0.003975	0.103192	0.071374
	H331	H	-0.012855	0.098194	0.069222
	H332	H	-0.002213	0.101509	0.064201
	O333	O	0.447290	0.468382	0.627407
	H334	H	0.440344	0.468060	0.612396
	H335	H	0.436809	0.471728	0.629997
	O336	O	0.050913	-0.096682	0.020606
	H337	H	0.059900	-0.083456	0.018734
	H338	H	0.051203	-0.100736	0.005741
	O339	O	-0.018462	-0.037418	-0.112008
	H340	H	-0.021205	-0.046391	-0.117345
	H341	H	-0.027880	-0.031019	-0.102245
	O342	O	0.602716	0.484571	0.417038
	H343	H	0.610921	0.485362	0.419390
	H344	H	0.607910	0.488336	0.427164
	O345	O	-0.014731	1.084660	0.969335
	H346	H	-0.005677	1.084553	0.969693
	H347	H	-0.022032	1.063154	0.964669
	O348	O	0.500950	0.518015	0.561718
	H349	H	0.486922	0.523284	0.555100
	H350	H	0.505100	0.516953	0.558523
	O351	O	0.432869	0.574896	0.422447
	H352	H	0.429207	0.570454	0.427178
	H353	H	0.431147	0.562568	0.432601
	O354	O	-0.027917	0.954299	-0.058049
	H355	H	-0.039443	0.948232	-0.062222
	H356	H	-0.031718	0.964207	-0.058288
	O357	O	0.392064	0.584005	0.509604
	H358	H	0.400851	0.576968	0.514200
	H359	H	0.400343	0.575021	0.507516
	O360	O	0.887647	-0.053682	1.021784
	H361	H	0.887053	-0.058618	1.024032
	H362	H	0.883342	-0.062704	1.043365
	O363	O	0.434267	0.523584	0.492976
	H364	H	0.436965	0.517929	0.493133
	H365	H	0.438386	0.520089	0.480288
	O366	O	0.533229	0.668492	0.474684
	H367	H	0.544817	0.685890	0.483361
	H368	H	0.529257	0.657621	0.465406
	O369	O	0.889653	-0.002400	0.028098
	H370	H	0.895918	-0.000677	0.029714
	H371	H	0.892063	0.002328	0.026006
	O372	O	0.447245	0.348322	0.478961
	H373	H	0.454441	0.354355	0.492589
	H374	H	0.457371	0.354552	0.468851
	O375	O	0.977390	-0.088754	0.997498
	H376	H	0.980917	-0.081910	1.003148
	H377	H	0.974823	-0.087722	1.017906
	O378	O	-0.049517	1.035097	-0.020062
	H379	H	-0.059879	1.041941	-0.025012
	H380	H	-0.047392	1.027791	-0.017544
	O381	O	0.547536	0.422989	0.431030
	H382	H	0.550602	0.418480	0.426394
	H383	H	0.558050	0.433242	0.434610
	O384	O	1.116238	0.956537	-0.032950
	H385	H	1.124257	0.950432	-0.038647
	H386	H	1.114339	0.945726	-0.035100
	O387	O	1.154576	0.072276	1.052117
	H388	H	1.164155	0.084550	1.045027
	H389	H	1.154106	0.075065	1.044637
	O390	O	1.117664	1.130061	0.061825
	H391	H	1.111787	1.135958	0.057216
	H392	H	1.124052	1.143576	0.062776
	O393	O	0.623425	0.474398	0.499125
	H394	H	0.620714	0.474445	0.498768
	H395	H	0.629804	0.479380	0.515760
