data_Molecule from HDF5

_cell_length_a		16.159781
_cell_length_b		16.333423
_cell_length_c		16.387622
_cell_angle_alpha	89.862987
_cell_angle_beta	90.002112
_cell_angle_gamma	89.950275
_symmetry_space_group_name_H-M	'P 1'
_symmetry_Int_Tables_number		1

loop_
	_symmetry_equiv_pos_as_xyz
	x,y,z

loop_
	_atom_site_label
	_atom_site_type_symbol
	_atom_site_fract_x
	_atom_site_fract_y
	_atom_site_fract_z
	H0	H	0.398101	0.834170	0.716326
	H1	H	0.600950	0.158001	0.717058
	H2	H	0.601589	0.833942	0.283707
	H3	H	0.398684	0.158786	0.281280
	H4	H	0.714966	0.398547	0.836979
	H5	H	0.713058	0.592707	0.162706
	H6	H	0.285865	0.593285	0.835345
	H7	H	0.286942	0.399713	0.162846
	H8	H	0.834359	0.710986	0.402394
	H9	H	0.163833	0.711409	0.598226
	H10	H	0.835231	0.283762	0.598504
	H11	H	0.163511	0.282638	0.401186
	H12	H	0.835890	0.398017	0.714878
	H13	H	0.164081	0.597119	0.714832
	H14	H	0.834572	0.596523	0.285719
	H15	H	0.164003	0.397925	0.285448
	H16	H	0.398356	0.713567	0.837274
	H17	H	0.601854	0.713431	0.160779
	H18	H	0.599940	0.280021	0.837669
	H19	H	0.400719	0.280438	0.161817
	H20	H	0.713935	0.833379	0.403882
	H21	H	0.711743	0.160547	0.596578
	H22	H	0.286751	0.832725	0.595344
	H23	H	0.285307	0.160744	0.401351
	H24	H	0.898390	0.335270	0.218113
	H25	H	0.098827	0.660281	0.214639
	H26	H	0.101597	0.334762	0.783161
	H27	H	0.898925	0.659064	0.782800
	H28	H	0.214661	0.899496	0.337265
	H29	H	0.214941	0.095376	0.662526
	H30	H	0.785492	0.094632	0.336795
	H31	H	0.785790	0.901227	0.663113
	H32	H	0.335629	0.210922	0.900420
	H33	H	0.664144	0.210351	0.098048
	H34	H	0.335381	0.781689	0.097713
	H35	H	0.664487	0.782244	0.901200
	H36	H	0.335870	0.895313	0.214666
	H37	H	0.665136	0.093484	0.211653
	H38	H	0.335373	0.096931	0.784665
	H39	H	0.664164	0.896790	0.785060
	H40	H	0.898708	0.214313	0.338223
	H41	H	0.100140	0.213415	0.661880
	H42	H	0.100215	0.780886	0.338037
	H43	H	0.899212	0.781623	0.663289
	H44	H	0.212325	0.332491	0.903706
	H45	H	0.213422	0.660824	0.095955
	H46	H	0.787937	0.332308	0.096488
	H47	H	0.786343	0.660627	0.903127
	H48	H	0.407256	0.113321	0.594332
	H49	H	0.587783	0.880493	0.596844
	H50	H	0.596267	0.113835	0.405427
	H51	H	0.404974	0.877611	0.396691
	H52	H	0.599809	0.410242	0.115923
	H53	H	0.588790	0.588540	0.885556
	H54	H	0.404655	0.597023	0.117463
	H55	H	0.402649	0.394708	0.879832
	H56	H	0.115078	0.589366	0.412166
	H57	H	0.881610	0.591795	0.594376
	H58	H	0.116961	0.406238	0.591259
	H59	H	0.886606	0.413839	0.413562
	H60	H	0.117435	0.405066	0.594862
	H61	H	0.883561	0.589056	0.588935
	H62	H	0.115882	0.585893	0.403609
	H63	H	0.880243	0.407473	0.398075
	H64	H	0.402142	0.582484	0.113783
	H65	H	0.592767	0.593654	0.882695
	H66	H	0.581724	0.401904	0.112189
	H67	H	0.402122	0.408530	0.883478
	H68	H	0.590044	0.113432	0.399458
	H69	H	0.591591	0.882026	0.588437
	H70	H	0.409383	0.112096	0.593200
	H71	H	0.417886	0.885253	0.408335
	H72	H	0.910189	0.611423	0.091907
	H73	H	0.102418	0.379790	0.087067
	H74	H	0.081710	0.610381	0.904802
	H75	H	0.918438	0.387461	0.917594
	H76	H	0.094454	0.901315	0.616820
	H77	H	0.090303	0.086795	0.386745
	H78	H	0.911959	0.086328	0.612936
	H79	H	0.909704	0.904004	0.385530
	H80	H	0.616712	0.090552	0.910398
	H81	H	0.386594	0.079410	0.088622
	H82	H	0.617932	0.907635	0.096542
	H83	H	0.383266	0.903934	0.909763
	H84	H	0.618056	0.898210	0.091052
	H85	H	0.379924	0.089207	0.099691
	H86	H	0.615840	0.083335	0.906365
	H87	H	0.383166	0.906435	0.906186
	H88	H	0.907883	0.098318	0.617880
	H89	H	0.087273	0.094851	0.384420
	H90	H	0.092761	0.907001	0.614254
	H91	H	0.905587	0.900696	0.384401
	H92	H	0.095340	0.611243	0.915034
	H93	H	0.093199	0.377395	0.106898
	H94	H	0.903699	0.613335	0.091390
	H95	H	0.892773	0.377657	0.910737
	H96	H	0.407331	0.112251	0.592192
	H97	H	0.596290	0.878802	0.595262
	H98	H	0.587948	0.111658	0.407153
	H99	H	0.399887	0.881759	0.414352
	H100	H	0.596593	0.391166	0.119398
	H101	H	0.595819	0.587320	0.883444
	H102	H	0.415557	0.588334	0.111795
	H103	H	0.413714	0.400689	0.885229
	H104	H	0.118515	0.594660	0.405110
	H105	H	0.882653	0.585521	0.594539
	H106	H	0.117795	0.403171	0.591752
	H107	H	0.881337	0.396699	0.412423
	H108	H	0.906835	0.613696	0.097104
	H109	H	0.080947	0.386483	0.089945
	H110	H	0.096857	0.616433	0.898299
	H111	H	0.913037	0.378316	0.891715
	H112	H	0.088207	0.902169	0.614630
	H113	H	0.096297	0.092595	0.382128
	H114	H	0.898594	0.088172	0.616480
	H115	H	0.904984	0.905914	0.384418
	H116	H	0.618465	0.089835	0.902950
	H117	H	0.382386	0.094231	0.084603
	H118	H	0.614164	0.907183	0.086174
	H119	H	0.381331	0.902103	0.906067
	C120	C	0.378317	0.004769	0.621470
	C121	C	0.620594	0.988205	0.621523
	C122	C	0.620992	0.004972	0.377213
	C123	C	0.378072	0.988804	0.377097
	C124	C	0.621822	0.373452	0.008262
	C125	C	0.620880	0.617608	0.991463
	C126	C	0.378110	0.618034	0.006883
	C127	C	0.377599	0.373569	0.990849
	C128	C	0.007620	0.618598	0.378808
	C129	C	0.991409	0.617731	0.621169
	C130	C	0.008496	0.375934	0.621328
	C131	C	0.991012	0.376543	0.378905
	C132	C	0.878278	0.505294	0.121908
	C133	C	0.121477	0.488957	0.122137
	C134	C	0.120747	0.504885	0.878123
	C135	C	0.878216	0.488364	0.877924
	C136	C	0.121102	0.875067	0.508122
	C137	C	0.120866	0.119603	0.491662
	C138	C	0.877222	0.119708	0.508367
	C139	C	0.877595	0.875218	0.492057
	C140	C	0.508269	0.117005	0.878331
	C141	C	0.491652	0.116753	0.119993
	C142	C	0.508271	0.874682	0.120329
	C143	C	0.490981	0.874979	0.878220
	C144	C	0.378897	0.882580	0.677371
	C145	C	0.619626	0.110217	0.677716
	C146	C	0.620923	0.882446	0.322201
	C147	C	0.379240	0.110836	0.320659
	C148	C	0.677305	0.377011	0.885766
	C149	C	0.675483	0.613904	0.114124
	C150	C	0.323185	0.614605	0.884218
	C151	C	0.323724	0.377841	0.113751
	C152	C	0.883810	0.673766	0.381536
	C153	C	0.115042	0.673152	0.618550
	C154	C	0.884636	0.321420	0.618740
	C155	C	0.114692	0.320784	0.380825
	C156	C	0.884935	0.378001	0.676767
	C157	C	0.115006	0.616387	0.676480
	C158	C	0.883859	0.616642	0.323627
	C159	C	0.114873	0.378047	0.323461
	C160	C	0.379336	0.674177	0.885053
	C161	C	0.620287	0.673902	0.112998
	C162	C	0.620119	0.318390	0.885999
	C163	C	0.380082	0.318453	0.113164
	C164	C	0.676510	0.882094	0.381931
	C165	C	0.674815	0.111442	0.617843
	C166	C	0.323216	0.881967	0.617675
	C167	C	0.322973	0.111796	0.380164
	C168	C	0.879543	0.383042	0.178397
	C169	C	0.119459	0.611696	0.176676
	C170	C	0.120185	0.382727	0.822477
	C171	C	0.879325	0.610788	0.821685
	C172	C	0.176566	0.878440	0.385761
	C173	C	0.176891	0.116295	0.613854
	C174	C	0.822482	0.116346	0.385757
	C175	C	0.822928	0.879234	0.614743
	C176	C	0.384514	0.172746	0.880719
	C177	C	0.615274	0.171968	0.117771
	C178	C	0.384577	0.819078	0.118329
	C179	C	0.615238	0.820037	0.880711
	C180	C	0.384885	0.875674	0.176477
	C181	C	0.615409	0.114427	0.174800
	C182	C	0.384489	0.116191	0.822930
	C183	C	0.614945	0.876619	0.822762
	C184	C	0.878822	0.175810	0.386416
	C185	C	0.119679	0.174708	0.613717
	C186	C	0.119487	0.819748	0.386155
	C187	C	0.879092	0.819719	0.614457
	C188	C	0.175432	0.381780	0.882167
	C189	C	0.176089	0.611898	0.117738
	C190	C	0.824478	0.381654	0.118136
	C191	C	0.823142	0.611476	0.881168
	C192	C	0.401355	0.090539	0.599716
	C193	C	0.598282	0.902532	0.599952
	C194	C	0.598171	0.090682	0.397962
	C195	C	0.400839	0.903492	0.399768
	C196	C	0.599266	0.394765	0.093666
	C197	C	0.598726	0.596233	0.906039
	C198	C	0.400886	0.595665	0.092044
	C199	C	0.399605	0.394862	0.905050
	C200	C	0.094305	0.596520	0.400705
	C201	C	0.904802	0.595333	0.599002
	C202	C	0.095179	0.398192	0.599113
	C203	C	0.905051	0.399339	0.401306
	C204	C	0.900378	0.590724	0.099939
	C205	C	0.098954	0.403290	0.100902
	C206	C	0.098042	0.590594	0.899801
	C207	C	0.901271	0.403259	0.900187
	C208	C	0.098409	0.896862	0.593265
	C209	C	0.097994	0.097731	0.406506
	C210	C	0.899653	0.097448	0.593555
	C211	C	0.900105	0.897189	0.406785
	C212	C	0.594643	0.094431	0.900257
	C213	C	0.405070	0.094256	0.097483
	C214	C	0.594505	0.897671	0.097737
	C215	C	0.405023	0.897601	0.900675
	Zn216	Zn	0.499574	-0.003758	0.750336
	Zn217	Zn	0.499765	-0.004269	0.248214
	Zn218	Zn	0.749720	0.496178	-0.000066
	Zn219	Zn	0.249310	0.496410	-0.000773
	Zn220	Zn	-0.000536	0.745991	0.500515
	Zn221	Zn	-0.000523	0.248605	0.500227
	Zn222	Zn	0.000241	0.496569	0.749080
	Zn223	Zn	-0.000225	0.497443	0.250592
	Zn224	Zn	0.499764	0.747000	-0.000950
	Zn225	Zn	0.499975	0.244916	-0.001180
	Zn226	Zn	0.748664	-0.002815	0.499966
	Zn227	Zn	0.249402	-0.002670	0.499814
	N228	N	0.412385	0.960024	0.679697
	N229	N	0.586513	0.032747	0.680090
	N230	N	0.587226	0.959782	0.319083
	N231	N	0.412612	0.033345	0.318536
	N232	N	0.678327	0.410587	0.962652
	N233	N	0.676047	0.579660	0.037577
	N234	N	0.322315	0.580334	0.960972
	N235	N	0.322002	0.411296	0.036690
	N236	N	0.961783	0.674976	0.415149
	N237	N	0.036975	0.674248	0.585142
	N238	N	0.962510	0.320241	0.584896
	N239	N	0.036901	0.319771	0.414590
	N240	N	0.963138	0.411068	0.678499
	N241	N	0.036954	0.582607	0.678246
	N242	N	0.961861	0.583060	0.321720
	N243	N	0.036882	0.412071	0.321943
	N244	N	0.412611	0.676521	0.962230
	N245	N	0.586998	0.676285	0.035739
	N246	N	0.586186	0.316257	0.963088
	N247	N	0.412654	0.315614	0.035620
	N248	N	0.676527	0.959226	0.415617
	N249	N	0.675348	0.034572	0.583614
	N250	N	0.322975	0.959017	0.583404
	N251	N	0.321978	0.034898	0.414558
	N252	N	0.912214	0.460739	0.180930
	N253	N	0.085932	0.534251	0.179306
	N254	N	0.086964	0.460230	0.819684
	N255	N	0.912703	0.533310	0.819298
	N256	N	0.177560	0.912157	0.462507
	N257	N	0.177694	0.082625	0.537029
	N258	N	0.821449	0.082082	0.462533
	N259	N	0.821736	0.912846	0.537718
	N260	N	0.462467	0.173376	0.914426
	N261	N	0.537241	0.173442	0.084319
	N262	N	0.462380	0.818366	0.084292
	N263	N	0.537355	0.818728	0.914556
	N264	N	0.463003	0.909212	0.178192
	N265	N	0.537341	0.080587	0.176155
	N266	N	0.462314	0.082266	0.821210
	N267	N	0.536774	0.910209	0.821173
	N268	N	0.912040	0.178076	0.463622
	N269	N	0.085772	0.177038	0.536626
	N270	N	0.085639	0.817665	0.463215
	N271	N	0.912737	0.817322	0.537341
	N272	N	0.175511	0.458761	0.916298
	N273	N	0.177584	0.534495	0.084625
	N274	N	0.823164	0.458625	0.084008
	N275	N	0.822050	0.534454	0.915153
	O276	O	0.978044	1.004678	-0.017776
	H277	H	0.977926	1.013811	-0.018421
	H278	H	0.972701	1.004817	-0.017534
	O279	O	0.014554	-0.007078	-0.042816
	H280	H	0.007015	-0.013517	-0.046142
	H281	H	0.014956	-0.012461	-0.042867
	O282	O	0.032652	0.045252	1.008846
	H283	H	0.036304	0.058738	1.008713
	H284	H	0.026413	0.042080	1.016463
	O285	O	0.516680	0.548648	0.465031
	H286	H	0.506529	0.548635	0.452881
	H287	H	0.514654	0.552242	0.465291
	O288	O	0.581603	0.463632	0.467221
	H289	H	0.569819	0.467463	0.446906
	H290	H	0.585260	0.454297	0.476077
	O291	O	0.506155	0.463603	0.518403
	H292	H	0.509432	0.471912	0.526202
	H293	H	0.518908	0.465016	0.518396
	O294	O	-0.010998	0.033067	0.050739
	H295	H	-0.013670	0.031980	0.056243
	H296	H	-0.011498	0.034503	0.050397
	O297	O	0.506963	0.501839	0.509743
	H298	H	0.502980	0.500858	0.507714
	H299	H	0.516590	0.508741	0.505873
	O300	O	0.049923	1.046601	1.105912
	H301	H	0.061329	1.052901	1.106859
	H302	H	0.050786	1.058326	1.106526
	O303	O	0.522777	0.515285	0.426093
	H304	H	0.515816	0.521912	0.423856
	H305	H	0.515627	0.514328	0.427446
	O306	O	0.026879	0.027642	1.018390
	H307	H	0.036699	0.027983	1.019029
	H308	H	0.033232	0.027173	1.014929
	O309	O	1.021909	0.945808	0.970837
	H310	H	1.020868	0.944952	0.959307
	H311	H	1.013439	0.942579	0.979428
	O312	O	0.438529	0.556584	0.479947
	H313	H	0.440216	0.554247	0.488489
	H314	H	0.437462	0.556460	0.483926
	O315	O	0.568048	0.481026	0.492542
	H316	H	0.575006	0.486381	0.492904
	H317	H	0.569883	0.475042	0.488467
	O318	O	-0.043766	1.009515	0.007400
	H319	H	-0.037798	1.009714	0.016761
	H320	H	-0.045626	1.008070	0.003347
	O321	O	1.010304	1.013387	0.042141
	H322	H	1.010793	1.016010	0.044010
	H323	H	1.012439	1.014656	0.035902
