data_Molecule from HDF5

_cell_length_a		16.500331
_cell_length_b		16.492304
_cell_length_c		16.497532
_cell_angle_alpha	90.106413
_cell_angle_beta	89.955127
_cell_angle_gamma	90.037040
_symmetry_space_group_name_H-M	'P 1'
_symmetry_Int_Tables_number		1

loop_
	_symmetry_equiv_pos_as_xyz
	x,y,z

loop_
	_atom_site_label
	_atom_site_type_symbol
	_atom_site_fract_x
	_atom_site_fract_y
	_atom_site_fract_z
	H0	H	0.405635	0.837001	0.759307
	H1	H	0.617476	0.152211	0.757575
	H2	H	0.620395	0.835335	0.313563
	H3	H	0.408324	0.149967	0.314192
	H4	H	0.737345	0.384784	0.878702
	H5	H	0.734857	0.597399	0.194062
	H6	H	0.290962	0.599273	0.880378
	H7	H	0.292777	0.388536	0.193818
	H8	H	0.855588	0.715166	0.430307
	H9	H	0.170376	0.715319	0.641611
	H10	H	0.856199	0.270743	0.643270
	H11	H	0.170183	0.271007	0.430016
	H12	H	0.856776	0.385263	0.760138
	H13	H	0.170626	0.599446	0.757977
	H14	H	0.855464	0.598236	0.315098
	H15	H	0.170650	0.387980	0.314712
	H16	H	0.408608	0.714576	0.880001
	H17	H	0.620524	0.714665	0.193218
	H18	H	0.620747	0.269192	0.878586
	H19	H	0.412382	0.275367	0.195337
	H20	H	0.735029	0.835865	0.430621
	H21	H	0.734070	0.151678	0.641351
	H22	H	0.290492	0.836683	0.643320
	H23	H	0.290627	0.149043	0.429531
	H24	H	0.907657	0.335862	0.258839
	H25	H	0.118722	0.650766	0.257820
	H26	H	0.122921	0.336072	0.811135
	H27	H	0.908321	0.649194	0.814287
	H28	H	0.232904	0.888654	0.377880
	H29	H	0.235249	0.099360	0.692988
	H30	H	0.792677	0.096118	0.379129
	H31	H	0.790839	0.887646	0.692649
	H32	H	0.355521	0.214819	0.932003
	H33	H	0.671561	0.212809	0.141082
	H34	H	0.358404	0.768094	0.144042
	H35	H	0.669874	0.771211	0.929487
	H36	H	0.355685	0.888033	0.256448
	H37	H	0.670538	0.096693	0.257217
	H38	H	0.355384	0.100574	0.814974
	H39	H	0.669506	0.888863	0.814379
	H40	H	0.908176	0.213176	0.378960
	H41	H	0.118280	0.215369	0.693365
	H42	H	0.116624	0.772686	0.378034
	H43	H	0.906594	0.771419	0.692977
	H44	H	0.236441	0.335034	0.929977
	H45	H	0.235752	0.649721	0.141964
	H46	H	0.792806	0.335358	0.141446
	H47	H	0.791039	0.648146	0.929787
	H48	H	0.429690	0.105304	0.625848
	H49	H	0.606944	0.879557	0.626344
	H50	H	0.603763	0.105657	0.447422
	H51	H	0.423160	0.880927	0.450177
	H52	H	0.610977	0.404279	0.150638
	H53	H	0.602907	0.576746	0.924921
	H54	H	0.422405	0.578876	0.149873
	H55	H	0.425197	0.396599	0.921064
	H56	H	0.125647	0.579738	0.443789
	H57	H	0.897758	0.584573	0.629966
	H58	H	0.124014	0.407155	0.621867
	H59	H	0.899586	0.402185	0.446400
	H60	H	0.125641	0.404983	0.626190
	H61	H	0.902599	0.584416	0.619510
	H62	H	0.126904	0.586243	0.447869
	H63	H	0.901365	0.404029	0.450066
	H64	H	0.428446	0.578164	0.147299
	H65	H	0.599830	0.583311	0.923993
	H66	H	0.600427	0.408980	0.144901
	H67	H	0.418304	0.407508	0.922764
	H68	H	0.601087	0.105800	0.444867
	H69	H	0.596864	0.881718	0.630074
	H70	H	0.423075	0.103825	0.619498
	H71	H	0.420267	0.878291	0.444513
	H72	H	0.929162	0.606765	0.132501
	H73	H	0.103440	0.378827	0.129008
	H74	H	0.099812	0.601931	0.950597
	H75	H	0.934237	0.380365	0.941965
	H76	H	0.099683	0.912012	0.645169
	H77	H	0.103126	0.086476	0.421563
	H78	H	0.930086	0.077241	0.645678
	H79	H	0.918528	0.897199	0.419051
	H80	H	0.624939	0.086898	0.952382
	H81	H	0.400693	0.087551	0.120337
	H82	H	0.624322	0.904363	0.121431
	H83	H	0.401568	0.906483	0.948975
	H84	H	0.626344	0.906908	0.128096
	H85	H	0.402414	0.076645	0.125533
	H86	H	0.622400	0.075152	0.949700
	H87	H	0.400246	0.902848	0.949517
	H88	H	0.925692	0.089757	0.651142
	H89	H	0.105533	0.077964	0.424046
	H90	H	0.096483	0.896910	0.649859
	H91	H	0.919653	0.912621	0.424996
	H92	H	0.105204	0.604744	0.949595
	H93	H	0.098531	0.381664	0.125001
	H94	H	0.927071	0.602286	0.119091
	H95	H	0.928519	0.383943	0.956976
	H96	H	0.421543	0.107902	0.627307
	H97	H	0.599517	0.884037	0.619283
	H98	H	0.600316	0.103980	0.448058
	H99	H	0.426799	0.880739	0.443926
	H100	H	0.600533	0.396512	0.149140
	H101	H	0.607051	0.582421	0.922263
	H102	H	0.426632	0.584489	0.149651
	H103	H	0.430907	0.407169	0.927211
	H104	H	0.123334	0.580124	0.451253
	H105	H	0.902916	0.575165	0.625839
	H106	H	0.126208	0.402736	0.621629
	H107	H	0.901303	0.406263	0.446105
	H108	H	0.916639	0.608317	0.126153
	H109	H	0.104358	0.380747	0.122221
	H110	H	0.101194	0.604315	0.944918
	H111	H	0.919238	0.376744	0.946321
	H112	H	0.110977	0.902721	0.651771
	H113	H	0.097339	0.080952	0.425509
	H114	H	0.917117	0.078651	0.650914
	H115	H	0.932798	0.902586	0.426564
	H116	H	0.628062	0.081853	0.940780
	H117	H	0.396909	0.085945	0.132108
	H118	H	0.628413	0.900210	0.126459
	H119	H	0.401903	0.904715	0.951970
	C120	C	0.391648	0.002106	0.657373
	C121	C	0.633603	0.985859	0.657642
	C122	C	0.634211	0.001118	0.414675
	C123	C	0.391555	0.983990	0.414122
	C124	C	0.636459	0.370386	0.044367
	C125	C	0.635802	0.613516	1.027487
	C126	C	0.392852	0.613704	0.045411
	C127	C	0.392639	0.371841	1.028178
	C128	C	0.021513	0.614681	0.415001
	C129	C	1.004797	0.614720	0.658066
	C130	C	0.021774	0.371878	0.657087
	C131	C	1.004569	0.371605	0.414641
	C132	C	0.892012	0.501696	0.157907
	C133	C	0.134286	0.484682	0.157417
	C134	C	0.135719	0.500514	0.914558
	C135	C	0.894223	0.483885	0.915840
	C136	C	0.134338	0.871653	0.544440
	C137	C	0.134507	0.114492	0.527768
	C138	C	0.892231	0.113748	0.545079
	C139	C	0.891392	0.871914	0.527405
	C140	C	0.521147	0.114419	0.915665
	C141	C	0.504537	0.114708	0.157864
	C142	C	0.522476	0.870841	0.157826
	C143	C	0.504547	0.872216	0.915990
	C144	C	0.388301	0.884140	0.718662
	C145	C	0.635703	0.104672	0.717406
	C146	C	0.637734	0.882816	0.354002
	C147	C	0.389345	0.102321	0.353833
	C148	C	0.697151	0.366933	0.925980
	C149	C	0.695427	0.615491	0.146266
	C150	C	0.331915	0.616959	0.927192
	C151	C	0.333052	0.370084	0.146827
	C152	C	0.902780	0.674780	0.412421
	C153	C	0.122861	0.675470	0.660360
	C154	C	0.903486	0.310832	0.661060
	C155	C	0.123005	0.311378	0.412180
	C156	C	0.903921	0.368119	0.719242
	C157	C	0.123079	0.617497	0.718128
	C158	C	0.902897	0.616890	0.354832
	C159	C	0.123328	0.369600	0.354731
	C160	C	0.390215	0.674190	0.927041
	C161	C	0.638265	0.673902	0.146014
	C162	C	0.638920	0.309481	0.925951
	C163	C	0.392262	0.313746	0.147435
	C164	C	0.695000	0.882893	0.412257
	C165	C	0.693816	0.104544	0.659475
	C166	C	0.330704	0.883945	0.660775
	C167	C	0.330964	0.102089	0.411272
	C168	C	0.889634	0.383222	0.218441
	C169	C	0.136671	0.603424	0.217494
	C170	C	0.140131	0.383069	0.852355
	C171	C	0.890647	0.602160	0.854958
	C172	C	0.193339	0.870075	0.425384
	C173	C	0.194682	0.117043	0.645911
	C174	C	0.832519	0.114893	0.426225
	C175	C	0.830859	0.869297	0.645669
	C176	C	0.402904	0.175128	0.913774
	C177	C	0.623746	0.173347	0.159464
	C178	C	0.404796	0.809268	0.161580
	C179	C	0.622763	0.811663	0.912165
	C180	C	0.403497	0.868909	0.217398
	C181	C	0.623292	0.115678	0.217311
	C182	C	0.402668	0.118055	0.855512
	C183	C	0.622386	0.870225	0.854923
	C184	C	0.889955	0.173099	0.426177
	C185	C	0.137074	0.175300	0.646035
	C186	C	0.135532	0.812349	0.425404
	C187	C	0.888634	0.811589	0.645629
	C188	C	0.196827	0.382629	0.911374
	C189	C	0.194883	0.602990	0.159864
	C190	C	0.832413	0.382796	0.159878
	C191	C	0.832304	0.601747	0.912128
	C192	C	0.417362	0.084163	0.631594
	C193	C	0.608234	0.903266	0.632334
	C194	C	0.609087	0.083685	0.439706
	C195	C	0.416367	0.901265	0.439070
	C196	C	0.611282	0.396025	0.126878
	C197	C	0.610445	0.588114	0.945106
	C198	C	0.418441	0.587956	0.127608
	C199	C	0.417561	0.396654	0.945225
	C200	C	0.103793	0.589495	0.440496
	C201	C	0.922493	0.588848	0.632629
	C202	C	0.103861	0.397504	0.630731
	C203	C	0.922246	0.396940	0.440219
	C204	C	0.917038	0.584324	0.133026
	C205	C	0.109274	0.401987	0.132486
	C206	C	0.109473	0.582410	0.940968
	C207	C	0.920099	0.401742	0.941281
	C208	C	0.109577	0.896675	0.627329
	C209	C	0.109194	0.089203	0.445043
	C210	C	0.917269	0.089184	0.627716
	C211	C	0.916523	0.896976	0.444913
	C212	C	0.603551	0.088723	0.940393
	C213	C	0.421533	0.090432	0.133116
	C214	C	0.605047	0.896426	0.132589
	C215	C	0.422586	0.897667	0.942536
	Zn216	Zn	0.512091	-0.006047	0.786647
	Zn217	Zn	0.512984	-0.007804	0.285771
	Zn218	Zn	0.764300	0.492257	0.035504
	Zn219	Zn	0.264005	0.492833	0.036649
	Zn220	Zn	0.012366	0.743141	0.536187
	Zn221	Zn	0.012843	0.243001	0.536441
	Zn222	Zn	0.013985	0.492169	0.786025
	Zn223	Zn	0.013632	0.493300	0.286590
	Zn224	Zn	0.513968	0.742131	0.036531
	Zn225	Zn	0.513960	0.243261	0.036270
	Zn226	Zn	0.762856	-0.006999	0.536360
	Zn227	Zn	0.263108	-0.007104	0.535970
	N228	N	0.425602	0.958539	0.716558
	N229	N	0.599272	0.029792	0.716603
	N230	N	0.600381	0.957114	0.355431
	N231	N	0.426041	0.027701	0.355466
	N232	N	0.695851	0.403843	1.000656
	N233	N	0.694098	0.578679	0.071473
	N234	N	0.333513	0.580108	1.001725
	N235	N	0.332956	0.405242	0.071340
	N236	N	0.977513	0.673471	0.449252
	N237	N	0.048173	0.673969	0.623750
	N238	N	0.977657	0.313051	0.623036
	N239	N	0.048046	0.312352	0.448688
	N240	N	0.978592	0.405121	0.717063
	N241	N	0.048512	0.580546	0.716848
	N242	N	0.977683	0.580399	0.356203
	N243	N	0.048692	0.406114	0.356042
	N244	N	0.427491	0.672090	1.001517
	N245	N	0.602211	0.673234	0.071079
	N246	N	0.602170	0.311219	1.000714
	N247	N	0.428406	0.314634	0.072437
	N248	N	0.693118	0.957533	0.449367
	N249	N	0.692793	0.029460	0.623081
	N250	N	0.332548	0.958271	0.623379
	N251	N	0.332143	0.027409	0.448035
	N252	N	0.925938	0.458242	0.217457
	N253	N	0.099675	0.528841	0.215885
	N254	N	0.103019	0.457481	0.854056
	N255	N	0.928169	0.527971	0.856961
	N256	N	0.192937	0.906000	0.500526
	N257	N	0.193263	0.080231	0.571228
	N258	N	0.833699	0.078919	0.501253
	N259	N	0.832467	0.906062	0.571100
	N260	N	0.477646	0.173077	0.950271
	N261	N	0.548766	0.172966	0.123262
	N262	N	0.479719	0.810529	0.125149
	N263	N	0.548356	0.812692	0.949538
	N264	N	0.477855	0.906351	0.215160
	N265	N	0.548042	0.079917	0.216509
	N266	N	0.477129	0.080891	0.856594
	N267	N	0.547888	0.907078	0.857058
	N268	N	0.926232	0.172537	0.501126
	N269	N	0.100285	0.173804	0.571356
	N270	N	0.099768	0.813026	0.500533
	N271	N	0.925536	0.813061	0.571060
	N272	N	0.194189	0.456698	0.949609
	N273	N	0.193601	0.528153	0.123086
	N274	N	0.833714	0.457427	0.123095
	N275	N	0.834384	0.527216	0.949181
	O276	O	0.500403	0.481372	0.324537
	H277	H	0.504184	0.479775	0.328676
	H278	H	0.505000	0.487693	0.327845
	O279	O	0.438338	0.648601	0.605362
	H280	H	0.436421	0.646124	0.593794
	H281	H	0.447992	0.647785	0.594661
	O282	O	0.717591	0.698359	0.739617
	H283	H	0.705828	0.685531	0.749658
	H284	H	0.725141	0.708316	0.747519
	O285	O	0.219238	1.188828	0.101533
	H286	H	0.231126	1.190897	0.115704
	H287	H	0.225970	1.197912	0.117549
	O288	O	0.001707	-0.178160	0.191630
	H289	H	0.019644	-0.178868	0.184841
	H290	H	0.007890	-0.183585	0.195306
	O291	O	0.851990	1.175382	0.015062
	H292	H	0.864167	1.171621	0.020090
	H293	H	0.838840	1.201929	0.019078
	O294	O	-0.172523	0.816302	-0.087779
	H295	H	-0.157959	0.827450	-0.067921
	H296	H	-0.169325	0.826452	-0.078029
	O297	O	1.205821	0.802852	-0.149042
	H298	H	1.214418	0.819073	-0.155888
	H299	H	1.195809	0.788718	-0.142542
	O300	O	0.507614	0.631306	0.344308
	H301	H	0.515192	0.637676	0.342430
	H302	H	0.520472	0.630986	0.336383
	O303	O	0.461320	0.483387	0.699704
	H304	H	0.465813	0.489885	0.676299
	H305	H	0.466837	0.499620	0.700677
	O306	O	-0.022567	0.844787	0.837967
	H307	H	-0.024903	0.836278	0.835450
	H308	H	-0.032420	0.843768	0.839284
	O309	O	0.477674	0.405680	0.534675
	H310	H	0.493151	0.416228	0.544899
	H311	H	0.492262	0.405358	0.523710
	O312	O	0.349739	0.322319	0.369672
	H313	H	0.357386	0.334836	0.391304
	H314	H	0.357474	0.339189	0.385127
	O315	O	-0.124854	-0.040372	0.941413
	H316	H	-0.125412	-0.055800	0.930048
	H317	H	-0.129665	-0.044688	0.936635
	O318	O	-0.998867	2.159687	0.055166
	H319	H	-0.990313	2.140896	0.047980
	H320	H	-0.974803	2.172358	0.064756
	O321	O	-0.512185	1.284891	-0.261582
	H322	H	-0.505208	1.273606	-0.235863
	H323	H	-0.510016	1.307038	-0.259917
	O324	O	1.201975	0.057646	1.191710
	H325	H	1.207651	0.041479	1.177514
	H326	H	1.200835	0.050728	1.199952
	O327	O	0.685234	-0.331789	0.489758
	H328	H	0.702619	-0.321682	0.504877
	H329	H	0.691218	-0.337774	0.507257
	O330	O	1.019590	-0.055578	-0.013130
	H331	H	1.017905	-0.070080	-0.014290
	H332	H	1.014577	-0.064799	-0.009072
	O333	O	0.731371	0.501206	0.413001
	H334	H	0.741039	0.487942	0.390309
	H335	H	0.737431	0.506245	0.416942
	O336	O	1.666306	-0.475353	0.623225
	H337	H	1.674730	-0.464984	0.615762
	H338	H	1.663670	-0.479853	0.624474
	O339	O	0.355559	-0.527308	-0.465572
	H340	H	0.351259	-0.519350	-0.480100
	H341	H	0.360260	-0.530081	-0.479068
	O342	O	1.055118	1.179792	-0.067905
	H343	H	1.060986	1.162777	-0.063068
	H344	H	1.061602	1.199725	-0.058876
	O345	O	-0.491273	0.612403	-0.543966
	H346	H	-0.487222	0.605161	-0.531764
	H347	H	-0.474788	0.616960	-0.548643
	O348	O	0.798398	-0.225900	1.104062
	H349	H	0.809829	-0.218904	1.135374
	H350	H	0.777233	-0.246800	1.117840
	O351	O	1.698616	1.527551	-0.619176
	H352	H	1.713556	1.518257	-0.619151
	H353	H	1.704753	1.512729	-0.613727
	O354	O	0.485307	0.583044	0.752232
	H355	H	0.487203	0.589074	0.753381
	H356	H	0.488742	0.584413	0.745257
	O357	O	1.039277	1.208148	1.251382
	H358	H	1.060299	1.226347	1.273450
	H359	H	1.064100	1.200235	1.259407
	O360	O	0.348192	0.275216	0.537085
	H361	H	0.327929	0.255198	0.546017
	H362	H	0.358420	0.284631	0.575032
	O363	O	0.647065	0.474781	0.739540
	H364	H	0.659666	0.474088	0.742706
	H365	H	0.645822	0.493952	0.724959
	O366	O	0.971555	-0.189578	0.912001
	H367	H	0.983983	-0.210944	0.907203
	H368	H	0.965170	-0.188241	0.924515
	O369	O	-1.008699	0.934937	-0.756704
	H370	H	-1.004543	0.936002	-0.770324
	H371	H	-0.999716	0.939561	-0.749892
	O372	O	0.188872	0.907983	0.103031
	H373	H	0.188155	0.894042	0.090538
	H374	H	0.185885	0.932398	0.081352
	O375	O	-0.160011	1.123164	1.074424
	H376	H	-0.147825	1.115984	1.070518
	H377	H	-0.164524	1.132566	1.052366
	O378	O	0.320089	0.679457	0.343247
	H379	H	0.306556	0.674627	0.351110
	H380	H	0.372895	0.689308	0.333919
	O381	O	0.989393	0.027747	0.110065
	H382	H	0.985958	0.026963	0.102631
	H383	H	0.994302	0.024493	0.123412
	O384	O	0.186865	0.170792	2.218014
	H385	H	0.194790	0.137051	2.216225
	H386	H	0.213919	0.188362	2.242005
	O387	O	-0.188915	0.977548	1.171809
	H388	H	-0.187168	0.984559	1.177649
	H389	H	-0.196957	0.996686	1.146833
	O390	O	1.010045	0.975881	0.927586
	H391	H	0.995960	0.963768	0.930390
	H392	H	1.010101	0.965081	0.916397
	O393	O	1.342249	0.332841	0.733180
	H394	H	1.346307	0.366937	0.741193
	H395	H	1.372312	0.324473	0.740704
	O396	O	0.339090	0.522551	0.485731
	H397	H	0.337099	0.522252	0.493443
	H398	H	0.337943	0.516612	0.474943
	O399	O	0.340490	0.707981	0.522962
	H400	H	0.342649	0.712715	0.506948
	H401	H	0.325222	0.720847	0.521112
	O402	O	0.220452	-0.024139	0.828037
	H403	H	0.218059	-0.030797	0.812022
	H404	H	0.224637	-0.023487	0.813467
	O405	O	0.119448	0.056523	-0.143510
	H406	H	0.109861	0.052855	-0.140660
	H407	H	0.101736	0.054797	-0.154533
	O408	O	0.074578	-0.143988	0.150561
	H409	H	0.067822	-0.137224	0.140352
	H410	H	0.077552	-0.153358	0.150352
	O411	O	-0.169803	0.847709	0.221361
	H412	H	-0.127487	0.836251	0.233963
	H413	H	-0.178600	0.890780	0.222741
	O414	O	0.724936	0.482551	0.660093
	H415	H	0.723440	0.478936	0.662752
	H416	H	0.735191	0.464744	0.649974
	O417	O	0.842607	0.166089	1.228775
	H418	H	0.862624	0.153094	1.219679
	H419	H	0.852928	0.142779	1.206600
	O420	O	0.721326	0.281036	0.530553
	H421	H	0.727823	0.258038	0.514749
	H422	H	0.725722	0.284732	0.498147
	O423	O	0.224387	0.796860	0.006641
	H424	H	0.227788	0.801734	-0.002481
	H425	H	0.234616	0.784160	0.009424
	O426	O	1.568028	1.697828	0.404682
	H427	H	1.582319	1.713155	0.406696
	H428	H	1.582941	1.675199	0.409733
	O429	O	0.662304	0.424882	0.545472
	H430	H	0.669910	0.434375	0.540604
	H431	H	0.666119	0.403103	0.537019
	O432	O	0.553016	0.679757	0.710610
	H433	H	0.544320	0.656849	0.715466
	H434	H	0.549230	0.700649	0.717005
	O435	O	-0.691996	0.417379	0.717618
	H436	H	-0.704597	0.429988	0.718973
	H437	H	-0.693168	0.426222	0.711164
	O438	O	1.321072	0.608196	0.653041
	H439	H	1.324341	0.604856	0.638026
	H440	H	1.333526	0.597205	0.631699
	O441	O	0.227961	0.022912	0.030146
	H442	H	0.226894	0.056666	0.030027
	H443	H	0.230111	0.018437	0.001029
	O444	O	0.827016	0.138111	-0.156213
	H445	H	0.855954	0.149085	-0.160489
	H446	H	0.826485	0.160980	-0.133562
	O447	O	0.549438	0.282027	0.330022
	H448	H	0.530745	0.268634	0.332156
	H449	H	0.533811	0.285567	0.336044
	O450	O	0.317788	0.508839	0.366338
	H451	H	0.305531	0.518374	0.370587
	H452	H	0.330738	0.519403	0.364431
	O453	O	0.506073	0.309069	0.528356
	H454	H	0.514851	0.317656	0.542872
	H455	H	0.499977	0.308913	0.550043
	O456	O	0.715314	0.292153	0.339115
	H457	H	0.672267	0.288028	0.337363
	H458	H	0.731559	0.264920	0.308094
	O459	O	0.112489	-0.195376	0.151103
	H460	H	0.100818	-0.194672	0.148777
	H461	H	0.128901	-0.181723	0.133583
	O462	O	0.927791	0.193294	-0.132188
	H463	H	0.938563	0.198092	-0.120821
	H464	H	0.945024	0.206701	-0.127969
	O465	O	0.827693	0.006765	-0.139103
	H466	H	0.824690	0.018854	-0.134202
	H467	H	0.815547	0.016697	-0.163128
