data_Molecule from HDF5

_cell_length_a		16.285758
_cell_length_b		16.308037
_cell_length_c		16.264928
_cell_angle_alpha	90.030314
_cell_angle_beta	90.232452
_cell_angle_gamma	90.258048
_symmetry_space_group_name_H-M	'P 1'
_symmetry_Int_Tables_number		1

loop_
	_symmetry_equiv_pos_as_xyz
	x,y,z

loop_
	_atom_site_label
	_atom_site_type_symbol
	_atom_site_fract_x
	_atom_site_fract_y
	_atom_site_fract_z
	H0	H	0.407747	0.855176	0.702341
	H1	H	0.608929	0.181409	0.702461
	H2	H	0.605143	0.854379	0.271209
	H3	H	0.408116	0.180515	0.271766
	H4	H	0.720272	0.421984	0.824689
	H5	H	0.721866	0.618649	0.151931
	H6	H	0.288914	0.620629	0.826668
	H7	H	0.294142	0.419051	0.152552
	H8	H	0.842197	0.730424	0.391738
	H9	H	0.168028	0.735320	0.592093
	H10	H	0.842684	0.300547	0.589360
	H11	H	0.168359	0.302506	0.389835
	H12	H	0.842538	0.417657	0.705161
	H13	H	0.169652	0.617804	0.704738
	H14	H	0.843657	0.618591	0.272124
	H15	H	0.169048	0.419490	0.275293
	H16	H	0.407400	0.733686	0.824932
	H17	H	0.608692	0.736562	0.150375
	H18	H	0.608376	0.304438	0.824724
	H19	H	0.408145	0.301392	0.150378
	H20	H	0.719965	0.853698	0.388314
	H21	H	0.725241	0.179948	0.587323
	H22	H	0.292613	0.853221	0.584639
	H23	H	0.289284	0.179495	0.384879
	H24	H	0.905379	0.355873	0.204775
	H25	H	0.106171	0.681883	0.206293
	H26	H	0.105953	0.356006	0.774605
	H27	H	0.906125	0.681031	0.771868
	H28	H	0.219320	0.915362	0.323939
	H29	H	0.225075	0.118383	0.649127
	H30	H	0.791344	0.116036	0.324350
	H31	H	0.788786	0.915349	0.650268
	H32	H	0.345434	0.235261	0.886237
	H33	H	0.671185	0.235855	0.089253
	H34	H	0.345720	0.800336	0.088034
	H35	H	0.670402	0.803062	0.886528
	H36	H	0.343633	0.917732	0.200076
	H37	H	0.670583	0.119916	0.205095
	H38	H	0.345666	0.120013	0.769735
	H39	H	0.671033	0.921406	0.772452
	H40	H	0.902398	0.234732	0.326649
	H41	H	0.107038	0.232820	0.651061
	H42	H	0.105172	0.798807	0.326781
	H43	H	0.905787	0.802987	0.652287
	H44	H	0.223044	0.356534	0.889682
	H45	H	0.225553	0.681354	0.092997
	H46	H	0.788775	0.356460	0.089686
	H47	H	0.792507	0.681821	0.888825
	H48	H	0.413099	0.134185	0.580402
	H49	H	0.601556	0.901056	0.580195
	H50	H	0.602210	0.129909	0.407044
	H51	H	0.404805	0.898679	0.392696
	H52	H	0.596585	0.421638	0.105028
	H53	H	0.601716	0.604186	0.873104
	H54	H	0.407330	0.611609	0.107992
	H55	H	0.413926	0.425606	0.871718
	H56	H	0.124406	0.609313	0.389158
	H57	H	0.891868	0.609746	0.574172
	H58	H	0.119848	0.424046	0.575452
	H59	H	0.890775	0.424551	0.400351
	H60	H	0.120065	0.432042	0.584898
	H61	H	0.890415	0.602654	0.586854
	H62	H	0.122571	0.618518	0.405944
	H63	H	0.889625	0.428656	0.395699
	H64	H	0.421887	0.601490	0.099718
	H65	H	0.593123	0.614382	0.871882
	H66	H	0.604882	0.427066	0.105960
	H67	H	0.412588	0.429467	0.872699
	H68	H	0.607394	0.137686	0.388824
	H69	H	0.595299	0.901982	0.582078
	H70	H	0.419536	0.132001	0.577852
	H71	H	0.416021	0.900137	0.386740
	H72	H	0.919342	0.634659	0.085750
	H73	H	0.100420	0.404478	0.078935
	H74	H	0.097358	0.635506	0.894121
	H75	H	0.918790	0.404761	0.897827
	H76	H	0.106695	0.928250	0.606519
	H77	H	0.105393	0.107530	0.369432
	H78	H	0.909577	0.101315	0.604128
	H79	H	0.917327	0.928370	0.374776
	H80	H	0.623916	0.114485	0.898472
	H81	H	0.392021	0.108142	0.081531
	H82	H	0.623477	0.926965	0.078885
	H83	H	0.394525	0.931224	0.899751
	H84	H	0.622837	0.928031	0.078908
	H85	H	0.391386	0.114729	0.077305
	H86	H	0.623420	0.108418	0.894494
	H87	H	0.390247	0.927982	0.888585
	H88	H	0.923873	0.106044	0.600143
	H89	H	0.091459	0.104492	0.374925
	H90	H	0.095476	0.932012	0.601463
	H91	H	0.916033	0.916824	0.370424
	H92	H	0.095486	0.632746	0.901573
	H93	H	0.103191	0.402538	0.083768
	H94	H	0.915157	0.632737	0.076780
	H95	H	0.910424	0.403433	0.901199
	H96	H	0.413325	0.132084	0.573170
	H97	H	0.596643	0.903670	0.576207
	H98	H	0.587881	0.130468	0.392051
	H99	H	0.414681	0.903219	0.398517
	H100	H	0.596114	0.431429	0.102290
	H101	H	0.606195	0.615796	0.868709
	H102	H	0.424702	0.620395	0.105108
	H103	H	0.417066	0.428544	0.873550
	H104	H	0.117182	0.599905	0.404384
	H105	H	0.886143	0.617427	0.585373
	H106	H	0.124886	0.420722	0.586199
	H107	H	0.888129	0.422567	0.395087
	H108	H	0.909681	0.636754	0.083931
	H109	H	0.096741	0.402985	0.083832
	H110	H	0.103041	0.634531	0.900439
	H111	H	0.911618	0.401741	0.893079
	H112	H	0.097305	0.919998	0.605612
	H113	H	0.094280	0.118490	0.369918
	H114	H	0.913880	0.116071	0.607348
	H115	H	0.905808	0.924699	0.370443
	H116	H	0.625799	0.115057	0.891961
	H117	H	0.394161	0.108380	0.073949
	H118	H	0.623765	0.928110	0.079661
	H119	H	0.390604	0.919238	0.897408
	C120	C	0.385622	0.025511	0.607251
	C121	C	0.628874	1.009608	0.608860
	C122	C	0.627740	0.025165	0.365968
	C123	C	0.383363	1.008398	0.363547
	C124	C	0.628828	0.397917	-0.003229
	C125	C	0.629514	0.640962	0.979231
	C126	C	0.386740	0.640663	-0.003045
	C127	C	0.385763	0.397262	0.980251
	C128	C	0.014001	0.638850	0.369546
	C129	C	0.997354	0.639630	0.611911
	C130	C	0.013679	0.396257	0.611085
	C131	C	0.996974	0.396115	0.367784
	C132	C	0.884841	0.527141	0.110834
	C133	C	0.129645	0.510660	0.112175
	C134	C	0.128230	0.527189	0.868915
	C135	C	0.884927	0.510516	0.867666
	C136	C	0.127300	0.896039	0.496780
	C137	C	0.127765	0.139480	0.478778
	C138	C	0.885037	0.137680	0.496589
	C139	C	0.883878	0.894895	0.479749
	C140	C	0.516605	0.141629	0.865173
	C141	C	0.499983	0.140347	0.108485
	C142	C	0.515832	0.897253	0.108120
	C143	C	0.499379	0.897559	0.866011
	C144	C	0.387394	0.903554	0.664174
	C145	C	0.628648	0.132212	0.664613
	C146	C	0.625360	0.902919	0.309552
	C147	C	0.386587	0.131285	0.308698
	C148	C	0.683339	0.400954	0.873558
	C149	C	0.684591	0.638953	0.102668
	C150	C	0.328766	0.639502	0.874758
	C151	C	0.331410	0.398638	0.103219
	C152	C	0.891218	0.693473	0.370916
	C153	C	0.119496	0.696761	0.611352
	C154	C	0.891506	0.338907	0.609885
	C155	C	0.119663	0.340603	0.369806
	C156	C	0.891510	0.397514	0.667281
	C157	C	0.120484	0.637812	0.667198
	C158	C	0.891935	0.637685	0.311632
	C159	C	0.119863	0.398362	0.312466
	C160	C	0.387368	0.695924	0.873971
	C161	C	0.628531	0.697741	0.101875
	C162	C	0.627477	0.342627	0.873527
	C163	C	0.388249	0.340320	0.102048
	C164	C	0.682637	0.902608	0.367739
	C165	C	0.686350	0.131531	0.607418
	C166	C	0.330007	0.902663	0.605405
	C167	C	0.327893	0.130976	0.365404
	C168	C	0.885717	0.404711	0.166782
	C169	C	0.127135	0.633170	0.168238
	C170	C	0.126582	0.404837	0.812618
	C171	C	0.886580	0.632736	0.810924
	C172	C	0.181672	0.896053	0.373330
	C173	C	0.186005	0.138313	0.600922
	C174	C	0.828694	0.136357	0.373715
	C175	C	0.827354	0.896245	0.601974
	C176	C	0.394340	0.197563	0.866312
	C177	C	0.622306	0.197158	0.108348
	C178	C	0.393823	0.839583	0.107150
	C179	C	0.622027	0.841764	0.866992
	C180	C	0.392916	0.898144	0.163021
	C181	C	0.621991	0.139438	0.166115
	C182	C	0.394200	0.140285	0.808385
	C183	C	0.622254	0.900543	0.810414
	C184	C	0.884379	0.195177	0.374656
	C185	C	0.127341	0.195181	0.601908
	C186	C	0.124976	0.838020	0.374866
	C187	C	0.885467	0.840096	0.602959
	C188	C	0.184701	0.405010	0.869963
	C189	C	0.186968	0.632622	0.112544
	C190	C	0.827883	0.404867	0.109082
	C191	C	0.829724	0.633008	0.868825
	C192	C	0.408653	0.110794	0.583932
	C193	C	0.604897	0.924221	0.586099
	C194	C	0.605399	0.110768	0.389058
	C195	C	0.405431	0.922814	0.385909
	C196	C	0.606008	0.420175	0.082294
	C197	C	0.606897	0.618269	0.893426
	C198	C	0.410741	0.617815	0.082320
	C199	C	0.407987	0.420958	0.894490
	C200	C	0.099216	0.615964	0.392945
	C201	C	0.911601	0.616562	0.588797
	C202	C	0.099299	0.418900	0.588577
	C203	C	0.911483	0.418738	0.390444
	C204	C	0.907954	0.612659	0.088706
	C205	C	0.106914	0.425403	0.088789
	C206	C	0.105384	0.612117	0.891904
	C207	C	0.907133	0.425471	0.890792
	C208	C	0.105857	0.919663	0.582310
	C209	C	0.103998	0.116947	0.393610
	C210	C	0.908827	0.114539	0.581760
	C211	C	0.906652	0.916801	0.394142
	C212	C	0.602182	0.119074	0.888180
	C213	C	0.414530	0.117330	0.084488
	C214	C	0.601242	0.920727	0.085596
	C215	C	0.414127	0.919747	0.888618
	Zn216	Zn	0.507253	0.019250	0.737562
	Zn217	Zn	0.506937	0.017685	0.236718
	Zn218	Zn	0.756779	0.518989	-0.011392
	Zn219	Zn	0.258008	0.519411	-0.009979
	Zn220	Zn	0.005515	0.767899	0.490245
	Zn221	Zn	0.005250	0.267166	0.488913
	Zn222	Zn	0.006325	0.518284	0.739806
	Zn223	Zn	0.006500	0.518377	0.239916
	Zn224	Zn	0.508154	0.769041	-0.012740
	Zn225	Zn	0.508477	0.269640	-0.012826
	Zn226	Zn	0.756893	0.016339	0.487216
	Zn227	Zn	0.255450	0.016999	0.486116
	N228	N	0.421254	0.980954	0.665567
	N229	N	0.593546	0.055313	0.665711
	N230	N	0.592085	0.980197	0.308572
	N231	N	0.419995	0.054134	0.307311
	N232	N	0.684325	0.434718	0.951162
	N233	N	0.685246	0.604601	0.025466
	N234	N	0.328218	0.605867	0.952401
	N235	N	0.329944	0.433496	0.026246
	N236	N	0.968029	0.694206	0.406163
	N237	N	0.041908	0.698004	0.577798
	N238	N	0.968501	0.338097	0.575567
	N239	N	0.042123	0.338884	0.403280
	N240	N	0.968673	0.432078	0.668341
	N241	N	0.043317	0.603287	0.667731
	N242	N	0.969419	0.604326	0.310791
	N243	N	0.042712	0.432208	0.311127
	N244	N	0.422734	0.696681	0.950846
	N245	N	0.595026	0.699227	0.024033
	N246	N	0.594360	0.340506	0.951114
	N247	N	0.421235	0.339465	0.024301
	N248	N	0.684188	0.979734	0.402025
	N249	N	0.686666	0.054154	0.573549
	N250	N	0.328872	0.979696	0.570779
	N251	N	0.325510	0.053406	0.398598
	N252	N	0.920527	0.481840	0.167965
	N253	N	0.092225	0.556204	0.168357
	N254	N	0.092209	0.481787	0.811765
	N255	N	0.920285	0.555663	0.809938
	N256	N	0.183316	0.931498	0.450080
	N257	N	0.186565	0.104489	0.523413
	N258	N	0.829183	0.101118	0.450471
	N259	N	0.826319	0.929650	0.524273
	N260	N	0.471581	0.198485	0.900743
	N261	N	0.545322	0.197953	0.073192
	N262	N	0.471264	0.839066	0.073528
	N263	N	0.544788	0.839865	0.900854
	N264	N	0.469787	0.933252	0.163702
	N265	N	0.544851	0.104644	0.166278
	N266	N	0.471336	0.106349	0.807513
	N267	N	0.544983	0.934535	0.809554
	N268	N	0.918768	0.196117	0.451990
	N269	N	0.091800	0.195887	0.525130
	N270	N	0.091865	0.837891	0.452587
	N271	N	0.920017	0.839186	0.526120
	N272	N	0.185774	0.481885	0.904455
	N273	N	0.188609	0.555470	0.078343
	N274	N	0.826977	0.482052	0.075275
	N275	N	0.828731	0.556155	0.903635
	O276	O	-0.078756	-0.136783	1.044570
	H277	H	-0.067157	-0.131828	1.053359
	H278	H	-0.083018	-0.141566	1.059111
	O279	O	0.926171	-0.043522	1.041189
	H280	H	0.930717	-0.034228	1.043548
	H281	H	0.938741	-0.031934	1.055520
	O282	O	1.038912	1.047237	0.038488
	H283	H	1.030052	1.046777	0.037789
	H284	H	1.034259	1.052307	0.044398
	O285	O	0.986634	-0.001652	0.880566
	H286	H	0.982929	-0.019780	0.875623
	H287	H	0.995335	0.008232	0.877064
	O288	O	0.440807	0.473040	0.559036
	H289	H	0.450131	0.472267	0.559830
	H290	H	0.436696	0.468927	0.562253
	O291	O	0.500491	0.462398	0.457438
	H292	H	0.490766	0.464635	0.456928
	H293	H	0.500747	0.467058	0.467259
	O294	O	0.440071	0.605192	0.455731
	H295	H	0.448589	0.596586	0.453588
	H296	H	0.438711	0.610543	0.462637
	O297	O	0.001467	0.119588	0.967075
	H298	H	-0.001382	0.124432	0.975336
	H299	H	-0.000248	0.124461	0.973934
	O300	O	0.434288	0.377508	0.333630
	H301	H	0.434260	0.386579	0.332208
	H302	H	0.447364	0.377622	0.334571
	O303	O	0.530695	0.583295	0.496961
	H304	H	0.521684	0.572342	0.494572
	H305	H	0.536750	0.585353	0.497312
	O306	O	0.172062	1.033093	0.906371
	H307	H	0.165888	1.032398	0.910746
	H308	H	0.156944	1.021779	0.907048
	O309	O	0.565406	0.515828	0.416607
	H310	H	0.563326	0.510269	0.421100
	H311	H	0.552646	0.516493	0.412721
	O312	O	-0.474694	0.428063	0.526736
	H313	H	-0.490314	0.432224	0.515086
	H314	H	-0.485673	0.423324	0.525757
	O315	O	0.517197	-0.544556	-0.441664
	H316	H	0.520628	-0.543555	-0.447198
	H317	H	0.510314	-0.551290	-0.442469
	O318	O	1.112355	0.875079	1.032389
	H319	H	1.115837	0.879941	1.028899
	H320	H	1.117368	0.867760	1.040197
	O321	O	-0.051369	-0.030554	1.108870
	H322	H	-0.056231	-0.026101	1.116032
	H323	H	-0.048779	-0.029975	1.098332
	O324	O	0.393449	0.455661	0.542014
	H325	H	0.390917	0.461398	0.545227
	H326	H	0.381047	0.457514	0.552224
	O327	O	-0.050754	0.086270	-0.088202
	H328	H	-0.060011	0.085663	-0.096980
	H329	H	-0.047653	0.089099	-0.089059
	O330	O	1.079050	1.030329	0.040177
	H331	H	1.081215	1.046577	0.025337
	H332	H	1.082860	1.017540	0.023141
	O333	O	-0.005077	1.095995	0.911075
	H334	H	-0.016272	1.087544	0.910466
	H335	H	-0.005748	1.089275	0.917345
	O336	O	-0.000443	-0.052526	0.025821
	H337	H	0.001292	-0.052214	0.015549
	H338	H	-0.000120	-0.061719	0.026067
	O339	O	0.397754	0.515812	0.529868
	H340	H	0.412509	0.519450	0.530808
	H341	H	0.390480	0.517965	0.545986
	O342	O	0.977626	1.145353	1.001405
	H343	H	0.983850	1.142344	1.004077
	H344	H	0.966544	1.152495	0.999751
	O345	O	1.049039	0.998663	0.009334
	H346	H	1.047805	0.994983	0.001064
	H347	H	1.053806	0.998622	0.010041
	O348	O	0.552902	0.541657	0.537484
	H349	H	0.564208	0.537300	0.532467
	H350	H	0.572068	0.542375	0.528996
	O351	O	1.030676	0.194358	0.036074
	H352	H	1.041145	0.199162	0.027336
	H353	H	1.041854	0.204399	0.046183
	O354	O	0.599120	0.523094	0.467668
	H355	H	0.600310	0.523998	0.461591
	H356	H	0.602155	0.527869	0.463251
	O357	O	1.042714	0.104069	2.076100
	H358	H	1.029883	0.115008	2.069309
	H359	H	1.051654	0.111633	2.079118
	O360	O	0.124211	-0.022046	-0.149268
	H361	H	0.117944	-0.028032	-0.145662
	H362	H	0.121308	-0.045852	-0.150736
	O363	O	0.424349	0.456463	0.461505
	H364	H	0.420427	0.452959	0.474338
	H365	H	0.418894	0.449913	0.467536
	O366	O	1.005536	1.103581	1.043101
	H367	H	1.024860	1.104010	1.054059
	H368	H	1.007689	1.114546	1.044606
	O369	O	1.011849	0.047347	1.081790
	H370	H	1.012660	0.052943	1.078114
	H371	H	1.024646	0.060725	1.094660
	O372	O	-0.100047	0.026427	-0.128960
	H373	H	-0.108622	0.027901	-0.120511
	H374	H	-0.098362	0.026976	-0.117933
	O375	O	0.416913	-0.572375	0.574805
	H376	H	0.421287	-0.576886	0.582223
	H377	H	0.418295	-0.563777	0.576749
	O378	O	1.042238	-0.112647	0.886171
	H379	H	1.037841	-0.119138	0.893995
	H380	H	1.036264	-0.118098	0.894118
	O381	O	0.523157	0.531673	0.505031
	H382	H	0.516683	0.535765	0.507777
	H383	H	0.525179	0.522664	0.507235
