data_Molecule from HDF5

_cell_length_a		16.328582
_cell_length_b		16.306664
_cell_length_c		16.290311
_cell_angle_alpha	90.057050
_cell_angle_beta	90.024584
_cell_angle_gamma	90.034901
_symmetry_space_group_name_H-M	'P 1'
_symmetry_Int_Tables_number		1

loop_
	_symmetry_equiv_pos_as_xyz
	x,y,z

loop_
	_atom_site_label
	_atom_site_type_symbol
	_atom_site_fract_x
	_atom_site_fract_y
	_atom_site_fract_z
	H0	H	0.402112	0.835762	0.713350
	H1	H	0.598390	0.163688	0.713845
	H2	H	0.596801	0.835438	0.286241
	H3	H	0.402040	0.163664	0.284819
	H4	H	0.714288	0.402225	0.836416
	H5	H	0.715276	0.598633	0.163184
	H6	H	0.286429	0.597352	0.836304
	H7	H	0.285360	0.401580	0.163263
	H8	H	0.836547	0.714053	0.401790
	H9	H	0.163085	0.715484	0.599070
	H10	H	0.836010	0.285347	0.599031
	H11	H	0.163271	0.285944	0.402915
	H12	H	0.836310	0.402432	0.714704
	H13	H	0.163747	0.597664	0.714640
	H14	H	0.836673	0.596423	0.286190
	H15	H	0.163915	0.402796	0.287516
	H16	H	0.402139	0.713905	0.836092
	H17	H	0.598298	0.714406	0.163754
	H18	H	0.598102	0.285670	0.836450
	H19	H	0.401782	0.285494	0.163805
	H20	H	0.714171	0.836148	0.402150
	H21	H	0.715351	0.162704	0.598870
	H22	H	0.285122	0.836418	0.597191
	H23	H	0.285011	0.163955	0.401125
	H24	H	0.903301	0.335968	0.212934
	H25	H	0.098138	0.663931	0.215189
	H26	H	0.098513	0.336429	0.785945
	H27	H	0.902610	0.663734	0.786098
	H28	H	0.214167	0.901240	0.336144
	H29	H	0.215087	0.098822	0.663477
	H30	H	0.785721	0.097719	0.336062
	H31	H	0.784605	0.901087	0.663775
	H32	H	0.336470	0.214660	0.901128
	H33	H	0.663721	0.214357	0.097706
	H34	H	0.336582	0.785951	0.096658
	H35	H	0.663692	0.786424	0.902216
	H36	H	0.335948	0.901912	0.213177
	H37	H	0.663698	0.098412	0.214209
	H38	H	0.336764	0.097123	0.784903
	H39	H	0.664271	0.903145	0.786117
	H40	H	0.902491	0.213560	0.336050
	H41	H	0.097564	0.213861	0.664104
	H42	H	0.097510	0.785014	0.336884
	H43	H	0.901698	0.785775	0.664602
	H44	H	0.214387	0.336846	0.902533
	H45	H	0.213793	0.664171	0.098065
	H46	H	0.784654	0.336833	0.098786
	H47	H	0.784998	0.662849	0.901211
	H48	H	0.405187	0.114657	0.585511
	H49	H	0.587052	0.887761	0.583752
	H50	H	0.598810	0.116939	0.407750
	H51	H	0.408192	0.883349	0.402634
	H52	H	0.598040	0.406366	0.118285
	H53	H	0.593666	0.602485	0.881018
	H54	H	0.408938	0.601003	0.117644
	H55	H	0.406241	0.408452	0.883884
	H56	H	0.113169	0.588204	0.410264
	H57	H	0.883450	0.590148	0.598305
	H58	H	0.116100	0.400366	0.589335
	H59	H	0.882357	0.409389	0.397491
	H60	H	0.113232	0.412594	0.590354
	H61	H	0.882716	0.598141	0.594307
	H62	H	0.117524	0.593258	0.402725
	H63	H	0.881252	0.397689	0.408547
	H64	H	0.399973	0.591672	0.118361
	H65	H	0.600786	0.588173	0.882635
	H66	H	0.591994	0.410773	0.115112
	H67	H	0.407673	0.405945	0.883884
	H68	H	0.591646	0.117009	0.400943
	H69	H	0.603597	0.880816	0.591083
	H70	H	0.401000	0.118585	0.597637
	H71	H	0.407978	0.886312	0.409328
	H72	H	0.900820	0.618390	0.095752
	H73	H	0.090795	0.383347	0.099287
	H74	H	0.099988	0.617366	0.909387
	H75	H	0.905465	0.382098	0.903766
	H76	H	0.090050	0.899316	0.617938
	H77	H	0.093135	0.106356	0.379735
	H78	H	0.905585	0.105385	0.619803
	H79	H	0.910191	0.906799	0.385914
	H80	H	0.618085	0.091636	0.897566
	H81	H	0.386231	0.089673	0.087783
	H82	H	0.617028	0.897435	0.087752
	H83	H	0.384526	0.906483	0.906869
	H84	H	0.612507	0.915954	0.088977
	H85	H	0.383273	0.090603	0.097371
	H86	H	0.617333	0.101881	0.909690
	H87	H	0.383938	0.907514	0.905317
	H88	H	0.896383	0.085875	0.617066
	H89	H	0.104528	0.086757	0.382653
	H90	H	0.102229	0.909275	0.618548
	H91	H	0.905487	0.902380	0.382233
	H92	H	0.090796	0.617405	0.900634
	H93	H	0.091750	0.386319	0.088890
	H94	H	0.912645	0.615784	0.098599
	H95	H	0.912201	0.384839	0.907247
	H96	H	0.413777	0.114937	0.596130
	H97	H	0.587708	0.882400	0.602398
	H98	H	0.590100	0.113869	0.410125
	H99	H	0.401879	0.882596	0.406705
	H100	H	0.591017	0.402846	0.116058
	H101	H	0.585016	0.589680	0.887403
	H102	H	0.411925	0.588612	0.113735
	H103	H	0.404794	0.405665	0.882823
	H104	H	0.116616	0.597918	0.411731
	H105	H	0.886409	0.591300	0.589683
	H106	H	0.117781	0.406269	0.600748
	H107	H	0.887053	0.412146	0.412840
	H108	H	0.908285	0.614099	0.086276
	H109	H	0.100346	0.381274	0.093986
	H110	H	0.088659	0.613401	0.912314
	H111	H	0.905276	0.384357	0.911403
	H112	H	0.088390	0.913870	0.612527
	H113	H	0.082453	0.087962	0.388404
	H114	H	0.917040	0.088892	0.612490
	H115	H	0.903835	0.909555	0.384518
	H116	H	0.612177	0.087188	0.911370
	H117	H	0.383439	0.099012	0.091313
	H118	H	0.619428	0.906421	0.103900
	H119	H	0.383357	0.905019	0.905366
	C120	C	0.378636	0.007695	0.620938
	C121	C	0.621298	0.991652	0.621006
	C122	C	0.621407	0.007717	0.378185
	C123	C	0.377797	0.992423	0.377866
	C124	C	0.621704	0.378641	0.008348
	C125	C	0.621791	0.621773	0.991635
	C126	C	0.378838	0.621621	0.008259
	C127	C	0.378333	0.378615	0.991742
	C128	C	0.007948	0.621233	0.379322
	C129	C	0.991949	0.621813	0.622452
	C130	C	0.007649	0.378208	0.621978
	C131	C	0.991728	0.378161	0.378500
	C132	C	0.878887	0.508188	0.121583
	C133	C	0.122250	0.491909	0.122139
	C134	C	0.121934	0.508336	0.878714
	C135	C	0.878790	0.491642	0.878758
	C136	C	0.121393	0.878787	0.508308
	C137	C	0.121561	0.121988	0.491773
	C138	C	0.878433	0.121447	0.508312
	C139	C	0.878043	0.878144	0.492430
	C140	C	0.507938	0.121535	0.877638
	C141	C	0.492281	0.121397	0.120863
	C142	C	0.507980	0.878376	0.121221
	C143	C	0.492203	0.878186	0.877778
	C144	C	0.381518	0.884545	0.675464
	C145	C	0.618613	0.114777	0.675850
	C146	C	0.617823	0.884331	0.324133
	C147	C	0.381132	0.115102	0.322851
	C148	C	0.676437	0.381511	0.885113
	C149	C	0.676608	0.618810	0.114903
	C150	C	0.323990	0.618416	0.885098
	C151	C	0.323386	0.381197	0.114874
	C152	C	0.885203	0.676157	0.381412
	C153	C	0.114592	0.677247	0.619960
	C154	C	0.884491	0.324074	0.618656
	C155	C	0.114736	0.324072	0.382213
	C156	C	0.884762	0.381498	0.676711
	C157	C	0.114974	0.618950	0.677258
	C158	C	0.885373	0.618095	0.323747
	C159	C	0.114920	0.381731	0.324541
	C160	C	0.381500	0.676282	0.885019
	C161	C	0.618674	0.676439	0.114987
	C162	C	0.618754	0.323847	0.885118
	C163	C	0.381009	0.323400	0.114733
	C164	C	0.676246	0.884781	0.381395
	C165	C	0.676755	0.114418	0.618731
	C166	C	0.323369	0.884729	0.617954
	C167	C	0.323073	0.115261	0.380578
	C168	C	0.882098	0.384899	0.175677
	C169	C	0.119144	0.615192	0.177106
	C170	C	0.118822	0.385120	0.823962
	C171	C	0.881771	0.614863	0.824008
	C172	C	0.175974	0.880917	0.385100
	C173	C	0.176639	0.119085	0.614945
	C174	C	0.823831	0.118333	0.384884
	C175	C	0.823169	0.881241	0.615492
	C176	C	0.385157	0.176348	0.880533
	C177	C	0.614853	0.176693	0.118444
	C178	C	0.385047	0.823769	0.117710
	C179	C	0.614981	0.823918	0.881265
	C180	C	0.384972	0.881274	0.175549
	C181	C	0.615047	0.118776	0.175972
	C182	C	0.385221	0.118217	0.822816
	C183	C	0.615215	0.881866	0.823578
	C184	C	0.881738	0.175910	0.384871
	C185	C	0.118486	0.176368	0.615140
	C186	C	0.118041	0.823327	0.385364
	C187	C	0.880806	0.823683	0.615689
	C188	C	0.176630	0.385386	0.881560
	C189	C	0.176523	0.615278	0.118963
	C190	C	0.823495	0.385326	0.118752
	C191	C	0.823607	0.614498	0.881289
	C192	C	0.400311	0.093760	0.599306
	C193	C	0.599341	0.905917	0.598917
	C194	C	0.599816	0.093767	0.399781
	C195	C	0.399482	0.906250	0.399806
	C196	C	0.600084	0.400441	0.094198
	C197	C	0.599833	0.599719	0.905883
	C198	C	0.400581	0.600147	0.094362
	C199	C	0.399880	0.400313	0.905832
	C200	C	0.093645	0.599544	0.401826
	C201	C	0.906381	0.599730	0.600518
	C202	C	0.093454	0.400087	0.600053
	C203	C	0.905850	0.400020	0.399886
	C204	C	0.900764	0.593930	0.099682
	C205	C	0.100667	0.405858	0.100426
	C206	C	0.099780	0.594183	0.900811
	C207	C	0.901025	0.405914	0.900792
	C208	C	0.099877	0.901079	0.594343
	C209	C	0.099806	0.100103	0.405793
	C210	C	0.899851	0.099873	0.594296
	C211	C	0.900032	0.899761	0.406410
	C212	C	0.593670	0.099915	0.899603
	C213	C	0.406459	0.099533	0.098767
	C214	C	0.593979	0.900084	0.099808
	C215	C	0.406099	0.899876	0.899359
	Zn216	Zn	0.500164	-0.000319	0.749413
	Zn217	Zn	0.500017	-0.000071	0.249397
	Zn218	Zn	0.749882	0.500033	-0.000211
	Zn219	Zn	0.250108	0.500493	0.000210
	Zn220	Zn	-0.000381	0.750205	0.501051
	Zn221	Zn	-0.000390	0.250015	0.500237
	Zn222	Zn	0.000206	0.499579	0.750506
	Zn223	Zn	0.000316	0.499668	0.250065
	Zn224	Zn	0.499805	0.750092	-0.000204
	Zn225	Zn	0.499720	0.250609	-0.000216
	Zn226	Zn	0.750322	-0.000215	0.500057
	Zn227	Zn	0.249661	0.000259	0.499763
	N228	N	0.415224	0.961922	0.677238
	N229	N	0.584798	0.037367	0.677224
	N230	N	0.584504	0.961779	0.321940
	N231	N	0.414401	0.037628	0.321168
	N232	N	0.678298	0.414828	0.962663
	N233	N	0.678725	0.585579	0.037351
	N234	N	0.322443	0.585059	0.962655
	N235	N	0.321468	0.414763	0.037425
	N236	N	0.962443	0.678199	0.415195
	N237	N	0.037170	0.679156	0.586935
	N238	N	0.962044	0.321791	0.585597
	N239	N	0.037251	0.321824	0.415131
	N240	N	0.962314	0.414506	0.678753
	N241	N	0.037923	0.584786	0.678716
	N242	N	0.962674	0.584691	0.322352
	N243	N	0.037386	0.414678	0.322292
	N244	N	0.414810	0.678450	0.962596
	N245	N	0.585172	0.678264	0.037526
	N246	N	0.585243	0.321979	0.962616
	N247	N	0.414652	0.321781	0.037325
	N248	N	0.678720	0.962618	0.414193
	N249	N	0.678457	0.036947	0.585302
	N250	N	0.321474	0.962293	0.584775
	N251	N	0.321247	0.037891	0.414195
	N252	N	0.915864	0.462218	0.177394
	N253	N	0.085921	0.537719	0.179036
	N254	N	0.085712	0.462680	0.821836
	N255	N	0.915389	0.537499	0.822223
	N256	N	0.177945	0.914753	0.462446
	N257	N	0.178756	0.086061	0.537258
	N258	N	0.821937	0.084981	0.462373
	N259	N	0.821459	0.914385	0.537771
	N260	N	0.462477	0.178507	0.914108
	N261	N	0.537574	0.178226	0.084601
	N262	N	0.462523	0.821897	0.084686
	N263	N	0.537326	0.821577	0.914119
	N264	N	0.462376	0.914731	0.177606
	N265	N	0.537869	0.085185	0.177530
	N266	N	0.462495	0.084806	0.821311
	N267	N	0.537925	0.915117	0.821567
	N268	N	0.915062	0.177933	0.462506
	N269	N	0.085101	0.178377	0.537605
	N270	N	0.084966	0.821748	0.463117
	N271	N	0.914241	0.821609	0.538235
	N272	N	0.178342	0.462822	0.914916
	N273	N	0.178541	0.537687	0.085528
	N274	N	0.821419	0.463006	0.085714
	N275	N	0.821825	0.537037	0.914549
