data_Molecule from HDF5

_cell_length_a		16.633846
_cell_length_b		16.608406
_cell_length_c		16.707389
_cell_angle_alpha	90.156099
_cell_angle_beta	89.973894
_cell_angle_gamma	89.900073
_symmetry_space_group_name_H-M	'P 1'
_symmetry_Int_Tables_number		1

loop_
	_symmetry_equiv_pos_as_xyz
	x,y,z

loop_
	_atom_site_label
	_atom_site_type_symbol
	_atom_site_fract_x
	_atom_site_fract_y
	_atom_site_fract_z
	H0	H	0.403021	0.844816	0.710928
	H1	H	0.615259	0.155039	0.712699
	H2	H	0.618864	0.848514	0.263073
	H3	H	0.401498	0.155195	0.269479
	H4	H	0.734912	0.388355	0.839329
	H5	H	0.730950	0.608057	0.143019
	H6	H	0.282089	0.608487	0.836757
	H7	H	0.284706	0.395640	0.144359
	H8	H	0.852036	0.722272	0.385956
	H9	H	0.161889	0.723169	0.598403
	H10	H	0.853170	0.278019	0.594806
	H11	H	0.165054	0.283367	0.388131
	H12	H	0.853007	0.392571	0.712680
	H13	H	0.160387	0.607636	0.715293
	H14	H	0.852726	0.608376	0.268486
	H15	H	0.163386	0.396912	0.270010
	H16	H	0.398202	0.724367	0.836603
	H17	H	0.614717	0.723802	0.142808
	H18	H	0.616482	0.274816	0.836785
	H19	H	0.401359	0.278893	0.143891
	H20	H	0.734567	0.848152	0.378592
	H21	H	0.729386	0.156008	0.595581
	H22	H	0.288551	0.843438	0.594440
	H23	H	0.286226	0.154462	0.385453
	H24	H	0.901692	0.345116	0.211942
	H25	H	0.113669	0.655058	0.212279
	H26	H	0.114537	0.344767	0.766875
	H27	H	0.895314	0.651364	0.764302
	H28	H	0.229066	0.895245	0.336034
	H29	H	0.228315	0.103789	0.646275
	H30	H	0.786665	0.106375	0.335103
	H31	H	0.784608	0.895615	0.643776
	H32	H	0.351507	0.220427	0.885604
	H33	H	0.660592	0.223155	0.095684
	H34	H	0.354028	0.775742	0.098383
	H35	H	0.662830	0.776521	0.884087
	H36	H	0.353942	0.893266	0.213425
	H37	H	0.659861	0.108836	0.213433
	H38	H	0.352029	0.103682	0.769558
	H39	H	0.663283	0.892982	0.768235
	H40	H	0.904717	0.220344	0.333804
	H41	H	0.113791	0.222530	0.645285
	H42	H	0.113055	0.778456	0.335912
	H43	H	0.898433	0.776781	0.643419
	H44	H	0.229043	0.344687	0.883851
	H45	H	0.226688	0.656109	0.093600
	H46	H	0.786476	0.344736	0.095698
	H47	H	0.781709	0.652888	0.882286
	H48	H	0.417290	0.113859	0.582527
	H49	H	0.599453	0.888592	0.579722
	H50	H	0.593952	0.114087	0.395289
	H51	H	0.416580	0.887464	0.402490
	H52	H	0.592339	0.418102	0.096664
	H53	H	0.593652	0.589492	0.878646
	H54	H	0.419591	0.585590	0.098978
	H55	H	0.421018	0.411077	0.880172
	H56	H	0.119324	0.588590	0.398937
	H57	H	0.896179	0.587161	0.581061
	H58	H	0.118232	0.412734	0.579062
	H59	H	0.893811	0.409233	0.397184
	H60	H	0.118499	0.412523	0.580085
	H61	H	0.896781	0.590702	0.575303
	H62	H	0.118339	0.591734	0.402709
	H63	H	0.896149	0.408618	0.403060
	H64	H	0.420457	0.590312	0.098927
	H65	H	0.596796	0.583821	0.879318
	H66	H	0.590205	0.406083	0.100796
	H67	H	0.415455	0.406364	0.876841
	H68	H	0.587512	0.108007	0.405669
	H69	H	0.593109	0.890282	0.579036
	H70	H	0.421527	0.110791	0.581277
	H71	H	0.422618	0.888270	0.396185
	H72	H	0.919022	0.612852	0.082982
	H73	H	0.090567	0.388990	0.081410
	H74	H	0.089170	0.608220	0.903414
	H75	H	0.919660	0.387344	0.899659
	H76	H	0.087666	0.910745	0.599396
	H77	H	0.101704	0.090119	0.378457
	H78	H	0.917698	0.089091	0.600851
	H79	H	0.923784	0.909295	0.380382
	H80	H	0.616723	0.083191	0.903852
	H81	H	0.395223	0.086461	0.083565
	H82	H	0.617388	0.912933	0.073137
	H83	H	0.398403	0.917554	0.897525
	H84	H	0.616770	0.916299	0.074954
	H85	H	0.392423	0.094101	0.078922
	H86	H	0.620752	0.087465	0.896526
	H87	H	0.393531	0.906712	0.896244
	H88	H	0.921393	0.086495	0.597704
	H89	H	0.098865	0.088420	0.380531
	H90	H	0.102858	0.902154	0.606144
	H91	H	0.918700	0.913336	0.379775
	H92	H	0.097671	0.609902	0.905457
	H93	H	0.097609	0.389172	0.075946
	H94	H	0.921067	0.609781	0.078668
	H95	H	0.925142	0.391220	0.902311
	H96	H	0.417452	0.111150	0.578005
	H97	H	0.596698	0.890161	0.573723
	H98	H	0.601102	0.111041	0.406794
	H99	H	0.424608	0.890953	0.403702
	H100	H	0.601643	0.412211	0.102946
	H101	H	0.590909	0.584855	0.882121
	H102	H	0.416441	0.588825	0.100600
	H103	H	0.413811	0.414014	0.878409
	H104	H	0.117192	0.586964	0.403080
	H105	H	0.899198	0.584185	0.575474
	H106	H	0.118905	0.412032	0.578804
	H107	H	0.896820	0.414278	0.399755
	H108	H	0.915547	0.612492	0.078255
	H109	H	0.098773	0.387351	0.084357
	H110	H	0.093966	0.612600	0.897371
	H111	H	0.919529	0.389136	0.906777
	H112	H	0.103864	0.920505	0.601172
	H113	H	0.097907	0.092540	0.379157
	H114	H	0.921855	0.091946	0.599616
	H115	H	0.924520	0.916020	0.382464
	H116	H	0.619247	0.092275	0.904844
	H117	H	0.397449	0.087079	0.074493
	H118	H	0.617994	0.913072	0.077127
	H119	H	0.398121	0.910133	0.906436
	C120	C	0.387647	0.008312	0.611342
	C121	C	0.629244	0.992476	0.610751
	C122	C	0.629072	0.009749	0.368090
	C123	C	0.387704	0.991353	0.368922
	C124	C	0.628775	0.377966	-0.001180
	C125	C	0.627501	0.620187	0.981389
	C126	C	0.385157	0.621926	-0.001805
	C127	C	0.384853	0.378753	0.981065
	C128	C	0.015776	0.621822	0.369104
	C129	C	0.998963	0.621009	0.611420
	C130	C	0.016002	0.378899	0.611648
	C131	C	0.999380	0.380213	0.369065
	C132	C	0.885945	0.508824	0.111991
	C133	C	0.128136	0.491594	0.111734
	C134	C	0.127173	0.507844	0.869380
	C135	C	0.885957	0.490601	0.868998
	C136	C	0.129694	0.878578	0.499477
	C137	C	0.130950	0.122413	0.482023
	C138	C	0.887792	0.121552	0.497437
	C139	C	0.887195	0.879732	0.481996
	C140	C	0.516089	0.120386	0.869273
	C141	C	0.497671	0.122306	0.111487
	C142	C	0.515902	0.879772	0.109945
	C143	C	0.499319	0.878026	0.867638
	C144	C	0.385289	0.891173	0.670869
	C145	C	0.632727	0.108627	0.671985
	C146	C	0.635349	0.894582	0.304525
	C147	C	0.383762	0.108290	0.309236
	C148	C	0.692632	0.372174	0.884402
	C149	C	0.689512	0.624861	0.096809
	C150	C	0.323030	0.625952	0.882915
	C151	C	0.324836	0.376985	0.097821
	C152	C	0.898917	0.682198	0.367434
	C153	C	0.115118	0.682660	0.616113
	C154	C	0.899690	0.318030	0.613614
	C155	C	0.117760	0.322472	0.368829
	C156	C	0.899308	0.375315	0.671858
	C157	C	0.114533	0.625076	0.673889
	C158	C	0.899425	0.625438	0.308774
	C159	C	0.116850	0.378987	0.310156
	C160	C	0.380874	0.683482	0.882831
	C161	C	0.631778	0.682679	0.096858
	C162	C	0.633501	0.315882	0.883369
	C163	C	0.382784	0.319192	0.097725
	C164	C	0.692936	0.894609	0.361975
	C165	C	0.689771	0.108979	0.613754
	C166	C	0.328398	0.890707	0.612762
	C167	C	0.326591	0.107931	0.367214
	C168	C	0.883664	0.391977	0.171850
	C169	C	0.131142	0.608755	0.171720
	C170	C	0.131708	0.391399	0.807818
	C171	C	0.879250	0.605653	0.806011
	C172	C	0.189092	0.876511	0.382496
	C173	C	0.189275	0.123349	0.599187
	C174	C	0.827208	0.124386	0.381300
	C175	C	0.825103	0.877188	0.597585
	C176	C	0.398321	0.180322	0.867166
	C177	C	0.614166	0.183031	0.114043
	C178	C	0.400258	0.817102	0.115369
	C179	C	0.616239	0.817196	0.865691
	C180	C	0.400166	0.875380	0.172553
	C181	C	0.613794	0.126561	0.172599
	C182	C	0.398617	0.122259	0.809712
	C183	C	0.616542	0.874854	0.807998
	C184	C	0.886275	0.180828	0.380568
	C185	C	0.132497	0.182439	0.598596
	C186	C	0.131544	0.818570	0.382705
	C187	C	0.882067	0.818524	0.597618
	C188	C	0.188584	0.391284	0.866161
	C189	C	0.187508	0.608987	0.112942
	C190	C	0.826224	0.391589	0.114164
	C191	C	0.822655	0.606180	0.864623
	C192	C	0.411852	0.090520	0.587387
	C193	C	0.603644	0.910884	0.584820
	C194	C	0.601844	0.090170	0.394998
	C195	C	0.413949	0.909965	0.393739
	C196	C	0.602139	0.404596	0.079313
	C197	C	0.601323	0.593601	0.901008
	C198	C	0.411331	0.595667	0.078703
	C199	C	0.409741	0.403379	0.899656
	C200	C	0.097139	0.596273	0.394423
	C201	C	0.918352	0.594972	0.585025
	C202	C	0.097521	0.404976	0.586534
	C203	C	0.917224	0.403925	0.393028
	C204	C	0.911037	0.590579	0.086862
	C205	C	0.102797	0.409859	0.087428
	C206	C	0.100819	0.589190	0.894787
	C207	C	0.913461	0.410145	0.895528
	C208	C	0.104957	0.903807	0.580906
	C209	C	0.106513	0.097344	0.400272
	C210	C	0.913113	0.096325	0.578164
	C211	C	0.914430	0.905608	0.401744
	C212	C	0.597382	0.094993	0.894452
	C213	C	0.416197	0.096516	0.086203
	C214	C	0.596266	0.906449	0.082895
	C215	C	0.417984	0.904046	0.892960
	Zn216	Zn	0.508735	0.000068	0.740086
	Zn217	Zn	0.507844	0.000680	0.239467
	Zn218	Zn	0.757573	0.499284	-0.009244
	Zn219	Zn	0.256049	0.500372	-0.010106
	Zn220	Zn	0.007845	0.750433	0.491383
	Zn221	Zn	0.008627	0.250896	0.489726
	Zn222	Zn	0.006904	0.499683	0.740200
	Zn223	Zn	0.007017	0.500763	0.239914
	Zn224	Zn	0.507213	0.750451	-0.010628
	Zn225	Zn	0.506459	0.249946	-0.010407
	Zn226	Zn	0.757537	0.000829	0.489165
	Zn227	Zn	0.259134	-0.000459	0.490468
	N228	N	0.421646	0.965306	0.670170
	N229	N	0.595923	0.034858	0.670309
	N230	N	0.596104	0.967254	0.307963
	N231	N	0.421335	0.034748	0.310237
	N232	N	0.689805	0.410271	0.957331
	N233	N	0.687188	0.586470	0.023978
	N234	N	0.325520	0.588291	0.955881
	N235	N	0.325908	0.413269	0.024163
	N236	N	0.972634	0.680440	0.404316
	N237	N	0.042138	0.680392	0.577990
	N238	N	0.973494	0.320186	0.576974
	N239	N	0.043693	0.322844	0.404757
	N240	N	0.973038	0.412268	0.670831
	N241	N	0.041175	0.587489	0.671264
	N242	N	0.973243	0.588661	0.309677
	N243	N	0.042182	0.413978	0.309942
	N244	N	0.418831	0.681378	0.955667
	N245	N	0.593769	0.679780	0.024068
	N246	N	0.594341	0.319513	0.955546
	N247	N	0.419492	0.320186	0.024118
	N248	N	0.689033	0.967235	0.400957
	N249	N	0.687715	0.035502	0.576143
	N250	N	0.329355	0.964701	0.576599
	N251	N	0.328873	0.034071	0.403711
	N252	N	0.920187	0.465993	0.170690
	N253	N	0.094794	0.534731	0.171118
	N254	N	0.094261	0.465122	0.809541
	N255	N	0.918040	0.532664	0.808547
	N256	N	0.188431	0.912876	0.456343
	N257	N	0.188795	0.086908	0.525270
	N258	N	0.827851	0.088302	0.454929
	N259	N	0.827870	0.914397	0.524398
	N260	N	0.472543	0.179641	0.903117
	N261	N	0.540646	0.180658	0.076857
	N262	N	0.473103	0.819874	0.076868
	N263	N	0.542128	0.818707	0.901772
	N264	N	0.473177	0.913682	0.169509
	N265	N	0.540172	0.089419	0.171147
	N266	N	0.472905	0.086094	0.810479
	N267	N	0.542637	0.911841	0.808956
	N268	N	0.923094	0.179688	0.453920
	N269	N	0.097206	0.182098	0.524469
	N270	N	0.095579	0.819523	0.456562
	N271	N	0.920190	0.820073	0.524858
	N272	N	0.185970	0.464741	0.903749
	N273	N	0.186015	0.535039	0.076616
	N274	N	0.827597	0.465397	0.077634
	N275	N	0.826542	0.533374	0.903102
	O276	O	-0.219062	1.040094	0.078860
	H277	H	-0.227321	1.029480	0.067028
	H278	H	-0.214597	1.039264	0.077657
	O279	O	0.511979	0.340613	0.447859
	H280	H	0.502455	0.330202	0.465563
	H281	H	0.517922	0.333530	0.449928
	O282	O	0.942199	0.230090	1.015103
	H283	H	0.949347	0.230887	1.032417
	H284	H	0.963885	0.226511	1.016986
	O285	O	0.532434	0.453358	0.320026
	H286	H	0.543676	0.442730	0.311844
	H287	H	0.513229	0.450377	0.313303
	O288	O	0.369710	0.626909	0.489276
	H289	H	0.357261	0.605217	0.497046
	H290	H	0.378500	0.630347	0.471681
	O291	O	0.727787	0.479425	0.265301
	H292	H	0.735615	0.447172	0.263620
	H293	H	0.743160	0.462879	0.253363
	O294	O	1.063743	0.203341	0.937416
	H295	H	1.052527	0.201602	0.913379
	H296	H	1.060666	0.189695	0.936273
	O297	O	0.282245	0.527758	0.268644
	H298	H	0.279683	0.560444	0.260805
	H299	H	0.267880	0.545306	0.246426
	O300	O	-0.215451	-0.057157	0.920831
	H301	H	-0.213812	-0.068741	0.914771
	H302	H	-0.212770	-0.065177	0.919490
	O303	O	0.721678	0.521526	0.715113
	H304	H	0.745491	0.521333	0.733338
	H305	H	0.725571	0.516175	0.692618
	O306	O	0.551683	0.592725	0.598708
	H307	H	0.551638	0.593416	0.593364
	H308	H	0.550232	0.586852	0.603685
	O309	O	0.319734	0.687167	0.679577
	H310	H	0.324599	0.657756	0.660272
	H311	H	0.344760	0.668561	0.670108
	O312	O	0.534299	0.723710	0.713879
	H313	H	0.565657	0.715186	0.717774
	H314	H	0.538123	0.740298	0.739988
	O315	O	0.798000	0.793320	1.193564
	H316	H	0.790465	0.799813	1.185232
	H317	H	0.796027	0.790811	1.175559
	O318	O	0.566689	0.271244	0.557598
	H319	H	0.557303	0.265887	0.576803
	H320	H	0.589257	0.280526	0.562226
	O321	O	-0.175036	0.813419	0.807634
	H322	H	-0.188111	0.811759	0.795186
	H323	H	-0.161458	0.798144	0.793484
	O324	O	1.017206	0.943802	0.016199
	H325	H	1.024064	0.936248	0.027931
	H326	H	1.017096	0.935366	0.020594
	O327	O	-0.019611	-0.222175	1.210098
	H328	H	-0.046104	-0.228546	1.209938
	H329	H	-0.021871	-0.242459	1.221848
	O330	O	0.723019	0.587943	0.401694
	H331	H	0.714656	0.587567	0.404023
	H332	H	0.712733	0.580603	0.391450
	O333	O	0.541141	0.285293	0.269457
	H334	H	0.529581	0.266963	0.261301
	H335	H	0.547179	0.279119	0.275395
	O336	O	0.457512	0.609742	0.269204
	H337	H	0.471118	0.624535	0.253341
	H338	H	0.467956	0.603592	0.257739
	O339	O	1.035256	-0.101011	0.870872
	H340	H	1.040236	-0.107800	0.869139
	H341	H	1.035790	-0.102291	0.856538
	O342	O	0.246823	-0.031896	0.012503
	H343	H	0.248058	-0.037434	0.018364
	H344	H	0.244778	-0.043611	0.022835
	O345	O	0.170502	0.842450	1.186920
	H346	H	0.140029	0.841240	1.176438
	H347	H	0.163469	0.863159	1.172884
	O348	O	0.223634	0.209524	0.204611
	H349	H	0.236887	0.212772	0.173059
	H350	H	0.250102	0.234282	0.226587
	O351	O	0.356336	0.288823	0.615269
	H352	H	0.348128	0.314235	0.614474
	H353	H	0.347567	0.281230	0.627961
	O354	O	0.022313	-0.203814	1.026415
	H355	H	0.021092	-0.203232	1.016173
	H356	H	0.021375	-0.198856	1.016596
	O357	O	0.286713	0.489820	0.505249
	H358	H	0.297295	0.486742	0.481614
	H359	H	0.281041	0.512965	0.492039
	O360	O	0.727780	0.279120	0.460929
	H361	H	0.729062	0.284770	0.434284
	H362	H	0.734825	0.259523	0.455205
	O363	O	-0.191070	0.191339	0.182995
	H364	H	-0.169169	0.166411	0.169594
	H365	H	-0.178536	0.177058	0.161058
	O366	O	0.323539	0.311694	0.298583
	H367	H	0.345218	0.331833	0.309029
	H368	H	0.341366	0.324858	0.324566
	O369	O	0.715239	0.291512	0.283622
	H370	H	0.744006	0.258627	0.253647
	H371	H	0.688260	0.290901	0.294367
	O372	O	1.204696	1.209427	0.013648
	H373	H	1.197389	1.219210	-0.005923
	H374	H	1.202781	1.198237	0.000983
	O375	O	0.941048	0.006657	0.216735
	H376	H	0.951140	0.001715	0.208895
	H377	H	0.938001	0.010455	0.220093
	O378	O	0.410534	0.468041	0.450424
	H379	H	0.407901	0.468425	0.432201
	H380	H	0.420112	0.477759	0.464165
	O381	O	0.030738	1.014938	0.771799
	H382	H	0.031395	1.014865	0.769369
	H383	H	0.019339	0.996512	0.779649
	O384	O	0.889848	0.111992	0.933739
	H385	H	0.896174	0.113440	0.944164
	H386	H	0.875323	0.134190	0.939656
	O387	O	1.094133	1.038145	-0.089036
	H388	H	1.085844	1.014862	-0.090201
	H389	H	1.083738	1.047337	-0.077555
	O390	O	0.537941	0.441306	0.398262
	H391	H	0.532161	0.448424	0.407121
	H392	H	0.527131	0.438936	0.409153
	O393	O	0.477975	0.276844	0.717937
	H394	H	0.461777	0.278365	0.726605
	H395	H	0.461695	0.256429	0.733524
	O396	O	0.219657	0.789890	0.777008
	H397	H	0.244152	0.784853	0.754064
	H398	H	0.226849	0.800600	0.770617
	O399	O	0.222653	-0.037560	0.774874
	H400	H	0.217804	-0.034557	0.764145
	H401	H	0.228815	-0.029304	0.781312
	O402	O	0.289235	0.275054	0.517433
	H403	H	0.276586	0.274011	0.528703
	H404	H	0.275078	0.272164	0.540618
	O405	O	0.661412	-0.304178	1.334991
	H406	H	0.652146	-0.309331	1.351299
	H407	H	0.661620	-0.303649	1.335444
	O408	O	0.205460	0.081636	0.171942
	H409	H	0.218773	0.097778	0.189758
	H410	H	0.222198	0.101262	0.168026
	O411	O	0.719813	0.709820	0.697816
	H412	H	0.717762	0.682716	0.677212
	H413	H	0.710097	0.701367	0.674180
	O414	O	0.808337	0.202664	0.789295
	H415	H	0.810744	0.211644	0.799501
	H416	H	0.796649	0.183197	0.798785
	O417	O	0.530214	0.728340	0.354514
	H418	H	0.518477	0.726998	0.372820
	H419	H	0.523308	0.737579	0.328406
	O420	O	0.712918	0.575787	0.550339
	H421	H	0.700160	0.585791	0.534990
	H422	H	0.718214	0.575484	0.538303
	O423	O	-0.163541	-0.026098	1.170590
	H424	H	-0.140418	-0.044715	1.170067
	H425	H	-0.191698	-0.036875	1.186219
	O426	O	0.286957	0.721752	0.456980
	H427	H	0.274796	0.725806	0.435971
	H428	H	0.272899	0.736464	0.442842
	O429	O	0.794872	0.790003	1.027600
	H430	H	0.815883	0.778761	1.013027
	H431	H	0.783658	0.780431	1.017588
	O432	O	0.469199	0.729927	0.537234
	H433	H	0.452473	0.728363	0.548597
	H434	H	0.451028	0.735561	0.560232
	O435	O	-0.025183	0.775649	-0.029385
	H436	H	-0.016694	0.772892	-0.044607
	H437	H	-0.028522	0.778082	-0.033251
	O438	O	0.110037	-0.030518	0.210555
	H439	H	0.115787	-0.024152	0.211593
	H440	H	0.112960	-0.018334	0.217200
	O441	O	0.038077	0.227809	0.212185
	H442	H	0.077614	0.227662	0.217149
	H443	H	0.052142	0.244382	0.233779
	O444	O	0.430342	0.427483	0.565436
	H445	H	0.438444	0.422652	0.557666
	H446	H	0.439035	0.436730	0.580170
	O447	O	0.023268	0.774075	0.766468
	H448	H	0.044483	0.775898	0.760064
	H449	H	0.046266	0.758911	0.749644
	O450	O	-0.026200	1.072265	1.090625
	H451	H	-0.016353	1.076759	1.098944
	H452	H	-0.020960	1.059480	1.107737
	O453	O	0.291952	0.472447	0.710043
	H454	H	0.279857	0.465576	0.712776
	H455	H	0.284006	0.483246	0.707129
	O456	O	0.233804	0.202227	0.789132
	H457	H	0.234826	0.195988	0.794261
	H458	H	0.210134	0.179463	0.799648
	O459	O	0.422487	0.522660	0.449645
	H460	H	0.422047	0.514144	0.441187
	H461	H	0.413229	0.527835	0.431843
	O462	O	0.554077	0.435448	0.735117
	H463	H	0.548707	0.414673	0.731334
	H464	H	0.577616	0.436636	0.739917
	O465	O	0.976439	0.219949	-0.229435
	H466	H	0.966619	0.235817	-0.249121
	H467	H	0.959315	0.213418	-0.235139
	O468	O	0.304564	0.699602	0.289832
	H469	H	0.293248	0.732570	0.259827
	H470	H	0.340335	0.698722	0.300865
	O471	O	0.560536	0.565176	0.256543
	H472	H	0.572000	0.554389	0.254618
	H473	H	0.582539	0.551004	0.257468
	O474	O	0.053257	0.915138	-0.015680
	H475	H	0.052756	0.924789	-0.012065
	H476	H	0.041825	0.926465	-0.012206
	O477	O	0.445938	0.557997	1.723329
	H478	H	0.441593	0.550093	1.727761
	H479	H	0.464688	0.545994	1.723917
	O480	O	0.650825	0.428898	0.559836
	H481	H	0.660371	0.435716	0.551517
	H482	H	0.649564	0.417497	0.548173
	O483	O	0.688793	0.325425	0.675432
	H484	H	0.699838	0.333616	0.666360
	H485	H	0.672749	0.328896	0.665969
	O486	O	0.988984	0.002498	0.756782
	H487	H	0.973328	0.014658	0.750388
	H488	H	0.969816	-0.013574	0.762528
	O489	O	1.228571	0.819759	-0.012638
	H490	H	1.239612	0.804490	-0.024617
	H491	H	1.225983	0.816680	-0.028420
	O492	O	-0.136129	0.162505	-0.011574
	H493	H	-0.130387	0.167499	-0.008807
	H494	H	-0.133239	0.169162	-0.013171
	O495	O	-0.211039	1.048594	0.842016
	H496	H	-0.210989	1.050626	0.839420
	H497	H	-0.217906	1.070178	0.830071
	O498	O	1.175855	1.054935	0.983562
	H499	H	1.173272	1.046992	0.991542
	H500	H	1.171833	1.038280	0.984176
	O501	O	0.667593	0.636027	0.475806
	H502	H	0.668282	0.644705	0.475810
	H503	H	0.656028	0.628608	0.466573
