data_Molecule from HDF5

_cell_length_a		16.340911
_cell_length_b		16.233621
_cell_length_c		16.269364
_cell_angle_alpha	89.655149
_cell_angle_beta	90.077103
_cell_angle_gamma	89.775166
_symmetry_space_group_name_H-M	'P 1'
_symmetry_Int_Tables_number		1

loop_
	_symmetry_equiv_pos_as_xyz
	x,y,z

loop_
	_atom_site_label
	_atom_site_type_symbol
	_atom_site_fract_x
	_atom_site_fract_y
	_atom_site_fract_z
	H0	H	0.396795	0.838971	0.716178
	H1	H	0.594759	0.166014	0.713757
	H2	H	0.594144	0.838540	0.285939
	H3	H	0.391135	0.165352	0.281804
	H4	H	0.711038	0.403261	0.836747
	H5	H	0.711711	0.603699	0.162296
	H6	H	0.276921	0.604817	0.837315
	H7	H	0.280520	0.402216	0.162863
	H8	H	0.831882	0.719729	0.399826
	H9	H	0.157751	0.717793	0.600891
	H10	H	0.833078	0.284879	0.603665
	H11	H	0.156786	0.285575	0.401930
	H12	H	0.832053	0.401865	0.716273
	H13	H	0.156710	0.602719	0.717762
	H14	H	0.831975	0.603592	0.283757
	H15	H	0.156362	0.400257	0.284595
	H16	H	0.395147	0.718338	0.836221
	H17	H	0.593475	0.716424	0.162815
	H18	H	0.594659	0.288627	0.835646
	H19	H	0.393912	0.284746	0.162055
	H20	H	0.710533	0.838295	0.400269
	H21	H	0.711534	0.164533	0.599546
	H22	H	0.280349	0.838279	0.601377
	H23	H	0.276027	0.164320	0.397280
	H24	H	0.894879	0.338886	0.216876
	H25	H	0.093884	0.665505	0.215878
	H26	H	0.093158	0.338143	0.787494
	H27	H	0.893657	0.665825	0.782652
	H28	H	0.212251	0.899954	0.337923
	H29	H	0.212228	0.101656	0.662344
	H30	H	0.776306	0.105979	0.337686
	H31	H	0.779397	0.900575	0.663051
	H32	H	0.332678	0.221597	0.894899
	H33	H	0.656582	0.217220	0.097319
	H34	H	0.332248	0.787442	0.099879
	H35	H	0.656997	0.787872	0.900883
	H36	H	0.332726	0.901532	0.216654
	H37	H	0.656280	0.103913	0.216892
	H38	H	0.333160	0.104851	0.781002
	H39	H	0.657454	0.903493	0.785555
	H40	H	0.892285	0.222144	0.338732
	H41	H	0.094465	0.215597	0.664369
	H42	H	0.094611	0.787027	0.337369
	H43	H	0.896526	0.786513	0.663897
	H44	H	0.211959	0.339354	0.900392
	H45	H	0.209740	0.665764	0.100970
	H46	H	0.778847	0.339517	0.100822
	H47	H	0.777195	0.666415	0.897443
	H48	H	0.397355	0.117123	0.581156
	H49	H	0.582727	0.887996	0.590161
	H50	H	0.589569	0.118947	0.409806
	H51	H	0.400765	0.884272	0.403854
	H52	H	0.585780	0.406862	0.116127
	H53	H	0.597471	0.599812	0.878974
	H54	H	0.393707	0.590303	0.117458
	H55	H	0.405119	0.404056	0.881124
	H56	H	0.107505	0.591429	0.411622
	H57	H	0.880865	0.589808	0.593298
	H58	H	0.114334	0.402941	0.600868
	H59	H	0.877815	0.409100	0.407900
	H60	H	0.108557	0.405377	0.585846
	H61	H	0.877180	0.598096	0.596357
	H62	H	0.110617	0.591761	0.404080
	H63	H	0.880594	0.411873	0.413950
	H64	H	0.409378	0.590470	0.112880
	H65	H	0.584929	0.583197	0.887268
	H66	H	0.588926	0.412377	0.114805
	H67	H	0.392758	0.414765	0.881676
	H68	H	0.586856	0.120329	0.402473
	H69	H	0.591652	0.884848	0.589245
	H70	H	0.397929	0.122099	0.597410
	H71	H	0.409405	0.887364	0.408872
	H72	H	0.896424	0.619492	0.087657
	H73	H	0.088425	0.386424	0.091408
	H74	H	0.089868	0.620585	0.906758
	H75	H	0.899978	0.385124	0.907114
	H76	H	0.088738	0.913258	0.615702
	H77	H	0.087460	0.087414	0.385872
	H78	H	0.913929	0.092631	0.611875
	H79	H	0.904187	0.915065	0.385793
	H80	H	0.610368	0.096057	0.905044
	H81	H	0.378759	0.086727	0.098772
	H82	H	0.614159	0.904026	0.100242
	H83	H	0.378687	0.912554	0.906899
	H84	H	0.609198	0.905621	0.084632
	H85	H	0.376078	0.104241	0.091209
	H86	H	0.611291	0.096739	0.907430
	H87	H	0.378828	0.911414	0.906075
	H88	H	0.896963	0.102524	0.621582
	H89	H	0.077827	0.095179	0.386981
	H90	H	0.083544	0.907747	0.615816
	H91	H	0.904530	0.907827	0.383565
	H92	H	0.081320	0.617323	0.905316
	H93	H	0.089818	0.384760	0.094890
	H94	H	0.902775	0.621556	0.098056
	H95	H	0.904641	0.387505	0.907694
	H96	H	0.411789	0.114970	0.589727
	H97	H	0.586687	0.884785	0.597993
	H98	H	0.582574	0.116818	0.407834
	H99	H	0.399870	0.887046	0.413557
	H100	H	0.583141	0.412339	0.113461
	H101	H	0.577060	0.603363	0.884374
	H102	H	0.402539	0.604479	0.118434
	H103	H	0.407152	0.419365	0.886870
	H104	H	0.111164	0.598801	0.409010
	H105	H	0.880215	0.597764	0.587395
	H106	H	0.108198	0.417873	0.596047
	H107	H	0.880377	0.414873	0.408206
	H108	H	0.908330	0.616160	0.088400
	H109	H	0.086035	0.386852	0.094393
	H110	H	0.085194	0.616881	0.913694
	H111	H	0.901394	0.387023	0.912010
	H112	H	0.091130	0.906908	0.618254
	H113	H	0.088896	0.098713	0.382069
	H114	H	0.895994	0.081574	0.614922
	H115	H	0.897723	0.912063	0.382593
	H116	H	0.609423	0.094707	0.907234
	H117	H	0.383359	0.090096	0.080556
	H118	H	0.608639	0.918661	0.095151
	H119	H	0.377768	0.910773	0.907051
	C120	C	0.373502	0.010445	0.620624
	C121	C	0.616176	0.993691	0.621107
	C122	C	0.615708	0.010443	0.378172
	C123	C	0.372539	0.993750	0.378090
	C124	C	0.615824	0.381571	0.007524
	C125	C	0.616054	0.624583	0.991251
	C126	C	0.372280	0.625000	0.008517
	C127	C	0.372752	0.381733	0.991039
	C128	C	0.002546	0.624334	0.378604
	C129	C	0.986492	0.624346	0.621904
	C130	C	0.003245	0.379452	0.623897
	C131	C	0.986197	0.381029	0.380061
	C132	C	0.873210	0.510975	0.121293
	C133	C	0.116477	0.493925	0.122420
	C134	C	0.115301	0.510475	0.879431
	C135	C	0.872354	0.494275	0.878328
	C136	C	0.116782	0.879988	0.508887
	C137	C	0.115034	0.122914	0.492301
	C138	C	0.872013	0.124127	0.509052
	C139	C	0.873036	0.880717	0.491550
	C140	C	0.503182	0.125828	0.876311
	C141	C	0.486279	0.123585	0.120087
	C142	C	0.503411	0.880375	0.122208
	C143	C	0.485951	0.882210	0.878224
	C144	C	0.375680	0.887958	0.678124
	C145	C	0.614890	0.116873	0.676317
	C146	C	0.614237	0.887329	0.323686
	C147	C	0.372198	0.116258	0.320445
	C148	C	0.672622	0.383108	0.885209
	C149	C	0.672878	0.623261	0.113565
	C150	C	0.315369	0.624441	0.885954
	C151	C	0.317876	0.382033	0.114050
	C152	C	0.880676	0.681430	0.379513
	C153	C	0.108969	0.679669	0.620515
	C154	C	0.881464	0.323134	0.622794
	C155	C	0.108195	0.324082	0.381813
	C156	C	0.880973	0.381496	0.678954
	C157	C	0.108379	0.622732	0.679026
	C158	C	0.880644	0.623520	0.321902
	C159	C	0.107892	0.381047	0.323298
	C160	C	0.373905	0.681099	0.885400
	C161	C	0.614052	0.679444	0.114013
	C162	C	0.614354	0.326387	0.884549
	C163	C	0.374570	0.323735	0.113384
	C164	C	0.672368	0.887527	0.380532
	C165	C	0.672766	0.116322	0.619356
	C166	C	0.318006	0.887463	0.620748
	C167	C	0.314964	0.116014	0.378285
	C168	C	0.874806	0.387985	0.178356
	C169	C	0.113983	0.616741	0.177990
	C170	C	0.113417	0.387095	0.825203
	C171	C	0.873640	0.617154	0.820995
	C172	C	0.173528	0.880722	0.386405
	C173	C	0.173145	0.121681	0.614148
	C174	C	0.815021	0.124969	0.386559
	C175	C	0.817460	0.881126	0.614391
	C176	C	0.381266	0.182846	0.876181
	C177	C	0.608185	0.179484	0.118247
	C178	C	0.380998	0.825021	0.120267
	C179	C	0.608424	0.826190	0.880706
	C180	C	0.381352	0.881803	0.178412
	C181	C	0.607803	0.123125	0.177592
	C182	C	0.381469	0.124836	0.819310
	C183	C	0.608764	0.883773	0.823449
	C184	C	0.872645	0.182753	0.387032
	C185	C	0.114164	0.177928	0.615267
	C186	C	0.114978	0.824669	0.386158
	C187	C	0.875742	0.824405	0.614684
	C188	C	0.172722	0.387981	0.881163
	C189	C	0.171654	0.616791	0.120677
	C190	C	0.817230	0.388088	0.120650
	C191	C	0.815690	0.617456	0.878041
	C192	C	0.395813	0.096044	0.596310
	C193	C	0.593526	0.908104	0.598996
	C194	C	0.593085	0.096520	0.400178
	C195	C	0.396437	0.908205	0.401825
	C196	C	0.592822	0.403927	0.092815
	C197	C	0.593206	0.602048	0.905862
	C198	C	0.395235	0.601850	0.094159
	C199	C	0.395026	0.405567	0.905456
	C200	C	0.087697	0.600915	0.401643
	C201	C	0.901444	0.601676	0.598908
	C202	C	0.088402	0.402193	0.600978
	C203	C	0.901359	0.404972	0.403210
	C204	C	0.895839	0.596783	0.098068
	C205	C	0.094434	0.408055	0.100099
	C206	C	0.092138	0.596112	0.902015
	C207	C	0.895291	0.408846	0.901943
	C208	C	0.094410	0.902681	0.594362
	C209	C	0.091567	0.100348	0.407123
	C210	C	0.895437	0.099558	0.593984
	C211	C	0.895600	0.904506	0.406170
	C212	C	0.588248	0.102783	0.899657
	C213	C	0.401200	0.100339	0.096978
	C214	C	0.588433	0.902700	0.099817
	C215	C	0.400576	0.905064	0.900316
	Zn216	Zn	0.494973	0.002916	0.749277
	Zn217	Zn	0.494528	0.002472	0.250490
	Zn218	Zn	0.744221	0.503191	-0.000183
	Zn219	Zn	0.244434	0.502963	0.000540
	Zn220	Zn	-0.004984	0.753164	0.500170
	Zn221	Zn	-0.005779	0.251992	0.501735
	Zn222	Zn	-0.005558	0.502128	0.750479
	Zn223	Zn	-0.005545	0.502234	0.250476
	Zn224	Zn	0.494415	0.752925	-0.000708
	Zn225	Zn	0.494019	0.253236	-0.001434
	Zn226	Zn	0.744313	0.001622	0.499768
	Zn227	Zn	0.244451	0.001386	0.499495
	N228	N	0.409577	0.965418	0.678047
	N229	N	0.580366	0.039691	0.677466
	N230	N	0.580014	0.964809	0.322060
	N231	N	0.407180	0.038977	0.320090
	N232	N	0.673474	0.416962	0.962530
	N233	N	0.674040	0.589978	0.036232
	N234	N	0.314192	0.590341	0.963545
	N235	N	0.316669	0.417291	0.037037
	N236	N	0.957514	0.681937	0.413976
	N237	N	0.032242	0.680974	0.585858
	N238	N	0.958667	0.321850	0.589140
	N239	N	0.031515	0.323909	0.416189
	N240	N	0.957737	0.415716	0.679763
	N241	N	0.031303	0.588977	0.679945
	N242	N	0.957560	0.588801	0.321042
	N243	N	0.031031	0.415884	0.322155
	N244	N	0.408447	0.681713	0.962553
	N245	N	0.579209	0.680317	0.036950
	N246	N	0.579725	0.325149	0.961570
	N247	N	0.407808	0.323351	0.035611
	N248	N	0.673526	0.965412	0.413588
	N249	N	0.673881	0.038785	0.585891
	N250	N	0.316527	0.964806	0.585604
	N251	N	0.315030	0.038698	0.413096
	N252	N	0.909112	0.465348	0.178788
	N253	N	0.080370	0.539255	0.179265
	N254	N	0.078566	0.464407	0.823884
	N255	N	0.907935	0.539558	0.820675
	N256	N	0.174813	0.914536	0.463795
	N257	N	0.173723	0.087949	0.536843
	N258	N	0.814633	0.088988	0.463296
	N259	N	0.815787	0.915579	0.536883
	N260	N	0.457883	0.183612	0.911030
	N261	N	0.531629	0.179791	0.083171
	N262	N	0.457765	0.823781	0.085937
	N263	N	0.531266	0.825360	0.914324
	N264	N	0.458309	0.915543	0.179971
	N265	N	0.530851	0.089168	0.178837
	N266	N	0.458343	0.090187	0.819260
	N267	N	0.531630	0.917754	0.821749
	N268	N	0.907129	0.182561	0.464189
	N269	N	0.078701	0.178733	0.538496
	N270	N	0.080542	0.824098	0.463158
	N271	N	0.909640	0.824136	0.537384
	N272	N	0.173983	0.465861	0.914151
	N273	N	0.173170	0.539515	0.086651
	N274	N	0.816150	0.465562	0.085993
	N275	N	0.814766	0.540232	0.913068
	O276	O	1.008012	-0.037230	0.925043
	H277	H	1.008283	-0.044219	0.924071
	H278	H	1.013711	-0.034533	0.921922
	O279	O	0.432467	0.536831	0.406820
	H280	H	0.428409	0.543076	0.408149
	H281	H	0.426814	0.531759	0.407468
	O282	O	0.555053	0.489110	0.626684
	H283	H	0.573346	0.500125	0.625564
	H284	H	0.553418	0.485958	0.628145
	O285	O	0.366764	0.588443	0.449136
	H286	H	0.368913	0.594280	0.452220
	H287	H	0.360257	0.599238	0.445774
	O288	O	0.600286	0.576017	0.507729
	H289	H	0.602245	0.580890	0.498360
	H290	H	0.590184	0.574907	0.503772
	O291	O	0.071455	0.076986	1.051883
	H292	H	0.068863	0.084333	1.045389
	H293	H	0.090791	0.084156	1.052444
	O294	O	1.008473	0.986863	0.042385
	H295	H	1.012709	0.977727	0.042720
	H296	H	1.008413	0.991164	0.039462
	O297	O	0.955636	0.957416	0.044945
	H298	H	0.952223	0.953974	0.049386
	H299	H	0.960688	0.955998	0.046120
	O300	O	0.552039	0.491660	0.339548
	H301	H	0.550032	0.480945	0.330232
	H302	H	0.538477	0.488591	0.332185
	O303	O	0.405329	0.527239	0.561996
	H304	H	0.408328	0.518551	0.570321
	H305	H	0.413954	0.528316	0.565357
	O306	O	0.616687	0.545325	0.540200
	H307	H	0.610314	0.547655	0.534283
	H308	H	0.620075	0.548419	0.547629
	O309	O	0.584022	0.453870	0.513710
	H310	H	0.596435	0.459105	0.504642
	H311	H	0.586593	0.447406	0.512907
	O312	O	0.979880	1.053418	1.089611
	H313	H	0.987741	1.054881	1.062738
	H314	H	0.978415	1.049435	1.085984
	O315	O	0.938348	0.910440	0.004655
	H316	H	0.942684	0.923720	0.010496
	H317	H	0.939879	0.896003	0.005668
	O318	O	0.499007	0.544895	0.429402
	H319	H	0.506718	0.539222	0.413482
	H320	H	0.479901	0.540328	0.427313
	O321	O	0.518679	0.371920	0.439734
	H322	H	0.527383	0.367878	0.436796
	H323	H	0.519177	0.361361	0.450895
	O324	O	0.051665	0.929276	0.981898
	H325	H	0.056826	0.915630	0.980717
	H326	H	0.055750	0.925894	0.976117
	O327	O	0.117912	1.003278	0.978963
	H328	H	0.115166	0.997577	0.977455
	H329	H	0.120864	0.993516	0.985097
	O330	O	-0.016751	-0.054258	0.135271
	H331	H	-0.026009	-0.048948	0.136255
	H332	H	-0.019785	-0.070058	0.145649
	O333	O	0.506349	0.379896	0.513665
	H334	H	0.508311	0.367543	0.526521
	H335	H	0.517901	0.363554	0.508383
	O336	O	0.038620	0.115849	0.140858
	H337	H	0.043795	0.121254	0.147206
	H338	H	0.044533	0.134065	0.138026
	O339	O	-0.108038	0.087665	-0.082964
	H340	H	-0.097857	0.096483	-0.084395
	H341	H	-0.112853	0.086877	-0.074422
	O342	O	0.603201	0.399721	0.377523
	H343	H	0.601966	0.413279	0.376393
	H344	H	0.607552	0.404463	0.381740
	O345	O	-0.017663	0.979778	0.868417
	H346	H	-0.024174	0.986163	0.862830
	H347	H	-0.012880	0.979086	0.874169
	O348	O	0.371383	0.461016	0.522329
	H349	H	0.380124	0.461061	0.522225
	H350	H	0.382695	0.463850	0.535426
	O351	O	0.455186	0.503027	0.461958
	H352	H	0.456405	0.496018	0.476437
	H353	H	0.455806	0.509658	0.461303
	O354	O	0.039689	0.964440	-0.012894
	H355	H	0.041015	0.951740	0.004236
	H356	H	0.034263	0.970499	-0.015836
	O357	O	0.512730	0.449124	0.495069
	H358	H	0.512353	0.445482	0.510205
	H359	H	0.513342	0.451867	0.485995
	O360	O	1.014070	-0.034956	0.875518
	H361	H	1.014720	-0.032123	0.876635
	H362	H	1.025744	-0.045748	0.877920
	O363	O	0.445604	0.616308	0.447842
	H364	H	0.436933	0.623490	0.442245
	H365	H	0.447994	0.612518	0.457286
	O366	O	0.523040	0.518495	0.548013
	H367	H	0.516017	0.514920	0.553876
	H368	H	0.529925	0.511879	0.556298
	O369	O	1.041058	0.017801	0.013697
	H370	H	1.042896	0.019726	0.025475
	H371	H	1.036726	0.018848	0.015785
	O372	O	0.542073	0.604531	0.586875
	H373	H	0.540058	0.606611	0.581128
	H374	H	0.547701	0.609866	0.581391
	O375	O	0.961732	-0.058050	1.077943
	H376	H	0.944185	-0.066306	1.088823
	H377	H	0.958421	-0.069327	1.079863
	O378	O	-0.116678	1.086439	0.050121
	H379	H	-0.122555	1.078477	0.044218
	H380	H	-0.126140	1.083673	0.056069
	O381	O	0.407963	0.357110	0.633902
	H382	H	0.412083	0.352334	0.636934
	H383	H	0.407813	0.360884	0.630216
	O384	O	0.930099	1.043725	-0.057985
	H385	H	0.931343	1.049162	-0.065051
	H386	H	0.940253	1.049517	-0.067610
	O387	O	1.089984	0.084975	1.036978
	H388	H	1.089923	0.088212	1.033853
	H389	H	1.092466	0.089861	1.030828
	O390	O	1.056256	0.955285	0.031713
	H391	H	1.061452	0.967821	0.031309
	H392	H	1.050702	0.951497	0.041851
	O393	O	0.455353	0.532607	0.440297
	H394	H	0.458242	0.522681	0.441643
	H395	H	0.444992	0.520791	0.437560
