data_Molecule from HDF5

_cell_length_a		16.240321
_cell_length_b		16.521166
_cell_length_c		16.352685
_cell_angle_alpha	89.709217
_cell_angle_beta	89.923088
_cell_angle_gamma	90.069993
_symmetry_space_group_name_H-M	'P 1'
_symmetry_Int_Tables_number		1

loop_
	_symmetry_equiv_pos_as_xyz
	x,y,z

loop_
	_atom_site_label
	_atom_site_type_symbol
	_atom_site_fract_x
	_atom_site_fract_y
	_atom_site_fract_z
	H0	H	0.396067	0.861944	0.722537
	H1	H	0.609237	0.177451	0.719186
	H2	H	0.607685	0.859920	0.278041
	H3	H	0.399682	0.177593	0.278328
	H4	H	0.722774	0.418697	0.839610
	H5	H	0.718288	0.619296	0.160824
	H6	H	0.283534	0.620831	0.838276
	H7	H	0.287642	0.418408	0.161393
	H8	H	0.841418	0.739982	0.393355
	H9	H	0.159890	0.739876	0.608514
	H10	H	0.839776	0.298901	0.604655
	H11	H	0.162352	0.299814	0.397046
	H12	H	0.840024	0.415144	0.718256
	H13	H	0.163546	0.618914	0.716658
	H14	H	0.840836	0.621436	0.281487
	H15	H	0.163933	0.417007	0.284551
	H16	H	0.396091	0.740375	0.838839
	H17	H	0.607244	0.738686	0.158492
	H18	H	0.610385	0.299777	0.838644
	H19	H	0.398557	0.297239	0.158035
	H20	H	0.721719	0.858676	0.396819
	H21	H	0.721288	0.179196	0.598566
	H22	H	0.281339	0.860317	0.604413
	H23	H	0.282072	0.176932	0.394525
	H24	H	0.896554	0.359444	0.222549
	H25	H	0.107192	0.675966	0.221296
	H26	H	0.108576	0.359889	0.780320
	H27	H	0.896279	0.675802	0.775945
	H28	H	0.217580	0.917659	0.338999
	H29	H	0.220099	0.118470	0.660048
	H30	H	0.786489	0.119329	0.337925
	H31	H	0.782664	0.915841	0.661162
	H32	H	0.343262	0.241830	0.890573
	H33	H	0.664340	0.238290	0.102026
	H34	H	0.342201	0.800022	0.101959
	H35	H	0.662600	0.798500	0.891000
	H36	H	0.341660	0.917451	0.216134
	H37	H	0.664965	0.122076	0.215879
	H38	H	0.341727	0.124625	0.778555
	H39	H	0.664101	0.917240	0.779551
	H40	H	0.893433	0.242591	0.342447
	H41	H	0.107042	0.236396	0.660535
	H42	H	0.106924	0.796336	0.342632
	H43	H	0.892515	0.794677	0.659712
	H44	H	0.222720	0.359887	0.898974
	H45	H	0.220975	0.677704	0.101741
	H46	H	0.781468	0.359107	0.104287
	H47	H	0.784672	0.678358	0.897002
	H48	H	0.416422	0.131622	0.590253
	H49	H	0.596657	0.905010	0.591266
	H50	H	0.593960	0.132836	0.401826
	H51	H	0.417272	0.907536	0.410362
	H52	H	0.581973	0.431321	0.109098
	H53	H	0.590250	0.611808	0.884887
	H54	H	0.419691	0.611930	0.111803
	H55	H	0.415175	0.432516	0.885760
	H56	H	0.114886	0.602770	0.409507
	H57	H	0.885776	0.607680	0.587720
	H58	H	0.118635	0.425707	0.594522
	H59	H	0.885816	0.426035	0.412277
	H60	H	0.118342	0.422204	0.589020
	H61	H	0.887615	0.604373	0.586716
	H62	H	0.118242	0.611942	0.409386
	H63	H	0.888096	0.429481	0.415117
	H64	H	0.410122	0.615320	0.115167
	H65	H	0.594038	0.611348	0.883439
	H66	H	0.589645	0.417242	0.116246
	H67	H	0.415240	0.426065	0.884613
	H68	H	0.590314	0.130311	0.407644
	H69	H	0.585260	0.907225	0.593793
	H70	H	0.413136	0.130504	0.583251
	H71	H	0.405118	0.904120	0.411956
	H72	H	0.914448	0.630526	0.092714
	H73	H	0.093706	0.404146	0.095570
	H74	H	0.080326	0.626060	0.914015
	H75	H	0.917530	0.407582	0.908759
	H76	H	0.095724	0.928932	0.616463
	H77	H	0.097012	0.107349	0.384229
	H78	H	0.912271	0.108246	0.614156
	H79	H	0.920711	0.925698	0.389062
	H80	H	0.619780	0.110448	0.903171
	H81	H	0.390336	0.108173	0.082080
	H82	H	0.619066	0.928718	0.090180
	H83	H	0.385573	0.928644	0.905609
	H84	H	0.618841	0.925194	0.085983
	H85	H	0.388161	0.105304	0.091359
	H86	H	0.618164	0.114589	0.913378
	H87	H	0.388535	0.926313	0.915716
	H88	H	0.912944	0.107593	0.614754
	H89	H	0.085030	0.105820	0.389147
	H90	H	0.085790	0.932297	0.612296
	H91	H	0.910116	0.922227	0.383351
	H92	H	0.102173	0.632137	0.915681
	H93	H	0.093205	0.404551	0.091831
	H94	H	0.912159	0.630363	0.089751
	H95	H	0.912956	0.407268	0.917093
	H96	H	0.408406	0.133562	0.588796
	H97	H	0.589264	0.909318	0.583099
	H98	H	0.597284	0.132474	0.407966
	H99	H	0.410841	0.902698	0.400298
	H100	H	0.598797	0.431797	0.114262
	H101	H	0.591805	0.607680	0.885303
	H102	H	0.411518	0.605009	0.111480
	H103	H	0.409626	0.429599	0.883405
	H104	H	0.114339	0.608254	0.418117
	H105	H	0.886892	0.604932	0.590274
	H106	H	0.115976	0.428230	0.589175
	H107	H	0.886757	0.430912	0.410138
	H108	H	0.910813	0.631806	0.092936
	H109	H	0.095916	0.403919	0.092738
	H110	H	0.091079	0.634927	0.896039
	H111	H	0.909183	0.404237	0.909087
	H112	H	0.086559	0.922472	0.615937
	H113	H	0.088262	0.117121	0.383617
	H114	H	0.912847	0.108518	0.614060
	H115	H	0.910925	0.933786	0.387109
	H116	H	0.614545	0.104610	0.911403
	H117	H	0.385881	0.114043	0.088058
	H118	H	0.617576	0.930372	0.085529
	H119	H	0.390811	0.936167	0.911299
	C120	C	0.380276	0.027582	0.620672
	C121	C	0.623263	1.011636	0.620106
	C122	C	0.625242	0.026878	0.375755
	C123	C	0.380078	1.009661	0.375915
	C124	C	0.623463	0.397205	0.007542
	C125	C	0.623460	0.640706	0.990669
	C126	C	0.381296	0.641504	0.007039
	C127	C	0.381705	0.397608	0.990585
	C128	C	0.010253	0.639656	0.379483
	C129	C	0.993047	0.637285	0.620614
	C130	C	0.010701	0.394705	0.622427
	C131	C	0.993041	0.397299	0.380739
	C132	C	0.880140	0.526195	0.123237
	C133	C	0.124306	0.509701	0.122679
	C134	C	0.123553	0.526501	0.878370
	C135	C	0.881188	0.510523	0.878807
	C136	C	0.121843	0.896829	0.509194
	C137	C	0.122551	0.140053	0.491419
	C138	C	0.881031	0.139678	0.508589
	C139	C	0.880481	0.895923	0.492146
	C140	C	0.511552	0.141964	0.876577
	C141	C	0.494791	0.140042	0.118600
	C142	C	0.512130	0.897379	0.119128
	C143	C	0.494319	0.898787	0.877816
	C144	C	0.377918	0.909111	0.681897
	C145	C	0.626606	0.130525	0.679000
	C146	C	0.626166	0.907074	0.317859
	C147	C	0.380201	0.129591	0.317713
	C148	C	0.683603	0.398170	0.887239
	C149	C	0.680556	0.639489	0.111924
	C150	C	0.322332	0.641046	0.886538
	C151	C	0.324680	0.397865	0.112302
	C152	C	0.889600	0.699395	0.376418
	C153	C	0.112787	0.698558	0.624689
	C154	C	0.888695	0.337340	0.623732
	C155	C	0.114324	0.338993	0.378840
	C156	C	0.888842	0.395055	0.680524
	C157	C	0.114267	0.638382	0.678948
	C158	C	0.889293	0.640724	0.320190
	C159	C	0.115006	0.397170	0.322695
	C160	C	0.378719	0.700294	0.886738
	C161	C	0.625219	0.698975	0.110773
	C162	C	0.627337	0.339316	0.886929
	C163	C	0.379885	0.337521	0.110440
	C164	C	0.682931	0.906664	0.376895
	C165	C	0.682821	0.131045	0.619213
	C166	C	0.320859	0.908137	0.622953
	C167	C	0.321665	0.129487	0.375702
	C168	C	0.878349	0.406870	0.182510
	C169	C	0.125254	0.628926	0.180987
	C170	C	0.126388	0.407319	0.819869
	C171	C	0.878855	0.628908	0.817441
	C172	C	0.180204	0.896956	0.388307
	C173	C	0.181341	0.138740	0.612083
	C174	C	0.823659	0.139873	0.387116
	C175	C	0.820933	0.895821	0.612753
	C176	C	0.391220	0.201707	0.873350
	C177	C	0.616050	0.198671	0.119919
	C178	C	0.390545	0.839245	0.120722
	C179	C	0.614789	0.838950	0.873957
	C180	C	0.390300	0.897531	0.177422
	C181	C	0.616481	0.140396	0.176689
	C182	C	0.390423	0.143300	0.817333
	C183	C	0.615326	0.897997	0.818352
	C184	C	0.877399	0.200933	0.389215
	C185	C	0.124772	0.197369	0.612130
	C186	C	0.124743	0.836718	0.389911
	C187	C	0.876174	0.835722	0.612141
	C188	C	0.183155	0.407448	0.879085
	C189	C	0.182097	0.629760	0.121649
	C190	C	0.820847	0.406943	0.123701
	C191	C	0.822938	0.630174	0.877779
	C192	C	0.405344	0.110320	0.594710
	C193	C	0.597824	0.928732	0.596329
	C194	C	0.600931	0.110048	0.399060
	C195	C	0.404227	0.926383	0.400535
	C196	C	0.597569	0.420244	0.091352
	C197	C	0.599102	0.617230	0.906423
	C198	C	0.406487	0.617579	0.091078
	C199	C	0.406157	0.422374	0.906510
	C200	C	0.094043	0.614742	0.405113
	C201	C	0.908763	0.612738	0.595525
	C202	C	0.095598	0.418325	0.597929
	C203	C	0.908824	0.421690	0.405342
	C204	C	0.905268	0.609311	0.098778
	C205	C	0.100898	0.425943	0.099928
	C206	C	0.098344	0.609510	0.901722
	C207	C	0.906056	0.427880	0.904395
	C208	C	0.096444	0.921010	0.593150
	C209	C	0.097482	0.116869	0.407472
	C210	C	0.905582	0.115098	0.592595
	C211	C	0.906363	0.920092	0.408356
	C212	C	0.595768	0.117146	0.901798
	C213	C	0.410255	0.115922	0.094342
	C214	C	0.596478	0.921228	0.094317
	C215	C	0.410287	0.923312	0.903479
	Zn216	Zn	0.502327	0.019967	0.750026
	Zn217	Zn	0.503040	0.018734	0.247124
	Zn218	Zn	0.751216	0.519113	0.000171
	Zn219	Zn	0.253037	0.519309	0.000052
	Zn220	Zn	0.001053	0.767058	0.501659
	Zn221	Zn	0.001483	0.268837	0.500472
	Zn222	Zn	0.002088	0.517140	0.748564
	Zn223	Zn	0.002161	0.517777	0.252276
	Zn224	Zn	0.503348	0.769493	-0.002100
	Zn225	Zn	0.503095	0.268637	-0.002037
	Zn226	Zn	0.753269	0.018229	0.498906
	Zn227	Zn	0.250891	0.018413	0.499173
	N228	N	0.414210	0.984372	0.680725
	N229	N	0.590412	0.055382	0.679702
	N230	N	0.591338	0.982905	0.316720
	N231	N	0.415589	0.054036	0.317635
	N232	N	0.681421	0.433333	0.963122
	N233	N	0.679493	0.603965	0.036191
	N234	N	0.323754	0.605395	0.962533
	N235	N	0.325440	0.434375	0.036555
	N236	N	0.965863	0.698868	0.412802
	N237	N	0.036309	0.697906	0.589131
	N238	N	0.965565	0.336878	0.588758
	N239	N	0.037395	0.338771	0.413960
	N240	N	0.965862	0.429807	0.680123
	N241	N	0.038795	0.600700	0.676288
	N242	N	0.965225	0.604154	0.322124
	N243	N	0.038686	0.432885	0.323673
	N244	N	0.414435	0.700832	0.962900
	N245	N	0.590760	0.700178	0.034077
	N246	N	0.590872	0.338532	0.962924
	N247	N	0.414450	0.337214	0.033649
	N248	N	0.682592	0.982024	0.412225
	N249	N	0.680882	0.055940	0.583246
	N250	N	0.322140	0.982788	0.585793
	N251	N	0.321137	0.053724	0.410941
	N252	N	0.914460	0.482171	0.182495
	N253	N	0.090088	0.553200	0.181813
	N254	N	0.089799	0.482293	0.819433
	N255	N	0.914205	0.553494	0.817919
	N256	N	0.178588	0.933393	0.463697
	N257	N	0.180082	0.103881	0.536088
	N258	N	0.825949	0.102405	0.462225
	N259	N	0.823576	0.932448	0.537117
	N260	N	0.467565	0.201025	0.909332
	N261	N	0.539396	0.198433	0.084502
	N262	N	0.467378	0.838639	0.085426
	N263	N	0.538476	0.839255	0.910295
	N264	N	0.466944	0.932827	0.176778
	N265	N	0.540030	0.104697	0.176099
	N266	N	0.466486	0.106691	0.819324
	N267	N	0.539327	0.934504	0.820624
	N268	N	0.912522	0.200885	0.465699
	N269	N	0.088820	0.198280	0.535930
	N270	N	0.089369	0.836455	0.466371
	N271	N	0.912164	0.835497	0.535993
	N272	N	0.181623	0.482540	0.914625
	N273	N	0.181865	0.554511	0.086499
	N274	N	0.821971	0.482166	0.087671
	N275	N	0.824487	0.555709	0.915542
	O276	O	1.165587	-0.027661	0.829413
	H277	H	1.181751	-0.028484	0.817980
	H278	H	1.154097	-0.034785	0.830302
	O279	O	0.403132	0.393898	0.578264
	H280	H	0.412943	0.398491	0.578461
	H281	H	0.405099	0.380385	0.572827
	O282	O	0.376692	0.690159	0.461449
	H283	H	0.380698	0.687589	0.424844
	H284	H	0.367494	0.695115	0.458695
	O285	O	0.867618	0.067841	0.075922
	H286	H	0.879990	0.046280	0.076081
	H287	H	0.846163	0.072187	0.066905
	O288	O	0.167181	-0.143445	0.833131
	H289	H	0.167981	-0.140756	0.854630
	H290	H	0.159120	-0.155027	0.827226
	O291	O	0.572718	0.361586	0.554622
	H292	H	0.571040	0.359851	0.554765
	H293	H	0.569853	0.369332	0.544821
	O294	O	0.544842	0.592030	0.424980
	H295	H	0.564467	0.594139	0.434472
	H296	H	0.547978	0.580982	0.422402
	O297	O	1.184645	0.949307	1.032787
	H298	H	1.193596	0.955868	1.032894
	H299	H	1.181250	0.959828	1.018840
	O300	O	-0.094851	-0.090743	-0.147448
	H301	H	-0.085742	-0.081391	-0.147115
	H302	H	-0.092894	-0.098474	-0.150476
	O303	O	0.456121	0.661583	0.345641
	H304	H	0.467346	0.662974	0.342452
	H305	H	0.462964	0.653905	0.342928
	O306	O	1.329371	-0.421186	0.327036
	H307	H	1.329532	-0.408426	0.324112
	H308	H	1.319199	-0.406950	0.309272
	O309	O	0.426792	0.369287	0.369524
	H310	H	0.426372	0.372691	0.368996
	H311	H	0.425545	0.372635	0.381805
	O312	O	0.850889	0.852462	0.031721
	H313	H	0.826527	0.859608	0.038660
	H314	H	0.844000	0.859596	0.025050
	O315	O	0.589485	0.511360	0.364700
	H316	H	0.590621	0.513814	0.371714
	H317	H	0.585173	0.494479	0.372204
	O318	O	0.679887	0.589484	0.588350
	H319	H	0.676154	0.596779	0.574236
	H320	H	0.666844	0.609595	0.590905
	O321	O	0.843626	0.199252	0.816014
	H322	H	0.837977	0.200372	0.846004
	H323	H	0.854933	0.202447	0.810451
	O324	O	0.074439	-0.054771	1.195973
	H325	H	0.088533	-0.052186	1.203214
	H326	H	0.070943	-0.048075	1.189072
	O327	O	0.529552	0.533730	0.378747
	H328	H	0.521238	0.522588	0.375083
	H329	H	0.541854	0.531595	0.399122
	O330	O	0.328964	0.715401	0.457533
	H331	H	0.321176	0.726340	0.424231
	H332	H	0.338122	0.710035	0.446188
	O333	O	0.475211	0.506522	0.555634
	H334	H	0.475890	0.518681	0.545475
	H335	H	0.475384	0.512435	0.548224
	O336	O	0.547273	0.524486	0.601599
	H337	H	0.554987	0.523854	0.609738
	H338	H	0.541729	0.554423	0.604960
	O339	O	1.201583	0.111493	1.169504
	H340	H	1.204693	0.134188	1.166577
	H341	H	1.227853	0.126118	1.184600
	O342	O	-0.500608	0.719255	0.657383
	H343	H	-0.521368	0.740521	0.653513
	H344	H	-0.502651	0.729733	0.636118
	O345	O	0.032439	0.850147	1.018374
	H346	H	0.030150	0.856311	1.018337
	H347	H	0.031043	0.853942	1.017725
	O348	O	-0.715739	0.761110	-0.842691
	H349	H	-0.724601	0.768551	-0.851264
	H350	H	-0.707691	0.766295	-0.845291
	O351	O	0.130625	0.046339	-0.001209
	H352	H	0.133045	0.049555	-0.013699
	H353	H	0.133599	0.036310	-0.004791
	O354	O	1.463588	1.361784	0.373048
	H355	H	1.459980	1.372412	0.379593
	H356	H	1.461294	1.356164	0.382574
	O357	O	-0.202677	1.130218	-0.083668
	H358	H	-0.190138	1.124811	-0.085508
	H359	H	-0.208986	1.153957	-0.090918
	O360	O	0.475059	0.313364	0.704163
	H361	H	0.481138	0.317665	0.703643
	H362	H	0.472291	0.298246	0.724977
	O363	O	0.315616	0.494174	0.469446
	H364	H	0.303762	0.491660	0.465183
	H365	H	0.313418	0.506501	0.469043
	O366	O	0.363685	0.439860	0.694975
	H367	H	0.361956	0.453890	0.686962
	H368	H	0.357693	0.434151	0.686021
	O369	O	0.658434	0.601073	0.618087
	H370	H	0.654802	0.604884	0.643528
	H371	H	0.662876	0.621885	0.622852
	O372	O	0.661410	0.474102	0.575500
	H373	H	0.657961	0.456155	0.581257
	H374	H	0.648435	0.469717	0.592074
	O375	O	0.671545	0.524779	0.430304
	H376	H	0.692967	0.526375	0.414185
	H377	H	0.667759	0.506570	0.434184
	O378	O	0.586409	0.704495	0.690947
	H379	H	0.579700	0.699303	0.690963
	H380	H	0.573760	0.719343	0.685857
	O381	O	0.001469	0.105547	0.819301
	H382	H	-0.008000	0.114465	0.806692
	H383	H	0.014349	0.103674	0.812943
	O384	O	0.182066	1.111879	0.995094
	H385	H	0.167989	1.115411	0.981912
	H386	H	0.189918	1.106047	0.995860
	O387	O	0.955269	1.117033	-0.143131
	H388	H	0.941058	1.116434	-0.139807
	H389	H	0.958233	1.113439	-0.145336
	O390	O	0.603360	0.452884	0.386105
	H391	H	0.598424	0.437222	0.382336
	H392	H	0.593577	0.454754	0.383032
	O393	O	0.992892	-0.187789	1.178304
	H394	H	0.994520	-0.182898	1.165375
	H395	H	0.983779	-0.202305	1.190146
	O396	O	-0.112081	-0.039370	-0.112648
	H397	H	-0.124714	-0.027066	-0.123672
	H398	H	-0.115316	-0.035029	-0.099075
	O399	O	0.876915	0.053126	0.147605
	H400	H	0.890470	0.047773	0.146137
	H401	H	0.868203	0.055525	0.154354
	O402	O	0.515947	0.340209	1.536287
	H403	H	0.521835	0.340498	1.535041
	H404	H	0.524306	0.327860	1.542262
	O405	O	-0.121090	-0.081957	0.180051
	H406	H	-0.101638	-0.075264	0.167045
	H407	H	-0.118972	-0.078014	0.169123
	O408	O	0.932396	1.173398	1.091180
	H409	H	0.936635	1.169998	1.097598
	H410	H	0.943476	1.161282	1.096072
	O411	O	1.493080	0.600740	-0.502672
	H412	H	1.473604	0.594526	-0.498058
	H413	H	1.502922	0.623193	-0.502553
	O414	O	0.059842	0.199465	0.966663
	H415	H	0.056953	0.205142	0.969745
	H416	H	0.060324	0.192572	0.952682
	O417	O	0.885817	-0.001973	0.943720
	H418	H	0.891443	-0.019802	0.949549
	H419	H	0.882864	-0.001438	0.941199
	O420	O	-0.036023	0.965143	0.050911
	H421	H	-0.047262	0.974468	0.048963
	H422	H	-0.027957	0.973986	0.044999
	O423	O	1.191785	0.181393	0.158117
	H424	H	1.193361	0.178078	0.132519
	H425	H	1.163490	0.189319	0.153668
	O426	O	0.033108	0.195813	1.186483
	H427	H	0.038256	0.211763	1.203932
	H428	H	0.014203	0.183471	1.184769
	O429	O	0.108115	0.070611	0.800342
	H430	H	0.111522	0.082876	0.787717
	H431	H	0.114658	0.069893	0.811480
