data_Molecule from HDF5

_cell_length_a		16.352435
_cell_length_b		16.270949
_cell_length_c		16.314871
_cell_angle_alpha	89.859673
_cell_angle_beta	90.049115
_cell_angle_gamma	90.097522
_symmetry_space_group_name_H-M	'P 1'
_symmetry_Int_Tables_number		1

loop_
	_symmetry_equiv_pos_as_xyz
	x,y,z

loop_
	_atom_site_label
	_atom_site_type_symbol
	_atom_site_fract_x
	_atom_site_fract_y
	_atom_site_fract_z
	H0	H	0.405054	0.843730	0.708705
	H1	H	0.599651	0.172447	0.704839
	H2	H	0.601679	0.843706	0.279690
	H3	H	0.405118	0.171165	0.278105
	H4	H	0.718155	0.410347	0.829705
	H5	H	0.719805	0.606677	0.156164
	H6	H	0.288597	0.608227	0.829969
	H7	H	0.288583	0.408660	0.155974
	H8	H	0.839920	0.721251	0.396127
	H9	H	0.167277	0.721245	0.590358
	H10	H	0.839972	0.293572	0.591197
	H11	H	0.166758	0.293244	0.395582
	H12	H	0.840621	0.408428	0.708647
	H13	H	0.166579	0.606006	0.708332
	H14	H	0.840993	0.606383	0.277321
	H15	H	0.167203	0.409930	0.278863
	H16	H	0.407548	0.721863	0.829983
	H17	H	0.601214	0.720290	0.157888
	H18	H	0.600624	0.294911	0.829160
	H19	H	0.406951	0.293995	0.157287
	H20	H	0.717553	0.843964	0.396647
	H21	H	0.718330	0.171107	0.592181
	H22	H	0.288758	0.843607	0.592202
	H23	H	0.289298	0.171778	0.394804
	H24	H	0.905081	0.344234	0.207772
	H25	H	0.102479	0.672019	0.205995
	H26	H	0.101033	0.343981	0.780288
	H27	H	0.906132	0.671467	0.778083
	H28	H	0.218478	0.909755	0.330693
	H29	H	0.219839	0.107049	0.657443
	H30	H	0.788003	0.107876	0.330690
	H31	H	0.787660	0.907186	0.656447
	H32	H	0.341040	0.222029	0.895232
	H33	H	0.667206	0.222648	0.091554
	H34	H	0.340478	0.793041	0.090724
	H35	H	0.667265	0.792805	0.895403
	H36	H	0.340193	0.907859	0.208554
	H37	H	0.666400	0.105885	0.208693
	H38	H	0.341250	0.106496	0.779015
	H39	H	0.666630	0.909593	0.778870
	H40	H	0.907230	0.221116	0.329921
	H41	H	0.101201	0.221248	0.658047
	H42	H	0.101037	0.795107	0.329426
	H43	H	0.904943	0.792059	0.657158
	H44	H	0.218832	0.344647	0.893845
	H45	H	0.218857	0.671123	0.091231
	H46	H	0.789267	0.344117	0.091394
	H47	H	0.789658	0.671297	0.892998
	H48	H	0.415243	0.120179	0.580107
	H49	H	0.603317	0.889754	0.584286
	H50	H	0.595462	0.123186	0.399392
	H51	H	0.403849	0.888533	0.397907
	H52	H	0.595987	0.416450	0.108404
	H53	H	0.600843	0.603115	0.875429
	H54	H	0.409205	0.605856	0.111254
	H55	H	0.417695	0.413029	0.878963
	H56	H	0.124082	0.607148	0.390317
	H57	H	0.886126	0.600283	0.592648
	H58	H	0.122455	0.408180	0.591222
	H59	H	0.888977	0.413901	0.401486
	H60	H	0.117417	0.413776	0.580019
	H61	H	0.887543	0.605891	0.583105
	H62	H	0.119733	0.608098	0.407594
	H63	H	0.888183	0.416621	0.398506
	H64	H	0.405984	0.595098	0.109066
	H65	H	0.597686	0.597254	0.878654
	H66	H	0.596342	0.414426	0.108763
	H67	H	0.405334	0.410532	0.874022
	H68	H	0.596584	0.124003	0.401642
	H69	H	0.594469	0.889557	0.594009
	H70	H	0.401415	0.126186	0.584763
	H71	H	0.416236	0.892000	0.397164
	H72	H	0.919562	0.625639	0.098440
	H73	H	0.102357	0.386950	0.096694
	H74	H	0.093115	0.621296	0.907294
	H75	H	0.910397	0.388345	0.891920
	H76	H	0.097851	0.915024	0.609728
	H77	H	0.098875	0.093085	0.379815
	H78	H	0.914878	0.101998	0.609014
	H79	H	0.910767	0.916035	0.378013
	H80	H	0.619556	0.097828	0.899444
	H81	H	0.387743	0.096770	0.089686
	H82	H	0.622548	0.906285	0.090015
	H83	H	0.392094	0.918445	0.908595
	H84	H	0.616462	0.915716	0.078802
	H85	H	0.386053	0.105898	0.088928
	H86	H	0.621958	0.102903	0.896451
	H87	H	0.387499	0.919171	0.894580
	H88	H	0.906710	0.104949	0.612137
	H89	H	0.089452	0.103491	0.379368
	H90	H	0.095542	0.916048	0.609116
	H91	H	0.910367	0.915869	0.378383
	H92	H	0.104780	0.626918	0.900141
	H93	H	0.084968	0.395131	0.086966
	H94	H	0.917876	0.618386	0.072048
	H95	H	0.918119	0.394801	0.903715
	H96	H	0.413347	0.125636	0.594557
	H97	H	0.591551	0.894327	0.582408
	H98	H	0.597654	0.124732	0.399245
	H99	H	0.409800	0.893326	0.408237
	H100	H	0.597796	0.415678	0.109016
	H101	H	0.593701	0.603668	0.878160
	H102	H	0.416873	0.598839	0.107110
	H103	H	0.408903	0.422801	0.879073
	H104	H	0.116886	0.592596	0.398634
	H105	H	0.890331	0.595768	0.583842
	H106	H	0.118891	0.421051	0.591094
	H107	H	0.886526	0.412695	0.398299
	H108	H	0.896413	0.628265	0.084811
	H109	H	0.103197	0.392254	0.076075
	H110	H	0.092150	0.624640	0.893130
	H111	H	0.903146	0.390961	0.905422
	H112	H	0.095878	0.913152	0.610175
	H113	H	0.102510	0.106019	0.375915
	H114	H	0.907640	0.096184	0.609606
	H115	H	0.910602	0.915905	0.378498
	H116	H	0.619232	0.103026	0.902423
	H117	H	0.389607	0.101005	0.081365
	H118	H	0.618884	0.920901	0.093614
	H119	H	0.386477	0.906384	0.901785
	C120	C	0.381702	0.015703	0.615179
	C121	C	0.624633	0.999244	0.614792
	C122	C	0.624910	0.015765	0.372243
	C123	C	0.381928	0.999615	0.372482
	C124	C	0.624939	0.386997	0.000984
	C125	C	0.626114	0.629494	0.985303
	C126	C	0.382338	0.629202	0.001463
	C127	C	0.382286	0.386527	0.985000
	C128	C	0.012072	0.630503	0.370818
	C129	C	0.995754	0.628915	0.614500
	C130	C	0.011536	0.386321	0.615006
	C131	C	0.995605	0.386298	0.371371
	C132	C	0.882751	0.515778	0.113710
	C133	C	0.125468	0.499615	0.114518
	C134	C	0.124863	0.516011	0.872077
	C135	C	0.882302	0.499688	0.871495
	C136	C	0.125111	0.886637	0.501641
	C137	C	0.125352	0.129220	0.486349
	C138	C	0.881402	0.129610	0.502234
	C139	C	0.882215	0.886570	0.485957
	C140	C	0.512166	0.129567	0.871408
	C141	C	0.495634	0.129484	0.114868
	C142	C	0.511711	0.885292	0.115948
	C143	C	0.496175	0.886159	0.872659
	C144	C	0.384390	0.892441	0.670681
	C145	C	0.621490	0.122989	0.668704
	C146	C	0.622199	0.892504	0.317637
	C147	C	0.384836	0.122699	0.316774
	C148	C	0.680271	0.389681	0.878255
	C149	C	0.681592	0.627196	0.107751
	C150	C	0.327118	0.627451	0.878611
	C151	C	0.327230	0.388494	0.107754
	C152	C	0.888854	0.684142	0.374597
	C153	C	0.118571	0.683704	0.611449
	C154	C	0.888515	0.331804	0.611698
	C155	C	0.118281	0.331549	0.374880
	C156	C	0.888927	0.388781	0.670198
	C157	C	0.118122	0.626744	0.670175
	C158	C	0.889381	0.627181	0.315677
	C159	C	0.118592	0.389623	0.317124
	C160	C	0.385534	0.684569	0.878639
	C161	C	0.622684	0.683627	0.108564
	C162	C	0.621983	0.332340	0.877982
	C163	C	0.385658	0.331392	0.108087
	C164	C	0.679982	0.892766	0.375375
	C165	C	0.680180	0.122535	0.612446
	C166	C	0.326615	0.892393	0.612849
	C167	C	0.327168	0.122847	0.374570
	C168	C	0.884581	0.392911	0.169558
	C169	C	0.123222	0.622653	0.169042
	C170	C	0.121852	0.392824	0.817887
	C171	C	0.885594	0.622726	0.816177
	C172	C	0.180417	0.889282	0.379121
	C173	C	0.181202	0.127022	0.608730
	C174	C	0.826440	0.127582	0.379331
	C175	C	0.826572	0.887806	0.608236
	C176	C	0.389763	0.184168	0.874638
	C177	C	0.618546	0.184348	0.112218
	C178	C	0.389179	0.830384	0.112280
	C179	C	0.618742	0.831524	0.875358
	C180	C	0.389019	0.887485	0.170757
	C181	C	0.617937	0.126904	0.170752
	C182	C	0.389871	0.126918	0.816770
	C183	C	0.618221	0.889090	0.817055
	C184	C	0.885266	0.184173	0.378946
	C185	C	0.122377	0.183773	0.609099
	C186	C	0.121920	0.832460	0.378569
	C187	C	0.884913	0.830720	0.608597
	C188	C	0.180327	0.393127	0.874289
	C189	C	0.180936	0.622336	0.111858
	C190	C	0.827092	0.392872	0.111881
	C191	C	0.827642	0.622500	0.873086
	C192	C	0.403579	0.101630	0.592995
	C193	C	0.602922	0.913433	0.593172
	C194	C	0.602973	0.101668	0.393679
	C195	C	0.403608	0.913582	0.394661
	C196	C	0.603162	0.409163	0.086599
	C197	C	0.603877	0.607754	0.899563
	C198	C	0.404191	0.606614	0.087050
	C199	C	0.404227	0.408901	0.899525
	C200	C	0.097888	0.608967	0.392241
	C201	C	0.910094	0.607031	0.592870
	C202	C	0.097306	0.407836	0.593659
	C203	C	0.909963	0.408066	0.392975
	C204	C	0.904656	0.601731	0.091591
	C205	C	0.103396	0.413587	0.092707
	C206	C	0.103211	0.602029	0.893700
	C207	C	0.904213	0.413733	0.893874
	C208	C	0.103073	0.908300	0.587637
	C209	C	0.103364	0.107268	0.400465
	C210	C	0.903278	0.107621	0.588172
	C211	C	0.904255	0.909211	0.400261
	C212	C	0.598092	0.107781	0.893115
	C213	C	0.409775	0.107646	0.093154
	C214	C	0.597281	0.907694	0.093941
	C215	C	0.410656	0.908280	0.895222
	Zn216	Zn	0.503757	0.007847	0.743760
	Zn217	Zn	0.503166	0.007180	0.243834
	Zn218	Zn	0.754431	0.507970	-0.007016
	Zn219	Zn	0.253232	0.507701	-0.007389
	Zn220	Zn	0.003758	0.758307	0.493517
	Zn221	Zn	0.003365	0.257842	0.493995
	Zn222	Zn	0.003785	0.507348	0.743611
	Zn223	Zn	0.003913	0.507725	0.242573
	Zn224	Zn	0.504107	0.756975	-0.006204
	Zn225	Zn	0.504321	0.257895	-0.007030
	Zn226	Zn	0.753336	0.007857	0.494248
	Zn227	Zn	0.253521	0.007518	0.493757
	N228	N	0.417855	0.970124	0.672407
	N229	N	0.587544	0.045586	0.670303
	N230	N	0.588693	0.970100	0.315537
	N231	N	0.417973	0.045066	0.315114
	N232	N	0.682284	0.422799	0.955844
	N233	N	0.683797	0.594377	0.030249
	N234	N	0.325085	0.593778	0.956063
	N235	N	0.324779	0.421853	0.030309
	N236	N	0.966019	0.686316	0.408071
	N237	N	0.041455	0.685341	0.577701
	N238	N	0.965570	0.330158	0.578068
	N239	N	0.040930	0.329454	0.408060
	N240	N	0.966446	0.421773	0.672318
	N241	N	0.040931	0.593200	0.671910
	N242	N	0.966986	0.594790	0.313033
	N243	N	0.041264	0.422750	0.314836
	N244	N	0.419207	0.685695	0.955893
	N245	N	0.589102	0.685392	0.031189
	N246	N	0.588343	0.330713	0.955102
	N247	N	0.419457	0.330310	0.030891
	N248	N	0.681717	0.970353	0.408568
	N249	N	0.682194	0.044837	0.579545
	N250	N	0.325024	0.969854	0.579118
	N251	N	0.325800	0.045504	0.408753
	N252	N	0.918586	0.470286	0.170971
	N253	N	0.089225	0.545289	0.170661
	N254	N	0.088237	0.470065	0.816217
	N255	N	0.919157	0.545361	0.815197
	N256	N	0.182319	0.922288	0.456708
	N257	N	0.183148	0.093926	0.531234
	N258	N	0.824064	0.094357	0.456927
	N259	N	0.824907	0.921841	0.531040
	N260	N	0.467107	0.185902	0.907882
	N261	N	0.541592	0.185893	0.078315
	N262	N	0.466412	0.828995	0.078917
	N263	N	0.541733	0.829563	0.908981
	N264	N	0.466367	0.920935	0.172976
	N265	N	0.540531	0.093405	0.172330
	N266	N	0.467003	0.093612	0.814799
	N267	N	0.540842	0.922472	0.815496
	N268	N	0.918893	0.185481	0.456265
	N269	N	0.087965	0.185060	0.532032
	N270	N	0.088315	0.830734	0.455814
	N271	N	0.918802	0.829887	0.531445
	N272	N	0.182041	0.470744	0.907529
	N273	N	0.182640	0.544659	0.078778
	N274	N	0.826180	0.470174	0.077665
	N275	N	0.825327	0.544923	0.906605
	O276	O	0.987211	-0.087359	1.070270
	H277	H	0.985273	-0.090583	1.059062
	H278	H	0.978535	-0.085472	1.074046
	O279	O	-0.017109	-0.031176	1.010828
	H280	H	-0.016134	-0.037616	1.020985
	H281	H	-0.011507	-0.045177	1.017628
	O282	O	1.000693	0.945597	0.059782
	H283	H	0.997831	0.953242	0.060437
	H284	H	1.003225	0.929777	0.074023
	O285	O	-0.024886	-0.057991	0.999906
	H286	H	-0.028477	-0.058715	0.990393
	H287	H	-0.022078	-0.041394	0.993185
