data_Molecule from HDF5

_cell_length_a		16.607942
_cell_length_b		16.477790
_cell_length_c		16.867500
_cell_angle_alpha	90.082830
_cell_angle_beta	89.904393
_cell_angle_gamma	89.870209
_symmetry_space_group_name_H-M	'P 1'
_symmetry_Int_Tables_number		1

loop_
	_symmetry_equiv_pos_as_xyz
	x,y,z

loop_
	_atom_site_label
	_atom_site_type_symbol
	_atom_site_fract_x
	_atom_site_fract_y
	_atom_site_fract_z
	H0	H	0.394373	0.855919	0.697374
	H1	H	0.601239	0.171280	0.701389
	H2	H	0.602063	0.858914	0.259587
	H3	H	0.388382	0.169730	0.259402
	H4	H	0.720254	0.407767	0.829060
	H5	H	0.718236	0.621601	0.134213
	H6	H	0.273904	0.619065	0.826903
	H7	H	0.266744	0.401256	0.129021
	H8	H	0.839559	0.734165	0.378724
	H9	H	0.150503	0.734429	0.586254
	H10	H	0.838906	0.297047	0.580928
	H11	H	0.155179	0.299808	0.381687
	H12	H	0.841446	0.406538	0.703114
	H13	H	0.147051	0.625412	0.707255
	H14	H	0.840869	0.620804	0.260106
	H15	H	0.152841	0.411434	0.261939
	H16	H	0.392715	0.733728	0.825494
	H17	H	0.600501	0.737142	0.134414
	H18	H	0.602634	0.291131	0.827660
	H19	H	0.385051	0.285670	0.129285
	H20	H	0.716745	0.858373	0.375962
	H21	H	0.714538	0.173070	0.583357
	H22	H	0.280382	0.855660	0.581085
	H23	H	0.278269	0.173056	0.380849
	H24	H	0.890295	0.357128	0.201147
	H25	H	0.099473	0.670704	0.198978
	H26	H	0.103124	0.358652	0.757775
	H27	H	0.886242	0.668112	0.757558
	H28	H	0.216524	0.910166	0.327906
	H29	H	0.213814	0.117287	0.636695
	H30	H	0.773541	0.121525	0.326934
	H31	H	0.772524	0.909087	0.633616
	H32	H	0.341201	0.235825	0.876371
	H33	H	0.651605	0.232894	0.083269
	H34	H	0.337392	0.799002	0.079852
	H35	H	0.653529	0.798304	0.881640
	H36	H	0.339315	0.910052	0.200641
	H37	H	0.647737	0.123839	0.205501
	H38	H	0.341069	0.121093	0.759038
	H39	H	0.652247	0.910300	0.761719
	H40	H	0.892090	0.235508	0.325875
	H41	H	0.097181	0.234759	0.635724
	H42	H	0.099113	0.793854	0.328187
	H43	H	0.889232	0.792069	0.633952
	H44	H	0.217018	0.358274	0.874492
	H45	H	0.212104	0.671887	0.080765
	H46	H	0.777757	0.355562	0.083474
	H47	H	0.774923	0.670755	0.877805
	H48	H	0.403836	0.126872	0.566165
	H49	H	0.580000	0.904694	0.570295
	H50	H	0.582363	0.127068	0.392937
	H51	H	0.401491	0.901559	0.395902
	H52	H	0.583314	0.424815	0.090039
	H53	H	0.581762	0.603826	0.872063
	H54	H	0.404781	0.599779	0.088270
	H55	H	0.411004	0.430656	0.873318
	H56	H	0.109742	0.605035	0.385616
	H57	H	0.882184	0.598842	0.575734
	H58	H	0.108669	0.427473	0.574719
	H59	H	0.883374	0.427961	0.385662
	H60	H	0.108136	0.424189	0.570349
	H61	H	0.883411	0.606453	0.567414
	H62	H	0.107977	0.605193	0.392387
	H63	H	0.882278	0.422037	0.387541
	H64	H	0.407492	0.608385	0.090240
	H65	H	0.588481	0.607616	0.869127
	H66	H	0.585464	0.425079	0.091094
	H67	H	0.410104	0.424656	0.870890
	H68	H	0.583087	0.126870	0.392568
	H69	H	0.588249	0.902791	0.565284
	H70	H	0.401096	0.131053	0.576570
	H71	H	0.404068	0.898007	0.383022
	H72	H	0.906026	0.626158	0.067946
	H73	H	0.084206	0.400293	0.069358
	H74	H	0.091743	0.629771	0.890838
	H75	H	0.905859	0.402484	0.897043
	H76	H	0.087649	0.926847	0.592386
	H77	H	0.085429	0.106851	0.371284
	H78	H	0.904996	0.108879	0.591718
	H79	H	0.908977	0.932518	0.374793
	H80	H	0.609921	0.108638	0.892906
	H81	H	0.381693	0.107726	0.069457
	H82	H	0.605227	0.930411	0.068310
	H83	H	0.381852	0.928577	0.882182
	H84	H	0.609268	0.927030	0.077602
	H85	H	0.388797	0.096807	0.060453
	H86	H	0.604820	0.094823	0.893158
	H87	H	0.379868	0.918954	0.884433
	H88	H	0.902735	0.101969	0.589917
	H89	H	0.090836	0.108328	0.368639
	H90	H	0.085024	0.923940	0.591588
	H91	H	0.912969	0.921122	0.370886
	H92	H	0.073874	0.626102	0.884434
	H93	H	0.081354	0.400541	0.072400
	H94	H	0.900646	0.629866	0.074032
	H95	H	0.905935	0.399293	0.887678
	H96	H	0.411568	0.127376	0.574202
	H97	H	0.587633	0.899641	0.574357
	H98	H	0.582732	0.126851	0.391945
	H99	H	0.413725	0.903611	0.390467
	H100	H	0.584651	0.426810	0.089621
	H101	H	0.589181	0.599626	0.871028
	H102	H	0.399031	0.606387	0.092130
	H103	H	0.404984	0.428545	0.871110
	H104	H	0.107516	0.599286	0.388851
	H105	H	0.887577	0.596250	0.566159
	H106	H	0.106585	0.428979	0.570314
	H107	H	0.884901	0.426737	0.391721
	H108	H	0.909141	0.627320	0.076182
	H109	H	0.080918	0.402550	0.068581
	H110	H	0.078841	0.621369	0.902118
	H111	H	0.914166	0.403564	0.891884
	H112	H	0.088552	0.922719	0.593017
	H113	H	0.089924	0.102601	0.371286
	H114	H	0.908786	0.103841	0.588323
	H115	H	0.900798	0.924549	0.368856
	H116	H	0.610850	0.100490	0.881510
	H117	H	0.385314	0.092830	0.075030
	H118	H	0.609214	0.920262	0.068807
	H119	H	0.383737	0.925494	0.891631
	C120	C	0.375259	0.023181	0.602078
	C121	C	0.617082	1.006441	0.601347
	C122	C	0.616209	0.023449	0.359763
	C123	C	0.374500	1.005412	0.359599
	C124	C	0.618062	0.392138	-0.010575
	C125	C	0.617633	0.635899	0.972714
	C126	C	0.373094	0.636171	-0.011557
	C127	C	0.373802	0.392401	0.971320
	C128	C	0.004820	0.635482	0.358850
	C129	C	0.986247	0.634614	0.602497
	C130	C	0.004442	0.394160	0.602098
	C131	C	0.987722	0.394359	0.359046
	C132	C	0.873749	0.523009	0.103202
	C133	C	0.115288	0.504946	0.100763
	C134	C	0.115179	0.522747	0.859231
	C135	C	0.875012	0.505204	0.860179
	C136	C	0.118241	0.892675	0.490708
	C137	C	0.118425	0.136877	0.473065
	C138	C	0.874120	0.136901	0.488385
	C139	C	0.874507	0.893357	0.472777
	C140	C	0.505367	0.134631	0.858118
	C141	C	0.486972	0.133792	0.101331
	C142	C	0.504312	0.893732	0.102205
	C143	C	0.486516	0.893266	0.857838
	C144	C	0.375282	0.903714	0.658782
	C145	C	0.619103	0.124491	0.660983
	C146	C	0.619699	0.905800	0.299774
	C147	C	0.371424	0.123563	0.300437
	C148	C	0.679294	0.389345	0.874451
	C149	C	0.677411	0.639116	0.088216
	C150	C	0.314097	0.637527	0.872719
	C151	C	0.309213	0.385408	0.084244
	C152	C	0.886758	0.694818	0.359226
	C153	C	0.103200	0.695145	0.604681
	C154	C	0.886251	0.335457	0.601422
	C155	C	0.107063	0.337644	0.360922
	C156	C	0.887536	0.389892	0.661982
	C157	C	0.101578	0.640877	0.664964
	C158	C	0.887649	0.638572	0.300246
	C159	C	0.106095	0.393343	0.301636
	C160	C	0.373114	0.694505	0.872172
	C161	C	0.618967	0.696835	0.088104
	C162	C	0.620859	0.331521	0.873876
	C163	C	0.368060	0.327952	0.084148
	C164	C	0.676670	0.905458	0.357566
	C165	C	0.675304	0.125408	0.602340
	C166	C	0.318738	0.903427	0.600764
	C167	C	0.316398	0.124780	0.360306
	C168	C	0.872409	0.404206	0.161259
	C169	C	0.117368	0.623879	0.158970
	C170	C	0.119945	0.405727	0.798293
	C171	C	0.869923	0.622121	0.799128
	C172	C	0.176694	0.891373	0.374226
	C173	C	0.175003	0.136809	0.589916
	C174	C	0.814176	0.139387	0.372887
	C175	C	0.813471	0.890899	0.587808
	C176	C	0.387850	0.195354	0.857340
	C177	C	0.604361	0.193763	0.102744
	C178	C	0.385242	0.836857	0.100440
	C179	C	0.605733	0.836366	0.860583
	C180	C	0.386280	0.892004	0.160557
	C181	C	0.602341	0.139694	0.163319
	C182	C	0.387979	0.138568	0.798873
	C183	C	0.605184	0.891771	0.800965
	C184	C	0.873270	0.195982	0.372330
	C185	C	0.116802	0.194968	0.589487
	C186	C	0.118691	0.833308	0.374524
	C187	C	0.871764	0.832850	0.587993
	C188	C	0.176493	0.405154	0.856370
	C189	C	0.173738	0.623967	0.100610
	C190	C	0.816053	0.403664	0.103097
	C191	C	0.814464	0.623234	0.858527
	C192	C	0.398716	0.106665	0.578946
	C193	C	0.592348	0.923970	0.576977
	C194	C	0.590116	0.105502	0.385216
	C195	C	0.399519	0.922585	0.383002
	C196	C	0.591983	0.418138	0.069428
	C197	C	0.593495	0.610719	0.891784
	C198	C	0.396878	0.611709	0.069344
	C199	C	0.401161	0.420123	0.892303
	C200	C	0.087168	0.610328	0.382478
	C201	C	0.905475	0.607957	0.577141
	C202	C	0.086364	0.419664	0.578424
	C203	C	0.905079	0.418463	0.381882
	C204	C	0.898193	0.606080	0.079503
	C205	C	0.089739	0.422601	0.076835
	C206	C	0.088905	0.604540	0.885170
	C207	C	0.901190	0.423122	0.885060
	C208	C	0.094091	0.917569	0.571393
	C209	C	0.095332	0.113048	0.391566
	C210	C	0.898479	0.111929	0.569245
	C211	C	0.900167	0.918920	0.392432
	C212	C	0.587285	0.108756	0.882241
	C213	C	0.406204	0.106841	0.075494
	C214	C	0.586554	0.918677	0.078673
	C215	C	0.403464	0.917247	0.879738
	Zn216	Zn	0.496257	0.014148	0.729578
	Zn217	Zn	0.495361	0.014637	0.231390
	Zn218	Zn	0.747462	0.514061	-0.018403
	Zn219	Zn	0.243548	0.513680	-0.020328
	Zn220	Zn	-0.004236	0.762931	0.481421
	Zn221	Zn	-0.003887	0.266367	0.479996
	Zn222	Zn	-0.005204	0.514106	0.730872
	Zn223	Zn	-0.004514	0.514333	0.229791
	Zn224	Zn	0.495333	0.765489	-0.019874
	Zn225	Zn	0.496414	0.262375	-0.019598
	Zn226	Zn	0.744581	0.015552	0.480008
	Zn227	Zn	0.247607	0.014539	0.481682
	N228	N	0.409418	0.979535	0.660103
	N229	N	0.583517	0.049380	0.660571
	N230	N	0.582605	0.980271	0.300925
	N231	N	0.406562	0.048062	0.299443
	N232	N	0.677762	0.426173	0.947405
	N233	N	0.676605	0.601725	0.015482
	N234	N	0.313690	0.602034	0.946273
	N235	N	0.312689	0.424889	0.012948
	N236	N	0.960969	0.693109	0.394983
	N237	N	0.030401	0.691630	0.566407
	N238	N	0.960161	0.337618	0.564972
	N239	N	0.032383	0.337752	0.395605
	N240	N	0.962134	0.425276	0.662714
	N241	N	0.027849	0.603846	0.663862
	N242	N	0.962185	0.602364	0.299798
	N243	N	0.030650	0.427533	0.299837
	N244	N	0.408998	0.694069	0.945222
	N245	N	0.582274	0.694968	0.015267
	N246	N	0.583475	0.333023	0.946401
	N247	N	0.407822	0.332282	0.013029
	N248	N	0.674685	0.979854	0.394238
	N249	N	0.674354	0.050823	0.566071
	N250	N	0.318320	0.978944	0.566417
	N251	N	0.318095	0.050213	0.396321
	N252	N	0.907414	0.479780	0.161803
	N253	N	0.081784	0.548711	0.159468
	N254	N	0.082483	0.479936	0.799975
	N255	N	0.906917	0.547592	0.800029
	N256	N	0.176942	0.927298	0.447568
	N257	N	0.176330	0.101555	0.516388
	N258	N	0.814297	0.103518	0.446292
	N259	N	0.814721	0.927711	0.514888
	N260	N	0.461994	0.193213	0.893274
	N261	N	0.531296	0.190645	0.064988
	N262	N	0.459754	0.837445	0.065056
	N263	N	0.530681	0.836611	0.894872
	N264	N	0.461574	0.926327	0.162132
	N265	N	0.528250	0.103232	0.162702
	N266	N	0.462230	0.101757	0.798972
	N267	N	0.529826	0.926018	0.798696
	N268	N	0.909822	0.194896	0.445306
	N269	N	0.082563	0.195313	0.515666
	N270	N	0.083251	0.833549	0.447925
	N271	N	0.908785	0.834164	0.515332
	N272	N	0.173655	0.479069	0.893693
	N273	N	0.173014	0.548924	0.065406
	N274	N	0.816673	0.478701	0.067791
	N275	N	0.817478	0.549368	0.895845
	O276	O	-0.003157	1.113218	0.105072
	H277	H	0.004612	1.128029	0.101941
	H278	H	0.004802	1.102918	0.108455
	O279	O	0.854750	0.805862	1.011186
	H280	H	0.864541	0.810369	1.024271
	H281	H	0.843699	0.802351	1.015822
	O282	O	0.915682	0.181330	1.060101
	H283	H	0.933510	0.174201	1.047954
	H284	H	0.929672	0.190486	1.075656
	O285	O	0.312266	0.515840	0.557347
	H286	H	0.314110	0.538868	0.544847
	H287	H	0.319681	0.519001	0.539499
	O288	O	0.486702	0.420319	0.485309
	H289	H	0.470901	0.417575	0.502170
	H290	H	0.502218	0.424808	0.488660
	O291	O	0.525713	0.744508	0.425213
	H292	H	0.513994	0.743704	0.446061
	H293	H	0.529674	0.734402	0.444795
	O294	O	0.941503	0.136414	0.926343
	H295	H	0.923872	0.133782	0.922135
	H296	H	0.948996	0.132806	0.922380
	O297	O	0.466409	0.294741	0.708335
	H298	H	0.459077	0.269616	0.729328
	H299	H	0.458922	0.305599	0.713843
	O300	O	0.138824	-0.152334	0.908440
	H301	H	0.129512	-0.129316	0.897501
	H302	H	0.154666	-0.176443	0.914157
	O303	O	0.311257	0.321452	0.681197
	H304	H	0.291787	0.306941	0.707464
	H305	H	0.321331	0.352903	0.685023
	O306	O	0.717297	0.722474	0.530248
	H307	H	0.716400	0.716095	0.555450
	H308	H	0.742272	0.749910	0.524886
	O309	O	0.457709	0.734400	0.251464
	H310	H	0.464390	0.754464	0.250432
	H311	H	0.471223	0.747587	0.256449
	O312	O	0.386884	0.390672	0.479097
	H313	H	0.381599	0.379085	0.498492
	H314	H	0.401786	0.405292	0.483689
	O315	O	0.712550	0.493038	1.255209
	H316	H	0.738013	0.484113	1.230324
	H317	H	0.708909	0.486374	1.272837
	O318	O	0.498105	0.388780	0.442765
	H319	H	0.486904	0.380768	0.459043
	H320	H	0.499372	0.390232	0.460070
	O321	O	-0.586838	0.518107	0.408633
	H322	H	-0.589748	0.509237	0.401807
	H323	H	-0.592181	0.509000	0.400661
	O324	O	1.197947	0.815190	-0.232849
	H325	H	1.155511	0.815926	-0.219421
	H326	H	1.206341	0.858207	-0.229325
	O327	O	-0.223611	0.030405	1.038344
	H328	H	-0.227246	0.030609	1.047721
	H329	H	-0.219532	0.029539	1.036634
	O330	O	0.418390	0.459160	0.237227
	H331	H	0.447351	0.460640	0.235430
	H332	H	0.449559	0.452076	0.237596
	O333	O	0.273794	0.294012	0.523502
	H334	H	0.268557	0.286510	0.547184
	H335	H	0.259329	0.273899	0.546678
	O336	O	0.527202	0.664674	0.567778
	H337	H	0.544062	0.658784	0.584955
	H338	H	0.514189	0.651031	0.570090
	O339	O	1.058549	0.043771	0.799810
	H340	H	1.057533	0.042977	0.797721
	H341	H	1.038316	0.035617	0.797333
	O342	O	0.287752	-0.283164	0.260979
	H343	H	0.322480	-0.297841	0.260254
	H344	H	0.294659	-0.317665	0.263581
	O345	O	-0.221573	1.054998	0.755532
	H346	H	-0.215426	1.066464	0.750622
	H347	H	-0.234108	1.059452	0.742488
	O348	O	0.201299	0.002738	0.039797
	H349	H	0.201279	-0.009709	0.042508
	H350	H	0.186520	0.003783	0.018340
	O351	O	0.003160	-0.172100	0.958538
	H352	H	0.004182	-0.171317	0.969767
	H353	H	-0.008347	-0.166233	0.967990
	O354	O	0.170700	-0.172662	1.001093
	H355	H	0.185882	-0.182201	0.981571
	H356	H	0.176970	-0.160014	0.996664
	O357	O	0.710786	0.539404	0.702485
	H358	H	0.725549	0.566509	0.717065
	H359	H	0.720341	0.559918	0.706146
	O360	O	0.684544	0.327491	0.666622
	H361	H	0.659750	0.344268	0.661019
	H362	H	0.680904	0.348240	0.639827
	O363	O	0.214593	-0.020668	-0.241548
	H364	H	0.210265	-0.002071	-0.216181
	H365	H	0.238571	-0.017593	-0.267467
	O366	O	0.464835	0.719768	0.640198
	H367	H	0.479981	0.735741	0.648125
	H368	H	0.460354	0.724458	0.615234
	O369	O	0.965406	-0.201388	0.202947
	H370	H	0.935451	-0.216222	0.211692
	H371	H	0.950698	-0.214748	0.211446
	O372	O	1.067434	1.193841	-0.132969
	H373	H	1.063132	1.197184	-0.126185
	H374	H	1.056615	1.203097	-0.130594
	O375	O	1.014594	-0.196456	-0.239143
	H376	H	1.014219	-0.205892	-0.231095
	H377	H	1.020717	-0.207134	-0.237915
	O378	O	0.672817	0.687473	0.351592
	H379	H	0.669229	0.670650	0.365252
	H380	H	0.653228	0.690019	0.380537
	O381	O	0.215487	1.053182	1.202122
	H382	H	0.234864	1.035253	1.193793
	H383	H	0.219206	1.038034	1.205609
	O384	O	1.016832	0.039978	0.939134
	H385	H	1.012178	0.044869	0.932582
	H386	H	1.003907	0.046204	0.950492
	O387	O	1.306826	1.322383	0.280893
	H388	H	1.332985	1.336246	0.293888
	H389	H	1.325683	1.340934	0.302182
	O390	O	0.275665	0.548125	0.253087
	H391	H	0.276756	0.534808	0.229169
	H392	H	0.291029	0.526732	0.234428
	O393	O	0.704993	0.304675	0.268157
	H394	H	0.730359	0.274871	0.236360
	H395	H	0.686017	0.325462	0.261735
	O396	O	0.709184	0.299867	0.461213
	H397	H	0.720132	0.291930	0.429319
	H398	H	0.709764	0.286522	0.443577
	O399	O	0.014694	-0.028034	1.065725
	H400	H	0.011805	-0.028333	1.074119
	H401	H	0.013841	-0.027613	1.077407
	O402	O	0.182316	0.827953	0.180450
	H403	H	0.194767	0.806243	0.179986
	H404	H	0.183176	0.811327	0.177744
	O405	O	0.782615	-0.774681	1.764366
	H406	H	0.799038	-0.790215	1.772175
	H407	H	0.752498	-0.744957	1.736263
	O408	O	-0.182967	-0.073180	-0.018947
	H409	H	-0.187559	-0.075355	-0.007015
	H410	H	-0.184159	-0.067999	-0.013971
	O411	O	0.539640	0.454284	0.718076
	H412	H	0.539828	0.451934	0.722704
	H413	H	0.536350	0.466546	0.716583
	O414	O	0.976817	-0.136221	1.002330
	H415	H	0.977991	-0.135669	1.012401
	H416	H	0.974997	-0.129590	1.017320
	O417	O	0.306467	0.700758	0.672504
	H418	H	0.291604	0.712111	0.690432
	H419	H	0.303641	0.713488	0.655676
	O420	O	0.498479	0.641098	0.712236
	H421	H	0.477627	0.631781	0.711881
	H422	H	0.491246	0.661457	0.725511
	O423	O	-0.454505	-0.406314	1.252932
	H424	H	-0.458180	-0.402074	1.260444
	H425	H	-0.438111	-0.400469	1.263837
	O426	O	0.749989	0.764926	0.226583
	H427	H	0.741269	0.779792	0.232062
	H428	H	0.721021	0.736283	0.249189
	O429	O	1.029800	1.235099	1.207865
	H430	H	1.063739	1.237174	1.198801
	H431	H	1.045630	1.263352	1.233436
	O432	O	0.595027	0.441444	0.353507
	H433	H	0.592926	0.436171	0.360950
	H434	H	0.604759	0.441163	0.355884
	O435	O	0.205312	1.222445	0.003063
	H436	H	0.219532	1.233328	0.033019
	H437	H	0.196548	1.235457	0.020569
	O438	O	-0.212677	-0.087732	0.192484
	H439	H	-0.223306	-0.097902	0.213078
	H440	H	-0.217814	-0.068151	0.194700
	O441	O	0.206399	0.084631	-0.090010
	H442	H	0.211687	0.108390	-0.076198
	H443	H	0.192924	0.086798	-0.083245
	O444	O	0.275865	0.481420	0.705647
	H445	H	0.258674	0.491719	0.700536
	H446	H	0.255009	0.489047	0.702547
	O447	O	0.065172	0.961766	1.214680
	H448	H	0.074541	0.945325	1.212640
	H449	H	0.078420	0.944356	1.214734
	O450	O	-0.129664	1.035206	1.207123
	H451	H	-0.102203	1.038974	1.216687
	H452	H	-0.122794	1.041927	1.219435
	O453	O	0.505601	0.564295	0.445902
	H454	H	0.495074	0.563911	0.463594
	H455	H	0.498540	0.554075	0.447567
	O456	O	-0.148128	-0.009646	0.919639
	H457	H	-0.155853	-0.010453	0.939596
	H458	H	-0.157450	-0.013753	0.921690
	O459	O	0.719095	0.464064	0.545908
	H460	H	0.721788	0.457876	0.555976
	H461	H	0.713384	0.450598	0.547466
	O462	O	0.782282	0.225731	0.941034
	H463	H	0.772120	0.234975	0.918323
	H464	H	0.780669	0.242952	0.942868
	O465	O	1.270352	-0.265827	0.441991
	H466	H	1.261985	-0.262625	0.421373
	H467	H	1.252357	-0.248274	0.421977
	O468	O	0.389461	0.620808	0.610204
	H469	H	0.376587	0.613348	0.616099
	H470	H	0.367551	0.626838	0.617450
	O471	O	0.707953	0.724316	0.695184
	H472	H	0.670120	0.729888	0.688124
	H473	H	0.738534	0.758495	0.726893
	O474	O	-0.058806	0.964225	-0.257748
	H475	H	-0.061781	0.958724	-0.259139
	H476	H	-0.058258	0.947271	-0.254708
	O477	O	0.539034	0.320880	1.550335
	H478	H	0.533232	0.338445	1.565334
	H479	H	0.535664	0.304137	1.556935
	O480	O	0.518847	0.297780	0.250014
	H481	H	0.527589	0.286656	0.264367
	H482	H	0.523434	0.272319	0.247545
	O483	O	0.331309	0.487787	0.422615
	H484	H	0.329910	0.481781	0.421158
	H485	H	0.327692	0.500601	0.427752
	O486	O	1.724559	-0.442623	0.415676
	H487	H	1.731786	-0.464920	0.441523
	H488	H	1.718058	-0.432034	0.406924
	O489	O	1.201402	1.223013	0.187535
	H490	H	1.236168	1.252661	0.219669
	H491	H	1.210173	1.169514	0.195632
	O492	O	0.196541	0.212607	-0.218941
	H493	H	0.190260	0.210049	-0.204198
	H494	H	0.178206	0.195871	-0.207365
	O495	O	-0.195012	1.195161	1.169915
	H496	H	-0.177992	1.174627	1.161003
	H497	H	-0.173117	1.178658	1.149071
	O498	O	0.960348	1.231615	0.760125
	H499	H	0.965527	1.263992	0.733892
	H500	H	0.943365	1.217462	0.773133
	O501	O	0.807578	0.827560	0.791536
	H502	H	0.818408	0.850397	0.813202
	H503	H	0.833169	0.837606	0.808867
