data_Molecule from HDF5

_cell_length_a		16.462766
_cell_length_b		16.386954
_cell_length_c		16.502205
_cell_angle_alpha	89.963257
_cell_angle_beta	89.927496
_cell_angle_gamma	90.134081
_symmetry_space_group_name_H-M	'P 1'
_symmetry_Int_Tables_number		1

loop_
	_symmetry_equiv_pos_as_xyz
	x,y,z

loop_
	_atom_site_label
	_atom_site_type_symbol
	_atom_site_fract_x
	_atom_site_fract_y
	_atom_site_fract_z
	H0	H	0.394972	0.845534	0.720787
	H1	H	0.606942	0.163590	0.721459
	H2	H	0.606719	0.846637	0.278083
	H3	H	0.395205	0.162334	0.277461
	H4	H	0.725050	0.396892	0.843721
	H5	H	0.721487	0.612415	0.156956
	H6	H	0.278854	0.608794	0.841134
	H7	H	0.276504	0.397741	0.156709
	H8	H	0.843093	0.729096	0.395271
	H9	H	0.159714	0.724497	0.603427
	H10	H	0.842161	0.283372	0.605283
	H11	H	0.159932	0.287973	0.396793
	H12	H	0.842818	0.395964	0.724562
	H13	H	0.157749	0.609461	0.721103
	H14	H	0.842789	0.614086	0.277917
	H15	H	0.156457	0.399531	0.276610
	H16	H	0.396690	0.724253	0.839866
	H17	H	0.604386	0.726569	0.156878
	H18	H	0.606923	0.282995	0.842109
	H19	H	0.393040	0.282103	0.156718
	H20	H	0.722953	0.847445	0.394701
	H21	H	0.721155	0.164485	0.604486
	H22	H	0.279414	0.845402	0.604165
	H23	H	0.283535	0.164258	0.397527
	H24	H	0.892813	0.348395	0.222987
	H25	H	0.106127	0.665465	0.221414
	H26	H	0.103231	0.347933	0.779606
	H27	H	0.891048	0.663778	0.776613
	H28	H	0.224668	0.897456	0.342315
	H29	H	0.220866	0.107967	0.657451
	H30	H	0.776545	0.114148	0.343875
	H31	H	0.777337	0.896634	0.657848
	H32	H	0.342020	0.223904	0.895792
	H33	H	0.657240	0.227260	0.104905
	H34	H	0.340437	0.785504	0.100531
	H35	H	0.659982	0.784413	0.894604
	H36	H	0.342428	0.895712	0.222425
	H37	H	0.657861	0.110387	0.220510
	H38	H	0.342171	0.107090	0.780440
	H39	H	0.658248	0.897383	0.775846
	H40	H	0.897256	0.226244	0.342074
	H41	H	0.105427	0.226470	0.657707
	H42	H	0.109018	0.781315	0.342556
	H43	H	0.896108	0.783663	0.658306
	H44	H	0.219818	0.348055	0.894981
	H45	H	0.222765	0.664317	0.106118
	H46	H	0.777939	0.347341	0.105432
	H47	H	0.778190	0.664850	0.894839
	H48	H	0.408836	0.120001	0.593430
	H49	H	0.590172	0.891593	0.586183
	H50	H	0.591600	0.122158	0.401653
	H51	H	0.410768	0.889890	0.407662
	H52	H	0.591423	0.416175	0.113017
	H53	H	0.593227	0.592923	0.885988
	H54	H	0.411662	0.594849	0.112107
	H55	H	0.412423	0.413134	0.886483
	H56	H	0.108626	0.584904	0.415014
	H57	H	0.889358	0.591314	0.584936
	H58	H	0.108717	0.421250	0.581918
	H59	H	0.887461	0.418565	0.408897
	H60	H	0.113869	0.423286	0.599657
	H61	H	0.886888	0.590926	0.592884
	H62	H	0.115469	0.593005	0.402802
	H63	H	0.885506	0.413264	0.410657
	H64	H	0.409786	0.594009	0.111941
	H65	H	0.587117	0.589969	0.888593
	H66	H	0.586827	0.420505	0.109609
	H67	H	0.406404	0.416195	0.886217
	H68	H	0.578608	0.114131	0.411221
	H69	H	0.587344	0.891599	0.589396
	H70	H	0.415141	0.116788	0.590078
	H71	H	0.414989	0.891474	0.411604
	H72	H	0.907510	0.619449	0.086891
	H73	H	0.083505	0.394793	0.088521
	H74	H	0.090805	0.619264	0.914824
	H75	H	0.912990	0.394210	0.911447
	H76	H	0.097019	0.915761	0.614265
	H77	H	0.090692	0.093397	0.388304
	H78	H	0.907163	0.089089	0.612233
	H79	H	0.912441	0.918421	0.389129
	H80	H	0.612642	0.091332	0.911261
	H81	H	0.387074	0.095033	0.085418
	H82	H	0.610860	0.917046	0.084232
	H83	H	0.387061	0.910908	0.911198
	H84	H	0.613079	0.919655	0.092088
	H85	H	0.388918	0.087681	0.087619
	H86	H	0.614936	0.093469	0.907718
	H87	H	0.390884	0.917726	0.912375
	H88	H	0.917621	0.092630	0.609906
	H89	H	0.090285	0.099778	0.385692
	H90	H	0.087826	0.922745	0.609266
	H91	H	0.913426	0.919474	0.389327
	H92	H	0.090394	0.621569	0.907660
	H93	H	0.089518	0.394098	0.085306
	H94	H	0.911867	0.619794	0.092596
	H95	H	0.910521	0.393413	0.914338
	H96	H	0.409028	0.118343	0.585610
	H97	H	0.586328	0.893945	0.585976
	H98	H	0.594834	0.117787	0.418051
	H99	H	0.409254	0.890391	0.413321
	H100	H	0.584959	0.413827	0.111962
	H101	H	0.587340	0.596643	0.886185
	H102	H	0.410929	0.593257	0.110943
	H103	H	0.411566	0.419580	0.888586
	H104	H	0.113465	0.600554	0.416882
	H105	H	0.886140	0.598458	0.589025
	H106	H	0.116490	0.407343	0.591018
	H107	H	0.887914	0.416212	0.413963
	H108	H	0.914479	0.617954	0.085860
	H109	H	0.088651	0.391841	0.091777
	H110	H	0.084386	0.618328	0.911363
	H111	H	0.908792	0.392521	0.911462
	H112	H	0.085910	0.910911	0.612147
	H113	H	0.095736	0.096066	0.384967
	H114	H	0.910235	0.099661	0.615136
	H115	H	0.913734	0.917841	0.389024
	H116	H	0.613856	0.095467	0.911928
	H117	H	0.385246	0.092974	0.092716
	H118	H	0.614399	0.911637	0.090071
	H119	H	0.386898	0.916533	0.904840
	C120	C	0.378919	0.013277	0.621571
	C121	C	0.621111	0.997051	0.620360
	C122	C	0.621891	0.013528	0.377966
	C123	C	0.379899	0.995487	0.378433
	C124	C	0.621172	0.383719	0.007888
	C125	C	0.621229	0.626348	0.991264
	C126	C	0.378682	0.626029	0.007589
	C127	C	0.377277	0.383146	0.991053
	C128	C	0.008666	0.627037	0.379080
	C129	C	0.991585	0.626318	0.621753
	C130	C	0.008625	0.383511	0.622980
	C131	C	0.991425	0.384372	0.378615
	C132	C	0.878292	0.514732	0.121308
	C133	C	0.120496	0.497973	0.121357
	C134	C	0.119559	0.514458	0.879836
	C135	C	0.877794	0.497644	0.879211
	C136	C	0.122791	0.883708	0.507727
	C137	C	0.123249	0.127543	0.490904
	C138	C	0.878846	0.127299	0.508673
	C139	C	0.880146	0.884839	0.492959
	C140	C	0.509159	0.125287	0.878535
	C141	C	0.491340	0.125077	0.120786
	C142	C	0.508432	0.882985	0.120937
	C143	C	0.492357	0.882375	0.877010
	C144	C	0.376729	0.893342	0.681206
	C145	C	0.624313	0.116094	0.681147
	C146	C	0.624758	0.894158	0.318127
	C147	C	0.377373	0.114998	0.318190
	C148	C	0.683458	0.379916	0.890359
	C149	C	0.681076	0.629559	0.109790
	C150	C	0.319017	0.627374	0.888307
	C151	C	0.316734	0.379947	0.109317
	C152	C	0.890458	0.688974	0.376450
	C153	C	0.111482	0.685321	0.622863
	C154	C	0.889998	0.322574	0.624407
	C155	C	0.111463	0.326315	0.377278
	C156	C	0.890267	0.378991	0.683806
	C157	C	0.110616	0.628253	0.681426
	C158	C	0.890206	0.631503	0.318197
	C159	C	0.109743	0.382005	0.317500
	C160	C	0.377592	0.684664	0.887763
	C161	C	0.623029	0.687004	0.109531
	C162	C	0.624628	0.323039	0.889589
	C163	C	0.374821	0.322321	0.109409
	C164	C	0.682650	0.894691	0.375980
	C165	C	0.681289	0.116515	0.622972
	C166	C	0.318974	0.893382	0.623314
	C167	C	0.321788	0.116046	0.377680
	C168	C	0.874882	0.395641	0.182323
	C169	C	0.124063	0.617351	0.181641
	C170	C	0.121643	0.395284	0.819690
	C171	C	0.874173	0.616385	0.817577
	C172	C	0.183523	0.880288	0.389281
	C173	C	0.181545	0.127556	0.610285
	C174	C	0.817643	0.131076	0.390712
	C175	C	0.818021	0.880073	0.610497
	C176	C	0.389870	0.184357	0.877055
	C177	C	0.610103	0.186538	0.123171
	C178	C	0.388305	0.824201	0.120627
	C179	C	0.611866	0.823021	0.875627
	C180	C	0.389654	0.879082	0.181421
	C181	C	0.610264	0.128588	0.180880
	C182	C	0.389859	0.126143	0.819837
	C183	C	0.611172	0.879512	0.816519
	C184	C	0.877454	0.187133	0.389808
	C185	C	0.124038	0.186227	0.610286
	C186	C	0.125967	0.822117	0.389681
	C187	C	0.877398	0.823655	0.610906
	C188	C	0.179510	0.395454	0.877078
	C189	C	0.182036	0.617071	0.124080
	C190	C	0.817576	0.395223	0.123932
	C191	C	0.817583	0.616972	0.876276
	C192	C	0.403897	0.096580	0.596839
	C193	C	0.595285	0.914009	0.594634
	C194	C	0.595824	0.096305	0.403058
	C195	C	0.404636	0.912394	0.403551
	C196	C	0.595363	0.409419	0.090054
	C197	C	0.596333	0.600522	0.908466
	C198	C	0.403535	0.601308	0.090157
	C199	C	0.402874	0.408750	0.908567
	C200	C	0.091007	0.600504	0.404359
	C201	C	0.909021	0.600913	0.596323
	C202	C	0.091386	0.409784	0.598101
	C203	C	0.908398	0.408826	0.403882
	C204	C	0.903961	0.597639	0.095776
	C205	C	0.094590	0.415178	0.095879
	C206	C	0.095185	0.598127	0.904253
	C207	C	0.903571	0.414901	0.905091
	C208	C	0.097457	0.909202	0.590349
	C209	C	0.099248	0.103257	0.407951
	C210	C	0.904282	0.101400	0.590831
	C211	C	0.905733	0.911137	0.410621
	C212	C	0.592249	0.100556	0.903171
	C213	C	0.408792	0.099119	0.095883
	C214	C	0.591181	0.908798	0.096037
	C215	C	0.409545	0.907737	0.902172
	Zn216	Zn	0.501295	0.004373	0.749309
	Zn217	Zn	0.499976	0.004238	0.249625
	Zn218	Zn	0.749696	0.505868	-0.000042
	Zn219	Zn	0.248783	0.505882	0.000076
	Zn220	Zn	0.001010	0.755422	0.500593
	Zn221	Zn	0.001098	0.256023	0.499966
	Zn222	Zn	-0.001018	0.506035	0.751144
	Zn223	Zn	-0.000465	0.506538	0.249900
	Zn224	Zn	0.500265	0.754895	-0.001102
	Zn225	Zn	0.499785	0.254386	-0.000348
	Zn226	Zn	0.750135	0.005219	0.500492
	Zn227	Zn	0.251468	0.004350	0.499208
	N228	N	0.413350	0.968918	0.680281
	N229	N	0.587803	0.040476	0.679805
	N230	N	0.587881	0.969250	0.319052
	N231	N	0.412654	0.039162	0.318527
	N232	N	0.681511	0.417097	0.964895
	N233	N	0.680139	0.592675	0.035048
	N234	N	0.319362	0.591783	0.963796
	N235	N	0.317994	0.417002	0.034703
	N236	N	0.965069	0.686149	0.413530
	N237	N	0.036358	0.684329	0.586506
	N238	N	0.964787	0.325247	0.587337
	N239	N	0.036812	0.327629	0.414548
	N240	N	0.965071	0.416339	0.682951
	N241	N	0.034981	0.592736	0.681152
	N242	N	0.964637	0.593718	0.319792
	N243	N	0.034010	0.417346	0.317957
	N244	N	0.414129	0.683914	0.962562
	N245	N	0.586553	0.684923	0.034711
	N246	N	0.586553	0.325319	0.963718
	N247	N	0.411903	0.324166	0.034730
	N248	N	0.681104	0.970002	0.412316
	N249	N	0.679416	0.041473	0.586004
	N250	N	0.320072	0.968819	0.587037
	N251	N	0.322743	0.040572	0.414114
	N252	N	0.911561	0.471051	0.181169
	N253	N	0.086682	0.542255	0.180241
	N254	N	0.084965	0.470396	0.821324
	N255	N	0.910585	0.540923	0.818989
	N256	N	0.181572	0.917984	0.463600
	N257	N	0.181251	0.091756	0.535029
	N258	N	0.818536	0.094419	0.465620
	N259	N	0.819706	0.917720	0.535927
	N260	N	0.465236	0.184136	0.912696
	N261	N	0.535166	0.184793	0.086730
	N262	N	0.463209	0.826405	0.083867
	N263	N	0.536899	0.824712	0.912405
	N264	N	0.465307	0.914883	0.181751
	N265	N	0.535499	0.091223	0.179654
	N266	N	0.465170	0.090126	0.820613
	N267	N	0.535968	0.915479	0.817129
	N268	N	0.915085	0.184788	0.464035
	N269	N	0.088463	0.186241	0.535138
	N270	N	0.088855	0.824258	0.464346
	N271	N	0.915464	0.826682	0.536983
	N272	N	0.178195	0.470641	0.913819
	N273	N	0.180266	0.541663	0.087542
	N274	N	0.819449	0.470283	0.086870
	N275	N	0.819562	0.542092	0.913720
	O276	O	0.320175	0.480421	0.306733
	H277	H	0.333040	0.475832	0.308117
	H278	H	0.322264	0.473527	0.304493
	O279	O	1.171350	0.146443	0.815856
	H280	H	1.153306	0.137022	0.829086
	H281	H	1.175856	0.137012	0.823419
	O282	O	0.471172	0.606969	0.596513
	H283	H	0.475503	0.612165	0.589989
	H284	H	0.478273	0.601029	0.601480
	O285	O	0.333785	0.688594	0.314691
	H286	H	0.322300	0.688492	0.335311
	H287	H	0.335632	0.664806	0.311987
	O288	O	1.029177	0.971413	0.218211
	H289	H	1.029177	0.951585	0.224111
	H290	H	1.028660	0.968290	0.217288
	O291	O	0.646305	0.312737	0.385106
	H292	H	0.654365	0.311117	0.410005
	H293	H	0.648328	0.337686	0.390581
	O294	O	-0.037055	-0.004618	0.886599
	H295	H	-0.036916	-0.011635	0.888387
	H296	H	-0.048545	-0.006120	0.887431
	O297	O	0.523734	0.575282	0.344279
	H298	H	0.517099	0.565888	0.334658
	H299	H	0.525020	0.567464	0.335478
	O300	O	0.572553	0.545898	0.455324
	H301	H	0.555863	0.552552	0.452516
	H302	H	0.578499	0.552217	0.456484
	O303	O	0.627130	0.448954	0.482680
	H304	H	0.627715	0.440787	0.484754
	H305	H	0.622208	0.464533	0.476749
	O306	O	0.366416	0.606274	0.638727
	H307	H	0.366187	0.597974	0.633571
	H308	H	0.366692	0.597656	0.631889
	O309	O	0.710343	0.478441	0.288991
	H310	H	0.719922	0.467947	0.290114
	H311	H	0.713163	0.493409	0.268799
	O312	O	-0.059719	0.834997	0.905875
	H313	H	-0.059071	0.829470	0.907745
	H314	H	-0.055098	0.836849	0.920143
	O315	O	0.563576	0.703958	0.476586
	H316	H	0.566014	0.698763	0.492787
	H317	H	0.568374	0.710216	0.488223
	O318	O	1.031338	0.141921	-0.079937
	H319	H	1.020508	0.146620	-0.081548
	H320	H	1.021452	0.136082	-0.088498
	O321	O	-0.079022	-0.152976	-0.035257
	H322	H	-0.074717	-0.150796	-0.042101
	H323	H	-0.075115	-0.148474	-0.041212
	O324	O	0.514062	0.293271	0.465645
	H325	H	0.518672	0.298123	0.463172
	H326	H	0.520328	0.292977	0.473538
	O327	O	0.540514	0.475824	0.690561
	H328	H	0.527377	0.498102	0.690394
	H329	H	0.544030	0.492362	0.680896
	O330	O	-0.020569	0.792679	0.205773
	H331	H	-0.060685	0.798505	0.200357
	H332	H	-0.031897	0.762227	0.231592
	O333	O	0.589426	0.513984	0.664889
	H334	H	0.588327	0.512617	0.668278
	H335	H	0.583257	0.504352	0.679811
	O336	O	0.044898	0.142153	0.040230
	H337	H	0.050538	0.140521	0.047039
	H338	H	0.053830	0.143720	0.028273
	O339	O	0.153851	0.813193	0.809072
	H340	H	0.171610	0.829853	0.804580
	H341	H	0.163850	0.819333	0.809100
	O342	O	0.209834	0.966650	0.962532
	H343	H	0.210740	0.969086	0.966776
	H344	H	0.199529	0.963259	0.975877
	O345	O	0.789225	0.975387	0.210255
	H346	H	0.794299	0.992333	0.223433
	H347	H	0.775480	0.988799	0.210687
	O348	O	0.323207	0.447564	0.546761
	H349	H	0.318025	0.433242	0.546103
	H350	H	0.320480	0.431935	0.542493
	O351	O	-0.034816	0.810167	0.860166
	H352	H	-0.008082	0.802442	0.856690
	H353	H	-0.044649	0.785972	0.844315
	O354	O	0.187364	1.175719	0.177199
	H355	H	0.185466	1.179923	0.196786
	H356	H	0.187571	1.133363	0.181259
	O357	O	-0.158033	0.000382	0.808658
	H358	H	-0.151842	0.013187	0.808564
	H359	H	-0.166876	-0.000336	0.797295
	O360	O	0.553111	0.593096	0.386574
	H361	H	0.538352	0.596917	0.375781
	H362	H	0.554831	0.601993	0.389325
	O363	O	0.198480	-0.053203	0.802623
	H364	H	0.189844	-0.035758	0.806299
	H365	H	0.219495	-0.050484	0.801653
	O366	O	0.415717	0.377997	0.570027
	H367	H	0.402818	0.350758	0.584254
	H368	H	0.411958	0.384849	0.569488
	O369	O	0.298988	0.508920	0.529557
	H370	H	0.308800	0.490647	0.541107
	H371	H	0.288289	0.493636	0.521233
	O372	O	1.204489	0.020097	1.209623
	H373	H	1.217940	0.006806	1.219252
	H374	H	1.200590	-0.000907	1.207138
	O375	O	0.618837	0.317494	0.481108
	H376	H	0.604066	0.322735	0.493165
	H377	H	0.622805	0.298919	0.490899
	O378	O	0.633608	0.700892	0.695483
	H379	H	0.611544	0.722170	0.706593
	H380	H	0.658310	0.668189	0.699028
	O381	O	0.805455	0.194263	0.814541
	H382	H	0.837746	0.195992	0.799667
	H383	H	0.799057	0.186374	0.849110
	O384	O	0.566364	0.339685	0.298988
	H385	H	0.598463	0.324746	0.294457
	H386	H	0.575734	0.336837	0.310660
	O387	O	0.019786	-0.026934	1.021567
	H388	H	0.025305	-0.036730	1.017255
	H389	H	0.007106	-0.031286	1.024180
	O390	O	0.205212	0.211969	0.018930
	H391	H	0.227341	0.227415	0.034038
	H392	H	0.200757	0.207711	0.054541
	O393	O	0.828876	0.988847	0.911743
	H394	H	0.843693	0.982815	0.915606
	H395	H	0.823773	0.991642	0.898691
	O396	O	1.071317	-0.066555	0.123028
	H397	H	1.055141	-0.077806	0.119272
	H398	H	1.067218	-0.071527	0.121285
	O399	O	0.994393	0.211553	0.866524
	H400	H	1.016788	0.226958	0.868804
	H401	H	0.992487	0.185222	0.866193
	O402	O	0.943791	0.868007	1.001449
	H403	H	0.930568	0.869010	0.992609
	H404	H	0.949009	0.853631	0.997479
	O405	O	0.814380	0.813716	0.188313
	H406	H	0.806203	0.825906	0.158859
	H407	H	0.793534	0.839035	0.204331
	O408	O	0.790142	0.063653	0.068313
	H409	H	0.802803	0.057440	0.067174
	H410	H	0.789078	0.057231	0.061011
	O411	O	0.880520	1.120171	0.201540
	H412	H	0.902914	1.115898	0.194040
	H413	H	0.904045	1.114564	0.196720
	O414	O	0.484639	0.719807	0.295456
	H415	H	0.476185	0.736274	0.284585
	H416	H	0.459120	0.724096	0.294272
	O417	O	0.419874	0.630673	0.619667
	H418	H	0.409549	0.634579	0.622252
	H419	H	0.422161	0.639370	0.596694
	O420	O	0.032885	0.215369	0.202763
	H421	H	0.040861	0.240867	0.216247
	H422	H	0.037955	0.215323	0.188269
	O423	O	0.699625	0.604387	0.674901
	H424	H	0.709896	0.585084	0.647355
	H425	H	0.724422	0.597091	0.679738
	O426	O	0.716452	0.482040	0.520272
	H427	H	0.711949	0.486319	0.520055
	H428	H	0.720663	0.472429	0.511531
	O429	O	0.297698	0.701855	0.482260
	H430	H	0.299334	0.677448	0.478116
	H431	H	0.286611	0.719847	0.486770
	O432	O	0.342938	0.364919	0.392878
	H433	H	0.360988	0.362998	0.388714
	H434	H	0.356206	0.369047	0.399464
	O435	O	0.375053	0.307764	0.472100
	H436	H	0.367109	0.296727	0.469262
	H437	H	0.394359	0.306020	0.480130
	O438	O	0.132781	-0.174649	0.010844
	H439	H	0.110514	-0.177629	0.005006
	H440	H	0.131074	-0.183897	0.004386
	O441	O	0.802759	0.205349	-0.016974
	H442	H	0.805661	0.208983	-0.007555
	H443	H	0.786304	0.210304	-0.011549
	O444	O	0.017916	1.133793	0.789704
	H445	H	0.028099	1.140746	0.794726
	H446	H	0.002181	1.128237	0.793194
	O447	O	0.498348	0.339587	0.675905
	H448	H	0.486439	0.355353	0.674292
	H449	H	0.497077	0.329505	0.697712
	O450	O	0.702501	0.654395	0.498081
	H451	H	0.719449	0.641495	0.505467
	H452	H	0.689729	0.653057	0.521345
	O453	O	0.300737	0.347024	0.697285
	H454	H	0.302239	0.351651	0.699156
	H455	H	0.282430	0.326516	0.706651
