data_Molecule from HDF5

_cell_length_a		16.341547
_cell_length_b		16.350383
_cell_length_c		16.303520
_cell_angle_alpha	89.911926
_cell_angle_beta	90.417537
_cell_angle_gamma	89.697078
_symmetry_space_group_name_H-M	'P 1'
_symmetry_Int_Tables_number		1

loop_
	_symmetry_equiv_pos_as_xyz
	x,y,z

loop_
	_atom_site_label
	_atom_site_type_symbol
	_atom_site_fract_x
	_atom_site_fract_y
	_atom_site_fract_z
	H0	H	0.401172	0.832625	0.717871
	H1	H	0.602508	0.156001	0.719394
	H2	H	0.604017	0.832779	0.283344
	H3	H	0.397151	0.154965	0.282676
	H4	H	0.716913	0.393341	0.839931
	H5	H	0.721376	0.597999	0.162482
	H6	H	0.281994	0.595532	0.837929
	H7	H	0.281149	0.388872	0.161518
	H8	H	0.842005	0.717834	0.393439
	H9	H	0.161665	0.713504	0.607003
	H10	H	0.838445	0.277800	0.602173
	H11	H	0.160535	0.273891	0.398470
	H12	H	0.838304	0.394377	0.717517
	H13	H	0.161480	0.596529	0.721580
	H14	H	0.840535	0.599306	0.280055
	H15	H	0.161353	0.389693	0.282465
	H16	H	0.393689	0.715113	0.840263
	H17	H	0.603914	0.712602	0.163445
	H18	H	0.603889	0.275287	0.840474
	H19	H	0.400423	0.276203	0.163047
	H20	H	0.721243	0.833537	0.398370
	H21	H	0.719032	0.155352	0.604289
	H22	H	0.283420	0.833805	0.603926
	H23	H	0.281089	0.155656	0.398226
	H24	H	0.900292	0.334155	0.218323
	H25	H	0.104329	0.656354	0.220290
	H26	H	0.098717	0.332682	0.786230
	H27	H	0.895008	0.656639	0.780170
	H28	H	0.217647	0.893081	0.339207
	H29	H	0.217046	0.094266	0.663855
	H30	H	0.782597	0.094381	0.337599
	H31	H	0.787665	0.894820	0.663223
	H32	H	0.340169	0.213755	0.899171
	H33	H	0.663840	0.209060	0.103999
	H34	H	0.338418	0.778133	0.101382
	H35	H	0.661363	0.775338	0.900980
	H36	H	0.338397	0.892861	0.217764
	H37	H	0.662804	0.093187	0.220217
	H38	H	0.338886	0.095593	0.784464
	H39	H	0.663061	0.892890	0.787474
	H40	H	0.898358	0.210798	0.337688
	H41	H	0.099877	0.209898	0.663723
	H42	H	0.103695	0.776229	0.340113
	H43	H	0.900727	0.777170	0.662587
	H44	H	0.217499	0.333196	0.898745
	H45	H	0.220202	0.655579	0.104050
	H46	H	0.786151	0.332893	0.101112
	H47	H	0.779725	0.656269	0.897138
	H48	H	0.409967	0.109753	0.592036
	H49	H	0.596759	0.876400	0.599289
	H50	H	0.596066	0.108578	0.415193
	H51	H	0.414122	0.881648	0.413013
	H52	H	0.587025	0.400077	0.115041
	H53	H	0.588406	0.586345	0.887090
	H54	H	0.415760	0.584621	0.113152
	H55	H	0.410184	0.410603	0.889225
	H56	H	0.117025	0.590720	0.415315
	H57	H	0.884531	0.593283	0.589252
	H58	H	0.116710	0.404738	0.602801
	H59	H	0.884865	0.403424	0.407171
	H60	H	0.117111	0.394072	0.590237
	H61	H	0.889387	0.583945	0.582780
	H62	H	0.111977	0.578916	0.415365
	H63	H	0.886181	0.404069	0.411116
	H64	H	0.407292	0.589433	0.117508
	H65	H	0.590120	0.583277	0.887452
	H66	H	0.598597	0.396627	0.120088
	H67	H	0.416097	0.401220	0.887353
	H68	H	0.589001	0.109865	0.403410
	H69	H	0.587415	0.881648	0.593329
	H70	H	0.408535	0.109613	0.591741
	H71	H	0.403781	0.878499	0.413367
	H72	H	0.908890	0.609643	0.089136
	H73	H	0.093659	0.380299	0.090192
	H74	H	0.082300	0.606790	0.910709
	H75	H	0.913626	0.381814	0.906318
	H76	H	0.097213	0.905397	0.617045
	H77	H	0.088112	0.090197	0.384847
	H78	H	0.909207	0.091937	0.617472
	H79	H	0.917919	0.903395	0.387252
	H80	H	0.619461	0.093937	0.911023
	H81	H	0.385080	0.091390	0.092540
	H82	H	0.613835	0.903531	0.091432
	H83	H	0.386746	0.907202	0.910371
	H84	H	0.615097	0.902563	0.094377
	H85	H	0.388838	0.084943	0.085946
	H86	H	0.612641	0.080432	0.917579
	H87	H	0.384243	0.904138	0.905992
	H88	H	0.905003	0.084725	0.616861
	H89	H	0.096568	0.085599	0.383718
	H90	H	0.089219	0.907308	0.614262
	H91	H	0.905672	0.900953	0.382951
	H92	H	0.093938	0.609276	0.916952
	H93	H	0.090764	0.380592	0.092945
	H94	H	0.910690	0.609477	0.091015
	H95	H	0.906550	0.381038	0.913351
	H96	H	0.408474	0.110296	0.592652
	H97	H	0.597572	0.880077	0.588008
	H98	H	0.583179	0.104551	0.414317
	H99	H	0.409489	0.877627	0.404526
	H100	H	0.596572	0.409164	0.116542
	H101	H	0.586687	0.583575	0.888066
	H102	H	0.406988	0.579675	0.115288
	H103	H	0.404639	0.401710	0.884046
	H104	H	0.117470	0.583536	0.405064
	H105	H	0.886302	0.581684	0.594873
	H106	H	0.110709	0.409167	0.587236
	H107	H	0.886306	0.407512	0.408661
	H108	H	0.911371	0.609429	0.088782
	H109	H	0.090388	0.382811	0.089273
	H110	H	0.092548	0.612031	0.903741
	H111	H	0.904473	0.377824	0.903820
	H112	H	0.090873	0.899271	0.617324
	H113	H	0.088740	0.081249	0.387905
	H114	H	0.913291	0.085493	0.614127
	H115	H	0.909203	0.912742	0.387824
	H116	H	0.617843	0.080232	0.902374
	H117	H	0.386188	0.081579	0.094861
	H118	H	0.615054	0.900697	0.092277
	H119	H	0.385293	0.901666	0.911133
	C120	C	0.379679	0.003249	0.622510
	C121	C	0.623514	0.985928	0.623514
	C122	C	0.621151	0.001783	0.380550
	C123	C	0.378410	0.986036	0.379737
	C124	C	0.623232	0.372299	0.010241
	C125	C	0.620897	0.615511	0.993691
	C126	C	0.378333	0.615689	0.008467
	C127	C	0.379789	0.372986	0.993036
	C128	C	0.009379	0.616339	0.379249
	C129	C	0.992707	0.616351	0.621828
	C130	C	0.008037	0.373447	0.622378
	C131	C	0.992238	0.373444	0.379177
	C132	C	0.880301	0.503194	0.120741
	C133	C	0.122749	0.486951	0.122573
	C134	C	0.120152	0.502791	0.880185
	C135	C	0.876866	0.486805	0.876918
	C136	C	0.123116	0.873124	0.509784
	C137	C	0.121239	0.115722	0.492721
	C138	C	0.877902	0.117216	0.509112
	C139	C	0.880949	0.874233	0.492708
	C140	C	0.509858	0.116138	0.879618
	C141	C	0.493268	0.115306	0.122528
	C142	C	0.508420	0.872124	0.122897
	C143	C	0.492215	0.873460	0.880222
	C144	C	0.381108	0.881287	0.679394
	C145	C	0.622603	0.107398	0.680987
	C146	C	0.622485	0.880801	0.322600
	C147	C	0.377797	0.106851	0.321458
	C148	C	0.679428	0.373122	0.888301
	C149	C	0.681522	0.616923	0.114337
	C150	C	0.320226	0.615579	0.886950
	C151	C	0.321003	0.370906	0.113707
	C152	C	0.889589	0.677274	0.375975
	C153	C	0.113790	0.673953	0.624784
	C154	C	0.886740	0.316431	0.621592
	C155	C	0.112603	0.313662	0.379009
	C156	C	0.886579	0.374618	0.679017
	C157	C	0.113631	0.615895	0.681857
	C158	C	0.888801	0.618138	0.319446
	C159	C	0.112996	0.371503	0.321375
	C160	C	0.376210	0.674882	0.887984
	C161	C	0.622687	0.673691	0.115047
	C162	C	0.623207	0.314401	0.888923
	C163	C	0.380409	0.314711	0.114519
	C164	C	0.680893	0.881316	0.379664
	C165	C	0.680396	0.107163	0.623327
	C166	C	0.322579	0.881767	0.622655
	C167	C	0.320351	0.107192	0.379400
	C168	C	0.881003	0.382087	0.178959
	C169	C	0.123106	0.607951	0.180880
	C170	C	0.119214	0.381210	0.823743
	C171	C	0.876329	0.608223	0.819389
	C172	C	0.179858	0.873378	0.388016
	C173	C	0.178146	0.114294	0.615193
	C174	C	0.820537	0.115321	0.386623
	C175	C	0.824959	0.874902	0.614502
	C176	C	0.388274	0.174232	0.879980
	C177	C	0.615096	0.171097	0.123122
	C178	C	0.386819	0.815963	0.121585
	C179	C	0.613377	0.815044	0.881696
	C180	C	0.386836	0.873382	0.179207
	C181	C	0.614574	0.113298	0.180940
	C182	C	0.387695	0.115873	0.822559
	C183	C	0.614218	0.873428	0.824946
	C184	C	0.877979	0.173247	0.386583
	C185	C	0.120153	0.171831	0.615168
	C186	C	0.123144	0.815164	0.388360
	C187	C	0.881230	0.816093	0.613884
	C188	C	0.178109	0.381411	0.879941
	C189	C	0.181002	0.607560	0.123129
	C190	C	0.824240	0.381435	0.120590
	C191	C	0.818638	0.607980	0.877316
	C192	C	0.402427	0.087800	0.598965
	C193	C	0.600558	0.901298	0.600178
	C194	C	0.596549	0.085962	0.404243
	C195	C	0.402314	0.901217	0.403509
	C196	C	0.600679	0.395283	0.094996
	C197	C	0.595620	0.591405	0.909495
	C198	C	0.403041	0.591528	0.093358
	C199	C	0.403532	0.397548	0.908657
	C200	C	0.093651	0.591575	0.404649
	C201	C	0.908692	0.593102	0.596407
	C202	C	0.092759	0.396113	0.599746
	C203	C	0.907842	0.397937	0.402423
	C204	C	0.903504	0.587681	0.096722
	C205	C	0.098591	0.403012	0.098173
	C206	C	0.096470	0.587420	0.903764
	C207	C	0.901122	0.402084	0.900696
	C208	C	0.099476	0.896978	0.594341
	C209	C	0.097795	0.092693	0.407671
	C210	C	0.901964	0.094215	0.594215
	C211	C	0.904292	0.898608	0.408084
	C212	C	0.594613	0.092099	0.903545
	C213	C	0.408468	0.092648	0.098167
	C214	C	0.592839	0.895452	0.099665
	C215	C	0.407539	0.897452	0.902595
	Zn216	Zn	0.501150	-0.005414	0.751120
	Zn217	Zn	0.500008	-0.006526	0.251326
	Zn218	Zn	0.750321	0.494821	0.000897
	Zn219	Zn	0.250717	0.494107	0.000253
	Zn220	Zn	0.001818	0.745219	0.500883
	Zn221	Zn	0.000215	0.244973	0.500594
	Zn222	Zn	0.000297	0.495273	0.750494
	Zn223	Zn	0.001166	0.495324	0.250845
	Zn224	Zn	0.499405	0.743981	0.001352
	Zn225	Zn	0.501959	0.244407	0.001629
	Zn226	Zn	0.751324	-0.005562	0.500862
	Zn227	Zn	0.250751	-0.005166	0.501298
	N228	N	0.415964	0.957781	0.679286
	N229	N	0.588044	0.030970	0.681194
	N230	N	0.585883	0.956572	0.323141
	N231	N	0.413318	0.030470	0.321632
	N232	N	0.679731	0.408439	0.964736
	N233	N	0.680467	0.581398	0.037923
	N234	N	0.321643	0.579232	0.963148
	N235	N	0.320529	0.406343	0.037162
	N236	N	0.965773	0.676088	0.412705
	N237	N	0.037794	0.674555	0.588328
	N238	N	0.963252	0.315584	0.586989
	N239	N	0.036514	0.314966	0.414206
	N240	N	0.962921	0.409227	0.679597
	N241	N	0.037177	0.581032	0.680428
	N242	N	0.964345	0.581164	0.321559
	N243	N	0.037074	0.408104	0.321334
	N244	N	0.411609	0.674986	0.964649
	N245	N	0.585597	0.672737	0.039064
	N246	N	0.589005	0.313618	0.965640
	N247	N	0.416196	0.315778	0.038467
	N248	N	0.680099	0.957429	0.415204
	N249	N	0.681188	0.030802	0.588130
	N250	N	0.321623	0.958299	0.587740
	N251	N	0.320620	0.030816	0.414712
	N252	N	0.915126	0.458781	0.179275
	N253	N	0.087764	0.531796	0.180687
	N254	N	0.083707	0.457626	0.823848
	N255	N	0.911728	0.531779	0.819130
	N256	N	0.179982	0.908607	0.464600
	N257	N	0.178945	0.080364	0.538138
	N258	N	0.820187	0.081457	0.463872
	N259	N	0.824455	0.910195	0.537889
	N260	N	0.465299	0.174510	0.914589
	N261	N	0.538496	0.172587	0.087699
	N262	N	0.463428	0.815276	0.087203
	N263	N	0.536452	0.814602	0.915193
	N264	N	0.463557	0.907549	0.180180
	N265	N	0.537717	0.079480	0.180849
	N266	N	0.464094	0.080372	0.822448
	N267	N	0.537853	0.908989	0.823932
	N268	N	0.912624	0.174740	0.463732
	N269	N	0.085555	0.172932	0.537908
	N270	N	0.088756	0.814649	0.465112
	N271	N	0.915337	0.815674	0.537020
	N272	N	0.178907	0.458070	0.914186
	N273	N	0.181130	0.531223	0.087771
	N274	N	0.823756	0.457756	0.085067
	N275	N	0.818786	0.531310	0.912238
	O276	O	-0.016572	0.055033	-0.028868
	H277	H	-0.020922	0.060519	-0.031444
	H278	H	-0.019236	0.047409	-0.024757
	O279	O	-0.652061	0.422014	-0.598242
	H280	H	-0.661048	0.435885	-0.606221
	H281	H	-0.642968	0.418535	-0.614168
	O282	O	1.567396	-0.420386	0.438142
	H283	H	1.574144	-0.411352	0.449637
	H284	H	1.587973	-0.424851	0.441207
	O285	O	-0.065060	1.038228	0.046078
	H286	H	-0.065943	1.034783	0.047016
	H287	H	-0.071065	1.048662	0.042655
	O288	O	0.654820	0.640816	0.531975
	H289	H	0.649871	0.628791	0.529521
	H290	H	0.641507	0.643268	0.519913
	O291	O	0.541656	0.670590	0.545795
	H292	H	0.533796	0.647515	0.541468
	H293	H	0.543504	0.680372	0.527591
	O294	O	1.410770	1.327072	0.509002
	H295	H	1.408870	1.329791	0.516653
	H296	H	1.406646	1.326544	0.496553
	O297	O	-0.105106	0.052067	-0.089136
	H298	H	-0.108772	0.049633	-0.100688
	H299	H	-0.103940	0.061408	-0.093840
	O300	O	0.429855	0.415921	0.615841
	H301	H	0.441327	0.416686	0.595554
	H302	H	0.433925	0.416179	0.628433
	O303	O	-0.356727	0.297980	1.459594
	H304	H	-0.346654	0.286648	1.457128
	H305	H	-0.374259	0.297486	1.446941
	O306	O	0.688925	0.550707	0.700524
	H307	H	0.682202	0.561920	0.705552
	H308	H	0.704656	0.551696	0.702208
	O309	O	0.912639	-0.023502	-0.061914
	H310	H	0.898738	-0.032358	-0.055975
	H311	H	0.914155	-0.023033	-0.064613
	O312	O	0.421342	0.301445	1.659418
	H313	H	0.417312	0.292790	1.661003
	H314	H	0.425298	0.308015	1.665400
	O315	O	0.411994	1.333428	0.487549
	H316	H	0.415160	1.348761	0.491538
	H317	H	0.409401	1.337126	0.487965
	O318	O	0.502298	0.473619	0.393507
	H319	H	0.511593	0.495616	0.406306
	H320	H	0.490597	0.492210	0.384667
	O321	O	0.354457	0.448712	0.615376
	H322	H	0.365598	0.439250	0.611479
	H323	H	0.339380	0.444090	0.610608
	O324	O	0.683803	0.416267	0.394416
	H325	H	0.681257	0.400123	0.401983
	H326	H	0.672033	0.401306	0.397672
	O327	O	-0.304394	1.551011	1.378833
	H328	H	-0.300377	1.532017	1.386722
	H329	H	-0.300295	1.529944	1.373610
	O330	O	0.515015	0.425187	0.644447
	H331	H	0.509221	0.413912	0.658635
	H332	H	0.506484	0.448274	0.643133
	O333	O	0.464587	0.645135	0.443011
	H334	H	0.474048	0.645175	0.448480
	H335	H	0.484120	0.648011	0.432818
	O336	O	-0.074187	-0.116980	-0.023223
	H337	H	-0.075275	-0.116127	-0.024717
	H338	H	-0.079541	-0.125709	-0.014628
	O339	O	1.025228	0.984134	0.108191
	H340	H	1.011113	0.994230	0.104222
	H341	H	1.038834	0.982998	0.112578
	O342	O	1.010234	-0.041248	-0.025023
	H343	H	1.010521	-0.050914	-0.020404
	H344	H	1.007439	-0.041910	-0.018809
	O345	O	0.630296	0.499976	0.495919
	H346	H	0.646963	0.475471	0.477852
	H347	H	0.621703	0.502056	0.486537
	O348	O	0.676661	0.488721	0.576033
	H349	H	0.672603	0.467412	0.564769
	H350	H	0.683126	0.495732	0.589789
	O351	O	1.018054	0.899880	-0.033040
	H352	H	1.012636	0.903846	-0.031634
	H353	H	1.027846	0.895299	-0.026284
	O354	O	0.934605	0.141491	1.002439
	H355	H	0.946904	0.146637	1.003956
	H356	H	0.934878	0.141919	0.981094
	O357	O	0.375176	0.680012	0.341087
	H358	H	0.379310	0.678594	0.367725
	H359	H	0.388749	0.692746	0.343431
	O360	O	0.056832	-0.019771	-0.067102
	H361	H	0.051117	-0.007467	-0.063512
	H362	H	0.062350	-0.026196	-0.077323
	O363	O	0.473955	0.549698	0.531570
	H364	H	0.472692	0.540543	0.531051
	H365	H	0.479301	0.546638	0.537994
	O366	O	1.056939	1.013240	0.971392
	H367	H	1.053384	1.016971	0.965921
	H368	H	1.069344	1.003706	0.973627
	O369	O	1.123104	0.010043	0.022197
	H370	H	1.123651	0.008347	0.018714
	H371	H	1.116024	0.005605	0.041257
	O372	O	0.468166	0.515272	0.477908
	H373	H	0.464827	0.521695	0.477962
	H374	H	0.471662	0.508234	0.489211
	O375	O	0.141296	1.005097	1.052871
	H376	H	0.156175	1.001643	1.047006
	H377	H	0.137287	1.017393	1.045185
	O378	O	0.620041	0.318384	0.341069
	H379	H	0.597645	0.318776	0.326298
	H380	H	0.617065	0.312678	0.341553
	O381	O	0.519240	0.668065	0.700121
	H382	H	0.525585	0.661116	0.704977
	H383	H	0.526078	0.672972	0.711235
	O384	O	0.028594	1.055812	-0.035606
	H385	H	0.021675	1.048469	-0.044646
	H386	H	0.024889	1.053620	-0.038583
	O387	O	0.320558	0.651850	1.519029
	H388	H	0.313086	0.641295	1.528121
	H389	H	0.317259	0.668257	1.528597
	O390	O	0.115196	1.000668	-0.059196
	H391	H	0.117334	1.015751	-0.054566
	H392	H	0.105701	0.994836	-0.066506
	O393	O	1.031499	1.082802	-0.037964
	H394	H	1.044316	1.071569	-0.032990
	H395	H	1.022031	1.085634	-0.021423
	O396	O	0.327922	0.537537	0.294460
	H397	H	0.346833	0.575829	0.300230
	H398	H	0.302008	0.539401	0.270623
	O399	O	-0.118049	0.992264	1.018576
	H400	H	-0.110947	1.013854	1.013210
	H401	H	-0.121957	0.990008	1.018410
	O402	O	1.007671	0.963786	1.154711
	H403	H	1.013445	0.967686	1.153568
	H404	H	1.003951	0.962222	1.152171
	O405	O	0.323646	0.391039	0.534390
	H406	H	0.307083	0.390505	0.523190
	H407	H	0.340303	0.391588	0.542363
