data_Molecule from HDF5

_cell_length_a		16.616209
_cell_length_b		16.318161
_cell_length_c		16.557179
_cell_angle_alpha	89.980447
_cell_angle_beta	90.061912
_cell_angle_gamma	90.084769
_symmetry_space_group_name_H-M	'P 1'
_symmetry_Int_Tables_number		1

loop_
	_symmetry_equiv_pos_as_xyz
	x,y,z

loop_
	_atom_site_label
	_atom_site_type_symbol
	_atom_site_fract_x
	_atom_site_fract_y
	_atom_site_fract_z
	H0	H	0.409702	0.844139	0.726233
	H1	H	0.619980	0.160648	0.731237
	H2	H	0.616881	0.843184	0.288253
	H3	H	0.402062	0.158046	0.281759
	H4	H	0.736376	0.391500	0.853987
	H5	H	0.733892	0.606729	0.165948
	H6	H	0.289073	0.608160	0.854122
	H7	H	0.282669	0.388016	0.163280
	H8	H	0.856261	0.723006	0.404347
	H9	H	0.170562	0.719464	0.609580
	H10	H	0.855713	0.279917	0.611422
	H11	H	0.169608	0.277750	0.401354
	H12	H	0.856837	0.392139	0.731590
	H13	H	0.168084	0.605998	0.730448
	H14	H	0.857418	0.608939	0.284763
	H15	H	0.167360	0.390870	0.281678
	H16	H	0.411633	0.719147	0.851330
	H17	H	0.615658	0.721170	0.167251
	H18	H	0.615683	0.279937	0.851487
	H19	H	0.402803	0.275638	0.165063
	H20	H	0.733998	0.845443	0.403019
	H21	H	0.735074	0.160574	0.615008
	H22	H	0.292660	0.844581	0.611426
	H23	H	0.287234	0.160057	0.396666
	H24	H	0.900979	0.344396	0.235465
	H25	H	0.117243	0.660753	0.229434
	H26	H	0.122847	0.344165	0.782841
	H27	H	0.912517	0.660234	0.793398
	H28	H	0.237064	0.892493	0.351069
	H29	H	0.237744	0.112093	0.663144
	H30	H	0.786041	0.113828	0.354091
	H31	H	0.790097	0.895551	0.663508
	H32	H	0.354561	0.225053	0.902624
	H33	H	0.668163	0.224788	0.114849
	H34	H	0.355991	0.776441	0.115939
	H35	H	0.668464	0.783717	0.908020
	H36	H	0.356757	0.889634	0.235097
	H37	H	0.666388	0.111241	0.234443
	H38	H	0.356697	0.112353	0.782155
	H39	H	0.667327	0.897936	0.787961
	H40	H	0.906475	0.225602	0.351872
	H41	H	0.118302	0.223365	0.665944
	H42	H	0.117522	0.779375	0.350235
	H43	H	0.912089	0.783935	0.666017
	H44	H	0.238356	0.344968	0.898208
	H45	H	0.234893	0.660062	0.116737
	H46	H	0.785800	0.344221	0.120778
	H47	H	0.795963	0.659832	0.908515
	H48	H	0.423877	0.116681	0.590494
	H49	H	0.601951	0.887688	0.600837
	H50	H	0.601802	0.116370	0.420863
	H51	H	0.421321	0.890180	0.424200
	H52	H	0.597757	0.409734	0.120727
	H53	H	0.607171	0.590507	0.895164
	H54	H	0.421128	0.588091	0.122373
	H55	H	0.414420	0.412846	0.894786
	H56	H	0.127169	0.597630	0.419583
	H57	H	0.900280	0.591441	0.598240
	H58	H	0.123098	0.413245	0.593630
	H59	H	0.905996	0.414959	0.428086
	H60	H	0.122227	0.419179	0.598315
	H61	H	0.898288	0.590696	0.604169
	H62	H	0.121180	0.585669	0.424689
	H63	H	0.905298	0.421219	0.418978
	H64	H	0.424293	0.586098	0.120918
	H65	H	0.603252	0.591370	0.896517
	H66	H	0.605200	0.416073	0.121875
	H67	H	0.424709	0.425561	0.903239
	H68	H	0.594764	0.114709	0.419721
	H69	H	0.600121	0.889071	0.597474
	H70	H	0.420641	0.119317	0.598292
	H71	H	0.424994	0.889476	0.419342
	H72	H	0.932217	0.610468	0.097461
	H73	H	0.100227	0.389452	0.092008
	H74	H	0.105769	0.615848	0.920695
	H75	H	0.927862	0.387583	0.921302
	H76	H	0.101916	0.912503	0.619274
	H77	H	0.099702	0.088800	0.397757
	H78	H	0.923833	0.087541	0.619546
	H79	H	0.924058	0.913512	0.395595
	H80	H	0.624180	0.094918	0.919436
	H81	H	0.402404	0.080841	0.100608
	H82	H	0.626131	0.911480	0.104909
	H83	H	0.394313	0.905079	0.911106
	H84	H	0.621591	0.909660	0.093056
	H85	H	0.399849	0.092887	0.097129
	H86	H	0.620024	0.088313	0.922518
	H87	H	0.400728	0.910894	0.926703
	H88	H	0.924733	0.088415	0.619197
	H89	H	0.100640	0.088686	0.396758
	H90	H	0.106209	0.912427	0.620562
	H91	H	0.921184	0.912887	0.394464
	H92	H	0.097832	0.614557	0.915918
	H93	H	0.094827	0.390016	0.097023
	H94	H	0.919235	0.612636	0.089710
	H95	H	0.918607	0.384756	0.923733
	H96	H	0.428758	0.116787	0.597350
	H97	H	0.603992	0.887743	0.597048
	H98	H	0.598194	0.113635	0.426147
	H99	H	0.427222	0.891397	0.424255
	H100	H	0.597303	0.419388	0.117194
	H101	H	0.605625	0.594507	0.894644
	H102	H	0.424684	0.589812	0.121807
	H103	H	0.431486	0.408867	0.899862
	H104	H	0.125570	0.585460	0.410847
	H105	H	0.897335	0.596272	0.601128
	H106	H	0.125575	0.412568	0.600623
	H107	H	0.900826	0.410507	0.419207
	H108	H	0.920588	0.617333	0.104400
	H109	H	0.093966	0.392586	0.090463
	H110	H	0.098171	0.612132	0.924910
	H111	H	0.922253	0.382272	0.914843
	H112	H	0.104499	0.916071	0.618559
	H113	H	0.100651	0.087751	0.397560
	H114	H	0.923666	0.088789	0.619373
	H115	H	0.921326	0.915981	0.395605
	H116	H	0.623333	0.088096	0.915264
	H117	H	0.405000	0.084562	0.088968
	H118	H	0.619388	0.920828	0.098790
	H119	H	0.400300	0.921955	0.912917
	C120	C	0.391975	0.012541	0.627825
	C121	C	0.634680	0.993267	0.630905
	C122	C	0.631686	0.010596	0.388893
	C123	C	0.390337	0.993778	0.386929
	C124	C	0.633159	0.380536	0.017251
	C125	C	0.635438	0.623573	1.000134
	C126	C	0.391383	0.621374	0.017948
	C127	C	0.388804	0.379951	1.001254
	C128	C	0.021547	0.622839	0.386320
	C129	C	1.003280	0.623734	0.631276
	C130	C	0.020803	0.380000	0.630491
	C131	C	1.005665	0.380349	0.387089
	C132	C	0.890163	0.509187	0.131323
	C133	C	0.131098	0.494105	0.128153
	C134	C	0.133968	0.509771	0.887055
	C135	C	0.892465	0.490901	0.889152
	C136	C	0.135448	0.880366	0.515759
	C137	C	0.134121	0.123066	0.500076
	C138	C	0.890821	0.123369	0.516535
	C139	C	0.891455	0.881720	0.499329
	C140	C	0.519703	0.124461	0.886036
	C141	C	0.504018	0.121876	0.129973
	C142	C	0.519788	0.879238	0.131941
	C143	C	0.502645	0.881401	0.887310
	C144	C	0.390889	0.892187	0.686764
	C145	C	0.637684	0.112899	0.690929
	C146	C	0.634939	0.891033	0.328426
	C147	C	0.384778	0.111388	0.322869
	C148	C	0.694959	0.375192	0.900266
	C149	C	0.694132	0.625110	0.118838
	C150	C	0.330866	0.625091	0.900274
	C151	C	0.324862	0.372398	0.117058
	C152	C	0.903487	0.683257	0.384892
	C153	C	0.122770	0.681034	0.629899
	C154	C	0.903155	0.319090	0.631230
	C155	C	0.122582	0.318148	0.383217
	C156	C	0.903539	0.375393	0.690829
	C157	C	0.121370	0.624772	0.689962
	C158	C	0.904126	0.626647	0.325534
	C159	C	0.121346	0.374317	0.323341
	C160	C	0.391104	0.680527	0.898896
	C161	C	0.635147	0.682164	0.119123
	C162	C	0.634759	0.319766	0.899056
	C163	C	0.384734	0.316471	0.118177
	C164	C	0.693348	0.892140	0.385120
	C165	C	0.695241	0.112802	0.633211
	C166	C	0.332596	0.892423	0.629939
	C167	C	0.327821	0.112147	0.380523
	C168	C	0.885129	0.391327	0.194219
	C169	C	0.135197	0.613003	0.189694
	C170	C	0.139275	0.391497	0.824180
	C171	C	0.892614	0.612072	0.831791
	C172	C	0.196032	0.875998	0.397970
	C173	C	0.196643	0.128435	0.616645
	C174	C	0.828176	0.129852	0.400156
	C175	C	0.831380	0.878268	0.617215
	C176	C	0.401965	0.185355	0.883705
	C177	C	0.621033	0.184221	0.133399
	C178	C	0.403025	0.816702	0.134700
	C179	C	0.620942	0.822598	0.887714
	C180	C	0.403341	0.873657	0.193800
	C181	C	0.620176	0.127578	0.192936
	C182	C	0.402974	0.129195	0.823705
	C183	C	0.620638	0.879671	0.828346
	C184	C	0.888199	0.185533	0.399256
	C185	C	0.136901	0.183894	0.618141
	C186	C	0.136501	0.819416	0.397499
	C187	C	0.891688	0.822644	0.618225
	C188	C	0.196812	0.391753	0.881909
	C189	C	0.193943	0.612472	0.133640
	C190	C	0.827364	0.391242	0.137007
	C191	C	0.834874	0.611745	0.889115
	C192	C	0.417160	0.095928	0.602556
	C193	C	0.609373	0.909796	0.605661
	C194	C	0.605638	0.093385	0.414833
	C195	C	0.416847	0.911801	0.414557
	C196	C	0.607325	0.407386	0.098609
	C197	C	0.612202	0.598980	0.917153
	C198	C	0.416150	0.595485	0.100166
	C199	C	0.415876	0.407924	0.920416
	C200	C	0.103281	0.597016	0.411158
	C201	C	0.920202	0.599753	0.607771
	C202	C	0.102356	0.407027	0.604932
	C203	C	0.925039	0.407727	0.414292
	C204	C	0.916372	0.591839	0.104763
	C205	C	0.104086	0.411969	0.100877
	C206	C	0.108028	0.592380	0.913208
	C207	C	0.915968	0.406667	0.913003
	C208	C	0.111036	0.906328	0.597815
	C209	C	0.107841	0.096135	0.418622
	C210	C	0.916653	0.096117	0.598126
	C211	C	0.915362	0.907041	0.416712
	C212	C	0.601243	0.098251	0.911698
	C213	C	0.423257	0.094233	0.103243
	C214	C	0.601280	0.906247	0.106251
	C215	C	0.420093	0.905718	0.910707
	Zn216	Zn	0.512005	0.003048	0.757105
	Zn217	Zn	0.511530	0.001487	0.260580
	Zn218	Zn	0.763163	0.500001	0.009260
	Zn219	Zn	0.260607	0.501712	0.009540
	Zn220	Zn	0.012645	0.751955	0.507972
	Zn221	Zn	0.013627	0.251368	0.508420
	Zn222	Zn	0.012040	0.500673	0.759694
	Zn223	Zn	0.012859	0.501048	0.257727
	Zn224	Zn	0.511639	0.751028	0.009192
	Zn225	Zn	0.511468	0.252043	0.009271
	Zn226	Zn	0.761408	0.002435	0.507980
	Zn227	Zn	0.263448	0.002940	0.507252
	N228	N	0.426939	0.968011	0.685697
	N229	N	0.600786	0.037672	0.689548
	N230	N	0.597196	0.965764	0.330770
	N231	N	0.422975	0.036855	0.326657
	N232	N	0.694069	0.412103	0.974785
	N233	N	0.694702	0.589716	0.043561
	N234	N	0.330776	0.589320	0.975372
	N235	N	0.327247	0.411005	0.043322
	N236	N	0.977451	0.681107	0.421960
	N237	N	0.048133	0.680824	0.594385
	N238	N	0.977134	0.322092	0.594281
	N239	N	0.049653	0.321618	0.421895
	N240	N	0.977905	0.412243	0.690688
	N241	N	0.046180	0.589805	0.690731
	N242	N	0.978484	0.590014	0.326133
	N243	N	0.047456	0.412126	0.325594
	N244	N	0.427872	0.678450	0.973229
	N245	N	0.599529	0.681477	0.044273
	N246	N	0.597038	0.322840	0.972815
	N247	N	0.423945	0.320959	0.045193
	N248	N	0.691439	0.967512	0.421787
	N249	N	0.693408	0.037225	0.596448
	N250	N	0.332762	0.968433	0.594357
	N251	N	0.331232	0.037857	0.419586
	N252	N	0.923668	0.465827	0.190684
	N253	N	0.097044	0.538360	0.186246
	N254	N	0.100672	0.465854	0.827351
	N255	N	0.927316	0.535744	0.831451
	N256	N	0.195558	0.913065	0.472535
	N257	N	0.195254	0.091634	0.541986
	N258	N	0.829411	0.092000	0.474173
	N259	N	0.831053	0.914162	0.542224
	N260	N	0.475483	0.182532	0.921580
	N261	N	0.547745	0.180864	0.095070
	N262	N	0.476515	0.819920	0.097048
	N263	N	0.546596	0.823663	0.923758
	N264	N	0.477170	0.911807	0.192248
	N265	N	0.546158	0.089900	0.191112
	N266	N	0.477308	0.092234	0.824853
	N267	N	0.545928	0.915383	0.827725
	N268	N	0.926430	0.181709	0.472809
	N269	N	0.098730	0.180704	0.544611
	N270	N	0.099666	0.821805	0.471641
	N271	N	0.928483	0.824810	0.543926
	N272	N	0.193616	0.466119	0.920467
	N273	N	0.191636	0.537372	0.096004
	N274	N	0.830461	0.465570	0.098316
	N275	N	0.834566	0.535263	0.923920
	O276	O	0.728863	0.411933	0.482423
	H277	H	0.736620	0.419845	0.494643
	H278	H	0.728314	0.411730	0.505363
	O279	O	0.565706	0.365566	0.658817
	H280	H	0.557547	0.349857	0.674793
	H281	H	0.582530	0.377273	0.665473
	O282	O	0.975215	0.834683	0.163062
	H283	H	0.984646	0.843388	0.169826
	H284	H	0.995497	0.826567	0.172903
	O285	O	0.653967	0.486164	0.408113
	H286	H	0.648249	0.501414	0.406297
	H287	H	0.658585	0.487194	0.433547
	O288	O	0.209453	-0.027785	0.051295
	H289	H	0.210368	-0.027983	0.042226
	H290	H	0.205547	-0.022790	0.035714
	O291	O	1.072774	1.054157	-0.208997
	H292	H	1.080557	1.044492	-0.210661
	H293	H	1.063551	1.070137	-0.204471
	O294	O	-0.095758	0.889209	-0.105673
	H295	H	-0.087967	0.899688	-0.088594
	H296	H	-0.069720	0.902490	-0.107350
	O297	O	0.714469	0.694998	0.432609
	H298	H	0.726908	0.725863	0.436828
	H299	H	0.708382	0.696412	0.464547
	O300	O	0.528488	0.652593	0.475932
	H301	H	0.541677	0.642820	0.480816
	H302	H	0.516945	0.650244	0.468493
	O303	O	0.330651	0.326951	0.687860
	H304	H	0.335151	0.330986	0.665273
	H305	H	0.361964	0.335878	0.697316
	O306	O	-0.188733	0.810331	1.213417
	H307	H	-0.170799	0.823821	1.215871
	H308	H	-0.171943	0.835830	1.212388
	O309	O	0.562244	0.607633	0.337919
	H310	H	0.561011	0.597103	0.335596
	H311	H	0.592985	0.604632	0.335738
	O312	O	0.302802	0.521104	0.295965
	H313	H	0.274508	0.514059	0.272038
	H314	H	0.334750	0.490687	0.296759
	O315	O	-0.016307	0.011382	1.004344
	H316	H	-0.023040	0.012969	1.003551
	H317	H	-0.016655	0.004481	0.996900
	O318	O	-0.311705	1.302694	0.413339
	H319	H	-0.301260	1.316141	0.414259
	H320	H	-0.310320	1.296154	0.443945
	O321	O	0.325428	0.685671	0.322587
	H322	H	0.315468	0.634147	0.314165
	H323	H	0.373886	0.693661	0.313871
	O324	O	1.031802	0.211190	1.222829
	H325	H	1.032310	0.240021	1.234157
	H326	H	1.057804	0.207698	1.219293
	O327	O	1.018781	-0.051915	1.058430
	H328	H	1.021798	-0.050928	1.059791
	H329	H	1.033573	-0.050027	1.056030
	O330	O	1.211847	-0.019383	-0.066653
	H331	H	1.198749	-0.013785	-0.066511
	H332	H	1.209213	-0.033647	-0.090734
	O333	O	0.739830	0.731487	0.744386
	H334	H	0.721121	0.733266	0.748352
	H335	H	0.764540	0.764809	0.769680
	O336	O	0.901932	0.160237	1.075737
	H337	H	0.909894	0.146458	1.081302
	H338	H	0.895979	0.158788	1.068490
	O339	O	0.186774	0.181035	0.187657
	H340	H	0.184466	0.190179	0.153360
	H341	H	0.194949	0.138352	0.199960
	O342	O	0.487469	0.707100	0.297809
	H343	H	0.499842	0.683860	0.284904
	H344	H	0.500661	0.727717	0.289237
	O345	O	-0.142711	-0.105658	-0.006491
	H346	H	-0.141573	-0.107947	0.019512
	H347	H	-0.139715	-0.104197	0.010198
	O348	O	1.231787	-0.025921	0.792429
	H349	H	1.235418	-0.040252	0.784051
	H350	H	1.236157	-0.032946	0.777368
	O351	O	0.993014	1.217286	-0.206933
	H352	H	1.007120	1.220532	-0.200695
	H353	H	0.981412	1.240406	-0.222167
	O354	O	0.634255	0.403545	0.699194
	H355	H	0.661718	0.401729	0.720584
	H356	H	0.619988	0.416427	0.685731
	O357	O	0.996548	0.851304	1.139765
	H358	H	1.005003	0.846818	1.136114
	H359	H	0.999731	0.846776	1.151089
	O360	O	0.387410	0.565743	0.555192
	H361	H	0.398654	0.571805	0.546665
	H362	H	0.377236	0.568435	0.540828
	O363	O	0.306593	0.424180	0.447205
	H364	H	0.296764	0.425396	0.455947
	H365	H	0.304231	0.408371	0.451287
	O366	O	0.938636	-0.051971	0.839908
	H367	H	0.948916	-0.048466	0.837443
	H368	H	0.930131	-0.053879	0.844300
	O369	O	-0.168098	1.025065	0.041705
	H370	H	-0.160107	1.025971	0.047896
	H371	H	-0.170242	1.035352	0.043122
	O372	O	0.294889	0.710809	0.483376
	H373	H	0.278329	0.724386	0.462211
	H374	H	0.289212	0.714867	0.451544
	O375	O	-0.206343	1.020162	0.820319
	H376	H	-0.215551	1.013275	0.822916
	H377	H	-0.215937	1.005933	0.817480
	O378	O	0.490118	0.287051	0.369965
	H379	H	0.519415	0.285456	0.362759
	H380	H	0.501591	0.280979	0.354197
	O381	O	0.816537	-0.008705	0.196256
	H382	H	0.831622	0.005754	0.207784
	H383	H	0.820119	0.002192	0.204177
	O384	O	-0.467585	0.473837	1.421975
	H385	H	-0.473879	0.477933	1.416691
	H386	H	-0.456767	0.470890	1.419229
	O387	O	0.136797	0.900431	1.113313
	H388	H	0.139914	0.904515	1.100211
	H389	H	0.140277	0.882950	1.103328
	O390	O	0.704106	0.505492	0.721500
	H391	H	0.716169	0.540345	0.722326
	H392	H	0.711824	0.506973	0.733804
	O393	O	1.225469	1.017243	0.220893
	H394	H	1.253125	1.022229	0.245256
	H395	H	1.239654	0.994525	0.190146
	O396	O	0.292483	0.283766	0.532225
	H397	H	0.296532	0.270103	0.538811
	H398	H	0.277792	0.266007	0.540704
	O399	O	0.318773	0.663204	0.674876
	H400	H	0.335034	0.651746	0.657607
	H401	H	0.327353	0.642367	0.663570
	O402	O	-0.199693	0.212440	0.990579
	H403	H	-0.218420	0.237433	0.989586
	H404	H	-0.194658	0.198612	0.977340
	O405	O	-0.029079	0.016175	-0.016038
	H406	H	-0.023012	0.021645	-0.001449
	H407	H	-0.051575	0.010355	-0.014461
	O408	O	0.700805	0.675716	0.610661
	H409	H	0.711437	0.689491	0.644132
	H410	H	0.676860	0.691087	0.620015
	O411	O	0.055160	0.791903	-0.184287
	H412	H	0.055110	0.795083	-0.175287
	H413	H	0.059830	0.771623	-0.196611
	O414	O	0.307458	0.489275	0.715646
	H415	H	0.310341	0.472168	0.714007
	H416	H	0.295230	0.493669	0.710340
	O417	O	0.821550	0.195075	0.823128
	H418	H	0.815734	0.169134	0.836840
	H419	H	0.851127	0.183391	0.815192
	O420	O	0.705914	0.399094	0.326233
	H421	H	0.720324	0.403714	0.359067
	H422	H	0.724462	0.420019	0.310363
	O423	O	0.063829	0.951503	-0.057432
	H424	H	0.067012	0.967824	-0.060911
	H425	H	0.052262	0.958291	-0.045912
	O426	O	1.230268	0.790229	0.978234
	H427	H	1.242618	0.779314	0.955418
	H428	H	1.233729	0.786015	0.970760
	O429	O	0.540510	0.696665	0.708558
	H430	H	0.529016	0.700344	0.695800
	H431	H	0.527932	0.684900	0.720589
	O432	O	0.482606	0.450610	0.612848
	H433	H	0.479396	0.442142	0.593355
	H434	H	0.455347	0.445849	0.600469
	O435	O	0.082773	0.199746	-0.058341
	H436	H	0.101221	0.200665	-0.063380
	H437	H	0.057533	0.194862	-0.039300
	O438	O	1.225444	0.217523	0.027740
	H439	H	1.212934	0.215831	0.014593
	H440	H	1.252904	0.241052	0.034409
	O441	O	-0.208095	-0.212542	0.043489
	H442	H	-0.205043	-0.221779	0.063390
	H443	H	-0.225034	-0.230724	0.062564
	O444	O	0.477633	0.363224	0.414565
	H445	H	0.484345	0.371671	0.403984
	H446	H	0.488114	0.342366	0.411021
	O447	O	0.590320	0.471897	0.664721
	H448	H	0.585846	0.456015	0.667142
	H449	H	0.595726	0.474164	0.674573
	O450	O	0.522887	0.331518	0.622204
	H451	H	0.518073	0.334636	0.612226
	H452	H	0.522381	0.319144	0.635023
	O453	O	0.639206	0.575862	0.424180
	H454	H	0.640944	0.570528	0.419657
	H455	H	0.646322	0.588795	0.440642
	O456	O	0.486257	0.353121	0.292284
	H457	H	0.514207	0.343408	0.306402
	H458	H	0.497722	0.338270	0.274578
	O459	O	-0.070347	0.073187	0.218041
	H460	H	-0.045976	0.071180	0.213934
	H461	H	-0.050886	0.087401	0.213860
	O462	O	0.443785	0.704498	0.566718
	H463	H	0.442249	0.707108	0.557255
	H464	H	0.441168	0.699568	0.548664
	O465	O	1.237948	-0.224116	-0.217236
	H466	H	1.262843	-0.259187	-0.244166
	H467	H	1.235635	-0.212037	-0.212205
