data_Molecule from HDF5

_cell_length_a		16.295631
_cell_length_b		16.327509
_cell_length_c		16.318614
_cell_angle_alpha	89.911016
_cell_angle_beta	90.091631
_cell_angle_gamma	90.154667
_symmetry_space_group_name_H-M	'P 1'
_symmetry_Int_Tables_number		1

loop_
	_symmetry_equiv_pos_as_xyz
	x,y,z

loop_
	_atom_site_label
	_atom_site_type_symbol
	_atom_site_fract_x
	_atom_site_fract_y
	_atom_site_fract_z
	H0	H	0.404364	0.839978	0.707944
	H1	H	0.601584	0.166996	0.708374
	H2	H	0.599772	0.839477	0.280414
	H3	H	0.404481	0.165984	0.278721
	H4	H	0.716373	0.405851	0.831522
	H5	H	0.716460	0.601637	0.157834
	H6	H	0.288085	0.599384	0.831142
	H7	H	0.289357	0.405414	0.158964
	H8	H	0.838079	0.716383	0.397108
	H9	H	0.165438	0.718066	0.593610
	H10	H	0.839490	0.287038	0.593396
	H11	H	0.166637	0.291376	0.398374
	H12	H	0.838501	0.403829	0.709021
	H13	H	0.165157	0.600758	0.708940
	H14	H	0.838007	0.600479	0.280188
	H15	H	0.165803	0.406730	0.280546
	H16	H	0.403226	0.717771	0.830884
	H17	H	0.600584	0.717667	0.157462
	H18	H	0.599454	0.290142	0.830539
	H19	H	0.404443	0.288020	0.157788
	H20	H	0.714631	0.839382	0.397973
	H21	H	0.718385	0.165685	0.592740
	H22	H	0.288621	0.839820	0.590975
	H23	H	0.289402	0.167453	0.396528
	H24	H	0.904028	0.340551	0.208859
	H25	H	0.101879	0.666758	0.208948
	H26	H	0.099256	0.339928	0.781065
	H27	H	0.902783	0.666347	0.779040
	H28	H	0.215019	0.907107	0.329544
	H29	H	0.218196	0.101149	0.657993
	H30	H	0.787508	0.101522	0.331015
	H31	H	0.788535	0.904680	0.657537
	H32	H	0.338413	0.216865	0.894676
	H33	H	0.665838	0.218734	0.092634
	H34	H	0.338457	0.788781	0.091727
	H35	H	0.665423	0.788675	0.897007
	H36	H	0.338990	0.903813	0.208373
	H37	H	0.666510	0.101552	0.208643
	H38	H	0.339470	0.101158	0.778583
	H39	H	0.666439	0.905463	0.781119
	H40	H	0.904694	0.218064	0.330922
	H41	H	0.102191	0.217889	0.657995
	H42	H	0.099521	0.789212	0.330416
	H43	H	0.903697	0.787852	0.657626
	H44	H	0.215095	0.339814	0.897572
	H45	H	0.217887	0.666144	0.093234
	H46	H	0.787728	0.339640	0.091901
	H47	H	0.786919	0.666735	0.895916
	H48	H	0.418155	0.117813	0.588980
	H49	H	0.593574	0.889401	0.582731
	H50	H	0.587584	0.116499	0.403040
	H51	H	0.413124	0.889757	0.403674
	H52	H	0.595548	0.416445	0.108926
	H53	H	0.598872	0.596781	0.877219
	H54	H	0.405955	0.592293	0.110133
	H55	H	0.408137	0.407455	0.877582
	H56	H	0.113197	0.585965	0.405261
	H57	H	0.887933	0.585310	0.589088
	H58	H	0.117782	0.412499	0.588594
	H59	H	0.886966	0.405577	0.409051
	H60	H	0.119020	0.410185	0.590797
	H61	H	0.881292	0.602399	0.594904
	H62	H	0.122692	0.598291	0.388929
	H63	H	0.887896	0.418601	0.400459
	H64	H	0.414215	0.595703	0.109363
	H65	H	0.592931	0.592728	0.880382
	H66	H	0.588456	0.406498	0.109458
	H67	H	0.405670	0.410242	0.878090
	H68	H	0.601591	0.118756	0.406047
	H69	H	0.602132	0.885020	0.589289
	H70	H	0.407256	0.118739	0.579976
	H71	H	0.402836	0.886247	0.404153
	H72	H	0.904895	0.621140	0.090313
	H73	H	0.092830	0.388383	0.087820
	H74	H	0.098440	0.623445	0.890492
	H75	H	0.907346	0.389310	0.906635
	H76	H	0.090996	0.913702	0.607783
	H77	H	0.093165	0.092792	0.380991
	H78	H	0.915439	0.093648	0.607831
	H79	H	0.905862	0.915891	0.378434
	H80	H	0.615402	0.092647	0.906183
	H81	H	0.389338	0.096553	0.076098
	H82	H	0.622301	0.903799	0.093991
	H83	H	0.383574	0.903182	0.899483
	H84	H	0.617281	0.907316	0.078391
	H85	H	0.388493	0.084929	0.091828
	H86	H	0.619778	0.094839	0.894711
	H87	H	0.388557	0.911282	0.907186
	H88	H	0.910123	0.100980	0.611359
	H89	H	0.092524	0.102754	0.377804
	H90	H	0.094774	0.902768	0.611571
	H91	H	0.915378	0.909387	0.379765
	H92	H	0.083798	0.615088	0.903405
	H93	H	0.096015	0.387853	0.086717
	H94	H	0.912184	0.618862	0.089315
	H95	H	0.903210	0.385548	0.898855
	H96	H	0.405089	0.122708	0.593852
	H97	H	0.591728	0.886605	0.594254
	H98	H	0.596572	0.121508	0.393425
	H99	H	0.408353	0.885025	0.394593
	H100	H	0.599803	0.406151	0.113943
	H101	H	0.591318	0.600106	0.877587
	H102	H	0.407721	0.601137	0.112599
	H103	H	0.408672	0.410664	0.878846
	H104	H	0.119300	0.607508	0.409207
	H105	H	0.887245	0.600000	0.576659
	H106	H	0.118870	0.409192	0.587814
	H107	H	0.882576	0.405333	0.393787
	H108	H	0.907747	0.618905	0.083428
	H109	H	0.094974	0.386557	0.089515
	H110	H	0.103457	0.619711	0.910429
	H111	H	0.912194	0.388598	0.898272
	H112	H	0.102769	0.912464	0.611416
	H113	H	0.102316	0.097744	0.376737
	H114	H	0.906515	0.091807	0.610506
	H115	H	0.905304	0.904454	0.375519
	H116	H	0.620478	0.103384	0.903552
	H117	H	0.382374	0.104176	0.092729
	H118	H	0.617040	0.919354	0.090169
	H119	H	0.386150	0.914356	0.895822
	C120	C	0.381611	0.011616	0.615490
	C121	C	0.624720	0.994861	0.616877
	C122	C	0.623644	0.011177	0.372818
	C123	C	0.380446	0.994824	0.372221
	C124	C	0.623130	0.381977	0.002607
	C125	C	0.623083	0.624763	0.986244
	C126	C	0.380585	0.624696	0.002889
	C127	C	0.379681	0.381011	0.986365
	C128	C	0.010307	0.625171	0.372861
	C129	C	0.993689	0.624370	0.615671
	C130	C	0.010406	0.381625	0.617018
	C131	C	0.994007	0.381958	0.373009
	C132	C	0.880099	0.511917	0.116001
	C133	C	0.123564	0.495346	0.116101
	C134	C	0.123348	0.511672	0.873243
	C135	C	0.879266	0.495216	0.872606
	C136	C	0.123846	0.881869	0.501958
	C137	C	0.124570	0.125614	0.486551
	C138	C	0.881621	0.124434	0.502262
	C139	C	0.881011	0.881816	0.486047
	C140	C	0.510708	0.125151	0.872550
	C141	C	0.494579	0.124456	0.115747
	C142	C	0.510677	0.881623	0.115582
	C143	C	0.494112	0.881709	0.873083
	C144	C	0.383758	0.888881	0.670291
	C145	C	0.622493	0.117654	0.671347
	C146	C	0.620576	0.888384	0.318249
	C147	C	0.383519	0.117529	0.316876
	C148	C	0.677609	0.385712	0.879691
	C149	C	0.678196	0.622055	0.109207
	C150	C	0.325354	0.621409	0.879900
	C151	C	0.325956	0.384068	0.109620
	C152	C	0.886782	0.679189	0.375617
	C153	C	0.116681	0.679728	0.613712
	C154	C	0.887888	0.325548	0.613958
	C155	C	0.117541	0.328376	0.376909
	C156	C	0.887247	0.383596	0.671164
	C157	C	0.116571	0.621443	0.671030
	C158	C	0.886928	0.621341	0.317967
	C159	C	0.117265	0.385725	0.318539
	C160	C	0.382788	0.679819	0.879743
	C161	C	0.620844	0.679782	0.108958
	C162	C	0.620176	0.327697	0.879556
	C163	C	0.383287	0.325845	0.109168
	C164	C	0.677736	0.888319	0.376455
	C165	C	0.680323	0.117257	0.613583
	C166	C	0.326498	0.888743	0.612073
	C167	C	0.326499	0.118253	0.375377
	C168	C	0.883043	0.388926	0.170850
	C169	C	0.121326	0.618200	0.170762
	C170	C	0.120106	0.388764	0.818625
	C171	C	0.881826	0.617764	0.816895
	C172	C	0.177875	0.885525	0.378689
	C173	C	0.180109	0.122102	0.609233
	C174	C	0.825596	0.122254	0.379724
	C175	C	0.826096	0.883898	0.608944
	C176	C	0.387576	0.179539	0.874549
	C177	C	0.617343	0.180013	0.112961
	C178	C	0.387431	0.826548	0.112638
	C179	C	0.616989	0.826658	0.876019
	C180	C	0.387690	0.883756	0.170631
	C181	C	0.617468	0.122275	0.170900
	C182	C	0.387918	0.121997	0.816766
	C183	C	0.617465	0.884760	0.818716
	C184	C	0.883976	0.179829	0.379602
	C185	C	0.122592	0.180169	0.609218
	C186	C	0.120117	0.827402	0.379001
	C187	C	0.883524	0.826013	0.608918
	C188	C	0.178100	0.388812	0.876040
	C189	C	0.179421	0.617806	0.113659
	C190	C	0.825146	0.388570	0.113030
	C191	C	0.824425	0.617894	0.875025
	C192	C	0.403633	0.097487	0.593898
	C193	C	0.602296	0.908958	0.595131
	C194	C	0.601795	0.097018	0.394610
	C195	C	0.401728	0.909230	0.394216
	C196	C	0.601081	0.403464	0.088504
	C197	C	0.601085	0.602944	0.900489
	C198	C	0.402805	0.602759	0.088622
	C199	C	0.401200	0.403044	0.900292
	C200	C	0.096269	0.603693	0.394776
	C201	C	0.907651	0.602431	0.593367
	C202	C	0.096442	0.404098	0.595431
	C203	C	0.907950	0.403424	0.394920
	C204	C	0.901877	0.597512	0.094221
	C205	C	0.101224	0.409559	0.094306
	C206	C	0.101668	0.597317	0.895070
	C207	C	0.901193	0.409896	0.894641
	C208	C	0.102402	0.903271	0.588013
	C209	C	0.102384	0.104021	0.400647
	C210	C	0.904018	0.102041	0.587809
	C211	C	0.902427	0.903620	0.400170
	C212	C	0.596427	0.103376	0.894871
	C213	C	0.408696	0.101906	0.093397
	C214	C	0.596577	0.903701	0.093945
	C215	C	0.408281	0.903268	0.894501
	Zn216	Zn	0.502641	0.003071	0.744613
	Zn217	Zn	0.502555	0.002677	0.244123
	Zn218	Zn	0.751417	0.503740	-0.005299
	Zn219	Zn	0.251771	0.503305	-0.005063
	Zn220	Zn	0.001785	0.752985	0.494086
	Zn221	Zn	0.003030	0.253908	0.495092
	Zn222	Zn	0.001542	0.503216	0.744994
	Zn223	Zn	0.002273	0.503794	0.244557
	Zn224	Zn	0.502232	0.753409	-0.005449
	Zn225	Zn	0.502036	0.253228	-0.005804
	Zn226	Zn	0.752511	0.002899	0.494199
	Zn227	Zn	0.252641	0.003691	0.494175
	N228	N	0.417398	0.966237	0.672388
	N229	N	0.588816	0.040384	0.673449
	N230	N	0.587680	0.965864	0.315972
	N231	N	0.416270	0.040040	0.314808
	N232	N	0.679782	0.418356	0.957240
	N233	N	0.679775	0.588642	0.031892
	N234	N	0.324031	0.587828	0.957247
	N235	N	0.323524	0.417452	0.032128
	N236	N	0.964259	0.681422	0.409038
	N237	N	0.039312	0.681509	0.579968
	N238	N	0.965462	0.324408	0.580994
	N239	N	0.039969	0.326052	0.409899
	N240	N	0.964541	0.417700	0.673166
	N241	N	0.039100	0.587815	0.672376
	N242	N	0.964707	0.588539	0.316118
	N243	N	0.039457	0.418156	0.315929
	N244	N	0.416263	0.682079	0.957209
	N245	N	0.587188	0.681540	0.031574
	N246	N	0.586797	0.325629	0.957051
	N247	N	0.415768	0.323852	0.031462
	N248	N	0.679406	0.965642	0.409932
	N249	N	0.681869	0.039812	0.580515
	N250	N	0.325164	0.966052	0.578601
	N251	N	0.324437	0.041014	0.409083
	N252	N	0.916530	0.466311	0.172853
	N253	N	0.087614	0.540877	0.172668
	N254	N	0.086814	0.466044	0.816743
	N255	N	0.915268	0.540598	0.815342
	N256	N	0.180315	0.918706	0.456157
	N257	N	0.181371	0.088759	0.531897
	N258	N	0.824151	0.088369	0.457051
	N259	N	0.824355	0.917754	0.531785
	N260	N	0.464820	0.181364	0.908734
	N261	N	0.539948	0.181454	0.079440
	N262	N	0.464737	0.825130	0.079278
	N263	N	0.539543	0.824865	0.909234
	N264	N	0.465328	0.917339	0.172612
	N265	N	0.539992	0.088318	0.172605
	N266	N	0.465311	0.088786	0.815482
	N267	N	0.540100	0.918358	0.816873
	N268	N	0.917793	0.181454	0.456784
	N269	N	0.088895	0.182441	0.531915
	N270	N	0.087340	0.824910	0.456587
	N271	N	0.917051	0.824704	0.531499
	N272	N	0.180084	0.466032	0.909479
	N273	N	0.180711	0.540433	0.080394
	N274	N	0.823316	0.465863	0.079544
	N275	N	0.822779	0.540771	0.909011
	O276	O	1.038159	0.091124	0.972264
	H277	H	1.031796	0.099531	0.959476
	H278	H	1.043356	0.095887	0.977089
	O279	O	0.048174	0.117746	1.003109
	H280	H	0.042617	0.110155	1.007509
	H281	H	0.045122	0.106317	1.003489
	O282	O	1.047825	1.106447	0.027341
	H283	H	1.053628	1.113244	0.014738
	H284	H	1.052318	1.104132	0.025615
	O285	O	0.044242	0.137576	0.986964
	H286	H	0.047869	0.144042	1.000123
	H287	H	0.049996	0.146077	0.989609
