data_Molecule from HDF5

_cell_length_a		16.270640
_cell_length_b		16.206301
_cell_length_c		16.364417
_cell_angle_alpha	90.252233
_cell_angle_beta	89.775313
_cell_angle_gamma	89.649683
_symmetry_space_group_name_H-M	'P 1'
_symmetry_Int_Tables_number		1

loop_
	_symmetry_equiv_pos_as_xyz
	x,y,z

loop_
	_atom_site_label
	_atom_site_type_symbol
	_atom_site_fract_x
	_atom_site_fract_y
	_atom_site_fract_z
	H0	H	0.400722	0.833372	0.713470
	H1	H	0.598147	0.162221	0.712865
	H2	H	0.603341	0.834830	0.281391
	H3	H	0.401852	0.162474	0.285140
	H4	H	0.718193	0.395209	0.837088
	H5	H	0.714947	0.598032	0.161082
	H6	H	0.284303	0.597188	0.835760
	H7	H	0.285516	0.400727	0.161599
	H8	H	0.837387	0.712357	0.402357
	H9	H	0.166514	0.710343	0.593954
	H10	H	0.836643	0.286102	0.596482
	H11	H	0.164568	0.280859	0.398717
	H12	H	0.838136	0.398860	0.715429
	H13	H	0.164869	0.597173	0.713730
	H14	H	0.837408	0.598991	0.284446
	H15	H	0.163425	0.394092	0.279380
	H16	H	0.401541	0.712660	0.835250
	H17	H	0.597180	0.712781	0.160838
	H18	H	0.601321	0.280404	0.836487
	H19	H	0.403273	0.285830	0.163224
	H20	H	0.717033	0.834075	0.398952
	H21	H	0.712270	0.162806	0.595742
	H22	H	0.288024	0.832433	0.594417
	H23	H	0.286384	0.162360	0.400899
	H24	H	0.900948	0.333797	0.214402
	H25	H	0.098155	0.660865	0.213700
	H26	H	0.102928	0.333651	0.781943
	H27	H	0.901635	0.661655	0.785687
	H28	H	0.217940	0.897551	0.335437
	H29	H	0.215281	0.097549	0.660806
	H30	H	0.785696	0.097241	0.335107
	H31	H	0.785012	0.899289	0.660462
	H32	H	0.336625	0.211449	0.903148
	H33	H	0.665588	0.210061	0.095303
	H34	H	0.336248	0.785808	0.095951
	H35	H	0.665007	0.781468	0.899820
	H36	H	0.338285	0.898985	0.215453
	H37	H	0.664702	0.096993	0.213577
	H38	H	0.337410	0.097797	0.784467
	H39	H	0.664985	0.895625	0.781608
	H40	H	0.902232	0.213570	0.335265
	H41	H	0.097019	0.211828	0.661408
	H42	H	0.101189	0.781040	0.335112
	H43	H	0.903835	0.785412	0.661187
	H44	H	0.216789	0.333445	0.899641
	H45	H	0.212679	0.662249	0.097265
	H46	H	0.788086	0.332559	0.096136
	H47	H	0.786587	0.661599	0.902226
	H48	H	0.399296	0.116401	0.594287
	H49	H	0.600107	0.881400	0.582553
	H50	H	0.585183	0.114482	0.399066
	H51	H	0.403674	0.879251	0.404535
	H52	H	0.592813	0.393983	0.118325
	H53	H	0.600270	0.594656	0.879629
	H54	H	0.410285	0.598464	0.115000
	H55	H	0.403980	0.402195	0.881248
	H56	H	0.120788	0.593255	0.399823
	H57	H	0.886390	0.592328	0.589370
	H58	H	0.116679	0.409145	0.593374
	H59	H	0.884468	0.402728	0.408925
	H60	H	0.119647	0.400653	0.592410
	H61	H	0.885751	0.588215	0.595141
	H62	H	0.116024	0.590543	0.410698
	H63	H	0.887037	0.411357	0.407630
	H64	H	0.397677	0.591025	0.116246
	H65	H	0.596740	0.580177	0.884558
	H66	H	0.604485	0.409043	0.115604
	H67	H	0.409939	0.410091	0.885527
	H68	H	0.592291	0.112214	0.414099
	H69	H	0.596518	0.877862	0.597507
	H70	H	0.414200	0.113749	0.598252
	H71	H	0.414973	0.880410	0.398933
	H72	H	0.897557	0.616475	0.093091
	H73	H	0.095108	0.381681	0.083087
	H74	H	0.088029	0.615640	0.897496
	H75	H	0.907003	0.380567	0.907159
	H76	H	0.085534	0.911494	0.608696
	H77	H	0.088231	0.081575	0.385920
	H78	H	0.911013	0.081373	0.608636
	H79	H	0.904104	0.905218	0.380820
	H80	H	0.618294	0.087864	0.901404
	H81	H	0.387417	0.087258	0.088989
	H82	H	0.619923	0.902870	0.099544
	H83	H	0.385150	0.905174	0.905674
	H84	H	0.617222	0.897741	0.083280
	H85	H	0.381878	0.090533	0.101869
	H86	H	0.618419	0.091151	0.906328
	H87	H	0.385269	0.906813	0.904455
	H88	H	0.912423	0.102940	0.615396
	H89	H	0.090165	0.099609	0.380520
	H90	H	0.092773	0.893108	0.617305
	H91	H	0.910344	0.908459	0.383450
	H92	H	0.088184	0.610313	0.914047
	H93	H	0.098279	0.377798	0.094383
	H94	H	0.912755	0.614129	0.099129
	H95	H	0.909933	0.379562	0.901367
	H96	H	0.409906	0.110892	0.583885
	H97	H	0.584864	0.884331	0.587622
	H98	H	0.601191	0.119237	0.401394
	H99	H	0.412899	0.884148	0.411369
	H100	H	0.586770	0.410593	0.110607
	H101	H	0.585963	0.591287	0.884157
	H102	H	0.409324	0.584719	0.110359
	H103	H	0.414348	0.400554	0.883997
	H104	H	0.116386	0.581645	0.402245
	H105	H	0.883692	0.595326	0.595163
	H106	H	0.115322	0.405378	0.585961
	H107	H	0.883330	0.406919	0.400949
	H108	H	0.909789	0.610855	0.083534
	H109	H	0.087146	0.381835	0.091783
	H110	H	0.102858	0.617157	0.906846
	H111	H	0.913089	0.381527	0.906510
	H112	H	0.105692	0.910018	0.615452
	H113	H	0.104495	0.087554	0.380042
	H114	H	0.892768	0.091823	0.617577
	H115	H	0.910741	0.900585	0.382046
	H116	H	0.615970	0.086258	0.906227
	H117	H	0.382884	0.099699	0.091555
	H118	H	0.613149	0.913603	0.088220
	H119	H	0.384749	0.904573	0.904196
	C120	C	0.379074	0.005388	0.620278
	C121	C	0.621995	0.989753	0.618513
	C122	C	0.622992	0.006749	0.375966
	C123	C	0.380732	0.990030	0.377269
	C124	C	0.623546	0.374916	0.007465
	C125	C	0.621992	0.618370	0.990289
	C126	C	0.377665	0.620096	0.006523
	C127	C	0.379642	0.375838	0.990867
	C128	C	0.009505	0.618625	0.376738
	C129	C	0.993546	0.619872	0.620800
	C130	C	0.009274	0.376986	0.619786
	C131	C	0.992982	0.376261	0.376568
	C132	C	0.878422	0.505733	0.120631
	C133	C	0.121366	0.488887	0.119239
	C134	C	0.122538	0.505726	0.876871
	C135	C	0.880280	0.488933	0.877302
	C136	C	0.123779	0.875346	0.506174
	C137	C	0.121923	0.118781	0.489929
	C138	C	0.877728	0.120870	0.506513
	C139	C	0.879871	0.876901	0.489712
	C140	C	0.509314	0.118351	0.877211
	C141	C	0.492705	0.120086	0.121439
	C142	C	0.508894	0.876367	0.119467
	C143	C	0.493062	0.875210	0.875653
	C144	C	0.380982	0.882100	0.675240
	C145	C	0.618472	0.113236	0.674663
	C146	C	0.622651	0.883368	0.320130
	C147	C	0.382029	0.113418	0.322885
	C148	C	0.679989	0.375683	0.885474
	C149	C	0.676631	0.617323	0.112567
	C150	C	0.322557	0.617628	0.884115
	C151	C	0.323525	0.379257	0.113127
	C152	C	0.886078	0.674204	0.381316
	C153	C	0.117130	0.673489	0.616029
	C154	C	0.885804	0.322906	0.617273
	C155	C	0.115835	0.319491	0.378430
	C156	C	0.886471	0.379303	0.676198
	C157	C	0.116326	0.617408	0.675550
	C158	C	0.886373	0.617951	0.322344
	C159	C	0.115135	0.375667	0.319081
	C160	C	0.380538	0.675187	0.884027
	C161	C	0.618018	0.674166	0.112630
	C162	C	0.621576	0.318814	0.885134
	C163	C	0.382108	0.322025	0.113743
	C164	C	0.679028	0.883217	0.378554
	C165	C	0.675541	0.113646	0.616631
	C166	C	0.324620	0.881728	0.616542
	C167	C	0.324845	0.113508	0.380472
	C168	C	0.880931	0.382468	0.176140
	C169	C	0.118476	0.612301	0.174976
	C170	C	0.122409	0.382720	0.820153
	C171	C	0.881493	0.612600	0.823380
	C172	C	0.179557	0.877092	0.383738
	C173	C	0.177069	0.117345	0.612331
	C174	C	0.823111	0.118295	0.383787
	C175	C	0.823908	0.879635	0.612111
	C176	C	0.385798	0.174049	0.881444
	C177	C	0.616589	0.173414	0.117126
	C178	C	0.385495	0.822450	0.117123
	C179	C	0.616117	0.819323	0.878549
	C180	C	0.386551	0.878794	0.176459
	C181	C	0.616055	0.117025	0.175642
	C182	C	0.386198	0.117246	0.822711
	C183	C	0.615955	0.875958	0.819694
	C184	C	0.881208	0.175688	0.383696
	C185	C	0.118430	0.174308	0.612676
	C186	C	0.121763	0.819254	0.383724
	C187	C	0.882852	0.822860	0.612583
	C188	C	0.178956	0.382248	0.878574
	C189	C	0.175554	0.612771	0.117250
	C190	C	0.825059	0.381810	0.117301
	C191	C	0.824338	0.612576	0.881221
	C192	C	0.401015	0.091437	0.598537
	C193	C	0.600284	0.903462	0.595826
	C194	C	0.599909	0.092937	0.398380
	C195	C	0.403728	0.903634	0.398735
	C196	C	0.601184	0.397828	0.092843
	C197	C	0.600520	0.595467	0.904891
	C198	C	0.399416	0.598001	0.091901
	C199	C	0.402624	0.397784	0.905565
	C200	C	0.095579	0.595292	0.397994
	C201	C	0.907625	0.598327	0.599486
	C202	C	0.095107	0.398762	0.597228
	C203	C	0.907186	0.399952	0.399253
	C204	C	0.900297	0.591755	0.098507
	C205	C	0.099767	0.402780	0.096429
	C206	C	0.099593	0.592023	0.899544
	C207	C	0.903227	0.402781	0.898725
	C208	C	0.101277	0.898217	0.591858
	C209	C	0.100667	0.096263	0.404267
	C210	C	0.899329	0.098828	0.591635
	C211	C	0.902023	0.898135	0.404321
	C212	C	0.595374	0.095288	0.898389
	C213	C	0.406434	0.098865	0.100323
	C214	C	0.594733	0.898209	0.096908
	C215	C	0.407420	0.898569	0.898147
	Zn216	Zn	0.500850	-0.002899	0.747644
	Zn217	Zn	0.501335	-0.002198	0.248852
	Zn218	Zn	0.751556	0.496948	-0.001117
	Zn219	Zn	0.250188	0.497718	-0.001683
	Zn220	Zn	0.001745	0.747324	0.498330
	Zn221	Zn	0.000727	0.248183	0.498304
	Zn222	Zn	0.001515	0.497656	0.749019
	Zn223	Zn	0.000397	0.497242	0.247529
	Zn224	Zn	0.500435	0.747391	-0.002242
	Zn225	Zn	0.501409	0.246980	-0.000823
	Zn226	Zn	0.750409	-0.001440	0.497625
	Zn227	Zn	0.251614	-0.002275	0.497834
	N228	N	0.414021	0.959931	0.677641
	N229	N	0.586011	0.035029	0.676049
	N230	N	0.588464	0.961087	0.318488
	N231	N	0.416110	0.035578	0.320956
	N232	N	0.681215	0.410014	0.962581
	N233	N	0.679061	0.583248	0.035455
	N234	N	0.320559	0.584218	0.961252
	N235	N	0.322143	0.412130	0.035775
	N236	N	0.963804	0.674919	0.414223
	N237	N	0.039600	0.675302	0.582835
	N238	N	0.962960	0.321458	0.582612
	N239	N	0.038751	0.319875	0.413385
	N240	N	0.964311	0.412080	0.677816
	N241	N	0.038546	0.584937	0.678703
	N242	N	0.964068	0.583951	0.319519
	N243	N	0.037769	0.410454	0.317997
	N244	N	0.414054	0.676768	0.961129
	N245	N	0.584761	0.674985	0.035542
	N246	N	0.587186	0.318282	0.961924
	N247	N	0.416493	0.319904	0.036764
	N248	N	0.679455	0.961121	0.412496
	N249	N	0.677624	0.035949	0.582422
	N250	N	0.323169	0.959398	0.582966
	N251	N	0.324024	0.035652	0.413686
	N252	N	0.913510	0.460617	0.178133
	N253	N	0.085601	0.534417	0.176265
	N254	N	0.088189	0.460591	0.819201
	N255	N	0.915419	0.534855	0.820820
	N256	N	0.180984	0.911152	0.460929
	N257	N	0.179395	0.083734	0.535046
	N258	N	0.820873	0.084809	0.460825
	N259	N	0.822125	0.912656	0.534821
	N260	N	0.463335	0.174681	0.914872
	N261	N	0.539114	0.175311	0.083952
	N262	N	0.462690	0.820813	0.082418
	N263	N	0.538782	0.818810	0.912742
	N264	N	0.464202	0.911504	0.177982
	N265	N	0.538061	0.084537	0.178313
	N266	N	0.463915	0.083463	0.819796
	N267	N	0.538308	0.909850	0.817856
	N268	N	0.914257	0.177636	0.460837
	N269	N	0.084980	0.175457	0.535558
	N270	N	0.087905	0.818173	0.460882
	N271	N	0.916980	0.820951	0.535583
	N272	N	0.179251	0.459805	0.913054
	N273	N	0.177389	0.535035	0.083057
	N274	N	0.823211	0.459389	0.083820
	N275	N	0.823469	0.534497	0.914012
	O276	O	0.475760	0.492972	0.552546
	H277	H	0.478634	0.501011	0.567860
	H278	H	0.468087	0.496331	0.542312
	O279	O	0.533559	0.420763	0.490761
	H280	H	0.532983	0.410847	0.481867
	H281	H	0.525616	0.417305	0.480040
	O282	O	0.494171	0.567638	0.464785
	H283	H	0.499734	0.570930	0.472762
	H284	H	0.492998	0.566741	0.470159
	O285	O	0.516266	1.513128	0.589827
	H286	H	0.519439	1.496668	0.593805
	H287	H	0.512350	1.499706	0.592772
	O288	O	0.521912	0.513711	0.546397
	H289	H	0.509856	0.524470	0.539983
	H290	H	0.535938	0.519074	0.553991
	O291	O	0.036214	-0.036769	0.979993
	H292	H	0.037607	-0.046679	0.974897
	H293	H	0.019482	-0.040291	0.985965
	O294	O	0.502554	0.466832	0.445418
	H295	H	0.496705	0.470506	0.446263
	H296	H	0.492880	0.475789	0.437914
	O297	O	0.515314	0.580302	0.524691
	H298	H	0.518281	0.573604	0.518607
	H299	H	0.513973	0.587615	0.519813
	O300	O	1.059876	0.967243	0.994683
	H301	H	1.068013	0.973661	0.994096
	H302	H	1.065719	0.973687	0.990357
	O303	O	0.539992	0.487472	0.524331
	H304	H	0.541754	0.485584	0.536304
	H305	H	0.536738	0.481563	0.521255
	O306	O	1.015288	-0.090806	0.964118
	H307	H	1.018935	-0.091521	0.969968
	H308	H	1.016220	-0.088336	0.968514
	O309	O	0.516458	0.574140	0.537102
	H310	H	0.528963	0.571338	0.537562
	H311	H	0.516327	0.583402	0.540415
	O312	O	0.073899	0.977918	0.998572
	H313	H	0.082322	0.971235	0.995198
	H314	H	0.067397	0.977713	0.993599
	O315	O	0.514784	-0.600348	0.481502
	H316	H	0.525579	-0.600061	0.478238
	H317	H	0.507217	-0.598852	0.482971
	O318	O	-0.434922	-0.515435	-0.623200
	H319	H	-0.437924	-0.510524	-0.624072
	H320	H	-0.435955	-0.519763	-0.622459
	O321	O	0.461264	0.489503	0.485770
	H322	H	0.462763	0.489156	0.486696
	H323	H	0.454880	0.489424	0.484373
	O324	O	0.472253	0.487192	0.552473
	H325	H	0.481138	0.492923	0.547202
	H326	H	0.470465	0.486111	0.561740
	O327	O	0.991974	0.927863	-0.017449
	H328	H	0.988364	0.917652	-0.022457
	H329	H	0.996162	0.928805	-0.015188
	O330	O	0.551150	0.477385	0.487814
	H331	H	0.552466	0.464234	0.481372
	H332	H	0.554266	0.489088	0.489349
	O333	O	0.553610	0.531809	0.523360
	H334	H	0.564499	0.523836	0.522202
	H335	H	0.554732	0.534266	0.521984
