data_Molecule from HDF5

_cell_length_a		16.338118
_cell_length_b		16.248098
_cell_length_c		16.432558
_cell_angle_alpha	90.279467
_cell_angle_beta	90.079173
_cell_angle_gamma	90.164870
_symmetry_space_group_name_H-M	'P 1'
_symmetry_Int_Tables_number		1

loop_
	_symmetry_equiv_pos_as_xyz
	x,y,z

loop_
	_atom_site_label
	_atom_site_type_symbol
	_atom_site_fract_x
	_atom_site_fract_y
	_atom_site_fract_z
	H0	H	0.391047	0.825014	0.723762
	H1	H	0.601217	0.147128	0.727146
	H2	H	0.599471	0.827348	0.284025
	H3	H	0.395472	0.150930	0.289860
	H4	H	0.714981	0.382430	0.843942
	H5	H	0.718975	0.593331	0.164129
	H6	H	0.277013	0.592784	0.844994
	H7	H	0.276428	0.386315	0.164855
	H8	H	0.834757	0.705342	0.400279
	H9	H	0.157754	0.706321	0.604672
	H10	H	0.835024	0.269217	0.603736
	H11	H	0.158776	0.271681	0.403218
	H12	H	0.836487	0.382168	0.723645
	H13	H	0.156359	0.593895	0.723730
	H14	H	0.835040	0.589174	0.285089
	H15	H	0.157455	0.385338	0.285146
	H16	H	0.394181	0.706287	0.844871
	H17	H	0.599129	0.707366	0.166061
	H18	H	0.598791	0.266645	0.845185
	H19	H	0.396352	0.272609	0.166961
	H20	H	0.713700	0.825633	0.400424
	H21	H	0.714708	0.149251	0.608512
	H22	H	0.278685	0.824151	0.604426
	H23	H	0.280423	0.150139	0.405704
	H24	H	0.892475	0.325252	0.219915
	H25	H	0.100932	0.648702	0.225792
	H26	H	0.097484	0.327460	0.786450
	H27	H	0.890990	0.649508	0.784401
	H28	H	0.215128	0.884045	0.343043
	H29	H	0.214345	0.089693	0.664702
	H30	H	0.775765	0.091129	0.344908
	H31	H	0.775841	0.881097	0.662813
	H32	H	0.335350	0.203257	0.905961
	H33	H	0.658702	0.206930	0.107235
	H34	H	0.334358	0.771036	0.106331
	H35	H	0.657308	0.769593	0.904408
	H36	H	0.334480	0.887234	0.222899
	H37	H	0.657452	0.094168	0.225804
	H38	H	0.336134	0.089091	0.787240
	H39	H	0.654717	0.877278	0.782666
	H40	H	0.896063	0.203191	0.342436
	H41	H	0.098670	0.206908	0.663655
	H42	H	0.098047	0.769145	0.342764
	H43	H	0.893167	0.767556	0.663247
	H44	H	0.211354	0.327382	0.902718
	H45	H	0.215128	0.650815	0.108677
	H46	H	0.777339	0.326119	0.104487
	H47	H	0.777124	0.649674	0.901129
	H48	H	0.397609	0.102690	0.590298
	H49	H	0.595712	0.872232	0.588022
	H50	H	0.582877	0.100633	0.420287
	H51	H	0.408062	0.873835	0.414472
	H52	H	0.588689	0.399383	0.118594
	H53	H	0.586483	0.583905	0.889627
	H54	H	0.404458	0.581301	0.119382
	H55	H	0.398321	0.395899	0.889488
	H56	H	0.109129	0.578892	0.417216
	H57	H	0.884428	0.568395	0.595376
	H58	H	0.109007	0.401692	0.592310
	H59	H	0.879016	0.391360	0.407180
	H60	H	0.111753	0.399496	0.598530
	H61	H	0.878036	0.581765	0.600322
	H62	H	0.109109	0.573599	0.413553
	H63	H	0.881787	0.392907	0.415228
	H64	H	0.403834	0.576879	0.119093
	H65	H	0.592320	0.573807	0.891022
	H66	H	0.587181	0.402531	0.117532
	H67	H	0.405403	0.400017	0.892963
	H68	H	0.592647	0.104537	0.416811
	H69	H	0.585020	0.867984	0.605150
	H70	H	0.406119	0.105269	0.608302
	H71	H	0.402015	0.870778	0.412725
	H72	H	0.903556	0.604413	0.094887
	H73	H	0.089171	0.372954	0.092145
	H74	H	0.088662	0.606378	0.915835
	H75	H	0.907179	0.372972	0.909602
	H76	H	0.083237	0.901314	0.614398
	H77	H	0.087102	0.072761	0.391046
	H78	H	0.903982	0.073931	0.617736
	H79	H	0.901946	0.895841	0.388363
	H80	H	0.610584	0.073068	0.915273
	H81	H	0.382854	0.077904	0.098321
	H82	H	0.608493	0.899822	0.090855
	H83	H	0.379319	0.894706	0.910444
	H84	H	0.610235	0.903706	0.100315
	H85	H	0.381556	0.079953	0.100497
	H86	H	0.612209	0.077482	0.914492
	H87	H	0.383142	0.894964	0.919387
	H88	H	0.910993	0.078423	0.616085
	H89	H	0.086108	0.083823	0.388905
	H90	H	0.086792	0.890817	0.619017
	H91	H	0.905022	0.902074	0.391882
	H92	H	0.086651	0.605993	0.910810
	H93	H	0.086648	0.372756	0.097506
	H94	H	0.912409	0.601964	0.097985
	H95	H	0.907895	0.374332	0.914251
	H96	H	0.416288	0.096897	0.592824
	H97	H	0.575504	0.876655	0.589198
	H98	H	0.583981	0.103848	0.410128
	H99	H	0.407318	0.871385	0.408015
	H100	H	0.586065	0.399214	0.116713
	H101	H	0.581110	0.574344	0.894347
	H102	H	0.407500	0.579266	0.118342
	H103	H	0.406120	0.391414	0.890105
	H104	H	0.112255	0.579072	0.411438
	H105	H	0.883582	0.580452	0.585754
	H106	H	0.112056	0.395368	0.593523
	H107	H	0.881464	0.398929	0.409419
	H108	H	0.909529	0.599779	0.088800
	H109	H	0.083825	0.375160	0.092823
	H110	H	0.083922	0.604258	0.914596
	H111	H	0.903870	0.371794	0.912996
	H112	H	0.094035	0.900171	0.618860
	H113	H	0.096279	0.078386	0.387194
	H114	H	0.903824	0.081694	0.620225
	H115	H	0.909807	0.895418	0.390676
	H116	H	0.610935	0.076432	0.918679
	H117	H	0.381381	0.081236	0.097100
	H118	H	0.612367	0.894066	0.097963
	H119	H	0.383569	0.902976	0.914109
	C120	C	0.375483	-0.005419	0.626504
	C121	C	0.617321	0.978661	0.626430
	C122	C	0.617499	-0.003627	0.383767
	C123	C	0.375762	0.979533	0.383431
	C124	C	0.617992	0.367135	0.012139
	C125	C	0.618479	0.609701	0.997128
	C126	C	0.374410	0.609945	0.013223
	C127	C	0.373699	0.366370	0.997050
	C128	C	0.003858	0.607845	0.382423
	C129	C	0.987942	0.609522	0.625062
	C130	C	0.004715	0.367117	0.624752
	C131	C	0.987458	0.364644	0.380640
	C132	C	0.876423	0.495583	0.124266
	C133	C	0.117827	0.479909	0.126005
	C134	C	0.116744	0.498348	0.883137
	C135	C	0.874641	0.479618	0.881741
	C136	C	0.118410	0.866216	0.511719
	C137	C	0.119441	0.109296	0.495069
	C138	C	0.875190	0.108756	0.512411
	C139	C	0.874221	0.865442	0.495338
	C140	C	0.505400	0.107645	0.884907
	C141	C	0.488336	0.110748	0.128461
	C142	C	0.504278	0.867895	0.127010
	C143	C	0.487601	0.865012	0.883508
	C144	C	0.373321	0.873002	0.683994
	C145	C	0.619441	0.099319	0.686803
	C146	C	0.617691	0.875121	0.324298
	C147	C	0.376053	0.102137	0.328108
	C148	C	0.676178	0.364181	0.892271
	C149	C	0.678126	0.611381	0.116914
	C150	C	0.315950	0.611330	0.893030
	C151	C	0.316213	0.367349	0.117416
	C152	C	0.883024	0.666206	0.381457
	C153	C	0.109097	0.667887	0.624846
	C154	C	0.883416	0.308540	0.623830
	C155	C	0.109871	0.309409	0.382577
	C156	C	0.884087	0.364820	0.683493
	C157	C	0.108399	0.611697	0.683980
	C158	C	0.883071	0.608447	0.324055
	C159	C	0.108983	0.365626	0.323563
	C160	C	0.374608	0.667696	0.892826
	C161	C	0.618603	0.667985	0.117796
	C162	C	0.618012	0.306664	0.892734
	C163	C	0.375377	0.310297	0.118252
	C164	C	0.675042	0.874521	0.382035
	C165	C	0.675940	0.100260	0.627798
	C166	C	0.317149	0.872728	0.624915
	C167	C	0.318532	0.101630	0.385328
	C168	C	0.874310	0.373762	0.181352
	C169	C	0.119555	0.600873	0.185850
	C170	C	0.116796	0.376269	0.825048
	C171	C	0.872935	0.601115	0.823838
	C172	C	0.176365	0.865010	0.391153
	C173	C	0.176338	0.109798	0.616215
	C174	C	0.815738	0.109791	0.392489
	C175	C	0.815498	0.863446	0.615223
	C176	C	0.383719	0.164332	0.886232
	C177	C	0.610083	0.168623	0.127742
	C178	C	0.382811	0.809897	0.126348
	C179	C	0.608581	0.807186	0.883931
	C180	C	0.383015	0.867782	0.184259
	C181	C	0.609504	0.112536	0.186520
	C182	C	0.384316	0.107852	0.826777
	C183	C	0.607249	0.861104	0.823431
	C184	C	0.876000	0.165228	0.391125
	C185	C	0.118564	0.167890	0.615770
	C186	C	0.118112	0.807665	0.390997
	C187	C	0.873926	0.806598	0.615297
	C188	C	0.173456	0.376190	0.882978
	C189	C	0.176320	0.601995	0.127553
	C190	C	0.816982	0.374053	0.123822
	C191	C	0.815890	0.601165	0.881556
	C192	C	0.399975	0.079459	0.603706
	C193	C	0.592599	0.894192	0.601433
	C194	C	0.593662	0.080947	0.408604
	C195	C	0.399109	0.894139	0.405397
	C196	C	0.594189	0.393008	0.095798
	C197	C	0.593775	0.584691	0.913563
	C198	C	0.398259	0.586024	0.097195
	C199	C	0.396676	0.389043	0.912755
	C200	C	0.088192	0.583971	0.406878
	C201	C	0.903758	0.584234	0.600827
	C202	C	0.088911	0.391763	0.601467
	C203	C	0.902794	0.387622	0.403836
	C204	C	0.901273	0.579984	0.100657
	C205	C	0.093567	0.395672	0.101340
	C206	C	0.093367	0.583389	0.906813
	C207	C	0.898868	0.395158	0.905485
	C208	C	0.094820	0.890468	0.595577
	C209	C	0.096489	0.085328	0.410732
	C210	C	0.899224	0.084930	0.596186
	C211	C	0.898641	0.890448	0.412072
	C212	C	0.589456	0.082864	0.909039
	C213	C	0.403982	0.086771	0.105287
	C214	C	0.588431	0.892257	0.103391
	C215	C	0.403679	0.890228	0.907745
	Zn216	Zn	0.496204	-0.014274	0.755454
	Zn217	Zn	0.496591	-0.010233	0.255410
	Zn218	Zn	0.748038	0.487946	0.003753
	Zn219	Zn	0.245117	0.489336	0.004467
	Zn220	Zn	-0.004017	0.737442	0.502987
	Zn221	Zn	-0.002745	0.237636	0.503214
	Zn222	Zn	-0.003993	0.488826	0.754400
	Zn223	Zn	-0.004083	0.487026	0.253312
	Zn224	Zn	0.496112	0.738384	0.005187
	Zn225	Zn	0.497021	0.237561	0.006033
	Zn226	Zn	0.745885	-0.012937	0.504729
	Zn227	Zn	0.247811	-0.013338	0.504243
	N228	N	0.408832	0.949797	0.685206
	N229	N	0.583888	0.022634	0.686191
	N230	N	0.582825	0.951978	0.325265
	N231	N	0.410693	0.025130	0.326573
	N232	N	0.676067	0.401364	0.967643
	N233	N	0.678237	0.575812	0.040868
	N234	N	0.315837	0.576098	0.968895
	N235	N	0.314983	0.401371	0.040973
	N236	N	0.959125	0.665999	0.417346
	N237	N	0.032985	0.666695	0.588987
	N238	N	0.959431	0.309856	0.588154
	N239	N	0.033324	0.308425	0.416987
	N240	N	0.960480	0.400647	0.684130
	N241	N	0.031875	0.576244	0.684353
	N242	N	0.959174	0.572827	0.324795
	N243	N	0.031826	0.399350	0.322334
	N244	N	0.410255	0.667040	0.968640
	N245	N	0.582478	0.667236	0.042173
	N246	N	0.582388	0.308703	0.968316
	N247	N	0.410776	0.309771	0.042382
	N248	N	0.674710	0.950662	0.418680
	N249	N	0.674778	0.024061	0.591020
	N250	N	0.318216	0.949484	0.589978
	N251	N	0.318199	0.024296	0.418722
	N252	N	0.910512	0.450256	0.181533
	N253	N	0.083906	0.524202	0.185100
	N254	N	0.082518	0.453422	0.824629
	N255	N	0.908479	0.524602	0.823570
	N256	N	0.176579	0.900581	0.467220
	N257	N	0.177103	0.074194	0.540177
	N258	N	0.815112	0.075317	0.468844
	N259	N	0.815406	0.899179	0.539653
	N260	N	0.460092	0.164537	0.921420
	N261	N	0.533852	0.167788	0.092344
	N262	N	0.459217	0.809803	0.091395
	N263	N	0.533219	0.809826	0.920711
	N264	N	0.459560	0.903066	0.184809
	N265	N	0.532778	0.077499	0.187257
	N266	N	0.461038	0.073203	0.825883
	N267	N	0.530917	0.896500	0.822955
	N268	N	0.912210	0.164909	0.466722
	N269	N	0.084065	0.167759	0.539428
	N270	N	0.082678	0.808112	0.466810
	N271	N	0.909552	0.807514	0.539553
	N272	N	0.173800	0.453093	0.918188
	N273	N	0.175354	0.525716	0.091024
	N274	N	0.818284	0.450679	0.088820
	N275	N	0.816871	0.524611	0.916913
	O276	O	0.652671	0.541636	0.429249
	H277	H	0.668450	0.556305	0.431732
	H278	H	0.638016	0.547260	0.412102
	O279	O	0.684966	0.538170	0.661326
	H280	H	0.710285	0.550820	0.672868
	H281	H	0.683980	0.551670	0.653226
	O282	O	0.952829	-0.186067	0.923311
	H283	H	0.943765	-0.184403	0.897515
	H284	H	0.938539	-0.180273	0.929944
	O285	O	0.599477	0.580471	0.422026
	H286	H	0.593893	0.586500	0.422577
	H287	H	0.597776	0.574848	0.409617
	O288	O	1.022654	0.855218	1.075091
	H289	H	1.029066	0.848477	1.079276
	H290	H	1.023435	0.849458	1.070409
	O291	O	-0.135265	0.908606	0.138410
	H292	H	-0.154294	0.905774	0.157205
	H293	H	-0.128261	0.895083	0.136110
	O294	O	0.572090	0.638686	0.621620
	H295	H	0.554027	0.636294	0.621595
	H296	H	0.576821	0.644916	0.591334
	O297	O	0.657065	0.423750	0.461694
	H298	H	0.653442	0.412914	0.456273
	H299	H	0.649000	0.409477	0.456976
	O300	O	0.459512	0.486761	0.453582
	H301	H	0.458788	0.485192	0.465837
	H302	H	0.450530	0.477285	0.452708
	O303	O	0.327002	0.434937	0.587277
	H304	H	0.352458	0.431120	0.576676
	H305	H	0.307197	0.438674	0.610857
	O306	O	0.542105	0.477526	0.643352
	H307	H	0.544086	0.477105	0.650861
	H308	H	0.551034	0.480471	0.640849
	O309	O	0.487870	0.294980	0.461209
	H310	H	0.487902	0.291786	0.482453
	H311	H	0.487126	0.284703	0.449118
	O312	O	-0.120194	0.162355	-0.124923
	H313	H	-0.114895	0.159066	-0.133103
	H314	H	-0.125805	0.167010	-0.136425
	O315	O	0.581205	0.570885	0.480348
	H316	H	0.584464	0.579432	0.478514
	H317	H	0.592465	0.570133	0.488480
	O318	O	0.089949	0.858421	0.992124
	H319	H	0.071256	0.845024	0.980644
	H320	H	0.098395	0.850670	0.999111
	O321	O	0.358792	0.472934	0.549342
	H322	H	0.355969	0.477552	0.565728
	H323	H	0.352485	0.470795	0.550476
	O324	O	-0.132597	0.938002	-0.129285
	H325	H	-0.141595	0.937587	-0.135335
	H326	H	-0.143823	0.942471	-0.131116
	O327	O	0.636919	0.419780	0.547846
	H328	H	0.645408	0.421745	0.542290
	H329	H	0.643082	0.421213	0.547365
	O330	O	0.064603	-0.153816	0.957755
	H331	H	0.069909	-0.144788	0.954375
	H332	H	0.074270	-0.156094	0.963401
	O333	O	-0.078822	0.132521	1.066870
	H334	H	-0.072084	0.131727	1.088290
	H335	H	-0.066424	0.124925	1.059542
	O336	O	0.553799	0.459010	0.396444
	H337	H	0.559496	0.448187	0.398803
	H338	H	0.538913	0.455745	0.395695
	O339	O	0.882360	0.108855	-0.091645
	H340	H	0.888144	0.115042	-0.094121
	H341	H	0.882553	0.122856	-0.072027
	O342	O	0.158794	0.128569	0.116814
	H343	H	0.172481	0.123080	0.103737
	H344	H	0.172638	0.122238	0.119469
	O345	O	1.405387	0.583705	0.433080
	H346	H	1.388812	0.599695	0.429391
	H347	H	1.398507	0.583339	0.428325
	O348	O	1.061941	1.029434	0.169257
	H349	H	1.050622	1.029691	0.161514
	H350	H	1.060059	1.034462	0.169868
	O351	O	0.395413	0.426389	0.398761
	H352	H	0.407230	0.431591	0.410562
	H353	H	0.397228	0.409911	0.385062
	O354	O	1.137985	-0.048802	0.909811
	H355	H	1.134394	-0.046541	0.900277
	H356	H	1.154266	-0.051565	0.913492
	O357	O	0.443290	0.517299	0.669306
	H358	H	0.427675	0.514057	0.681228
	H359	H	0.440153	0.522756	0.668716
	O360	O	0.322148	0.339601	0.604414
	H361	H	0.353839	0.325792	0.608009
	H362	H	0.320314	0.355540	0.603488
	O363	O	-0.025938	1.104006	0.964924
	H364	H	-0.013399	1.125121	0.977907
	H365	H	-0.043312	1.107322	0.973959
	O366	O	0.443055	0.384348	0.540648
	H367	H	0.430871	0.383977	0.545903
	H368	H	0.457703	0.375519	0.541803
	O369	O	-0.167554	0.911075	0.076321
	H370	H	-0.185333	0.888729	0.088904
	H371	H	-0.169101	0.904550	0.079027
	O372	O	0.462566	0.436085	0.596593
	H373	H	0.464096	0.438487	0.586165
	H374	H	0.468805	0.438488	0.604334
	O375	O	0.528234	0.431976	0.494755
	H376	H	0.544079	0.440764	0.497225
	H377	H	0.524183	0.443520	0.499692
	O378	O	1.108880	1.075460	-0.090521
	H379	H	1.123007	1.079739	-0.087181
	H380	H	1.085420	1.077825	-0.090831
	O381	O	1.132356	-0.061830	0.033024
	H382	H	1.119925	-0.071306	0.035252
	H383	H	1.148836	-0.060398	0.047169
	O384	O	1.029540	0.915104	-0.118460
	H385	H	1.047323	0.917949	-0.128371
	H386	H	1.022859	0.927810	-0.120226
	O387	O	0.139023	0.039559	0.146358
	H388	H	0.133021	0.029818	0.129947
	H389	H	0.140097	0.036243	0.146030
	O390	O	-0.127013	1.122846	0.031840
	H391	H	-0.123424	1.122669	0.037457
	H392	H	-0.117534	1.131951	0.040506
	O393	O	0.892436	0.849259	1.030658
	H394	H	0.896724	0.850109	1.025309
	H395	H	0.904702	0.852176	1.036564
	O396	O	0.348057	0.675099	0.371163
	H397	H	0.334691	0.672766	0.374257
	H398	H	0.354355	0.674713	0.358571
	O399	O	0.112174	1.027978	0.978466
	H400	H	0.116965	1.018629	0.967958
	H401	H	0.117815	1.018467	0.972808
	O402	O	0.455236	0.565205	0.436862
	H403	H	0.445051	0.575123	0.444012
	H404	H	0.438789	0.550704	0.435574
	O405	O	0.982010	1.099397	0.167847
	H406	H	0.994993	1.109332	0.175104
	H407	H	0.996308	1.106198	0.179282
	O408	O	0.959718	0.960928	0.033537
	H409	H	0.945935	0.958213	0.024251
	H410	H	0.945000	0.980555	0.038935
	O411	O	0.919901	-0.036564	0.858851
	H412	H	0.912841	-0.030813	0.852181
	H413	H	0.912071	-0.019231	0.854127
	O414	O	0.457896	0.646436	0.465003
	H415	H	0.456298	0.649934	0.474331
	H416	H	0.468809	0.656918	0.464186
	O417	O	0.474570	0.317209	0.610855
	H418	H	0.479289	0.327752	0.598623
	H419	H	0.473591	0.308853	0.616907
