data_Molecule from HDF5

_cell_length_a		16.300327
_cell_length_b		16.339975
_cell_length_c		16.301620
_cell_angle_alpha	89.973660
_cell_angle_beta	89.983439
_cell_angle_gamma	89.972826
_symmetry_space_group_name_H-M	'P 1'
_symmetry_Int_Tables_number		1

loop_
	_symmetry_equiv_pos_as_xyz
	x,y,z

loop_
	_atom_site_label
	_atom_site_type_symbol
	_atom_site_fract_x
	_atom_site_fract_y
	_atom_site_fract_z
	H0	H	0.401408	0.836513	0.714545
	H1	H	0.596463	0.163862	0.712852
	H2	H	0.596713	0.836046	0.286437
	H3	H	0.402481	0.163435	0.285880
	H4	H	0.714614	0.401545	0.836833
	H5	H	0.714311	0.597579	0.162991
	H6	H	0.286235	0.597119	0.836334
	H7	H	0.286144	0.402725	0.164246
	H8	H	0.836528	0.714291	0.401245
	H9	H	0.162937	0.714906	0.599178
	H10	H	0.836930	0.285883	0.598411
	H11	H	0.163432	0.284014	0.400375
	H12	H	0.836942	0.403079	0.713088
	H13	H	0.164086	0.597258	0.714259
	H14	H	0.836712	0.597148	0.285585
	H15	H	0.164067	0.401283	0.285735
	H16	H	0.401055	0.715084	0.836605
	H17	H	0.599157	0.715419	0.163236
	H18	H	0.598162	0.285488	0.836462
	H19	H	0.402421	0.285391	0.163851
	H20	H	0.713710	0.836438	0.402034
	H21	H	0.714519	0.163459	0.596949
	H22	H	0.285308	0.836804	0.597642
	H23	H	0.284936	0.164097	0.401297
	H24	H	0.902337	0.336512	0.214766
	H25	H	0.098812	0.662912	0.215324
	H26	H	0.098441	0.336376	0.785938
	H27	H	0.903155	0.663328	0.785735
	H28	H	0.213404	0.903171	0.336453
	H29	H	0.213516	0.097672	0.663284
	H30	H	0.787290	0.096542	0.336355
	H31	H	0.786368	0.902824	0.664050
	H32	H	0.337020	0.214581	0.901676
	H33	H	0.664218	0.213056	0.096961
	H34	H	0.335960	0.785931	0.098174
	H35	H	0.662803	0.785964	0.901340
	H36	H	0.335816	0.902103	0.214199
	H37	H	0.663984	0.097075	0.213673
	H38	H	0.335848	0.097903	0.786313
	H39	H	0.662727	0.901981	0.785661
	H40	H	0.901787	0.215105	0.337006
	H41	H	0.098062	0.213716	0.663258
	H42	H	0.098762	0.784865	0.336986
	H43	H	0.902562	0.786177	0.663958
	H44	H	0.214903	0.336503	0.902778
	H45	H	0.214866	0.663315	0.098333
	H46	H	0.785789	0.336700	0.098081
	H47	H	0.785021	0.662932	0.900631
	H48	H	0.410300	0.114276	0.589230
	H49	H	0.588223	0.885597	0.595120
	H50	H	0.585622	0.112673	0.408120
	H51	H	0.412902	0.884076	0.400722
	H52	H	0.595412	0.417842	0.112862
	H53	H	0.595751	0.600715	0.881106
	H54	H	0.409516	0.588579	0.113888
	H55	H	0.410530	0.410078	0.886160
	H56	H	0.111472	0.584475	0.413997
	H57	H	0.885565	0.592335	0.587805
	H58	H	0.120070	0.405840	0.602478
	H59	H	0.883286	0.398439	0.411552
	H60	H	0.116908	0.398253	0.586953
	H61	H	0.883304	0.589423	0.598406
	H62	H	0.119198	0.591434	0.395531
	H63	H	0.887395	0.413718	0.411494
	H64	H	0.410703	0.598533	0.116057
	H65	H	0.597035	0.586054	0.884927
	H66	H	0.581566	0.401325	0.114606
	H67	H	0.408643	0.402173	0.883747
	H68	H	0.598412	0.115895	0.413027
	H69	H	0.595658	0.884693	0.589042
	H70	H	0.399774	0.117497	0.591650
	H71	H	0.407697	0.887739	0.414797
	H72	H	0.904734	0.613674	0.085208
	H73	H	0.090018	0.382736	0.102394
	H74	H	0.099246	0.614749	0.915412
	H75	H	0.914439	0.385382	0.901625
	H76	H	0.089207	0.902164	0.616016
	H77	H	0.095103	0.101176	0.380521
	H78	H	0.908839	0.092829	0.615411
	H79	H	0.907508	0.901258	0.382434
	H80	H	0.616078	0.090872	0.904389
	H81	H	0.384531	0.096448	0.087668
	H82	H	0.615610	0.904313	0.089807
	H83	H	0.383644	0.903798	0.912457
	H84	H	0.614489	0.910534	0.093587
	H85	H	0.385171	0.087470	0.093958
	H86	H	0.617850	0.095930	0.904571
	H87	H	0.384507	0.913203	0.908147
	H88	H	0.906958	0.095365	0.617039
	H89	H	0.099493	0.088002	0.383187
	H90	H	0.097969	0.906788	0.618586
	H91	H	0.901128	0.908143	0.382625
	H92	H	0.098194	0.619829	0.897496
	H93	H	0.087253	0.387730	0.085882
	H94	H	0.900942	0.618958	0.098389
	H95	H	0.906272	0.386090	0.915099
	H96	H	0.407413	0.117453	0.599607
	H97	H	0.596691	0.881867	0.598279
	H98	H	0.595151	0.118333	0.399405
	H99	H	0.398065	0.881543	0.404426
	H100	H	0.602139	0.398951	0.121463
	H101	H	0.583903	0.593680	0.886881
	H102	H	0.401891	0.593429	0.118406
	H103	H	0.403134	0.408124	0.883185
	H104	H	0.118489	0.604006	0.411820
	H105	H	0.881543	0.600388	0.594828
	H106	H	0.113710	0.415025	0.589617
	H107	H	0.881624	0.406895	0.398157
	H108	H	0.914671	0.614665	0.096006
	H109	H	0.102630	0.381906	0.090634
	H110	H	0.083239	0.612375	0.906449
	H111	H	0.898986	0.380294	0.902409
	H112	H	0.090445	0.911771	0.614113
	H113	H	0.085716	0.091671	0.385625
	H114	H	0.905149	0.092525	0.617365
	H115	H	0.909826	0.909584	0.385910
	H116	H	0.615592	0.093968	0.909035
	H117	H	0.380802	0.096860	0.097974
	H118	H	0.617473	0.904874	0.097037
	H119	H	0.381564	0.904823	0.902393
	C120	C	0.377771	0.008295	0.621607
	C121	C	0.621506	0.992060	0.621638
	C122	C	0.621581	0.007727	0.378332
	C123	C	0.378047	0.992393	0.378265
	C124	C	0.621580	0.378106	0.008217
	C125	C	0.620950	0.621730	0.991787
	C126	C	0.378376	0.621954	0.008098
	C127	C	0.378751	0.378091	0.992201
	C128	C	0.008167	0.621287	0.378746
	C129	C	0.991519	0.621686	0.621861
	C130	C	0.008812	0.378640	0.621179
	C131	C	0.992144	0.378046	0.378440
	C132	C	0.878425	0.507884	0.121650
	C133	C	0.121566	0.491924	0.121524
	C134	C	0.121963	0.507906	0.878239
	C135	C	0.878325	0.491782	0.877949
	C136	C	0.121301	0.878464	0.508605
	C137	C	0.121754	0.121615	0.491440
	C138	C	0.878969	0.121442	0.508363
	C139	C	0.878062	0.878437	0.491881
	C140	C	0.508473	0.121908	0.877800
	C141	C	0.491959	0.121412	0.121258
	C142	C	0.507825	0.878285	0.121843
	C143	C	0.491132	0.878690	0.878607
	C144	C	0.380696	0.885402	0.676116
	C145	C	0.617980	0.115122	0.675683
	C146	C	0.617921	0.884907	0.323998
	C147	C	0.381115	0.115048	0.323353
	C148	C	0.676539	0.381240	0.885278
	C149	C	0.676164	0.618565	0.114568
	C150	C	0.323705	0.618536	0.885125
	C151	C	0.324153	0.381807	0.115303
	C152	C	0.885412	0.676351	0.381073
	C153	C	0.114727	0.676794	0.619597
	C154	C	0.885742	0.323800	0.618884
	C155	C	0.114928	0.322644	0.380504
	C156	C	0.885688	0.381765	0.676126
	C157	C	0.115004	0.618378	0.676409
	C158	C	0.885389	0.618224	0.323500
	C159	C	0.115297	0.380659	0.323458
	C160	C	0.380705	0.677097	0.885344
	C161	C	0.618747	0.676701	0.114714
	C162	C	0.619037	0.323423	0.885194
	C163	C	0.381764	0.323409	0.115191
	C164	C	0.675887	0.884984	0.381715
	C165	C	0.676213	0.114938	0.617867
	C166	C	0.323208	0.885263	0.618050
	C167	C	0.323285	0.115229	0.381273
	C168	C	0.881323	0.385214	0.176867
	C169	C	0.119328	0.614483	0.177037
	C170	C	0.119152	0.385126	0.823490
	C171	C	0.881357	0.614285	0.823109
	C172	C	0.175848	0.881900	0.385161
	C173	C	0.176205	0.118534	0.614720
	C174	C	0.824106	0.118161	0.385545
	C175	C	0.823580	0.881502	0.615328
	C176	C	0.385590	0.176787	0.880915
	C177	C	0.615438	0.175329	0.117862
	C178	C	0.384619	0.823744	0.118903
	C179	C	0.614129	0.823889	0.881214
	C180	C	0.384606	0.881656	0.176208
	C181	C	0.615110	0.117958	0.176024
	C182	C	0.385018	0.118864	0.823552
	C183	C	0.614165	0.881785	0.823817
	C184	C	0.881346	0.176685	0.385551
	C185	C	0.118664	0.175913	0.614536
	C186	C	0.118808	0.823441	0.385531
	C187	C	0.881318	0.823778	0.615210
	C188	C	0.177094	0.385217	0.881408
	C189	C	0.176903	0.614673	0.118993
	C190	C	0.823454	0.385318	0.119009
	C191	C	0.823099	0.614468	0.880451
	C192	C	0.399473	0.094118	0.599892
	C193	C	0.599839	0.906140	0.600491
	C194	C	0.599492	0.093656	0.400346
	C195	C	0.399951	0.906449	0.400321
	C196	C	0.599603	0.399712	0.094098
	C197	C	0.598769	0.599747	0.906370
	C198	C	0.400794	0.599895	0.094070
	C199	C	0.400937	0.400096	0.906350
	C200	C	0.094272	0.599628	0.400624
	C201	C	0.905676	0.600392	0.600032
	C202	C	0.094670	0.400059	0.599333
	C203	C	0.906169	0.399931	0.400515
	C204	C	0.900354	0.593726	0.099806
	C205	C	0.099629	0.406197	0.099530
	C206	C	0.100020	0.593550	0.900198
	C207	C	0.900110	0.405980	0.900091
	C208	C	0.099175	0.900403	0.594164
	C209	C	0.100020	0.099924	0.405318
	C210	C	0.900689	0.099784	0.594496
	C211	C	0.899836	0.899867	0.405949
	C212	C	0.594331	0.099957	0.899603
	C213	C	0.405656	0.099887	0.099587
	C214	C	0.593822	0.900046	0.100018
	C215	C	0.405435	0.900798	0.900979
	Zn216	Zn	0.499422	0.000019	0.750042
	Zn217	Zn	0.499816	0.000011	0.249697
	Zn218	Zn	0.750023	0.500039	-0.000188
	Zn219	Zn	0.250423	0.500258	0.000350
	Zn220	Zn	0.000038	0.749834	0.499881
	Zn221	Zn	0.000648	0.250102	0.500168
	Zn222	Zn	0.000419	0.499623	0.749505
	Zn223	Zn	0.000476	0.499728	0.250151
	Zn224	Zn	0.499463	0.750945	0.000250
	Zn225	Zn	0.500401	0.249581	-0.000037
	Zn226	Zn	0.750180	-0.000356	0.500118
	Zn227	Zn	0.249654	0.000446	0.499962
	N228	N	0.413944	0.962693	0.678247
	N229	N	0.584516	0.037833	0.677921
	N230	N	0.584591	0.962420	0.322016
	N231	N	0.414511	0.037788	0.321709
	N232	N	0.678182	0.414492	0.962670
	N233	N	0.677596	0.584978	0.037305
	N234	N	0.322171	0.585197	0.962438
	N235	N	0.322106	0.415145	0.037864
	N236	N	0.962793	0.678214	0.414734
	N237	N	0.037263	0.678939	0.586254
	N238	N	0.963037	0.321835	0.585294
	N239	N	0.037448	0.321187	0.414162
	N240	N	0.963222	0.415025	0.677804
	N241	N	0.037522	0.584970	0.678143
	N242	N	0.962860	0.584827	0.322018
	N243	N	0.038003	0.414488	0.322021
	N244	N	0.414167	0.679066	0.963009
	N245	N	0.585187	0.678952	0.037396
	N246	N	0.585458	0.321351	0.962576
	N247	N	0.415133	0.321297	0.037648
	N248	N	0.677955	0.962371	0.414922
	N249	N	0.678297	0.037421	0.584954
	N250	N	0.321161	0.962828	0.585097
	N251	N	0.321109	0.037793	0.414516
	N252	N	0.914937	0.462551	0.178579
	N253	N	0.085716	0.537288	0.178696
	N254	N	0.085344	0.462300	0.821646
	N255	N	0.914873	0.537171	0.821596
	N256	N	0.177476	0.915456	0.462529
	N257	N	0.178064	0.085428	0.537227
	N258	N	0.822752	0.084543	0.462849
	N259	N	0.821444	0.914394	0.537712
	N260	N	0.463221	0.178696	0.913954
	N261	N	0.537812	0.177481	0.084751
	N262	N	0.462128	0.821760	0.085795
	N263	N	0.536733	0.821952	0.914492
	N264	N	0.462099	0.915027	0.177982
	N265	N	0.537343	0.085044	0.178148
	N266	N	0.462424	0.085392	0.821583
	N267	N	0.536718	0.915154	0.821991
	N268	N	0.914739	0.178865	0.462992
	N269	N	0.085722	0.177977	0.536934
	N270	N	0.085677	0.821133	0.463124
	N271	N	0.914464	0.821573	0.537478
	N272	N	0.179107	0.462574	0.914448
	N273	N	0.178170	0.537528	0.085150
	N274	N	0.821720	0.462503	0.085415
	N275	N	0.821169	0.537095	0.914039
