data_Molecule from HDF5

_cell_length_a		16.295507
_cell_length_b		16.246652
_cell_length_c		16.320220
_cell_angle_alpha	90.057442
_cell_angle_beta	89.927904
_cell_angle_gamma	90.099252
_symmetry_space_group_name_H-M	'P 1'
_symmetry_Int_Tables_number		1

loop_
	_symmetry_equiv_pos_as_xyz
	x,y,z

loop_
	_atom_site_label
	_atom_site_type_symbol
	_atom_site_fract_x
	_atom_site_fract_y
	_atom_site_fract_z
	H0	H	0.399607	0.837406	0.717504
	H1	H	0.598959	0.164524	0.717155
	H2	H	0.599778	0.837242	0.287216
	H3	H	0.401338	0.164907	0.287866
	H4	H	0.714586	0.401807	0.838677
	H5	H	0.714192	0.599854	0.165112
	H6	H	0.284329	0.599740	0.838280
	H7	H	0.282680	0.401285	0.164914
	H8	H	0.835621	0.716133	0.404783
	H9	H	0.162744	0.716051	0.600700
	H10	H	0.835690	0.286639	0.600535
	H11	H	0.162816	0.287918	0.403031
	H12	H	0.835023	0.402454	0.716234
	H13	H	0.162364	0.600094	0.717065
	H14	H	0.835443	0.600154	0.287798
	H15	H	0.161747	0.402429	0.286945
	H16	H	0.400525	0.716351	0.838796
	H17	H	0.596817	0.714991	0.166044
	H18	H	0.596367	0.287856	0.838029
	H19	H	0.399775	0.286967	0.165924
	H20	H	0.713855	0.837062	0.403814
	H21	H	0.713247	0.164502	0.600934
	H22	H	0.283918	0.837573	0.601268
	H23	H	0.286477	0.165189	0.404536
	H24	H	0.899344	0.336645	0.217016
	H25	H	0.097910	0.664358	0.217088
	H26	H	0.096657	0.337442	0.787033
	H27	H	0.899114	0.664491	0.787593
	H28	H	0.214689	0.901743	0.339353
	H29	H	0.214954	0.101418	0.664985
	H30	H	0.785422	0.098884	0.338320
	H31	H	0.783486	0.902225	0.665581
	H32	H	0.334618	0.213750	0.905046
	H33	H	0.663167	0.216670	0.100571
	H34	H	0.335439	0.786607	0.101747
	H35	H	0.663207	0.787329	0.904407
	H36	H	0.335669	0.902652	0.217166
	H37	H	0.663443	0.100369	0.216621
	H38	H	0.336592	0.101570	0.786743
	H39	H	0.662302	0.902361	0.787511
	H40	H	0.900824	0.215963	0.338710
	H41	H	0.096827	0.215846	0.665653
	H42	H	0.097511	0.786372	0.339173
	H43	H	0.899679	0.786589	0.666001
	H44	H	0.212205	0.336131	0.903473
	H45	H	0.213728	0.664490	0.101097
	H46	H	0.784591	0.336633	0.099728
	H47	H	0.785834	0.664785	0.904662
	H48	H	0.406294	0.117184	0.593174
	H49	H	0.590811	0.882858	0.599577
	H50	H	0.579185	0.112968	0.411730
	H51	H	0.398593	0.881184	0.406619
	H52	H	0.586759	0.413769	0.114433
	H53	H	0.600666	0.587074	0.884940
	H54	H	0.403438	0.588462	0.116465
	H55	H	0.415665	0.406770	0.888853
	H56	H	0.118249	0.594178	0.398581
	H57	H	0.884421	0.594700	0.591520
	H58	H	0.114341	0.406801	0.589874
	H59	H	0.879340	0.405488	0.401860
	H60	H	0.114129	0.414891	0.596270
	H61	H	0.883313	0.589674	0.598698
	H62	H	0.115828	0.603182	0.415113
	H63	H	0.882478	0.403040	0.415538
	H64	H	0.410693	0.596626	0.117518
	H65	H	0.582674	0.590769	0.889870
	H66	H	0.589368	0.400570	0.119867
	H67	H	0.400464	0.400013	0.881944
	H68	H	0.602568	0.116959	0.419792
	H69	H	0.589134	0.886036	0.593522
	H70	H	0.406814	0.118353	0.597224
	H71	H	0.413825	0.884815	0.403896
	H72	H	0.900620	0.620147	0.099320
	H73	H	0.095558	0.383094	0.094493
	H74	H	0.081732	0.614534	0.911243
	H75	H	0.899103	0.379660	0.900844
	H76	H	0.096546	0.904330	0.621392
	H77	H	0.093838	0.103694	0.383069
	H78	H	0.897439	0.098165	0.621954
	H79	H	0.910320	0.913548	0.389564
	H80	H	0.616447	0.100744	0.909662
	H81	H	0.380665	0.093406	0.105961
	H82	H	0.617449	0.903239	0.096173
	H83	H	0.380468	0.909546	0.900332
	H84	H	0.612954	0.908731	0.090314
	H85	H	0.382602	0.101283	0.090355
	H86	H	0.613012	0.091309	0.914011
	H87	H	0.381486	0.899612	0.914623
	H88	H	0.905549	0.085922	0.615677
	H89	H	0.101119	0.087748	0.385856
	H90	H	0.094680	0.916612	0.617050
	H91	H	0.910319	0.901130	0.385589
	H92	H	0.098899	0.616781	0.917872
	H93	H	0.088800	0.383372	0.098840
	H94	H	0.912559	0.616592	0.097904
	H95	H	0.916471	0.385704	0.905868
	H96	H	0.410159	0.117050	0.595230
	H97	H	0.595118	0.882992	0.594541
	H98	H	0.596117	0.122465	0.395739
	H99	H	0.407502	0.886958	0.417795
	H100	H	0.599970	0.410682	0.119815
	H101	H	0.593846	0.604264	0.882718
	H102	H	0.400165	0.598271	0.120028
	H103	H	0.401592	0.416665	0.888341
	H104	H	0.111221	0.585207	0.414003
	H105	H	0.880754	0.598135	0.598832
	H106	H	0.117461	0.406008	0.599656
	H107	H	0.884839	0.415875	0.410316
	H108	H	0.904942	0.615575	0.088897
	H109	H	0.088252	0.386178	0.091883
	H110	H	0.094758	0.621036	0.900814
	H111	H	0.902103	0.386325	0.918789
	H112	H	0.085017	0.908318	0.616325
	H113	H	0.084222	0.090950	0.389393
	H114	H	0.913026	0.099935	0.617067
	H115	H	0.900253	0.908838	0.384539
	H116	H	0.616076	0.091586	0.903900
	H117	H	0.387339	0.084457	0.092295
	H118	H	0.615322	0.911641	0.098722
	H119	H	0.387042	0.916606	0.914760
	C120	C	0.377984	0.009569	0.623972
	C121	C	0.620591	0.992268	0.624067
	C122	C	0.621237	0.009314	0.380448
	C123	C	0.378383	0.992561	0.380949
	C124	C	0.620475	0.379792	0.010115
	C125	C	0.620784	0.622758	0.993808
	C126	C	0.376737	0.622808	0.010217
	C127	C	0.376872	0.378897	0.993845
	C128	C	0.007360	0.622952	0.380943
	C129	C	0.990549	0.623246	0.624898
	C130	C	0.006929	0.380274	0.623685
	C131	C	0.990500	0.379761	0.380590
	C132	C	0.877362	0.508975	0.123751
	C133	C	0.119974	0.492433	0.123575
	C134	C	0.120275	0.509317	0.880788
	C135	C	0.877820	0.492604	0.880854
	C136	C	0.120694	0.880475	0.510573
	C137	C	0.121546	0.123368	0.493696
	C138	C	0.877417	0.122733	0.510102
	C139	C	0.877479	0.879302	0.494184
	C140	C	0.507057	0.122798	0.880737
	C141	C	0.491711	0.122570	0.124344
	C142	C	0.507256	0.879376	0.124171
	C143	C	0.490948	0.879935	0.881350
	C144	C	0.379725	0.886141	0.678959
	C145	C	0.618657	0.115489	0.679179
	C146	C	0.619138	0.885988	0.325381
	C147	C	0.380974	0.115940	0.325718
	C148	C	0.676361	0.381701	0.887305
	C149	C	0.676200	0.620645	0.116598
	C150	C	0.322078	0.620331	0.887214
	C151	C	0.321326	0.381497	0.116597
	C152	C	0.884339	0.677993	0.384040
	C153	C	0.113792	0.678452	0.621808
	C154	C	0.884392	0.324321	0.621183
	C155	C	0.113630	0.324945	0.382336
	C156	C	0.884007	0.382360	0.678566
	C157	C	0.113610	0.620995	0.679590
	C158	C	0.884413	0.620852	0.325650
	C159	C	0.113087	0.382246	0.324863
	C160	C	0.379999	0.678042	0.887304
	C161	C	0.617457	0.677330	0.117110
	C162	C	0.617797	0.324820	0.887128
	C163	C	0.379077	0.324154	0.116854
	C164	C	0.676058	0.885874	0.383288
	C165	C	0.675664	0.115612	0.621369
	C166	C	0.322117	0.886361	0.621402
	C167	C	0.323417	0.116003	0.383195
	C168	C	0.879102	0.385733	0.179119
	C169	C	0.117878	0.615641	0.178911
	C170	C	0.117395	0.386077	0.825074
	C171	C	0.879488	0.615614	0.825501
	C172	C	0.176437	0.881864	0.387954
	C173	C	0.176872	0.121780	0.616245
	C174	C	0.823017	0.119626	0.387155
	C175	C	0.821475	0.881709	0.616846
	C176	C	0.383948	0.177117	0.884082
	C177	C	0.614439	0.178409	0.121052
	C178	C	0.384251	0.824303	0.122089
	C179	C	0.614087	0.824763	0.883627
	C180	C	0.384596	0.881873	0.179735
	C181	C	0.614639	0.120795	0.178922
	C182	C	0.384832	0.121169	0.825211
	C183	C	0.613720	0.882313	0.825882
	C184	C	0.880382	0.177741	0.387387
	C185	C	0.118389	0.178749	0.616654
	C186	C	0.118237	0.824592	0.387875
	C187	C	0.879569	0.824546	0.617272
	C188	C	0.174976	0.385662	0.882625
	C189	C	0.175323	0.615636	0.121222
	C190	C	0.822290	0.385567	0.120713
	C191	C	0.823018	0.615778	0.883563
	C192	C	0.401017	0.095257	0.601693
	C193	C	0.598303	0.906321	0.602166
	C194	C	0.599111	0.095291	0.402561
	C195	C	0.400191	0.906673	0.402872
	C196	C	0.598640	0.402045	0.095856
	C197	C	0.598848	0.600624	0.907978
	C198	C	0.398474	0.600858	0.095814
	C199	C	0.399281	0.401225	0.908365
	C200	C	0.092961	0.600864	0.402924
	C201	C	0.904920	0.600802	0.602812
	C202	C	0.093100	0.402547	0.601687
	C203	C	0.904504	0.401600	0.402769
	C204	C	0.899590	0.595231	0.101791
	C205	C	0.097626	0.406360	0.101406
	C206	C	0.098276	0.595196	0.903339
	C207	C	0.899580	0.406250	0.902189
	C208	C	0.098594	0.902927	0.596230
	C209	C	0.099505	0.100759	0.408098
	C210	C	0.899076	0.100868	0.596048
	C211	C	0.900341	0.901488	0.408668
	C212	C	0.593078	0.100990	0.902780
	C213	C	0.405571	0.099707	0.102542
	C214	C	0.593192	0.901422	0.101668
	C215	C	0.405103	0.902029	0.903496
	Zn216	Zn	0.499066	0.001125	0.752551
	Zn217	Zn	0.500142	0.000379	0.252851
	Zn218	Zn	0.749434	0.500896	0.001703
	Zn219	Zn	0.248887	0.500684	0.001889
	Zn220	Zn	-0.000763	0.751406	0.502875
	Zn221	Zn	-0.000801	0.251720	0.501881
	Zn222	Zn	-0.001115	0.501229	0.752777
	Zn223	Zn	-0.001593	0.500886	0.252278
	Zn224	Zn	0.499074	0.751102	0.002212
	Zn225	Zn	0.498845	0.251038	0.002370
	Zn226	Zn	0.748703	0.000857	0.502383
	Zn227	Zn	0.250208	0.001204	0.502240
	N228	N	0.413601	0.963754	0.680862
	N229	N	0.585154	0.037778	0.681101
	N230	N	0.585788	0.963765	0.323621
	N231	N	0.414308	0.038152	0.323989
	N232	N	0.678180	0.415275	0.964937
	N233	N	0.678112	0.587151	0.039058
	N234	N	0.320081	0.586691	0.964492
	N235	N	0.319940	0.415051	0.039248
	N236	N	0.961723	0.679204	0.417786
	N237	N	0.036233	0.679988	0.588635
	N238	N	0.961849	0.323199	0.587674
	N239	N	0.036274	0.323327	0.416340
	N240	N	0.961429	0.416391	0.680198
	N241	N	0.036037	0.587656	0.681805
	N242	N	0.961946	0.587548	0.323341
	N243	N	0.035455	0.415371	0.323579
	N244	N	0.413279	0.679687	0.964694
	N245	N	0.583764	0.678724	0.039791
	N246	N	0.583643	0.323637	0.964164
	N247	N	0.413029	0.322678	0.039607
	N248	N	0.677799	0.963599	0.416507
	N249	N	0.676973	0.038030	0.587643
	N250	N	0.320977	0.964203	0.588092
	N251	N	0.321817	0.038519	0.417005
	N252	N	0.912468	0.463623	0.181096
	N253	N	0.084216	0.538033	0.180497
	N254	N	0.084215	0.463810	0.823799
	N255	N	0.913193	0.537960	0.824087
	N256	N	0.177935	0.915982	0.465178
	N257	N	0.178902	0.088098	0.538886
	N258	N	0.821095	0.086110	0.464546
	N259	N	0.820253	0.915043	0.539460
	N260	N	0.461204	0.178117	0.918153
	N261	N	0.536835	0.179561	0.087930
	N262	N	0.461570	0.822599	0.088227
	N263	N	0.536642	0.823199	0.917565
	N264	N	0.462231	0.915133	0.181264
	N265	N	0.537109	0.086810	0.180984
	N266	N	0.462531	0.088176	0.823084
	N267	N	0.536281	0.915635	0.824325
	N268	N	0.913435	0.179856	0.464874
	N269	N	0.084412	0.179634	0.539455
	N270	N	0.084342	0.823571	0.465140
	N271	N	0.913572	0.822690	0.539943
	N272	N	0.176914	0.463262	0.916639
	N273	N	0.176836	0.537952	0.087457
	N274	N	0.821064	0.463214	0.086913
	N275	N	0.821694	0.538322	0.917018
	O276	O	1.050369	0.946437	0.016752
	H277	H	1.055049	0.947115	0.025675
	H278	H	1.063868	0.939130	0.012982
	O279	O	-0.040748	0.007528	-0.019286
	H280	H	-0.034878	0.017185	-0.017968
	H281	H	-0.031948	0.003020	-0.012165
	O282	O	0.045365	-0.069655	0.949775
	H283	H	0.045080	-0.078854	0.945937
	H284	H	0.047550	-0.070822	0.944575
	O285	O	0.512062	0.515065	0.460837
	H286	H	0.518602	0.510409	0.456002
	H287	H	0.520703	0.508696	0.455576
	O288	O	0.534376	0.458748	0.438191
	H289	H	0.535768	0.460312	0.428521
	H290	H	0.541321	0.465131	0.439968
	O291	O	0.519070	0.449356	0.511645
	H292	H	0.511008	0.461870	0.519915
	H293	H	0.520609	0.443878	0.515468
	O294	O	0.036700	-0.009354	-0.010010
	H295	H	0.040227	-0.012523	-0.003630
	H296	H	0.037232	-0.008631	-0.024973
	O297	O	0.516135	0.476339	0.477410
	H298	H	0.514798	0.481313	0.470296
	H299	H	0.520143	0.458837	0.469012
	O300	O	0.032520	0.966438	0.930542
	H301	H	0.034338	0.967461	0.932677
	H302	H	0.024396	0.963072	0.931742
	O303	O	0.498086	0.410378	0.495613
	H304	H	0.495736	0.406194	0.503350
	H305	H	0.493071	0.402260	0.501822
	O306	O	0.014407	0.027846	1.008677
	H307	H	0.022043	0.033769	1.003146
	H308	H	0.010374	0.018919	1.011479
	O309	O	1.059354	0.982163	1.002058
	H310	H	1.057712	0.986382	1.005099
	H311	H	1.063792	0.979294	1.003147
	O312	O	0.487563	0.416478	0.480687
	H313	H	0.478950	0.422373	0.472740
	H314	H	0.487245	0.413325	0.482873
	O315	O	0.522038	0.469740	0.463233
	H316	H	0.518848	0.473491	0.467138
	H317	H	0.528323	0.473006	0.462789
	O318	O	0.032950	0.945138	-0.057807
	H319	H	0.037215	0.939574	-0.063568
	H320	H	0.022867	0.945062	-0.053975
	O321	O	0.974554	0.983197	-0.046301
	H322	H	0.969224	0.987736	-0.048540
	H323	H	0.965184	0.987788	-0.045368
