data_Molecule from HDF5

_cell_length_a		16.322286
_cell_length_b		16.317871
_cell_length_c		16.288508
_cell_angle_alpha	89.977405
_cell_angle_beta	90.019569
_cell_angle_gamma	89.961142
_symmetry_space_group_name_H-M	'P 1'
_symmetry_Int_Tables_number		1

loop_
	_symmetry_equiv_pos_as_xyz
	x,y,z

loop_
	_atom_site_label
	_atom_site_type_symbol
	_atom_site_fract_x
	_atom_site_fract_y
	_atom_site_fract_z
	H0	H	0.407133	0.841143	0.709226
	H1	H	0.602719	0.168538	0.708912
	H2	H	0.602510	0.840234	0.281754
	H3	H	0.407533	0.167839	0.280710
	H4	H	0.720416	0.406439	0.831040
	H5	H	0.719490	0.603098	0.158572
	H6	H	0.290927	0.603650	0.830663
	H7	H	0.292087	0.407900	0.158843
	H8	H	0.841574	0.718828	0.397904
	H9	H	0.169204	0.718354	0.592515
	H10	H	0.842489	0.289724	0.592734
	H11	H	0.169046	0.289871	0.395540
	H12	H	0.841534	0.406449	0.709459
	H13	H	0.168771	0.601909	0.709254
	H14	H	0.841440	0.602028	0.281936
	H15	H	0.168519	0.407276	0.280224
	H16	H	0.406403	0.720078	0.831255
	H17	H	0.602838	0.719119	0.158261
	H18	H	0.603384	0.290497	0.830859
	H19	H	0.408303	0.291416	0.158400
	H20	H	0.719462	0.841112	0.397860
	H21	H	0.719823	0.168321	0.593271
	H22	H	0.290140	0.842098	0.593751
	H23	H	0.289500	0.167897	0.395002
	H24	H	0.908016	0.340932	0.208662
	H25	H	0.102595	0.668796	0.207891
	H26	H	0.103547	0.341675	0.780529
	H27	H	0.907548	0.667902	0.780053
	H28	H	0.218698	0.907214	0.331437
	H29	H	0.219389	0.103504	0.658901
	H30	H	0.790194	0.103033	0.331330
	H31	H	0.791303	0.906937	0.659408
	H32	H	0.340970	0.219779	0.896089
	H33	H	0.667879	0.220787	0.093832
	H34	H	0.341546	0.790822	0.093580
	H35	H	0.667278	0.788262	0.895013
	H36	H	0.342184	0.906679	0.209778
	H37	H	0.668743	0.103734	0.209472
	H38	H	0.341482	0.102658	0.780571
	H39	H	0.668512	0.906854	0.781171
	H40	H	0.906303	0.219512	0.330913
	H41	H	0.103994	0.219967	0.658032
	H42	H	0.103578	0.790316	0.332259
	H43	H	0.908611	0.792058	0.659677
	H44	H	0.219787	0.341885	0.896267
	H45	H	0.219883	0.668432	0.092482
	H46	H	0.790729	0.341381	0.093836
	H47	H	0.791203	0.668598	0.896237
	H48	H	0.420406	0.116308	0.579569
	H49	H	0.593314	0.892318	0.582674
	H50	H	0.592752	0.119186	0.400551
	H51	H	0.402073	0.883921	0.397236
	H52	H	0.600352	0.417991	0.109707
	H53	H	0.602538	0.600732	0.876024
	H54	H	0.415249	0.599119	0.110026
	H55	H	0.416687	0.422401	0.882725
	H56	H	0.121994	0.595243	0.397534
	H57	H	0.890997	0.598678	0.582216
	H58	H	0.122471	0.410628	0.590037
	H59	H	0.888226	0.410173	0.397608
	H60	H	0.120702	0.409901	0.584772
	H61	H	0.889939	0.594082	0.591055
	H62	H	0.123550	0.603415	0.400537
	H63	H	0.889914	0.408753	0.405541
	H64	H	0.409708	0.600283	0.112274
	H65	H	0.598674	0.591384	0.880216
	H66	H	0.593462	0.410037	0.109293
	H67	H	0.418545	0.401344	0.877680
	H68	H	0.601445	0.120099	0.406683
	H69	H	0.607476	0.886745	0.586599
	H70	H	0.400953	0.123023	0.584179
	H71	H	0.422005	0.890065	0.396300
	H72	H	0.913907	0.622102	0.096746
	H73	H	0.103827	0.389323	0.081643
	H74	H	0.101496	0.619800	0.909402
	H75	H	0.916506	0.392103	0.907249
	H76	H	0.098346	0.917775	0.609492
	H77	H	0.091983	0.088523	0.383034
	H78	H	0.913871	0.091028	0.608028
	H79	H	0.909340	0.910431	0.378071
	H80	H	0.621990	0.098349	0.897538
	H81	H	0.390086	0.099399	0.083467
	H82	H	0.622762	0.908104	0.089192
	H83	H	0.389440	0.913870	0.901045
	H84	H	0.620206	0.911787	0.083541
	H85	H	0.389964	0.093694	0.089077
	H86	H	0.620784	0.102073	0.904912
	H87	H	0.387739	0.910481	0.900421
	H88	H	0.917824	0.101884	0.610126
	H89	H	0.092490	0.107339	0.377893
	H90	H	0.094021	0.907007	0.612389
	H91	H	0.911186	0.913911	0.380288
	H92	H	0.104405	0.624814	0.895295
	H93	H	0.101735	0.385834	0.094356
	H94	H	0.916486	0.617652	0.083439
	H95	H	0.907003	0.387119	0.903868
	H96	H	0.415674	0.122998	0.598945
	H97	H	0.595949	0.887508	0.597162
	H98	H	0.601563	0.123028	0.396532
	H99	H	0.411614	0.892007	0.414065
	H100	H	0.603737	0.408575	0.112870
	H101	H	0.592415	0.600005	0.879547
	H102	H	0.411145	0.594494	0.110575
	H103	H	0.399401	0.411323	0.874585
	H104	H	0.119207	0.597821	0.405889
	H105	H	0.886799	0.604133	0.589735
	H106	H	0.119990	0.414469	0.587807
	H107	H	0.890706	0.416280	0.402679
	H108	H	0.903663	0.623219	0.086213
	H109	H	0.091340	0.391115	0.087002
	H110	H	0.090677	0.619663	0.899196
	H111	H	0.915426	0.388794	0.896900
	H112	H	0.105166	0.910031	0.614687
	H113	H	0.108661	0.095950	0.375789
	H114	H	0.906759	0.098542	0.612746
	H115	H	0.913221	0.910333	0.378424
	H116	H	0.618539	0.094353	0.904098
	H117	H	0.387716	0.101094	0.090844
	H118	H	0.620398	0.914987	0.089826
	H119	H	0.389281	0.910964	0.903326
	C120	C	0.383546	0.013153	0.616430
	C121	C	0.626626	0.996848	0.616885
	C122	C	0.626657	0.012507	0.373326
	C123	C	0.383407	0.996757	0.373579
	C124	C	0.627378	0.383253	0.002776
	C125	C	0.626367	0.626152	0.986547
	C126	C	0.383664	0.626279	0.002701
	C127	C	0.383685	0.383621	0.986487
	C128	C	0.013339	0.627066	0.373212
	C129	C	0.997045	0.626607	0.616375
	C130	C	0.013621	0.383049	0.616425
	C131	C	0.997330	0.383193	0.373058
	C132	C	0.883219	0.512802	0.116903
	C133	C	0.127174	0.496802	0.115717
	C134	C	0.127118	0.513310	0.873033
	C135	C	0.884165	0.496916	0.873747
	C136	C	0.126918	0.883463	0.503798
	C137	C	0.126378	0.126113	0.486762
	C138	C	0.883713	0.126111	0.502769
	C139	C	0.883626	0.883314	0.487267
	C140	C	0.512715	0.126438	0.873518
	C141	C	0.497047	0.126440	0.116327
	C142	C	0.513386	0.882978	0.116408
	C143	C	0.496813	0.883195	0.872921
	C144	C	0.386467	0.889983	0.671662
	C145	C	0.623636	0.119698	0.671281
	C146	C	0.623646	0.889377	0.318792
	C147	C	0.386300	0.119253	0.318339
	C148	C	0.682245	0.386003	0.879618
	C149	C	0.681762	0.623623	0.109585
	C150	C	0.328826	0.623970	0.879558
	C151	C	0.329271	0.386869	0.109747
	C152	C	0.890587	0.681289	0.376815
	C153	C	0.120495	0.680450	0.613108
	C154	C	0.890710	0.327944	0.613823
	C155	C	0.120026	0.327853	0.375439
	C156	C	0.890551	0.385721	0.671646
	C157	C	0.120371	0.622693	0.670896
	C158	C	0.890508	0.623574	0.318952
	C159	C	0.120185	0.386367	0.318526
	C160	C	0.386122	0.681823	0.879867
	C161	C	0.624060	0.681390	0.109488
	C162	C	0.624347	0.328254	0.879696
	C163	C	0.387379	0.329536	0.109812
	C164	C	0.681641	0.889603	0.376660
	C165	C	0.681761	0.119677	0.614088
	C166	C	0.328658	0.890340	0.613875
	C167	C	0.327923	0.119310	0.375474
	C168	C	0.886707	0.389867	0.171338
	C169	C	0.123700	0.619893	0.170378
	C170	C	0.124026	0.390479	0.818475
	C171	C	0.886879	0.619540	0.818477
	C172	C	0.181610	0.886302	0.380666
	C173	C	0.182040	0.124067	0.609704
	C174	C	0.828457	0.123453	0.379785
	C175	C	0.829147	0.886364	0.610581
	C176	C	0.389760	0.181881	0.875873
	C177	C	0.619442	0.182335	0.114189
	C178	C	0.390486	0.828370	0.113778
	C179	C	0.619279	0.827608	0.875491
	C180	C	0.390755	0.885873	0.171707
	C181	C	0.619853	0.124209	0.171612
	C182	C	0.389949	0.123962	0.818203
	C183	C	0.619713	0.886007	0.818585
	C184	C	0.885723	0.181771	0.379899
	C185	C	0.124852	0.181991	0.609493
	C186	C	0.123959	0.828609	0.380706
	C187	C	0.887466	0.829370	0.610653
	C188	C	0.181940	0.390562	0.875704
	C189	C	0.181789	0.619890	0.113014
	C190	C	0.828492	0.390153	0.114118
	C191	C	0.829126	0.619765	0.876056
	C192	C	0.405866	0.098539	0.594113
	C193	C	0.605395	0.911016	0.595081
	C194	C	0.605079	0.098627	0.394973
	C195	C	0.405448	0.910887	0.395965
	C196	C	0.605551	0.405417	0.088519
	C197	C	0.604402	0.603872	0.900851
	C198	C	0.405648	0.604314	0.088712
	C199	C	0.405200	0.405099	0.900387
	C200	C	0.099529	0.605128	0.394863
	C201	C	0.911372	0.605228	0.594336
	C202	C	0.098949	0.405150	0.594330
	C203	C	0.911648	0.405348	0.395411
	C204	C	0.905062	0.598783	0.095204
	C205	C	0.105477	0.411036	0.093957
	C206	C	0.105313	0.599293	0.894954
	C207	C	0.906424	0.411307	0.896156
	C208	C	0.105438	0.905265	0.590057
	C209	C	0.104014	0.103865	0.401122
	C210	C	0.906221	0.103752	0.588161
	C211	C	0.904958	0.905102	0.401216
	C212	C	0.598237	0.104508	0.895626
	C213	C	0.411477	0.104387	0.094419
	C214	C	0.599003	0.905211	0.093944
	C215	C	0.410972	0.905260	0.895127
	Zn216	Zn	0.504762	0.004822	0.745334
	Zn217	Zn	0.505448	0.004570	0.244854
	Zn218	Zn	0.755362	0.505173	-0.005232
	Zn219	Zn	0.255281	0.505432	-0.005462
	Zn220	Zn	0.005573	0.755476	0.495284
	Zn221	Zn	0.005550	0.254591	0.494649
	Zn222	Zn	0.005360	0.504929	0.744963
	Zn223	Zn	0.005484	0.504801	0.244787
	Zn224	Zn	0.504778	0.754833	-0.005341
	Zn225	Zn	0.504822	0.255327	-0.005283
	Zn226	Zn	0.754837	0.004723	0.495219
	Zn227	Zn	0.254883	0.005163	0.495003
	N228	N	0.420031	0.967350	0.673381
	N229	N	0.590103	0.042491	0.673039
	N230	N	0.590412	0.967033	0.316733
	N231	N	0.420047	0.041947	0.316999
	N232	N	0.684250	0.419610	0.956990
	N233	N	0.683414	0.589917	0.032087
	N234	N	0.327369	0.590003	0.956916
	N235	N	0.327051	0.420011	0.031938
	N236	N	0.968178	0.683596	0.409595
	N237	N	0.042982	0.682900	0.579923
	N238	N	0.968045	0.325920	0.580343
	N239	N	0.042450	0.325958	0.408800
	N240	N	0.967857	0.419454	0.673209
	N241	N	0.042815	0.589653	0.672855
	N242	N	0.968072	0.590494	0.316656
	N243	N	0.043057	0.420021	0.316939
	N244	N	0.419474	0.683378	0.957396
	N245	N	0.590382	0.683024	0.032225
	N246	N	0.590883	0.326509	0.957195
	N247	N	0.420564	0.327634	0.032299
	N248	N	0.683688	0.967115	0.409659
	N249	N	0.683995	0.042173	0.581021
	N250	N	0.326803	0.967655	0.580330
	N251	N	0.326265	0.041995	0.409158
	N252	N	0.920007	0.467288	0.173185
	N253	N	0.090271	0.542365	0.172289
	N254	N	0.090580	0.467871	0.816748
	N255	N	0.920132	0.542183	0.816780
	N256	N	0.183537	0.919606	0.458308
	N257	N	0.183208	0.090151	0.532387
	N258	N	0.826888	0.089579	0.457046
	N259	N	0.826629	0.919391	0.532883
	N260	N	0.467129	0.183835	0.909490
	N261	N	0.542222	0.184123	0.080761
	N262	N	0.467675	0.826615	0.079818
	N263	N	0.541721	0.825717	0.908468
	N264	N	0.468123	0.919236	0.173147
	N265	N	0.542692	0.090081	0.172966
	N266	N	0.467140	0.090324	0.816726
	N267	N	0.542392	0.919834	0.816949
	N268	N	0.919741	0.183210	0.457250
	N269	N	0.090739	0.183211	0.532308
	N270	N	0.090817	0.826774	0.458269
	N271	N	0.920557	0.827418	0.532984
	N272	N	0.184120	0.468053	0.908866
	N273	N	0.184100	0.542441	0.080076
	N274	N	0.826487	0.467661	0.080805
	N275	N	0.827519	0.542445	0.909891
	O276	O	0.936721	0.055896	0.994966
	H277	H	0.931975	0.065956	0.991901
	H278	H	0.925958	0.057493	0.995778
	O279	O	-0.066110	0.048515	0.972703
	H280	H	-0.063156	0.050631	0.978653
	H281	H	-0.064445	0.049361	0.977119
	O282	O	0.944132	1.053963	-0.013706
	H283	H	0.947479	1.054884	-0.022666
	H284	H	0.938579	1.060952	-0.004612
	O285	O	-0.096602	0.044639	0.966917
	H286	H	-0.094997	0.031242	0.964963
	H287	H	-0.092784	0.045647	0.963246
