data_Molecule from HDF5

_cell_length_a		16.470067
_cell_length_b		16.418525
_cell_length_c		16.359430
_cell_angle_alpha	89.782277
_cell_angle_beta	90.050776
_cell_angle_gamma	89.999177
_symmetry_space_group_name_H-M	'P 1'
_symmetry_Int_Tables_number		1

loop_
	_symmetry_equiv_pos_as_xyz
	x,y,z

loop_
	_atom_site_label
	_atom_site_type_symbol
	_atom_site_fract_x
	_atom_site_fract_y
	_atom_site_fract_z
	H0	H	0.392953	0.833776	0.730391
	H1	H	0.599018	0.154073	0.729752
	H2	H	0.597155	0.834216	0.291312
	H3	H	0.391256	0.153213	0.290934
	H4	H	0.715435	0.387587	0.852283
	H5	H	0.712237	0.596082	0.171223
	H6	H	0.271255	0.600908	0.851834
	H7	H	0.272476	0.388894	0.169821
	H8	H	0.835062	0.716584	0.403735
	H9	H	0.152059	0.713346	0.614340
	H10	H	0.835577	0.269419	0.617956
	H11	H	0.150548	0.272022	0.404151
	H12	H	0.834574	0.386815	0.732989
	H13	H	0.152060	0.597273	0.730626
	H14	H	0.834653	0.599498	0.288689
	H15	H	0.151670	0.391447	0.290883
	H16	H	0.392087	0.712505	0.849560
	H17	H	0.598328	0.714596	0.169898
	H18	H	0.598312	0.273744	0.851200
	H19	H	0.390780	0.275004	0.171482
	H20	H	0.715069	0.834590	0.406668
	H21	H	0.717315	0.151856	0.616667
	H22	H	0.274614	0.833832	0.616377
	H23	H	0.273631	0.152424	0.405526
	H24	H	0.888825	0.334646	0.233454
	H25	H	0.096572	0.652924	0.230410
	H26	H	0.096149	0.334436	0.791805
	H27	H	0.887963	0.652487	0.789529
	H28	H	0.213324	0.890739	0.351636
	H29	H	0.215102	0.098527	0.670709
	H30	H	0.771001	0.102266	0.352788
	H31	H	0.772036	0.886240	0.668814
	H32	H	0.335327	0.215196	0.905454
	H33	H	0.651820	0.215985	0.115921
	H34	H	0.335357	0.773343	0.113661
	H35	H	0.651006	0.770601	0.904041
	H36	H	0.335276	0.889856	0.230828
	H37	H	0.652394	0.099630	0.232251
	H38	H	0.336418	0.100241	0.788383
	H39	H	0.653164	0.890824	0.790562
	H40	H	0.888777	0.215194	0.351505
	H41	H	0.099001	0.214661	0.669654
	H42	H	0.097164	0.775499	0.351109
	H43	H	0.888151	0.770904	0.669761
	H44	H	0.215375	0.335792	0.904675
	H45	H	0.215782	0.651310	0.117168
	H46	H	0.772739	0.334248	0.117238
	H47	H	0.771540	0.651621	0.904989
	H48	H	0.406450	0.104362	0.593656
	H49	H	0.587593	0.878492	0.601192
	H50	H	0.576861	0.105287	0.419609
	H51	H	0.394165	0.877333	0.423903
	H52	H	0.579504	0.403287	0.123910
	H53	H	0.582709	0.583940	0.896203
	H54	H	0.404665	0.575374	0.122266
	H55	H	0.402986	0.400997	0.895515
	H56	H	0.104685	0.572347	0.414663
	H57	H	0.881618	0.580101	0.598881
	H58	H	0.105381	0.406060	0.602012
	H59	H	0.877047	0.396774	0.421026
	H60	H	0.106102	0.402745	0.600640
	H61	H	0.879055	0.583886	0.602201
	H62	H	0.111956	0.594963	0.414142
	H63	H	0.883232	0.406968	0.430250
	H64	H	0.410476	0.587222	0.123073
	H65	H	0.584486	0.581045	0.897180
	H66	H	0.584217	0.403625	0.125574
	H67	H	0.400025	0.408938	0.896958
	H68	H	0.584752	0.104929	0.428461
	H69	H	0.580300	0.881411	0.604213
	H70	H	0.398071	0.109325	0.598683
	H71	H	0.406635	0.877959	0.412064
	H72	H	0.901434	0.605468	0.095372
	H73	H	0.084728	0.380946	0.095777
	H74	H	0.080446	0.607427	0.917726
	H75	H	0.903686	0.379165	0.921011
	H76	H	0.091283	0.901560	0.628812
	H77	H	0.081301	0.078106	0.400239
	H78	H	0.913824	0.082586	0.622092
	H79	H	0.905787	0.904906	0.397280
	H80	H	0.611155	0.091841	0.916080
	H81	H	0.382013	0.082632	0.097710
	H82	H	0.606977	0.903898	0.101496
	H83	H	0.380732	0.907544	0.917185
	H84	H	0.607552	0.902812	0.098568
	H85	H	0.380935	0.081668	0.102302
	H86	H	0.604044	0.085738	0.929610
	H87	H	0.379458	0.900835	0.920320
	H88	H	0.902305	0.085535	0.626797
	H89	H	0.080675	0.087951	0.396398
	H90	H	0.083066	0.910358	0.622224
	H91	H	0.903667	0.905800	0.396426
	H92	H	0.080195	0.605103	0.924883
	H93	H	0.085162	0.378367	0.104616
	H94	H	0.899054	0.609385	0.102069
	H95	H	0.904133	0.380700	0.923207
	H96	H	0.407711	0.107027	0.604888
	H97	H	0.582430	0.882922	0.596156
	H98	H	0.588361	0.109797	0.417498
	H99	H	0.409818	0.883807	0.427890
	H100	H	0.582695	0.407402	0.123288
	H101	H	0.581161	0.581471	0.897584
	H102	H	0.398315	0.585668	0.127674
	H103	H	0.408097	0.406531	0.898683
	H104	H	0.101912	0.585922	0.433657
	H105	H	0.880375	0.585109	0.596630
	H106	H	0.104447	0.405442	0.598736
	H107	H	0.880280	0.410783	0.415898
	H108	H	0.906299	0.605898	0.101658
	H109	H	0.077897	0.382023	0.101161
	H110	H	0.086606	0.608615	0.922427
	H111	H	0.902527	0.379624	0.923146
	H112	H	0.078537	0.897682	0.625278
	H113	H	0.089596	0.082874	0.395595
	H114	H	0.903876	0.074245	0.620988
	H115	H	0.905504	0.907656	0.397306
	H116	H	0.605904	0.076177	0.916770
	H117	H	0.380083	0.086179	0.100342
	H118	H	0.606186	0.905190	0.098812
	H119	H	0.382853	0.905851	0.924409
	C120	C	0.373005	0.001752	0.631790
	C121	C	0.615550	0.985900	0.631942
	C122	C	0.615755	0.002017	0.389477
	C123	C	0.372377	0.984824	0.389233
	C124	C	0.614653	0.372335	0.019171
	C125	C	0.614876	0.614377	1.002051
	C126	C	0.372288	0.615206	0.018915
	C127	C	0.371751	0.372850	1.002362
	C128	C	0.001500	0.616313	0.388579
	C129	C	0.984945	0.614716	0.631376
	C130	C	0.001097	0.371584	0.632781
	C131	C	0.984811	0.372972	0.389839
	C132	C	0.871304	0.501879	0.132601
	C133	C	0.114492	0.485144	0.132562
	C134	C	0.114033	0.502080	0.889845
	C135	C	0.871112	0.484776	0.889688
	C136	C	0.115455	0.872276	0.519782
	C137	C	0.116013	0.115339	0.502430
	C138	C	0.873325	0.114496	0.518762
	C139	C	0.872768	0.872694	0.502239
	C140	C	0.502565	0.116767	0.888368
	C141	C	0.485491	0.115561	0.132011
	C142	C	0.502275	0.872346	0.131600
	C143	C	0.485698	0.872824	0.888640
	C144	C	0.372860	0.881760	0.691376
	C145	C	0.617602	0.105957	0.690803
	C146	C	0.616834	0.882069	0.330544
	C147	C	0.372130	0.105046	0.330275
	C148	C	0.675025	0.370051	0.899673
	C149	C	0.673612	0.615418	0.122897
	C150	C	0.312084	0.618236	0.899270
	C151	C	0.312228	0.370308	0.122112
	C152	C	0.882583	0.676395	0.386114
	C153	C	0.104348	0.673837	0.633103
	C154	C	0.882671	0.310428	0.635305
	C155	C	0.103464	0.312687	0.386685
	C156	C	0.882087	0.368717	0.692750
	C157	C	0.104147	0.615978	0.691125
	C158	C	0.882307	0.618431	0.328421
	C159	C	0.104065	0.372094	0.330362
	C160	C	0.371794	0.674147	0.898191
	C161	C	0.616851	0.674286	0.122311
	C162	C	0.616731	0.313181	0.899169
	C163	C	0.371232	0.313593	0.122773
	C164	C	0.675522	0.882398	0.387864
	C165	C	0.676314	0.105010	0.634183
	C166	C	0.313888	0.881936	0.634579
	C167	C	0.313324	0.104556	0.387166
	C168	C	0.870086	0.382141	0.193108
	C169	C	0.115745	0.605062	0.191289
	C170	C	0.115298	0.382335	0.830816
	C171	C	0.869141	0.604464	0.829245
	C172	C	0.173978	0.871820	0.399465
	C173	C	0.175749	0.117457	0.622267
	C174	C	0.811717	0.119088	0.400120
	C175	C	0.812145	0.868689	0.621464
	C176	C	0.383222	0.175846	0.886700
	C177	C	0.604606	0.175634	0.134115
	C178	C	0.382641	0.813140	0.132879
	C179	C	0.604241	0.811992	0.886265
	C180	C	0.382688	0.871109	0.190904
	C181	C	0.604928	0.117555	0.191932
	C182	C	0.383687	0.118561	0.828421
	C183	C	0.605358	0.871896	0.830056
	C184	C	0.870737	0.175346	0.399324
	C185	C	0.117986	0.175441	0.621759
	C186	C	0.116189	0.814481	0.399206
	C187	C	0.870087	0.811251	0.621643
	C188	C	0.174472	0.383084	0.887465
	C189	C	0.174844	0.604323	0.134833
	C190	C	0.812208	0.382154	0.135406
	C191	C	0.811228	0.604131	0.886852
	C192	C	0.397001	0.085166	0.606498
	C193	C	0.590713	0.902674	0.607543
	C194	C	0.590692	0.085081	0.414494
	C195	C	0.396578	0.901331	0.414195
	C196	C	0.589418	0.397419	0.102594
	C197	C	0.590057	0.589596	0.918774
	C198	C	0.397276	0.590043	0.102637
	C199	C	0.396431	0.398175	0.918803
	C200	C	0.084674	0.591452	0.413451
	C201	C	0.902067	0.590089	0.606547
	C202	C	0.083829	0.397328	0.607576
	C203	C	0.901805	0.397808	0.415217
	C204	C	0.895569	0.585245	0.107262
	C205	C	0.089714	0.402118	0.107794
	C206	C	0.089336	0.585363	0.914514
	C207	C	0.896205	0.401549	0.915285
	C208	C	0.091354	0.896242	0.603635
	C209	C	0.091045	0.090085	0.419123
	C210	C	0.899343	0.088198	0.601679
	C211	C	0.897756	0.898538	0.418882
	C212	C	0.585623	0.091782	0.913598
	C213	C	0.402610	0.090489	0.107168
	C214	C	0.585251	0.896797	0.106768
	C215	C	0.402496	0.897710	0.913586
	Zn216	Zn	0.494574	-0.005227	0.760334
	Zn217	Zn	0.494437	-0.006208	0.260715
	Zn218	Zn	0.743188	0.492841	0.011147
	Zn219	Zn	0.243419	0.494404	0.010757
	Zn220	Zn	-0.006350	0.744426	0.510171
	Zn221	Zn	-0.006333	0.243639	0.510597
	Zn222	Zn	-0.007633	0.493525	0.761349
	Zn223	Zn	-0.007479	0.494113	0.260637
	Zn224	Zn	0.493940	0.743182	0.010352
	Zn225	Zn	0.493573	0.244502	0.010576
	Zn226	Zn	0.744672	-0.006104	0.511044
	Zn227	Zn	0.244006	-0.006862	0.511142
	N228	N	0.408571	0.957393	0.689987
	N229	N	0.580466	0.030918	0.689516
	N230	N	0.580747	0.957496	0.331272
	N231	N	0.407755	0.029278	0.331057
	N232	N	0.673825	0.406075	0.975342
	N233	N	0.672646	0.579117	0.047333
	N234	N	0.312168	0.582552	0.975454
	N235	N	0.312242	0.406119	0.046172
	N236	N	0.957777	0.675277	0.422580
	N237	N	0.029177	0.673453	0.596889
	N238	N	0.957698	0.312135	0.598692
	N239	N	0.028431	0.313386	0.422944
	N240	N	0.956776	0.406066	0.691280
	N241	N	0.028719	0.580026	0.690295
	N242	N	0.957340	0.581817	0.329727
	N243	N	0.029326	0.409116	0.332367
	N244	N	0.408412	0.672484	0.973743
	N245	N	0.581287	0.674079	0.046228
	N246	N	0.579659	0.314715	0.974327
	N247	N	0.407535	0.315052	0.047037
	N248	N	0.675068	0.958089	0.423571
	N249	N	0.675249	0.029417	0.598502
	N250	N	0.313962	0.957440	0.598136
	N251	N	0.313292	0.028724	0.423067
	N252	N	0.906132	0.457617	0.191452
	N253	N	0.079043	0.530021	0.190077
	N254	N	0.078633	0.457415	0.831940
	N255	N	0.905579	0.529146	0.830729
	N256	N	0.173844	0.906896	0.475502
	N257	N	0.174830	0.081010	0.546829
	N258	N	0.813481	0.081692	0.475394
	N259	N	0.813790	0.906158	0.546262
	N260	N	0.458231	0.174830	0.923244
	N261	N	0.529465	0.174400	0.097457
	N262	N	0.457879	0.813777	0.096721
	N263	N	0.528859	0.812666	0.922276
	N264	N	0.458083	0.907105	0.190289
	N265	N	0.529964	0.080747	0.190662
	N266	N	0.459023	0.082618	0.829249
	N267	N	0.530663	0.909124	0.831833
	N268	N	0.908419	0.172463	0.474207
	N269	N	0.081616	0.174384	0.546106
	N270	N	0.080496	0.814665	0.475111
	N271	N	0.907025	0.813664	0.546281
	N272	N	0.173901	0.458718	0.923095
	N273	N	0.174289	0.528755	0.099017
	N274	N	0.812782	0.457641	0.098781
	N275	N	0.812218	0.528573	0.923291
	O276	O	0.570028	0.347653	0.557853
	H277	H	0.563388	0.348166	0.549702
	H278	H	0.562040	0.340670	0.573649
	O279	O	0.536881	0.319080	0.669001
	H280	H	0.548947	0.313798	0.675931
	H281	H	0.521788	0.324289	0.673385
	O282	O	-0.119424	1.051870	-0.014360
	H283	H	-0.130587	1.056146	-0.038397
	H284	H	-0.118223	1.049163	-0.013051
	O285	O	1.004886	1.136326	-0.045980
	H286	H	1.016539	1.138134	-0.029701
	H287	H	0.994394	1.116301	-0.040538
	O288	O	0.779792	0.979268	1.207708
	H289	H	0.749757	0.982372	1.236482
	H290	H	0.794062	0.969305	1.203901
	O291	O	0.406665	0.400466	0.527929
	H292	H	0.385200	0.400178	0.553401
	H293	H	0.413500	0.391422	0.525504
	O294	O	0.968833	1.048973	0.993525
	H295	H	0.970290	1.047954	0.991270
	H296	H	0.965723	1.049996	0.983213
	O297	O	-0.214427	0.782055	0.037656
	H298	H	-0.215854	0.774166	0.053476
	H299	H	-0.226736	0.782978	0.032680
	O300	O	0.388067	0.661056	0.418487
	H301	H	0.390658	0.673746	0.441909
	H302	H	0.379902	0.663503	0.431530
	O303	O	0.484803	0.517220	0.535902
	H304	H	0.505890	0.527566	0.522436
	H305	H	0.482949	0.523013	0.531820
	O306	O	0.096861	0.126160	0.822917
	H307	H	0.086269	0.127581	0.814117
	H308	H	0.095234	0.115000	0.829183
	O309	O	1.189624	-0.055262	0.066777
	H310	H	1.185480	-0.062824	0.063751
	H311	H	1.191623	-0.045605	0.075806
	O312	O	0.692938	0.347960	0.384216
	H313	H	0.697943	0.346348	0.391523
	H314	H	0.678417	0.347498	0.377383
	O315	O	0.310161	0.310529	0.691223
	H316	H	0.302356	0.303428	0.684186
	H317	H	0.330460	0.301820	0.673720
	O318	O	0.213185	0.252919	0.211525
	H319	H	0.196894	0.262054	0.210397
	H320	H	0.216154	0.263574	0.206727
	O321	O	0.590055	0.411526	0.319086
	H322	H	0.585501	0.415188	0.308037
	H323	H	0.587979	0.416141	0.312107
	O324	O	0.655702	0.517875	0.556952
	H325	H	0.661340	0.516318	0.566028
	H326	H	0.653528	0.528687	0.578639
	O327	O	0.562837	0.595858	0.686724
	H328	H	0.546818	0.600087	0.671079
	H329	H	0.560098	0.594098	0.680680
	O330	O	-0.210565	0.987328	0.862030
	H331	H	-0.216157	0.986431	0.845968
	H332	H	-0.206247	0.972039	0.864993
	O333	O	-0.598678	1.500267	0.405995
	H334	H	-0.591679	1.521897	0.396884
	H335	H	-0.609929	1.504702	0.402675
	O336	O	0.831935	0.813649	0.195031
	H337	H	0.846020	0.814748	0.205436
	H338	H	0.841843	0.824327	0.180967
	O339	O	-0.034281	0.911324	0.840347
	H340	H	-0.025340	0.904148	0.850113
	H341	H	-0.017918	0.900223	0.836039
	O342	O	-0.059639	1.094353	0.096963
	H343	H	-0.077920	1.098900	0.100527
	H344	H	-0.057669	1.078222	0.103154
	O345	O	-0.156606	0.184644	0.891570
	H346	H	-0.158849	0.162238	0.891710
	H347	H	-0.168656	0.192093	0.910216
	O348	O	0.528655	0.322023	0.412275
	H349	H	0.536501	0.324160	0.442853
	H350	H	0.535651	0.334029	0.394690
	O351	O	0.914295	0.869034	-0.053921
	H352	H	0.916854	0.872845	-0.054796
	H353	H	0.915345	0.883074	-0.058233
	O354	O	0.826205	1.091885	0.956542
	H355	H	0.816525	1.110438	0.969823
	H356	H	0.811740	1.080672	0.963574
	O357	O	-0.023632	-0.194044	0.191122
	H358	H	-0.010700	-0.190507	0.184262
	H359	H	-0.022613	-0.209809	0.197761
	O360	O	0.430027	0.349142	0.497777
	H361	H	0.449077	0.357938	0.503631
	H362	H	0.424634	0.359008	0.497780
	O363	O	0.889963	0.069673	0.033140
	H364	H	0.890712	0.056448	0.018429
	H365	H	0.890019	0.065903	0.059305
	O366	O	0.081042	-0.108083	0.866122
	H367	H	0.091932	-0.121914	0.856942
	H368	H	0.071663	-0.083162	0.869306
	O369	O	1.090172	-0.174879	1.062799
	H370	H	1.091878	-0.173011	1.063858
	H371	H	1.088945	-0.180909	1.046734
	O372	O	0.988201	0.158180	0.201854
	H373	H	0.985924	0.156054	0.210158
	H374	H	0.978060	0.141997	0.199018
	O375	O	0.188533	-0.967616	0.206023
	H376	H	0.195558	-0.951655	0.195156
	H377	H	0.195551	-0.943353	0.212975
	O378	O	0.482450	0.677939	0.570303
	H379	H	0.491107	0.677343	0.569715
	H380	H	0.467151	0.680268	0.557439
	O381	O	0.071598	1.118395	-0.173974
	H382	H	0.071876	1.125721	-0.195183
	H383	H	0.052193	1.124899	-0.150669
	O384	O	0.368239	0.595193	0.492408
	H385	H	0.392818	0.594796	0.481501
	H386	H	0.360194	0.593117	0.503964
	O387	O	0.381612	0.441084	0.537181
	H388	H	0.393870	0.441947	0.534643
	H389	H	0.375071	0.457459	0.527451
	O390	O	0.970178	0.797591	-0.136034
	H391	H	0.968068	0.775533	-0.146580
	H392	H	0.990491	0.811140	-0.122588
	O393	O	1.459588	0.656539	0.316613
	H394	H	1.454811	0.661379	0.300284
	H395	H	1.448517	0.657743	0.319801
	O396	O	0.382341	0.517821	0.685600
	H397	H	0.372713	0.489989	0.683270
	H398	H	0.372631	0.508663	0.685545
	O399	O	0.566715	0.413605	0.325478
	H400	H	0.560398	0.405667	0.332161
	H401	H	0.556826	0.417407	0.329697
	O402	O	1.093777	0.911126	0.141516
	H403	H	1.102657	0.911700	0.142732
	H404	H	1.099472	0.894890	0.133123
	O405	O	0.682304	0.565103	0.483913
	H406	H	0.693437	0.550268	0.485805
	H407	H	0.681142	0.565780	0.475644
	O408	O	0.595807	0.647605	0.394851
	H409	H	0.588579	0.651403	0.402835
	H410	H	0.601408	0.644207	0.406318
	O411	O	1.113685	1.186582	1.100219
	H412	H	1.101823	1.199319	1.094445
	H413	H	1.117145	1.183851	1.105509
	O414	O	1.201582	0.061301	0.936377
	H415	H	1.199357	0.066575	0.934688
	H416	H	1.205841	0.080217	0.947096
	O417	O	0.589940	0.480737	0.541920
	H418	H	0.601067	0.479464	0.550739
	H419	H	0.580703	0.494456	0.541308
	O420	O	-0.019514	1.029577	0.965864
	H421	H	-0.018939	1.027508	0.977696
	H422	H	-0.035564	1.033766	0.959422
	O423	O	0.307045	0.686665	0.362224
	H424	H	0.294090	0.707432	0.348445
	H425	H	0.302488	0.681194	0.379676
	O426	O	0.696545	0.512250	0.715933
	H427	H	0.703973	0.501484	0.720048
	H428	H	0.693899	0.528467	0.727689
	O429	O	0.668919	0.701101	0.643131
	H430	H	0.681447	0.689085	0.639325
	H431	H	0.667398	0.705633	0.646770
	O432	O	0.286231	0.292434	0.534351
	H433	H	0.267474	0.273003	0.527665
	H434	H	0.304263	0.293366	0.524055
	O435	O	0.168676	-0.136758	0.086174
	H436	H	0.182603	-0.153899	0.076468
	H437	H	0.175148	-0.132187	0.083385
	O438	O	0.182438	0.804463	0.879171
	H439	H	0.167043	0.802705	0.867540
	H440	H	0.195185	0.823247	0.871831
	O441	O	0.290444	0.579941	0.558696
	H442	H	0.292069	0.565647	0.543280
	H443	H	0.278484	0.567708	0.562039
