data_Molecule from HDF5

_cell_length_a		16.336882
_cell_length_b		16.459031
_cell_length_c		16.452201
_cell_angle_alpha	89.929090
_cell_angle_beta	90.010996
_cell_angle_gamma	89.939505
_symmetry_space_group_name_H-M	'P 1'
_symmetry_Int_Tables_number		1

loop_
	_symmetry_equiv_pos_as_xyz
	x,y,z

loop_
	_atom_site_label
	_atom_site_type_symbol
	_atom_site_fract_x
	_atom_site_fract_y
	_atom_site_fract_z
	H0	H	0.385896	0.835315	0.734244
	H1	H	0.601492	0.150713	0.734864
	H2	H	0.603936	0.836218	0.286711
	H3	H	0.387819	0.151397	0.287391
	H4	H	0.715551	0.390178	0.852309
	H5	H	0.715692	0.598834	0.169886
	H6	H	0.274214	0.597607	0.852750
	H7	H	0.276172	0.389539	0.171037
	H8	H	0.837606	0.717783	0.402195
	H9	H	0.154849	0.715693	0.615813
	H10	H	0.836891	0.272810	0.619761
	H11	H	0.155185	0.275934	0.409298
	H12	H	0.836732	0.389178	0.733963
	H13	H	0.154974	0.600740	0.733044
	H14	H	0.837826	0.601919	0.288577
	H15	H	0.155517	0.390226	0.293202
	H16	H	0.386419	0.716480	0.853497
	H17	H	0.602780	0.717267	0.168401
	H18	H	0.600796	0.272659	0.852303
	H19	H	0.389710	0.271488	0.169542
	H20	H	0.719078	0.836261	0.404109
	H21	H	0.716816	0.151645	0.618128
	H22	H	0.272497	0.835031	0.615264
	H23	H	0.274032	0.152550	0.406452
	H24	H	0.892427	0.334847	0.231954
	H25	H	0.102237	0.651997	0.234234
	H26	H	0.101777	0.336052	0.790604
	H27	H	0.889757	0.652716	0.791072
	H28	H	0.215345	0.890241	0.351991
	H29	H	0.214161	0.095827	0.671003
	H30	H	0.774878	0.097724	0.352923
	H31	H	0.772928	0.887290	0.669692
	H32	H	0.334470	0.212791	0.906769
	H33	H	0.654688	0.212442	0.115285
	H34	H	0.335009	0.773646	0.115730
	H35	H	0.652521	0.771583	0.904208
	H36	H	0.335265	0.887750	0.231224
	H37	H	0.653140	0.099414	0.233139
	H38	H	0.333916	0.096950	0.791541
	H39	H	0.652507	0.887455	0.789896
	H40	H	0.889638	0.215647	0.353844
	H41	H	0.098969	0.213320	0.671152
	H42	H	0.103637	0.770498	0.352910
	H43	H	0.888383	0.770105	0.668544
	H44	H	0.214031	0.333934	0.909363
	H45	H	0.217285	0.652196	0.116731
	H46	H	0.776646	0.335083	0.114419
	H47	H	0.773955	0.653124	0.909266
	H48	H	0.406024	0.106523	0.603835
	H49	H	0.580527	0.880107	0.602916
	H50	H	0.582794	0.104298	0.426186
	H51	H	0.408753	0.881684	0.420928
	H52	H	0.588607	0.405251	0.125228
	H53	H	0.579209	0.582060	0.900469
	H54	H	0.409084	0.585732	0.124995
	H55	H	0.392205	0.403868	0.893768
	H56	H	0.108227	0.581587	0.423906
	H57	H	0.883732	0.579035	0.600103
	H58	H	0.109928	0.403373	0.598590
	H59	H	0.878688	0.403941	0.415866
	H60	H	0.108363	0.407301	0.601199
	H61	H	0.880705	0.583728	0.603788
	H62	H	0.109314	0.581984	0.423321
	H63	H	0.880398	0.399945	0.427403
	H64	H	0.403651	0.583858	0.124924
	H65	H	0.583435	0.586555	0.897251
	H66	H	0.580142	0.404748	0.122359
	H67	H	0.411391	0.414057	0.903784
	H68	H	0.583648	0.106700	0.420108
	H69	H	0.578815	0.883585	0.597636
	H70	H	0.407420	0.105114	0.599640
	H71	H	0.402009	0.880928	0.423868
	H72	H	0.905440	0.606871	0.099372
	H73	H	0.080508	0.381886	0.104617
	H74	H	0.082418	0.603258	0.930417
	H75	H	0.908137	0.381944	0.922076
	H76	H	0.075379	0.901071	0.621924
	H77	H	0.080309	0.089540	0.397877
	H78	H	0.907813	0.097384	0.629781
	H79	H	0.908250	0.903103	0.398356
	H80	H	0.607051	0.079328	0.921219
	H81	H	0.381158	0.078847	0.102393
	H82	H	0.609568	0.899968	0.096437
	H83	H	0.380829	0.905055	0.922437
	H84	H	0.605278	0.909690	0.094531
	H85	H	0.378662	0.087276	0.100383
	H86	H	0.609618	0.083522	0.919269
	H87	H	0.378977	0.904410	0.922380
	H88	H	0.893073	0.076546	0.626579
	H89	H	0.088646	0.087726	0.395551
	H90	H	0.089025	0.900951	0.626447
	H91	H	0.905311	0.907033	0.398610
	H92	H	0.093033	0.609932	0.920814
	H93	H	0.085810	0.381887	0.098111
	H94	H	0.904542	0.608034	0.103864
	H95	H	0.906780	0.381718	0.923430
	H96	H	0.402625	0.106806	0.600508
	H97	H	0.585025	0.881388	0.598016
	H98	H	0.578586	0.103930	0.422313
	H99	H	0.404128	0.878486	0.417561
	H100	H	0.584319	0.398074	0.125659
	H101	H	0.585967	0.579736	0.898003
	H102	H	0.407771	0.580304	0.122964
	H103	H	0.412312	0.391597	0.896424
	H104	H	0.109295	0.582619	0.424861
	H105	H	0.882758	0.585088	0.597161
	H106	H	0.110602	0.403705	0.603750
	H107	H	0.883374	0.411349	0.423793
	H108	H	0.908869	0.607176	0.102103
	H109	H	0.088857	0.378655	0.105396
	H110	H	0.078200	0.607613	0.915990
	H111	H	0.906344	0.380989	0.921791
	H112	H	0.083489	0.912664	0.621037
	H113	H	0.083664	0.081206	0.400398
	H114	H	0.917355	0.076054	0.618685
	H115	H	0.910055	0.907603	0.400524
	H116	H	0.607828	0.083415	0.924196
	H117	H	0.383105	0.081987	0.094246
	H118	H	0.609219	0.907751	0.104109
	H119	H	0.380082	0.904236	0.923158
	C120	C	0.372508	0.001429	0.632834
	C121	C	0.615433	0.985370	0.632904
	C122	C	0.615969	0.001742	0.389099
	C123	C	0.372971	0.984979	0.388974
	C124	C	0.616861	0.371106	0.019741
	C125	C	0.615601	0.615261	1.003017
	C126	C	0.373605	0.615416	0.019771
	C127	C	0.373732	0.371532	1.003098
	C128	C	0.004340	0.615570	0.390302
	C129	C	0.987353	0.615588	0.632405
	C130	C	0.004178	0.372683	0.634021
	C131	C	0.986694	0.373691	0.391346
	C132	C	0.874537	0.502370	0.133354
	C133	C	0.117499	0.485440	0.134072
	C134	C	0.116683	0.502293	0.890705
	C135	C	0.874104	0.486229	0.890494
	C136	C	0.116056	0.872383	0.518751
	C137	C	0.116133	0.116303	0.503039
	C138	C	0.873425	0.115648	0.520314
	C139	C	0.873941	0.872424	0.503003
	C140	C	0.502752	0.114166	0.889561
	C141	C	0.485890	0.114882	0.132109
	C142	C	0.503065	0.872855	0.131439
	C143	C	0.485156	0.872130	0.889819
	C144	C	0.368577	0.882740	0.693494
	C145	C	0.618948	0.103534	0.694237
	C146	C	0.620736	0.883690	0.327435
	C147	C	0.370194	0.104199	0.328360
	C148	C	0.676493	0.370556	0.899975
	C149	C	0.675695	0.616866	0.122219
	C150	C	0.313606	0.616645	0.900500
	C151	C	0.315354	0.370677	0.123128
	C152	C	0.885062	0.676798	0.385787
	C153	C	0.107020	0.676046	0.634822
	C154	C	0.884623	0.312693	0.637271
	C155	C	0.107202	0.314716	0.390326
	C156	C	0.884464	0.370802	0.694204
	C157	C	0.107229	0.618499	0.692693
	C158	C	0.885376	0.619529	0.328538
	C159	C	0.107420	0.371935	0.332731
	C160	C	0.369702	0.675892	0.900899
	C161	C	0.619597	0.676307	0.121434
	C162	C	0.619207	0.312044	0.900156
	C163	C	0.371882	0.311574	0.122125
	C164	C	0.678245	0.883481	0.386108
	C165	C	0.676425	0.104069	0.635903
	C166	C	0.312082	0.882418	0.634149
	C167	C	0.313469	0.104820	0.387482
	C168	C	0.873350	0.382833	0.192340
	C169	C	0.120076	0.604660	0.193832
	C170	C	0.119185	0.383171	0.830934
	C171	C	0.871743	0.605426	0.831353
	C172	C	0.176123	0.871092	0.399694
	C173	C	0.174935	0.115541	0.623142
	C174	C	0.814037	0.116856	0.400695
	C175	C	0.813294	0.869466	0.622027
	C176	C	0.382457	0.173187	0.888359
	C177	C	0.606442	0.173588	0.133749
	C178	C	0.383128	0.813164	0.133890
	C179	C	0.604919	0.811800	0.886691
	C180	C	0.383224	0.870144	0.191481
	C181	C	0.605689	0.117113	0.192384
	C182	C	0.382247	0.115663	0.830620
	C183	C	0.604948	0.869675	0.829846
	C184	C	0.871280	0.175599	0.401302
	C185	C	0.117541	0.173901	0.623290
	C186	C	0.120423	0.811500	0.400197
	C187	C	0.870811	0.810991	0.621491
	C188	C	0.175087	0.382186	0.890213
	C189	C	0.177551	0.604580	0.135463
	C190	C	0.815843	0.382668	0.133738
	C191	C	0.814065	0.605684	0.889880
	C192	C	0.398090	0.084584	0.608288
	C193	C	0.589182	0.903144	0.606818
	C194	C	0.589126	0.083747	0.415251
	C195	C	0.397955	0.902214	0.413605
	C196	C	0.591810	0.395572	0.102656
	C197	C	0.590075	0.590171	0.920206
	C198	C	0.399481	0.590587	0.102575
	C199	C	0.398352	0.396118	0.919718
	C200	C	0.087250	0.589527	0.416415
	C201	C	0.904213	0.590024	0.607572
	C202	C	0.088051	0.397583	0.608525
	C203	C	0.902615	0.398047	0.415555
	C204	C	0.899140	0.585652	0.108869
	C205	C	0.092126	0.402480	0.109605
	C206	C	0.091786	0.585276	0.915240
	C207	C	0.899725	0.403196	0.915297
	C208	C	0.090081	0.897599	0.601624
	C209	C	0.091409	0.092937	0.419634
	C210	C	0.898786	0.090654	0.603334
	C211	C	0.900234	0.898530	0.420619
	C212	C	0.586459	0.089283	0.914275
	C213	C	0.402706	0.089791	0.106383
	C214	C	0.586311	0.898597	0.105810
	C215	C	0.401683	0.897355	0.915367
	Zn216	Zn	0.493770	-0.007243	0.761828
	Zn217	Zn	0.494284	-0.007038	0.259776
	Zn218	Zn	0.744641	0.493982	0.011479
	Zn219	Zn	0.245687	0.493612	0.011899
	Zn220	Zn	-0.004461	0.743542	0.510130
	Zn221	Zn	-0.005144	0.245311	0.512706
	Zn222	Zn	-0.003981	0.494621	0.761316
	Zn223	Zn	-0.003889	0.494339	0.263127
	Zn224	Zn	0.494758	0.744259	0.011210
	Zn225	Zn	0.494876	0.243013	0.010504
	Zn226	Zn	0.744286	-0.006346	0.511900
	Zn227	Zn	0.244349	-0.006001	0.510730
	N228	N	0.405623	0.957701	0.692616
	N229	N	0.581697	0.028682	0.692471
	N230	N	0.582453	0.958085	0.329545
	N231	N	0.406400	0.028795	0.328989
	N232	N	0.675340	0.406420	0.975353
	N233	N	0.673401	0.579492	0.047600
	N234	N	0.315578	0.579996	0.975532
	N235	N	0.316391	0.407306	0.047947
	N236	N	0.960024	0.674209	0.423663
	N237	N	0.031460	0.674547	0.598214
	N238	N	0.960222	0.313908	0.600556
	N239	N	0.031157	0.315727	0.426248
	N240	N	0.960052	0.407273	0.692296
	N241	N	0.031677	0.581823	0.691727
	N242	N	0.960571	0.582245	0.331037
	N243	N	0.031407	0.407812	0.333069
	N244	N	0.406330	0.675411	0.976197
	N245	N	0.582755	0.675190	0.046428
	N246	N	0.583055	0.312151	0.975575
	N247	N	0.407599	0.312277	0.046557
	N248	N	0.675416	0.957816	0.423963
	N249	N	0.674315	0.029529	0.598510
	N250	N	0.314533	0.957282	0.597196
	N251	N	0.314991	0.029868	0.424388
	N252	N	0.909051	0.458395	0.192258
	N253	N	0.083466	0.529640	0.193002
	N254	N	0.083406	0.458835	0.831120
	N255	N	0.908358	0.530251	0.831700
	N256	N	0.173611	0.908337	0.474456
	N257	N	0.174369	0.080571	0.547339
	N258	N	0.815244	0.080404	0.475815
	N259	N	0.815124	0.906859	0.547355
	N260	N	0.458526	0.172600	0.924002
	N261	N	0.530832	0.172461	0.096897
	N262	N	0.458724	0.814833	0.097083
	N263	N	0.529270	0.813035	0.923074
	N264	N	0.458898	0.906369	0.190158
	N265	N	0.529805	0.081631	0.191687
	N266	N	0.458222	0.079712	0.831255
	N267	N	0.529411	0.906352	0.831708
	N268	N	0.907227	0.175111	0.476863
	N269	N	0.081811	0.174572	0.547637
	N270	N	0.083596	0.812461	0.475295
	N271	N	0.907656	0.812688	0.546425
	N272	N	0.173825	0.457288	0.926760
	N273	N	0.176182	0.529512	0.099070
	N274	N	0.816370	0.458023	0.097858
	N275	N	0.815376	0.530311	0.925802
	O276	O	0.707812	0.281124	0.471647
	H277	H	0.734999	0.262323	0.473524
	H278	H	0.710922	0.290987	0.436288
	O279	O	0.627666	0.618322	0.421870
	H280	H	0.645606	0.624199	0.407933
	H281	H	0.623249	0.640442	0.442211
	O282	O	0.257395	0.696294	0.403312
	H283	H	0.268980	0.694675	0.399721
	H284	H	0.256984	0.688227	0.399644
	O285	O	1.086004	0.857787	0.090864
	H286	H	1.092950	0.851334	0.081281
	H287	H	1.090662	0.866727	0.080255
	O288	O	0.398442	0.365388	0.663814
	H289	H	0.386402	0.352577	0.672733
	H290	H	0.371618	0.379141	0.659633
	O291	O	0.434300	0.426965	0.495609
	H292	H	0.445507	0.434119	0.491612
	H293	H	0.449436	0.418991	0.478707
	O294	O	0.832385	1.141335	0.911564
	H295	H	0.851516	1.142297	0.926708
	H296	H	0.823535	1.163554	0.913403
	O297	O	0.143308	0.804819	-0.086096
	H298	H	0.142745	0.799974	-0.084661
	H299	H	0.136154	0.800084	-0.089551
	O300	O	0.431256	0.429257	0.399379
	H301	H	0.455355	0.428539	0.397392
	H302	H	0.434268	0.428351	0.417642
	O303	O	0.444935	0.444155	0.636624
	H304	H	0.456718	0.447360	0.602863
	H305	H	0.443051	0.439538	0.626488
	O306	O	-0.072105	-0.001301	0.847603
	H307	H	-0.059587	0.001693	0.841371
	H308	H	-0.073735	0.013827	0.839200
	O309	O	0.987306	0.051478	-0.012497
	H310	H	0.993250	0.071398	-0.012854
	H311	H	0.981068	0.040782	-0.011068
	O312	O	0.354726	0.439941	0.383515
	H313	H	0.345211	0.448286	0.363866
	H314	H	0.335206	0.459263	0.382630
	O315	O	0.691250	0.512053	0.712707
	H316	H	0.691197	0.497642	0.729963
	H317	H	0.688126	0.490841	0.698489
	O318	O	0.117563	0.103636	0.088684
	H319	H	0.132831	0.108491	0.091254
	H320	H	0.099591	0.100044	0.108566
	O321	O	0.614835	0.410096	0.568399
	H322	H	0.626880	0.405530	0.552107
	H323	H	0.609067	0.404939	0.561398
	O324	O	0.659293	0.300026	0.323296
	H325	H	0.647152	0.316266	0.321267
	H326	H	0.659365	0.276389	0.307006
	O327	O	0.403043	0.638961	0.327881
	H328	H	0.391247	0.655022	0.346245
	H329	H	0.434587	0.640428	0.327874
	O330	O	-0.167685	1.118267	0.827934
	H331	H	-0.171761	1.134017	0.844031
	H332	H	-0.159176	1.128158	0.818542
	O333	O	-0.467184	1.425041	0.333941
	H334	H	-0.456874	1.412399	0.332622
	H335	H	-0.466553	1.412042	0.335424
	O336	O	1.053747	1.017125	0.204702
	H337	H	1.041901	1.009950	0.208152
	H338	H	1.048435	1.013277	0.207489
	O339	O	0.088182	0.975566	1.005173
	H340	H	0.080442	0.991247	1.001519
	H341	H	0.100051	0.970831	1.001065
	O342	O	-0.186486	0.874264	0.195876
	H343	H	-0.154321	0.864874	0.201377
	H344	H	-0.191831	0.869379	0.166102
	O345	O	-0.133581	0.140954	1.066265
	H346	H	-0.141579	0.143537	1.074338
	H347	H	-0.138241	0.133956	1.075068
	O348	O	0.713714	0.712417	0.533405
	H349	H	0.705253	0.700473	0.583042
	H350	H	0.750529	0.745978	0.540573
	O351	O	1.010624	1.192881	0.182501
	H352	H	1.016919	1.186706	0.182532
	H353	H	1.010238	1.195885	0.188312
	O354	O	0.999122	1.121040	0.959122
	H355	H	1.016488	1.102690	0.954356
	H356	H	1.000933	1.124166	0.953568
	O357	O	-0.202135	-0.200464	0.015700
	H358	H	-0.205760	-0.197743	0.001975
	H359	H	-0.206864	-0.199466	-0.004769
	O360	O	0.390113	0.279801	0.445097
	H361	H	0.371372	0.279293	0.464634
	H362	H	0.380867	0.265123	0.452526
	O363	O	1.079613	0.166938	-0.153044
	H364	H	1.085919	0.180353	-0.152647
	H365	H	1.076165	0.160753	-0.146113
	O366	O	0.081061	0.022392	1.051002
	H367	H	0.082585	0.007433	1.055181
	H368	H	0.092225	0.012481	1.050648
	O369	O	0.955477	-0.048146	1.002738
	H370	H	0.949928	-0.041358	0.997839
	H371	H	0.952662	-0.034400	1.000952
	O372	O	1.030879	-0.191965	0.046594
	H373	H	1.030562	-0.197248	0.041701
	H374	H	1.032508	-0.170479	0.043393
	O375	O	0.305659	-0.692019	0.698562
	H376	H	0.330160	-0.675312	0.711086
	H377	H	0.297565	-0.670923	0.683301
	O378	O	0.499611	0.708241	0.515353
	H379	H	0.504465	0.697443	0.515834
	H380	H	0.514004	0.712872	0.527200
	O381	O	0.100672	0.808635	-0.183757
	H382	H	0.085867	0.822056	-0.191132
	H383	H	0.096525	0.805243	-0.189071
	O384	O	0.607833	0.469184	0.412979
	H385	H	0.620303	0.479632	0.408549
	H386	H	0.607022	0.467832	0.412797
	O387	O	0.482310	0.498919	0.492824
	H388	H	0.478804	0.515259	0.489108
	H389	H	0.493574	0.501833	0.496803
	O390	O	1.046400	0.892078	0.166759
	H391	H	1.049540	0.891738	0.174654
	H392	H	1.057880	0.889953	0.150250
	O393	O	1.405657	0.572762	0.638323
	H394	H	1.412612	0.562064	0.621501
	H395	H	1.388046	0.570716	0.629739
	O396	O	0.475116	0.473115	0.647299
	H397	H	0.458856	0.457178	0.648634
	H398	H	0.492648	0.467815	0.637105
	O399	O	0.547378	0.633610	0.355246
	H400	H	0.561601	0.638488	0.359198
	H401	H	0.554138	0.650392	0.347980
	O402	O	1.030596	1.056180	-0.134111
	H403	H	1.025429	1.070056	-0.157723
	H404	H	1.029078	1.058858	-0.126834
	O405	O	0.332838	0.541498	0.386442
	H406	H	0.337641	0.552325	0.379131
	H407	H	0.342343	0.531412	0.382330
	O408	O	0.404994	0.513799	0.476252
	H409	H	0.420333	0.508030	0.467210
	H410	H	0.411513	0.514633	0.474662
	O411	O	0.787426	0.988969	1.150038
	H412	H	0.791075	0.962005	1.145387
	H413	H	0.775431	0.969124	1.159917
	O414	O	1.093692	0.103086	1.042111
	H415	H	1.099455	0.088414	1.048730
	H416	H	1.082303	0.107376	1.043243
	O417	O	0.391151	0.477620	0.700781
	H418	H	0.404308	0.483949	0.679184
	H419	H	0.368265	0.473794	0.712751
	O420	O	0.048621	0.877140	0.811531
	H421	H	0.055911	0.882824	0.817918
	H422	H	0.052440	0.862417	0.787715
	O423	O	-0.124444	0.981090	0.150869
	H424	H	-0.122369	0.961048	0.143138
	H425	H	-0.123196	0.983998	0.142008
	O426	O	0.517880	0.700577	0.721625
	H427	H	0.493821	0.680685	0.714280
	H428	H	0.511567	0.718190	0.750964
	O429	O	0.681663	0.682370	0.695756
	H430	H	0.689643	0.628243	0.705313
	H431	H	0.628086	0.692035	0.706797
	O432	O	0.714971	0.466467	0.303094
	H433	H	0.715791	0.461574	0.296439
	H434	H	0.726083	0.459644	0.284270
	O435	O	-0.077982	-0.058733	0.009077
	H436	H	-0.084148	-0.059538	0.001144
	H437	H	-0.078618	-0.049373	0.007462
	O438	O	0.082338	1.089705	1.107386
	H439	H	0.082116	1.076084	1.102883
	H440	H	0.086279	1.081877	1.107757
	O441	O	0.408162	0.293327	0.628398
	H442	H	0.412601	0.264736	0.634251
	H443	H	0.427897	0.299279	0.598701
