data_Molecule from HDF5

_cell_length_a		16.177021
_cell_length_b		16.296014
_cell_length_c		16.359305
_cell_angle_alpha	90.218315
_cell_angle_beta	89.654185
_cell_angle_gamma	89.743611
_symmetry_space_group_name_H-M	'P 1'
_symmetry_Int_Tables_number		1

loop_
	_symmetry_equiv_pos_as_xyz
	x,y,z

loop_
	_atom_site_label
	_atom_site_type_symbol
	_atom_site_fract_x
	_atom_site_fract_y
	_atom_site_fract_z
	H0	H	0.395870	0.834204	0.707767
	H1	H	0.595124	0.159741	0.710398
	H2	H	0.599103	0.834149	0.276121
	H3	H	0.394119	0.159929	0.277449
	H4	H	0.712680	0.396965	0.830489
	H5	H	0.707773	0.595952	0.156399
	H6	H	0.282074	0.594564	0.828810
	H7	H	0.280060	0.400991	0.155822
	H8	H	0.832479	0.713634	0.396382
	H9	H	0.161551	0.711232	0.592068
	H10	H	0.831420	0.285639	0.593687
	H11	H	0.160048	0.283259	0.393987
	H12	H	0.831993	0.400371	0.708748
	H13	H	0.160369	0.597135	0.708432
	H14	H	0.832219	0.598833	0.280150
	H15	H	0.159000	0.395560	0.276119
	H16	H	0.396291	0.713088	0.829487
	H17	H	0.593320	0.714211	0.155107
	H18	H	0.598033	0.278639	0.830636
	H19	H	0.393441	0.281370	0.155707
	H20	H	0.712667	0.834959	0.394289
	H21	H	0.706925	0.162247	0.590179
	H22	H	0.284394	0.832841	0.589289
	H23	H	0.281981	0.161405	0.397622
	H24	H	0.894691	0.334586	0.210188
	H25	H	0.094486	0.661008	0.208787
	H26	H	0.097956	0.335214	0.776115
	H27	H	0.895141	0.660907	0.778258
	H28	H	0.212896	0.898303	0.331068
	H29	H	0.208993	0.095388	0.657077
	H30	H	0.781916	0.096818	0.329984
	H31	H	0.780297	0.902158	0.656344
	H32	H	0.331186	0.211410	0.896133
	H33	H	0.660322	0.211328	0.091116
	H34	H	0.330476	0.786480	0.091076
	H35	H	0.659895	0.782581	0.893408
	H36	H	0.332890	0.897339	0.210087
	H37	H	0.660274	0.097569	0.207815
	H38	H	0.330791	0.095568	0.781053
	H39	H	0.660195	0.896349	0.776542
	H40	H	0.896292	0.215460	0.331330
	H41	H	0.093362	0.213181	0.657408
	H42	H	0.098595	0.780691	0.332124
	H43	H	0.896479	0.784249	0.657075
	H44	H	0.211158	0.334017	0.894046
	H45	H	0.207206	0.661760	0.089298
	H46	H	0.782017	0.333535	0.090781
	H47	H	0.781713	0.661596	0.896767
	H48	H	0.404037	0.110017	0.575369
	H49	H	0.582700	0.881631	0.592900
	H50	H	0.587050	0.112388	0.403646
	H51	H	0.398765	0.879387	0.401642
	H52	H	0.590396	0.398792	0.111145
	H53	H	0.585314	0.593504	0.876539
	H54	H	0.398591	0.601351	0.111390
	H55	H	0.406885	0.406236	0.879335
	H56	H	0.115669	0.597398	0.402668
	H57	H	0.879319	0.599777	0.580791
	H58	H	0.113005	0.403285	0.582331
	H59	H	0.879626	0.403291	0.409293
	H60	H	0.112291	0.408330	0.586307
	H61	H	0.883285	0.581604	0.582742
	H62	H	0.109623	0.582626	0.405805
	H63	H	0.880878	0.414184	0.401860
	H64	H	0.394762	0.586154	0.108179
	H65	H	0.593105	0.591143	0.876058
	H66	H	0.590261	0.411333	0.106715
	H67	H	0.406248	0.399275	0.876827
	H68	H	0.592403	0.115984	0.397611
	H69	H	0.584141	0.884983	0.576357
	H70	H	0.390527	0.118790	0.593034
	H71	H	0.407586	0.880592	0.392488
	H72	H	0.903770	0.615026	0.094656
	H73	H	0.088933	0.380574	0.088786
	H74	H	0.076970	0.611006	0.898466
	H75	H	0.898574	0.379294	0.899836
	H76	H	0.083468	0.907215	0.607725
	H77	H	0.086620	0.097423	0.377150
	H78	H	0.901938	0.092635	0.609300
	H79	H	0.900151	0.917483	0.380475
	H80	H	0.613043	0.088261	0.899722
	H81	H	0.375060	0.092529	0.095962
	H82	H	0.615127	0.902397	0.087047
	H83	H	0.375940	0.899657	0.898779
	H84	H	0.612774	0.903826	0.080347
	H85	H	0.380240	0.096189	0.077309
	H86	H	0.612001	0.087322	0.900301
	H87	H	0.380716	0.906245	0.904100
	H88	H	0.900850	0.094786	0.609914
	H89	H	0.095851	0.089268	0.376798
	H90	H	0.089141	0.897716	0.612336
	H91	H	0.919798	0.902299	0.381647
	H92	H	0.093469	0.613335	0.909445
	H93	H	0.083905	0.382372	0.085896
	H94	H	0.906177	0.610592	0.083624
	H95	H	0.908425	0.382036	0.894858
	H96	H	0.414239	0.113241	0.596465
	H97	H	0.597314	0.878520	0.584473
	H98	H	0.583710	0.113322	0.395531
	H99	H	0.409972	0.884576	0.404540
	H100	H	0.578833	0.404064	0.105936
	H101	H	0.587865	0.586022	0.878590
	H102	H	0.410036	0.590985	0.105602
	H103	H	0.400502	0.403803	0.875994
	H104	H	0.115920	0.586406	0.391243
	H105	H	0.876554	0.591572	0.597206
	H106	H	0.114960	0.402822	0.588571
	H107	H	0.875574	0.402881	0.396528
	H108	H	0.895105	0.615228	0.087077
	H109	H	0.088599	0.382325	0.082854
	H110	H	0.093367	0.619076	0.890103
	H111	H	0.906808	0.383843	0.905232
	H112	H	0.094929	0.907974	0.610508
	H113	H	0.084217	0.085747	0.381099
	H114	H	0.899588	0.092671	0.609734
	H115	H	0.898610	0.894332	0.372821
	H116	H	0.613326	0.087265	0.898724
	H117	H	0.383344	0.078260	0.084359
	H118	H	0.611582	0.908996	0.085127
	H119	H	0.377841	0.907994	0.895120
	C120	C	0.374353	0.005633	0.615495
	C121	C	0.616354	0.989441	0.614094
	C122	C	0.618398	0.006308	0.370091
	C123	C	0.375505	0.989584	0.372063
	C124	C	0.617084	0.375122	0.000792
	C125	C	0.616845	0.619428	0.984688
	C126	C	0.373593	0.619755	0.000428
	C127	C	0.374222	0.375296	0.984871
	C128	C	0.005157	0.618776	0.372424
	C129	C	0.988433	0.619465	0.615123
	C130	C	0.004562	0.377210	0.614930
	C131	C	0.987005	0.376982	0.372540
	C132	C	0.872946	0.505611	0.116389
	C133	C	0.116084	0.489892	0.114373
	C134	C	0.117317	0.506171	0.870941
	C135	C	0.874784	0.489651	0.871983
	C136	C	0.118819	0.875402	0.502702
	C137	C	0.117051	0.119620	0.485992
	C138	C	0.872903	0.121457	0.502015
	C139	C	0.875694	0.876784	0.485694
	C140	C	0.504073	0.117359	0.872059
	C141	C	0.487653	0.118326	0.114725
	C142	C	0.504206	0.876851	0.113261
	C143	C	0.486869	0.875127	0.870023
	C144	C	0.375960	0.882887	0.670054
	C145	C	0.614613	0.111758	0.671267
	C146	C	0.618253	0.883263	0.314507
	C147	C	0.375543	0.111658	0.316442
	C148	C	0.673831	0.376747	0.878712
	C149	C	0.670847	0.616690	0.107479
	C150	C	0.319472	0.615771	0.877654
	C151	C	0.317653	0.378962	0.107257
	C152	C	0.881638	0.675567	0.375585
	C153	C	0.112168	0.673906	0.612451
	C154	C	0.880697	0.323055	0.613362
	C155	C	0.110699	0.320721	0.373648
	C156	C	0.880856	0.379824	0.670629
	C157	C	0.111550	0.617377	0.670495
	C158	C	0.881184	0.618379	0.317980
	C159	C	0.110202	0.376957	0.315300
	C160	C	0.376252	0.674545	0.877961
	C161	C	0.613979	0.675798	0.106772
	C162	C	0.616900	0.317864	0.878909
	C163	C	0.374343	0.319875	0.107100
	C164	C	0.675047	0.883537	0.372836
	C165	C	0.670306	0.112962	0.611681
	C166	C	0.320212	0.882381	0.611252
	C167	C	0.319669	0.112453	0.376268
	C168	C	0.874659	0.383249	0.171941
	C169	C	0.114437	0.612185	0.170373
	C170	C	0.116839	0.383493	0.814959
	C171	C	0.875782	0.612387	0.817004
	C172	C	0.174555	0.878158	0.379762
	C173	C	0.171105	0.116355	0.608594
	C174	C	0.818873	0.118085	0.379011
	C175	C	0.818375	0.880157	0.607940
	C176	C	0.380354	0.173167	0.875569
	C177	C	0.611296	0.173680	0.112155
	C178	C	0.380172	0.823006	0.111427
	C179	C	0.611038	0.820296	0.872736
	C180	C	0.381268	0.878209	0.170752
	C181	C	0.611239	0.116882	0.169752
	C182	C	0.379985	0.115601	0.818303
	C183	C	0.610905	0.876602	0.814678
	C184	C	0.875917	0.176816	0.379646
	C185	C	0.113705	0.174848	0.608594
	C186	C	0.118045	0.819471	0.380349
	C187	C	0.876345	0.821840	0.608214
	C188	C	0.173237	0.382908	0.873592
	C189	C	0.170469	0.612715	0.110915
	C190	C	0.818735	0.382606	0.112562
	C191	C	0.819049	0.612469	0.875575
	C192	C	0.396389	0.091807	0.594348
	C193	C	0.594425	0.903865	0.591297
	C194	C	0.594790	0.091786	0.392241
	C195	C	0.398657	0.903667	0.393306
	C196	C	0.593425	0.398084	0.085882
	C197	C	0.595241	0.596733	0.899252
	C198	C	0.394889	0.598885	0.086127
	C199	C	0.397544	0.396780	0.899654
	C200	C	0.091315	0.595635	0.393615
	C201	C	0.902064	0.597426	0.593217
	C202	C	0.091175	0.398648	0.592453
	C203	C	0.900975	0.400040	0.395680
	C204	C	0.895251	0.591391	0.094822
	C205	C	0.093694	0.403783	0.092294
	C206	C	0.094510	0.592127	0.892966
	C207	C	0.897866	0.403809	0.893447
	C208	C	0.096068	0.897880	0.588075
	C209	C	0.095425	0.097306	0.400481
	C210	C	0.894342	0.099705	0.587491
	C211	C	0.899118	0.898425	0.400440
	C212	C	0.590500	0.094502	0.893236
	C213	C	0.401799	0.095664	0.092496
	C214	C	0.590688	0.898617	0.090620
	C215	C	0.400489	0.897834	0.892641
	Zn216	Zn	0.495379	-0.003152	0.743322
	Zn217	Zn	0.496507	-0.002846	0.242187
	Zn218	Zn	0.745791	0.497177	-0.006636
	Zn219	Zn	0.245027	0.497511	-0.007162
	Zn220	Zn	-0.002971	0.746914	0.494029
	Zn221	Zn	-0.004168	0.249739	0.493834
	Zn222	Zn	-0.003974	0.497897	0.742519
	Zn223	Zn	-0.004721	0.497607	0.244240
	Zn224	Zn	0.494995	0.748736	-0.007607
	Zn225	Zn	0.495805	0.245811	-0.006595
	Zn226	Zn	0.745621	-0.001458	0.492988
	Zn227	Zn	0.246734	-0.002530	0.494284
	N228	N	0.409034	0.960474	0.672672
	N229	N	0.581819	0.034091	0.672756
	N230	N	0.583710	0.960702	0.312602
	N231	N	0.409552	0.034174	0.313736
	N232	N	0.673928	0.411621	0.955404
	N233	N	0.672650	0.582363	0.030516
	N234	N	0.317512	0.582530	0.954876
	N235	N	0.317434	0.412813	0.030300
	N236	N	0.959642	0.675773	0.408746
	N237	N	0.034452	0.675314	0.578878
	N238	N	0.958732	0.321334	0.579234
	N239	N	0.033222	0.320895	0.408758
	N240	N	0.958891	0.412815	0.671611
	N241	N	0.033414	0.584307	0.672291
	N242	N	0.958940	0.583928	0.315525
	N243	N	0.032291	0.411170	0.314410
	N244	N	0.409020	0.677252	0.955254
	N245	N	0.581133	0.677487	0.029575
	N246	N	0.582249	0.316786	0.955921
	N247	N	0.408782	0.317603	0.030128
	N248	N	0.675086	0.960796	0.406835
	N249	N	0.671460	0.036087	0.576731
	N250	N	0.319039	0.959889	0.578275
	N251	N	0.319636	0.035444	0.410139
	N252	N	0.907708	0.460877	0.174340
	N253	N	0.081406	0.534598	0.172415
	N254	N	0.082916	0.461042	0.813161
	N255	N	0.909654	0.534835	0.814590
	N256	N	0.174937	0.912456	0.456810
	N257	N	0.173252	0.082547	0.531525
	N258	N	0.816776	0.084573	0.456151
	N259	N	0.817977	0.913805	0.530886
	N260	N	0.458372	0.174139	0.908409
	N261	N	0.533694	0.174342	0.078478
	N262	N	0.457773	0.821976	0.076562
	N263	N	0.532971	0.819209	0.906490
	N264	N	0.459455	0.910858	0.172195
	N265	N	0.533041	0.083522	0.171967
	N266	N	0.457911	0.081545	0.816025
	N267	N	0.532609	0.909900	0.812799
	N268	N	0.908732	0.179245	0.456997
	N269	N	0.081010	0.177044	0.531163
	N270	N	0.084185	0.817569	0.457562
	N271	N	0.910978	0.819589	0.531260
	N272	N	0.173629	0.460316	0.907660
	N273	N	0.171579	0.535366	0.076858
	N274	N	0.817695	0.459714	0.078701
	N275	N	0.818441	0.535222	0.909111
	O276	O	0.485693	0.479596	0.495567
	H277	H	0.480994	0.482354	0.497877
	H278	H	0.482820	0.484530	0.492275
	O279	O	0.518819	0.502014	0.472914
	H280	H	0.520669	0.505172	0.470909
	H281	H	0.517676	0.499030	0.481912
	O282	O	0.531046	0.544225	0.537898
	H283	H	0.534906	0.538553	0.527626
	H284	H	0.536790	0.548635	0.546357
	O285	O	-0.010152	0.951175	1.001906
	H286	H	-0.007197	0.953349	1.007336
	H287	H	-0.005650	0.951677	1.009518
	O288	O	0.472654	0.503028	0.505721
	H289	H	0.475021	0.502725	0.505018
	H290	H	0.470254	0.503851	0.509393
	O291	O	0.012049	-0.023916	1.048787
	H292	H	0.006814	-0.027979	1.051169
	H293	H	0.008760	-0.015973	1.051625
	O294	O	0.532857	0.459559	0.402847
	H295	H	0.534242	0.450020	0.392842
	H296	H	0.543480	0.461961	0.399832
	O297	O	0.597156	0.488253	0.508870
	H298	H	0.590601	0.485052	0.499671
	H299	H	0.599918	0.490385	0.509436
	O300	O	0.971617	0.925244	1.019826
	H301	H	0.969959	0.927090	1.024316
	H302	H	0.971152	0.928121	1.023680
	O303	O	0.477219	0.504245	0.412543
	H304	H	0.480409	0.510994	0.421088
	H305	H	0.485553	0.501316	0.407972
	O306	O	1.016781	-0.019829	1.032565
	H307	H	1.014538	-0.028388	1.028099
	H308	H	1.010092	-0.019620	1.026373
	O309	O	0.483667	0.456873	0.459971
	H310	H	0.474974	0.459317	0.463997
	H311	H	0.496399	0.457173	0.462096
	O312	O	0.544537	0.524708	0.491074
	H313	H	0.546874	0.517520	0.490841
	H314	H	0.555779	0.519428	0.485092
	O315	O	0.999886	-0.026819	1.043565
	H316	H	1.008636	-0.033843	1.045100
	H317	H	1.002278	-0.031360	1.046563
	O318	O	-0.010063	-0.017565	0.015996
	H319	H	-0.009195	-0.008856	0.014787
	H320	H	-0.009342	-0.016189	0.013683
	O321	O	0.501756	0.564116	0.410707
	H322	H	0.497540	0.565967	0.408741
	H323	H	0.483094	0.566550	0.418952
	O324	O	0.418851	0.479888	0.421652
	H325	H	0.424655	0.472927	0.424924
	H326	H	0.419508	0.469811	0.425619
	O327	O	0.966479	1.031203	0.056428
	H328	H	0.969561	1.023106	0.052801
	H329	H	0.964975	1.028389	0.053791
	O330	O	0.598229	0.429142	0.458948
	H331	H	0.613001	0.421824	0.454865
	H332	H	0.594238	0.434050	0.456598
	O333	O	0.583936	0.473090	0.475155
	H334	H	0.573134	0.480681	0.478088
	H335	H	0.584330	0.467247	0.474297
