data_Molecule from HDF5

_cell_length_a		16.482943
_cell_length_b		16.342270
_cell_length_c		16.290663
_cell_angle_alpha	89.740872
_cell_angle_beta	89.923849
_cell_angle_gamma	89.689814
_symmetry_space_group_name_H-M	'P 1'
_symmetry_Int_Tables_number		1

loop_
	_symmetry_equiv_pos_as_xyz
	x,y,z

loop_
	_atom_site_label
	_atom_site_type_symbol
	_atom_site_fract_x
	_atom_site_fract_y
	_atom_site_fract_z
	H0	H	0.398011	0.839600	0.716197
	H1	H	0.598132	0.163485	0.711746
	H2	H	0.601050	0.840066	0.279490
	H3	H	0.395898	0.161825	0.278551
	H4	H	0.720413	0.397417	0.839222
	H5	H	0.714898	0.604813	0.160179
	H6	H	0.276995	0.607987	0.837219
	H7	H	0.280175	0.397795	0.158645
	H8	H	0.838727	0.722848	0.396263
	H9	H	0.157401	0.718999	0.602666
	H10	H	0.838186	0.280837	0.605976
	H11	H	0.158021	0.281803	0.398375
	H12	H	0.838123	0.400440	0.719256
	H13	H	0.157429	0.602288	0.718260
	H14	H	0.837681	0.606868	0.280139
	H15	H	0.156877	0.397854	0.280594
	H16	H	0.396635	0.720022	0.835477
	H17	H	0.599789	0.720351	0.158562
	H18	H	0.601658	0.286452	0.835555
	H19	H	0.399869	0.284687	0.159055
	H20	H	0.720519	0.841367	0.391902
	H21	H	0.716551	0.161761	0.599499
	H22	H	0.280214	0.840372	0.602058
	H23	H	0.276767	0.160230	0.391045
	H24	H	0.896089	0.341870	0.221196
	H25	H	0.097262	0.663163	0.216063
	H26	H	0.102029	0.342504	0.781605
	H27	H	0.894167	0.662452	0.780470
	H28	H	0.220594	0.894547	0.339606
	H29	H	0.218872	0.105452	0.658557
	H30	H	0.778406	0.108609	0.337900
	H31	H	0.774633	0.893072	0.657026
	H32	H	0.340685	0.223721	0.892462
	H33	H	0.657151	0.221692	0.101560
	H34	H	0.338268	0.783521	0.099619
	H35	H	0.656556	0.778085	0.891004
	H36	H	0.339277	0.898038	0.217961
	H37	H	0.656150	0.106273	0.219481
	H38	H	0.338736	0.104475	0.779505
	H39	H	0.658091	0.897469	0.777674
	H40	H	0.894884	0.222605	0.339075
	H41	H	0.099908	0.217400	0.661097
	H42	H	0.102226	0.780444	0.339158
	H43	H	0.895781	0.783683	0.660421
	H44	H	0.219122	0.343576	0.892338
	H45	H	0.217174	0.661380	0.103379
	H46	H	0.776838	0.342255	0.108166
	H47	H	0.775663	0.660831	0.893675
	H48	H	0.409127	0.113613	0.583693
	H49	H	0.584605	0.889417	0.583552
	H50	H	0.592598	0.116481	0.410033
	H51	H	0.411239	0.888584	0.411394
	H52	H	0.590074	0.406062	0.115293
	H53	H	0.587483	0.581040	0.887529
	H54	H	0.403851	0.594936	0.113724
	H55	H	0.408687	0.419584	0.884540
	H56	H	0.111970	0.591339	0.406081
	H57	H	0.883093	0.592658	0.592213
	H58	H	0.108199	0.410331	0.582416
	H59	H	0.884670	0.416669	0.406149
	H60	H	0.110330	0.415121	0.595995
	H61	H	0.884003	0.594863	0.589193
	H62	H	0.110072	0.593244	0.411669
	H63	H	0.881945	0.405961	0.409095
	H64	H	0.404162	0.588401	0.112339
	H65	H	0.580945	0.593952	0.884821
	H66	H	0.590675	0.415458	0.112350
	H67	H	0.412821	0.409376	0.882936
	H68	H	0.587075	0.116453	0.402609
	H69	H	0.592678	0.886430	0.584296
	H70	H	0.402194	0.116909	0.586215
	H71	H	0.406758	0.886579	0.410392
	H72	H	0.907254	0.612320	0.081178
	H73	H	0.087575	0.390916	0.079789
	H74	H	0.085237	0.617016	0.909616
	H75	H	0.915432	0.390367	0.911805
	H76	H	0.089076	0.905697	0.616104
	H77	H	0.089635	0.086034	0.385861
	H78	H	0.903642	0.084383	0.613204
	H79	H	0.909108	0.913620	0.384109
	H80	H	0.611041	0.084983	0.901438
	H81	H	0.385641	0.094591	0.084500
	H82	H	0.609729	0.912022	0.085865
	H83	H	0.385118	0.912167	0.905632
	H84	H	0.611999	0.910337	0.087839
	H85	H	0.386790	0.090016	0.085618
	H86	H	0.617497	0.098782	0.899529
	H87	H	0.385319	0.910304	0.907481
	H88	H	0.911942	0.088237	0.611410
	H89	H	0.083843	0.092439	0.385530
	H90	H	0.094467	0.913911	0.613801
	H91	H	0.910313	0.913661	0.385765
	H92	H	0.088125	0.616454	0.911587
	H93	H	0.098996	0.382950	0.091306
	H94	H	0.898022	0.618562	0.089947
	H95	H	0.903325	0.388005	0.917027
	H96	H	0.408090	0.115642	0.591605
	H97	H	0.587539	0.886553	0.590694
	H98	H	0.585016	0.112461	0.410358
	H99	H	0.410071	0.886514	0.407281
	H100	H	0.582482	0.410829	0.111510
	H101	H	0.594474	0.591707	0.880927
	H102	H	0.409656	0.591960	0.112039
	H103	H	0.401543	0.411460	0.880250
	H104	H	0.109748	0.587963	0.409885
	H105	H	0.885342	0.590530	0.589240
	H106	H	0.113178	0.401638	0.592695
	H107	H	0.886756	0.412973	0.417294
	H108	H	0.910919	0.615852	0.094111
	H109	H	0.082408	0.387380	0.096854
	H110	H	0.088434	0.617967	0.908377
	H111	H	0.905847	0.384114	0.904093
	H112	H	0.084746	0.913174	0.610901
	H113	H	0.091508	0.093631	0.382278
	H114	H	0.904623	0.093497	0.615076
	H115	H	0.910292	0.911928	0.384198
	H116	H	0.610966	0.094541	0.913115
	H117	H	0.384217	0.092671	0.088854
	H118	H	0.611676	0.909222	0.085229
	H119	H	0.386216	0.913000	0.907734
	C120	C	0.376582	0.009267	0.619241
	C121	C	0.619075	0.993246	0.617885
	C122	C	0.620231	0.009665	0.375754
	C123	C	0.377208	0.992698	0.376863
	C124	C	0.620352	0.379660	0.007120
	C125	C	0.618698	0.621449	0.990044
	C126	C	0.375500	0.623342	0.006147
	C127	C	0.377499	0.381583	0.988757
	C128	C	0.005614	0.623261	0.378145
	C129	C	0.989516	0.622675	0.621163
	C130	C	0.005689	0.378355	0.622502
	C131	C	0.989780	0.380038	0.379297
	C132	C	0.875340	0.510066	0.121445
	C133	C	0.119314	0.493290	0.120318
	C134	C	0.119145	0.511357	0.878076
	C135	C	0.876586	0.493327	0.879184
	C136	C	0.120853	0.878796	0.507803
	C137	C	0.119377	0.121761	0.490820
	C138	C	0.876459	0.121893	0.507297
	C139	C	0.877357	0.880795	0.490378
	C140	C	0.507802	0.124293	0.874183
	C141	C	0.490550	0.123006	0.118065
	C142	C	0.506052	0.879984	0.117845
	C143	C	0.490344	0.879707	0.875175
	C144	C	0.377946	0.887868	0.677436
	C145	C	0.618198	0.114653	0.674451
	C146	C	0.620770	0.888351	0.317881
	C147	C	0.376280	0.113428	0.317402
	C148	C	0.680300	0.378950	0.886954
	C149	C	0.676152	0.623349	0.111462
	C150	C	0.317031	0.625582	0.885165
	C151	C	0.319634	0.379752	0.110180
	C152	C	0.886278	0.683127	0.376973
	C153	C	0.109457	0.680306	0.621788
	C154	C	0.886017	0.320311	0.624091
	C155	C	0.109997	0.321133	0.378880
	C156	C	0.885954	0.379778	0.680764
	C157	C	0.109700	0.622104	0.679199
	C158	C	0.885828	0.624981	0.319370
	C159	C	0.109373	0.378871	0.320259
	C160	C	0.376354	0.681643	0.884252
	C161	C	0.618638	0.680752	0.110777
	C162	C	0.621031	0.323706	0.884846
	C163	C	0.378803	0.323091	0.110539
	C164	C	0.680289	0.889251	0.373879
	C165	C	0.677272	0.113678	0.618493
	C166	C	0.318999	0.888591	0.620928
	C167	C	0.316886	0.112533	0.373381
	C168	C	0.875625	0.389749	0.181613
	C169	C	0.117802	0.614567	0.177908
	C170	C	0.120532	0.390747	0.819900
	C171	C	0.875017	0.613926	0.819470
	C172	C	0.180363	0.876448	0.387295
	C173	C	0.178526	0.123151	0.610909
	C174	C	0.817958	0.125629	0.386210
	C175	C	0.816305	0.877139	0.610117
	C176	C	0.388099	0.183633	0.873624
	C177	C	0.609743	0.182059	0.119992
	C178	C	0.386263	0.822068	0.118943
	C179	C	0.609186	0.818581	0.872773
	C180	C	0.386763	0.879116	0.177834
	C181	C	0.609119	0.124574	0.178718
	C182	C	0.387106	0.124188	0.817483
	C183	C	0.610129	0.878230	0.816548
	C184	C	0.875716	0.182876	0.386757
	C185	C	0.119216	0.178992	0.612163
	C186	C	0.121883	0.819456	0.387320
	C187	C	0.876375	0.822066	0.611663
	C188	C	0.179029	0.391332	0.875225
	C189	C	0.177173	0.613784	0.121607
	C190	C	0.816705	0.389805	0.125049
	C191	C	0.816081	0.613227	0.875989
	C192	C	0.399845	0.093523	0.594419
	C193	C	0.595073	0.909271	0.593410
	C194	C	0.595425	0.093299	0.400466
	C195	C	0.402076	0.909070	0.402381
	C196	C	0.595010	0.403661	0.091444
	C197	C	0.594603	0.596091	0.906119
	C198	C	0.398929	0.598858	0.090610
	C199	C	0.400909	0.406244	0.904452
	C200	C	0.088986	0.597980	0.402276
	C201	C	0.905915	0.599379	0.597139
	C202	C	0.088876	0.402179	0.597571
	C203	C	0.906247	0.404761	0.403925
	C204	C	0.898701	0.593793	0.095808
	C205	C	0.096272	0.409140	0.096217
	C206	C	0.094313	0.595288	0.902757
	C207	C	0.901257	0.409416	0.904014
	C208	C	0.096511	0.903799	0.591793
	C209	C	0.095397	0.097434	0.406357
	C210	C	0.900037	0.096098	0.591396
	C211	C	0.902664	0.905996	0.406578
	C212	C	0.591348	0.099935	0.897860
	C213	C	0.407170	0.099093	0.093419
	C214	C	0.589478	0.903818	0.093364
	C215	C	0.407107	0.904744	0.899888
	Zn216	Zn	0.498468	0.001477	0.746639
	Zn217	Zn	0.498419	0.001018	0.247561
	Zn218	Zn	0.747412	0.501324	0.000067
	Zn219	Zn	0.247467	0.502004	-0.002095
	Zn220	Zn	-0.002213	0.751930	0.499450
	Zn221	Zn	-0.002681	0.249734	0.500273
	Zn222	Zn	-0.002218	0.501768	0.750679
	Zn223	Zn	-0.002484	0.501756	0.249150
	Zn224	Zn	0.498259	0.750207	-0.002804
	Zn225	Zn	0.499014	0.252403	-0.003535
	Zn226	Zn	0.748318	0.001470	0.497574
	Zn227	Zn	0.248220	0.000865	0.497671
	N228	N	0.412653	0.964164	0.676764
	N229	N	0.582868	0.038571	0.674348
	N230	N	0.584341	0.964140	0.318590
	N231	N	0.412818	0.037740	0.319218
	N232	N	0.680271	0.412588	0.964061
	N233	N	0.675987	0.587161	0.035573
	N234	N	0.316333	0.590284	0.961937
	N235	N	0.318615	0.415327	0.033525
	N236	N	0.961710	0.682208	0.412655
	N237	N	0.033795	0.680695	0.586354
	N238	N	0.961705	0.319338	0.588711
	N239	N	0.034359	0.321762	0.414743
	N240	N	0.961561	0.414893	0.680194
	N241	N	0.034163	0.586881	0.678838
	N242	N	0.961342	0.588517	0.319895
	N243	N	0.033619	0.414559	0.320262
	N244	N	0.412063	0.680512	0.960503
	N245	N	0.583635	0.679862	0.034119
	N246	N	0.584602	0.323732	0.960936
	N247	N	0.413669	0.323645	0.034015
	N248	N	0.680177	0.965649	0.408743
	N249	N	0.678169	0.037107	0.584221
	N250	N	0.318000	0.965043	0.585477
	N251	N	0.317239	0.036405	0.409513
	N252	N	0.911447	0.465200	0.179206
	N253	N	0.082558	0.538542	0.177330
	N254	N	0.084006	0.466528	0.821348
	N255	N	0.912002	0.538347	0.821307
	N256	N	0.179977	0.912414	0.463328
	N257	N	0.178926	0.088358	0.534235
	N258	N	0.818279	0.088457	0.462096
	N259	N	0.816768	0.912901	0.533613
	N260	N	0.464151	0.183960	0.908144
	N261	N	0.534925	0.180971	0.082758
	N262	N	0.461495	0.822439	0.082411
	N263	N	0.533748	0.819350	0.908750
	N264	N	0.462260	0.914361	0.177299
	N265	N	0.534186	0.088280	0.177236
	N266	N	0.462604	0.088339	0.817402
	N267	N	0.535287	0.915429	0.817996
	N268	N	0.911329	0.180711	0.462996
	N269	N	0.082921	0.178025	0.536418
	N270	N	0.085713	0.820811	0.463294
	N271	N	0.913757	0.824372	0.536245
	N272	N	0.178370	0.467370	0.910675
	N273	N	0.178598	0.537347	0.086942
	N274	N	0.816406	0.465756	0.088403
	N275	N	0.816989	0.537267	0.912475
	O276	O	0.437868	0.589282	0.369240
	H277	H	0.437510	0.574444	0.364241
	H278	H	0.445314	0.584872	0.370106
	O279	O	0.453870	0.484074	0.521108
	H280	H	0.458305	0.490842	0.518793
	H281	H	0.438721	0.485358	0.504772
	O282	O	0.563667	0.609454	0.555059
	H283	H	0.535691	0.609871	0.555284
	H284	H	0.570190	0.607115	0.560276
	O285	O	0.979358	-0.085079	0.094215
	H286	H	0.994382	-0.077882	0.091790
	H287	H	0.978169	-0.088448	0.091361
	O288	O	-0.201653	-0.106004	1.195988
	H289	H	-0.205506	-0.111942	1.200211
	H290	H	-0.196003	-0.134312	1.180610
	O291	O	0.482072	0.666065	0.568087
	H292	H	0.462309	0.668206	0.564490
	H293	H	0.464358	0.674511	0.564280
	O294	O	0.325109	0.495351	0.473998
	H295	H	0.316037	0.488890	0.467079
	H296	H	0.329362	0.484336	0.473088
	O297	O	1.156658	1.145654	0.878461
	H298	H	1.147324	1.146871	0.880044
	H299	H	1.156094	1.138286	0.883322
	O300	O	-0.200125	0.036368	0.137774
	H301	H	-0.208573	0.026370	0.157738
	H302	H	-0.203455	0.018465	0.147522
	O303	O	0.339241	0.383332	0.645144
	H304	H	0.346381	0.389424	0.651653
	H305	H	0.330308	0.374928	0.660353
	O306	O	0.916633	0.091554	0.111820
	H307	H	0.905508	0.086040	0.101102
	H308	H	0.928130	0.099743	0.108143
	O309	O	0.346941	0.682204	0.477209
	H310	H	0.327091	0.693185	0.468430
	H311	H	0.342349	0.686261	0.460534
	O312	O	0.794436	0.987096	-0.012118
	H313	H	0.796750	0.997659	-0.010877
	H314	H	0.797661	0.994538	-0.012364
	O315	O	0.539159	0.432774	0.545570
	H316	H	0.529198	0.429149	0.547836
	H317	H	0.535105	0.430272	0.542841
	O318	O	0.493796	0.687066	0.487696
	H319	H	0.491928	0.689064	0.471720
	H320	H	0.470216	0.687001	0.483006
	O321	O	1.194788	0.201595	1.095145
	H322	H	1.217113	0.207696	1.099510
	H323	H	1.193021	0.200972	1.098800
	O324	O	0.055807	-0.181043	0.812056
	H325	H	0.053813	-0.186309	0.800021
	H326	H	0.059365	-0.172590	0.828830
	O327	O	0.448823	0.375246	0.509993
	H328	H	0.453902	0.367515	0.510912
	H329	H	0.454458	0.371518	0.512205
	O330	O	0.650633	0.566032	0.443753
	H331	H	0.645251	0.591198	0.452341
	H332	H	0.654254	0.565597	0.452888
	O333	O	0.985848	1.079032	0.867414
	H334	H	0.967423	1.078504	0.866881
	H335	H	1.006352	1.080569	0.868731
	O336	O	0.631950	0.339426	0.407696
	H337	H	0.646992	0.332022	0.398443
	H338	H	0.646131	0.359751	0.403017
	O339	O	0.979403	0.172388	1.135524
	H340	H	0.981953	0.180968	1.129514
	H341	H	0.960773	0.156127	1.147738
	O342	O	0.138398	0.814683	0.988491
	H343	H	0.121514	0.814339	0.989156
	H344	H	0.132835	0.813086	0.997044
	O345	O	0.161921	0.968417	0.984659
	H346	H	0.183357	0.965077	0.979842
	H347	H	0.158754	0.963426	0.987430
	O348	O	0.691916	0.444049	0.413388
	H349	H	0.700104	0.459984	0.412343
	H350	H	0.693700	0.464362	0.417774
	O351	O	-0.173487	-0.183059	0.104758
	H352	H	-0.153373	-0.185627	0.102866
	H353	H	-0.186018	-0.186508	0.069335
	O354	O	1.151784	1.086939	0.085397
	H355	H	1.128063	1.078125	0.074424
	H356	H	1.170332	1.090818	0.092679
	O357	O	-0.203954	1.009430	-0.184050
	H358	H	-0.199366	1.016065	-0.210132
	H359	H	-0.203548	1.025836	-0.179901
	O360	O	0.317042	0.319374	0.544241
	H361	H	0.317556	0.318205	0.557756
	H362	H	0.315347	0.313898	0.538347
	O363	O	0.476832	0.343435	0.375957
	H364	H	0.486977	0.351177	0.390223
	H365	H	0.490143	0.341030	0.385022
	O366	O	0.445940	0.606343	0.408164
	H367	H	0.448505	0.608996	0.407596
	H368	H	0.442258	0.610023	0.388923
	O369	O	0.510595	0.327168	0.627962
	H370	H	0.519533	0.323418	0.614881
	H371	H	0.511657	0.341953	0.627482
	O372	O	0.505069	0.501170	0.562903
	H373	H	0.493670	0.498399	0.561719
	H374	H	0.499559	0.505897	0.570843
	O375	O	0.432142	0.379723	0.392808
	H376	H	0.440125	0.374071	0.394904
	H377	H	0.442082	0.369687	0.411299
	O378	O	0.975112	0.086160	0.122063
	H379	H	0.953613	0.069391	0.126226
	H380	H	0.963273	0.086289	0.109705
	O381	O	0.391353	0.605122	0.436110
	H382	H	0.381449	0.585957	0.430251
	H383	H	0.390882	0.607512	0.423199
	O384	O	0.024687	0.832847	1.138472
	H385	H	0.026632	0.848792	1.134296
	H386	H	0.018784	0.820717	1.146800
	O387	O	1.078858	0.905738	-0.154269
	H388	H	1.082443	0.904179	-0.158791
	H389	H	1.099551	0.928159	-0.152245
	O390	O	0.641049	0.431149	0.580300
	H391	H	0.638925	0.435742	0.598777
	H392	H	0.634291	0.428270	0.570671
	O393	O	0.794536	0.205011	0.965107
	H394	H	0.783089	0.211306	0.971857
	H395	H	0.786972	0.211334	0.983202
	O396	O	0.185895	0.896121	1.055767
	H397	H	0.177264	0.903953	1.051443
	H398	H	0.193301	0.894732	1.061739
	O399	O	0.444333	0.562949	0.410238
	H400	H	0.440262	0.572230	0.431909
	H401	H	0.439225	0.544203	0.401807
	O402	O	1.129857	-0.116166	1.043074
	H403	H	1.141800	-0.123855	1.050671
	H404	H	1.119614	-0.115512	1.017175
	O405	O	0.163637	0.008878	-0.056437
	H406	H	0.162299	0.012004	-0.061663
	H407	H	0.152512	0.020259	-0.057587
	O408	O	0.824724	1.172379	0.820633
	H409	H	0.807686	1.185457	0.840438
	H410	H	0.827804	1.156992	0.831526
	O411	O	0.961372	0.921734	-0.139835
	H412	H	0.959899	0.920888	-0.138898
	H413	H	0.962739	0.932694	-0.135535
	O414	O	0.006577	0.215030	0.817573
	H415	H	-0.005848	0.230872	0.797969
	H416	H	-0.012879	0.208572	0.807808
	O417	O	0.562083	0.604116	0.505432
	H418	H	0.570078	0.625225	0.513613
	H419	H	0.551182	0.604651	0.509144
	O420	O	0.141475	0.973543	0.018584
	H421	H	0.144988	0.985514	0.018706
	H422	H	0.142564	0.991631	0.029359
	O423	O	1.111461	0.185213	0.196449
	H424	H	1.080927	0.199924	0.206848
	H425	H	1.136138	0.175257	0.205228
	O426	O	-0.183063	-0.149240	0.934928
	H427	H	-0.196636	-0.141471	0.926927
	H428	H	-0.166717	-0.131183	0.917977
	O429	O	0.580977	0.567485	0.670313
	H430	H	0.584202	0.577162	0.664272
	H431	H	0.560924	0.574762	0.667910
