data_Molecule from HDF5

_cell_length_a		16.275760
_cell_length_b		16.482911
_cell_length_c		16.282041
_cell_angle_alpha	89.837189
_cell_angle_beta	89.636990
_cell_angle_gamma	90.238253
_symmetry_space_group_name_H-M	'P 1'
_symmetry_Int_Tables_number		1

loop_
	_symmetry_equiv_pos_as_xyz
	x,y,z

loop_
	_atom_site_label
	_atom_site_type_symbol
	_atom_site_fract_x
	_atom_site_fract_y
	_atom_site_fract_z
	H0	H	0.388423	0.824075	0.723342
	H1	H	0.597134	0.143177	0.719425
	H2	H	0.594975	0.824214	0.282193
	H3	H	0.389572	0.142950	0.280797
	H4	H	0.712240	0.381652	0.838581
	H5	H	0.710559	0.585988	0.160319
	H6	H	0.281276	0.581906	0.834640
	H7	H	0.274497	0.382484	0.159923
	H8	H	0.833944	0.702849	0.395736
	H9	H	0.155964	0.703997	0.603144
	H10	H	0.833830	0.264287	0.603826
	H11	H	0.156166	0.265135	0.393374
	H12	H	0.833362	0.380182	0.717915
	H13	H	0.157446	0.583855	0.714296
	H14	H	0.832813	0.584130	0.282869
	H15	H	0.158198	0.386351	0.281638
	H16	H	0.386340	0.705714	0.840481
	H17	H	0.596197	0.702961	0.159751
	H18	H	0.598258	0.263065	0.839888
	H19	H	0.386509	0.265110	0.161192
	H20	H	0.712229	0.823617	0.399678
	H21	H	0.713100	0.142515	0.602921
	H22	H	0.268594	0.825470	0.610809
	H23	H	0.276269	0.143466	0.399880
	H24	H	0.894011	0.323520	0.216129
	H25	H	0.097702	0.644321	0.213500
	H26	H	0.093512	0.322083	0.780936
	H27	H	0.892416	0.643855	0.777587
	H28	H	0.212878	0.884615	0.339089
	H29	H	0.208710	0.084700	0.663732
	H30	H	0.781282	0.080415	0.337680
	H31	H	0.776762	0.880937	0.663441
	H32	H	0.331677	0.199554	0.898595
	H33	H	0.651794	0.203402	0.103936
	H34	H	0.330407	0.763053	0.106884
	H35	H	0.652287	0.762866	0.894524
	H36	H	0.330298	0.881665	0.220132
	H37	H	0.655521	0.081774	0.213029
	H38	H	0.332037	0.083013	0.784042
	H39	H	0.654549	0.881474	0.783536
	H40	H	0.893265	0.200811	0.338896
	H41	H	0.097744	0.205179	0.660420
	H42	H	0.100075	0.767007	0.339254
	H43	H	0.887502	0.761094	0.660024
	H44	H	0.210397	0.322120	0.896505
	H45	H	0.211960	0.643906	0.095985
	H46	H	0.774935	0.324196	0.100906
	H47	H	0.774121	0.644005	0.893911
	H48	H	0.401911	0.098503	0.596472
	H49	H	0.594165	0.865474	0.594986
	H50	H	0.582047	0.096630	0.407112
	H51	H	0.403993	0.873443	0.418795
	H52	H	0.580394	0.393439	0.114139
	H53	H	0.587824	0.573911	0.883044
	H54	H	0.404588	0.564582	0.110767
	H55	H	0.412483	0.389716	0.885744
	H56	H	0.113805	0.581953	0.403144
	H57	H	0.879721	0.573192	0.589879
	H58	H	0.110843	0.389263	0.585190
	H59	H	0.881978	0.396900	0.410184
	H60	H	0.107247	0.396723	0.583714
	H61	H	0.879955	0.576153	0.584689
	H62	H	0.109139	0.578080	0.412140
	H63	H	0.877366	0.390445	0.402292
	H64	H	0.408591	0.580707	0.114123
	H65	H	0.577913	0.568369	0.887324
	H66	H	0.581501	0.391619	0.114966
	H67	H	0.400429	0.380864	0.879570
	H68	H	0.589975	0.097416	0.412821
	H69	H	0.577377	0.869078	0.600280
	H70	H	0.408249	0.094595	0.593142
	H71	H	0.398620	0.868138	0.409833
	H72	H	0.905288	0.599295	0.092610
	H73	H	0.081504	0.369702	0.092140
	H74	H	0.095906	0.599632	0.904856
	H75	H	0.904076	0.373486	0.913554
	H76	H	0.085417	0.897395	0.615305
	H77	H	0.087506	0.075572	0.384264
	H78	H	0.911704	0.078496	0.614483
	H79	H	0.909341	0.891772	0.386875
	H80	H	0.609847	0.075818	0.908417
	H81	H	0.373588	0.074095	0.100753
	H82	H	0.602882	0.895859	0.084652
	H83	H	0.379054	0.889739	0.918449
	H84	H	0.607750	0.894416	0.095682
	H85	H	0.374653	0.081894	0.087907
	H86	H	0.608333	0.077038	0.913880
	H87	H	0.380612	0.899487	0.914013
	H88	H	0.898316	0.080464	0.619645
	H89	H	0.085364	0.072870	0.386330
	H90	H	0.074573	0.893873	0.612733
	H91	H	0.902016	0.889966	0.383696
	H92	H	0.084276	0.598560	0.897473
	H93	H	0.084918	0.370706	0.085927
	H94	H	0.903319	0.596661	0.085751
	H95	H	0.898750	0.369334	0.907562
	H96	H	0.401412	0.094965	0.588600
	H97	H	0.582492	0.873042	0.583204
	H98	H	0.590613	0.100886	0.403455
	H99	H	0.410152	0.871289	0.408723
	H100	H	0.582649	0.393675	0.115087
	H101	H	0.578153	0.580330	0.884090
	H102	H	0.393145	0.574745	0.117938
	H103	H	0.398589	0.396172	0.883384
	H104	H	0.110020	0.572110	0.403764
	H105	H	0.882210	0.570116	0.585104
	H106	H	0.111016	0.395297	0.591199
	H107	H	0.879331	0.385827	0.412194
	H108	H	0.898031	0.599907	0.090425
	H109	H	0.087879	0.367454	0.091645
	H110	H	0.084344	0.594869	0.910418
	H111	H	0.907373	0.370877	0.905491
	H112	H	0.082292	0.887066	0.618478
	H113	H	0.083847	0.075994	0.386371
	H114	H	0.902299	0.067498	0.614426
	H115	H	0.903099	0.897415	0.386332
	H116	H	0.607783	0.071710	0.911727
	H117	H	0.378564	0.067159	0.088711
	H118	H	0.608788	0.885338	0.088005
	H119	H	0.375710	0.891399	0.907890
	C120	C	0.371042	-0.008717	0.624699
	C121	C	0.615749	0.974718	0.623256
	C122	C	0.616563	-0.008038	0.378508
	C123	C	0.373071	0.975991	0.381187
	C124	C	0.613542	0.361943	0.008415
	C125	C	0.613363	0.605226	0.990560
	C126	C	0.371970	0.603905	0.007478
	C127	C	0.371438	0.360098	0.990199
	C128	C	0.003932	0.607072	0.376512
	C129	C	0.986944	0.604462	0.618783
	C130	C	0.002948	0.362458	0.618894
	C131	C	0.986712	0.361891	0.377133
	C132	C	0.871770	0.492849	0.120579
	C133	C	0.115877	0.475281	0.118644
	C134	C	0.116869	0.490980	0.874997
	C135	C	0.872270	0.476340	0.876635
	C136	C	0.114383	0.863149	0.509213
	C137	C	0.115394	0.105648	0.492315
	C138	C	0.873865	0.104675	0.509163
	C139	C	0.872674	0.861354	0.491973
	C140	C	0.501993	0.104459	0.880166
	C141	C	0.482881	0.104403	0.122043
	C142	C	0.499986	0.861375	0.121787
	C143	C	0.484314	0.862208	0.880931
	C144	C	0.368996	0.871948	0.684329
	C145	C	0.616284	0.095024	0.680678
	C146	C	0.615732	0.871901	0.320770
	C147	C	0.371925	0.095525	0.321606
	C148	C	0.672839	0.362028	0.886911
	C149	C	0.671984	0.605575	0.111745
	C150	C	0.317417	0.602548	0.884520
	C151	C	0.312721	0.362139	0.111659
	C152	C	0.882367	0.664055	0.376539
	C153	C	0.108038	0.663662	0.620519
	C154	C	0.881809	0.303763	0.621744
	C155	C	0.108021	0.304484	0.375114
	C156	C	0.881701	0.361501	0.678460
	C157	C	0.108727	0.604299	0.676116
	C158	C	0.881607	0.604889	0.320443
	C159	C	0.108976	0.364600	0.319392
	C160	C	0.369525	0.664403	0.887324
	C161	C	0.614807	0.663639	0.111612
	C162	C	0.616017	0.303247	0.887621
	C163	C	0.368825	0.303749	0.112223
	C164	C	0.673463	0.871531	0.379559
	C165	C	0.674007	0.094843	0.622603
	C166	C	0.309583	0.872620	0.628042
	C167	C	0.315166	0.095755	0.380795
	C168	C	0.873358	0.371824	0.177744
	C169	C	0.116501	0.596210	0.174853
	C170	C	0.114143	0.370208	0.818903
	C171	C	0.872735	0.596109	0.817314
	C172	C	0.174103	0.864577	0.387722
	C173	C	0.171208	0.105059	0.614721
	C174	C	0.818258	0.101891	0.386572
	C175	C	0.814557	0.860953	0.614080
	C176	C	0.380071	0.160755	0.879863
	C177	C	0.604189	0.163414	0.122677
	C178	C	0.378780	0.802840	0.124792
	C179	C	0.604623	0.802803	0.877371
	C180	C	0.378563	0.862035	0.180961
	C181	C	0.605999	0.102980	0.176878
	C182	C	0.380343	0.103046	0.822690
	C183	C	0.605686	0.861745	0.821952
	C184	C	0.874087	0.161425	0.387109
	C185	C	0.116360	0.165120	0.612837
	C186	C	0.117723	0.806158	0.387605
	C187	C	0.870112	0.801612	0.612600
	C188	C	0.172361	0.370285	0.876484
	C189	C	0.173676	0.595744	0.116507
	C190	C	0.814339	0.371950	0.120562
	C191	C	0.813604	0.595963	0.875123
	C192	C	0.396424	0.074288	0.599786
	C193	C	0.591600	0.891130	0.599695
	C194	C	0.594104	0.076454	0.401225
	C195	C	0.397406	0.892374	0.405691
	C196	C	0.588608	0.385892	0.092771
	C197	C	0.588530	0.581068	0.906630
	C198	C	0.395427	0.580236	0.092304
	C199	C	0.396570	0.382454	0.904987
	C200	C	0.088825	0.584155	0.399573
	C201	C	0.902567	0.580151	0.593929
	C202	C	0.087665	0.386741	0.593889
	C203	C	0.901627	0.384458	0.401200
	C204	C	0.895333	0.576596	0.096655
	C205	C	0.091636	0.391135	0.096385
	C206	C	0.094659	0.575665	0.897623
	C207	C	0.896412	0.392975	0.901599
	C208	C	0.088379	0.886100	0.593560
	C209	C	0.092330	0.081814	0.407731
	C210	C	0.897164	0.082029	0.594158
	C211	C	0.897530	0.885876	0.407524
	C212	C	0.586667	0.081640	0.904158
	C213	C	0.397630	0.081203	0.099054
	C214	C	0.584672	0.884959	0.096554
	C215	C	0.400203	0.886410	0.906395
	Zn216	Zn	0.494026	-0.017081	0.752290
	Zn217	Zn	0.492832	-0.016476	0.249760
	Zn218	Zn	0.742148	0.484128	-0.000962
	Zn219	Zn	0.245179	0.482672	-0.002736
	Zn220	Zn	-0.005120	0.733979	0.499449
	Zn221	Zn	-0.004979	0.233723	0.499252
	Zn222	Zn	-0.004981	0.483152	0.746550
	Zn223	Zn	-0.004969	0.484573	0.248736
	Zn224	Zn	0.491111	0.733039	0.000048
	Zn225	Zn	0.492295	0.232535	0.001036
	Zn226	Zn	0.745454	-0.017120	0.501288
	Zn227	Zn	0.242869	-0.016131	0.502353
	N228	N	0.406602	0.946625	0.682474
	N229	N	0.580884	0.019089	0.681454
	N230	N	0.581150	0.947787	0.319970
	N231	N	0.407111	0.019840	0.321559
	N232	N	0.671336	0.397968	0.962970
	N233	N	0.671310	0.570145	0.035552
	N234	N	0.318781	0.565431	0.960225
	N235	N	0.314216	0.396338	0.034701
	N236	N	0.959522	0.665701	0.410403
	N237	N	0.031154	0.663806	0.585535
	N238	N	0.958193	0.304416	0.585245
	N239	N	0.031039	0.302967	0.410311
	N240	N	0.958126	0.397246	0.676736
	N241	N	0.032532	0.568295	0.675230
	N242	N	0.958197	0.570097	0.320269
	N243	N	0.032438	0.399826	0.320510
	N244	N	0.402794	0.665313	0.964723
	N245	N	0.579107	0.663816	0.035274
	N246	N	0.579707	0.303245	0.964073
	N247	N	0.404642	0.302301	0.035483
	N248	N	0.674252	0.947376	0.414444
	N249	N	0.673929	0.019252	0.587658
	N250	N	0.310809	0.947841	0.591539
	N251	N	0.315923	0.020590	0.417290
	N252	N	0.908248	0.448018	0.178075
	N253	N	0.081184	0.520347	0.176379
	N254	N	0.080491	0.446415	0.818022
	N255	N	0.908181	0.520569	0.818049
	N256	N	0.172233	0.899191	0.464447
	N257	N	0.170995	0.069050	0.538745
	N258	N	0.817906	0.067536	0.463481
	N259	N	0.816073	0.897354	0.537940
	N260	N	0.456708	0.161890	0.914809
	N261	N	0.526626	0.164492	0.089546
	N262	N	0.455375	0.802290	0.088562
	N263	N	0.528079	0.803093	0.913427
	N264	N	0.455029	0.897584	0.179226
	N265	N	0.529655	0.067199	0.176674
	N266	N	0.457005	0.068602	0.822807
	N267	N	0.529845	0.898041	0.823998
	N268	N	0.907753	0.163322	0.464361
	N269	N	0.082484	0.165389	0.535706
	N270	N	0.081485	0.805076	0.464060
	N271	N	0.905374	0.801382	0.535694
	N272	N	0.174325	0.446544	0.910509
	N273	N	0.173432	0.519488	0.082339
	N274	N	0.813085	0.448051	0.085996
	N275	N	0.813232	0.520387	0.911261
	O276	O	0.328251	0.594257	0.431387
	H277	H	0.332090	0.592302	0.422169
	H278	H	0.315413	0.596598	0.430929
	O279	O	0.494214	0.452060	0.605836
	H280	H	0.497728	0.466219	0.602845
	H281	H	0.500058	0.455377	0.602834
	O282	O	1.092948	0.033389	0.982978
	H283	H	1.095134	0.040705	0.984369
	H284	H	1.091655	0.032827	0.979041
	O285	O	0.646759	0.422251	0.581136
	H286	H	0.645859	0.426421	0.592839
	H287	H	0.644671	0.411675	0.591378
	O288	O	0.831146	0.801685	1.040181
	H289	H	0.838473	0.809023	1.049625
	H290	H	0.809351	0.786874	1.046640
	O291	O	0.042567	0.836332	0.126541
	H292	H	0.027326	0.834784	0.140328
	H293	H	0.056638	0.840989	0.125335
	O294	O	0.484682	0.645951	0.313043
	H295	H	0.480344	0.623181	0.312072
	H296	H	0.477187	0.654943	0.303785
	O297	O	0.693629	0.285694	0.442018
	H298	H	0.704209	0.289128	0.428143
	H299	H	0.704205	0.289975	0.452809
	O300	O	0.661918	0.592173	0.365483
	H301	H	0.657036	0.595408	0.372208
	H302	H	0.657066	0.565798	0.365458
	O303	O	0.461475	0.336148	0.578181
	H304	H	0.457649	0.331507	0.587738
	H305	H	0.468082	0.349633	0.582009
	O306	O	0.357675	0.545988	0.315882
	H307	H	0.362971	0.525411	0.307443
	H308	H	0.374872	0.539478	0.310446
	O309	O	0.371400	0.462169	0.617280
	H310	H	0.372276	0.484096	0.615188
	H311	H	0.375543	0.467566	0.619764
	O312	O	0.034871	-0.091149	-0.022205
	H313	H	0.020892	-0.094309	-0.015328
	H314	H	0.025196	-0.083344	-0.014446
	O315	O	0.369736	0.495798	0.489824
	H316	H	0.380097	0.489003	0.493340
	H317	H	0.375250	0.498688	0.472895
	O318	O	0.110200	0.943730	0.876503
	H319	H	0.110110	0.942075	0.880201
	H320	H	0.101069	0.947555	0.884734
	O321	O	0.583138	0.295460	0.360332
	H322	H	0.572686	0.293589	0.359173
	H323	H	0.580034	0.282789	0.362906
	O324	O	-0.102567	1.019554	0.080205
	H325	H	-0.113956	1.026032	0.067630
	H326	H	-0.091852	1.013938	0.083107
	O327	O	0.584615	0.516362	0.387393
	H328	H	0.608565	0.506423	0.373428
	H329	H	0.584603	0.490966	0.398778
	O330	O	-0.586389	0.635215	1.564881
	H331	H	-0.605755	0.611996	1.564624
	H332	H	-0.585852	0.637291	1.546599
	O333	O	-0.102803	-0.162865	1.125808
	H334	H	-0.103141	-0.166604	1.123219
	H335	H	-0.098379	-0.151631	1.114561
	O336	O	0.491859	0.506064	0.600470
	H337	H	0.499591	0.492815	0.612575
	H338	H	0.499954	0.529304	0.596080
	O339	O	1.027680	0.009956	0.048280
	H340	H	1.029908	0.018540	0.050908
	H341	H	1.025015	0.012016	0.059055
	O342	O	-0.029993	0.138200	0.086526
	H343	H	-0.023418	0.137347	0.081707
	H344	H	-0.028427	0.140235	0.077768
	O345	O	1.492386	0.678893	0.489866
	H346	H	1.475531	0.684289	0.480020
	H347	H	1.492708	0.688858	0.483806
	O348	O	1.487400	1.344143	0.643195
	H349	H	1.480095	1.336960	0.637704
	H350	H	1.482932	1.361842	0.643524
	O351	O	0.321623	0.402458	0.585146
	H352	H	0.320547	0.387029	0.602524
	H353	H	0.318903	0.401465	0.594015
	O354	O	0.879310	0.070407	0.860164
	H355	H	0.882406	0.058756	0.856000
	H356	H	0.873640	0.058322	0.856670
	O357	O	0.651395	0.463455	0.414562
	H358	H	0.659260	0.465253	0.417568
	H359	H	0.657110	0.451416	0.417109
	O360	O	0.689980	0.554749	0.525290
	H361	H	0.684600	0.535903	0.516002
	H362	H	0.682708	0.575654	0.523313
	O363	O	-0.014655	1.028027	0.940101
	H364	H	-0.009096	1.019967	0.934158
	H365	H	-0.022230	1.038186	0.932817
	O366	O	0.436377	0.449837	0.358950
	H367	H	0.452815	0.442154	0.348508
	H368	H	0.442280	0.447422	0.360311
	O369	O	-0.011374	0.978523	-0.079493
	H370	H	-0.001246	0.969762	-0.072888
	H371	H	-0.009417	0.972311	-0.087410
	O372	O	0.755549	0.206206	0.239300
	H373	H	0.751776	0.198641	0.216430
	H374	H	0.758069	0.191054	0.237576
	O375	O	0.381449	0.321149	0.564760
	H376	H	0.383219	0.316933	0.568821
	H377	H	0.379779	0.317992	0.561755
	O378	O	1.335919	1.153310	0.178737
	H379	H	1.329568	1.147777	0.188315
	H380	H	1.331136	1.151499	0.177397
	O381	O	1.005515	-0.142259	-0.040178
	H382	H	0.991079	-0.143762	-0.027595
	H383	H	1.009629	-0.143478	-0.047568
	O384	O	1.023656	0.921485	-0.005553
	H385	H	1.023001	0.904992	-0.014623
	H386	H	1.032821	0.927523	-0.007405
	O387	O	-0.161398	0.067215	0.091618
	H388	H	-0.156748	0.071315	0.075498
	H389	H	-0.151131	0.055105	0.087771
	O390	O	-0.036544	0.984303	0.132910
	H391	H	-0.037385	0.981409	0.122907
	H392	H	-0.045398	0.998869	0.136446
	O393	O	1.012418	0.935303	1.052706
	H394	H	1.005282	0.924278	1.053615
	H395	H	1.021756	0.923282	1.064914
	O396	O	0.469081	0.650548	0.603038
	H397	H	0.444635	0.651556	0.590618
	H398	H	0.460567	0.663739	0.618611
	O399	O	-0.069236	1.078972	0.953675
	H400	H	-0.063583	1.074261	0.959141
	H401	H	-0.063963	1.075497	0.948256
	O402	O	0.341902	0.359640	0.450868
	H403	H	0.347186	0.352395	0.457563
	H404	H	0.344381	0.347996	0.448237
	O405	O	0.962678	1.025782	-0.118673
	H406	H	0.973462	1.005641	-0.120384
	H407	H	0.959904	1.034884	-0.123521
	O408	O	0.986654	0.966964	0.068555
	H409	H	0.990891	0.954155	0.068237
	H410	H	0.992250	0.962005	0.072728
	O411	O	1.015448	0.030000	0.971986
	H412	H	1.016132	0.027307	0.969053
	H413	H	1.010849	0.034242	0.968838
	O414	O	0.684632	0.552997	0.673701
	H415	H	0.698756	0.555513	0.689806
	H416	H	0.680885	0.572953	0.671421
	O417	O	0.622686	0.669985	0.618598
	H418	H	0.634324	0.683002	0.588117
	H419	H	0.592956	0.671974	0.631492
