data_Molecule from HDF5

_cell_length_a		16.630527
_cell_length_b		16.597251
_cell_length_c		16.574193
_cell_angle_alpha	90.056457
_cell_angle_beta	90.087351
_cell_angle_gamma	90.033981
_symmetry_space_group_name_H-M	'P 1'
_symmetry_Int_Tables_number		1

loop_
	_symmetry_equiv_pos_as_xyz
	x,y,z

loop_
	_atom_site_label
	_atom_site_type_symbol
	_atom_site_fract_x
	_atom_site_fract_y
	_atom_site_fract_z
	H0	H	0.422258	0.830795	0.726547
	H1	H	0.634854	0.142081	0.727916
	H2	H	0.628630	0.828599	0.288241
	H3	H	0.426396	0.143721	0.286930
	H4	H	0.750629	0.379096	0.849025
	H5	H	0.749561	0.594067	0.158873
	H6	H	0.308147	0.588096	0.846862
	H7	H	0.306538	0.380505	0.161049
	H8	H	0.872351	0.706716	0.401722
	H9	H	0.184793	0.705459	0.608474
	H10	H	0.870838	0.266340	0.608958
	H11	H	0.184316	0.267822	0.402387
	H12	H	0.869907	0.383398	0.724349
	H13	H	0.185400	0.587667	0.723490
	H14	H	0.872679	0.592060	0.283846
	H15	H	0.183374	0.383356	0.285020
	H16	H	0.422521	0.706463	0.847795
	H17	H	0.631707	0.706692	0.160155
	H18	H	0.633836	0.264411	0.848065
	H19	H	0.425150	0.266335	0.161836
	H20	H	0.746518	0.829559	0.402872
	H21	H	0.751111	0.142218	0.612381
	H22	H	0.304200	0.831920	0.611791
	H23	H	0.308550	0.143705	0.401114
	H24	H	0.919316	0.332231	0.227755
	H25	H	0.132747	0.641719	0.226793
	H26	H	0.129109	0.329611	0.785653
	H27	H	0.921559	0.643610	0.783493
	H28	H	0.247778	0.880897	0.348623
	H29	H	0.249138	0.091017	0.660006
	H30	H	0.808387	0.089041	0.348082
	H31	H	0.806695	0.881861	0.662102
	H32	H	0.373362	0.207249	0.900138
	H33	H	0.683500	0.209092	0.112697
	H34	H	0.371136	0.766753	0.107300
	H35	H	0.680974	0.759763	0.895488
	H36	H	0.371534	0.883441	0.223426
	H37	H	0.683699	0.091381	0.227119
	H38	H	0.373744	0.091453	0.782281
	H39	H	0.682221	0.876440	0.779590
	H40	H	0.923651	0.205527	0.347872
	H41	H	0.130865	0.204908	0.662302
	H42	H	0.132962	0.763817	0.350282
	H43	H	0.923128	0.766858	0.663107
	H44	H	0.246160	0.329660	0.901255
	H45	H	0.250431	0.640818	0.112347
	H46	H	0.802936	0.333135	0.112565
	H47	H	0.804155	0.642404	0.897442
	H48	H	0.438252	0.097405	0.592512
	H49	H	0.616133	0.878660	0.585336
	H50	H	0.619122	0.098855	0.416589
	H51	H	0.438823	0.874114	0.413812
	H52	H	0.615713	0.405080	0.112815
	H53	H	0.617556	0.572402	0.891580
	H54	H	0.439816	0.581648	0.118021
	H55	H	0.438087	0.397094	0.893498
	H56	H	0.140130	0.576747	0.417315
	H57	H	0.917883	0.572666	0.593226
	H58	H	0.143645	0.397352	0.609444
	H59	H	0.914992	0.396007	0.415590
	H60	H	0.141778	0.383415	0.589233
	H61	H	0.914280	0.577339	0.600849
	H62	H	0.139079	0.574828	0.417686
	H63	H	0.915815	0.397074	0.417305
	H64	H	0.431574	0.574019	0.118605
	H65	H	0.612961	0.570836	0.894039
	H66	H	0.610750	0.394304	0.114738
	H67	H	0.438046	0.394629	0.892071
	H68	H	0.619019	0.099315	0.413905
	H69	H	0.621819	0.872795	0.594407
	H70	H	0.442642	0.097201	0.593854
	H71	H	0.433434	0.873039	0.416477
	H72	H	0.939570	0.597563	0.091490
	H73	H	0.122467	0.372242	0.092505
	H74	H	0.119884	0.600613	0.912761
	H75	H	0.933878	0.374403	0.918079
	H76	H	0.123649	0.902140	0.618108
	H77	H	0.122332	0.078197	0.390340
	H78	H	0.939262	0.078069	0.618132
	H79	H	0.938586	0.897122	0.395494
	H80	H	0.638507	0.073759	0.918014
	H81	H	0.415931	0.078903	0.092598
	H82	H	0.641089	0.891908	0.095538
	H83	H	0.418119	0.894093	0.923470
	H84	H	0.638659	0.897727	0.091077
	H85	H	0.416550	0.073233	0.095435
	H86	H	0.639319	0.073919	0.916662
	H87	H	0.421369	0.905961	0.917434
	H88	H	0.936705	0.076145	0.617713
	H89	H	0.116893	0.073863	0.393059
	H90	H	0.110237	0.903541	0.613022
	H91	H	0.938347	0.894389	0.393246
	H92	H	0.116289	0.598632	0.914483
	H93	H	0.112298	0.373704	0.099784
	H94	H	0.938630	0.598923	0.093622
	H95	H	0.938984	0.374558	0.910920
	H96	H	0.441034	0.096518	0.589642
	H97	H	0.610338	0.876325	0.595960
	H98	H	0.616565	0.098638	0.415334
	H99	H	0.434560	0.871472	0.410518
	H100	H	0.621974	0.396408	0.118458
	H101	H	0.613150	0.575746	0.891892
	H102	H	0.441531	0.571709	0.113835
	H103	H	0.435807	0.396465	0.892261
	H104	H	0.139041	0.574994	0.415213
	H105	H	0.915396	0.582046	0.592303
	H106	H	0.132894	0.405932	0.589584
	H107	H	0.915620	0.398078	0.415506
	H108	H	0.941020	0.597650	0.093985
	H109	H	0.112016	0.377715	0.087756
	H110	H	0.119913	0.599249	0.916755
	H111	H	0.942469	0.377955	0.918629
	H112	H	0.114684	0.891094	0.618555
	H113	H	0.115506	0.080813	0.391422
	H114	H	0.939805	0.074899	0.617243
	H115	H	0.935539	0.897178	0.392684
	H116	H	0.640268	0.074609	0.917804
	H117	H	0.414679	0.078599	0.099094
	H118	H	0.640249	0.898855	0.097987
	H119	H	0.414797	0.896351	0.910102
	C120	C	0.407136	-0.005298	0.625224
	C121	C	0.649501	0.978400	0.625891
	C122	C	0.648926	-0.004862	0.384332
	C123	C	0.405330	0.977432	0.382823
	C124	C	0.649576	0.364962	0.012981
	C125	C	0.647446	0.606218	0.995397
	C126	C	0.405710	0.607255	0.012877
	C127	C	0.406213	0.364285	0.996232
	C128	C	0.036474	0.607764	0.384243
	C129	C	1.019685	0.607612	0.626660
	C130	C	0.035508	0.364625	0.627209
	C131	C	1.019001	0.365761	0.384434
	C132	C	0.905724	0.495815	0.126505
	C133	C	0.148509	0.477253	0.126313
	C134	C	0.149028	0.495248	0.883545
	C135	C	0.906093	0.478869	0.883450
	C136	C	0.148469	0.866166	0.513597
	C137	C	0.149406	0.108431	0.495648
	C138	C	0.906710	0.107654	0.513756
	C139	C	0.905945	0.864466	0.497428
	C140	C	0.537041	0.106860	0.884396
	C141	C	0.519367	0.108358	0.127508
	C142	C	0.536451	0.864887	0.125755
	C143	C	0.519711	0.864393	0.883038
	C144	C	0.404146	0.877667	0.686107
	C145	C	0.652749	0.095209	0.687325
	C146	C	0.648393	0.876085	0.326990
	C147	C	0.406174	0.096216	0.325398
	C148	C	0.709925	0.361586	0.895718
	C149	C	0.708674	0.610520	0.112278
	C150	C	0.347242	0.607633	0.894241
	C151	C	0.346724	0.362307	0.114106
	C152	C	0.919060	0.666904	0.382854
	C153	C	0.137885	0.665752	0.627573
	C154	C	0.917751	0.305870	0.628147
	C155	C	0.137131	0.307145	0.383196
	C156	C	0.917475	0.364255	0.685472
	C157	C	0.137947	0.607571	0.684946
	C158	C	0.919432	0.609877	0.324286
	C159	C	0.136574	0.364423	0.324881
	C160	C	0.404220	0.666187	0.894675
	C161	C	0.650111	0.666923	0.112890
	C162	C	0.651781	0.304295	0.895477
	C163	C	0.405589	0.305554	0.114582
	C164	C	0.707057	0.876574	0.383842
	C165	C	0.710576	0.095497	0.629656
	C166	C	0.345490	0.878118	0.629034
	C167	C	0.347880	0.096257	0.382516
	C168	C	0.901373	0.379252	0.187871
	C169	C	0.151147	0.594654	0.186844
	C170	C	0.148858	0.376911	0.825016
	C171	C	0.903323	0.596301	0.822938
	C172	C	0.208132	0.863040	0.395893
	C173	C	0.209038	0.109594	0.613541
	C174	C	0.848067	0.107743	0.395139
	C175	C	0.846571	0.863162	0.615117
	C176	C	0.419996	0.167114	0.881598
	C177	C	0.636707	0.168533	0.130346
	C178	C	0.418290	0.806334	0.126527
	C179	C	0.635088	0.801309	0.878185
	C180	C	0.418528	0.864614	0.183928
	C181	C	0.636772	0.110091	0.187436
	C182	C	0.420088	0.109537	0.823350
	C183	C	0.635401	0.859155	0.820390
	C184	C	0.905154	0.165987	0.395118
	C185	C	0.150305	0.166226	0.614481
	C186	C	0.150980	0.804795	0.396680
	C187	C	0.904499	0.805703	0.615475
	C188	C	0.206917	0.376820	0.882467
	C189	C	0.209686	0.594142	0.129956
	C190	C	0.843592	0.379742	0.130213
	C191	C	0.845006	0.595852	0.879872
	C192	C	0.433025	0.075854	0.599271
	C193	C	0.623434	0.896954	0.599327
	C194	C	0.625171	0.077470	0.408314
	C195	C	0.428891	0.894503	0.406688
	C196	C	0.623616	0.390968	0.094357
	C197	C	0.621796	0.580406	0.913815
	C198	C	0.430347	0.582867	0.095276
	C199	C	0.430488	0.388787	0.913958
	C200	C	0.118047	0.582761	0.409599
	C201	C	0.937349	0.584134	0.602607
	C202	C	0.117989	0.388558	0.603038
	C203	C	0.936977	0.390023	0.409129
	C204	C	0.932073	0.576913	0.100321
	C205	C	0.122918	0.395667	0.100634
	C206	C	0.125387	0.577875	0.907662
	C207	C	0.931183	0.397112	0.908565
	C208	C	0.123353	0.891722	0.595348
	C209	C	0.125111	0.084548	0.413172
	C210	C	0.931372	0.083520	0.596048
	C211	C	0.930478	0.889038	0.415165
	C212	C	0.618221	0.081386	0.910163
	C213	C	0.437088	0.083931	0.102713
	C214	C	0.618654	0.889075	0.101457
	C215	C	0.439047	0.891219	0.909668
	Zn216	Zn	0.528418	-0.013888	0.754456
	Zn217	Zn	0.528026	-0.013944	0.255395
	Zn218	Zn	0.777516	0.487096	0.004013
	Zn219	Zn	0.277297	0.485716	0.005189
	Zn220	Zn	0.028082	0.736911	0.505706
	Zn221	Zn	0.027056	0.236311	0.505165
	Zn222	Zn	0.026816	0.486873	0.755714
	Zn223	Zn	0.027053	0.486467	0.255135
	Zn224	Zn	0.527297	0.735700	0.004462
	Zn225	Zn	0.528432	0.236115	0.005591
	Zn226	Zn	0.778244	-0.013564	0.505230
	Zn227	Zn	0.277340	-0.013537	0.504500
	N228	N	0.442014	0.951214	0.683918
	N229	N	0.615712	0.021383	0.685292
	N230	N	0.613012	0.950790	0.327040
	N231	N	0.441019	0.021180	0.325337
	N232	N	0.709070	0.398305	0.970008
	N233	N	0.707146	0.573445	0.038280
	N234	N	0.347888	0.571792	0.968932
	N235	N	0.346923	0.398064	0.039418
	N236	N	0.992927	0.665884	0.419542
	N237	N	0.063153	0.666341	0.592505
	N238	N	0.992229	0.305964	0.592544
	N239	N	0.062836	0.307465	0.419375
	N240	N	0.991818	0.400247	0.684933
	N241	N	0.063209	0.572362	0.684830
	N242	N	0.993518	0.573697	0.325063
	N243	N	0.062002	0.399776	0.325269
	N244	N	0.439703	0.666198	0.969581
	N245	N	0.612576	0.664599	0.039195
	N246	N	0.614922	0.306093	0.969654
	N247	N	0.441778	0.306448	0.040158
	N248	N	0.707678	0.951620	0.418750
	N249	N	0.708830	0.021521	0.592251
	N250	N	0.347182	0.951964	0.591978
	N251	N	0.346794	0.020992	0.417125
	N252	N	0.939309	0.452534	0.185832
	N253	N	0.113761	0.520889	0.184848
	N254	N	0.113681	0.451705	0.825278
	N255	N	0.940795	0.522549	0.825233
	N256	N	0.206757	0.900480	0.469722
	N257	N	0.208783	0.074582	0.538544
	N258	N	0.848586	0.072329	0.470024
	N259	N	0.847070	0.898850	0.540482
	N260	N	0.493595	0.165621	0.918833
	N261	N	0.562689	0.167504	0.093636
	N262	N	0.492912	0.806039	0.091215
	N263	N	0.561930	0.804351	0.916382
	N264	N	0.493019	0.900327	0.183674
	N265	N	0.562597	0.073566	0.186037
	N266	N	0.494024	0.072923	0.824666
	N267	N	0.562454	0.897747	0.823186
	N268	N	0.940814	0.166087	0.469829
	N269	N	0.114057	0.165979	0.540001
	N270	N	0.114520	0.806611	0.470844
	N271	N	0.940694	0.806339	0.541143
	N272	N	0.207214	0.451495	0.918025
	N273	N	0.208321	0.520082	0.093010
	N274	N	0.846099	0.453336	0.092611
	N275	N	0.846339	0.521765	0.916563
	O276	O	-0.218821	1.316692	0.245296
	H277	H	-0.198295	1.304659	0.223797
	H278	H	-0.210490	1.282341	0.247555
	O279	O	0.916227	0.911057	0.067078
	H280	H	0.904210	0.899946	0.070605
	H281	H	0.928804	0.900173	0.062966
	O282	O	0.718982	0.299785	0.554966
	H283	H	0.721805	0.285974	0.546644
	H284	H	0.707139	0.286658	0.575379
	O285	O	-0.093599	0.989595	1.146936
	H286	H	-0.104848	0.990539	1.148922
	H287	H	-0.076921	0.990887	1.147057
	O288	O	-0.186788	0.124048	0.911205
	H289	H	-0.170599	0.113163	0.932765
	H290	H	-0.183129	0.140780	0.922441
	O291	O	0.545370	0.494710	0.656823
	H292	H	0.534689	0.490657	0.657729
	H293	H	0.549907	0.480962	0.656611
	O294	O	0.449740	0.620332	0.513922
	H295	H	0.444372	0.601857	0.501172
	H296	H	0.461457	0.632949	0.506506
	O297	O	0.504748	0.444008	0.460823
	H298	H	0.502355	0.438272	0.461673
	H299	H	0.498032	0.438854	0.453473
	O300	O	-0.688647	0.499592	0.362555
	H301	H	-0.699449	0.503390	0.338024
	H302	H	-0.678422	0.515482	0.368615
	O303	O	0.314364	0.701876	0.490050
	H304	H	0.301950	0.704721	0.460259
	H305	H	0.308681	0.710724	0.468904
	O306	O	0.497098	0.485105	0.718333
	H307	H	0.502016	0.480567	0.723515
	H308	H	0.475689	0.486055	0.716485
	O309	O	0.473270	0.685726	0.288759
	H310	H	0.493401	0.675213	0.276026
	H311	H	0.484740	0.685031	0.285434
	O312	O	0.543834	0.427015	0.408898
	H313	H	0.542611	0.424926	0.413840
	H314	H	0.548644	0.418941	0.408969
	O315	O	0.767267	1.255607	0.741939
	H316	H	0.776439	1.256173	0.738157
	H317	H	0.767088	1.231451	0.749992
	O318	O	1.236377	0.140330	-0.016320
	H319	H	1.252100	0.147502	0.001857
	H320	H	1.232640	0.140638	0.000747
	O321	O	0.059702	1.211973	1.224832
	H322	H	0.061808	1.241507	1.249517
	H323	H	0.096569	1.206217	1.219271
	O324	O	0.995960	1.191748	0.012505
	H325	H	1.004015	1.193434	-0.008258
	H326	H	1.005358	1.193250	0.009227
	O327	O	0.098093	0.057008	0.789193
	H328	H	0.091796	0.031227	0.785912
	H329	H	0.092378	0.029589	0.779488
	O330	O	0.712509	0.680252	0.701629
	H331	H	0.676153	0.684704	0.689425
	H332	H	0.725054	0.627109	0.709190
	O333	O	0.066090	0.763537	0.780831
	H334	H	0.068113	0.750084	0.786427
	H335	H	0.063452	0.740085	0.770316
	O336	O	0.521652	0.327837	0.421753
	H337	H	0.510577	0.331569	0.410268
	H338	H	0.509855	0.326778	0.436890
	O339	O	0.979331	-0.023204	0.887885
	H340	H	0.976622	-0.039440	0.886104
	H341	H	0.964443	-0.036218	0.886995
	O342	O	0.241475	-0.044000	-0.211328
	H343	H	0.246150	-0.069589	-0.209652
	H344	H	0.263945	-0.051370	-0.218298
	O345	O	-0.634680	1.440837	1.510230
	H346	H	-0.608420	1.441521	1.511213
	H347	H	-0.649457	1.434948	1.508901
	O348	O	0.598794	0.360159	0.294203
	H349	H	0.609237	0.342695	0.277693
	H350	H	0.584123	0.360503	0.291721
	O351	O	1.166362	0.000303	1.065958
	H352	H	1.169670	-0.011884	1.048495
	H353	H	1.143898	-0.004399	1.066212
	O354	O	-0.076337	-0.206269	1.120759
	H355	H	-0.080357	-0.201037	1.135026
	H356	H	-0.079214	-0.195590	1.126549
	O357	O	0.564612	0.288008	0.304798
	H358	H	0.560735	0.295564	0.305630
	H359	H	0.579930	0.280606	0.321543
	O360	O	0.750801	0.707529	0.540232
	H361	H	0.775094	0.730038	0.541035
	H362	H	0.748420	0.709031	0.573323
	O363	O	-0.037158	-0.228900	-0.077507
	H364	H	-0.047887	-0.224954	-0.064848
	H365	H	-0.049965	-0.226122	-0.081326
	O366	O	0.374870	0.384222	0.394359
	H367	H	0.359945	0.399391	0.411454
	H368	H	0.370077	0.399026	0.383546
	O369	O	1.496980	0.267924	-0.279683
	H370	H	1.476092	0.252901	-0.269847
	H371	H	1.484053	0.257918	-0.270895
	O372	O	0.807538	1.016841	-0.213221
	H373	H	0.771757	1.021080	-0.242504
	H374	H	0.814073	1.018564	-0.188179
	O375	O	0.795057	-0.031493	-0.021404
	H376	H	0.790955	-0.035313	-0.009388
	H377	H	0.798074	-0.004330	-0.002495
	O378	O	-0.691251	0.263167	0.539840
	H379	H	-0.696952	0.264421	0.572133
	H380	H	-0.716226	0.242084	0.555796
	O381	O	0.043847	1.112015	0.991517
	H382	H	0.036526	1.099928	0.981244
	H383	H	0.049904	1.119708	0.982062
	O384	O	1.037132	-0.168738	0.922552
	H385	H	1.046825	-0.181537	0.923148
	H386	H	1.024394	-0.180734	0.917433
	O387	O	0.805099	1.209111	-0.020135
	H388	H	0.806830	1.221405	-0.034774
	H389	H	0.801507	1.234064	-0.017051
	O390	O	0.340101	0.291669	0.251261
	H391	H	0.359204	0.268289	0.255643
	H392	H	0.356563	0.318909	0.267693
	O393	O	0.991648	1.025859	0.203263
	H394	H	0.991012	1.040809	0.210215
	H395	H	1.010847	1.039465	0.185178
	O396	O	0.221788	1.179672	0.813715
	H397	H	0.201286	1.162702	0.827498
	H398	H	0.206482	1.153849	0.833321
	O399	O	-0.017703	-0.002175	0.989691
	H400	H	-0.021554	-0.021215	0.974393
	H401	H	-0.025803	0.014720	0.985967
	O402	O	0.817951	-0.091515	0.215543
	H403	H	0.802759	-0.107973	0.239042
	H404	H	0.823657	-0.082597	0.214425
	O405	O	0.841439	-0.203793	1.044188
	H406	H	0.823879	-0.224054	1.059629
	H407	H	0.844211	-0.196143	1.051075
	O408	O	0.252181	-0.022118	0.144850
	H409	H	0.257508	-0.029189	0.162130
	H410	H	0.242354	-0.024122	0.130008
	O411	O	0.662442	0.263449	0.525110
	H412	H	0.666907	0.256282	0.544113
	H413	H	0.649516	0.261666	0.505577
	O414	O	0.644455	0.551889	0.507716
	H415	H	0.647747	0.552513	0.513517
	H416	H	0.636343	0.553036	0.508143
	O417	O	-0.581498	0.554992	0.454189
	H418	H	-0.588388	0.558428	0.458274
	H419	H	-0.574871	0.548577	0.441379
	O420	O	-0.037951	1.139216	1.132789
	H421	H	-0.016028	1.159654	1.151087
	H422	H	-0.029730	1.118326	1.114952
	O423	O	0.227877	-0.007820	0.967418
	H424	H	0.228608	-0.001079	0.966105
	H425	H	0.220517	-0.001584	0.953065
	O426	O	0.310494	0.444354	0.724086
	H427	H	0.291971	0.458355	0.725254
	H428	H	0.306182	0.458183	0.717678
	O429	O	1.172752	1.036111	1.173517
	H430	H	1.179299	1.037716	1.177076
	H431	H	1.177340	1.041424	1.168388
	O432	O	0.236250	0.779865	0.796533
	H433	H	0.258474	0.758260	0.777581
	H434	H	0.214496	0.776768	0.813478
	O435	O	-0.246374	0.713216	0.280676
	H436	H	-0.269540	0.689648	0.303132
	H437	H	-0.246766	0.700861	0.292130
	O438	O	-0.418472	0.527727	-0.695961
	H439	H	-0.398529	0.519070	-0.691554
	H440	H	-0.412268	0.512222	-0.675440
	O441	O	0.218314	-0.201915	0.188966
	H442	H	0.209046	-0.178272	0.166045
	H443	H	0.187275	-0.191538	0.176887
	O444	O	0.497183	0.655226	0.598828
	H445	H	0.507879	0.665099	0.586130
	H446	H	0.487764	0.655231	0.580914
	O447	O	0.083630	0.803286	1.097586
	H448	H	0.058162	0.795378	1.089394
	H449	H	0.083912	0.800971	1.107007
	O450	O	0.050184	0.858365	1.092449
	H451	H	0.034177	0.864998	1.087095
	H452	H	0.031197	0.837036	1.099382
	O453	O	0.316497	-0.300473	1.293455
	H454	H	0.286924	-0.268619	1.257831
	H455	H	0.360016	-0.301049	1.284910
	O456	O	-0.005860	0.204528	0.790068
	H457	H	0.006798	0.212897	0.789959
	H458	H	0.000322	0.200350	0.771842
	O459	O	0.242204	0.203605	0.126613
	H460	H	0.263949	0.225553	0.142503
	H461	H	0.241441	0.192380	0.144218
	O462	O	0.707673	0.496101	0.358447
	H463	H	0.723216	0.479438	0.359185
	H464	H	0.713335	0.466923	0.359826
	O465	O	0.839197	-0.140004	-0.126152
	H466	H	0.812093	-0.156477	-0.131359
	H467	H	0.826795	-0.114309	-0.108564
	O468	O	0.375567	0.684515	0.658763
	H469	H	0.373153	0.676428	0.637620
	H470	H	0.392873	0.674118	0.656522
	O471	O	0.700496	0.581756	0.388511
	H472	H	0.700980	0.572449	0.397557
	H473	H	0.700907	0.567590	0.410125
	O474	O	0.658573	0.391996	0.542405
	H475	H	0.653410	0.390326	0.530654
	H476	H	0.669192	0.394800	0.544785
	O477	O	0.246406	-0.231201	0.973336
	H478	H	0.255304	-0.237083	0.968340
	H479	H	0.250638	-0.238368	0.968784
	O480	O	0.734282	0.517031	0.716195
	H481	H	0.733520	0.500592	0.721007
	H482	H	0.741237	0.496134	0.738132
	O483	O	0.322400	1.277549	-0.289220
	H484	H	0.288544	1.248620	-0.254485
	H485	H	0.322574	1.321594	-0.282331
	O486	O	0.480473	0.391469	0.408121
	H487	H	0.472918	0.391888	0.428153
	H488	H	0.504272	0.393103	0.414126
	O489	O	1.549910	0.695699	-0.288657
	H490	H	1.557891	0.686675	-0.295337
	H491	H	1.539936	0.715574	-0.293066
