data_Molecule from HDF5

_cell_length_a		16.177278
_cell_length_b		16.248720
_cell_length_c		16.350416
_cell_angle_alpha	90.622706
_cell_angle_beta	90.527911
_cell_angle_gamma	90.232021
_symmetry_space_group_name_H-M	'P 1'
_symmetry_Int_Tables_number		1

loop_
	_symmetry_equiv_pos_as_xyz
	x,y,z

loop_
	_atom_site_label
	_atom_site_type_symbol
	_atom_site_fract_x
	_atom_site_fract_y
	_atom_site_fract_z
	H0	H	0.398783	0.836538	0.707187
	H1	H	0.598896	0.163811	0.714968
	H2	H	0.596958	0.839076	0.278169
	H3	H	0.396381	0.165078	0.280555
	H4	H	0.710966	0.401109	0.831897
	H5	H	0.715114	0.601404	0.159652
	H6	H	0.281753	0.598019	0.833091
	H7	H	0.285487	0.403123	0.159298
	H8	H	0.831794	0.710835	0.398718
	H9	H	0.161615	0.718294	0.598037
	H10	H	0.833171	0.288516	0.591391
	H11	H	0.161351	0.284778	0.397335
	H12	H	0.833729	0.402736	0.709308
	H13	H	0.161634	0.605190	0.713994
	H14	H	0.835196	0.599439	0.279329
	H15	H	0.162737	0.399937	0.282180
	H16	H	0.398761	0.713637	0.832429
	H17	H	0.602312	0.721453	0.157490
	H18	H	0.596001	0.283035	0.832739
	H19	H	0.400892	0.287907	0.158741
	H20	H	0.707757	0.836841	0.399007
	H21	H	0.713607	0.165500	0.598608
	H22	H	0.283804	0.836286	0.590342
	H23	H	0.282979	0.166247	0.398437
	H24	H	0.899363	0.337131	0.208747
	H25	H	0.103672	0.663266	0.217094
	H26	H	0.099338	0.339723	0.777617
	H27	H	0.897734	0.665359	0.782657
	H28	H	0.209040	0.901515	0.332015
	H29	H	0.213578	0.100960	0.658822
	H30	H	0.781370	0.096878	0.332862
	H31	H	0.783776	0.904535	0.659975
	H32	H	0.333427	0.211999	0.898260
	H33	H	0.662345	0.216819	0.096842
	H34	H	0.333835	0.786313	0.091124
	H35	H	0.663179	0.787655	0.898774
	H36	H	0.332218	0.902449	0.206564
	H37	H	0.661004	0.104034	0.214527
	H38	H	0.334622	0.099841	0.780084
	H39	H	0.662247	0.902332	0.782725
	H40	H	0.894801	0.215622	0.333618
	H41	H	0.099425	0.219692	0.658538
	H42	H	0.092569	0.783599	0.333362
	H43	H	0.898824	0.787022	0.659751
	H44	H	0.208744	0.336036	0.898546
	H45	H	0.214593	0.665291	0.097113
	H46	H	0.784203	0.337272	0.091426
	H47	H	0.783729	0.664777	0.899075
	H48	H	0.404331	0.117667	0.587730
	H49	H	0.594994	0.881001	0.594888
	H50	H	0.582494	0.116769	0.406267
	H51	H	0.395436	0.885302	0.407682
	H52	H	0.594239	0.402317	0.114501
	H53	H	0.598801	0.587964	0.878987
	H54	H	0.405802	0.592125	0.111237
	H55	H	0.401156	0.410890	0.880721
	H56	H	0.116205	0.598272	0.409487
	H57	H	0.876086	0.613134	0.583598
	H58	H	0.113972	0.416363	0.590695
	H59	H	0.884748	0.412550	0.406816
	H60	H	0.116957	0.407981	0.591202
	H61	H	0.887666	0.580560	0.578433
	H62	H	0.112981	0.588923	0.409929
	H63	H	0.880554	0.412122	0.394985
	H64	H	0.410954	0.596525	0.110985
	H65	H	0.583053	0.589091	0.883145
	H66	H	0.598504	0.414506	0.110984
	H67	H	0.408900	0.403488	0.880642
	H68	H	0.593851	0.117836	0.409969
	H69	H	0.582877	0.885900	0.590236
	H70	H	0.406116	0.118622	0.593339
	H71	H	0.401251	0.880907	0.389896
	H72	H	0.912572	0.617705	0.094897
	H73	H	0.099397	0.380052	0.093858
	H74	H	0.080154	0.614456	0.909740
	H75	H	0.902208	0.381625	0.894338
	H76	H	0.096555	0.913571	0.612509
	H77	H	0.093557	0.087435	0.380508
	H78	H	0.909492	0.093103	0.609359
	H79	H	0.904485	0.901782	0.380052
	H80	H	0.616586	0.094063	0.905404
	H81	H	0.380809	0.092205	0.090489
	H82	H	0.614696	0.911909	0.091503
	H83	H	0.376516	0.893888	0.899757
	H84	H	0.615296	0.909444	0.089553
	H85	H	0.379081	0.097104	0.090081
	H86	H	0.615038	0.092065	0.906935
	H87	H	0.385916	0.911594	0.912483
	H88	H	0.907439	0.101678	0.613019
	H89	H	0.081912	0.092180	0.382505
	H90	H	0.086099	0.911832	0.610601
	H91	H	0.898476	0.904149	0.378583
	H92	H	0.101798	0.619657	0.913089
	H93	H	0.082602	0.385485	0.093629
	H94	H	0.910398	0.615589	0.084659
	H95	H	0.914421	0.387288	0.899151
	H96	H	0.409903	0.116180	0.589583
	H97	H	0.593795	0.886118	0.582119
	H98	H	0.591066	0.120596	0.399097
	H99	H	0.413104	0.888774	0.401817
	H100	H	0.586209	0.410954	0.109495
	H101	H	0.591225	0.602945	0.877040
	H102	H	0.405563	0.598059	0.113129
	H103	H	0.398745	0.401229	0.876586
	H104	H	0.116022	0.592506	0.401874
	H105	H	0.876146	0.589995	0.608570
	H106	H	0.113245	0.411242	0.584325
	H107	H	0.878874	0.401946	0.402241
	H108	H	0.903257	0.619415	0.090394
	H109	H	0.092063	0.386716	0.079675
	H110	H	0.092507	0.622446	0.893149
	H111	H	0.903456	0.385097	0.908007
	H112	H	0.092496	0.903910	0.614018
	H113	H	0.090852	0.099187	0.377598
	H114	H	0.900562	0.094543	0.612819
	H115	H	0.902513	0.907802	0.382154
	H116	H	0.615479	0.091722	0.904429
	H117	H	0.380994	0.094831	0.085731
	H118	H	0.614070	0.912157	0.088706
	H119	H	0.379853	0.915171	0.890119
	C120	C	0.377424	0.008934	0.616757
	C121	C	0.620049	0.992586	0.619028
	C122	C	0.617588	0.010103	0.375587
	C123	C	0.374496	0.993315	0.372689
	C124	C	0.620239	0.379131	0.003778
	C125	C	0.621120	0.623659	0.987458
	C126	C	0.377546	0.622354	0.003896
	C127	C	0.375813	0.378410	0.987492
	C128	C	0.006646	0.621495	0.376415
	C129	C	0.988913	0.624297	0.619457
	C130	C	0.006234	0.382353	0.616657
	C131	C	0.989322	0.378996	0.373362
	C132	C	0.878723	0.509251	0.116962
	C133	C	0.121621	0.492258	0.119181
	C134	C	0.119634	0.510518	0.875181
	C135	C	0.876872	0.493012	0.873446
	C136	C	0.118540	0.879636	0.504263
	C137	C	0.119426	0.123754	0.487306
	C138	C	0.875502	0.123596	0.504325
	C139	C	0.874658	0.878177	0.488394
	C140	C	0.507020	0.121007	0.875820
	C141	C	0.488839	0.124209	0.118537
	C142	C	0.505977	0.881256	0.116889
	C143	C	0.489319	0.878423	0.873434
	C144	C	0.378567	0.885589	0.670055
	C145	C	0.618831	0.115353	0.676190
	C146	C	0.616231	0.887382	0.317871
	C147	C	0.376740	0.116500	0.318612
	C148	C	0.674091	0.380447	0.880878
	C149	C	0.677669	0.621991	0.110309
	C150	C	0.320846	0.618498	0.881444
	C151	C	0.322452	0.382614	0.110202
	C152	C	0.881737	0.674369	0.378232
	C153	C	0.112375	0.680554	0.618038
	C154	C	0.882444	0.326233	0.612875
	C155	C	0.112701	0.322884	0.376607
	C156	C	0.882662	0.383057	0.671369
	C157	C	0.112450	0.623952	0.675566
	C158	C	0.883461	0.619324	0.318676
	C159	C	0.113374	0.380021	0.319267
	C160	C	0.379092	0.675847	0.881176
	C161	C	0.620934	0.681329	0.109571
	C162	C	0.616516	0.322024	0.881160
	C163	C	0.379957	0.325319	0.110026
	C164	C	0.671458	0.886353	0.377799
	C165	C	0.675876	0.116043	0.618351
	C166	C	0.321673	0.885203	0.611510
	C167	C	0.320005	0.116825	0.376997
	C168	C	0.879721	0.386116	0.170923
	C169	C	0.122242	0.614790	0.177437
	C170	C	0.118005	0.387811	0.817436
	C171	C	0.878591	0.616308	0.819944
	C172	C	0.171991	0.880869	0.381118
	C173	C	0.175966	0.122103	0.609941
	C174	C	0.819078	0.118590	0.381698
	C175	C	0.821114	0.883248	0.611171
	C176	C	0.382820	0.175065	0.877609
	C177	C	0.612744	0.179726	0.117281
	C178	C	0.382572	0.824516	0.112435
	C179	C	0.613717	0.824878	0.877877
	C180	C	0.381786	0.882448	0.169810
	C181	C	0.612283	0.123426	0.175394
	C182	C	0.383342	0.119214	0.818938
	C183	C	0.613189	0.881228	0.819788
	C184	C	0.875661	0.177649	0.381981
	C185	C	0.118953	0.180748	0.609924
	C186	C	0.114374	0.822217	0.381740
	C187	C	0.878143	0.824706	0.611191
	C188	C	0.172546	0.385990	0.877455
	C189	C	0.177526	0.615701	0.117825
	C190	C	0.822751	0.386017	0.112462
	C191	C	0.821656	0.616105	0.877638
	C192	C	0.400281	0.095181	0.596333
	C193	C	0.597209	0.906564	0.596012
	C194	C	0.595523	0.096017	0.398355
	C195	C	0.396742	0.907211	0.393517
	C196	C	0.599061	0.402458	0.089472
	C197	C	0.597862	0.600173	0.901873
	C198	C	0.400743	0.601582	0.089601
	C199	C	0.396627	0.399047	0.901558
	C200	C	0.092619	0.599540	0.400013
	C201	C	0.902183	0.601401	0.596786
	C202	C	0.092483	0.405134	0.595161
	C203	C	0.903753	0.402297	0.394845
	C204	C	0.901857	0.595209	0.096131
	C205	C	0.098156	0.406265	0.095933
	C206	C	0.098167	0.596499	0.898529
	C207	C	0.899924	0.406943	0.894243
	C208	C	0.097825	0.902816	0.590068
	C209	C	0.095439	0.100017	0.402221
	C210	C	0.899062	0.102739	0.589812
	C211	C	0.895702	0.898375	0.402491
	C212	C	0.593428	0.099021	0.898789
	C213	C	0.402530	0.101446	0.095510
	C214	C	0.592395	0.904436	0.096163
	C215	C	0.402939	0.900289	0.894378
	Zn216	Zn	0.498058	0.000327	0.746965
	Zn217	Zn	0.497008	0.002506	0.245376
	Zn218	Zn	0.749743	0.501147	-0.004708
	Zn219	Zn	0.248213	0.500594	-0.003617
	Zn220	Zn	-0.003129	0.749810	0.497008
	Zn221	Zn	-0.002552	0.252469	0.495539
	Zn222	Zn	-0.001477	0.502412	0.746096
	Zn223	Zn	-0.000677	0.500825	0.246721
	Zn224	Zn	0.498840	0.752240	-0.004453
	Zn225	Zn	0.497801	0.250225	-0.004279
	Zn226	Zn	0.747001	0.001515	0.496671
	Zn227	Zn	0.248003	0.001469	0.495539
	N228	N	0.412392	0.963298	0.673490
	N229	N	0.585112	0.037486	0.677051
	N230	N	0.583368	0.965251	0.316367
	N231	N	0.409745	0.038489	0.315580
	N232	N	0.676512	0.415291	0.957998
	N233	N	0.677812	0.586694	0.033214
	N234	N	0.319723	0.586005	0.958795
	N235	N	0.319830	0.415033	0.032837
	N236	N	0.959372	0.676074	0.413178
	N237	N	0.034494	0.680662	0.583589
	N238	N	0.960168	0.325666	0.579499
	N239	N	0.034887	0.322108	0.409603
	N240	N	0.960623	0.417107	0.673602
	N241	N	0.034513	0.589796	0.676773
	N242	N	0.962019	0.587158	0.317428
	N243	N	0.035787	0.414191	0.317028
	N244	N	0.413516	0.678408	0.958385
	N245	N	0.586807	0.682556	0.032323
	N246	N	0.584079	0.320821	0.958677
	N247	N	0.412469	0.322492	0.032637
	N248	N	0.672476	0.963622	0.412945
	N249	N	0.676685	0.038716	0.583380
	N250	N	0.320865	0.963228	0.579154
	N251	N	0.318571	0.039309	0.409845
	N252	N	0.914066	0.463822	0.173694
	N253	N	0.088133	0.537038	0.178307
	N254	N	0.086113	0.466225	0.815654
	N255	N	0.912160	0.538597	0.817090
	N256	N	0.174622	0.915714	0.458247
	N257	N	0.176138	0.087101	0.532872
	N258	N	0.819000	0.085534	0.458756
	N259	N	0.818505	0.915453	0.533654
	N260	N	0.460633	0.176510	0.911942
	N261	N	0.534936	0.180303	0.082339
	N262	N	0.460766	0.823777	0.080197
	N263	N	0.535548	0.823045	0.910432
	N264	N	0.459677	0.916953	0.172667
	N265	N	0.534256	0.089484	0.176165
	N266	N	0.461677	0.086417	0.817685
	N267	N	0.534988	0.914031	0.817064
	N268	N	0.910061	0.180809	0.459244
	N269	N	0.084637	0.182012	0.532578
	N270	N	0.081928	0.821476	0.459226
	N271	N	0.910665	0.821265	0.533831
	N272	N	0.173866	0.463208	0.912741
	N273	N	0.177549	0.538426	0.082527
	N274	N	0.822299	0.463434	0.079513
	N275	N	0.820773	0.538459	0.910297
	O276	O	0.042230	0.056291	0.042965
	H277	H	0.046249	0.063902	0.045565
	H278	H	0.058253	0.049843	0.044923
	O279	O	0.469876	0.458319	0.485031
	H280	H	0.471106	0.459566	0.494796
	H281	H	0.466833	0.451444	0.487551
	O282	O	0.467206	0.555886	0.434487
	H283	H	0.447594	0.554222	0.427200
	H284	H	0.480437	0.554174	0.444175
	O285	O	0.016290	0.933266	0.952500
	H286	H	0.013193	0.930130	0.947348
	H287	H	0.016935	0.932594	0.950717
	O288	O	0.448915	0.497897	0.426527
	H289	H	0.442101	0.499252	0.426799
	H290	H	0.450043	0.506169	0.416318
	O291	O	0.912912	1.090595	0.939695
	H292	H	0.908901	1.095564	0.947302
	H293	H	0.910118	1.095773	0.944705
	O294	O	1.037322	0.985962	1.031814
	H295	H	1.044388	0.981188	1.032619
	H296	H	1.035127	0.992516	1.038440
	O297	O	1.024917	-0.034091	0.932791
	H298	H	1.017960	-0.039020	0.929927
	H299	H	1.026536	-0.029042	0.931654
	O300	O	0.396450	0.427206	0.551115
	H301	H	0.380314	0.430114	0.555985
	H302	H	0.398696	0.447556	0.552189
	O303	O	0.960539	-0.007909	0.059187
	H304	H	0.965323	-0.005990	0.053644
	H305	H	0.962548	-0.007061	0.063703
	O306	O	-0.017631	1.038554	0.979845
	H307	H	-0.022772	1.041383	0.985606
	H308	H	-0.012213	1.029398	0.983761
	O309	O	0.499217	0.503555	0.497198
	H310	H	0.504154	0.505639	0.497927
	H311	H	0.500976	0.503612	0.494554
	O312	O	1.010653	0.045558	0.899734
	H313	H	1.001995	0.046091	0.900333
	H314	H	1.012413	0.055793	0.895787
	O315	O	0.492845	0.487876	0.446156
	H316	H	0.495510	0.485870	0.442877
	H317	H	0.490805	0.485056	0.444829
	O318	O	0.484312	0.545347	0.570635
	H319	H	0.488624	0.540992	0.565876
	H320	H	0.483096	0.531212	0.570217
	O321	O	0.925461	1.007189	1.045394
	H322	H	0.931033	1.012402	1.050059
	H323	H	0.926793	0.998056	1.054045
	O324	O	0.471996	0.441731	0.517047
	H325	H	0.483953	0.430661	0.520352
	H326	H	0.476396	0.445619	0.519408
	O327	O	0.549710	0.476382	0.535356
	H328	H	0.562328	0.493988	0.532936
	H329	H	0.542808	0.469079	0.548635
	O330	O	1.072279	-0.054610	0.974133
	H331	H	1.074110	-0.055249	0.970554
	H332	H	1.080600	-0.057244	0.957938
	O333	O	0.918983	0.940897	-0.049353
	H334	H	0.918107	0.955151	-0.053602
	H335	H	0.918025	0.941501	-0.053819
	O336	O	0.486594	0.532150	0.523583
	H337	H	0.489893	0.537111	0.522406
	H338	H	0.500324	0.544620	0.530126
	O339	O	0.586893	0.466951	0.489190
	H340	H	0.593746	0.480752	0.488344
	H341	H	0.581462	0.453891	0.494412
	O342	O	0.019380	0.892672	0.024891
	H343	H	0.021443	0.894053	0.030336
	H344	H	0.029111	0.893508	0.020172
	O345	O	-0.045162	0.021526	0.017387
	H346	H	-0.051916	0.016260	0.023531
	H347	H	-0.037087	0.024526	0.023705
	O348	O	0.478030	0.446894	0.420364
	H349	H	0.481936	0.455942	0.413973
	H350	H	0.480391	0.442358	0.412590
	O351	O	0.497437	0.609635	0.539803
	H352	H	0.490139	0.616643	0.542352
	H353	H	0.498910	0.612683	0.528993
	O354	O	0.585054	0.625194	0.566469
	H355	H	0.577531	0.624304	0.563996
	H356	H	0.586435	0.641531	0.562989
	O357	O	0.462217	0.460024	0.362448
	H358	H	0.470558	0.450315	0.365452
	H359	H	0.464658	0.468365	0.360817
	O360	O	0.087994	0.086834	0.137746
	H361	H	0.096114	0.089095	0.138272
	H362	H	0.084098	0.080676	0.136606
	O363	O	0.468343	0.589385	0.490630
	H364	H	0.472527	0.586325	0.492784
	H365	H	0.464661	0.589716	0.495825
	O366	O	-0.006054	0.047934	1.057272
	H367	H	-0.009804	0.051389	1.056672
	H368	H	-0.003671	0.051540	1.060363
	O369	O	0.467008	0.464417	0.562829
	H370	H	0.458252	0.456414	0.554325
	H371	H	0.476623	0.467426	0.578985
