data_Molecule from HDF5

_cell_length_a		16.284892
_cell_length_b		16.391283
_cell_length_c		16.209023
_cell_angle_alpha	90.074060
_cell_angle_beta	90.013906
_cell_angle_gamma	90.084961
_symmetry_space_group_name_H-M	'P 1'
_symmetry_Int_Tables_number		1

loop_
	_symmetry_equiv_pos_as_xyz
	x,y,z

loop_
	_atom_site_label
	_atom_site_type_symbol
	_atom_site_fract_x
	_atom_site_fract_y
	_atom_site_fract_z
	H0	H	0.401896	0.850390	0.714933
	H1	H	0.598436	0.176254	0.717068
	H2	H	0.597633	0.850845	0.285845
	H3	H	0.402107	0.176721	0.286411
	H4	H	0.712465	0.415212	0.835751
	H5	H	0.713138	0.611312	0.165283
	H6	H	0.286081	0.610959	0.836261
	H7	H	0.285583	0.415204	0.165366
	H8	H	0.836166	0.728576	0.401720
	H9	H	0.162257	0.730888	0.602249
	H10	H	0.836569	0.297645	0.601954
	H11	H	0.162045	0.297499	0.398437
	H12	H	0.835361	0.416436	0.714018
	H13	H	0.163775	0.611530	0.714546
	H14	H	0.835977	0.610803	0.287040
	H15	H	0.163770	0.418367	0.288734
	H16	H	0.401006	0.727898	0.836989
	H17	H	0.599619	0.729660	0.163814
	H18	H	0.598141	0.298377	0.837116
	H19	H	0.398934	0.298154	0.164250
	H20	H	0.715166	0.851147	0.401796
	H21	H	0.715428	0.176096	0.600596
	H22	H	0.283990	0.851211	0.598818
	H23	H	0.283786	0.175649	0.399984
	H24	H	0.902291	0.351065	0.215239
	H25	H	0.097912	0.677279	0.214730
	H26	H	0.097443	0.350196	0.786301
	H27	H	0.903131	0.677211	0.787497
	H28	H	0.211605	0.916860	0.335842
	H29	H	0.213655	0.111826	0.665340
	H30	H	0.786053	0.111102	0.336107
	H31	H	0.785653	0.916608	0.665699
	H32	H	0.335769	0.229157	0.900796
	H33	H	0.662373	0.230234	0.101273
	H34	H	0.336456	0.797830	0.099942
	H35	H	0.662229	0.798128	0.899678
	H36	H	0.335419	0.917049	0.213629
	H37	H	0.663563	0.111084	0.214487
	H38	H	0.335321	0.109937	0.787029
	H39	H	0.663534	0.917412	0.788341
	H40	H	0.899915	0.228760	0.337134
	H41	H	0.097822	0.228614	0.665099
	H42	H	0.097144	0.800041	0.336839
	H43	H	0.900181	0.799769	0.665448
	H44	H	0.216031	0.351657	0.901513
	H45	H	0.214536	0.676590	0.098497
	H46	H	0.784904	0.351391	0.098987
	H47	H	0.784472	0.676607	0.901677
	H48	H	0.406708	0.132510	0.605710
	H49	H	0.598572	0.897081	0.592834
	H50	H	0.591376	0.128747	0.406961
	H51	H	0.399237	0.895357	0.403281
	H52	H	0.583524	0.436669	0.110290
	H53	H	0.583344	0.607010	0.885487
	H54	H	0.411422	0.613131	0.118750
	H55	H	0.406728	0.422878	0.884278
	H56	H	0.113486	0.605846	0.414069
	H57	H	0.888653	0.598233	0.585750
	H58	H	0.118426	0.420599	0.601768
	H59	H	0.879478	0.418464	0.399093
	H60	H	0.115668	0.413573	0.586924
	H61	H	0.880532	0.604937	0.606064
	H62	H	0.117163	0.605750	0.403464
	H63	H	0.883814	0.413855	0.417057
	H64	H	0.400371	0.606503	0.120104
	H65	H	0.596728	0.613198	0.880341
	H66	H	0.582500	0.404722	0.119893
	H67	H	0.410497	0.422155	0.885342
	H68	H	0.593370	0.128478	0.409981
	H69	H	0.591571	0.896844	0.598526
	H70	H	0.417904	0.124079	0.588166
	H71	H	0.412529	0.898443	0.403901
	H72	H	0.912241	0.627668	0.093916
	H73	H	0.087237	0.401598	0.090821
	H74	H	0.097676	0.629454	0.909930
	H75	H	0.909053	0.403050	0.918766
	H76	H	0.099125	0.920594	0.620300
	H77	H	0.090538	0.111975	0.382524
	H78	H	0.918145	0.111006	0.615445
	H79	H	0.910775	0.919183	0.385327
	H80	H	0.619069	0.118208	0.908023
	H81	H	0.383670	0.104069	0.094116
	H82	H	0.610701	0.929822	0.086467
	H83	H	0.381175	0.915116	0.908397
	H84	H	0.618707	0.922495	0.105290
	H85	H	0.381692	0.109957	0.097407
	H86	H	0.610651	0.103780	0.919349
	H87	H	0.384751	0.920624	0.912847
	H88	H	0.899480	0.114246	0.622273
	H89	H	0.096900	0.105557	0.383121
	H90	H	0.089534	0.928195	0.615351
	H91	H	0.904176	0.917598	0.382271
	H92	H	0.093098	0.630549	0.903142
	H93	H	0.101516	0.397084	0.091401
	H94	H	0.902869	0.629080	0.088750
	H95	H	0.893767	0.394097	0.905283
	H96	H	0.396488	0.129741	0.586041
	H97	H	0.590255	0.900191	0.590375
	H98	H	0.594819	0.129651	0.406672
	H99	H	0.405349	0.900546	0.414889
	H100	H	0.610999	0.422254	0.122629
	H101	H	0.596169	0.598930	0.885008
	H102	H	0.411403	0.600748	0.115047
	H103	H	0.407605	0.419436	0.884186
	H104	H	0.117471	0.614559	0.409042
	H105	H	0.881028	0.619018	0.588451
	H106	H	0.112381	0.429209	0.588964
	H107	H	0.887501	0.431060	0.410841
	H108	H	0.903359	0.631865	0.099389
	H109	H	0.092507	0.395529	0.103340
	H110	H	0.089568	0.626901	0.909539
	H111	H	0.913893	0.397145	0.897812
	H112	H	0.087133	0.915734	0.618675
	H113	H	0.088668	0.103971	0.385560
	H114	H	0.905094	0.096664	0.614987
	H115	H	0.905672	0.924420	0.385087
	H116	H	0.615636	0.100210	0.900821
	H117	H	0.383665	0.109828	0.090267
	H118	H	0.618468	0.909696	0.087989
	H119	H	0.383089	0.922487	0.904605
	C120	C	0.378042	0.021530	0.622190
	C121	C	0.621471	1.005548	0.622756
	C122	C	0.621505	0.021712	0.379103
	C123	C	0.377713	1.005470	0.378452
	C124	C	0.620900	0.392457	0.009180
	C125	C	0.621154	0.635324	0.991905
	C126	C	0.378909	0.634869	0.009225
	C127	C	0.378604	0.392936	0.992780
	C128	C	0.008201	0.636384	0.379781
	C129	C	0.991304	0.635846	0.622420
	C130	C	0.007577	0.392514	0.621855
	C131	C	0.991445	0.392776	0.379555
	C132	C	0.877940	0.522029	0.122508
	C133	C	0.121802	0.505674	0.122605
	C134	C	0.121978	0.521606	0.878608
	C135	C	0.877402	0.505968	0.878532
	C136	C	0.120604	0.892701	0.509439
	C137	C	0.121228	0.135993	0.492313
	C138	C	0.878753	0.135053	0.508960
	C139	C	0.878356	0.892655	0.492758
	C140	C	0.507488	0.135607	0.879722
	C141	C	0.491147	0.136027	0.122664
	C142	C	0.507819	0.892061	0.122061
	C143	C	0.491046	0.891616	0.879549
	C144	C	0.381003	0.899082	0.677024
	C145	C	0.618810	0.127826	0.678709
	C146	C	0.618803	0.899416	0.323510
	C147	C	0.381063	0.127953	0.323604
	C148	C	0.675267	0.394781	0.885217
	C149	C	0.675531	0.632138	0.116100
	C150	C	0.323811	0.631574	0.885428
	C151	C	0.323388	0.395253	0.116235
	C152	C	0.884908	0.690940	0.381566
	C153	C	0.113990	0.692056	0.621523
	C154	C	0.884931	0.336569	0.620913
	C155	C	0.113765	0.336710	0.380249
	C156	C	0.884533	0.395492	0.676840
	C157	C	0.114620	0.632818	0.677412
	C158	C	0.884797	0.632405	0.324649
	C159	C	0.114798	0.396784	0.325405
	C160	C	0.380826	0.689707	0.885687
	C161	C	0.619606	0.691300	0.115274
	C162	C	0.618567	0.336583	0.885813
	C163	C	0.379880	0.337077	0.115816
	C164	C	0.677076	0.899631	0.380989
	C165	C	0.676971	0.127793	0.620818
	C166	C	0.321955	0.899610	0.619830
	C167	C	0.322549	0.127646	0.380491
	C168	C	0.881101	0.399672	0.177584
	C169	C	0.118778	0.628606	0.177142
	C170	C	0.118433	0.399259	0.823828
	C171	C	0.881392	0.628335	0.824360
	C172	C	0.174722	0.895965	0.385330
	C173	C	0.176052	0.132779	0.616126
	C174	C	0.823344	0.132110	0.385369
	C175	C	0.823731	0.896066	0.616776
	C176	C	0.384440	0.190843	0.880895
	C177	C	0.613913	0.191466	0.121128
	C178	C	0.384942	0.836689	0.119905
	C179	C	0.613616	0.836416	0.880479
	C180	C	0.384446	0.895751	0.176482
	C181	C	0.614437	0.132495	0.177333
	C182	C	0.384099	0.131391	0.824832
	C183	C	0.614349	0.895610	0.825017
	C184	C	0.880246	0.190302	0.385703
	C185	C	0.118962	0.191105	0.615968
	C186	C	0.117975	0.837694	0.385931
	C187	C	0.880514	0.837926	0.616549
	C188	C	0.177490	0.399844	0.880820
	C189	C	0.176769	0.628235	0.119639
	C190	C	0.822697	0.399849	0.120138
	C191	C	0.822433	0.627954	0.881275
	C192	C	0.400674	0.106866	0.599877
	C193	C	0.599661	0.920006	0.600574
	C194	C	0.599516	0.106925	0.401264
	C195	C	0.399436	0.920115	0.400690
	C196	C	0.598771	0.414542	0.095329
	C197	C	0.598635	0.612970	0.905951
	C198	C	0.401086	0.613203	0.095645
	C199	C	0.401607	0.414976	0.906798
	C200	C	0.093849	0.614937	0.402314
	C201	C	0.905641	0.613964	0.599935
	C202	C	0.093407	0.414532	0.599152
	C203	C	0.905785	0.414652	0.402371
	C204	C	0.899727	0.607488	0.100477
	C205	C	0.100283	0.420236	0.101391
	C206	C	0.099728	0.607275	0.901074
	C207	C	0.899126	0.420079	0.900719
	C208	C	0.098499	0.914960	0.595895
	C209	C	0.098720	0.113845	0.406101
	C210	C	0.900946	0.113560	0.595161
	C211	C	0.900388	0.914085	0.406442
	C212	C	0.592905	0.113917	0.902748
	C213	C	0.405154	0.114472	0.100373
	C214	C	0.594019	0.913970	0.099652
	C215	C	0.405021	0.913120	0.902076
	Zn216	Zn	0.499437	0.013206	0.751798
	Zn217	Zn	0.499573	0.013725	0.250265
	Zn218	Zn	0.748706	0.513595	0.000585
	Zn219	Zn	0.250612	0.513567	0.001336
	Zn220	Zn	-0.000654	0.764507	0.501500
	Zn221	Zn	-0.000940	0.264131	0.500892
	Zn222	Zn	-0.000325	0.513763	0.749913
	Zn223	Zn	0.000076	0.514278	0.251681
	Zn224	Zn	0.499917	0.763149	0.000456
	Zn225	Zn	0.499517	0.264318	0.001264
	Zn226	Zn	0.750513	0.013708	0.501099
	Zn227	Zn	0.249174	0.013740	0.500276
	N228	N	0.414858	0.976112	0.678806
	N229	N	0.585187	0.050771	0.680033
	N230	N	0.584879	0.976325	0.322286
	N231	N	0.414742	0.051035	0.322283
	N232	N	0.676825	0.428787	0.962892
	N233	N	0.676644	0.597963	0.038488
	N234	N	0.322547	0.598200	0.963448
	N235	N	0.322736	0.429344	0.038744
	N236	N	0.962504	0.693397	0.415094
	N237	N	0.036326	0.694179	0.588137
	N238	N	0.962653	0.334465	0.587405
	N239	N	0.036008	0.334191	0.413481
	N240	N	0.961758	0.429585	0.677448
	N241	N	0.037559	0.598399	0.677976
	N242	N	0.962275	0.599065	0.323431
	N243	N	0.037807	0.430800	0.324811
	N244	N	0.414287	0.691798	0.963492
	N245	N	0.586441	0.693286	0.037255
	N246	N	0.585316	0.335109	0.963845
	N247	N	0.413381	0.335273	0.037923
	N248	N	0.678867	0.976518	0.414905
	N249	N	0.678658	0.050913	0.586652
	N250	N	0.320176	0.976672	0.586380
	N251	N	0.320357	0.050528	0.413951
	N252	N	0.914837	0.476718	0.179159
	N253	N	0.084935	0.551540	0.179050
	N254	N	0.084799	0.476317	0.822381
	N255	N	0.914976	0.551396	0.822710
	N256	N	0.176368	0.929512	0.463178
	N257	N	0.177585	0.099473	0.538155
	N258	N	0.822646	0.098281	0.463026
	N259	N	0.822155	0.929184	0.538808
	N260	N	0.462083	0.193588	0.914456
	N261	N	0.536279	0.193821	0.087929
	N262	N	0.462794	0.834465	0.086897
	N263	N	0.535910	0.833972	0.913786
	N264	N	0.461838	0.929649	0.177612
	N265	N	0.537140	0.098609	0.178239
	N266	N	0.461461	0.098002	0.823857
	N267	N	0.537085	0.929263	0.824323
	N268	N	0.913660	0.192546	0.463570
	N269	N	0.085622	0.193300	0.537952
	N270	N	0.085161	0.835628	0.464088
	N271	N	0.913853	0.835823	0.538526
	N272	N	0.179582	0.476932	0.914318
	N273	N	0.178556	0.551120	0.086395
	N274	N	0.820779	0.476856	0.086603
	N275	N	0.820090	0.550625	0.914263
	O276	O	-0.547522	-0.552831	1.546564
	H277	H	-0.550453	-0.561151	1.543526
	H278	H	-0.543125	-0.555017	1.547233
	O279	O	0.474573	0.468309	0.582377
	H280	H	0.478565	0.463938	0.575138
	H281	H	0.481480	0.471719	0.569913
	O282	O	0.477848	0.490874	0.603627
	H283	H	0.475391	0.484619	0.604825
	H284	H	0.486806	0.498433	0.606276
	O285	O	0.519935	0.484723	0.433594
	H286	H	0.508199	0.483382	0.437442
	H287	H	0.518555	0.480091	0.435832
	O288	O	0.371915	0.431028	0.556164
	H289	H	0.367646	0.433258	0.565497
	H290	H	0.372601	0.430000	0.564533
	O291	O	0.426718	0.418354	0.483353
	H292	H	0.424216	0.412911	0.494925
	H293	H	0.420422	0.415632	0.493645
	O294	O	0.515974	0.494575	0.490927
	H295	H	0.518643	0.490189	0.481406
	H296	H	0.508884	0.500528	0.487883
	O297	O	1.480759	-0.528518	-0.529224
	H298	H	1.483457	-0.522148	-0.534938
	H299	H	1.466786	-0.533278	-0.533703
