data_Molecule from HDF5

_cell_length_a		16.349636
_cell_length_b		16.158495
_cell_length_c		16.368506
_cell_angle_alpha	90.263555
_cell_angle_beta	89.955946
_cell_angle_gamma	89.392301
_symmetry_space_group_name_H-M	'P 1'
_symmetry_Int_Tables_number		1

loop_
	_symmetry_equiv_pos_as_xyz
	x,y,z

loop_
	_atom_site_label
	_atom_site_type_symbol
	_atom_site_fract_x
	_atom_site_fract_y
	_atom_site_fract_z
	H0	H	0.395193	0.838869	0.718831
	H1	H	0.592416	0.166305	0.718438
	H2	H	0.599007	0.839601	0.283952
	H3	H	0.392291	0.166245	0.288621
	H4	H	0.712340	0.397555	0.838553
	H5	H	0.714214	0.604478	0.161298
	H6	H	0.276913	0.606003	0.838387
	H7	H	0.276431	0.402208	0.162054
	H8	H	0.831219	0.718301	0.402010
	H9	H	0.157723	0.713853	0.598349
	H10	H	0.830675	0.290755	0.597446
	H11	H	0.156046	0.280706	0.399247
	H12	H	0.834555	0.400367	0.717884
	H13	H	0.156468	0.601808	0.717245
	H14	H	0.831575	0.602936	0.283191
	H15	H	0.156475	0.395498	0.281581
	H16	H	0.396382	0.718928	0.838540
	H17	H	0.592609	0.715360	0.164477
	H18	H	0.595080	0.282788	0.840199
	H19	H	0.396372	0.289724	0.164629
	H20	H	0.710705	0.838028	0.402089
	H21	H	0.708692	0.165675	0.604871
	H22	H	0.280433	0.836877	0.603894
	H23	H	0.275969	0.164760	0.404003
	H24	H	0.894509	0.337033	0.214916
	H25	H	0.094479	0.664270	0.218079
	H26	H	0.097887	0.337170	0.782981
	H27	H	0.893778	0.664882	0.784005
	H28	H	0.215051	0.895699	0.341238
	H29	H	0.209808	0.103774	0.663610
	H30	H	0.773924	0.102877	0.340719
	H31	H	0.779033	0.901742	0.664225
	H32	H	0.332391	0.219521	0.905477
	H33	H	0.658581	0.215745	0.101567
	H34	H	0.333117	0.788243	0.102048
	H35	H	0.657809	0.784254	0.901224
	H36	H	0.334000	0.901889	0.220728
	H37	H	0.656873	0.103906	0.221694
	H38	H	0.332698	0.108276	0.784676
	H39	H	0.656667	0.898659	0.783721
	H40	H	0.892692	0.215724	0.338138
	H41	H	0.089638	0.216541	0.663513
	H42	H	0.093553	0.785450	0.337926
	H43	H	0.896133	0.786970	0.664181
	H44	H	0.213896	0.338353	0.898392
	H45	H	0.206487	0.666490	0.100304
	H46	H	0.780740	0.337534	0.098787
	H47	H	0.777610	0.664934	0.899493
	H48	H	0.404514	0.117029	0.592638
	H49	H	0.582428	0.889768	0.586940
	H50	H	0.582110	0.116395	0.418071
	H51	H	0.407381	0.886495	0.412289
	H52	H	0.585679	0.410855	0.115013
	H53	H	0.591903	0.587384	0.885436
	H54	H	0.406143	0.609283	0.118309
	H55	H	0.394264	0.415140	0.884358
	H56	H	0.108844	0.585803	0.403082
	H57	H	0.879350	0.592434	0.594230
	H58	H	0.108920	0.409917	0.587899
	H59	H	0.877751	0.410143	0.403729
	H60	H	0.110690	0.409962	0.594205
	H61	H	0.878715	0.595256	0.594046
	H62	H	0.110943	0.596830	0.406028
	H63	H	0.879737	0.408151	0.408259
	H64	H	0.385585	0.592782	0.119835
	H65	H	0.580373	0.591320	0.887437
	H66	H	0.592969	0.407577	0.118333
	H67	H	0.412027	0.420092	0.891743
	H68	H	0.590743	0.120939	0.411547
	H69	H	0.595541	0.882932	0.592694
	H70	H	0.398100	0.117708	0.591164
	H71	H	0.402924	0.884144	0.410925
	H72	H	0.901415	0.618519	0.093382
	H73	H	0.083572	0.384706	0.094844
	H74	H	0.076361	0.614579	0.909191
	H75	H	0.898738	0.383573	0.909308
	H76	H	0.085352	0.904966	0.616697
	H77	H	0.089350	0.086425	0.385708
	H78	H	0.891584	0.093112	0.618583
	H79	H	0.906304	0.911214	0.388709
	H80	H	0.609065	0.091808	0.914269
	H81	H	0.379591	0.095974	0.098080
	H82	H	0.612634	0.905904	0.095724
	H83	H	0.378838	0.910986	0.907138
	H84	H	0.608682	0.911130	0.089851
	H85	H	0.378186	0.098889	0.097390
	H86	H	0.609143	0.086943	0.907826
	H87	H	0.380751	0.911642	0.913599
	H88	H	0.905536	0.090360	0.613816
	H89	H	0.081963	0.087068	0.388729
	H90	H	0.090970	0.907539	0.618759
	H91	H	0.899644	0.906398	0.385049
	H92	H	0.091041	0.618488	0.914337
	H93	H	0.087694	0.387278	0.084368
	H94	H	0.906390	0.616669	0.093136
	H95	H	0.906392	0.383025	0.901187
	H96	H	0.400566	0.120102	0.597173
	H97	H	0.582645	0.883842	0.601800
	H98	H	0.580090	0.119301	0.406868
	H99	H	0.406642	0.884445	0.407499
	H100	H	0.593158	0.415653	0.116151
	H101	H	0.588711	0.598558	0.883530
	H102	H	0.409191	0.583709	0.110116
	H103	H	0.408641	0.400860	0.884357
	H104	H	0.106851	0.589375	0.413878
	H105	H	0.879686	0.593697	0.591407
	H106	H	0.111967	0.404859	0.590901
	H107	H	0.879848	0.413068	0.407400
	H108	H	0.902938	0.616812	0.088592
	H109	H	0.094249	0.382188	0.092108
	H110	H	0.087046	0.620771	0.899711
	H111	H	0.910010	0.387201	0.911154
	H112	H	0.086318	0.910990	0.616079
	H113	H	0.085769	0.093619	0.385385
	H114	H	0.901555	0.104484	0.619118
	H115	H	0.898727	0.914140	0.387066
	H116	H	0.611152	0.094234	0.906510
	H117	H	0.380880	0.097044	0.095015
	H118	H	0.610171	0.913945	0.097051
	H119	H	0.381239	0.917080	0.909364
	C120	C	0.372802	0.010146	0.623477
	C121	C	0.615315	0.993770	0.623991
	C122	C	0.615401	0.010886	0.381857
	C123	C	0.373839	0.993133	0.381648
	C124	C	0.618573	0.379882	0.009413
	C125	C	0.616839	0.622761	0.992432
	C126	C	0.371528	0.625610	0.009008
	C127	C	0.374846	0.382521	0.993444
	C128	C	0.001860	0.621787	0.378586
	C129	C	0.986448	0.622837	0.622278
	C130	C	0.003304	0.379956	0.620768
	C131	C	0.985965	0.378489	0.376968
	C132	C	0.874319	0.509258	0.120537
	C133	C	0.116617	0.493113	0.121130
	C134	C	0.116674	0.509915	0.877581
	C135	C	0.874315	0.492606	0.877794
	C136	C	0.117185	0.877860	0.509887
	C137	C	0.114292	0.120598	0.493328
	C138	C	0.869869	0.124451	0.509967
	C139	C	0.872697	0.880590	0.493657
	C140	C	0.502930	0.123455	0.880829
	C141	C	0.487047	0.125378	0.125716
	C142	C	0.503705	0.880871	0.124228
	C143	C	0.486884	0.880986	0.879775
	C144	C	0.375249	0.887368	0.680213
	C145	C	0.612636	0.117302	0.680301
	C146	C	0.617079	0.888165	0.323641
	C147	C	0.373054	0.116935	0.326389
	C148	C	0.674232	0.378628	0.887335
	C149	C	0.674515	0.623464	0.113635
	C150	C	0.315397	0.625603	0.887030
	C151	C	0.316349	0.383072	0.114331
	C152	C	0.879729	0.679581	0.380658
	C153	C	0.108587	0.677199	0.619421
	C154	C	0.880183	0.326869	0.618342
	C155	C	0.107810	0.320048	0.379031
	C156	C	0.882214	0.381440	0.678412
	C157	C	0.108131	0.621270	0.678575
	C158	C	0.880118	0.621998	0.321940
	C159	C	0.107981	0.377165	0.320572
	C160	C	0.374349	0.681967	0.887176
	C161	C	0.614039	0.678828	0.114978
	C162	C	0.616097	0.321373	0.888231
	C163	C	0.376137	0.327241	0.115625
	C164	C	0.672890	0.887408	0.382131
	C165	C	0.670376	0.116935	0.623617
	C166	C	0.317743	0.886655	0.623226
	C167	C	0.315286	0.116229	0.383809
	C168	C	0.875216	0.386012	0.176456
	C169	C	0.114045	0.615637	0.178963
	C170	C	0.117219	0.386434	0.821255
	C171	C	0.874425	0.616137	0.822199
	C172	C	0.174857	0.877598	0.388806
	C173	C	0.170539	0.121883	0.615195
	C174	C	0.812714	0.122714	0.388528
	C175	C	0.817142	0.882039	0.615587
	C176	C	0.380994	0.181737	0.883784
	C177	C	0.609652	0.178978	0.122629
	C178	C	0.381825	0.825802	0.122502
	C179	C	0.608988	0.823070	0.881327
	C180	C	0.382085	0.882383	0.181587
	C181	C	0.608544	0.123638	0.182606
	C182	C	0.381148	0.126121	0.823863
	C183	C	0.608315	0.879815	0.822472
	C184	C	0.871781	0.178801	0.387201
	C185	C	0.110846	0.178130	0.615289
	C186	C	0.114869	0.822307	0.387304
	C187	C	0.875491	0.824835	0.615639
	C188	C	0.175281	0.387195	0.878382
	C189	C	0.169991	0.616837	0.120363
	C190	C	0.818778	0.386149	0.118446
	C191	C	0.816396	0.615901	0.879182
	C192	C	0.394713	0.096013	0.600417
	C193	C	0.593351	0.907772	0.600794
	C194	C	0.591345	0.096600	0.405321
	C195	C	0.398491	0.907390	0.403914
	C196	C	0.596852	0.404316	0.094585
	C197	C	0.593784	0.599084	0.907461
	C198	C	0.393758	0.602204	0.093886
	C199	C	0.398183	0.405543	0.908783
	C200	C	0.086838	0.597682	0.401038
	C201	C	0.901174	0.600352	0.599839
	C202	C	0.088594	0.401817	0.597719
	C203	C	0.901191	0.403298	0.399691
	C204	C	0.896923	0.595039	0.098258
	C205	C	0.094938	0.406884	0.097297
	C206	C	0.092045	0.595925	0.900991
	C207	C	0.898048	0.407010	0.900541
	C208	C	0.094193	0.901161	0.595106
	C209	C	0.092146	0.096079	0.408524
	C210	C	0.892763	0.102451	0.594908
	C211	C	0.895012	0.903735	0.408854
	C212	C	0.587756	0.098265	0.902950
	C213	C	0.401698	0.103725	0.103311
	C214	C	0.588426	0.903698	0.101316
	C215	C	0.402171	0.905793	0.903276
	Zn216	Zn	0.494121	0.002602	0.751159
	Zn217	Zn	0.495219	0.002762	0.253441
	Zn218	Zn	0.746732	0.501565	-0.000626
	Zn219	Zn	0.244006	0.502871	-0.000251
	Zn220	Zn	-0.005927	0.751216	0.500867
	Zn221	Zn	-0.006943	0.250926	0.499843
	Zn222	Zn	-0.004255	0.500949	0.749821
	Zn223	Zn	-0.005155	0.500179	0.248287
	Zn224	Zn	0.495036	0.752401	0.001611
	Zn225	Zn	0.495980	0.252409	0.002919
	Zn226	Zn	0.742893	0.002088	0.502816
	Zn227	Zn	0.245100	-0.000020	0.502580
	N228	N	0.408369	0.965282	0.680820
	N229	N	0.579090	0.039635	0.680706
	N230	N	0.581878	0.965778	0.323338
	N231	N	0.408755	0.039465	0.324865
	N232	N	0.676190	0.414041	0.963853
	N233	N	0.676257	0.589495	0.036607
	N234	N	0.313190	0.591483	0.963802
	N235	N	0.315576	0.416906	0.037430
	N236	N	0.956329	0.679683	0.415047
	N237	N	0.031834	0.678176	0.584961
	N238	N	0.956505	0.325770	0.583110
	N239	N	0.030946	0.320624	0.413324
	N240	N	0.959784	0.413736	0.679935
	N241	N	0.031163	0.588107	0.680305
	N242	N	0.957208	0.586827	0.320508
	N243	N	0.031219	0.412539	0.318991
	N244	N	0.408606	0.682096	0.963895
	N245	N	0.578596	0.678299	0.038591
	N246	N	0.582259	0.322128	0.965152
	N247	N	0.411895	0.326713	0.039586
	N248	N	0.672054	0.964899	0.417626
	N249	N	0.672114	0.039168	0.589350
	N250	N	0.316402	0.963959	0.588375
	N251	N	0.315605	0.038200	0.417356
	N252	N	0.909169	0.463379	0.177725
	N253	N	0.081553	0.537437	0.179445
	N254	N	0.081389	0.463689	0.820931
	N255	N	0.909515	0.538531	0.820957
	N256	N	0.176403	0.911344	0.466034
	N257	N	0.172741	0.086789	0.538496
	N258	N	0.811260	0.089891	0.465882
	N259	N	0.815375	0.916056	0.538774
	N260	N	0.457593	0.180134	0.918582
	N261	N	0.532938	0.180265	0.088058
	N262	N	0.458339	0.824448	0.087723
	N263	N	0.532397	0.823777	0.916285
	N264	N	0.458979	0.915967	0.182717
	N265	N	0.531224	0.091173	0.184672
	N266	N	0.457920	0.090649	0.821830
	N267	N	0.531411	0.915221	0.821480
	N268	N	0.906415	0.180255	0.463723
	N269	N	0.076602	0.177524	0.538467
	N270	N	0.079909	0.822276	0.463782
	N271	N	0.909418	0.823837	0.538898
	N272	N	0.174924	0.465068	0.912633
	N273	N	0.171464	0.539624	0.084799
	N274	N	0.817850	0.463903	0.084466
	N275	N	0.816313	0.538277	0.913051
	O276	O	1.050294	-0.080853	1.047679
	H277	H	1.047382	-0.080150	1.049131
	H278	H	1.050838	-0.084139	1.056615
	O279	O	0.493636	0.490884	0.546417
	H280	H	0.487446	0.501591	0.534005
	H281	H	0.484738	0.496427	0.550550
	O282	O	0.469680	0.469202	0.537680
	H283	H	0.471326	0.467174	0.524972
	H284	H	0.470246	0.462130	0.544497
	O285	O	0.463726	0.590413	0.475653
	H286	H	0.459843	0.580268	0.472256
	H287	H	0.462249	0.602600	0.469849
	O288	O	0.597185	0.370732	0.522911
	H289	H	0.601478	0.370508	0.523599
	H290	H	0.588068	0.377217	0.512054
	O291	O	0.005767	-0.082089	0.977689
	H292	H	0.024936	-0.100451	0.969825
	H293	H	-0.003550	-0.072385	0.979294
	O294	O	1.014255	1.122081	0.174438
	H295	H	1.022847	1.118912	0.172319
	H296	H	1.025598	1.120489	0.182383
	O297	O	0.940717	0.991255	-0.026328
	H298	H	0.941090	0.987598	-0.036622
	H299	H	0.936099	0.992355	-0.022319
	O300	O	0.453647	0.552426	0.387325
	H301	H	0.455278	0.547431	0.388247
	H302	H	0.464059	0.544732	0.392782
	O303	O	0.447058	0.433150	0.534473
	H304	H	0.439465	0.437016	0.523974
	H305	H	0.449843	0.433453	0.532547
	O306	O	0.577545	0.505227	0.530848
	H307	H	0.580979	0.501882	0.536100
	H308	H	0.585714	0.503114	0.535844
	O309	O	0.447129	0.636936	0.465424
	H310	H	0.438428	0.623850	0.465461
	H311	H	0.442548	0.634513	0.460308
	O312	O	0.970646	1.080978	1.057656
	H313	H	0.978877	1.076911	1.063239
	H314	H	0.969631	1.087208	1.056007
	O315	O	1.054961	1.017012	-0.014530
	H316	H	1.049557	1.007704	-0.017681
	H317	H	1.050737	1.014581	-0.026750
	O318	O	0.385120	0.558667	0.370212
	H319	H	0.387577	0.559766	0.379372
	H320	H	0.384176	0.555624	0.378955
	O321	O	0.505990	0.559312	0.504152
	H322	H	0.490193	0.552877	0.503429
	H323	H	0.498469	0.576444	0.506640
	O324	O	-0.005965	0.963154	0.897479
	H325	H	-0.010835	0.969100	0.895632
	H326	H	-0.016831	0.949339	0.891694
	O327	O	-0.097040	0.849814	1.021965
	H328	H	-0.098895	0.850047	1.022834
	H329	H	-0.091774	0.856239	1.030433
	O330	O	-0.042582	0.122853	0.003042
	H331	H	-0.054336	0.122532	0.006458
	H332	H	-0.045247	0.127064	0.013087
	O333	O	0.586848	0.558945	0.491939
	H334	H	0.578789	0.561410	0.493218
	H335	H	0.587158	0.565592	0.493141
	O336	O	0.050540	0.019912	-0.093888
	H337	H	0.052120	0.012603	-0.083224
	H338	H	0.048184	0.016036	-0.097137
	O339	O	0.068137	-0.060479	-0.000478
	H340	H	0.076121	-0.061419	-0.004390
	H341	H	0.067983	-0.065645	-0.002646
	O342	O	0.586529	0.349473	0.409780
	H343	H	0.592674	0.336387	0.411525
	H344	H	0.580945	0.343651	0.414258
	O345	O	-0.032442	1.064666	0.965458
	H346	H	-0.034969	1.070608	0.960502
	H347	H	-0.032571	1.076936	0.965316
	O348	O	0.430704	0.490229	0.530578
	H349	H	0.426452	0.493783	0.526061
	H350	H	0.429808	0.505426	0.522463
	O351	O	0.493419	0.559423	0.448222
	H352	H	0.502244	0.552830	0.439447
	H353	H	0.485091	0.564071	0.451930
	O354	O	0.099861	1.013714	0.047148
	H355	H	0.113004	1.012962	0.049053
	H356	H	0.104901	1.031710	0.047954
	O357	O	0.434921	0.384955	0.447052
	H358	H	0.443842	0.389171	0.456284
	H359	H	0.441409	0.384384	0.442723
	O360	O	0.976713	0.028319	0.857396
	H361	H	0.974991	0.031317	0.857350
	H362	H	0.966432	0.036590	0.849602
	O363	O	0.419920	0.582093	0.578477
	H364	H	0.429807	0.576980	0.590896
	H365	H	0.425317	0.571524	0.573913
	O366	O	0.345776	0.582664	0.467241
	H367	H	0.351151	0.582970	0.472629
	H368	H	0.345214	0.575879	0.466905
	O369	O	1.042025	-0.010537	-0.023810
	H370	H	1.052219	-0.005038	-0.031845
	H371	H	1.057793	-0.012506	-0.025936
	O372	O	0.519695	0.463392	0.570321
	H373	H	0.524617	0.464057	0.560908
	H374	H	0.513333	0.467188	0.569646
	O375	O	1.005258	0.014721	1.113152
	H376	H	1.007381	0.013116	1.106997
	H377	H	1.005155	0.009387	1.108571
	O378	O	-0.033628	0.977263	-0.086861
	H379	H	-0.045287	0.980934	-0.075286
	H380	H	-0.032462	0.969156	-0.095250
	O381	O	0.637499	0.536383	0.627947
	H382	H	0.640704	0.540126	0.624392
	H383	H	0.647635	0.527790	0.622258
	O384	O	1.111657	1.093287	0.009738
	H385	H	1.107789	1.093074	0.001296
	H386	H	1.099050	1.103045	0.016302
	O387	O	1.002673	-0.053934	0.962907
	H388	H	1.005975	-0.053156	0.971134
	H389	H	1.000617	-0.049872	0.955267
	O390	O	0.903774	0.952168	0.130807
	H391	H	0.912527	0.948052	0.127675
	H392	H	0.897307	0.953661	0.139189
	O393	O	0.585668	0.438045	0.406165
	H394	H	0.584908	0.445924	0.400112
	H395	H	0.585331	0.431345	0.393902
