data_Molecule from HDF5

_cell_length_a		16.195145
_cell_length_b		16.324091
_cell_length_c		16.289844
_cell_angle_alpha	90.266442
_cell_angle_beta	90.144330
_cell_angle_gamma	89.965704
_symmetry_space_group_name_H-M	'P 1'
_symmetry_Int_Tables_number		1

loop_
	_symmetry_equiv_pos_as_xyz
	x,y,z

loop_
	_atom_site_label
	_atom_site_type_symbol
	_atom_site_fract_x
	_atom_site_fract_y
	_atom_site_fract_z
	H0	H	0.403025	0.835258	0.709593
	H1	H	0.600722	0.162249	0.712168
	H2	H	0.600754	0.835821	0.278736
	H3	H	0.398828	0.160965	0.278948
	H4	H	0.714432	0.399413	0.831297
	H5	H	0.715829	0.595621	0.159072
	H6	H	0.288086	0.595925	0.831410
	H7	H	0.287567	0.402236	0.159329
	H8	H	0.836627	0.712248	0.394939
	H9	H	0.165124	0.713444	0.594235
	H10	H	0.837130	0.284697	0.591844
	H11	H	0.165329	0.282035	0.394271
	H12	H	0.836825	0.400762	0.707125
	H13	H	0.164788	0.599068	0.710922
	H14	H	0.837202	0.596029	0.279864
	H15	H	0.166378	0.398535	0.280287
	H16	H	0.402051	0.713113	0.832678
	H17	H	0.601773	0.714070	0.159286
	H18	H	0.602081	0.280506	0.833080
	H19	H	0.402372	0.284319	0.159686
	H20	H	0.714794	0.835125	0.396837
	H21	H	0.716765	0.161853	0.595259
	H22	H	0.287723	0.834667	0.591924
	H23	H	0.287081	0.162069	0.398802
	H24	H	0.902933	0.334410	0.208532
	H25	H	0.102717	0.660706	0.212362
	H26	H	0.100618	0.335619	0.778459
	H27	H	0.900901	0.661185	0.779257
	H28	H	0.214491	0.900992	0.330779
	H29	H	0.214467	0.098122	0.658147
	H30	H	0.784566	0.095529	0.331527
	H31	H	0.788668	0.902188	0.659512
	H32	H	0.338033	0.213015	0.897314
	H33	H	0.665320	0.213301	0.097209
	H34	H	0.337330	0.783930	0.095262
	H35	H	0.665508	0.782869	0.897744
	H36	H	0.336048	0.900805	0.207682
	H37	H	0.665115	0.097300	0.211635
	H38	H	0.337133	0.096915	0.783093
	H39	H	0.665967	0.898674	0.781111
	H40	H	0.900073	0.212778	0.330953
	H41	H	0.102192	0.216015	0.657171
	H42	H	0.100690	0.782075	0.331446
	H43	H	0.900669	0.782976	0.657672
	H44	H	0.216757	0.335416	0.895462
	H45	H	0.215659	0.662101	0.094050
	H46	H	0.787276	0.334136	0.092186
	H47	H	0.785274	0.661532	0.896085
	H48	H	0.408465	0.114164	0.588853
	H49	H	0.590747	0.886639	0.580143
	H50	H	0.585710	0.110015	0.412189
	H51	H	0.414343	0.883655	0.400293
	H52	H	0.595473	0.405678	0.112215
	H53	H	0.590225	0.591020	0.879790
	H54	H	0.412428	0.606497	0.115288
	H55	H	0.405995	0.403626	0.877931
	H56	H	0.113240	0.584720	0.413177
	H57	H	0.881286	0.598129	0.587897
	H58	H	0.119253	0.407412	0.589597
	H59	H	0.885240	0.410472	0.396548
	H60	H	0.119394	0.403878	0.585286
	H61	H	0.885840	0.590431	0.580750
	H62	H	0.120052	0.584920	0.391962
	H63	H	0.882757	0.399879	0.400477
	H64	H	0.395013	0.587042	0.115134
	H65	H	0.594669	0.593580	0.878031
	H66	H	0.594772	0.406435	0.111818
	H67	H	0.410867	0.407338	0.881550
	H68	H	0.602908	0.117234	0.405820
	H69	H	0.603558	0.879841	0.589860
	H70	H	0.405229	0.115755	0.590378
	H71	H	0.405213	0.883372	0.406415
	H72	H	0.907643	0.615010	0.092407
	H73	H	0.109454	0.379058	0.082358
	H74	H	0.096712	0.615030	0.900870
	H75	H	0.905137	0.381684	0.900412
	H76	H	0.094024	0.901423	0.611878
	H77	H	0.099460	0.089932	0.376224
	H78	H	0.912189	0.087991	0.607991
	H79	H	0.914391	0.908648	0.382116
	H80	H	0.617551	0.081166	0.901859
	H81	H	0.384159	0.099003	0.081149
	H82	H	0.619967	0.905924	0.093320
	H83	H	0.384764	0.905919	0.902974
	H84	H	0.618964	0.901388	0.085833
	H85	H	0.389024	0.083460	0.083804
	H86	H	0.622501	0.095706	0.898259
	H87	H	0.384046	0.905116	0.901089
	H88	H	0.912891	0.098176	0.611380
	H89	H	0.090215	0.085805	0.380855
	H90	H	0.096559	0.909006	0.611003
	H91	H	0.908496	0.896353	0.376248
	H92	H	0.091612	0.614429	0.900403
	H93	H	0.091847	0.378928	0.102841
	H94	H	0.914374	0.612446	0.086937
	H95	H	0.910427	0.381525	0.896762
	H96	H	0.408482	0.115270	0.592511
	H97	H	0.587632	0.882638	0.597168
	H98	H	0.587496	0.116335	0.393725
	H99	H	0.404995	0.879990	0.396085
	H100	H	0.593922	0.404993	0.111425
	H101	H	0.594570	0.588580	0.879746
	H102	H	0.419741	0.583125	0.106240
	H103	H	0.411747	0.400721	0.879375
	H104	H	0.121507	0.603603	0.404479
	H105	H	0.883612	0.587819	0.592614
	H106	H	0.116756	0.408948	0.584573
	H107	H	0.887211	0.408114	0.406923
	H108	H	0.905555	0.613432	0.083538
	H109	H	0.084206	0.387850	0.078362
	H110	H	0.093928	0.613956	0.904901
	H111	H	0.910194	0.383738	0.902775
	H112	H	0.089398	0.907336	0.609310
	H113	H	0.090925	0.096732	0.377353
	H114	H	0.903541	0.093553	0.612444
	H115	H	0.899857	0.908087	0.376977
	H116	H	0.616812	0.093229	0.912604
	H117	H	0.380974	0.091746	0.095577
	H118	H	0.616068	0.910772	0.086406
	H119	H	0.383497	0.903381	0.902839
	C120	C	0.378977	0.006978	0.618088
	C121	C	0.623161	0.990664	0.618362
	C122	C	0.621495	0.006782	0.374510
	C123	C	0.378872	0.990088	0.373086
	C124	C	0.623304	0.376545	0.003834
	C125	C	0.622802	0.619997	0.987286
	C126	C	0.379983	0.620556	0.004020
	C127	C	0.380568	0.376424	0.987519
	C128	C	0.009683	0.619744	0.373437
	C129	C	0.992407	0.620610	0.616155
	C130	C	0.009985	0.378092	0.614531
	C131	C	0.993451	0.376598	0.372549
	C132	C	0.880464	0.505708	0.115877
	C133	C	0.123742	0.489958	0.116708
	C134	C	0.123099	0.506728	0.872646
	C135	C	0.879093	0.490015	0.871978
	C136	C	0.122416	0.876923	0.502992
	C137	C	0.122655	0.120761	0.486006
	C138	C	0.879618	0.120962	0.502631
	C139	C	0.878966	0.876288	0.486401
	C140	C	0.510512	0.118924	0.875454
	C141	C	0.492780	0.120292	0.117271
	C142	C	0.509383	0.877692	0.116864
	C143	C	0.492933	0.876369	0.874210
	C144	C	0.381907	0.883999	0.672232
	C145	C	0.620868	0.113466	0.673919
	C146	C	0.620102	0.884349	0.318023
	C147	C	0.379678	0.112527	0.317504
	C148	C	0.677440	0.378620	0.880385
	C149	C	0.678460	0.617004	0.110184
	C150	C	0.325364	0.617033	0.880663
	C151	C	0.325338	0.380772	0.110661
	C152	C	0.886127	0.674777	0.374816
	C153	C	0.116043	0.675880	0.614542
	C154	C	0.886053	0.322804	0.612092
	C155	C	0.116701	0.320591	0.374684
	C156	C	0.885974	0.380219	0.669634
	C157	C	0.115990	0.618851	0.672366
	C158	C	0.886337	0.617029	0.317663
	C159	C	0.117169	0.378383	0.317895
	C160	C	0.382070	0.675178	0.881314
	C161	C	0.621216	0.675335	0.110536
	C162	C	0.621404	0.319828	0.881269
	C163	C	0.382520	0.322203	0.110737
	C164	C	0.677103	0.884073	0.376546
	C165	C	0.678430	0.113266	0.615825
	C166	C	0.324655	0.883730	0.613740
	C167	C	0.324058	0.113196	0.377070
	C168	C	0.882804	0.383104	0.170673
	C169	C	0.122260	0.612290	0.173619
	C170	C	0.121414	0.384300	0.816422
	C171	C	0.880772	0.612614	0.817275
	C172	C	0.177329	0.879699	0.379721
	C173	C	0.177295	0.118786	0.609145
	C174	C	0.822881	0.116822	0.380308
	C175	C	0.824968	0.880341	0.610058
	C176	C	0.386989	0.174549	0.877401
	C177	C	0.616389	0.175549	0.116659
	C178	C	0.386054	0.822086	0.114591
	C179	C	0.616446	0.820904	0.876637
	C180	C	0.385592	0.880060	0.170988
	C181	C	0.616160	0.117805	0.173505
	C182	C	0.386280	0.116831	0.820766
	C183	C	0.616732	0.878678	0.819197
	C184	C	0.880271	0.175098	0.379845
	C185	C	0.121228	0.177225	0.608500
	C186	C	0.120519	0.820966	0.380007
	C187	C	0.880767	0.821073	0.609150
	C188	C	0.178744	0.384102	0.874900
	C189	C	0.178648	0.613072	0.114812
	C190	C	0.825171	0.383003	0.112714
	C191	C	0.823355	0.612694	0.875325
	C192	C	0.401030	0.092878	0.596879
	C193	C	0.600534	0.905094	0.595769
	C194	C	0.598719	0.092410	0.397365
	C195	C	0.401608	0.904372	0.394649
	C196	C	0.601444	0.399184	0.089612
	C197	C	0.599670	0.597749	0.901357
	C198	C	0.402296	0.598598	0.089984
	C199	C	0.402989	0.397599	0.901787
	C200	C	0.096082	0.597521	0.396416
	C201	C	0.906055	0.598562	0.593660
	C202	C	0.096084	0.400252	0.592854
	C203	C	0.907305	0.399405	0.394757
	C204	C	0.902732	0.591493	0.093966
	C205	C	0.101709	0.404347	0.094383
	C206	C	0.100625	0.592404	0.895376
	C207	C	0.901904	0.404487	0.893633
	C208	C	0.099867	0.899500	0.588453
	C209	C	0.100134	0.097706	0.400337
	C210	C	0.902931	0.099635	0.588470
	C211	C	0.901080	0.897946	0.400613
	C212	C	0.596511	0.096524	0.897552
	C213	C	0.406953	0.098000	0.093773
	C214	C	0.596006	0.899649	0.094911
	C215	C	0.406614	0.898376	0.895725
	Zn216	Zn	0.500981	-0.001010	0.746685
	Zn217	Zn	0.500210	-0.001372	0.244674
	Zn218	Zn	0.751154	0.497785	-0.005499
	Zn219	Zn	0.251823	0.498944	-0.004979
	Zn220	Zn	0.000715	0.748314	0.494734
	Zn221	Zn	0.001301	0.249279	0.493868
	Zn222	Zn	0.001343	0.498844	0.743492
	Zn223	Zn	0.002089	0.497722	0.244987
	Zn224	Zn	0.501598	0.748598	-0.003721
	Zn225	Zn	0.502335	0.247961	-0.003918
	Zn226	Zn	0.751247	-0.001472	0.495644
	Zn227	Zn	0.250969	-0.000884	0.495015
	N228	N	0.414866	0.961645	0.674924
	N229	N	0.587314	0.036093	0.675557
	N230	N	0.586113	0.961564	0.316676
	N231	N	0.413241	0.035035	0.315263
	N232	N	0.678524	0.413342	0.957474
	N233	N	0.679318	0.583121	0.032742
	N234	N	0.323951	0.583867	0.958074
	N235	N	0.323922	0.413809	0.033131
	N236	N	0.964141	0.676595	0.408752
	N237	N	0.038211	0.677011	0.580446
	N238	N	0.963958	0.321416	0.578712
	N239	N	0.038566	0.319384	0.407809
	N240	N	0.963751	0.414084	0.671220
	N241	N	0.038125	0.585244	0.673596
	N242	N	0.964334	0.583516	0.316725
	N243	N	0.039499	0.412493	0.316549
	N244	N	0.415218	0.677477	0.959159
	N245	N	0.587360	0.677218	0.032926
	N246	N	0.588810	0.318276	0.959098
	N247	N	0.416168	0.319621	0.033213
	N248	N	0.677966	0.961207	0.411137
	N249	N	0.679929	0.035941	0.581937
	N250	N	0.322681	0.961303	0.580862
	N251	N	0.323481	0.036149	0.410854
	N252	N	0.916487	0.460580	0.172869
	N253	N	0.088949	0.534831	0.174947
	N254	N	0.087345	0.461519	0.815180
	N255	N	0.914590	0.535294	0.814790
	N256	N	0.178665	0.913827	0.457159
	N257	N	0.178277	0.084052	0.532066
	N258	N	0.822291	0.083973	0.457950
	N259	N	0.823588	0.913901	0.532693
	N260	N	0.465016	0.175981	0.910874
	N261	N	0.538718	0.177030	0.082321
	N262	N	0.464271	0.820494	0.081737
	N263	N	0.538751	0.819602	0.910300
	N264	N	0.463420	0.913874	0.172478
	N265	N	0.538265	0.084284	0.174121
	N266	N	0.464042	0.082831	0.819459
	N267	N	0.538744	0.912348	0.817260
	N268	N	0.914711	0.177754	0.457099
	N269	N	0.087987	0.178524	0.530843
	N270	N	0.087253	0.818941	0.457604
	N271	N	0.913615	0.818688	0.531413
	N272	N	0.179974	0.461295	0.909052
	N273	N	0.179492	0.536170	0.079997
	N274	N	0.823841	0.460244	0.079336
	N275	N	0.822288	0.535340	0.908574
	O276	O	1.047066	0.932146	-0.076579
	H277	H	1.050524	0.926469	-0.077012
	H278	H	1.050923	0.942476	-0.068984
	O279	O	0.054636	-0.041583	0.971972
	H280	H	0.064298	-0.040871	0.969164
	H281	H	0.045173	-0.045113	0.973444
	O282	O	0.024790	-0.085446	-0.083436
	H283	H	0.027673	-0.092624	-0.087041
	H284	H	0.037592	-0.093366	-0.089482
	O285	O	0.471381	0.498184	0.532540
	H286	H	0.479109	0.494411	0.535337
	H287	H	0.472968	0.503373	0.536300
	O288	O	0.007120	-0.075625	0.022202
	H289	H	0.004447	-0.075681	0.026084
	H290	H	0.007687	-0.078206	0.029603
	O291	O	-0.076335	0.993503	-0.076096
	H292	H	-0.085083	0.997533	-0.081670
	H293	H	-0.061013	0.996406	-0.074548
	O294	O	-0.049363	0.986853	0.062207
	H295	H	-0.044599	0.991635	0.066293
	H296	H	-0.059295	0.985683	0.072700
	O297	O	0.567483	0.485312	0.516605
	H298	H	0.562909	0.478328	0.525077
	H299	H	0.582341	0.481042	0.513111
	O300	O	0.512999	0.548434	0.575662
	H301	H	0.512151	0.560634	0.579121
	H302	H	0.517100	0.548431	0.564669
	O303	O	0.978797	-0.025111	0.913862
	H304	H	0.991319	-0.019274	0.915806
	H305	H	0.964684	-0.030378	0.905335
	O306	O	0.003940	0.997683	1.047308
	H307	H	0.001316	0.993646	1.035683
	H308	H	-0.002418	1.009418	1.039922
	O309	O	-0.010894	0.973989	0.900534
	H310	H	-0.011045	0.971182	0.888301
	H311	H	-0.013881	0.968471	0.900629
	O312	O	0.009072	0.047009	0.989528
	H313	H	0.011831	0.047793	0.989305
	H314	H	0.011356	0.027944	0.992473
	O315	O	0.555904	0.540623	0.540397
	H316	H	0.548811	0.535817	0.533795
	H317	H	0.561924	0.538344	0.540665
	O318	O	0.011698	-0.000531	1.086992
	H319	H	0.010620	0.007089	1.095825
	H320	H	0.008913	0.004428	1.077323
	O321	O	0.559046	0.508645	0.554646
	H322	H	0.552858	0.506363	0.553192
	H323	H	0.556009	0.512080	0.554877
	O324	O	1.032711	0.018289	0.953761
	H325	H	1.033428	0.027096	0.963048
	H326	H	1.028691	0.014423	0.950908
	O327	O	1.057784	1.062645	0.989732
	H328	H	1.059007	1.074842	0.990452
	H329	H	1.055340	1.054893	0.985598
	O330	O	0.419742	0.531435	0.438799
	H331	H	0.418777	0.533725	0.428753
	H332	H	0.421299	0.533377	0.435341
	O333	O	0.534008	0.467510	0.530629
	H334	H	0.541406	0.466782	0.530159
	H335	H	0.537803	0.464601	0.539997
	O336	O	0.497161	0.497001	0.543031
	H337	H	0.493510	0.493126	0.548970
	H338	H	0.484230	0.503158	0.543801
	O339	O	0.599206	0.579017	0.525816
	H340	H	0.600747	0.582208	0.529064
	H341	H	0.598525	0.578382	0.518595
	O342	O	0.461622	0.476148	0.450711
	H343	H	0.459136	0.478334	0.439521
	H344	H	0.464299	0.469497	0.451426
	O345	O	0.562070	0.475476	0.425912
	H346	H	0.566019	0.476543	0.438279
	H347	H	0.557064	0.483987	0.426345
