data_Molecule from HDF5

_cell_length_a		16.632860
_cell_length_b		16.571051
_cell_length_c		16.742980
_cell_angle_alpha	90.090271
_cell_angle_beta	89.906649
_cell_angle_gamma	90.074000
_symmetry_space_group_name_H-M	'P 1'
_symmetry_Int_Tables_number		1

loop_
	_symmetry_equiv_pos_as_xyz
	x,y,z

loop_
	_atom_site_label
	_atom_site_type_symbol
	_atom_site_fract_x
	_atom_site_fract_y
	_atom_site_fract_z
	H0	H	0.397475	0.861425	0.704339
	H1	H	0.606738	0.173541	0.701751
	H2	H	0.605141	0.859403	0.263713
	H3	H	0.401250	0.173038	0.265767
	H4	H	0.727563	0.409710	0.831414
	H5	H	0.726722	0.626872	0.136679
	H6	H	0.279599	0.622871	0.829473
	H7	H	0.279449	0.410904	0.137106
	H8	H	0.846480	0.736881	0.380475
	H9	H	0.157364	0.739025	0.590285
	H10	H	0.845618	0.298893	0.584033
	H11	H	0.157841	0.295951	0.377238
	H12	H	0.846714	0.412452	0.703023
	H13	H	0.157447	0.622199	0.705941
	H14	H	0.848598	0.625170	0.261009
	H15	H	0.156392	0.410531	0.260050
	H16	H	0.398143	0.738370	0.828370
	H17	H	0.608589	0.740996	0.137558
	H18	H	0.610833	0.293037	0.831379
	H19	H	0.397534	0.297071	0.138209
	H20	H	0.720433	0.858638	0.380550
	H21	H	0.721484	0.173767	0.584590
	H22	H	0.283397	0.859756	0.586356
	H23	H	0.286299	0.174040	0.382875
	H24	H	0.894085	0.363689	0.206676
	H25	H	0.109575	0.672287	0.205753
	H26	H	0.106699	0.360379	0.764714
	H27	H	0.895663	0.671622	0.760518
	H28	H	0.223892	0.910824	0.329388
	H29	H	0.224281	0.122146	0.637393
	H30	H	0.784290	0.119373	0.326378
	H31	H	0.777381	0.908249	0.635846
	H32	H	0.347250	0.237670	0.879545
	H33	H	0.659052	0.235001	0.084276
	H34	H	0.346808	0.797555	0.085726
	H35	H	0.659546	0.797649	0.878470
	H36	H	0.346399	0.913249	0.202523
	H37	H	0.658678	0.119622	0.201579
	H38	H	0.348255	0.123492	0.761376
	H39	H	0.658636	0.911166	0.760951
	H40	H	0.901462	0.235008	0.326668
	H41	H	0.107109	0.238219	0.637827
	H42	H	0.108849	0.793260	0.330514
	H43	H	0.892252	0.791261	0.636195
	H44	H	0.223253	0.360741	0.880036
	H45	H	0.225413	0.671884	0.089773
	H46	H	0.780673	0.362445	0.088683
	H47	H	0.780347	0.672401	0.876520
	H48	H	0.415760	0.127451	0.569452
	H49	H	0.587348	0.903729	0.579207
	H50	H	0.591263	0.129440	0.389600
	H51	H	0.414080	0.903264	0.390804
	H52	H	0.585698	0.426057	0.092713
	H53	H	0.596044	0.602919	0.872479
	H54	H	0.413728	0.612002	0.094877
	H55	H	0.415534	0.431423	0.874858
	H56	H	0.111076	0.602038	0.398309
	H57	H	0.886031	0.607562	0.585544
	H58	H	0.116167	0.426461	0.577486
	H59	H	0.892725	0.432358	0.392998
	H60	H	0.115728	0.424623	0.573803
	H61	H	0.892865	0.612674	0.561409
	H62	H	0.113719	0.602036	0.392697
	H63	H	0.890083	0.425747	0.393072
	H64	H	0.409222	0.604178	0.094213
	H65	H	0.588054	0.603673	0.875751
	H66	H	0.596412	0.426299	0.096805
	H67	H	0.415574	0.425487	0.872188
	H68	H	0.594217	0.128565	0.393253
	H69	H	0.585392	0.908468	0.566208
	H70	H	0.411381	0.129326	0.572021
	H71	H	0.412438	0.903730	0.394206
	H72	H	0.914215	0.630117	0.074215
	H73	H	0.086248	0.406697	0.074510
	H74	H	0.089025	0.630399	0.887938
	H75	H	0.915220	0.408367	0.900210
	H76	H	0.092950	0.929824	0.594912
	H77	H	0.092853	0.103864	0.373459
	H78	H	0.914228	0.101687	0.591916
	H79	H	0.908758	0.926470	0.372013
	H80	H	0.611456	0.098864	0.893890
	H81	H	0.389904	0.105658	0.076757
	H82	H	0.612418	0.931434	0.069133
	H83	H	0.393766	0.931236	0.895522
	H84	H	0.614113	0.931692	0.076775
	H85	H	0.388263	0.110013	0.076110
	H86	H	0.617461	0.107692	0.885949
	H87	H	0.391865	0.930284	0.891858
	H88	H	0.915555	0.113193	0.594347
	H89	H	0.091600	0.109398	0.370978
	H90	H	0.090367	0.930862	0.593328
	H91	H	0.915594	0.932297	0.375668
	H92	H	0.085308	0.625287	0.898712
	H93	H	0.090209	0.407405	0.068124
	H94	H	0.918529	0.627935	0.072738
	H95	H	0.909225	0.402704	0.893295
	H96	H	0.415657	0.128255	0.574856
	H97	H	0.597521	0.903362	0.569715
	H98	H	0.596298	0.131112	0.389479
	H99	H	0.410933	0.902160	0.390959
	H100	H	0.591514	0.435892	0.092461
	H101	H	0.591336	0.610139	0.872647
	H102	H	0.417876	0.605117	0.091951
	H103	H	0.410156	0.429207	0.871620
	H104	H	0.113958	0.607122	0.395647
	H105	H	0.897502	0.589441	0.571121
	H106	H	0.114463	0.428228	0.574458
	H107	H	0.892845	0.428391	0.398809
	H108	H	0.914638	0.627769	0.069366
	H109	H	0.093519	0.403335	0.073767
	H110	H	0.096871	0.630274	0.897766
	H111	H	0.918560	0.406347	0.890677
	H112	H	0.090663	0.927443	0.594274
	H113	H	0.097522	0.106785	0.370184
	H114	H	0.904992	0.108214	0.596165
	H115	H	0.917949	0.923269	0.373246
	H116	H	0.615206	0.110646	0.898123
	H117	H	0.389789	0.107266	0.072702
	H118	H	0.615758	0.924948	0.072815
	H119	H	0.392026	0.927463	0.894456
	C120	C	0.381995	0.025260	0.604256
	C121	C	0.622660	1.008840	0.602852
	C122	C	0.624357	0.025178	0.360619
	C123	C	0.382227	1.007366	0.362306
	C124	C	0.624351	0.396096	-0.007723
	C125	C	0.624489	0.639355	0.975263
	C126	C	0.380886	0.639258	-0.008463
	C127	C	0.381749	0.396338	0.975062
	C128	C	0.011113	0.637805	0.362595
	C129	C	0.994364	0.637124	0.605315
	C130	C	0.011386	0.395310	0.605170
	C131	C	0.994340	0.396471	0.362114
	C132	C	0.881980	0.526258	0.104796
	C133	C	0.123361	0.508610	0.104519
	C134	C	0.122822	0.525179	0.863281
	C135	C	0.881163	0.508290	0.862101
	C136	C	0.123686	0.895780	0.492318
	C137	C	0.125234	0.138848	0.474161
	C138	C	0.881316	0.138027	0.490675
	C139	C	0.880924	0.894691	0.475080
	C140	C	0.511802	0.138614	0.861227
	C141	C	0.493370	0.138516	0.105252
	C142	C	0.510798	0.896802	0.103685
	C143	C	0.495184	0.897025	0.861776
	C144	C	0.379314	0.907954	0.664171
	C145	C	0.624926	0.126695	0.661699
	C146	C	0.624368	0.906480	0.303030
	C147	C	0.382215	0.126093	0.305149
	C148	C	0.686335	0.392131	0.877172
	C149	C	0.685783	0.643939	0.090779
	C150	C	0.320257	0.641539	0.875570
	C151	C	0.320781	0.393487	0.091034
	C152	C	0.893927	0.697720	0.361273
	C153	C	0.110775	0.698639	0.608510
	C154	C	0.893079	0.337380	0.604325
	C155	C	0.111155	0.336129	0.359225
	C156	C	0.893532	0.393920	0.663231
	C157	C	0.110946	0.640732	0.665862
	C158	C	0.894872	0.642087	0.301791
	C159	C	0.110258	0.392967	0.300815
	C160	C	0.378924	0.698957	0.875030
	C161	C	0.626993	0.700662	0.091189
	C162	C	0.628334	0.334240	0.877016
	C163	C	0.379508	0.336721	0.091569
	C164	C	0.681396	0.906226	0.361191
	C165	C	0.681935	0.126589	0.603492
	C166	C	0.322408	0.907265	0.605936
	C167	C	0.325129	0.126371	0.363193
	C168	C	0.877266	0.409811	0.165666
	C169	C	0.127192	0.625452	0.165234
	C170	C	0.125311	0.407359	0.803952
	C171	C	0.877741	0.624970	0.800917
	C172	C	0.183776	0.892714	0.376022
	C173	C	0.184528	0.140959	0.590928
	C174	C	0.823781	0.138031	0.373339
	C175	C	0.818653	0.890905	0.590210
	C176	C	0.394285	0.198226	0.860067
	C177	C	0.611818	0.196138	0.104411
	C178	C	0.393479	0.837300	0.104496
	C179	C	0.612516	0.837451	0.860284
	C180	C	0.393353	0.894599	0.162577
	C181	C	0.611519	0.138884	0.162587
	C182	C	0.394770	0.141599	0.801347
	C183	C	0.612151	0.894004	0.801686
	C184	C	0.881973	0.195705	0.373318
	C185	C	0.126369	0.198552	0.591009
	C186	C	0.126303	0.834399	0.376568
	C187	C	0.875930	0.832698	0.590309
	C188	C	0.182560	0.407512	0.861774
	C189	C	0.184495	0.625443	0.107330
	C190	C	0.820812	0.409340	0.107151
	C191	C	0.820695	0.625528	0.858985
	C192	C	0.407141	0.107063	0.579177
	C193	C	0.597380	0.926508	0.578637
	C194	C	0.600756	0.108146	0.383912
	C195	C	0.405665	0.924514	0.385482
	C196	C	0.598522	0.422132	0.072947
	C197	C	0.599139	0.613066	0.894445
	C198	C	0.406005	0.614192	0.072619
	C199	C	0.406711	0.421635	0.893933
	C200	C	0.091964	0.611194	0.388120
	C201	C	0.913282	0.610805	0.580027
	C202	C	0.094038	0.419552	0.582111
	C203	C	0.913125	0.421787	0.387639
	C204	C	0.908339	0.607570	0.079383
	C205	C	0.097294	0.426975	0.079183
	C206	C	0.097550	0.607281	0.887782
	C207	C	0.907017	0.426972	0.887529
	C208	C	0.098341	0.921949	0.573271
	C209	C	0.101114	0.113774	0.392904
	C210	C	0.904795	0.114561	0.572687
	C211	C	0.906765	0.920363	0.394646
	C212	C	0.593438	0.113116	0.885946
	C213	C	0.410866	0.114469	0.081902
	C214	C	0.592786	0.922047	0.079780
	C215	C	0.413672	0.922555	0.886794
	Zn216	Zn	0.502941	0.017396	0.732565
	Zn217	Zn	0.502327	0.016379	0.233370
	Zn218	Zn	0.753563	0.518307	-0.015741
	Zn219	Zn	0.252027	0.516852	-0.016637
	Zn220	Zn	0.002629	0.766163	0.484634
	Zn221	Zn	0.003093	0.267493	0.482582
	Zn222	Zn	0.002680	0.516292	0.734220
	Zn223	Zn	0.002484	0.517251	0.233114
	Zn224	Zn	0.502990	0.767784	-0.017568
	Zn225	Zn	0.502498	0.266780	-0.016634
	Zn226	Zn	0.752232	0.016203	0.482571
	Zn227	Zn	0.253697	0.016434	0.483428
	N228	N	0.415498	0.982422	0.663402
	N229	N	0.588893	0.052127	0.661600
	N230	N	0.589950	0.981741	0.302166
	N231	N	0.416727	0.050920	0.304185
	N232	N	0.683968	0.430090	0.949897
	N233	N	0.684402	0.606380	0.017622
	N234	N	0.321146	0.605370	0.949161
	N235	N	0.321967	0.430108	0.017567
	N236	N	0.967373	0.695375	0.398427
	N237	N	0.037199	0.696594	0.571587
	N238	N	0.967640	0.337880	0.568964
	N239	N	0.037858	0.338023	0.396659
	N240	N	0.968326	0.428888	0.664172
	N241	N	0.037271	0.603468	0.664344
	N242	N	0.968855	0.605531	0.302350
	N243	N	0.036610	0.429805	0.302466
	N244	N	0.415664	0.697814	0.948358
	N245	N	0.589715	0.698112	0.018086
	N246	N	0.590290	0.336688	0.949684
	N247	N	0.416459	0.338173	0.018373
	N248	N	0.681802	0.981175	0.396122
	N249	N	0.680788	0.052118	0.567647
	N250	N	0.323541	0.981360	0.569562
	N251	N	0.324659	0.051359	0.397890
	N252	N	0.914415	0.483712	0.164490
	N253	N	0.089755	0.551587	0.163588
	N254	N	0.088892	0.481719	0.804581
	N255	N	0.914525	0.550970	0.802420
	N256	N	0.182296	0.930241	0.449228
	N257	N	0.184324	0.104844	0.517130
	N258	N	0.823029	0.103045	0.447540
	N259	N	0.821491	0.928909	0.517672
	N260	N	0.468200	0.196731	0.896376
	N261	N	0.537167	0.196270	0.069575
	N262	N	0.467575	0.838546	0.068579
	N263	N	0.538657	0.838952	0.896909
	N264	N	0.467459	0.930750	0.162347
	N265	N	0.536644	0.103950	0.163482
	N266	N	0.468831	0.105174	0.801899
	N267	N	0.538002	0.930262	0.802219
	N268	N	0.916969	0.196102	0.447510
	N269	N	0.090424	0.197765	0.517280
	N270	N	0.089581	0.836216	0.449990
	N271	N	0.914084	0.834826	0.517721
	N272	N	0.181240	0.481901	0.897843
	N273	N	0.182302	0.551634	0.070362
	N274	N	0.823530	0.482883	0.070014
	N275	N	0.822426	0.551811	0.896259
	O276	O	-0.218721	1.095497	0.057631
	H277	H	-0.217745	1.075127	0.047318
	H278	H	-0.223537	1.092586	0.034126
	O279	O	0.779057	0.794027	0.761054
	H280	H	0.761948	0.761222	0.756835
	H281	H	0.800945	0.800648	0.743119
	O282	O	0.900435	-0.120151	1.043428
	H283	H	0.898465	-0.112696	1.019315
	H284	H	0.898946	-0.111100	1.040737
	O285	O	0.513246	0.370660	0.352454
	H286	H	0.521503	0.347091	0.342006
	H287	H	0.540308	0.372611	0.348239
	O288	O	0.314120	0.329346	0.296594
	H289	H	0.326832	0.345689	0.320413
	H290	H	0.334151	0.351637	0.310021
	O291	O	0.457252	0.697329	0.612896
	H292	H	0.457968	0.706458	0.618706
	H293	H	0.457654	0.700810	0.591253
	O294	O	1.156148	0.134858	0.919171
	H295	H	1.142038	0.123639	0.923459
	H296	H	1.161315	0.127759	0.913793
	O297	O	0.283602	0.545448	0.265246
	H298	H	0.262543	0.540880	0.245790
	H299	H	0.293812	0.556431	0.271732
	O300	O	-0.213341	0.051015	0.759044
	H301	H	-0.213774	0.076804	0.751370
	H302	H	-0.226545	0.073899	0.737945
	O303	O	0.292880	0.316229	0.695589
	H304	H	0.277988	0.316698	0.705377
	H305	H	0.301371	0.319570	0.682706
	O306	O	0.690499	0.329575	0.678128
	H307	H	0.672617	0.343465	0.655421
	H308	H	0.670947	0.349754	0.664388
	O309	O	0.445568	0.633996	0.283577
	H310	H	0.410735	0.631057	0.282287
	H311	H	0.446387	0.649918	0.266527
	O312	O	0.631531	0.725358	0.473418
	H313	H	0.644984	0.727699	0.461736
	H314	H	0.630736	0.715726	0.466740
	O315	O	0.694676	0.334468	1.299038
	H316	H	0.698939	0.309591	1.275641
	H317	H	0.698771	0.353377	1.287269
	O318	O	0.716252	0.488456	0.534413
	H319	H	0.712631	0.492465	0.536782
	H320	H	0.710539	0.493503	0.529337
	O321	O	-0.273622	0.648540	0.475898
	H322	H	-0.262939	0.650845	0.464682
	H323	H	-0.275967	0.637537	0.469888
	O324	O	0.916618	0.987462	0.123901
	H325	H	0.911560	0.995685	0.136466
	H326	H	0.918716	1.010015	0.113911
	O327	O	0.219298	0.057433	1.201950
	H328	H	0.225638	0.048941	1.208886
	H329	H	0.219144	0.069878	1.211151
	O330	O	0.514909	0.638674	0.256365
	H331	H	0.519500	0.661773	0.255052
	H332	H	0.529412	0.635016	0.248324
	O333	O	0.471142	0.307293	0.368895
	H334	H	0.462262	0.300692	0.387730
	H335	H	0.482079	0.310850	0.363959
	O336	O	0.561803	0.453868	0.721552
	H337	H	0.560578	0.453566	0.716393
	H338	H	0.549278	0.456956	0.722092
	O339	O	0.771637	-0.025147	0.918861
	H340	H	0.774340	-0.028939	0.898833
	H341	H	0.770249	-0.030106	0.893199
	O342	O	0.294541	-0.295669	0.288025
	H343	H	0.264536	-0.270677	0.257603
	H344	H	0.311591	-0.317839	0.287433
	O345	O	-0.078219	0.932115	0.759090
	H346	H	-0.077194	0.920369	0.758733
	H347	H	-0.076804	0.949154	0.751241
	O348	O	0.216157	0.227389	0.200042
	H349	H	0.219760	0.204775	0.180214
	H350	H	0.248882	0.259926	0.231029
	O351	O	-0.055489	0.182671	0.965864
	H352	H	-0.058180	0.169050	0.955210
	H353	H	-0.046848	0.175695	0.965215
	O354	O	0.069347	-0.000083	1.180849
	H355	H	0.080151	0.019210	1.188606
	H356	H	0.055667	-0.000605	1.172516
	O357	O	0.675282	0.644814	0.701940
	H358	H	0.680376	0.648881	0.709099
	H359	H	0.666114	0.641990	0.689870
	O360	O	0.658554	0.496675	0.463401
	H361	H	0.650303	0.500949	0.456180
	H362	H	0.670118	0.489998	0.461075
	O363	O	-0.026961	0.006085	-0.071812
	H364	H	-0.028576	-0.007465	-0.076944
	H365	H	-0.035352	-0.012390	-0.077814
	O366	O	0.273748	0.445135	0.435819
	H367	H	0.273949	0.444438	0.434871
	H368	H	0.282247	0.455999	0.439888
	O369	O	0.782009	0.230547	0.195522
	H370	H	0.811014	0.217670	0.185876
	H371	H	0.780909	0.206755	0.172311
	O372	O	1.025010	1.248475	-0.036952
	H373	H	1.016281	1.251327	-0.037700
	H374	H	1.035531	1.239645	-0.045052
	O375	O	0.971139	-0.199689	0.206711
	H376	H	0.976417	-0.209044	0.212151
	H377	H	0.985077	-0.212659	0.198327
	O378	O	0.286026	0.300230	0.523869
	H379	H	0.277468	0.292369	0.530684
	H380	H	0.271086	0.292138	0.527201
	O381	O	-0.204855	1.231139	0.944661
	H382	H	-0.201330	1.238181	0.952197
	H383	H	-0.200509	1.237255	0.953152
	O384	O	1.044862	-0.145210	1.060723
	H385	H	1.051456	-0.135005	1.051544
	H386	H	1.035289	-0.138589	1.049208
	O387	O	1.224089	0.794191	-0.045403
	H388	H	1.230597	0.787122	-0.046063
	H389	H	1.236178	0.787469	-0.055186
	O390	O	0.293171	0.628197	0.506433
	H391	H	0.285915	0.647343	0.485588
	H392	H	0.292743	0.631776	0.495907
	O393	O	0.728587	0.293187	0.443605
	H394	H	0.734107	0.277970	0.434745
	H395	H	0.740477	0.279306	0.418897
	O396	O	0.317115	0.698777	0.669808
	H397	H	0.334492	0.692990	0.642274
	H398	H	0.332782	0.670901	0.659357
	O399	O	0.216914	-0.007142	0.766155
	H400	H	0.222647	-0.022393	0.758355
	H401	H	0.226377	-0.014087	0.758020
	O402	O	0.485315	0.634701	0.403625
	H403	H	0.490416	0.643875	0.394629
	H404	H	0.485967	0.638013	0.399011
	O405	O	0.793742	-0.777186	1.771076
	H406	H	0.761716	-0.741981	1.743528
	H407	H	0.801829	-0.769055	1.811684
	O408	O	0.130025	-0.013855	0.008560
	H409	H	0.125712	-0.014688	-0.001409
	H410	H	0.121391	-0.021345	0.000637
	O411	O	0.453228	0.572256	0.682024
	H412	H	0.449136	0.571269	0.673105
	H413	H	0.458381	0.568408	0.682987
	O414	O	0.983733	-0.196746	0.964642
	H415	H	0.966132	-0.182152	0.965537
	H416	H	0.974464	-0.206096	0.959616
	O417	O	0.590609	0.552722	0.372394
	H418	H	0.574769	0.551160	0.365283
	H419	H	0.598208	0.542832	0.367520
	O420	O	0.489815	0.745013	0.597126
	H421	H	0.495062	0.745825	0.587244
	H422	H	0.503404	0.752984	0.603306
	O423	O	-0.205082	-0.194289	1.196058
	H424	H	-0.171904	-0.178305	1.199004
	H425	H	-0.197967	-0.187012	1.161356
	O426	O	0.454039	0.473078	0.325920
	H427	H	0.458847	0.476264	0.340900
	H428	H	0.466328	0.453834	0.321958
	O429	O	0.806640	0.813560	0.969443
	H430	H	0.791487	0.819492	0.967750
	H431	H	0.795633	0.819739	0.966538
	O432	O	0.475354	0.301378	0.707542
	H433	H	0.464631	0.304188	0.721620
	H434	H	0.463511	0.288792	0.714888
	O435	O	0.060846	1.124726	-0.047978
	H436	H	0.083645	1.115150	-0.039177
	H437	H	0.067757	1.112867	-0.059379
	O438	O	0.117875	-0.146682	-0.072144
	H439	H	0.103861	-0.134675	-0.092041
	H440	H	0.121026	-0.154434	-0.077294
	O441	O	0.027684	0.234310	0.199666
	H442	H	0.048966	0.253892	0.214509
	H443	H	0.055975	0.237246	0.192919
	O444	O	0.313008	0.502405	0.702509
	H445	H	0.309805	0.514782	0.708925
	H446	H	0.302856	0.502082	0.698166
	O447	O	-0.219762	0.981000	1.211864
	H448	H	-0.234214	0.981476	1.225985
	H449	H	-0.219778	0.971241	1.225898
	O450	O	0.181246	0.958573	0.994622
	H451	H	0.181005	0.951984	0.988526
	H452	H	0.184151	0.965946	1.009067
	O453	O	0.493871	0.472116	0.500351
	H454	H	0.503354	0.472939	0.498758
	H455	H	0.481394	0.461826	0.500044
	O456	O	0.207146	0.226335	1.000357
	H457	H	0.209592	0.211292	1.000563
	H458	H	0.195661	0.239009	0.988841
	O459	O	0.388613	0.712842	0.469306
	H460	H	0.388569	0.718015	0.447871
	H461	H	0.384512	0.725993	0.451531
	O462	O	0.958727	0.076984	1.140630
	H463	H	0.958862	0.072495	1.133248
	H464	H	0.963914	0.097669	1.139953
	O465	O	1.207730	-0.189358	0.186803
	H466	H	1.189818	-0.167158	0.181373
	H467	H	1.186561	-0.179204	0.161591
	O468	O	0.684372	0.694737	0.305008
	H469	H	0.691682	0.702338	0.288158
	H470	H	0.692814	0.687024	0.293442
	O471	O	0.424649	0.382611	0.486435
	H472	H	0.420778	0.382778	0.499996
	H473	H	0.430965	0.386373	0.486411
	O474	O	0.026231	0.798639	-0.245986
	H475	H	0.024092	0.799073	-0.253192
	H476	H	0.043344	0.780934	-0.262846
	O477	O	0.410027	0.503901	1.500116
	H478	H	0.408181	0.515740	1.488064
	H479	H	0.416953	0.515306	1.507092
	O480	O	0.724145	0.498407	0.260366
	H481	H	0.723331	0.491074	0.256667
	H482	H	0.745094	0.494038	0.258457
	O483	O	0.572486	0.310699	0.536064
	H484	H	0.567072	0.316958	0.521423
	H485	H	0.582595	0.308746	0.539634
	O486	O	1.217576	-0.186065	0.766462
	H487	H	1.220422	-0.199515	0.750469
	H488	H	1.231080	-0.200783	0.774624
	O489	O	1.020537	1.045276	-0.238693
	H490	H	1.014740	1.050911	-0.238903
	H491	H	1.026253	1.063764	-0.242960
	O492	O	0.193345	0.208004	-0.212445
	H493	H	0.187595	0.195852	-0.178433
	H494	H	0.192701	0.210780	-0.212409
	O495	O	-0.033820	1.239897	0.756822
	H496	H	-0.039159	1.243606	0.740273
	H497	H	-0.057941	1.252663	0.744984
	O498	O	1.014005	1.090938	1.089946
	H499	H	1.017223	1.089940	1.074253
	H500	H	1.011379	1.091367	1.083169
	O501	O	0.695956	0.614702	0.695244
	H502	H	0.687711	0.626740	0.681722
	H503	H	0.708634	0.595383	0.717852
