data_Molecule from HDF5

_cell_length_a		16.183301
_cell_length_b		16.313443
_cell_length_c		16.350828
_cell_angle_alpha	89.731239
_cell_angle_beta	90.431850
_cell_angle_gamma	90.076349
_symmetry_space_group_name_H-M	'P 1'
_symmetry_Int_Tables_number		1

loop_
	_symmetry_equiv_pos_as_xyz
	x,y,z

loop_
	_atom_site_label
	_atom_site_type_symbol
	_atom_site_fract_x
	_atom_site_fract_y
	_atom_site_fract_z
	H0	H	0.398651	0.842194	0.715065
	H1	H	0.599925	0.167890	0.714013
	H2	H	0.598513	0.841007	0.283602
	H3	H	0.394791	0.165291	0.278309
	H4	H	0.708258	0.408130	0.832978
	H5	H	0.713507	0.602645	0.158719
	H6	H	0.279264	0.604057	0.833492
	H7	H	0.282898	0.405180	0.160402
	H8	H	0.833313	0.720222	0.395148
	H9	H	0.160948	0.718016	0.597815
	H10	H	0.832615	0.289388	0.593966
	H11	H	0.160265	0.288521	0.396643
	H12	H	0.832808	0.402854	0.710540
	H13	H	0.159398	0.605281	0.714864
	H14	H	0.833595	0.606282	0.279088
	H15	H	0.160417	0.405133	0.282415
	H16	H	0.393858	0.722890	0.834261
	H17	H	0.597654	0.717794	0.159454
	H18	H	0.596376	0.288810	0.834496
	H19	H	0.397493	0.286065	0.159385
	H20	H	0.710440	0.839872	0.403357
	H21	H	0.714646	0.168271	0.596516
	H22	H	0.282936	0.841578	0.597909
	H23	H	0.282437	0.167310	0.397596
	H24	H	0.894132	0.343911	0.214023
	H25	H	0.100782	0.667121	0.214554
	H26	H	0.096663	0.342171	0.780497
	H27	H	0.894071	0.666843	0.777497
	H28	H	0.212736	0.905558	0.335204
	H29	H	0.214554	0.103935	0.659937
	H30	H	0.780867	0.102136	0.335652
	H31	H	0.786240	0.905071	0.662429
	H32	H	0.333710	0.218727	0.896377
	H33	H	0.661643	0.219765	0.098422
	H34	H	0.333682	0.786599	0.097729
	H35	H	0.661928	0.790239	0.900092
	H36	H	0.334622	0.899805	0.215245
	H37	H	0.662123	0.103426	0.213990
	H38	H	0.335437	0.107583	0.779878
	H39	H	0.662409	0.906690	0.786117
	H40	H	0.893269	0.221302	0.335665
	H41	H	0.100330	0.221939	0.658933
	H42	H	0.098085	0.787575	0.335744
	H43	H	0.897762	0.785759	0.660583
	H44	H	0.210273	0.341128	0.898430
	H45	H	0.214487	0.667367	0.096546
	H46	H	0.783177	0.341710	0.093927
	H47	H	0.780954	0.668031	0.895897
	H48	H	0.408127	0.120859	0.593257
	H49	H	0.594487	0.889929	0.586244
	H50	H	0.595925	0.125925	0.391955
	H51	H	0.410890	0.889497	0.406034
	H52	H	0.589629	0.413141	0.111589
	H53	H	0.584490	0.601164	0.880845
	H54	H	0.412752	0.601736	0.111458
	H55	H	0.404661	0.415608	0.883377
	H56	H	0.108790	0.590291	0.414333
	H57	H	0.877081	0.600618	0.589539
	H58	H	0.116627	0.412653	0.598288
	H59	H	0.878253	0.416378	0.394714
	H60	H	0.113542	0.406066	0.584437
	H61	H	0.881709	0.595707	0.581433
	H62	H	0.115086	0.591635	0.395392
	H63	H	0.877920	0.404319	0.406835
	H64	H	0.397911	0.597371	0.113340
	H65	H	0.591656	0.601126	0.878487
	H66	H	0.588558	0.409465	0.112660
	H67	H	0.406304	0.408070	0.882176
	H68	H	0.573230	0.114209	0.405711
	H69	H	0.596749	0.886154	0.600465
	H70	H	0.409090	0.119516	0.587707
	H71	H	0.402795	0.889344	0.410702
	H72	H	0.898724	0.624416	0.093068
	H73	H	0.085529	0.390436	0.090198
	H74	H	0.081968	0.618777	0.903763
	H75	H	0.906141	0.390407	0.905391
	H76	H	0.098868	0.917645	0.614433
	H77	H	0.087439	0.100672	0.381516
	H78	H	0.918020	0.099627	0.610510
	H79	H	0.896384	0.906905	0.379086
	H80	H	0.615045	0.095761	0.906453
	H81	H	0.377938	0.099402	0.094513
	H82	H	0.609654	0.917294	0.084153
	H83	H	0.382866	0.918512	0.907111
	H84	H	0.615066	0.915981	0.098907
	H85	H	0.383021	0.097636	0.080385
	H86	H	0.615599	0.097719	0.904347
	H87	H	0.378954	0.913874	0.899075
	H88	H	0.901120	0.105211	0.618636
	H89	H	0.091469	0.096771	0.380825
	H90	H	0.080388	0.915433	0.607880
	H91	H	0.902703	0.920660	0.385131
	H92	H	0.086761	0.618544	0.908593
	H93	H	0.089756	0.389820	0.089327
	H94	H	0.915242	0.619468	0.091869
	H95	H	0.896412	0.387548	0.904446
	H96	H	0.403759	0.120559	0.588954
	H97	H	0.583157	0.890644	0.595947
	H98	H	0.598407	0.118143	0.419365
	H99	H	0.402875	0.886521	0.401607
	H100	H	0.591739	0.410364	0.113126
	H101	H	0.587839	0.595171	0.881550
	H102	H	0.408167	0.587146	0.107595
	H103	H	0.399376	0.410210	0.879615
	H104	H	0.116402	0.607479	0.407610
	H105	H	0.880096	0.590778	0.590768
	H106	H	0.110805	0.421245	0.586863
	H107	H	0.884677	0.420119	0.410228
	H108	H	0.904420	0.618475	0.078245
	H109	H	0.088370	0.388324	0.092407
	H110	H	0.088468	0.620602	0.902686
	H111	H	0.903072	0.386490	0.896411
	H112	H	0.090448	0.900649	0.615800
	H113	H	0.086293	0.095430	0.383487
	H114	H	0.902832	0.086904	0.612044
	H115	H	0.912058	0.908071	0.384001
	H116	H	0.615015	0.098972	0.907646
	H117	H	0.384623	0.085574	0.089998
	H118	H	0.615526	0.903676	0.089398
	H119	H	0.380374	0.908819	0.908699
	C120	C	0.377058	0.012970	0.619883
	C121	C	0.620692	0.996693	0.621851
	C122	C	0.618734	0.011892	0.377441
	C123	C	0.375751	0.995549	0.375864
	C124	C	0.618238	0.382968	0.004863
	C125	C	0.618693	0.627026	0.987753
	C126	C	0.375275	0.625797	0.004187
	C127	C	0.374743	0.381540	0.988746
	C128	C	0.005534	0.626118	0.375341
	C129	C	0.987930	0.625220	0.617837
	C130	C	0.005316	0.383213	0.618030
	C131	C	0.988177	0.383774	0.375019
	C132	C	0.876148	0.513640	0.117000
	C133	C	0.118968	0.496696	0.119748
	C134	C	0.115904	0.512304	0.875786
	C135	C	0.872755	0.495816	0.872810
	C136	C	0.119210	0.882313	0.505862
	C137	C	0.119441	0.127175	0.488640
	C138	C	0.876423	0.125965	0.506541
	C139	C	0.875612	0.881897	0.490188
	C140	C	0.506952	0.126933	0.875908
	C141	C	0.489667	0.124644	0.118719
	C142	C	0.505610	0.881894	0.120053
	C143	C	0.489204	0.884337	0.877046
	C144	C	0.378374	0.890942	0.676734
	C145	C	0.619840	0.119091	0.676453
	C146	C	0.617644	0.889539	0.322095
	C147	C	0.376115	0.117299	0.318020
	C148	C	0.671491	0.387062	0.882033
	C149	C	0.675104	0.623435	0.110184
	C150	C	0.317892	0.624384	0.882016
	C151	C	0.319839	0.383807	0.111347
	C152	C	0.882359	0.682325	0.375776
	C153	C	0.111501	0.680878	0.617808
	C154	C	0.881783	0.327121	0.614725
	C155	C	0.111141	0.327031	0.376780
	C156	C	0.881762	0.383676	0.672724
	C157	C	0.110535	0.624821	0.676097
	C158	C	0.882597	0.625735	0.317775
	C159	C	0.111323	0.384866	0.319847
	C160	C	0.374540	0.683857	0.882640
	C161	C	0.617614	0.680837	0.110573
	C162	C	0.615934	0.327462	0.882876
	C163	C	0.376987	0.324898	0.110951
	C164	C	0.673221	0.888788	0.381776
	C165	C	0.676637	0.119492	0.617723
	C166	C	0.320670	0.890523	0.618383
	C167	C	0.320249	0.118326	0.377282
	C168	C	0.875739	0.391914	0.174670
	C169	C	0.119540	0.618632	0.175935
	C170	C	0.115435	0.390349	0.819492
	C171	C	0.874075	0.618203	0.815910
	C172	C	0.174837	0.885049	0.383759
	C173	C	0.176363	0.124917	0.611117
	C174	C	0.818923	0.123419	0.384278
	C175	C	0.822266	0.884178	0.613239
	C176	C	0.383311	0.181923	0.876584
	C177	C	0.612763	0.181194	0.117943
	C178	C	0.382804	0.824878	0.118158
	C179	C	0.612914	0.828668	0.880012
	C180	C	0.383283	0.881381	0.176648
	C181	C	0.612987	0.123436	0.175458
	C182	C	0.384051	0.126490	0.818580
	C183	C	0.613036	0.886304	0.823057
	C184	C	0.874828	0.182836	0.384510
	C185	C	0.119770	0.183725	0.610436
	C186	C	0.117732	0.826319	0.384062
	C187	C	0.878325	0.825017	0.612202
	C188	C	0.172334	0.389742	0.877853
	C189	C	0.176654	0.618625	0.117670
	C190	C	0.820536	0.390921	0.114604
	C191	C	0.817899	0.618883	0.874793
	C192	C	0.400129	0.098346	0.596700
	C193	C	0.598091	0.910957	0.600463
	C194	C	0.595824	0.097245	0.399322
	C195	C	0.398720	0.910607	0.399403
	C196	C	0.596469	0.404654	0.090331
	C197	C	0.595035	0.605443	0.902487
	C198	C	0.399240	0.602494	0.088791
	C199	C	0.396822	0.404479	0.903829
	C200	C	0.091275	0.603090	0.398890
	C201	C	0.901938	0.602374	0.594069
	C202	C	0.091286	0.406592	0.596431
	C203	C	0.902411	0.406879	0.397343
	C204	C	0.899554	0.598696	0.094295
	C205	C	0.094901	0.411736	0.097261
	C206	C	0.092625	0.597258	0.898611
	C207	C	0.895201	0.410249	0.895362
	C208	C	0.096539	0.904532	0.590685
	C209	C	0.095603	0.104340	0.403904
	C210	C	0.900337	0.103565	0.591766
	C211	C	0.897271	0.904976	0.404768
	C212	C	0.593015	0.104199	0.899231
	C213	C	0.403926	0.101048	0.095157
	C214	C	0.591157	0.905497	0.097313
	C215	C	0.403170	0.907022	0.898694
	Zn216	Zn	0.498252	0.005732	0.749518
	Zn217	Zn	0.497770	0.003505	0.247969
	Zn218	Zn	0.746800	0.505277	-0.004071
	Zn219	Zn	0.245517	0.504108	-0.003845
	Zn220	Zn	-0.002858	0.753118	0.497487
	Zn221	Zn	-0.002698	0.255531	0.497068
	Zn222	Zn	-0.004240	0.504273	0.745578
	Zn223	Zn	-0.003269	0.505706	0.246945
	Zn224	Zn	0.497496	0.755367	-0.003137
	Zn225	Zn	0.497735	0.253023	-0.003112
	Zn226	Zn	0.747919	0.003976	0.499021
	Zn227	Zn	0.247663	0.004622	0.497902
	N228	N	0.412561	0.968223	0.677618
	N229	N	0.585851	0.041878	0.678959
	N230	N	0.584338	0.967043	0.319554
	N231	N	0.410039	0.039985	0.317035
	N232	N	0.673174	0.420758	0.958889
	N233	N	0.675975	0.590776	0.032783
	N234	N	0.318106	0.589067	0.958461
	N235	N	0.317855	0.418061	0.034261
	N236	N	0.959915	0.682954	0.410661
	N237	N	0.034304	0.681008	0.582118
	N238	N	0.959592	0.326863	0.581351
	N239	N	0.033539	0.326261	0.410355
	N240	N	0.959513	0.417826	0.674990
	N241	N	0.032694	0.590801	0.676082
	N242	N	0.960188	0.591723	0.317200
	N243	N	0.033754	0.419335	0.318442
	N244	N	0.409469	0.685051	0.959613
	N245	N	0.583345	0.683347	0.033338
	N246	N	0.583304	0.324851	0.960315
	N247	N	0.410277	0.323288	0.033870
	N248	N	0.674236	0.965918	0.415472
	N249	N	0.677278	0.042207	0.584281
	N250	N	0.319733	0.967594	0.583789
	N251	N	0.319732	0.041745	0.412530
	N252	N	0.909843	0.469152	0.176201
	N253	N	0.084548	0.541802	0.177320
	N254	N	0.081200	0.467377	0.818275
	N255	N	0.907547	0.540614	0.814360
	N256	N	0.175688	0.919330	0.460379
	N257	N	0.176359	0.090475	0.534512
	N258	N	0.819941	0.088471	0.461100
	N259	N	0.820459	0.918873	0.536304
	N260	N	0.460836	0.182323	0.911596
	N261	N	0.535049	0.182092	0.083429
	N262	N	0.459905	0.824998	0.083605
	N263	N	0.534909	0.827246	0.912874
	N264	N	0.460757	0.916081	0.177835
	N265	N	0.535329	0.088917	0.176074
	N266	N	0.461947	0.092906	0.818011
	N267	N	0.535205	0.920206	0.821119
	N268	N	0.909892	0.184556	0.461329
	N269	N	0.085037	0.185205	0.533385
	N270	N	0.083776	0.824499	0.460932
	N271	N	0.910684	0.823416	0.534654
	N272	N	0.172738	0.466561	0.912249
	N273	N	0.176594	0.541796	0.083338
	N274	N	0.820721	0.467541	0.079372
	N275	N	0.817015	0.541917	0.909211
	O276	O	1.102634	-0.024349	0.937190
	H277	H	1.106252	-0.017894	0.927181
	H278	H	1.099655	-0.012329	0.950272
	O279	O	0.393306	0.567368	0.476271
	H280	H	0.393126	0.566895	0.472754
	H281	H	0.391253	0.563296	0.475128
	O282	O	0.471474	0.411927	0.495607
	H283	H	0.470977	0.420984	0.504069
	H284	H	0.467231	0.396340	0.488205
	O285	O	0.602847	0.435794	0.490739
	H286	H	0.595526	0.436415	0.491614
	H287	H	0.615665	0.451847	0.498341
	O288	O	0.536870	0.626773	0.599879
	H289	H	0.540924	0.628026	0.602033
	H290	H	0.535910	0.621040	0.595678
	O291	O	-0.097634	-0.036544	0.935533
	H292	H	-0.091831	-0.045471	0.934301
	H293	H	-0.086250	-0.030785	0.928284
	O294	O	0.863692	0.817092	0.124494
	H295	H	0.848726	0.801257	0.127414
	H296	H	0.853755	0.813629	0.133404
	O297	O	1.001340	1.046704	-0.016114
	H298	H	0.989033	1.042114	-0.016108
	H299	H	1.005586	1.046234	-0.015592
	O300	O	0.458740	0.499732	0.356209
	H301	H	0.452154	0.494237	0.364028
	H302	H	0.473343	0.496567	0.347011
	O303	O	0.456832	0.419623	0.549760
	H304	H	0.468054	0.413266	0.559838
	H305	H	0.472612	0.417441	0.544216
	O306	O	0.416851	0.525530	0.377453
	H307	H	0.407266	0.525358	0.379154
	H308	H	0.428392	0.540131	0.376129
	O309	O	0.585402	0.431557	0.449241
	H310	H	0.580134	0.430218	0.466389
	H311	H	0.591178	0.427789	0.438696
	O312	O	1.038875	0.944851	0.948364
	H313	H	1.027332	0.939697	0.957683
	H314	H	1.038461	0.950884	0.963104
	O315	O	1.033672	1.022254	0.116557
	H316	H	1.018953	1.022283	0.126341
	H317	H	1.032813	1.021770	0.121549
	O318	O	0.473089	0.486606	0.500135
	H319	H	0.469187	0.479893	0.505783
	H320	H	0.472635	0.500251	0.504090
	O321	O	0.472154	0.405008	0.504678
	H322	H	0.476792	0.405164	0.513414
	H323	H	0.457255	0.403367	0.510573
	O324	O	0.117855	1.119403	0.959843
	H325	H	0.123296	1.122878	0.977197
	H326	H	0.131441	1.122040	0.964568
	O327	O	-0.065478	0.852237	1.105443
	H328	H	-0.062662	0.866155	1.094556
	H329	H	-0.060444	0.857103	1.106480
	O330	O	-0.087931	0.002093	0.031842
	H331	H	-0.087927	-0.009351	0.022284
	H332	H	-0.089114	0.004031	0.024582
	O333	O	0.517841	0.600143	0.607960
	H334	H	0.521331	0.588559	0.607508
	H335	H	0.517962	0.602865	0.613705
	O336	O	0.155656	-0.076388	0.001143
	H337	H	0.157504	-0.090384	0.001071
	H338	H	0.166379	-0.079257	-0.012006
	O339	O	-0.089966	-0.042409	-0.098408
	H340	H	-0.092366	-0.041818	-0.091562
	H341	H	-0.085147	-0.043681	-0.095369
	O342	O	0.548105	0.627032	0.402891
	H343	H	0.550339	0.635778	0.395160
	H344	H	0.538587	0.613897	0.403772
	O345	O	-0.071310	1.089624	1.002153
	H346	H	-0.078373	1.089379	1.003554
	H347	H	-0.070692	1.095527	1.003866
	O348	O	0.495806	0.591998	0.518716
	H349	H	0.499496	0.607286	0.512943
	H350	H	0.496121	0.581814	0.515657
	O351	O	0.455481	0.414010	0.465388
	H352	H	0.448495	0.409876	0.466091
	H353	H	0.460343	0.414954	0.464527
	O354	O	-0.043312	1.052492	-0.075051
	H355	H	-0.035217	1.053288	-0.066823
	H356	H	-0.049692	1.061124	-0.074990
	O357	O	0.029908	0.075504	1.096344
	H358	H	0.028553	0.074562	1.091550
	H359	H	0.044099	0.072285	1.091911
	O360	O	1.129118	0.041495	1.165521
	H361	H	1.126274	0.044871	1.165405
	H362	H	1.141692	0.044410	1.163893
	O363	O	0.568515	0.462419	0.597056
	H364	H	0.559030	0.473196	0.596977
	H365	H	0.570632	0.457070	0.587764
	O366	O	0.470294	0.626005	0.481349
	H367	H	0.464591	0.633630	0.470237
	H368	H	0.477636	0.614200	0.477240
	O369	O	1.052811	0.150318	0.014452
	H370	H	1.053475	0.146034	0.013918
	H371	H	1.046863	0.151881	0.017908
	O372	O	0.502175	0.592086	0.563374
	H373	H	0.512590	0.593559	0.561814
	H374	H	0.498406	0.601053	0.562139
	O375	O	1.040661	0.034995	0.922597
	H376	H	1.031657	0.044678	0.927004
	H377	H	1.049441	0.041930	0.917645
	O378	O	0.088532	0.877166	-0.099207
	H379	H	0.088170	0.882141	-0.101841
	H380	H	0.088289	0.876369	-0.103774
	O381	O	0.490557	0.471889	0.445465
	H382	H	0.487343	0.468344	0.445556
	H383	H	0.496037	0.461795	0.449791
	O384	O	0.971141	1.130903	0.061378
	H385	H	0.977785	1.153085	0.065866
	H386	H	0.981005	1.114622	0.073147
	O387	O	0.875818	0.010867	0.993046
	H388	H	0.880906	0.004400	1.000120
	H389	H	0.875832	0.001700	0.987473
	O390	O	1.058914	0.954215	-0.037303
	H391	H	1.060235	0.954780	-0.039098
	H392	H	1.064136	0.955141	-0.041668
	O393	O	0.565414	0.478980	0.478186
	H394	H	0.575316	0.482379	0.485316
	H395	H	0.562218	0.488081	0.487151
