data_Molecule from HDF5

_cell_length_a		16.445813
_cell_length_b		16.249647
_cell_length_c		16.261926
_cell_angle_alpha	89.793785
_cell_angle_beta	90.343390
_cell_angle_gamma	90.037438
_symmetry_space_group_name_H-M	'P 1'
_symmetry_Int_Tables_number		1

loop_
	_symmetry_equiv_pos_as_xyz
	x,y,z

loop_
	_atom_site_label
	_atom_site_type_symbol
	_atom_site_fract_x
	_atom_site_fract_y
	_atom_site_fract_z
	H0	H	0.401903	0.835911	0.710500
	H1	H	0.601388	0.162112	0.710005
	H2	H	0.598880	0.835141	0.280669
	H3	H	0.401401	0.162695	0.278783
	H4	H	0.719687	0.395356	0.834698
	H5	H	0.720221	0.601766	0.157948
	H6	H	0.283418	0.600833	0.833909
	H7	H	0.285843	0.396244	0.159193
	H8	H	0.840640	0.718090	0.391612
	H9	H	0.163744	0.716747	0.597018
	H10	H	0.841098	0.281609	0.595795
	H11	H	0.164193	0.284451	0.397316
	H12	H	0.840801	0.398390	0.712158
	H13	H	0.163344	0.600222	0.714755
	H14	H	0.841014	0.602327	0.274931
	H15	H	0.163189	0.400208	0.279951
	H16	H	0.400869	0.714805	0.832826
	H17	H	0.602335	0.713972	0.159156
	H18	H	0.598140	0.284696	0.832219
	H19	H	0.401194	0.281153	0.157692
	H20	H	0.719723	0.836980	0.392157
	H21	H	0.718253	0.162120	0.595074
	H22	H	0.283597	0.837158	0.598104
	H23	H	0.282532	0.160924	0.390890
	H24	H	0.902715	0.336761	0.212641
	H25	H	0.102709	0.663069	0.211843
	H26	H	0.100792	0.336296	0.781415
	H27	H	0.900170	0.661726	0.778061
	H28	H	0.218484	0.897133	0.332462
	H29	H	0.222438	0.102007	0.656429
	H30	H	0.782974	0.104235	0.333442
	H31	H	0.784364	0.895904	0.656937
	H32	H	0.339083	0.216539	0.891352
	H33	H	0.661782	0.215287	0.096085
	H34	H	0.340522	0.779628	0.097364
	H35	H	0.661792	0.780317	0.895448
	H36	H	0.339893	0.896524	0.212941
	H37	H	0.661453	0.100460	0.213356
	H38	H	0.340158	0.100172	0.774813
	H39	H	0.661385	0.895204	0.777287
	H40	H	0.903057	0.215626	0.332101
	H41	H	0.104081	0.213963	0.659220
	H42	H	0.101105	0.782984	0.331987
	H43	H	0.903079	0.782886	0.657886
	H44	H	0.219081	0.337126	0.894159
	H45	H	0.222479	0.660910	0.100677
	H46	H	0.782750	0.337678	0.101250
	H47	H	0.782061	0.661362	0.891758
	H48	H	0.406051	0.117320	0.587053
	H49	H	0.597228	0.881306	0.587798
	H50	H	0.592794	0.115802	0.402108
	H51	H	0.408859	0.886469	0.413778
	H52	H	0.602404	0.403180	0.115553
	H53	H	0.591443	0.586434	0.881460
	H54	H	0.415336	0.590565	0.110925
	H55	H	0.406893	0.404298	0.878053
	H56	H	0.115454	0.593331	0.406190
	H57	H	0.886273	0.594490	0.588902
	H58	H	0.117921	0.406212	0.591472
	H59	H	0.884648	0.402306	0.398355
	H60	H	0.117340	0.405038	0.588478
	H61	H	0.889414	0.590559	0.581938
	H62	H	0.113399	0.587539	0.406725
	H63	H	0.889262	0.405272	0.412186
	H64	H	0.408149	0.591591	0.114073
	H65	H	0.590966	0.590082	0.880707
	H66	H	0.593300	0.417059	0.108891
	H67	H	0.403991	0.411940	0.879941
	H68	H	0.591819	0.113713	0.405485
	H69	H	0.590780	0.884040	0.587520
	H70	H	0.417733	0.112927	0.586262
	H71	H	0.401416	0.879592	0.400204
	H72	H	0.917123	0.611940	0.082625
	H73	H	0.094436	0.384562	0.087875
	H74	H	0.095978	0.615781	0.904981
	H75	H	0.905261	0.382922	0.908445
	H76	H	0.092133	0.902414	0.611835
	H77	H	0.090780	0.088501	0.381459
	H78	H	0.910418	0.091062	0.611231
	H79	H	0.915772	0.913896	0.382622
	H80	H	0.611127	0.088586	0.910893
	H81	H	0.391195	0.078161	0.082013
	H82	H	0.615171	0.910834	0.091976
	H83	H	0.386326	0.904286	0.905430
	H84	H	0.616782	0.901201	0.089809
	H85	H	0.381560	0.091255	0.099627
	H86	H	0.614711	0.084445	0.898023
	H87	H	0.389542	0.911295	0.905648
	H88	H	0.907968	0.089505	0.611472
	H89	H	0.091197	0.093230	0.379279
	H90	H	0.100433	0.910571	0.611394
	H91	H	0.911260	0.902236	0.377764
	H92	H	0.088981	0.613611	0.904612
	H93	H	0.094765	0.383765	0.088446
	H94	H	0.905648	0.614539	0.079550
	H95	H	0.910071	0.382679	0.901780
	H96	H	0.409365	0.111866	0.576344
	H97	H	0.595086	0.884405	0.581372
	H98	H	0.596069	0.114485	0.405121
	H99	H	0.417481	0.884378	0.399824
	H100	H	0.585898	0.401036	0.110334
	H101	H	0.594329	0.588687	0.880392
	H102	H	0.410065	0.584031	0.110287
	H103	H	0.412224	0.408888	0.881818
	H104	H	0.115788	0.589783	0.401776
	H105	H	0.888614	0.586177	0.588726
	H106	H	0.116841	0.408157	0.589541
	H107	H	0.890354	0.415575	0.401692
	H108	H	0.909493	0.616782	0.090286
	H109	H	0.094109	0.383874	0.088791
	H110	H	0.092617	0.613499	0.910959
	H111	H	0.912886	0.385908	0.908426
	H112	H	0.090189	0.912647	0.606819
	H113	H	0.095356	0.090580	0.379279
	H114	H	0.911172	0.088257	0.610428
	H115	H	0.903296	0.913157	0.378033
	H116	H	0.617253	0.097870	0.902107
	H117	H	0.385584	0.101462	0.077390
	H118	H	0.613473	0.907879	0.082596
	H119	H	0.387010	0.907683	0.899489
	C120	C	0.380844	0.006995	0.614678
	C121	C	0.623777	0.990542	0.615811
	C122	C	0.623133	0.007239	0.373819
	C123	C	0.378882	0.990863	0.372794
	C124	C	0.623090	0.377072	0.004357
	C125	C	0.622759	0.619177	0.987887
	C126	C	0.380523	0.619513	0.004399
	C127	C	0.378881	0.377404	0.987361
	C128	C	0.009459	0.621494	0.373379
	C129	C	0.994341	0.620681	0.617357
	C130	C	0.010737	0.376536	0.619017
	C131	C	0.994426	0.378155	0.374767
	C132	C	0.880697	0.507595	0.116260
	C133	C	0.124503	0.491260	0.118560
	C134	C	0.122344	0.507554	0.876210
	C135	C	0.878942	0.490926	0.874537
	C136	C	0.123582	0.877748	0.503074
	C137	C	0.123394	0.120364	0.487280
	C138	C	0.880295	0.120818	0.503681
	C139	C	0.880447	0.878423	0.486489
	C140	C	0.508623	0.120804	0.872450
	C141	C	0.492321	0.120242	0.116377
	C142	C	0.509307	0.876149	0.118039
	C143	C	0.493133	0.876829	0.873561
	C144	C	0.381934	0.884675	0.672327
	C145	C	0.621724	0.113343	0.671766
	C146	C	0.620134	0.884260	0.318290
	C147	C	0.380646	0.113152	0.315932
	C148	C	0.680273	0.376637	0.882884
	C149	C	0.681073	0.620348	0.109587
	C150	C	0.322626	0.620070	0.882315
	C151	C	0.323625	0.377240	0.109958
	C152	C	0.888691	0.679210	0.372779
	C153	C	0.115555	0.678079	0.617054
	C154	C	0.889383	0.320008	0.616684
	C155	C	0.115482	0.321968	0.376615
	C156	C	0.889209	0.378423	0.674138
	C157	C	0.115452	0.620291	0.675590
	C158	C	0.888787	0.621556	0.314685
	C159	C	0.115214	0.380006	0.318418
	C160	C	0.381169	0.676453	0.881684
	C161	C	0.622503	0.676467	0.110048
	C162	C	0.619587	0.321821	0.881419
	C163	C	0.381147	0.319890	0.109483
	C164	C	0.680288	0.885210	0.373646
	C165	C	0.679875	0.113241	0.614866
	C166	C	0.323146	0.885288	0.616258
	C167	C	0.321463	0.112388	0.371752
	C168	C	0.881866	0.385431	0.174420
	C169	C	0.123171	0.613978	0.174506
	C170	C	0.120983	0.385080	0.819586
	C171	C	0.879920	0.613007	0.816570
	C172	C	0.179999	0.877898	0.381052
	C173	C	0.182363	0.120501	0.608673
	C174	C	0.822716	0.122412	0.381729
	C175	C	0.823410	0.877088	0.608484
	C176	C	0.387458	0.177903	0.871994
	C177	C	0.613568	0.177104	0.115816
	C178	C	0.388556	0.818366	0.117218
	C179	C	0.613764	0.819062	0.874988
	C180	C	0.388294	0.876640	0.174668
	C181	C	0.613466	0.119805	0.173991
	C182	C	0.388063	0.120155	0.813820
	C183	C	0.613471	0.876309	0.816167
	C184	C	0.882077	0.178088	0.381193
	C185	C	0.123446	0.176353	0.609902
	C186	C	0.121444	0.821131	0.380667
	C187	C	0.882011	0.820598	0.608875
	C188	C	0.179649	0.385410	0.875940
	C189	C	0.182629	0.612907	0.119118
	C190	C	0.822342	0.385951	0.119092
	C191	C	0.821201	0.612634	0.873241
	C192	C	0.404250	0.092090	0.590289
	C193	C	0.601164	0.905363	0.592331
	C194	C	0.600229	0.092453	0.397400
	C195	C	0.402410	0.905490	0.397597
	C196	C	0.600432	0.400348	0.089463
	C197	C	0.599018	0.595334	0.903121
	C198	C	0.404272	0.595579	0.089574
	C199	C	0.401197	0.401305	0.902093
	C200	C	0.093269	0.597447	0.397845
	C201	C	0.910170	0.597294	0.593431
	C202	C	0.095375	0.399811	0.596520
	C203	C	0.909905	0.401138	0.397355
	C204	C	0.904085	0.592428	0.091416
	C205	C	0.101181	0.406217	0.095357
	C206	C	0.099180	0.592389	0.900094
	C207	C	0.902407	0.405988	0.899059
	C208	C	0.100938	0.901616	0.588139
	C209	C	0.099415	0.097547	0.402125
	C210	C	0.903247	0.096515	0.588969
	C211	C	0.903324	0.902707	0.401761
	C212	C	0.592524	0.097296	0.896846
	C213	C	0.407994	0.097112	0.093047
	C214	C	0.593293	0.899624	0.094938
	C215	C	0.409436	0.900863	0.896835
	Zn216	Zn	0.501475	-0.001030	0.743464
	Zn217	Zn	0.500812	-0.000962	0.245655
	Zn218	Zn	0.751241	0.499092	-0.003515
	Zn219	Zn	0.251739	0.498925	-0.003265
	Zn220	Zn	0.002052	0.750077	0.495152
	Zn221	Zn	0.002604	0.248183	0.496277
	Zn222	Zn	0.001874	0.499417	0.747499
	Zn223	Zn	0.001791	0.499849	0.244475
	Zn224	Zn	0.501268	0.747411	-0.004243
	Zn225	Zn	0.500170	0.249592	-0.004819
	Zn226	Zn	0.752295	-0.000633	0.494669
	Zn227	Zn	0.251761	-0.000641	0.494628
	N228	N	0.416896	0.961467	0.671587
	N229	N	0.587789	0.036015	0.672771
	N230	N	0.585566	0.961407	0.317862
	N231	N	0.415546	0.036228	0.316553
	N232	N	0.682591	0.410170	0.960387
	N233	N	0.681165	0.585446	0.032685
	N234	N	0.321848	0.585690	0.959727
	N235	N	0.322104	0.412223	0.032842
	N236	N	0.964670	0.679228	0.408590
	N237	N	0.039483	0.678348	0.581519
	N238	N	0.965973	0.318460	0.583330
	N239	N	0.039381	0.320938	0.411125
	N240	N	0.965801	0.412659	0.675673
	N241	N	0.039133	0.585503	0.675908
	N242	N	0.964740	0.586508	0.314905
	N243	N	0.038679	0.414132	0.317184
	N244	N	0.416204	0.676338	0.958705
	N245	N	0.586711	0.675799	0.033410
	N246	N	0.585094	0.321581	0.958172
	N247	N	0.414686	0.319923	0.032251
	N248	N	0.682327	0.962703	0.407269
	N249	N	0.681487	0.035771	0.580931
	N250	N	0.322352	0.962461	0.581261
	N251	N	0.320158	0.034909	0.406027
	N252	N	0.917307	0.462009	0.172974
	N253	N	0.087641	0.537263	0.174262
	N254	N	0.086062	0.461782	0.819736
	N255	N	0.915025	0.536257	0.817340
	N256	N	0.181395	0.912457	0.458179
	N257	N	0.182287	0.086131	0.531497
	N258	N	0.821440	0.087598	0.458904
	N259	N	0.822100	0.912190	0.531442
	N260	N	0.463448	0.178544	0.907866
	N261	N	0.537151	0.177524	0.080680
	N262	N	0.464683	0.817908	0.082557
	N263	N	0.537967	0.819098	0.909762
	N264	N	0.464300	0.911793	0.175383
	N265	N	0.537278	0.085171	0.174558
	N266	N	0.464270	0.085526	0.813948
	N267	N	0.537493	0.911674	0.815067
	N268	N	0.917182	0.177314	0.458246
	N269	N	0.087367	0.176364	0.533430
	N270	N	0.087213	0.820849	0.457551
	N271	N	0.916750	0.821074	0.532127
	N272	N	0.180705	0.462650	0.910625
	N273	N	0.183561	0.535777	0.084981
	N274	N	0.821598	0.462896	0.083603
	N275	N	0.820377	0.535572	0.908497
	O276	O	0.040662	0.102800	0.010833
	H277	H	0.036704	0.114100	0.017747
	H278	H	0.043182	0.103320	0.019533
	O279	O	0.104606	0.023963	-0.034447
	H280	H	0.102912	0.028333	-0.053797
	H281	H	0.116346	0.037152	-0.033231
	O282	O	1.013755	0.131287	-0.026003
	H283	H	1.030130	0.137416	-0.022120
	H284	H	1.023560	0.130675	-0.022951
	O285	O	0.044705	0.863649	-0.089740
	H286	H	0.039799	0.865204	-0.083136
	H287	H	0.041416	0.853404	-0.102055
	O288	O	0.547434	0.496608	0.387869
	H289	H	0.552055	0.494430	0.398463
	H290	H	0.546619	0.496770	0.387547
	O291	O	0.473098	0.408570	0.538828
	H292	H	0.487698	0.402157	0.533295
	H293	H	0.480873	0.420621	0.535281
	O294	O	0.912136	1.002568	1.040479
	H295	H	0.907380	1.007151	1.041091
	H296	H	0.918947	1.013674	1.044490
	O297	O	-0.147136	-0.120700	0.190771
	H298	H	-0.136078	-0.138814	0.195087
	H299	H	-0.159557	-0.117384	0.198341
	O300	O	0.573968	0.465320	0.410814
	H301	H	0.565075	0.466565	0.412757
	H302	H	0.583346	0.452385	0.404267
	O303	O	-0.026723	0.967084	0.994057
	H304	H	-0.025419	0.957964	1.005985
	H305	H	-0.021405	0.977710	0.986500
	O306	O	0.517554	0.466579	0.554707
	H307	H	0.525158	0.479698	0.564357
	H308	H	0.526919	0.463293	0.568363
	O309	O	0.920688	0.057323	0.072256
	H310	H	0.904895	0.064110	0.083263
	H311	H	0.922995	0.068390	0.074119
	O312	O	0.127163	-0.076988	1.040253
	H313	H	0.144803	-0.082213	1.023221
	H314	H	0.120077	-0.082230	1.045623
	O315	O	0.105117	0.967892	0.905611
	H316	H	0.108120	0.971466	0.913435
	H317	H	0.096638	0.964331	0.899089
	O318	O	0.525109	0.476092	0.550707
	H319	H	0.524698	0.479042	0.530483
	H320	H	0.522345	0.486073	0.564967
	O321	O	0.421649	0.496293	0.473474
	H322	H	0.426515	0.487422	0.469846
	H323	H	0.414601	0.489424	0.494923
	O324	O	0.419858	0.586892	0.403669
	H325	H	0.423628	0.580126	0.402753
	H326	H	0.417489	0.590199	0.406376
	O327	O	-0.589687	1.453557	1.557704
	H328	H	-0.587110	1.455602	1.556430
	H329	H	-0.580857	1.467070	1.559018
	O330	O	0.554998	0.499768	0.568232
	H331	H	0.549213	0.500174	0.560804
	H332	H	0.554635	0.498373	0.577300
	O333	O	0.170565	0.865459	0.871378
	H334	H	0.172818	0.876114	0.865572
	H335	H	0.165406	0.847120	0.868567
	O336	O	0.871707	1.120257	0.884479
	H337	H	0.862596	1.121192	0.881174
	H338	H	0.875030	1.121220	0.864452
	O339	O	0.612729	0.451999	0.617794
	H340	H	0.613063	0.461174	0.605559
	H341	H	0.604657	0.457496	0.612851
	O342	O	1.140580	-0.082061	-0.061919
	H343	H	1.136708	-0.083824	-0.060808
	H344	H	1.132987	-0.069029	-0.067406
	O345	O	0.580004	0.595987	0.563737
	H346	H	0.582669	0.603919	0.564627
	H347	H	0.579040	0.582713	0.548980
	O348	O	0.845746	0.953476	0.977576
	H349	H	0.848120	0.964949	0.982428
	H350	H	0.836328	0.947070	0.974083
	O351	O	1.164232	1.078180	0.074911
	H352	H	1.174134	1.067732	0.070486
	H353	H	1.175658	1.084053	0.075248
	O354	O	0.924434	0.120908	0.803223
	H355	H	0.919924	0.128783	0.796967
	H356	H	0.916604	0.115121	0.807220
	O357	O	0.533506	0.428956	0.441661
	H358	H	0.531687	0.420962	0.450288
	H359	H	0.520849	0.424471	0.440403
	O360	O	-0.098053	0.160762	-0.084060
	H361	H	-0.097359	0.144335	-0.085232
	H362	H	-0.111211	0.167173	-0.091818
	O363	O	0.393181	0.470655	0.524309
	H364	H	0.395988	0.481721	0.528025
	H365	H	0.404497	0.472251	0.521938
	O366	O	0.548737	0.446862	0.504050
	H367	H	0.550323	0.451508	0.504496
	H368	H	0.547076	0.441127	0.504427
	O369	O	0.801739	0.041799	0.164208
	H370	H	0.818844	0.043551	0.171736
	H371	H	0.802747	0.042655	0.167158
	O372	O	0.581442	0.509980	0.445491
	H373	H	0.573241	0.501938	0.439753
	H374	H	0.582436	0.515046	0.437092
	O375	O	0.397440	0.569640	0.375343
	H376	H	0.383739	0.576067	0.371154
	H377	H	0.388945	0.576528	0.367047
	O378	O	0.434323	0.633916	0.435019
	H379	H	0.422301	0.648263	0.438774
	H380	H	0.428551	0.635090	0.426241
	O381	O	0.516823	0.614239	0.450260
	H382	H	0.514176	0.615300	0.436356
	H383	H	0.516231	0.618804	0.444653
	O384	O	0.069466	1.098430	0.146344
	H385	H	0.073102	1.084724	0.147981
	H386	H	0.068735	1.102033	0.151982
	O387	O	0.983946	-0.155657	1.070627
	H388	H	1.002577	-0.139520	1.062083
	H389	H	0.981288	-0.159267	1.065633
	O390	O	-0.071516	0.891327	0.045017
	H391	H	-0.082257	0.896439	0.032544
	H392	H	-0.054947	0.884737	0.053752
	O393	O	1.091806	1.045457	-0.025393
	H394	H	1.083556	1.039621	-0.024608
	H395	H	1.086946	1.037712	-0.020919
	O396	O	0.547070	0.445091	0.577636
	H397	H	0.537025	0.450554	0.567615
	H398	H	0.546787	0.449764	0.574535
	O399	O	-0.082216	1.110210	1.033888
	H400	H	-0.096270	1.121036	1.026149
	H401	H	-0.082423	1.120491	1.024817
	O402	O	0.966813	0.939248	0.893607
	H403	H	0.960221	0.946687	0.887595
	H404	H	0.945349	0.937447	0.900332
	O405	O	0.552854	0.587601	0.504698
	H406	H	0.541876	0.592048	0.500448
	H407	H	0.564001	0.585489	0.502107
