data_Molecule from HDF5

_cell_length_a		16.526140
_cell_length_b		16.638875
_cell_length_c		16.484545
_cell_angle_alpha	89.951747
_cell_angle_beta	89.997479
_cell_angle_gamma	90.025540
_symmetry_space_group_name_H-M	'P 1'
_symmetry_Int_Tables_number		1

loop_
	_symmetry_equiv_pos_as_xyz
	x,y,z

loop_
	_atom_site_label
	_atom_site_type_symbol
	_atom_site_fract_x
	_atom_site_fract_y
	_atom_site_fract_z
	H0	H	0.415934	0.831687	0.718818
	H1	H	0.623743	0.145596	0.722259
	H2	H	0.621498	0.831360	0.279426
	H3	H	0.411715	0.144003	0.277824
	H4	H	0.737646	0.383271	0.842273
	H5	H	0.737876	0.591514	0.158549
	H6	H	0.301144	0.589272	0.840312
	H7	H	0.300328	0.388241	0.159586
	H8	H	0.858634	0.707728	0.396582
	H9	H	0.173043	0.709461	0.604709
	H10	H	0.859338	0.264881	0.608625
	H11	H	0.173693	0.268296	0.397463
	H12	H	0.857869	0.384965	0.720034
	H13	H	0.175189	0.589150	0.717863
	H14	H	0.859044	0.591359	0.280308
	H15	H	0.175284	0.386248	0.282527
	H16	H	0.416669	0.705819	0.841314
	H17	H	0.624686	0.710540	0.157671
	H18	H	0.623179	0.266211	0.843331
	H19	H	0.412485	0.268187	0.158126
	H20	H	0.737647	0.831141	0.396183
	H21	H	0.739616	0.145059	0.605364
	H22	H	0.298740	0.831618	0.602066
	H23	H	0.295123	0.144374	0.394816
	H24	H	0.910441	0.332830	0.224607
	H25	H	0.119667	0.644931	0.219901
	H26	H	0.119285	0.330297	0.780650
	H27	H	0.913230	0.644088	0.779984
	H28	H	0.237608	0.884201	0.343711
	H29	H	0.237586	0.092245	0.658975
	H30	H	0.796243	0.093335	0.342738
	H31	H	0.798363	0.886964	0.659041
	H32	H	0.359671	0.208595	0.894399
	H33	H	0.673550	0.209732	0.105346
	H34	H	0.359736	0.767694	0.105119
	H35	H	0.676581	0.771238	0.899088
	H36	H	0.358889	0.884208	0.219836
	H37	H	0.674727	0.090608	0.219892
	H38	H	0.359232	0.090210	0.781046
	H39	H	0.676974	0.888540	0.783579
	H40	H	0.911234	0.210017	0.344025
	H41	H	0.122801	0.210050	0.658705
	H42	H	0.121955	0.768190	0.343377
	H43	H	0.913595	0.769096	0.658931
	H44	H	0.238245	0.331154	0.895630
	H45	H	0.235285	0.645711	0.101922
	H46	H	0.793766	0.332217	0.106978
	H47	H	0.795483	0.643569	0.895672
	H48	H	0.428483	0.100535	0.590911
	H49	H	0.613610	0.874931	0.593281
	H50	H	0.606655	0.099468	0.408454
	H51	H	0.427155	0.875756	0.408470
	H52	H	0.606816	0.397719	0.113974
	H53	H	0.604592	0.583234	0.888164
	H54	H	0.430241	0.576926	0.111902
	H55	H	0.424803	0.397564	0.886145
	H56	H	0.126911	0.574092	0.414581
	H57	H	0.905175	0.576401	0.587659
	H58	H	0.123509	0.401241	0.578991
	H59	H	0.903359	0.403255	0.405695
	H60	H	0.127928	0.405716	0.596850
	H61	H	0.902332	0.577226	0.594830
	H62	H	0.131528	0.578445	0.404480
	H63	H	0.901909	0.390688	0.414476
	H64	H	0.427367	0.582953	0.115159
	H65	H	0.610157	0.577394	0.887106
	H66	H	0.605508	0.401479	0.111724
	H67	H	0.430172	0.400193	0.888229
	H68	H	0.604949	0.098623	0.411271
	H69	H	0.601544	0.877388	0.595399
	H70	H	0.426746	0.100548	0.588767
	H71	H	0.429949	0.878483	0.413611
	H72	H	0.933532	0.597346	0.090192
	H73	H	0.102633	0.377307	0.092072
	H74	H	0.103474	0.596804	0.914874
	H75	H	0.923383	0.373189	0.907596
	H76	H	0.101222	0.896938	0.613201
	H77	H	0.105872	0.081175	0.388024
	H78	H	0.932563	0.071559	0.609132
	H79	H	0.927095	0.894847	0.386487
	H80	H	0.630959	0.085354	0.914841
	H81	H	0.405066	0.080263	0.085597
	H82	H	0.629907	0.899519	0.089151
	H83	H	0.401812	0.891670	0.905858
	H84	H	0.628794	0.898613	0.089168
	H85	H	0.406628	0.073611	0.087075
	H86	H	0.625780	0.072866	0.916631
	H87	H	0.405985	0.895888	0.915425
	H88	H	0.931156	0.081955	0.613983
	H89	H	0.107680	0.075706	0.389114
	H90	H	0.109200	0.895567	0.616077
	H91	H	0.924435	0.897781	0.386543
	H92	H	0.117890	0.601570	0.910558
	H93	H	0.111495	0.376461	0.085956
	H94	H	0.927089	0.597719	0.083620
	H95	H	0.933585	0.377083	0.909071
	H96	H	0.426259	0.102254	0.591393
	H97	H	0.606989	0.880070	0.583946
	H98	H	0.607895	0.099817	0.411572
	H99	H	0.423457	0.877322	0.414149
	H100	H	0.603220	0.398303	0.112058
	H101	H	0.602904	0.575495	0.890224
	H102	H	0.423319	0.577017	0.114017
	H103	H	0.429275	0.394115	0.886584
	H104	H	0.131136	0.585483	0.414583
	H105	H	0.902000	0.583284	0.589726
	H106	H	0.132120	0.388116	0.590202
	H107	H	0.908457	0.403307	0.420324
	H108	H	0.924932	0.601023	0.092392
	H109	H	0.111445	0.372915	0.096052
	H110	H	0.105911	0.601922	0.900213
	H111	H	0.926215	0.377787	0.917551
	H112	H	0.107390	0.902828	0.612488
	H113	H	0.102172	0.077190	0.390149
	H114	H	0.922843	0.074134	0.614044
	H115	H	0.928431	0.898832	0.388016
	H116	H	0.631106	0.076296	0.904197
	H117	H	0.403904	0.077514	0.092129
	H118	H	0.628442	0.899007	0.088914
	H119	H	0.405112	0.902145	0.906275
	C120	C	0.396175	-0.002533	0.621787
	C121	C	0.639370	0.981053	0.622313
	C122	C	0.638413	-0.003865	0.378615
	C123	C	0.394624	0.979892	0.378835
	C124	C	0.637944	0.366898	0.008627
	C125	C	0.638449	0.609833	0.992525
	C126	C	0.396655	0.609077	0.008393
	C127	C	0.396003	0.366461	0.991754
	C128	C	0.025292	0.610133	0.379381
	C129	C	1.007700	0.609537	0.621711
	C130	C	0.024391	0.366207	0.622125
	C131	C	1.008464	0.367473	0.380721
	C132	C	0.895773	0.495947	0.121854
	C133	C	0.139042	0.479592	0.121826
	C134	C	0.139878	0.496049	0.877428
	C135	C	0.895636	0.479132	0.879179
	C136	C	0.137663	0.867496	0.509390
	C137	C	0.137736	0.109770	0.493144
	C138	C	0.895942	0.108895	0.508691
	C139	C	0.895584	0.866805	0.491997
	C140	C	0.525515	0.109582	0.879565
	C141	C	0.508668	0.109245	0.120884
	C142	C	0.525377	0.866700	0.121479
	C143	C	0.509375	0.866947	0.879028
	C144	C	0.396113	0.878846	0.679737
	C145	C	0.641652	0.098620	0.682129
	C146	C	0.639822	0.878312	0.319243
	C147	C	0.393040	0.097166	0.318104
	C148	C	0.698160	0.364804	0.889994
	C149	C	0.698363	0.610876	0.110921
	C150	C	0.339872	0.608525	0.888409
	C151	C	0.338294	0.367491	0.111409
	C152	C	0.906293	0.668657	0.377584
	C153	C	0.126327	0.669018	0.623329
	C154	C	0.906290	0.305735	0.625694
	C155	C	0.126772	0.308185	0.378752
	C156	C	0.905578	0.365171	0.681488
	C157	C	0.127234	0.609356	0.679404
	C158	C	0.906480	0.610458	0.320085
	C159	C	0.127534	0.367066	0.321959
	C160	C	0.397247	0.666620	0.888807
	C161	C	0.641639	0.669709	0.110698
	C162	C	0.640861	0.306747	0.890265
	C163	C	0.394108	0.307994	0.110818
	C164	C	0.697742	0.878326	0.377414
	C165	C	0.699556	0.098277	0.624049
	C166	C	0.337954	0.878926	0.621901
	C167	C	0.335072	0.097405	0.376291
	C168	C	0.892578	0.379156	0.183608
	C169	C	0.138883	0.597988	0.180065
	C170	C	0.139297	0.377580	0.819592
	C171	C	0.894452	0.597113	0.819735
	C172	C	0.197718	0.865835	0.391061
	C173	C	0.197725	0.111184	0.611766
	C174	C	0.836277	0.111393	0.390215
	C175	C	0.837387	0.866945	0.611523
	C176	C	0.407055	0.168552	0.876864
	C177	C	0.626981	0.169123	0.123303
	C178	C	0.407020	0.807367	0.123410
	C179	C	0.628924	0.810274	0.879766
	C180	C	0.406577	0.865627	0.180476
	C181	C	0.627341	0.110226	0.180245
	C182	C	0.406728	0.109764	0.820220
	C183	C	0.629241	0.868397	0.822190
	C184	C	0.893145	0.169789	0.390882
	C185	C	0.140170	0.169114	0.611718
	C186	C	0.140300	0.807917	0.391020
	C187	C	0.894693	0.808631	0.611305
	C188	C	0.198350	0.378041	0.876821
	C189	C	0.196366	0.598316	0.121348
	C190	C	0.834596	0.378888	0.125271
	C191	C	0.835760	0.596726	0.877054
	C192	C	0.420204	0.079724	0.597410
	C193	C	0.614485	0.898860	0.597782
	C194	C	0.613755	0.078058	0.403313
	C195	C	0.419741	0.898350	0.404576
	C196	C	0.612385	0.391992	0.091050
	C197	C	0.613301	0.585476	0.909983
	C198	C	0.420155	0.585825	0.092013
	C199	C	0.420878	0.390266	0.908687
	C200	C	0.108261	0.586298	0.404279
	C201	C	0.924744	0.585867	0.597584
	C202	C	0.106507	0.391066	0.596202
	C203	C	0.926001	0.392111	0.406109
	C204	C	0.921156	0.577469	0.095937
	C205	C	0.115505	0.397149	0.098175
	C206	C	0.115849	0.578558	0.901474
	C207	C	0.920439	0.397317	0.904299
	C208	C	0.112955	0.891705	0.592436
	C209	C	0.112416	0.084972	0.410536
	C210	C	0.921566	0.083282	0.591136
	C211	C	0.919655	0.890425	0.408720
	C212	C	0.607987	0.085286	0.904753
	C213	C	0.426606	0.084429	0.095476
	C214	C	0.607693	0.891719	0.096323
	C215	C	0.425934	0.889953	0.902367
	Zn216	Zn	0.517740	-0.011017	0.750726
	Zn217	Zn	0.516738	-0.012200	0.250008
	Zn218	Zn	0.766279	0.487693	0.000748
	Zn219	Zn	0.267833	0.488124	-0.000046
	Zn220	Zn	0.016706	0.738366	0.500635
	Zn221	Zn	0.016305	0.238043	0.501423
	Zn222	Zn	0.016733	0.487424	0.749561
	Zn223	Zn	0.017114	0.488123	0.251248
	Zn224	Zn	0.517605	0.738207	0.000767
	Zn225	Zn	0.516804	0.238493	0.000473
	Zn226	Zn	0.767419	-0.011401	0.500373
	Zn227	Zn	0.266312	-0.011200	0.500942
	N228	N	0.431397	0.953581	0.680028
	N229	N	0.604726	0.024628	0.681064
	N230	N	0.603494	0.952528	0.319981
	N231	N	0.429283	0.023101	0.319591
	N232	N	0.696673	0.401371	0.964675
	N233	N	0.696349	0.574181	0.036414
	N234	N	0.339305	0.573503	0.963993
	N235	N	0.338996	0.402814	0.036083
	N236	N	0.981280	0.668783	0.413561
	N237	N	0.050893	0.669415	0.588440
	N238	N	0.981259	0.306089	0.589511
	N239	N	0.051573	0.308107	0.414404
	N240	N	0.980031	0.401831	0.679536
	N241	N	0.052461	0.573296	0.678705
	N242	N	0.981577	0.575031	0.320849
	N243	N	0.052732	0.402919	0.322866
	N244	N	0.431706	0.667340	0.964667
	N245	N	0.605233	0.669460	0.035790
	N246	N	0.604484	0.307519	0.965230
	N247	N	0.428988	0.307034	0.035202
	N248	N	0.697164	0.952686	0.413469
	N249	N	0.698225	0.024058	0.587756
	N250	N	0.337774	0.953605	0.586665
	N251	N	0.335788	0.023579	0.413293
	N252	N	0.929855	0.452875	0.181580
	N253	N	0.103960	0.523152	0.180693
	N254	N	0.103739	0.452009	0.819909
	N255	N	0.930744	0.522849	0.820666
	N256	N	0.196224	0.902177	0.465849
	N257	N	0.196487	0.075013	0.536891
	N258	N	0.838148	0.073985	0.464532
	N259	N	0.837681	0.902240	0.536217
	N260	N	0.481964	0.168833	0.912764
	N261	N	0.552011	0.168807	0.087348
	N262	N	0.482113	0.807540	0.087682
	N263	N	0.553206	0.808945	0.913998
	N264	N	0.481219	0.901777	0.179467
	N265	N	0.552746	0.073960	0.179134
	N266	N	0.481488	0.073793	0.821714
	N267	N	0.553701	0.902680	0.821213
	N268	N	0.929583	0.168291	0.465728
	N269	N	0.103628	0.168376	0.536920
	N270	N	0.103254	0.808961	0.465599
	N271	N	0.929962	0.808198	0.535817
	N272	N	0.198978	0.452943	0.911794
	N273	N	0.196636	0.523658	0.085967
	N274	N	0.836416	0.452597	0.087703
	N275	N	0.836436	0.522464	0.913414
	O276	O	1.299125	1.454537	-0.282291
	H277	H	1.284972	1.441634	-0.259934
	H278	H	1.296651	1.418943	-0.273773
	O279	O	-0.191550	0.017042	0.881274
	H280	H	-0.186240	0.015547	0.863250
	H281	H	-0.184819	0.014070	0.888335
	O282	O	0.495385	0.471625	0.511774
	H283	H	0.499738	0.471469	0.510468
	H284	H	0.499673	0.484055	0.521765
	O285	O	0.547330	1.404472	0.648197
	H286	H	0.534843	1.404727	0.647727
	H287	H	0.524834	1.404523	0.658254
	O288	O	0.813934	-0.214261	1.026121
	H289	H	0.808593	-0.208393	1.021241
	H290	H	0.816208	-0.223333	1.029322
	O291	O	0.819076	1.177710	0.806410
	H292	H	0.838404	1.186795	0.832079
	H293	H	0.832835	1.163476	0.810358
	O294	O	-0.047609	0.080267	-0.206388
	H295	H	-0.042003	0.067542	-0.203925
	H296	H	-0.046089	0.083508	-0.219979
	O297	O	0.895556	0.027270	0.095343
	H298	H	0.893779	0.013982	0.099282
	H299	H	0.907763	0.012255	0.090597
	O300	O	0.018694	-0.236181	0.080769
	H301	H	0.030222	-0.228026	0.084693
	H302	H	0.016591	-0.237454	0.089097
	O303	O	-0.508644	0.408986	-0.700522
	H304	H	-0.482755	0.424048	-0.688246
	H305	H	-0.497082	0.378862	-0.713255
	O306	O	0.867805	0.006060	0.120587
	H307	H	0.866258	0.016872	0.103446
	H308	H	0.873499	-0.009023	0.128822
	O309	O	0.221475	0.840925	0.839002
	H310	H	0.245412	0.809486	0.809357
	H311	H	0.201091	0.846595	0.850945
	O312	O	0.729563	0.698100	0.633639
	H313	H	0.738647	0.704652	0.655808
	H314	H	0.750867	0.709952	0.634194
	O315	O	0.219042	0.194774	0.205023
	H316	H	0.239892	0.212635	0.192207
	H317	H	0.211060	0.200427	0.198738
	O318	O	0.899294	0.911410	0.097046
	H319	H	0.897324	0.911431	0.101754
	H320	H	0.904843	0.898358	0.108852
	O321	O	-0.139680	1.112145	0.914144
	H322	H	-0.136856	1.115136	0.916015
	H323	H	-0.144828	1.139220	0.919295
	O324	O	0.873779	0.119394	1.092507
	H325	H	0.857448	0.118197	1.101617
	H326	H	0.879556	0.109375	1.100795
	O327	O	0.472232	0.658659	0.680440
	H328	H	0.492632	0.657689	0.674474
	H329	H	0.482632	0.662294	0.681775
	O330	O	0.128443	1.081109	-0.098228
	H331	H	0.124890	1.077071	-0.097229
	H332	H	0.122847	1.075976	-0.093884
	O333	O	0.231066	0.017079	0.217315
	H334	H	0.241727	0.049111	0.227237
	H335	H	0.247028	0.022117	0.215084
	O336	O	0.044425	0.818509	0.849968
	H337	H	0.045225	0.815866	0.872230
	H338	H	0.055646	0.814397	0.830323
	O339	O	0.309378	0.278395	0.622554
	H340	H	0.314804	0.270509	0.607627
	H341	H	0.311225	0.257628	0.604636
	O342	O	-0.075607	0.784038	0.206019
	H343	H	-0.082063	0.769916	0.217578
	H344	H	-0.056311	0.787455	0.208513
	O345	O	0.332848	0.305125	0.336491
	H346	H	0.354206	0.313931	0.353769
	H347	H	0.345939	0.317999	0.341434
	O348	O	-0.007781	1.136883	0.796040
	H349	H	0.002030	1.128918	0.785674
	H350	H	-0.006019	1.140197	0.812221
	O351	O	0.385860	0.630419	1.302571
	H352	H	0.389588	0.594244	1.296545
	H353	H	0.375089	0.628095	1.335492
	O354	O	0.936267	0.081799	1.184901
	H355	H	0.922208	0.075801	1.192649
	H356	H	0.941869	0.081178	1.181838
	O357	O	0.724748	0.482252	0.609153
	H358	H	0.736518	0.474948	0.629089
	H359	H	0.721694	0.466659	0.598530
	O360	O	0.549260	0.259882	0.533647
	H361	H	0.542302	0.256813	0.547659
	H362	H	0.550889	0.266792	0.538311
	O363	O	0.714612	0.653701	0.488447
	H364	H	0.710570	0.675300	0.476863
	H365	H	0.723598	0.660561	0.493013
	O366	O	0.328920	0.287083	0.630011
	H367	H	0.319642	0.270440	0.633593
	H368	H	0.323141	0.276744	0.597841
	O369	O	0.143311	0.018870	0.901054
	H370	H	0.162539	0.008699	0.909503
	H371	H	0.135921	0.029486	0.901584
	O372	O	-0.071658	0.939133	1.038610
	H373	H	-0.068315	0.940836	1.048172
	H374	H	-0.066133	0.937852	1.036195
	O375	O	0.975910	-0.169754	-0.036787
	H376	H	1.000217	-0.170161	-0.026862
	H377	H	0.973675	-0.166910	-0.025258
	O378	O	0.500367	0.274389	0.478685
	H379	H	0.507233	0.279565	0.496134
	H380	H	0.520799	0.274145	0.457918
	O381	O	-0.353676	1.489902	-0.709671
	H382	H	-0.344719	1.497750	-0.722811
	H383	H	-0.364407	1.502147	-0.701791
	O384	O	0.547087	0.612590	0.712982
	H385	H	0.555637	0.629576	0.711478
	H386	H	0.571561	0.623993	0.723524
	O387	O	0.665521	1.393336	1.595800
	H388	H	0.649660	1.402833	1.598741
	H389	H	0.679234	1.384427	1.612043
	O390	O	-0.701461	0.705733	0.716264
	H391	H	-0.678909	0.685300	0.691124
	H392	H	-0.702523	0.690750	0.699731
	O393	O	1.011841	-0.087576	-0.206070
	H394	H	1.027419	-0.095626	-0.222178
	H395	H	1.001690	-0.089456	-0.206721
	O396	O	0.592399	0.540635	0.463314
	H397	H	0.586753	0.516749	0.467047
	H398	H	0.595881	0.536738	0.473185
	O399	O	0.725397	0.563099	0.624102
	H400	H	0.730043	0.545512	0.638895
	H401	H	0.733845	0.572457	0.641970
	O402	O	1.234290	-0.135827	0.869807
	H403	H	1.240793	-0.157526	0.852149
	H404	H	1.250163	-0.153457	0.854762
	O405	O	0.041277	0.210479	-0.025662
	H406	H	0.045160	0.201997	-0.013336
	H407	H	0.024323	0.213014	-0.020617
	O408	O	0.833044	0.797189	0.812399
	H409	H	0.849594	0.812255	0.836500
	H410	H	0.854525	0.815457	0.828010
	O411	O	1.677030	0.652797	-0.674450
	H412	H	1.662993	0.656382	-0.658347
	H413	H	1.669048	0.647504	-0.673553
	O414	O	0.313909	-0.305757	0.471224
	H415	H	0.322618	-0.300112	0.486374
	H416	H	0.309372	-0.307141	0.466226
	O417	O	0.150408	-0.108721	1.038449
	H418	H	0.172935	-0.114435	1.048365
	H419	H	0.148949	-0.108655	1.041514
	O420	O	1.233535	0.205867	1.034922
	H421	H	1.230654	0.192067	1.024741
	H422	H	1.257395	0.225290	1.025729
	O423	O	1.194572	0.803998	0.181978
	H424	H	1.197378	0.821806	0.186518
	H425	H	1.187971	0.809040	0.191247
	O426	O	0.532327	0.707615	0.404826
	H427	H	0.530789	0.707205	0.386170
	H428	H	0.526771	0.711053	0.386690
	O429	O	0.647486	0.450851	0.484530
	H430	H	0.654808	0.446897	0.475771
	H431	H	0.649257	0.469064	0.496203
	O432	O	1.096569	-0.061121	1.029601
	H433	H	1.101090	-0.060176	1.023125
	H434	H	1.098816	-0.069319	1.028976
	O435	O	0.435982	0.706469	0.287324
	H436	H	0.405240	0.711084	0.276316
	H437	H	0.424180	0.706604	0.267489
	O438	O	0.499567	0.410142	0.645097
	H439	H	0.499601	0.418801	0.659442
	H440	H	0.489242	0.402098	0.658356
	O441	O	0.959177	0.958540	0.120915
	H442	H	0.953809	0.961399	0.127882
	H443	H	0.955944	0.955670	0.108200
	O444	O	0.295450	0.542457	0.549009
	H445	H	0.287920	0.533633	0.567491
	H446	H	0.298602	0.538732	0.548494
	O447	O	0.211477	0.055973	0.802589
	H448	H	0.222829	0.033571	0.811935
	H449	H	0.205587	0.058220	0.818947
	O450	O	0.715406	0.279122	0.464979
	H451	H	0.723323	0.276028	0.481326
	H452	H	0.709676	0.271703	0.473610
	O453	O	0.698314	0.301767	0.313198
	H454	H	0.710583	0.330792	0.306974
	H455	H	0.700703	0.309200	0.339850
	O456	O	0.598275	1.508236	0.647975
	H457	H	0.605875	1.522059	0.663612
	H458	H	0.590695	1.525762	0.651494
	O459	O	0.580021	0.266737	0.282694
	H460	H	0.619005	0.260895	0.278953
	H461	H	0.586396	0.243364	0.274203
	O462	O	0.307327	0.438226	0.451989
	H463	H	0.309358	0.430879	0.458756
	H464	H	0.315966	0.447033	0.468576
	O465	O	0.303995	0.531333	0.288276
	H466	H	0.298856	0.514585	0.294285
	H467	H	0.297735	0.514692	0.282715
	O468	O	0.046879	0.933199	0.204809
	H469	H	0.021673	0.947620	0.211582
	H470	H	0.068259	0.932673	0.211749
	O471	O	0.469501	0.647917	0.632653
	H472	H	0.496412	0.664243	0.635520
	H473	H	0.485013	0.645527	0.633885
	O474	O	1.025586	1.172049	0.214330
	H475	H	1.036069	1.164193	0.214760
	H476	H	1.021428	1.195115	0.231611
	O477	O	0.023001	0.108222	0.999514
	H478	H	0.013900	0.101514	1.008259
	H479	H	0.026250	0.101993	1.008948
