data_Molecule from HDF5

_cell_length_a		16.433350
_cell_length_b		16.419465
_cell_length_c		16.514991
_cell_angle_alpha	89.943453
_cell_angle_beta	89.946257
_cell_angle_gamma	90.092675
_symmetry_space_group_name_H-M	'P 1'
_symmetry_Int_Tables_number		1

loop_
	_symmetry_equiv_pos_as_xyz
	x,y,z

loop_
	_atom_site_label
	_atom_site_type_symbol
	_atom_site_fract_x
	_atom_site_fract_y
	_atom_site_fract_z
	H0	H	0.394510	0.846552	0.714722
	H1	H	0.602000	0.165695	0.718346
	H2	H	0.601943	0.850198	0.275706
	H3	H	0.389660	0.165272	0.273573
	H4	H	0.716741	0.405839	0.840340
	H5	H	0.717881	0.614979	0.155363
	H6	H	0.276907	0.611654	0.837890
	H7	H	0.272910	0.400169	0.153598
	H8	H	0.839095	0.728171	0.394408
	H9	H	0.157369	0.728779	0.601257
	H10	H	0.837421	0.289680	0.599105
	H11	H	0.154751	0.285956	0.390418
	H12	H	0.837611	0.406338	0.715358
	H13	H	0.156972	0.613929	0.718256
	H14	H	0.839800	0.614555	0.275808
	H15	H	0.155065	0.400879	0.273920
	H16	H	0.394692	0.726438	0.837189
	H17	H	0.601016	0.730119	0.154720
	H18	H	0.601189	0.289259	0.839274
	H19	H	0.389600	0.284091	0.153410
	H20	H	0.715939	0.848930	0.394027
	H21	H	0.715262	0.167432	0.598290
	H22	H	0.277874	0.848054	0.598353
	H23	H	0.276913	0.167181	0.392596
	H24	H	0.887860	0.351237	0.222618
	H25	H	0.104147	0.665649	0.219288
	H26	H	0.102310	0.348976	0.776818
	H27	H	0.894527	0.667111	0.777772
	H28	H	0.218322	0.904880	0.339487
	H29	H	0.219386	0.115402	0.654716
	H30	H	0.776107	0.114025	0.338689
	H31	H	0.778089	0.905821	0.655699
	H32	H	0.340023	0.229898	0.890976
	H33	H	0.654084	0.232871	0.105122
	H34	H	0.337431	0.787681	0.102108
	H35	H	0.656131	0.788747	0.894216
	H36	H	0.339064	0.901490	0.220429
	H37	H	0.654370	0.117584	0.221633
	H38	H	0.339485	0.114460	0.774677
	H39	H	0.655588	0.902645	0.775683
	H40	H	0.892127	0.230440	0.339199
	H41	H	0.100641	0.228727	0.655917
	H42	H	0.103794	0.787126	0.339832
	H43	H	0.894763	0.787655	0.655100
	H44	H	0.217654	0.349430	0.892482
	H45	H	0.218409	0.665998	0.101872
	H46	H	0.773513	0.350165	0.105201
	H47	H	0.779391	0.668191	0.897049
	H48	H	0.406015	0.120921	0.586225
	H49	H	0.579419	0.896039	0.587336
	H50	H	0.591457	0.124251	0.405983
	H51	H	0.408184	0.896233	0.410391
	H52	H	0.582525	0.415637	0.111293
	H53	H	0.589864	0.592088	0.885876
	H54	H	0.409470	0.599583	0.108808
	H55	H	0.409028	0.416633	0.883937
	H56	H	0.109336	0.598267	0.413967
	H57	H	0.884299	0.603112	0.586046
	H58	H	0.111601	0.419371	0.591541
	H59	H	0.886691	0.423976	0.410070
	H60	H	0.112028	0.414388	0.586638
	H61	H	0.887315	0.593765	0.584307
	H62	H	0.109068	0.590920	0.406634
	H63	H	0.883795	0.420575	0.407345
	H64	H	0.404540	0.599085	0.110635
	H65	H	0.581906	0.600745	0.885889
	H66	H	0.588421	0.421719	0.110853
	H67	H	0.405538	0.421277	0.884121
	H68	H	0.580601	0.120250	0.404448
	H69	H	0.591967	0.895121	0.580386
	H70	H	0.408463	0.122314	0.590665
	H71	H	0.408757	0.894747	0.408107
	H72	H	0.911589	0.619101	0.084253
	H73	H	0.082567	0.398516	0.077726
	H74	H	0.077790	0.617695	0.909026
	H75	H	0.906872	0.393986	0.905120
	H76	H	0.088250	0.921921	0.609118
	H77	H	0.085696	0.099390	0.384896
	H78	H	0.904058	0.096372	0.609443
	H79	H	0.909784	0.917625	0.384540
	H80	H	0.611223	0.095350	0.902973
	H81	H	0.386625	0.096119	0.081865
	H82	H	0.612039	0.919742	0.094743
	H83	H	0.381755	0.918217	0.900868
	H84	H	0.610232	0.911962	0.081121
	H85	H	0.387568	0.090970	0.084076
	H86	H	0.610712	0.100971	0.911062
	H87	H	0.381744	0.912454	0.906326
	H88	H	0.908189	0.098223	0.609102
	H89	H	0.088768	0.097158	0.384467
	H90	H	0.082877	0.918651	0.608467
	H91	H	0.905704	0.917266	0.383854
	H92	H	0.094563	0.622027	0.913017
	H93	H	0.089999	0.392380	0.087024
	H94	H	0.906103	0.620856	0.084666
	H95	H	0.908264	0.395457	0.908136
	H96	H	0.411344	0.119985	0.586456
	H97	H	0.591051	0.889844	0.593618
	H98	H	0.585296	0.119207	0.414512
	H99	H	0.410448	0.896158	0.409127
	H100	H	0.581029	0.423807	0.107731
	H101	H	0.592874	0.602819	0.881563
	H102	H	0.407215	0.594989	0.108581
	H103	H	0.410791	0.421257	0.885786
	H104	H	0.113479	0.599899	0.404585
	H105	H	0.883484	0.596743	0.593174
	H106	H	0.109162	0.420972	0.585108
	H107	H	0.885698	0.419203	0.412393
	H108	H	0.909432	0.620668	0.089001
	H109	H	0.077898	0.396292	0.090153
	H110	H	0.088081	0.625483	0.896861
	H111	H	0.904561	0.394585	0.908164
	H112	H	0.088223	0.915569	0.611744
	H113	H	0.085566	0.095932	0.386177
	H114	H	0.904692	0.100487	0.610388
	H115	H	0.907249	0.921450	0.384332
	H116	H	0.607502	0.091629	0.911420
	H117	H	0.384670	0.095731	0.087361
	H118	H	0.605528	0.926541	0.082089
	H119	H	0.384507	0.919858	0.908311
	C120	C	0.376444	0.015946	0.618668
	C121	C	0.618831	0.998975	0.618693
	C122	C	0.618339	0.016858	0.375683
	C123	C	0.376469	1.000082	0.376702
	C124	C	0.617469	0.387654	0.006178
	C125	C	0.619080	0.630933	0.988996
	C126	C	0.375444	0.629094	0.004701
	C127	C	0.375585	0.386461	0.988686
	C128	C	0.006142	0.629158	0.376042
	C129	C	0.989807	0.629847	0.619014
	C130	C	0.005869	0.387127	0.618814
	C131	C	0.989458	0.387903	0.376643
	C132	C	0.875129	0.516359	0.119805
	C133	C	0.117450	0.499586	0.117934
	C134	C	0.118839	0.516798	0.875013
	C135	C	0.875695	0.499799	0.876263
	C136	C	0.118844	0.887260	0.505420
	C137	C	0.118901	0.130126	0.489087
	C138	C	0.874566	0.130638	0.505272
	C139	C	0.876123	0.886931	0.488819
	C140	C	0.505561	0.128444	0.875990
	C141	C	0.489568	0.128971	0.118269
	C142	C	0.504687	0.887002	0.118438
	C143	C	0.488424	0.885730	0.874503
	C144	C	0.375299	0.894951	0.676106
	C145	C	0.620687	0.118356	0.678240
	C146	C	0.620424	0.897535	0.315787
	C147	C	0.373032	0.118574	0.315384
	C148	C	0.677274	0.386451	0.887499
	C149	C	0.678136	0.633080	0.107849
	C150	C	0.316676	0.630167	0.885253
	C151	C	0.314181	0.383131	0.106700
	C152	C	0.886693	0.688669	0.375264
	C153	C	0.109632	0.689113	0.619888
	C154	C	0.885498	0.328819	0.618841
	C155	C	0.107623	0.326282	0.372761
	C156	C	0.885421	0.386941	0.676543
	C157	C	0.109330	0.631967	0.678272
	C158	C	0.887112	0.632159	0.316264
	C159	C	0.107697	0.383958	0.314925
	C160	C	0.375132	0.687459	0.884933
	C161	C	0.620021	0.690527	0.107534
	C162	C	0.619658	0.328560	0.887186
	C163	C	0.372099	0.325051	0.106712
	C164	C	0.677258	0.897047	0.374311
	C165	C	0.676827	0.119414	0.618839
	C166	C	0.317178	0.895624	0.618596
	C167	C	0.316452	0.119320	0.374225
	C168	C	0.870643	0.398403	0.181746
	C169	C	0.121542	0.618294	0.178679
	C170	C	0.120477	0.396877	0.816337
	C171	C	0.874777	0.619524	0.817413
	C172	C	0.178484	0.886161	0.386710
	C173	C	0.179085	0.133056	0.607669
	C174	C	0.815436	0.132687	0.386400
	C175	C	0.817546	0.886262	0.608322
	C176	C	0.387208	0.189549	0.873004
	C177	C	0.607319	0.191492	0.122214
	C178	C	0.385329	0.827225	0.120421
	C179	C	0.608379	0.827952	0.874905
	C180	C	0.386122	0.883808	0.179381
	C181	C	0.607265	0.134009	0.180338
	C182	C	0.387029	0.131866	0.815272
	C183	C	0.608005	0.884344	0.815746
	C184	C	0.873297	0.190733	0.386670
	C185	C	0.120056	0.189665	0.608174
	C186	C	0.121755	0.827437	0.386825
	C187	C	0.875563	0.827942	0.607992
	C188	C	0.178070	0.396899	0.873920
	C189	C	0.178715	0.618406	0.120405
	C190	C	0.813596	0.397799	0.123299
	C191	C	0.817729	0.620155	0.876594
	C192	C	0.401519	0.099260	0.594869
	C193	C	0.594540	0.915483	0.594185
	C194	C	0.593072	0.099691	0.400783
	C195	C	0.401792	0.917066	0.401974
	C196	C	0.591472	0.413096	0.088469
	C197	C	0.594978	0.605739	0.905934
	C198	C	0.399834	0.604944	0.087584
	C199	C	0.401297	0.412248	0.906209
	C200	C	0.089058	0.603569	0.400985
	C201	C	0.906515	0.605098	0.594618
	C202	C	0.089202	0.411319	0.594702
	C203	C	0.906917	0.413915	0.402493
	C204	C	0.901629	0.598769	0.093497
	C205	C	0.091026	0.417149	0.092354
	C206	C	0.094012	0.600039	0.899348
	C207	C	0.899574	0.416370	0.900331
	C208	C	0.093580	0.911795	0.588170
	C209	C	0.093928	0.104828	0.406534
	C210	C	0.898869	0.105561	0.588126
	C211	C	0.900568	0.911646	0.405670
	C212	C	0.588404	0.103076	0.901314
	C213	C	0.407619	0.101882	0.091935
	C214	C	0.587514	0.912219	0.093293
	C215	C	0.404435	0.910037	0.898372
	Zn216	Zn	0.497260	0.007713	0.746977
	Zn217	Zn	0.496800	0.008164	0.247755
	Zn218	Zn	0.746642	0.508403	-0.001359
	Zn219	Zn	0.246183	0.507877	-0.003204
	Zn220	Zn	-0.001387	0.757988	0.496975
	Zn221	Zn	-0.002820	0.258528	0.497087
	Zn222	Zn	-0.001870	0.508304	0.747210
	Zn223	Zn	-0.002555	0.508047	0.247334
	Zn224	Zn	0.496355	0.758545	-0.002852
	Zn225	Zn	0.497359	0.257802	-0.003061
	Zn226	Zn	0.746439	0.008239	0.496694
	Zn227	Zn	0.247534	0.008393	0.497397
	N228	N	0.411044	0.970846	0.676636
	N229	N	0.585902	0.042200	0.678572
	N230	N	0.584768	0.973160	0.316356
	N231	N	0.409629	0.043405	0.316810
	N232	N	0.675938	0.422441	0.962423
	N233	N	0.677709	0.596715	0.032902
	N234	N	0.316500	0.594763	0.960636
	N235	N	0.316358	0.420682	0.032362
	N236	N	0.961760	0.686866	0.411728
	N237	N	0.034349	0.687769	0.583599
	N238	N	0.961406	0.328493	0.583881
	N239	N	0.033275	0.328864	0.410609
	N240	N	0.961428	0.421845	0.676933
	N241	N	0.033836	0.595881	0.677910
	N242	N	0.962440	0.595985	0.316551
	N243	N	0.033209	0.421710	0.317411
	N244	N	0.410735	0.687130	0.960251
	N245	N	0.584333	0.689459	0.032455
	N246	N	0.583388	0.328924	0.962266
	N247	N	0.409611	0.327151	0.032392
	N248	N	0.676239	0.972254	0.410703
	N249	N	0.675937	0.044116	0.582610
	N250	N	0.317375	0.971767	0.584015
	N251	N	0.318879	0.044700	0.411893
	N252	N	0.908171	0.473123	0.179631
	N253	N	0.084266	0.543288	0.177310
	N254	N	0.084388	0.472418	0.816884
	N255	N	0.909987	0.543736	0.817048
	N256	N	0.176860	0.922465	0.461606
	N257	N	0.178619	0.096845	0.532734
	N258	N	0.816069	0.095883	0.461163
	N259	N	0.817671	0.921994	0.532964
	N260	N	0.461957	0.187388	0.910372
	N261	N	0.533075	0.188411	0.084312
	N262	N	0.460114	0.829080	0.083157
	N263	N	0.532842	0.828686	0.910578
	N264	N	0.461316	0.920222	0.178368
	N265	N	0.533080	0.095431	0.177887
	N266	N	0.461642	0.094357	0.817117
	N267	N	0.532159	0.919464	0.815584
	N268	N	0.909323	0.189494	0.461621
	N269	N	0.083551	0.188224	0.533348
	N270	N	0.085144	0.828137	0.461632
	N271	N	0.911012	0.828207	0.532632
	N272	N	0.177391	0.472497	0.909426
	N273	N	0.176199	0.543705	0.083257
	N274	N	0.816316	0.472348	0.085392
	N275	N	0.818015	0.544711	0.912345
	O276	O	0.553425	0.377059	0.693127
	H277	H	0.554016	0.360756	0.698126
	H278	H	0.529250	0.384734	0.695013
	O279	O	1.185977	-0.183515	0.853449
	H280	H	1.181963	-0.171266	0.872619
	H281	H	1.163258	-0.200441	0.848879
	O282	O	0.559916	0.695604	0.418365
	H283	H	0.568152	0.687799	0.424504
	H284	H	0.550755	0.694567	0.415522
	O285	O	0.673756	0.328226	0.360020
	H286	H	0.667926	0.332533	0.364737
	H287	H	0.678747	0.316251	0.402445
	O288	O	0.991457	0.951142	0.111970
	H289	H	0.993932	0.952453	0.121003
	H290	H	0.995422	0.931343	0.124684
	O291	O	0.928765	-0.074084	0.064687
	H292	H	0.936782	-0.062287	0.049335
	H293	H	0.924320	-0.070157	0.060862
	O294	O	-0.209141	0.169651	0.997575
	H295	H	-0.212107	0.179600	0.985894
	H296	H	-0.202675	0.181704	0.994356
	O297	O	0.374690	0.629396	0.539409
	H298	H	0.369296	0.619274	0.542365
	H299	H	0.372297	0.637133	0.544945
	O300	O	0.689391	0.350677	0.496810
	H301	H	0.690063	0.360537	0.514941
	H302	H	0.688479	0.344741	0.517227
	O303	O	0.295680	0.487077	0.707064
	H304	H	0.293879	0.500019	0.717055
	H305	H	0.294034	0.486128	0.709069
	O306	O	0.035282	0.892478	0.806391
	H307	H	0.036363	0.888646	0.816315
	H308	H	0.035965	0.890858	0.809637
	O309	O	0.330101	0.507840	0.432136
	H310	H	0.335806	0.494088	0.421237
	H311	H	0.339779	0.513248	0.436143
	O312	O	0.155577	1.212033	1.087947
	H313	H	0.178092	1.230548	1.093491
	H314	H	0.148367	1.195115	1.070815
	O315	O	0.391781	0.528347	0.465501
	H316	H	0.390587	0.511102	0.458280
	H317	H	0.393726	0.519031	0.461054
	O318	O	1.213990	0.221839	0.220232
	H319	H	1.221305	0.237961	0.189429
	H320	H	1.213130	0.201723	0.227898
	O321	O	0.154116	0.155096	-0.090480
	H322	H	0.179055	0.148489	-0.090071
	H323	H	0.144480	0.154655	-0.063422
	O324	O	0.643674	0.578779	0.402714
	H325	H	0.644567	0.578974	0.414223
	H326	H	0.622909	0.568071	0.408962
	O327	O	0.304913	0.629679	0.346776
	H328	H	0.311177	0.622461	0.345912
	H329	H	0.287217	0.646191	0.356964
	O330	O	-0.166231	0.893022	0.168257
	H331	H	-0.175359	0.890717	0.180217
	H332	H	-0.173469	0.925948	0.158151
	O333	O	1.168941	0.794451	0.994907
	H334	H	1.155131	0.798779	0.985105
	H335	H	1.188815	0.778455	1.008098
	O336	O	0.177782	0.090409	-0.049715
	H337	H	0.188116	0.072619	-0.062094
	H338	H	0.173543	0.085477	-0.054238
	O339	O	-0.152707	0.931154	0.865319
	H340	H	-0.148860	0.931044	0.897614
	H341	H	-0.139282	0.946623	0.871048
	O342	O	-0.006221	1.188645	1.058363
	H343	H	-0.000993	1.206984	1.078218
	H344	H	0.003330	1.186155	1.050730
	O345	O	1.145963	0.934800	0.006943
	H346	H	1.146113	0.930687	0.015743
	H347	H	1.120633	0.933133	0.018843
	O348	O	0.854591	0.877443	0.856354
	H349	H	0.856853	0.884707	0.864671
	H350	H	0.874529	0.886359	0.857190
	O351	O	-0.123044	1.128426	1.126723
	H352	H	-0.119771	1.126990	1.107232
	H353	H	-0.113113	1.125879	1.124629
	O354	O	-0.294433	0.540177	-0.595769
	H355	H	-0.290960	0.536284	-0.601519
	H356	H	-0.283354	0.552795	-0.605501
	O357	O	-0.052970	0.048503	0.797333
	H358	H	-0.063066	0.065802	0.779592
	H359	H	-0.051646	0.056012	0.797647
	O360	O	0.702889	0.527906	0.631539
	H361	H	0.708145	0.563761	0.633751
	H362	H	0.714333	0.539489	0.632294
	O363	O	-0.209804	-0.195906	1.024514
	H364	H	-0.238977	-0.212781	1.033656
	H365	H	-0.212031	-0.181940	1.047837
	O366	O	0.387409	0.377875	0.401708
	H367	H	0.379819	0.365641	0.398680
	H368	H	0.391995	0.365850	0.382911
	O369	O	0.630124	0.318938	0.651298
	H370	H	0.623609	0.326211	0.647317
	H371	H	0.619850	0.333462	0.643450
	O372	O	1.023686	-0.014992	0.980049
	H373	H	1.038093	-0.004054	0.974500
	H374	H	1.023914	-0.031252	0.976775
	O375	O	0.493302	0.533614	0.316125
	H376	H	0.494912	0.540329	0.310886
	H377	H	0.492355	0.516467	0.303564
	O378	O	0.471067	0.306573	0.458761
	H379	H	0.479635	0.299380	0.448415
	H380	H	0.479433	0.311567	0.460516
	O381	O	0.979177	-0.201096	0.882759
	H382	H	0.969448	-0.204516	0.883446
	H383	H	0.958475	-0.209341	0.898711
	O384	O	0.448728	0.661291	0.623120
	H385	H	0.451429	0.655490	0.639475
	H386	H	0.447722	0.665782	0.613749
	O387	O	-0.200116	0.199195	0.805650
	H388	H	-0.204568	0.163230	0.803333
	H389	H	-0.198946	0.203467	0.806041
	O390	O	-0.032381	0.117220	0.169106
	H391	H	-0.028482	0.111444	0.185957
	H392	H	-0.020597	0.122366	0.178865
	O393	O	0.737422	0.708465	0.694964
	H394	H	0.745164	0.724672	0.703257
	H395	H	0.746573	0.725786	0.684316
	O396	O	1.097820	0.010695	0.154735
	H397	H	1.089585	0.015600	0.161352
	H398	H	1.114354	0.013037	0.140651
	O399	O	0.944375	0.184799	0.965450
	H400	H	0.934781	0.192628	0.929986
	H401	H	0.936601	0.197661	0.972908
	O402	O	1.484418	0.629273	1.400844
	H403	H	1.464991	0.634666	1.396774
	H404	H	1.477909	0.634700	1.389881
	O405	O	1.147546	0.932110	0.195748
	H406	H	1.132926	0.940031	0.191443
	H407	H	1.149816	0.933720	0.194812
	O408	O	0.921337	-0.165204	0.211996
	H409	H	0.904005	-0.176615	0.232151
	H410	H	0.899385	-0.155604	0.219295
	O411	O	1.088358	0.948714	0.050442
	H412	H	1.082685	0.953287	0.045151
	H413	H	1.091299	0.935385	0.064932
	O414	O	0.601045	0.700045	0.432825
	H415	H	0.602144	0.710091	0.414374
	H416	H	0.598508	0.684001	0.441006
	O417	O	0.504754	0.378537	0.536914
	H418	H	0.492674	0.387920	0.541401
	H419	H	0.496960	0.381723	0.530519
	O420	O	-0.204230	-0.013143	0.144006
	H421	H	-0.204764	-0.001402	0.129586
	H422	H	-0.222409	-0.008045	0.161172
	O423	O	0.687642	0.449152	0.296992
	H424	H	0.691135	0.420843	0.312181
	H425	H	0.699704	0.458728	0.273212
	O426	O	0.456165	0.546188	0.604091
	H427	H	0.461895	0.555575	0.607215
	H428	H	0.460077	0.532035	0.599842
	O429	O	0.318000	0.321486	0.660161
	H430	H	0.328591	0.326118	0.668824
	H431	H	0.312800	0.331422	0.653121
	O432	O	0.307876	0.307806	0.512907
	H433	H	0.302606	0.313916	0.539285
	H434	H	0.284009	0.291652	0.511152
	O435	O	0.308078	0.703704	0.365018
	H436	H	0.302672	0.679978	0.384236
	H437	H	0.316590	0.718235	0.377940
	O438	O	0.216579	-0.021466	-0.224235
	H439	H	0.207865	-0.047342	-0.219910
	H440	H	0.242449	-0.026776	-0.253883
	O441	O	0.959444	0.227830	-0.221979
	H442	H	0.939207	0.222214	-0.218804
	H443	H	0.955503	0.255496	-0.253779
	O444	O	-0.143108	0.964112	0.801544
	H445	H	-0.145849	0.966233	0.792402
	H446	H	-0.152569	0.953460	0.832800
	O447	O	0.490808	0.576787	0.662979
	H448	H	0.505540	0.571998	0.668721
	H449	H	0.495479	0.597031	0.668118
	O450	O	0.469379	0.420363	0.374076
	H451	H	0.469239	0.419881	0.357207
	H452	H	0.471639	0.414017	0.372035
	O453	O	0.548054	0.691133	0.645157
	H454	H	0.558280	0.698561	0.654582
	H455	H	0.548918	0.699773	0.637084
