data_Molecule from HDF5

_cell_length_a		16.340078
_cell_length_b		16.293847
_cell_length_c		16.311802
_cell_angle_alpha	90.034243
_cell_angle_beta	89.996652
_cell_angle_gamma	90.019557
_symmetry_space_group_name_H-M	'P 1'
_symmetry_Int_Tables_number		1

loop_
	_symmetry_equiv_pos_as_xyz
	x,y,z

loop_
	_atom_site_label
	_atom_site_type_symbol
	_atom_site_fract_x
	_atom_site_fract_y
	_atom_site_fract_z
	H0	H	0.401981	0.836132	0.713321
	H1	H	0.597055	0.163397	0.714206
	H2	H	0.597098	0.836031	0.286097
	H3	H	0.402629	0.164207	0.286111
	H4	H	0.714551	0.401205	0.836468
	H5	H	0.714862	0.598851	0.163048
	H6	H	0.285095	0.597882	0.837190
	H7	H	0.284959	0.401029	0.162938
	H8	H	0.836073	0.713817	0.402949
	H9	H	0.163486	0.714317	0.597885
	H10	H	0.835859	0.286816	0.597419
	H11	H	0.163086	0.284980	0.402352
	H12	H	0.837052	0.403306	0.714243
	H13	H	0.163026	0.599110	0.715474
	H14	H	0.836587	0.598672	0.284892
	H15	H	0.163959	0.402282	0.286311
	H16	H	0.401721	0.713700	0.835936
	H17	H	0.597678	0.714099	0.163575
	H18	H	0.597248	0.285460	0.836636
	H19	H	0.401320	0.285496	0.163507
	H20	H	0.713942	0.836571	0.401646
	H21	H	0.714127	0.163042	0.598221
	H22	H	0.284746	0.836874	0.598025
	H23	H	0.284993	0.163781	0.401095
	H24	H	0.902940	0.335638	0.213333
	H25	H	0.097948	0.663783	0.214598
	H26	H	0.097760	0.336153	0.786535
	H27	H	0.903314	0.664211	0.786955
	H28	H	0.214429	0.901556	0.336831
	H29	H	0.214221	0.098561	0.662936
	H30	H	0.784449	0.099176	0.336867
	H31	H	0.785076	0.901400	0.662639
	H32	H	0.336126	0.213379	0.903140
	H33	H	0.663107	0.214030	0.098059
	H34	H	0.336687	0.786862	0.096495
	H35	H	0.663643	0.785974	0.902226
	H36	H	0.336200	0.903074	0.213740
	H37	H	0.662610	0.098774	0.215458
	H38	H	0.335861	0.097181	0.786537
	H39	H	0.662949	0.902192	0.785389
	H40	H	0.902313	0.212999	0.335997
	H41	H	0.096860	0.213502	0.663531
	H42	H	0.097900	0.785156	0.336542
	H43	H	0.901866	0.786398	0.663819
	H44	H	0.214054	0.335937	0.902691
	H45	H	0.213764	0.663543	0.098312
	H46	H	0.786046	0.336805	0.097253
	H47	H	0.786480	0.663762	0.902364
	H48	H	0.402458	0.115434	0.586536
	H49	H	0.587084	0.884999	0.594266
	H50	H	0.595642	0.117088	0.406155
	H51	H	0.400023	0.883068	0.407569
	H52	H	0.598501	0.408902	0.116812
	H53	H	0.594545	0.592346	0.884080
	H54	H	0.406341	0.595733	0.116706
	H55	H	0.412045	0.404331	0.884867
	H56	H	0.117144	0.600728	0.408461
	H57	H	0.885996	0.579836	0.603232
	H58	H	0.118299	0.402280	0.595361
	H59	H	0.884394	0.406020	0.406155
	H60	H	0.114751	0.405728	0.588484
	H61	H	0.878637	0.606957	0.600567
	H62	H	0.112317	0.588602	0.412590
	H63	H	0.884295	0.407024	0.405744
	H64	H	0.405165	0.592091	0.115708
	H65	H	0.592277	0.592857	0.883938
	H66	H	0.589747	0.409492	0.114029
	H67	H	0.402433	0.402485	0.881872
	H68	H	0.591227	0.116215	0.405243
	H69	H	0.595272	0.883857	0.587453
	H70	H	0.403069	0.119748	0.599763
	H71	H	0.408602	0.883248	0.400453
	H72	H	0.907003	0.615914	0.092518
	H73	H	0.082958	0.388226	0.088823
	H74	H	0.096528	0.619287	0.900771
	H75	H	0.908433	0.383692	0.905688
	H76	H	0.103972	0.907971	0.618816
	H77	H	0.100650	0.088150	0.382670
	H78	H	0.914172	0.085002	0.610833
	H79	H	0.896241	0.904077	0.380161
	H80	H	0.613352	0.088850	0.910725
	H81	H	0.379732	0.100696	0.100417
	H82	H	0.615654	0.912914	0.098986
	H83	H	0.387265	0.913389	0.910670
	H84	H	0.618730	0.899442	0.096228
	H85	H	0.386144	0.096124	0.083093
	H86	H	0.617140	0.091103	0.900295
	H87	H	0.381785	0.907060	0.897489
	H88	H	0.910171	0.105793	0.618488
	H89	H	0.085224	0.089526	0.387416
	H90	H	0.087416	0.915454	0.611914
	H91	H	0.909428	0.917863	0.387709
	H92	H	0.086918	0.613960	0.906824
	H93	H	0.104081	0.383169	0.086027
	H94	H	0.906079	0.616735	0.093972
	H95	H	0.907202	0.384232	0.908624
	H96	H	0.414899	0.114293	0.593320
	H97	H	0.596577	0.881013	0.597595
	H98	H	0.592683	0.116018	0.409385
	H99	H	0.410321	0.886030	0.411383
	H100	H	0.593041	0.401128	0.117556
	H101	H	0.594087	0.593882	0.883395
	H102	H	0.409026	0.592909	0.115099
	H103	H	0.404853	0.411907	0.884516
	H104	H	0.116875	0.590485	0.399747
	H105	H	0.888490	0.592536	0.578404
	H106	H	0.115156	0.410333	0.595957
	H107	H	0.883828	0.405767	0.405346
	H108	H	0.907718	0.616534	0.094077
	H109	H	0.094707	0.379957	0.105047
	H110	H	0.097864	0.615907	0.913122
	H111	H	0.904755	0.383318	0.905733
	H112	H	0.088620	0.897127	0.617666
	H113	H	0.093019	0.102418	0.380797
	H114	H	0.893781	0.090213	0.618251
	H115	H	0.915002	0.898947	0.384012
	H116	H	0.617124	0.099437	0.907830
	H117	H	0.385890	0.083024	0.097037
	H118	H	0.613957	0.908149	0.085831
	H119	H	0.382787	0.898149	0.910403
	C120	C	0.378119	0.008364	0.621281
	C121	C	0.621165	0.991346	0.621255
	C122	C	0.621472	0.008171	0.378838
	C123	C	0.378506	0.992265	0.378465
	C124	C	0.621955	0.377959	0.008242
	C125	C	0.621934	0.621445	0.991667
	C126	C	0.378588	0.621721	0.008236
	C127	C	0.378613	0.378453	0.991992
	C128	C	0.007634	0.621322	0.378786
	C129	C	0.991931	0.622022	0.622216
	C130	C	0.008142	0.378327	0.621252
	C131	C	0.991976	0.378116	0.378042
	C132	C	0.879273	0.508014	0.121252
	C133	C	0.121912	0.491875	0.121572
	C134	C	0.121936	0.508077	0.878897
	C135	C	0.878958	0.492065	0.878980
	C136	C	0.121495	0.878533	0.508267
	C137	C	0.121333	0.121574	0.491685
	C138	C	0.877975	0.121703	0.507619
	C139	C	0.878424	0.878433	0.491771
	C140	C	0.507766	0.121516	0.878347
	C141	C	0.491533	0.121766	0.121707
	C142	C	0.508102	0.878724	0.121719
	C143	C	0.491855	0.878121	0.878302
	C144	C	0.381024	0.885140	0.675828
	C145	C	0.618240	0.114531	0.676334
	C146	C	0.618053	0.884978	0.324076
	C147	C	0.381600	0.115455	0.323668
	C148	C	0.676350	0.380956	0.885114
	C149	C	0.676957	0.619289	0.114424
	C150	C	0.323514	0.618492	0.885313
	C151	C	0.323583	0.380877	0.114620
	C152	C	0.884742	0.675871	0.382175
	C153	C	0.114633	0.676717	0.619006
	C154	C	0.885073	0.323996	0.618650
	C155	C	0.114665	0.323266	0.381721
	C156	C	0.885459	0.381706	0.676621
	C157	C	0.114749	0.619259	0.677107
	C158	C	0.885089	0.618790	0.323461
	C159	C	0.114956	0.381117	0.323705
	C160	C	0.381245	0.676127	0.885020
	C161	C	0.618513	0.676277	0.114713
	C162	C	0.618205	0.323381	0.885155
	C163	C	0.381094	0.323275	0.114708
	C164	C	0.676390	0.885178	0.381083
	C165	C	0.676282	0.114405	0.618851
	C166	C	0.323425	0.885246	0.617995
	C167	C	0.323546	0.115293	0.381203
	C168	C	0.882380	0.384663	0.175337
	C169	C	0.118373	0.614909	0.176376
	C170	C	0.118800	0.384859	0.824009
	C171	C	0.882371	0.615224	0.824566
	C172	C	0.176688	0.880673	0.385421
	C173	C	0.176248	0.119004	0.614336
	C174	C	0.823045	0.119157	0.385205
	C175	C	0.823157	0.880750	0.614228
	C176	C	0.385009	0.175963	0.881816
	C177	C	0.614375	0.176512	0.118871
	C178	C	0.385346	0.824245	0.118109
	C179	C	0.614918	0.823836	0.881719
	C180	C	0.385065	0.882374	0.175875
	C181	C	0.614320	0.119249	0.176997
	C182	C	0.384845	0.118433	0.823822
	C183	C	0.614638	0.881394	0.823684
	C184	C	0.881332	0.176067	0.384918
	C185	C	0.117900	0.175947	0.614612
	C186	C	0.118424	0.823260	0.385237
	C187	C	0.881207	0.823722	0.614685
	C188	C	0.176512	0.384852	0.881956
	C189	C	0.176425	0.614903	0.119062
	C190	C	0.824067	0.385205	0.118254
	C191	C	0.824092	0.614996	0.881727
	C192	C	0.400182	0.094357	0.599607
	C193	C	0.599385	0.905412	0.599420
	C194	C	0.599570	0.094183	0.400580
	C195	C	0.399961	0.906302	0.400242
	C196	C	0.600250	0.399982	0.094017
	C197	C	0.600238	0.599463	0.905944
	C198	C	0.400445	0.599992	0.093857
	C199	C	0.400232	0.399965	0.905952
	C200	C	0.093366	0.599575	0.400469
	C201	C	0.906421	0.599635	0.600630
	C202	C	0.093691	0.399927	0.599539
	C203	C	0.906268	0.399998	0.399473
	C204	C	0.900733	0.594359	0.099849
	C205	C	0.100319	0.405807	0.099596
	C206	C	0.100256	0.594097	0.900655
	C207	C	0.900547	0.406018	0.900311
	C208	C	0.099738	0.900303	0.594015
	C209	C	0.099491	0.099573	0.405729
	C210	C	0.899670	0.099898	0.593960
	C211	C	0.900299	0.900556	0.405962
	C212	C	0.593719	0.099712	0.899951
	C213	C	0.405990	0.099841	0.099852
	C214	C	0.593954	0.900451	0.100133
	C215	C	0.406033	0.899634	0.899755
	Zn216	Zn	0.499594	-0.000107	0.749437
	Zn217	Zn	0.500185	0.000410	0.250458
	Zn218	Zn	0.750399	0.499799	0.000147
	Zn219	Zn	0.250370	0.499989	0.000016
	Zn220	Zn	-0.000023	0.750116	0.500484
	Zn221	Zn	-0.000457	0.249396	0.499592
	Zn222	Zn	0.000497	0.500152	0.750258
	Zn223	Zn	0.000020	0.499983	0.249686
	Zn224	Zn	0.500230	0.749931	-0.000372
	Zn225	Zn	0.499685	0.250084	0.000244
	Zn226	Zn	0.749996	0.000021	0.499777
	Zn227	Zn	0.249795	0.000383	0.500000
	N228	N	0.414368	0.962638	0.677889
	N229	N	0.584617	0.037275	0.677844
	N230	N	0.584640	0.962340	0.322532
	N231	N	0.415070	0.038069	0.321921
	N232	N	0.678750	0.414140	0.962655
	N233	N	0.678786	0.585492	0.037143
	N234	N	0.321608	0.585434	0.962762
	N235	N	0.322060	0.414498	0.037423
	N236	N	0.961922	0.677538	0.415825
	N237	N	0.037462	0.678430	0.585851
	N238	N	0.962146	0.321687	0.585050
	N239	N	0.037191	0.321163	0.414541
	N240	N	0.962812	0.414979	0.678296
	N241	N	0.037525	0.585618	0.678981
	N242	N	0.962464	0.585676	0.321241
	N243	N	0.037826	0.414605	0.321582
	N244	N	0.415031	0.677945	0.962185
	N245	N	0.585292	0.678036	0.037426
	N246	N	0.585140	0.321595	0.962495
	N247	N	0.414835	0.321936	0.037556
	N248	N	0.678440	0.962790	0.414282
	N249	N	0.678109	0.036938	0.585326
	N250	N	0.321563	0.962723	0.584891
	N251	N	0.321568	0.037826	0.414421
	N252	N	0.915647	0.462100	0.177403
	N253	N	0.085436	0.537354	0.178103
	N254	N	0.085497	0.462344	0.822075
	N255	N	0.915731	0.537841	0.822639
	N256	N	0.178599	0.914528	0.462754
	N257	N	0.178525	0.086149	0.536730
	N258	N	0.821150	0.086172	0.462621
	N259	N	0.821367	0.914257	0.536956
	N260	N	0.462305	0.177985	0.915001
	N261	N	0.537220	0.177973	0.085203
	N262	N	0.462670	0.821862	0.085214
	N263	N	0.537655	0.821955	0.915050
	N264	N	0.462421	0.915565	0.178094
	N265	N	0.537192	0.085559	0.178565
	N266	N	0.462209	0.085192	0.821603
	N267	N	0.537259	0.914541	0.821507
	N268	N	0.914863	0.177537	0.462255
	N269	N	0.084319	0.177418	0.537440
	N270	N	0.084970	0.822049	0.462448
	N271	N	0.915097	0.822414	0.537623
	N272	N	0.178480	0.462360	0.915055
	N273	N	0.178710	0.537441	0.085577
	N274	N	0.822094	0.462941	0.085336
	N275	N	0.822090	0.537503	0.914911
