data_Molecule from HDF5

_cell_length_a		16.360942
_cell_length_b		16.451209
_cell_length_c		16.173421
_cell_angle_alpha	89.917400
_cell_angle_beta	90.088013
_cell_angle_gamma	89.933201
_symmetry_space_group_name_H-M	'P 1'
_symmetry_Int_Tables_number		1

loop_
	_symmetry_equiv_pos_as_xyz
	x,y,z

loop_
	_atom_site_label
	_atom_site_type_symbol
	_atom_site_fract_x
	_atom_site_fract_y
	_atom_site_fract_z
	H0	H	0.385389	0.821821	0.714139
	H1	H	0.587279	0.142938	0.716308
	H2	H	0.583856	0.820121	0.285289
	H3	H	0.384043	0.142223	0.276158
	H4	H	0.701792	0.381912	0.832661
	H5	H	0.704303	0.579133	0.160981
	H6	H	0.272974	0.583238	0.833297
	H7	H	0.272028	0.380969	0.159475
	H8	H	0.825215	0.703194	0.389293
	H9	H	0.146801	0.702379	0.597185
	H10	H	0.825779	0.265101	0.599812
	H11	H	0.144027	0.259634	0.385463
	H12	H	0.824816	0.386158	0.710730
	H13	H	0.148444	0.585130	0.710983
	H14	H	0.824415	0.581900	0.277943
	H15	H	0.149453	0.385040	0.282564
	H16	H	0.387163	0.700512	0.835531
	H17	H	0.589976	0.695838	0.161904
	H18	H	0.590522	0.263618	0.835389
	H19	H	0.385894	0.264008	0.159469
	H20	H	0.705710	0.824214	0.393246
	H21	H	0.706135	0.142629	0.602650
	H22	H	0.264490	0.824281	0.601572
	H23	H	0.265836	0.142988	0.390784
	H24	H	0.888591	0.321160	0.213556
	H25	H	0.089739	0.642570	0.212458
	H26	H	0.087241	0.322302	0.776620
	H27	H	0.888425	0.645565	0.780360
	H28	H	0.203191	0.883272	0.333502
	H29	H	0.204063	0.088647	0.658074
	H30	H	0.765044	0.086437	0.333288
	H31	H	0.771016	0.882835	0.659345
	H32	H	0.328877	0.203309	0.891955
	H33	H	0.648670	0.199960	0.104465
	H34	H	0.328347	0.760077	0.103588
	H35	H	0.649074	0.763506	0.895026
	H36	H	0.325112	0.881337	0.213003
	H37	H	0.649200	0.079259	0.214955
	H38	H	0.325813	0.082822	0.780975
	H39	H	0.648856	0.880238	0.779680
	H40	H	0.879744	0.203973	0.332852
	H41	H	0.088176	0.203912	0.656182
	H42	H	0.088197	0.767130	0.332657
	H43	H	0.880819	0.763139	0.656106
	H44	H	0.207035	0.321764	0.891503
	H45	H	0.209263	0.640795	0.099726
	H46	H	0.770125	0.320755	0.099590
	H47	H	0.766889	0.642081	0.891563
	H48	H	0.400768	0.095193	0.589420
	H49	H	0.580863	0.869222	0.586576
	H50	H	0.575587	0.096625	0.406828
	H51	H	0.393546	0.872068	0.415927
	H52	H	0.573710	0.391182	0.111566
	H53	H	0.574856	0.574550	0.882561
	H54	H	0.396682	0.583513	0.118635
	H55	H	0.393663	0.389573	0.879433
	H56	H	0.102590	0.578112	0.400769
	H57	H	0.870687	0.573144	0.589081
	H58	H	0.100502	0.396293	0.585311
	H59	H	0.871703	0.391493	0.408242
	H60	H	0.101917	0.389794	0.585231
	H61	H	0.869845	0.580455	0.585529
	H62	H	0.101825	0.580058	0.406568
	H63	H	0.873065	0.397129	0.404593
	H64	H	0.388621	0.561410	0.112542
	H65	H	0.580680	0.577267	0.879297
	H66	H	0.582961	0.382306	0.117137
	H67	H	0.400789	0.396243	0.882483
	H68	H	0.578325	0.097606	0.406552
	H69	H	0.578319	0.868048	0.589643
	H70	H	0.393982	0.095065	0.582121
	H71	H	0.386028	0.865914	0.404052
	H72	H	0.903082	0.592030	0.081671
	H73	H	0.076699	0.366482	0.095768
	H74	H	0.083165	0.596947	0.904824
	H75	H	0.897871	0.369450	0.902884
	H76	H	0.074698	0.892697	0.611550
	H77	H	0.075381	0.069137	0.381566
	H78	H	0.905998	0.079502	0.608349
	H79	H	0.893626	0.887140	0.377125
	H80	H	0.604521	0.074867	0.903999
	H81	H	0.369844	0.082491	0.088660
	H82	H	0.600834	0.885607	0.081993
	H83	H	0.373831	0.891018	0.907556
	H84	H	0.601162	0.897074	0.094927
	H85	H	0.376904	0.072339	0.076440
	H86	H	0.601293	0.074808	0.914006
	H87	H	0.372577	0.888803	0.907587
	H88	H	0.889042	0.079154	0.614185
	H89	H	0.071129	0.075009	0.381188
	H90	H	0.075623	0.891969	0.612162
	H91	H	0.889779	0.899972	0.378700
	H92	H	0.081755	0.597591	0.902006
	H93	H	0.075283	0.372003	0.078574
	H94	H	0.891033	0.594497	0.079857
	H95	H	0.895169	0.368294	0.904806
	H96	H	0.391839	0.099414	0.590890
	H97	H	0.576765	0.869878	0.586624
	H98	H	0.576181	0.097744	0.405083
	H99	H	0.400336	0.869553	0.402539
	H100	H	0.586321	0.394853	0.114017
	H101	H	0.581175	0.570291	0.881360
	H102	H	0.411422	0.567632	0.107483
	H103	H	0.403433	0.386442	0.881005
	H104	H	0.100177	0.574450	0.405581
	H105	H	0.872750	0.574625	0.581306
	H106	H	0.099498	0.392416	0.579294
	H107	H	0.869783	0.391420	0.402043
	H108	H	0.895957	0.597632	0.091126
	H109	H	0.090158	0.365501	0.084389
	H110	H	0.080345	0.596921	0.904879
	H111	H	0.895485	0.368282	0.901434
	H112	H	0.075725	0.893469	0.611881
	H113	H	0.078080	0.074542	0.377957
	H114	H	0.896696	0.065238	0.607235
	H115	H	0.901766	0.895658	0.383580
	H116	H	0.600173	0.066769	0.908342
	H117	H	0.373948	0.066006	0.092448
	H118	H	0.607063	0.881397	0.097644
	H119	H	0.373458	0.889957	0.909643
	C120	C	0.363970	-0.008683	0.618906
	C121	C	0.608753	0.974514	0.619510
	C122	C	0.607010	-0.008681	0.376136
	C123	C	0.363537	0.974552	0.375353
	C124	C	0.610224	0.359795	0.006060
	C125	C	0.609852	0.602809	0.988859
	C126	C	0.367907	0.602356	0.005607
	C127	C	0.368237	0.360488	0.988192
	C128	C	-0.005195	0.606797	0.372474
	C129	C	0.977722	0.606148	0.616005
	C130	C	-0.005265	0.362578	0.615480
	C131	C	0.977733	0.362249	0.373801
	C132	C	0.866884	0.489319	0.116302
	C133	C	0.110677	0.473527	0.117246
	C134	C	0.111078	0.491147	0.872930
	C135	C	0.865658	0.475062	0.873433
	C136	C	0.106241	0.863055	0.504054
	C137	C	0.106528	0.105182	0.486728
	C138	C	0.864356	0.105580	0.503167
	C139	C	0.864504	0.862816	0.486850
	C140	C	0.496131	0.103095	0.877189
	C141	C	0.479511	0.103193	0.118991
	C142	C	0.496164	0.858410	0.120880
	C143	C	0.479584	0.859681	0.876966
	C144	C	0.365067	0.870466	0.676098
	C145	C	0.607658	0.094929	0.677648
	C146	C	0.605011	0.869145	0.321630
	C147	C	0.364271	0.094717	0.315613
	C148	C	0.665003	0.361401	0.882377
	C149	C	0.665997	0.599877	0.112242
	C150	C	0.310783	0.603044	0.882715
	C151	C	0.310303	0.360767	0.110576
	C152	C	0.873470	0.663760	0.371089
	C153	C	0.098897	0.663451	0.616071
	C154	C	0.873825	0.304966	0.617316
	C155	C	0.097374	0.301596	0.370161
	C156	C	0.873241	0.365023	0.672872
	C157	C	0.099803	0.604933	0.672567
	C158	C	0.873343	0.603827	0.315107
	C159	C	0.100047	0.363968	0.318714
	C160	C	0.367736	0.661162	0.883663
	C161	C	0.609073	0.657909	0.112612
	C162	C	0.609556	0.302643	0.883670
	C163	C	0.367351	0.303052	0.110719
	C164	C	0.665414	0.871120	0.375643
	C165	C	0.666762	0.094672	0.620930
	C166	C	0.304845	0.871703	0.619883
	C167	C	0.305632	0.095177	0.372799
	C168	C	0.868216	0.368899	0.174697
	C169	C	0.110036	0.594138	0.174644
	C170	C	0.108552	0.370452	0.815122
	C171	C	0.867641	0.596580	0.817743
	C172	C	0.164584	0.863342	0.381957
	C173	C	0.164664	0.106714	0.609000
	C174	C	0.804835	0.105776	0.381499
	C175	C	0.808310	0.862759	0.609686
	C176	C	0.376113	0.162833	0.874518
	C177	C	0.600288	0.160608	0.121657
	C178	C	0.375896	0.800226	0.121447
	C179	C	0.600737	0.802410	0.876090
	C180	C	0.374259	0.860526	0.176244
	C181	C	0.600826	0.100607	0.176897
	C182	C	0.374641	0.103046	0.819205
	C183	C	0.600575	0.860474	0.818570
	C184	C	0.861895	0.163995	0.381317
	C185	C	0.107382	0.164491	0.608095
	C186	C	0.107169	0.805788	0.381629
	C187	C	0.863391	0.803440	0.608151
	C188	C	0.167837	0.370058	0.872499
	C189	C	0.169485	0.593387	0.118349
	C190	C	0.809438	0.368714	0.117711
	C191	C	0.807227	0.594875	0.873170
	C192	C	0.388341	0.074961	0.594626
	C193	C	0.585467	0.890768	0.594850
	C194	C	0.583529	0.075341	0.399426
	C195	C	0.386642	0.891013	0.400293
	C196	C	0.587474	0.382909	0.091996
	C197	C	0.585772	0.580692	0.903142
	C198	C	0.391844	0.577972	0.090751
	C199	C	0.392263	0.384061	0.903007
	C200	C	0.079483	0.584362	0.396970
	C201	C	0.893112	0.582806	0.592303
	C202	C	0.078847	0.385831	0.590502
	C203	C	0.893264	0.386220	0.398004
	C204	C	0.889877	0.572896	0.091350
	C205	C	0.087320	0.389837	0.093260
	C206	C	0.088442	0.575384	0.896972
	C207	C	0.889178	0.390561	0.896471
	C208	C	0.082315	0.886075	0.589597
	C209	C	0.081877	0.080097	0.402072
	C210	C	0.889744	0.081456	0.587830
	C211	C	0.888092	0.887413	0.401736
	C212	C	0.579964	0.078895	0.901745
	C213	C	0.395406	0.080247	0.093541
	C214	C	0.581149	0.881361	0.098054
	C215	C	0.395228	0.883014	0.901218
	Zn216	Zn	0.487032	-0.018095	0.748351
	Zn217	Zn	0.486567	-0.018559	0.247457
	Zn218	Zn	0.736730	0.481524	-0.004298
	Zn219	Zn	0.240123	0.481160	-0.004272
	Zn220	Zn	-0.014467	0.734944	0.494967
	Zn221	Zn	-0.014324	0.233938	0.494012
	Zn222	Zn	-0.012656	0.484249	0.744213
	Zn223	Zn	-0.012035	0.482187	0.245774
	Zn224	Zn	0.488540	0.730871	-0.001418
	Zn225	Zn	0.489002	0.232532	-0.002208
	Zn226	Zn	0.736160	-0.016444	0.496455
	Zn227	Zn	0.234265	-0.015804	0.496624
	N228	N	0.401153	0.945929	0.675677
	N229	N	0.572328	0.019165	0.676858
	N230	N	0.569077	0.944733	0.321938
	N231	N	0.399363	0.018843	0.316799
	N232	N	0.665731	0.395924	0.959673
	N233	N	0.666743	0.566784	0.034306
	N234	N	0.310656	0.567322	0.959591
	N235	N	0.310796	0.395852	0.033402
	N236	N	0.950204	0.665965	0.405660
	N237	N	0.021938	0.664279	0.581527
	N238	N	0.950424	0.303484	0.582354
	N239	N	0.020168	0.300591	0.403827
	N240	N	0.949493	0.400099	0.671998
	N241	N	0.023507	0.570059	0.672724
	N242	N	0.949969	0.569391	0.315656
	N243	N	0.024685	0.401156	0.321055
	N244	N	0.402400	0.660868	0.961061
	N245	N	0.574898	0.659960	0.034693
	N246	N	0.576408	0.301382	0.961752
	N247	N	0.402449	0.302506	0.033577
	N248	N	0.666930	0.948019	0.408672
	N249	N	0.667598	0.018833	0.585457
	N250	N	0.303813	0.948123	0.585439
	N251	N	0.305151	0.019751	0.409278
	N252	N	0.903157	0.444736	0.174015
	N253	N	0.074053	0.518697	0.174077
	N254	N	0.074312	0.446716	0.815153
	N255	N	0.903421	0.521039	0.818038
	N256	N	0.164000	0.898154	0.459137
	N257	N	0.164097	0.070613	0.532481
	N258	N	0.806084	0.070195	0.458397
	N259	N	0.808886	0.899117	0.533182
	N260	N	0.452578	0.163053	0.909614
	N261	N	0.523825	0.162114	0.086116
	N262	N	0.452926	0.798789	0.087642
	N263	N	0.524452	0.801556	0.911461
	N264	N	0.450056	0.896052	0.175699
	N265	N	0.524744	0.065452	0.175388
	N266	N	0.450180	0.066420	0.820637
	N267	N	0.524093	0.895312	0.818778
	N268	N	0.898323	0.163737	0.457773
	N269	N	0.071990	0.163728	0.530932
	N270	N	0.071609	0.805498	0.458701
	N271	N	0.897743	0.803440	0.530558
	N272	N	0.169539	0.446231	0.907681
	N273	N	0.169930	0.517547	0.083228
	N274	N	0.808637	0.444528	0.081698
	N275	N	0.805713	0.518177	0.906918
	O276	O	0.478009	0.626363	0.554877
	H277	H	0.464577	0.627802	0.563936
	H278	H	0.478274	0.620510	0.561948
	O279	O	0.530530	0.448908	0.520983
	H280	H	0.526815	0.460806	0.515532
	H281	H	0.539460	0.449498	0.505601
	O282	O	0.884343	0.019365	0.958688
	H283	H	0.890834	0.008125	0.970957
	H284	H	0.873534	0.027324	0.970275
	O285	O	0.525209	0.525003	0.508967
	H286	H	0.513234	0.539655	0.527589
	H287	H	0.519545	0.522607	0.508275
	O288	O	1.177582	1.001906	1.097935
	H289	H	1.176865	1.005629	1.081739
	H290	H	1.177374	0.989354	1.091693
	O291	O	0.134027	1.055268	-0.161418
	H292	H	0.113003	1.066189	-0.158132
	H293	H	0.141525	1.048054	-0.173455
	O294	O	0.458582	0.442734	0.343484
	H295	H	0.463986	0.440197	0.334113
	H296	H	0.450568	0.454272	0.347940
	O297	O	0.430626	0.345502	0.435921
	H298	H	0.430828	0.343375	0.436677
	H299	H	0.404534	0.345385	0.440932
	O300	O	0.545349	0.437560	0.623495
	H301	H	0.530804	0.442772	0.624487
	H302	H	0.544976	0.430313	0.608115
	O303	O	0.120831	0.951553	0.926064
	H304	H	0.138587	0.933882	0.912449
	H305	H	0.100592	0.939145	0.951675
	O306	O	0.359743	0.507704	0.479836
	H307	H	0.371439	0.517465	0.478934
	H308	H	0.348326	0.520377	0.486367
	O309	O	1.093268	0.880549	-0.049703
	H310	H	1.075471	0.874550	-0.070128
	H311	H	1.082706	0.875912	-0.033561
	O312	O	-0.048830	0.113358	-0.045701
	H313	H	-0.067389	0.113405	-0.040224
	H314	H	-0.054974	0.115753	-0.048261
	O315	O	0.395568	0.504316	0.691511
	H316	H	0.395461	0.479408	0.693823
	H317	H	0.378157	0.496466	0.711278
	O318	O	0.002263	0.972461	1.055259
	H319	H	-0.000081	0.957468	1.055113
	H320	H	-0.008291	0.968258	1.046237
	O321	O	0.869448	0.062530	-0.077078
	H322	H	0.870317	0.079267	-0.071724
	H323	H	0.879961	0.065951	-0.067414
	O324	O	0.078531	1.136322	0.200648
	H325	H	0.100590	1.137430	0.202506
	H326	H	0.087792	1.157217	0.208336
	O327	O	0.637649	0.503841	0.517148
	H328	H	0.639588	0.511408	0.517689
	H329	H	0.650042	0.491662	0.517961
	O330	O	-0.833236	0.886108	1.806609
	H331	H	-0.828628	0.900392	1.804574
	H332	H	-0.818221	0.879658	1.819374
	O333	O	-0.529568	-0.437918	1.419885
	H334	H	-0.532254	-0.439536	1.437924
	H335	H	-0.529484	-0.429024	1.421298
	O336	O	0.314412	0.302367	0.667289
	H337	H	0.339086	0.291965	0.677929
	H338	H	0.326091	0.312075	0.658476
	O339	O	0.854149	-0.096150	0.094507
	H340	H	0.850272	-0.086081	0.099110
	H341	H	0.846478	-0.095171	0.092956
	O342	O	0.135866	0.131087	0.163049
	H343	H	0.138716	0.120004	0.159593
	H344	H	0.148454	0.122793	0.150539
	O345	O	1.519064	0.482170	0.465755
	H346	H	1.514646	0.498284	0.483133
	H347	H	1.507666	0.483311	0.464674
	O348	O	1.509214	1.535959	0.527281
	H349	H	1.513533	1.519697	0.510629
	H350	H	1.506068	1.546636	0.524719
	O351	O	0.562762	0.420776	0.429689
	H352	H	0.563073	0.425739	0.421049
	H353	H	0.554077	0.417945	0.414635
	O354	O	0.944612	-0.130385	1.094275
	H355	H	0.929101	-0.123482	1.098324
	H356	H	0.954124	-0.108388	1.097390
	O357	O	1.020391	-0.029465	1.040562
	H358	H	1.030070	-0.028003	1.037281
	H359	H	1.026485	-0.046518	1.042943
	O360	O	0.619090	0.649453	0.557240
	H361	H	0.617244	0.651351	0.573965
	H362	H	0.633035	0.651827	0.574815
	O363	O	-0.133739	0.799488	1.129900
	H364	H	-0.135301	0.793371	1.129837
	H365	H	-0.155481	0.811421	1.136975
	O366	O	1.013500	0.876832	-0.126996
	H367	H	1.016953	0.888757	-0.128277
	H368	H	1.019386	0.878372	-0.114230
	O369	O	-0.215993	1.057846	-0.175707
	H370	H	-0.217564	1.060899	-0.184992
	H371	H	-0.213504	1.054890	-0.181018
	O372	O	0.897193	-0.148158	0.000971
	H373	H	0.900783	-0.160779	-0.007557
	H374	H	0.884030	-0.149684	0.003968
	O375	O	0.497941	0.607072	0.561977
	H376	H	0.507648	0.604277	0.565139
	H377	H	0.489145	0.606177	0.556407
	O378	O	1.509544	1.304251	0.622469
	H379	H	1.540704	1.298368	0.604226
	H380	H	1.516929	1.303298	0.619861
	O381	O	1.068110	0.051892	0.020624
	H382	H	1.078143	0.047164	0.016113
	H383	H	1.081778	0.050054	0.026417
	O384	O	0.722849	1.393553	-0.338185
	H385	H	0.719755	1.395864	-0.349473
	H386	H	0.727596	1.397910	-0.335144
	O387	O	-0.132211	-0.056572	-0.057820
	H388	H	-0.153861	-0.060745	-0.059429
	H389	H	-0.113791	-0.048207	-0.072339
	O390	O	-0.055939	0.897722	0.155794
	H391	H	-0.076083	0.902956	0.148616
	H392	H	-0.072172	0.882183	0.155278
	O393	O	1.001510	0.978313	0.812975
	H394	H	0.991763	0.961924	0.809708
	H395	H	0.994303	0.990053	0.835445
	O396	O	0.575742	0.332004	0.320543
	H397	H	0.568068	0.342118	0.304762
	H398	H	0.559088	0.339263	0.324266
	O399	O	-0.093548	0.947891	1.066726
	H400	H	-0.081836	0.951800	1.069860
	H401	H	-0.096276	0.961135	1.063328
	O402	O	0.439243	0.518950	0.448490
	H403	H	0.430855	0.511486	0.463349
	H404	H	0.446612	0.529258	0.442132
	O405	O	1.045755	1.150554	0.026692
	H406	H	1.054516	1.163298	0.039049
	H407	H	1.041902	1.139739	0.034832
	O408	O	1.505981	0.446680	0.346320
	H409	H	1.511063	0.461411	0.341151
	H410	H	1.491251	0.451574	0.337000
	O411	O	1.041276	-0.106398	0.924463
	H412	H	1.028546	-0.106383	0.927478
	H413	H	1.055107	-0.090192	0.928743
	O414	O	0.302008	0.278476	0.507421
	H415	H	0.296387	0.289518	0.528369
	H416	H	0.283199	0.258273	0.512370
	O417	O	0.348320	0.589937	0.594798
	H418	H	0.336751	0.575459	0.604362
	H419	H	0.351570	0.587289	0.586832
