data_Molecule from HDF5

_cell_length_a		16.457227
_cell_length_b		16.453051
_cell_length_c		16.317411
_cell_angle_alpha	90.032761
_cell_angle_beta	90.047540
_cell_angle_gamma	89.924841
_symmetry_space_group_name_H-M	'P 1'
_symmetry_Int_Tables_number		1

loop_
	_symmetry_equiv_pos_as_xyz
	x,y,z

loop_
	_atom_site_label
	_atom_site_type_symbol
	_atom_site_fract_x
	_atom_site_fract_y
	_atom_site_fract_z
	H0	H	0.387855	0.836785	0.730026
	H1	H	0.594189	0.154747	0.725738
	H2	H	0.597712	0.836637	0.285493
	H3	H	0.388858	0.154785	0.289965
	H4	H	0.712073	0.394899	0.849712
	H5	H	0.715593	0.604887	0.169236
	H6	H	0.271770	0.602013	0.850477
	H7	H	0.274228	0.392641	0.169921
	H8	H	0.834291	0.717620	0.400788
	H9	H	0.151072	0.718429	0.614494
	H10	H	0.834608	0.277573	0.612523
	H11	H	0.150469	0.270782	0.400503
	H12	H	0.833714	0.396058	0.727024
	H13	H	0.152460	0.601363	0.728960
	H14	H	0.834285	0.599085	0.287596
	H15	H	0.151574	0.389143	0.286411
	H16	H	0.389243	0.715679	0.849712
	H17	H	0.598605	0.719592	0.168870
	H18	H	0.597358	0.277560	0.849975
	H19	H	0.388573	0.275526	0.169817
	H20	H	0.716913	0.836731	0.398631
	H21	H	0.712867	0.153543	0.611723
	H22	H	0.268766	0.838093	0.617419
	H23	H	0.269237	0.152910	0.402293
	H24	H	0.891513	0.336246	0.226745
	H25	H	0.097390	0.654871	0.230121
	H26	H	0.094367	0.336551	0.792528
	H27	H	0.892577	0.657193	0.792381
	H28	H	0.214420	0.888232	0.348920
	H29	H	0.211226	0.097580	0.668754
	H30	H	0.772353	0.100038	0.347613
	H31	H	0.774479	0.893016	0.668838
	H32	H	0.334258	0.217789	0.904611
	H33	H	0.651892	0.215334	0.113599
	H34	H	0.333798	0.775142	0.115900
	H35	H	0.650923	0.776582	0.905645
	H36	H	0.333008	0.892399	0.229709
	H37	H	0.651488	0.098949	0.229440
	H38	H	0.332335	0.098005	0.790341
	H39	H	0.651971	0.894893	0.791555
	H40	H	0.887901	0.215867	0.348130
	H41	H	0.095544	0.214310	0.668326
	H42	H	0.098223	0.773736	0.348894
	H43	H	0.890373	0.777811	0.669053
	H44	H	0.212286	0.337507	0.907494
	H45	H	0.214654	0.654977	0.115725
	H46	H	0.772169	0.338283	0.114747
	H47	H	0.773074	0.656061	0.905001
	H48	H	0.400111	0.107920	0.595331
	H49	H	0.585612	0.879651	0.600809
	H50	H	0.582170	0.108395	0.418181
	H51	H	0.406901	0.886994	0.429011
	H52	H	0.592306	0.404985	0.128399
	H53	H	0.587339	0.579164	0.897388
	H54	H	0.398172	0.583140	0.125122
	H55	H	0.403662	0.401670	0.894109
	H56	H	0.103148	0.582612	0.424381
	H57	H	0.877459	0.587699	0.604927
	H58	H	0.106361	0.406203	0.597203
	H59	H	0.885191	0.413510	0.424406
	H60	H	0.108326	0.406190	0.603210
	H61	H	0.879073	0.591129	0.595179
	H62	H	0.104049	0.582865	0.419337
	H63	H	0.878075	0.407568	0.410929
	H64	H	0.409251	0.582408	0.121256
	H65	H	0.574416	0.585438	0.898950
	H66	H	0.580937	0.416472	0.121002
	H67	H	0.399743	0.411538	0.895850
	H68	H	0.580068	0.106371	0.420544
	H69	H	0.580450	0.881408	0.598211
	H70	H	0.400364	0.109514	0.599779
	H71	H	0.394012	0.879446	0.419910
	H72	H	0.909576	0.606813	0.093920
	H73	H	0.087691	0.385678	0.086512
	H74	H	0.080846	0.609577	0.920395
	H75	H	0.900000	0.382166	0.918995
	H76	H	0.080873	0.908222	0.620625
	H77	H	0.078786	0.088319	0.393339
	H78	H	0.899416	0.084640	0.622929
	H79	H	0.902533	0.906720	0.393496
	H80	H	0.601929	0.082444	0.923445
	H81	H	0.376844	0.092384	0.098702
	H82	H	0.605815	0.904946	0.099179
	H83	H	0.380056	0.903904	0.926446
	H84	H	0.603141	0.906687	0.092344
	H85	H	0.380922	0.085577	0.093020
	H86	H	0.608814	0.083712	0.909148
	H87	H	0.379080	0.913236	0.916427
	H88	H	0.904198	0.085622	0.621430
	H89	H	0.085631	0.080007	0.393661
	H90	H	0.079848	0.906448	0.621519
	H91	H	0.904628	0.906556	0.394396
	H92	H	0.087649	0.610945	0.923124
	H93	H	0.091941	0.377642	0.105761
	H94	H	0.898413	0.610336	0.095121
	H95	H	0.904763	0.383327	0.917566
	H96	H	0.403894	0.107137	0.597521
	H97	H	0.585556	0.881740	0.595109
	H98	H	0.583605	0.106788	0.421185
	H99	H	0.409303	0.881240	0.412637
	H100	H	0.575877	0.399603	0.124479
	H101	H	0.585879	0.593194	0.893302
	H102	H	0.405472	0.592416	0.125735
	H103	H	0.410007	0.408949	0.898604
	H104	H	0.105306	0.586052	0.422728
	H105	H	0.881780	0.581730	0.598033
	H106	H	0.108617	0.401034	0.599672
	H107	H	0.879327	0.397515	0.423674
	H108	H	0.905718	0.611126	0.104939
	H109	H	0.072994	0.384854	0.101401
	H110	H	0.085890	0.613078	0.916127
	H111	H	0.903345	0.383923	0.922335
	H112	H	0.081642	0.906468	0.621849
	H113	H	0.075624	0.079356	0.397204
	H114	H	0.901876	0.089219	0.624120
	H115	H	0.903183	0.905005	0.393730
	H116	H	0.608619	0.095933	0.919608
	H117	H	0.378975	0.083671	0.102203
	H118	H	0.603323	0.912130	0.096935
	H119	H	0.374603	0.900675	0.914235
	C120	C	0.370180	0.003448	0.630064
	C121	C	0.614189	0.986385	0.629095
	C122	C	0.614588	0.002883	0.386480
	C123	C	0.370933	0.987331	0.388125
	C124	C	0.614268	0.375880	0.018698
	C125	C	0.614472	0.618340	1.001961
	C126	C	0.372176	0.617623	0.018137
	C127	C	0.372847	0.375622	1.001880
	C128	C	0.000469	0.616390	0.388022
	C129	C	0.984677	0.618449	0.630845
	C130	C	0.002138	0.374873	0.630398
	C131	C	0.985176	0.373274	0.386798
	C132	C	0.872443	0.504831	0.130249
	C133	C	0.115637	0.487496	0.130712
	C134	C	0.115333	0.505622	0.888388
	C135	C	0.871472	0.488345	0.888495
	C136	C	0.113807	0.873516	0.516550
	C137	C	0.112645	0.115013	0.499989
	C138	C	0.870536	0.117441	0.516601
	C139	C	0.871884	0.874452	0.499790
	C140	C	0.501064	0.118431	0.886588
	C141	C	0.484340	0.117820	0.130013
	C142	C	0.500155	0.875111	0.129944
	C143	C	0.483381	0.874682	0.887393
	C144	C	0.368775	0.884493	0.690503
	C145	C	0.613840	0.106501	0.687248
	C146	C	0.616376	0.883850	0.325523
	C147	C	0.369666	0.106675	0.328705
	C148	C	0.673049	0.375263	0.898012
	C149	C	0.675394	0.622396	0.121343
	C150	C	0.312028	0.619643	0.898003
	C151	C	0.313733	0.374163	0.122122
	C152	C	0.881861	0.677125	0.383502
	C153	C	0.103779	0.678333	0.632677
	C154	C	0.882256	0.316972	0.631144
	C155	C	0.103216	0.311578	0.382836
	C156	C	0.881897	0.376042	0.688146
	C157	C	0.104387	0.620006	0.689941
	C158	C	0.881868	0.618286	0.326763
	C159	C	0.103959	0.370459	0.326002
	C160	C	0.370178	0.676446	0.897777
	C161	C	0.616995	0.679549	0.121166
	C162	C	0.615828	0.317152	0.898048
	C163	C	0.370491	0.315582	0.121820
	C164	C	0.675833	0.884118	0.381997
	C165	C	0.672772	0.106088	0.630340
	C166	C	0.309544	0.885046	0.634219
	C167	C	0.310195	0.105924	0.384976
	C168	C	0.871887	0.384511	0.188140
	C169	C	0.116225	0.607113	0.190661
	C170	C	0.114642	0.385027	0.830766
	C171	C	0.872385	0.609166	0.830894
	C172	C	0.174280	0.870465	0.396864
	C173	C	0.171959	0.116558	0.620760
	C174	C	0.811987	0.118474	0.395774
	C175	C	0.813709	0.874243	0.620644
	C176	C	0.381570	0.177763	0.885483
	C177	C	0.604160	0.176184	0.131982
	C178	C	0.380924	0.815275	0.133263
	C179	C	0.603384	0.816200	0.886742
	C180	C	0.380670	0.873595	0.190139
	C181	C	0.604039	0.118007	0.189355
	C182	C	0.380585	0.118146	0.828885
	C183	C	0.603811	0.874704	0.829614
	C184	C	0.869225	0.176451	0.396118
	C185	C	0.114338	0.174276	0.620592
	C186	C	0.116029	0.813644	0.396484
	C187	C	0.871151	0.816705	0.620806
	C188	C	0.173194	0.385314	0.888076
	C189	C	0.174876	0.607067	0.133834
	C190	C	0.812397	0.385527	0.132500
	C191	C	0.812875	0.608362	0.887040
	C192	C	0.394568	0.086615	0.604676
	C193	C	0.590653	0.902747	0.604824
	C194	C	0.589239	0.085437	0.412511
	C195	C	0.396127	0.904198	0.413381
	C196	C	0.589901	0.399909	0.102896
	C197	C	0.589718	0.593123	0.918222
	C198	C	0.396991	0.592877	0.102102
	C199	C	0.397448	0.400468	0.917827
	C200	C	0.082867	0.591235	0.414511
	C201	C	0.901200	0.593956	0.606349
	C202	C	0.085976	0.397722	0.606805
	C203	C	0.902404	0.398992	0.412415
	C204	C	0.897244	0.587900	0.105213
	C205	C	0.091310	0.404430	0.105213
	C206	C	0.091741	0.589425	0.912694
	C207	C	0.895709	0.404896	0.912596
	C208	C	0.088101	0.899545	0.599746
	C209	C	0.087368	0.089779	0.416445
	C210	C	0.894930	0.093331	0.600793
	C211	C	0.896414	0.898832	0.415678
	C212	C	0.584689	0.094452	0.910574
	C213	C	0.400781	0.094025	0.105220
	C214	C	0.582657	0.900438	0.103880
	C215	C	0.399824	0.898918	0.911908
	Zn216	Zn	0.492078	-0.004318	0.758035
	Zn217	Zn	0.492144	-0.004249	0.258376
	Zn218	Zn	0.743398	0.497007	0.010280
	Zn219	Zn	0.244547	0.496631	0.009961
	Zn220	Zn	-0.007678	0.745894	0.508270
	Zn221	Zn	-0.007142	0.244641	0.508537
	Zn222	Zn	-0.006496	0.497157	0.759717
	Zn223	Zn	-0.006437	0.495477	0.258682
	Zn224	Zn	0.491866	0.746194	0.009740
	Zn225	Zn	0.493219	0.246554	0.009631
	Zn226	Zn	0.743311	-0.004686	0.507666
	Zn227	Zn	0.241518	-0.005285	0.508510
	N228	N	0.405953	0.959100	0.687948
	N229	N	0.578345	0.030951	0.686819
	N230	N	0.578935	0.958403	0.328230
	N231	N	0.406769	0.031802	0.330523
	N232	N	0.672370	0.410964	0.974124
	N233	N	0.673821	0.584783	0.046250
	N234	N	0.313203	0.583892	0.974202
	N235	N	0.315123	0.410822	0.046514
	N236	N	0.956733	0.676233	0.420823
	N237	N	0.028201	0.677605	0.596803
	N238	N	0.958000	0.316070	0.595901
	N239	N	0.028346	0.313385	0.420065
	N240	N	0.957445	0.411384	0.687924
	N241	N	0.029367	0.583488	0.688881
	N242	N	0.956642	0.581109	0.329475
	N243	N	0.029584	0.408015	0.328388
	N244	N	0.406791	0.675067	0.973408
	N245	N	0.579761	0.677036	0.045757
	N246	N	0.580007	0.317315	0.974147
	N247	N	0.406708	0.316627	0.045958
	N248	N	0.674936	0.959252	0.419064
	N249	N	0.673344	0.030292	0.595023
	N250	N	0.310381	0.960044	0.597286
	N251	N	0.310972	0.030546	0.421062
	N252	N	0.908335	0.459524	0.186956
	N253	N	0.080278	0.531688	0.189075
	N254	N	0.079645	0.460975	0.830779
	N255	N	0.908234	0.533586	0.831527
	N256	N	0.172846	0.907051	0.472564
	N257	N	0.170972	0.080551	0.544710
	N258	N	0.812628	0.082533	0.471676
	N259	N	0.813925	0.909202	0.544202
	N260	N	0.457550	0.178102	0.920610
	N261	N	0.528649	0.176251	0.096080
	N262	N	0.456200	0.816068	0.096743
	N263	N	0.527465	0.815916	0.921736
	N264	N	0.455777	0.910048	0.188283
	N265	N	0.528539	0.082380	0.188276
	N266	N	0.455886	0.082070	0.829416
	N267	N	0.528171	0.910115	0.829695
	N268	N	0.904998	0.175818	0.472282
	N269	N	0.078457	0.173557	0.544567
	N270	N	0.079303	0.815164	0.472071
	N271	N	0.906432	0.816691	0.544441
	N272	N	0.174116	0.461521	0.922656
	N273	N	0.174638	0.531808	0.097337
	N274	N	0.812492	0.461536	0.097412
	N275	N	0.812066	0.532284	0.921884
	O276	O	0.495601	0.573817	0.395746
	H277	H	0.488661	0.574834	0.392204
	H278	H	0.509984	0.571951	0.386346
	O279	O	0.417145	0.492494	0.433419
	H280	H	0.418774	0.477785	0.432227
	H281	H	0.408391	0.498213	0.443833
	O282	O	0.443620	0.696570	0.697459
	H283	H	0.432173	0.700075	0.697119
	H284	H	0.440397	0.695729	0.695179
	O285	O	1.055732	0.894620	0.123999
	H286	H	1.059562	0.896635	0.128386
	H287	H	1.057176	0.900702	0.132203
	O288	O	0.469262	0.288103	0.719877
	H289	H	0.470528	0.274910	0.734866
	H290	H	0.460743	0.282995	0.710714
	O291	O	0.624301	0.555122	0.513669
	H292	H	0.646631	0.557448	0.521430
	H293	H	0.610298	0.545307	0.505983
	O294	O	1.155568	1.056199	0.845320
	H295	H	1.154793	1.049144	0.832470
	H296	H	1.139852	1.043452	0.843376
	O297	O	0.252012	0.604816	0.267276
	H298	H	0.244621	0.606044	0.243454
	H299	H	0.265842	0.623894	0.269565
	O300	O	0.588718	0.401899	0.429074
	H301	H	0.589504	0.397643	0.428142
	H302	H	0.584038	0.418520	0.441709
	O303	O	0.541729	0.469808	0.416950
	H304	H	0.545181	0.472474	0.414204
	H305	H	0.554338	0.471487	0.414747
	O306	O	-0.099216	0.036316	0.824498
	H307	H	-0.106562	0.043030	0.811271
	H308	H	-0.105973	0.049393	0.818986
	O309	O	0.813990	0.151342	-0.127913
	H310	H	0.795217	0.160351	-0.139703
	H311	H	0.801014	0.156767	-0.110486
	O312	O	0.510042	0.487022	0.338547
	H313	H	0.520267	0.488532	0.354374
	H314	H	0.489293	0.497545	0.327603
	O315	O	0.655280	0.323685	0.691132
	H316	H	0.648984	0.330209	0.663681
	H317	H	0.638785	0.349793	0.687031
	O318	O	-0.066825	0.008324	-0.147886
	H319	H	-0.076384	0.013400	-0.150874
	H320	H	-0.076146	0.009737	-0.139696
	O321	O	0.690963	0.373535	0.528365
	H322	H	0.705021	0.373233	0.501899
	H323	H	0.682995	0.391153	0.516322
	O324	O	0.698655	0.473918	0.345464
	H325	H	0.720022	0.490998	0.336114
	H326	H	0.681987	0.450627	0.347383
	O327	O	0.333886	0.548501	0.521823
	H328	H	0.328968	0.539315	0.520642
	H329	H	0.332667	0.549390	0.530645
	O330	O	-0.018589	1.143884	1.060508
	H331	H	-0.021067	1.149071	1.055475
	H332	H	-0.023412	1.146688	1.062471
	O333	O	-0.632177	1.699271	0.528886
	H334	H	-0.647851	1.710082	0.519876
	H335	H	-0.628739	1.691594	0.530281
	O336	O	1.000171	1.017010	0.167169
	H337	H	1.014865	1.006645	0.176783
	H338	H	1.012816	1.028751	0.166852
	O339	O	0.170691	0.941507	1.107260
	H340	H	0.164248	0.931030	1.108344
	H341	H	0.173924	0.938199	1.104566
	O342	O	-0.043551	0.805129	-0.044408
	H343	H	-0.048280	0.803783	-0.056845
	H344	H	-0.031831	0.813172	-0.055093
	O345	O	-0.202952	-0.042768	0.968515
	H346	H	-0.196331	-0.044001	0.960122
	H347	H	-0.203878	-0.038659	0.972937
	O348	O	0.711071	0.715229	0.532925
	H349	H	0.732277	0.728140	0.552708
	H350	H	0.718529	0.720340	0.569764
	O351	O	1.108099	0.906481	0.013955
	H352	H	1.096123	0.905647	0.028539
	H353	H	1.106962	0.908407	0.021513
	O354	O	1.076872	0.973215	1.018064
	H355	H	1.068525	0.966824	1.032895
	H356	H	1.085187	0.977693	1.017089
	O357	O	-0.051783	-0.156076	-0.020378
	H358	H	-0.052660	-0.162506	-0.026314
	H359	H	-0.040650	-0.143598	-0.018875
	O360	O	0.490444	0.397293	0.322555
	H361	H	0.484349	0.388362	0.347534
	H362	H	0.470106	0.395062	0.319752
	O363	O	1.088472	0.031033	-0.056060
	H364	H	1.070347	0.028469	-0.044647
	H365	H	1.082427	0.016212	-0.049256
	O366	O	-0.099860	0.001591	1.031798
	H367	H	-0.111865	0.008044	1.026832
	H368	H	-0.110404	0.004337	1.040907
	O369	O	1.166866	0.011952	1.045445
	H370	H	1.158644	0.023690	1.042673
	H371	H	1.182671	0.012208	1.050292
	O372	O	0.917677	-0.130264	0.177191
	H373	H	0.916234	-0.119957	0.166518
	H374	H	0.938629	-0.132014	0.181670
	O375	O	0.294301	-0.699432	0.703419
	H376	H	0.298486	-0.684336	0.688979
	H377	H	0.294374	-0.720164	0.711270
	O378	O	0.307296	0.660564	0.433516
	H379	H	0.305964	0.666162	0.446463
	H380	H	0.320750	0.672304	0.424036
	O381	O	0.122943	0.857749	-0.181273
	H382	H	0.126322	0.855854	-0.174020
	H383	H	0.122200	0.863051	-0.182576
	O384	O	0.520313	0.312167	0.416947
	H385	H	0.514771	0.318634	0.410328
	H386	H	0.529111	0.321544	0.419790
	O387	O	0.288172	0.355525	0.464329
	H388	H	0.302060	0.360054	0.462965
	H389	H	0.277573	0.348967	0.469387
	O390	O	1.124289	1.119156	0.185529
	H391	H	1.123361	1.114259	0.193526
	H392	H	1.139336	1.131750	0.155137
	O393	O	1.545522	0.301527	0.421766
	H394	H	1.551572	0.301259	0.424087
	H395	H	1.547914	0.301330	0.401792
	O396	O	0.634366	0.532448	0.719782
	H397	H	0.628313	0.528962	0.730477
	H398	H	0.647228	0.539297	0.722119
	O399	O	0.493387	0.705835	0.363883
	H400	H	0.506372	0.723677	0.370266
	H401	H	0.505624	0.704892	0.368747
	O402	O	1.118563	1.153816	-0.045447
	H403	H	1.103925	1.152087	-0.045358
	H404	H	1.105368	1.150568	-0.055723
	O405	O	0.448909	0.485167	0.680582
	H406	H	0.424924	0.483471	0.689483
	H407	H	0.433182	0.479502	0.663607
	O408	O	0.482303	0.366108	0.515395
	H409	H	0.466383	0.364852	0.506095
	H410	H	0.491974	0.373877	0.501545
	O411	O	0.829373	0.907553	1.106184
	H412	H	0.827186	0.894839	1.106851
	H413	H	0.828291	0.885982	1.112613
	O414	O	0.858097	0.164424	0.857370
	H415	H	0.860655	0.175598	0.838762
	H416	H	0.836451	0.171358	0.856418
	O417	O	0.275457	0.465975	0.726709
	H418	H	0.279110	0.444790	0.708429
	H419	H	0.245009	0.468640	0.761298
	O420	O	-0.151260	1.099104	0.957072
	H421	H	-0.151853	1.100552	0.969198
	H422	H	-0.155298	1.089407	0.952434
	O423	O	-0.148577	0.977077	0.081314
	H424	H	-0.163528	0.964006	0.092669
	H425	H	-0.137647	0.980539	0.078481
	O426	O	0.503140	0.572759	0.693951
	H427	H	0.492590	0.575043	0.684679
	H428	H	0.493108	0.586377	0.710253
	O429	O	0.688152	0.684694	0.698812
	H430	H	0.684977	0.669380	0.714259
	H431	H	0.649961	0.676876	0.708421
	O432	O	0.520956	0.647326	0.478062
	H433	H	0.529959	0.637273	0.462832
	H434	H	0.529424	0.646251	0.485872
	O435	O	0.058109	0.177338	0.036854
	H436	H	0.047813	0.176629	0.052935
	H437	H	0.056317	0.186439	0.033250
	O438	O	0.043279	0.947593	1.072980
	H439	H	0.035747	0.955941	1.063622
	H440	H	0.048619	0.947007	1.061592
	O441	O	0.351561	0.317578	0.463818
	H442	H	0.344583	0.307941	0.468305
	H443	H	0.352106	0.326866	0.446261
