data_Molecule from HDF5

_cell_length_a		16.355662
_cell_length_b		16.363280
_cell_length_c		16.051582
_cell_angle_alpha	90.235862
_cell_angle_beta	90.540188
_cell_angle_gamma	90.626128
_symmetry_space_group_name_H-M	'P 1'
_symmetry_Int_Tables_number		1

loop_
	_symmetry_equiv_pos_as_xyz
	x,y,z

loop_
	_atom_site_label
	_atom_site_type_symbol
	_atom_site_fract_x
	_atom_site_fract_y
	_atom_site_fract_z
	H0	H	0.402771	0.842393	0.710037
	H1	H	0.602969	0.169399	0.713676
	H2	H	0.591837	0.842223	0.285702
	H3	H	0.404366	0.169679	0.284990
	H4	H	0.712775	0.408243	0.832949
	H5	H	0.719310	0.609325	0.163919
	H6	H	0.286201	0.603449	0.834798
	H7	H	0.288615	0.405082	0.164367
	H8	H	0.838148	0.718255	0.396327
	H9	H	0.161492	0.727306	0.606347
	H10	H	0.839089	0.286046	0.598214
	H11	H	0.163491	0.288574	0.397945
	H12	H	0.836972	0.406718	0.710350
	H13	H	0.165123	0.603517	0.714699
	H14	H	0.838400	0.599150	0.282614
	H15	H	0.165512	0.408398	0.286285
	H16	H	0.400710	0.717147	0.833612
	H17	H	0.603702	0.723503	0.163899
	H18	H	0.599234	0.290495	0.834416
	H19	H	0.401782	0.290608	0.164103
	H20	H	0.713755	0.842907	0.396312
	H21	H	0.722037	0.167675	0.601693
	H22	H	0.282199	0.844464	0.598628
	H23	H	0.282984	0.167316	0.393414
	H24	H	0.905390	0.340905	0.208214
	H25	H	0.104268	0.667570	0.216502
	H26	H	0.094846	0.341466	0.786383
	H27	H	0.905915	0.669335	0.785339
	H28	H	0.211007	0.906583	0.332533
	H29	H	0.221031	0.108546	0.661565
	H30	H	0.787824	0.101640	0.333115
	H31	H	0.785406	0.905386	0.663687
	H32	H	0.338992	0.222260	0.894425
	H33	H	0.662746	0.226480	0.103525
	H34	H	0.338830	0.786309	0.098429
	H35	H	0.663148	0.788928	0.896126
	H36	H	0.336183	0.909615	0.208080
	H37	H	0.664031	0.105576	0.215003
	H38	H	0.337958	0.101542	0.781764
	H39	H	0.665459	0.911347	0.786358
	H40	H	0.901867	0.216172	0.333154
	H41	H	0.105141	0.222489	0.663094
	H42	H	0.097075	0.790245	0.333777
	H43	H	0.899872	0.789997	0.664334
	H44	H	0.215603	0.342334	0.897912
	H45	H	0.223163	0.666593	0.104873
	H46	H	0.780966	0.345662	0.101392
	H47	H	0.785894	0.668159	0.895494
	H48	H	0.413041	0.116969	0.579134
	H49	H	0.591543	0.892054	0.589212
	H50	H	0.595233	0.122406	0.405189
	H51	H	0.408650	0.889731	0.397349
	H52	H	0.591160	0.417206	0.116357
	H53	H	0.594723	0.592848	0.882026
	H54	H	0.411230	0.595099	0.117033
	H55	H	0.414047	0.413842	0.883565
	H56	H	0.116375	0.601451	0.412187
	H57	H	0.887540	0.592234	0.590960
	H58	H	0.116249	0.408507	0.585456
	H59	H	0.885671	0.408163	0.404889
	H60	H	0.114732	0.421178	0.592202
	H61	H	0.882475	0.600697	0.596859
	H62	H	0.115565	0.598201	0.412001
	H63	H	0.886666	0.409210	0.404707
	H64	H	0.416297	0.597814	0.116702
	H65	H	0.587641	0.600485	0.881772
	H66	H	0.593838	0.415664	0.117005
	H67	H	0.405645	0.406952	0.878436
	H68	H	0.596153	0.121013	0.409900
	H69	H	0.596521	0.889467	0.588713
	H70	H	0.400917	0.124177	0.590109
	H71	H	0.406953	0.893172	0.411662
	H72	H	0.904999	0.620894	0.082145
	H73	H	0.099194	0.387919	0.092490
	H74	H	0.095291	0.621421	0.904501
	H75	H	0.896404	0.390486	0.916766
	H76	H	0.103732	0.920519	0.618623
	H77	H	0.092682	0.105762	0.377025
	H78	H	0.915854	0.098517	0.616280
	H79	H	0.906663	0.911381	0.381210
	H80	H	0.615783	0.101140	0.911673
	H81	H	0.386220	0.096562	0.088533
	H82	H	0.615007	0.918586	0.091497
	H83	H	0.387112	0.911497	0.907559
	H84	H	0.617056	0.912331	0.094754
	H85	H	0.383190	0.099851	0.092226
	H86	H	0.616600	0.098804	0.908122
	H87	H	0.385469	0.911085	0.900552
	H88	H	0.909218	0.098469	0.618186
	H89	H	0.098476	0.091199	0.380202
	H90	H	0.084434	0.924278	0.611327
	H91	H	0.906970	0.910045	0.380839
	H92	H	0.092306	0.618249	0.913224
	H93	H	0.092830	0.390036	0.092298
	H94	H	0.907952	0.625197	0.099841
	H95	H	0.900328	0.385008	0.894511
	H96	H	0.417236	0.121717	0.596112
	H97	H	0.593841	0.889460	0.594503
	H98	H	0.599691	0.123338	0.407939
	H99	H	0.395506	0.887174	0.403970
	H100	H	0.594453	0.418964	0.115473
	H101	H	0.597497	0.603217	0.877930
	H102	H	0.412117	0.600214	0.117656
	H103	H	0.403740	0.418200	0.880748
	H104	H	0.116662	0.599812	0.409126
	H105	H	0.885115	0.602634	0.585726
	H106	H	0.120322	0.409176	0.599298
	H107	H	0.885202	0.408485	0.403844
	H108	H	0.920465	0.618450	0.089918
	H109	H	0.096049	0.390254	0.087463
	H110	H	0.101739	0.620656	0.911983
	H111	H	0.916542	0.394689	0.908021
	H112	H	0.089098	0.905896	0.618427
	H113	H	0.083101	0.095054	0.383096
	H114	H	0.912072	0.092586	0.615254
	H115	H	0.905789	0.910861	0.379866
	H116	H	0.617396	0.102946	0.908219
	H117	H	0.385411	0.102701	0.086596
	H118	H	0.616061	0.913179	0.087353
	H119	H	0.384570	0.906426	0.904356
	C120	C	0.380074	0.013937	0.618238
	C121	C	0.624569	0.997685	0.621049
	C122	C	0.622249	0.014061	0.378049
	C123	C	0.376746	0.997603	0.375261
	C124	C	0.621371	0.386998	0.007364
	C125	C	0.623752	0.629209	0.989701
	C126	C	0.381912	0.625959	0.008228
	C127	C	0.380005	0.384110	0.990379
	C128	C	0.009127	0.626588	0.378811
	C129	C	0.992290	0.628313	0.622174
	C130	C	0.009435	0.382965	0.620238
	C131	C	0.993537	0.382009	0.376600
	C132	C	0.881050	0.514163	0.119635
	C133	C	0.125781	0.496478	0.122170
	C134	C	0.123415	0.512919	0.879130
	C135	C	0.878034	0.497526	0.876558
	C136	C	0.120214	0.886172	0.506993
	C137	C	0.122911	0.127503	0.489090
	C138	C	0.881995	0.124730	0.507255
	C139	C	0.878248	0.882841	0.490308
	C140	C	0.509196	0.128238	0.877648
	C141	C	0.492351	0.129018	0.120476
	C142	C	0.508796	0.884681	0.119335
	C143	C	0.492991	0.882860	0.875351
	C144	C	0.381984	0.891529	0.673089
	C145	C	0.623900	0.120087	0.677006
	C146	C	0.615001	0.891111	0.322749
	C147	C	0.381985	0.120421	0.321127
	C148	C	0.675488	0.388330	0.882600
	C149	C	0.681017	0.628936	0.114284
	C150	C	0.324389	0.623593	0.884182
	C151	C	0.325723	0.385405	0.114891
	C152	C	0.886820	0.680586	0.377307
	C153	C	0.113789	0.686602	0.623741
	C154	C	0.887372	0.325300	0.618106
	C155	C	0.115385	0.326989	0.378223
	C156	C	0.886285	0.385673	0.673724
	C157	C	0.115626	0.625066	0.677701
	C158	C	0.886973	0.621307	0.320688
	C159	C	0.116382	0.386781	0.322727
	C160	C	0.381545	0.680097	0.883350
	C161	C	0.623724	0.685961	0.114148
	C162	C	0.619413	0.329478	0.883390
	C163	C	0.382045	0.328346	0.114671
	C164	C	0.675493	0.891528	0.377993
	C165	C	0.683182	0.119147	0.621283
	C166	C	0.321667	0.892602	0.617739
	C167	C	0.321590	0.119192	0.375081
	C168	C	0.883848	0.390461	0.172398
	C169	C	0.124384	0.618848	0.178725
	C170	C	0.117482	0.390333	0.823450
	C171	C	0.883804	0.620170	0.821710
	C172	C	0.173953	0.886848	0.382175
	C173	C	0.181912	0.128117	0.612722
	C174	C	0.825668	0.121992	0.382589
	C175	C	0.823234	0.885081	0.614551
	C176	C	0.387287	0.183737	0.875738
	C177	C	0.614439	0.186518	0.121659
	C178	C	0.386917	0.826377	0.117749
	C179	C	0.615061	0.827794	0.876807
	C180	C	0.385529	0.887292	0.172657
	C181	C	0.615074	0.126603	0.177252
	C182	C	0.386863	0.123834	0.819725
	C183	C	0.616094	0.888330	0.821918
	C184	C	0.882249	0.179018	0.382742
	C185	C	0.124214	0.184493	0.613334
	C186	C	0.117603	0.828780	0.383076
	C187	C	0.880366	0.827927	0.614757
	C188	C	0.177505	0.390837	0.879165
	C189	C	0.183687	0.618226	0.123212
	C190	C	0.821578	0.393120	0.119393
	C191	C	0.824027	0.619800	0.876613
	C192	C	0.403665	0.099118	0.595195
	C193	C	0.601039	0.912372	0.597718
	C194	C	0.602915	0.099961	0.400987
	C195	C	0.397455	0.912200	0.397859
	C196	C	0.599517	0.410182	0.093964
	C197	C	0.600334	0.605818	0.903017
	C198	C	0.406234	0.604072	0.094766
	C199	C	0.401621	0.406374	0.903480
	C200	C	0.094159	0.605775	0.403914
	C201	C	0.907107	0.605219	0.598342
	C202	C	0.094831	0.405992	0.598550
	C203	C	0.908080	0.402561	0.398020
	C204	C	0.904352	0.599265	0.097272
	C205	C	0.102608	0.411566	0.098016
	C206	C	0.102487	0.598164	0.902915
	C207	C	0.898278	0.412071	0.899691
	C208	C	0.098749	0.909915	0.593669
	C209	C	0.098552	0.104058	0.402436
	C210	C	0.905488	0.102763	0.594052
	C211	C	0.900023	0.904360	0.403199
	C212	C	0.594370	0.107226	0.902189
	C213	C	0.407054	0.106366	0.096207
	C214	C	0.594007	0.907805	0.097595
	C215	C	0.407943	0.903412	0.897553
	Zn216	Zn	0.501905	0.006000	0.748048
	Zn217	Zn	0.499843	0.006669	0.248792
	Zn218	Zn	0.750509	0.507777	-0.001329
	Zn219	Zn	0.253838	0.504796	0.000074
	Zn220	Zn	0.000202	0.756731	0.499737
	Zn221	Zn	0.001364	0.253462	0.498424
	Zn222	Zn	0.000756	0.505053	0.749841
	Zn223	Zn	0.002379	0.504453	0.248770
	Zn224	Zn	0.501311	0.754590	-0.001700
	Zn225	Zn	0.500631	0.258199	-0.000677
	Zn226	Zn	0.752813	0.005127	0.498845
	Zn227	Zn	0.249383	0.006461	0.496991
	N228	N	0.417576	0.968042	0.673573
	N229	N	0.587975	0.043650	0.676702
	N230	N	0.582697	0.968366	0.322758
	N231	N	0.415545	0.043820	0.320918
	N232	N	0.676976	0.423350	0.960773
	N233	N	0.681425	0.594551	0.035890
	N234	N	0.324535	0.590503	0.962863
	N235	N	0.324373	0.419525	0.036810
	N236	N	0.963680	0.684049	0.412673
	N237	N	0.036267	0.688767	0.589852
	N238	N	0.965127	0.323572	0.585641
	N239	N	0.038036	0.323999	0.411082
	N240	N	0.963042	0.420759	0.675380
	N241	N	0.038987	0.589645	0.677038
	N242	N	0.964169	0.588512	0.321283
	N243	N	0.039609	0.420273	0.321462
	N244	N	0.416866	0.681650	0.961503
	N245	N	0.588722	0.686188	0.035804
	N246	N	0.586442	0.328664	0.961896
	N247	N	0.415150	0.327452	0.036070
	N248	N	0.679932	0.969018	0.411703
	N249	N	0.683863	0.041701	0.587238
	N250	N	0.320664	0.969867	0.584045
	N251	N	0.318100	0.041686	0.408025
	N252	N	0.920309	0.466620	0.172629
	N253	N	0.089105	0.542103	0.178450
	N254	N	0.084582	0.467327	0.823378
	N255	N	0.916486	0.543153	0.821438
	N256	N	0.175882	0.921891	0.460289
	N257	N	0.181571	0.093701	0.534365
	N258	N	0.825271	0.088930	0.461199
	N259	N	0.821754	0.918427	0.536098
	N260	N	0.464358	0.186889	0.910907
	N261	N	0.537241	0.187999	0.087050
	N262	N	0.464461	0.824735	0.085337
	N263	N	0.537590	0.824110	0.909408
	N264	N	0.462138	0.923021	0.173783
	N265	N	0.538089	0.091437	0.176719
	N266	N	0.463602	0.090121	0.820838
	N267	N	0.539433	0.921821	0.820949
	N268	N	0.916566	0.180864	0.461252
	N269	N	0.088512	0.184420	0.535371
	N270	N	0.084906	0.828316	0.461762
	N271	N	0.913778	0.826397	0.536328
	N272	N	0.181413	0.468219	0.912961
	N273	N	0.184859	0.541075	0.088805
	N274	N	0.819940	0.470998	0.087129
	N275	N	0.820247	0.542591	0.910148
	O276	O	0.567488	0.536190	0.470070
	H277	H	0.563143	0.544467	0.470634
	H278	H	0.561568	0.534624	0.460666
	O279	O	0.556550	0.406090	0.460289
	H280	H	0.549984	0.404234	0.460977
	H281	H	0.563264	0.411686	0.460913
	O282	O	0.853786	0.932351	0.078212
	H283	H	0.856039	0.933558	0.077119
	H284	H	0.850969	0.932689	0.092187
	O285	O	0.921444	0.132852	0.927724
	H286	H	0.926267	0.133748	0.928675
	H287	H	0.923119	0.132745	0.924883
	O288	O	0.515679	0.505997	0.499539
	H289	H	0.505522	0.511405	0.512178
	H290	H	0.519107	0.519718	0.499342
	O291	O	0.408994	0.454344	0.592997
	H292	H	0.410335	0.460034	0.602112
	H293	H	0.404048	0.456515	0.604483
	O294	O	0.616237	0.514021	0.508956
	H295	H	0.616544	0.506689	0.515275
	H296	H	0.603661	0.511285	0.507682
	O297	O	0.090544	-0.048608	1.029555
	H298	H	0.090022	-0.048073	1.026494
	H299	H	0.083904	-0.050276	1.041187
	O300	O	0.496963	0.521593	0.587025
	H301	H	0.499772	0.520014	0.596566
	H302	H	0.499118	0.521518	0.585830
	O303	O	0.390054	0.605364	0.464540
	H304	H	0.385432	0.610010	0.467052
	H305	H	0.386306	0.608387	0.460029
	O306	O	-0.002344	0.990623	1.042724
	H307	H	0.001289	0.996617	1.040299
	H308	H	0.000887	0.982563	1.039082
	O309	O	0.370203	0.552538	0.535423
	H310	H	0.369170	0.563298	0.539488
	H311	H	0.373714	0.554661	0.547833
	O312	O	-0.019282	-0.039902	0.051629
	H313	H	-0.015281	-0.013107	0.043488
	H314	H	-0.013755	-0.042854	0.053904
	O315	O	0.914490	0.025933	-0.024500
	H316	H	0.930706	0.021608	-0.021755
	H317	H	0.914050	0.035664	-0.047267
	O318	O	0.910871	0.883130	1.044806
	H319	H	0.898351	0.873477	1.064265
	H320	H	0.912726	0.897597	1.046444
	O321	O	0.019488	0.049654	0.900322
	H322	H	0.019188	0.045002	0.902052
	H323	H	0.017461	0.055477	0.903489
	O324	O	0.420245	0.460092	0.466518
	H325	H	0.425698	0.456161	0.468870
	H326	H	0.409087	0.456912	0.466556
	O327	O	0.097935	-0.082108	0.055561
	H328	H	0.080523	-0.089080	0.045000
	H329	H	0.095669	-0.087249	0.072007
	O330	O	0.469792	0.507268	0.568267
	H331	H	0.479052	0.509201	0.566355
	H332	H	0.473389	0.501621	0.562361
	O333	O	0.041836	1.172041	1.031587
	H334	H	0.041300	1.180733	1.016099
	H335	H	0.044353	1.170462	1.040493
	O336	O	0.054535	0.022733	-0.087213
	H337	H	0.063351	0.023662	-0.094384
	H338	H	0.047143	0.025027	-0.085421
	O339	O	0.388560	0.446495	0.510252
	H340	H	0.374854	0.442802	0.512224
	H341	H	0.391077	0.440343	0.510109
	O342	O	1.120465	0.969904	0.985329
	H343	H	1.117367	0.970079	0.979404
	H344	H	1.120888	0.974035	0.988423
	O345	O	1.002725	0.984748	0.010568
	H346	H	1.008861	0.970807	0.005631
	H347	H	0.990761	0.982938	0.014261
	O348	O	0.439144	0.603756	0.356329
	H349	H	0.437187	0.600229	0.356287
	H350	H	0.435570	0.602369	0.351131
	O351	O	0.991585	-0.074070	-0.091574
	H352	H	0.998567	-0.072156	-0.090481
	H353	H	1.002276	-0.086852	-0.095400
	O354	O	0.539386	0.607829	0.583893
	H355	H	0.535605	0.617066	0.579577
	H356	H	0.541312	0.612936	0.579932
	O357	O	0.928671	0.063493	0.943044
	H358	H	0.922530	0.063103	0.937180
	H359	H	0.908992	0.060702	0.943240
	O360	O	0.476891	0.455094	0.449687
	H361	H	0.464835	0.449894	0.450464
	H362	H	0.477618	0.445877	0.457959
	O363	O	0.582950	0.509005	0.527874
	H364	H	0.589842	0.504036	0.526221
	H365	H	0.582798	0.496390	0.520841
	O366	O	0.988963	0.968292	0.990462
	H367	H	0.984727	0.966001	0.988124
	H368	H	0.973477	0.970628	0.979551
	O369	O	0.979857	0.063626	1.039150
	H370	H	0.987578	0.061067	1.035462
	H371	H	0.991489	0.054172	1.047067
	O372	O	0.060807	0.150446	0.043185
	H373	H	0.055375	0.136746	0.041760
	H374	H	0.061972	0.158461	0.035283
	O375	O	1.033316	-0.132910	-0.026599
	H376	H	1.036728	-0.125780	-0.009954
	H377	H	1.022941	-0.138046	-0.021813
	O378	O	0.547583	0.484257	0.447148
	H379	H	0.551967	0.479884	0.440286
	H380	H	0.548892	0.496305	0.449984
	O381	O	0.639284	0.558130	0.634753
	H382	H	0.640344	0.558758	0.632362
	H383	H	0.646751	0.563291	0.631206
