data_Molecule from HDF5

_cell_length_a		16.260294
_cell_length_b		16.404000
_cell_length_c		16.211198
_cell_angle_alpha	89.920589
_cell_angle_beta	90.096344
_cell_angle_gamma	90.005297
_symmetry_space_group_name_H-M	'P 1'
_symmetry_Int_Tables_number		1

loop_
	_symmetry_equiv_pos_as_xyz
	x,y,z

loop_
	_atom_site_label
	_atom_site_type_symbol
	_atom_site_fract_x
	_atom_site_fract_y
	_atom_site_fract_z
	H0	H	0.405220	0.834392	0.715777
	H1	H	0.603471	0.159423	0.715718
	H2	H	0.600737	0.835010	0.284836
	H3	H	0.404922	0.160259	0.284996
	H4	H	0.715517	0.402010	0.836468
	H5	H	0.716006	0.594997	0.166051
	H6	H	0.288556	0.596137	0.837346
	H7	H	0.291264	0.399287	0.165055
	H8	H	0.839983	0.713659	0.400576
	H9	H	0.165909	0.712888	0.603621
	H10	H	0.839166	0.280842	0.601414
	H11	H	0.165754	0.282436	0.401216
	H12	H	0.837961	0.400781	0.713751
	H13	H	0.167580	0.592327	0.714249
	H14	H	0.838368	0.593424	0.288140
	H15	H	0.166636	0.399229	0.288267
	H16	H	0.402011	0.713494	0.837428
	H17	H	0.602811	0.712591	0.164575
	H18	H	0.602925	0.283750	0.836524
	H19	H	0.403230	0.281558	0.163835
	H20	H	0.718628	0.834399	0.400941
	H21	H	0.719428	0.159523	0.598975
	H22	H	0.287691	0.835156	0.600277
	H23	H	0.286590	0.159452	0.399205
	H24	H	0.905239	0.333825	0.215011
	H25	H	0.099411	0.659842	0.215787
	H26	H	0.100228	0.334150	0.787246
	H27	H	0.906107	0.660832	0.787245
	H28	H	0.215007	0.900579	0.336129
	H29	H	0.218793	0.095923	0.664331
	H30	H	0.789912	0.095000	0.335329
	H31	H	0.789666	0.898918	0.664693
	H32	H	0.339611	0.213123	0.898596
	H33	H	0.666309	0.213334	0.100423
	H34	H	0.340106	0.780745	0.101908
	H35	H	0.665379	0.780706	0.900074
	H36	H	0.338776	0.901014	0.213185
	H37	H	0.667724	0.094592	0.213814
	H38	H	0.339061	0.094080	0.786053
	H39	H	0.668097	0.899202	0.787479
	H40	H	0.902277	0.213529	0.336678
	H41	H	0.103801	0.212232	0.664181
	H42	H	0.104212	0.780233	0.338450
	H43	H	0.903539	0.782127	0.664608
	H44	H	0.219425	0.335316	0.901876
	H45	H	0.218477	0.660035	0.100589
	H46	H	0.787445	0.335053	0.099957
	H47	H	0.788679	0.660949	0.903305
	H48	H	0.412292	0.108964	0.582990
	H49	H	0.594926	0.883703	0.590695
	H50	H	0.600598	0.114155	0.404737
	H51	H	0.400685	0.878764	0.404836
	H52	H	0.599122	0.398180	0.121077
	H53	H	0.598549	0.583593	0.884867
	H54	H	0.409892	0.577930	0.115059
	H55	H	0.416028	0.394726	0.881520
	H56	H	0.119728	0.593597	0.411065
	H57	H	0.887204	0.586605	0.593507
	H58	H	0.120494	0.397917	0.593178
	H59	H	0.886583	0.411017	0.404762
	H60	H	0.116218	0.405837	0.589264
	H61	H	0.884465	0.593420	0.597490
	H62	H	0.117257	0.586912	0.412532
	H63	H	0.882369	0.396218	0.404039
	H64	H	0.423554	0.595822	0.115750
	H65	H	0.587734	0.591142	0.886282
	H66	H	0.598025	0.411887	0.116069
	H67	H	0.399972	0.406581	0.880703
	H68	H	0.593497	0.110859	0.404805
	H69	H	0.600416	0.881092	0.592014
	H70	H	0.401778	0.115646	0.594655
	H71	H	0.416028	0.881478	0.400001
	H72	H	0.906968	0.616207	0.106736
	H73	H	0.094901	0.381488	0.096038
	H74	H	0.092794	0.613395	0.901161
	H75	H	0.909421	0.383947	0.912275
	H76	H	0.100315	0.907399	0.618861
	H77	H	0.088638	0.093719	0.384959
	H78	H	0.912572	0.091691	0.616625
	H79	H	0.911293	0.898325	0.382138
	H80	H	0.622862	0.094853	0.901024
	H81	H	0.384515	0.102901	0.089828
	H82	H	0.619429	0.905375	0.093813
	H83	H	0.385606	0.905643	0.901609
	H84	H	0.620110	0.902537	0.091674
	H85	H	0.391478	0.083841	0.082624
	H86	H	0.618930	0.097064	0.915481
	H87	H	0.385797	0.898756	0.910542
	H88	H	0.909558	0.089943	0.616838
	H89	H	0.100145	0.095462	0.380459
	H90	H	0.092124	0.907451	0.615737
	H91	H	0.906745	0.907335	0.383482
	H92	H	0.090768	0.608934	0.914789
	H93	H	0.098236	0.381845	0.091639
	H94	H	0.919742	0.609225	0.092522
	H95	H	0.903246	0.380373	0.907387
	H96	H	0.418162	0.112368	0.599181
	H97	H	0.595761	0.880721	0.597008
	H98	H	0.597461	0.111974	0.410878
	H99	H	0.411366	0.885536	0.415629
	H100	H	0.586481	0.402803	0.116228
	H101	H	0.599459	0.596602	0.881523
	H102	H	0.401880	0.597429	0.122906
	H103	H	0.417510	0.413352	0.888015
	H104	H	0.120268	0.589153	0.405867
	H105	H	0.886654	0.593378	0.589259
	H106	H	0.119904	0.406467	0.598849
	H107	H	0.887888	0.402664	0.416947
	H108	H	0.900635	0.613645	0.087861
	H109	H	0.100057	0.381131	0.097086
	H110	H	0.103410	0.614051	0.910475
	H111	H	0.911156	0.381717	0.903280
	H112	H	0.095223	0.899744	0.619463
	H113	H	0.096710	0.084817	0.384705
	H114	H	0.912634	0.088675	0.616301
	H115	H	0.917245	0.905851	0.386381
	H116	H	0.617048	0.083664	0.909083
	H117	H	0.384935	0.086591	0.102453
	H118	H	0.617911	0.905300	0.089917
	H119	H	0.389304	0.908803	0.911359
	C120	C	0.381822	0.005050	0.621789
	C121	C	0.625766	0.988918	0.621928
	C122	C	0.625442	0.005360	0.377881
	C123	C	0.380756	0.989205	0.377923
	C124	C	0.623787	0.376196	0.009314
	C125	C	0.624106	0.619129	0.992526
	C126	C	0.382173	0.618948	0.009481
	C127	C	0.382363	0.375983	0.991843
	C128	C	0.010960	0.618274	0.380475
	C129	C	0.994636	0.618709	0.622739
	C130	C	0.010916	0.374733	0.622922
	C131	C	0.993952	0.375366	0.379964
	C132	C	0.880680	0.505666	0.123559
	C133	C	0.125561	0.489146	0.123577
	C134	C	0.124585	0.504969	0.879851
	C135	C	0.880326	0.489685	0.879290
	C136	C	0.124525	0.876047	0.509793
	C137	C	0.124556	0.119123	0.492150
	C138	C	0.882322	0.118496	0.508370
	C139	C	0.882649	0.875851	0.492443
	C140	C	0.511349	0.119607	0.878887
	C141	C	0.495024	0.119613	0.121246
	C142	C	0.511093	0.875973	0.121398
	C143	C	0.494911	0.875978	0.879265
	C144	C	0.384470	0.883114	0.677595
	C145	C	0.623753	0.111028	0.677395
	C146	C	0.622222	0.883176	0.322813
	C147	C	0.383627	0.111452	0.322520
	C148	C	0.678537	0.380330	0.885557
	C149	C	0.678917	0.616104	0.116718
	C150	C	0.326757	0.616356	0.885955
	C151	C	0.327866	0.378635	0.115765
	C152	C	0.888321	0.674398	0.381416
	C153	C	0.117632	0.673878	0.622272
	C154	C	0.887793	0.319589	0.620980
	C155	C	0.116861	0.320330	0.381746
	C156	C	0.887094	0.378911	0.677051
	C157	C	0.118274	0.614040	0.677486
	C158	C	0.887718	0.614804	0.325521
	C159	C	0.117404	0.378484	0.325392
	C160	C	0.383173	0.674625	0.886139
	C161	C	0.622864	0.674750	0.115849
	C162	C	0.622644	0.321526	0.885603
	C163	C	0.383737	0.320136	0.114957
	C164	C	0.680791	0.883076	0.380376
	C165	C	0.681499	0.110948	0.619431
	C166	C	0.325981	0.883576	0.620154
	C167	C	0.325190	0.111121	0.379733
	C168	C	0.883889	0.382763	0.177749
	C169	C	0.121472	0.611144	0.178727
	C170	C	0.121529	0.382729	0.824869
	C171	C	0.884667	0.612249	0.824776
	C172	C	0.178657	0.878830	0.385709
	C173	C	0.180270	0.116101	0.615556
	C174	C	0.827633	0.115661	0.384439
	C175	C	0.827439	0.878762	0.615943
	C176	C	0.388474	0.175052	0.879292
	C177	C	0.617726	0.174991	0.120172
	C178	C	0.388564	0.819903	0.120884
	C179	C	0.617383	0.819617	0.880566
	C180	C	0.387889	0.879241	0.176371
	C181	C	0.618424	0.115995	0.176447
	C182	C	0.388033	0.115578	0.823556
	C183	C	0.618699	0.878683	0.824809
	C184	C	0.883519	0.174589	0.385081
	C185	C	0.123448	0.174175	0.615456
	C186	C	0.123294	0.819352	0.386927
	C187	C	0.884132	0.820750	0.615968
	C188	C	0.180619	0.383338	0.881726
	C189	C	0.180219	0.611403	0.121274
	C190	C	0.824998	0.383601	0.121002
	C191	C	0.826437	0.612292	0.882662
	C192	C	0.404344	0.090407	0.599024
	C193	C	0.603435	0.903794	0.599744
	C194	C	0.603578	0.090354	0.400284
	C195	C	0.402967	0.904037	0.400373
	C196	C	0.601081	0.397752	0.095514
	C197	C	0.601706	0.597081	0.906493
	C198	C	0.405091	0.596985	0.095649
	C199	C	0.404536	0.398338	0.905589
	C200	C	0.096917	0.596396	0.403271
	C201	C	0.908420	0.597427	0.599996
	C202	C	0.096726	0.396880	0.600363
	C203	C	0.907855	0.397067	0.401961
	C204	C	0.902576	0.591009	0.102021
	C205	C	0.104011	0.403609	0.101371
	C206	C	0.102246	0.590148	0.902124
	C207	C	0.901618	0.404076	0.901158
	C208	C	0.102428	0.898217	0.595830
	C209	C	0.101904	0.097660	0.405810
	C210	C	0.904954	0.096510	0.594471
	C211	C	0.905197	0.897416	0.406170
	C212	C	0.597377	0.098130	0.901731
	C213	C	0.409041	0.097495	0.098420
	C214	C	0.596793	0.897976	0.098450
	C215	C	0.409092	0.897957	0.901192
	Zn216	Zn	0.503913	-0.002818	0.750969
	Zn217	Zn	0.503022	-0.002270	0.249206
	Zn218	Zn	0.751439	0.497470	0.001712
	Zn219	Zn	0.254894	0.497220	0.001099
	Zn220	Zn	0.003219	0.747335	0.501695
	Zn221	Zn	0.002955	0.246798	0.500840
	Zn222	Zn	0.002336	0.497081	0.750642
	Zn223	Zn	0.002775	0.496047	0.252314
	Zn224	Zn	0.502963	0.747344	0.000903
	Zn225	Zn	0.502965	0.248153	-0.000003
	Zn226	Zn	0.754851	-0.003142	0.499988
	Zn227	Zn	0.252365	-0.002485	0.500106
	N228	N	0.418563	0.959922	0.678594
	N229	N	0.589843	0.034283	0.679061
	N230	N	0.588520	0.959959	0.321200
	N231	N	0.417586	0.034764	0.321361
	N232	N	0.679282	0.413717	0.963405
	N233	N	0.679976	0.582294	0.039169
	N234	N	0.326038	0.582635	0.963698
	N235	N	0.326896	0.412792	0.038200
	N236	N	0.966201	0.676815	0.414910
	N237	N	0.039826	0.676626	0.588869
	N238	N	0.965774	0.316939	0.588160
	N239	N	0.039073	0.318247	0.414981
	N240	N	0.964614	0.412429	0.678505
	N241	N	0.040688	0.580405	0.677855
	N242	N	0.964871	0.580695	0.324980
	N243	N	0.039920	0.411914	0.324348
	N244	N	0.416940	0.676381	0.963971
	N245	N	0.589371	0.676751	0.037849
	N246	N	0.589212	0.319084	0.963507
	N247	N	0.416766	0.318389	0.036940
	N248	N	0.682914	0.960064	0.413901
	N249	N	0.682884	0.033914	0.585617
	N250	N	0.324316	0.960422	0.586352
	N251	N	0.323198	0.034108	0.413395
	N252	N	0.917955	0.459411	0.179491
	N253	N	0.088207	0.534043	0.180014
	N254	N	0.087224	0.459338	0.823789
	N255	N	0.917370	0.534968	0.822543
	N256	N	0.179273	0.913494	0.462926
	N257	N	0.181037	0.082733	0.537720
	N258	N	0.826786	0.081461	0.461900
	N259	N	0.826560	0.912268	0.538174
	N260	N	0.466162	0.177392	0.913167
	N261	N	0.539959	0.177341	0.086832
	N262	N	0.466100	0.818062	0.087133
	N263	N	0.539831	0.817790	0.913807
	N264	N	0.465185	0.913316	0.176830
	N265	N	0.541013	0.082046	0.177030
	N266	N	0.465486	0.081928	0.822937
	N267	N	0.541458	0.913324	0.823926
	N268	N	0.916838	0.176481	0.463239
	N269	N	0.089482	0.176155	0.537807
	N270	N	0.090209	0.817487	0.465016
	N271	N	0.918036	0.819104	0.538276
	N272	N	0.182692	0.460352	0.915089
	N273	N	0.183055	0.534399	0.087797
	N274	N	0.823093	0.460814	0.087782
	N275	N	0.823735	0.535018	0.915809
	O276	O	1.020041	1.022382	0.044764
	H277	H	1.030655	1.031843	0.044382
	H278	H	1.026767	1.018230	0.046949
	O279	O	-0.025142	0.049100	-0.009757
	H280	H	-0.028121	0.051265	-0.016185
	H281	H	-0.017807	0.052420	-0.009679
	O282	O	-0.019169	0.040632	0.978049
	H283	H	-0.012872	0.037595	0.981022
	H284	H	-0.020855	0.037639	0.976471
	O285	O	0.441943	0.456456	0.455351
	H286	H	0.433591	0.452317	0.457939
	H287	H	0.450151	0.455259	0.452408
	O288	O	0.436482	0.500290	0.461957
	H289	H	0.446449	0.503722	0.456089
	H290	H	0.438553	0.501175	0.453149
	O291	O	0.513004	0.502240	0.457881
	H292	H	0.508693	0.502284	0.463449
	H293	H	0.511024	0.506717	0.462826
	O294	O	0.021938	0.015211	-0.014293
	H295	H	0.019220	0.023891	-0.014667
	H296	H	0.022061	0.011080	-0.015275
	O297	O	0.482575	0.501760	0.505430
	H298	H	0.479354	0.499306	0.505259
	H299	H	0.478339	0.505172	0.513736
	O300	O	-0.009091	1.025851	0.976198
	H301	H	-0.010706	1.026902	0.979404
	H302	H	-0.009159	1.027691	0.972898
	O303	O	0.444136	0.505126	0.420767
	H304	H	0.452998	0.510561	0.419776
	H305	H	0.450333	0.507245	0.421769
	O306	O	0.012896	0.018485	1.006673
	H307	H	0.005829	0.016123	1.007220
	H308	H	0.005419	0.012040	1.017060
	O309	O	0.977084	1.058748	0.945005
	H310	H	0.965585	1.066891	0.937756
	H311	H	0.982932	1.067189	0.950299
	O312	O	0.476026	0.458079	0.504179
	H313	H	0.471359	0.456688	0.505138
	H314	H	0.477525	0.460094	0.510905
	O315	O	0.428644	0.447033	0.535385
	H316	H	0.415836	0.444206	0.538552
	H317	H	0.420105	0.446261	0.520357
	O318	O	-0.013406	0.985930	0.061759
	H319	H	-0.013592	0.981756	0.060403
	H320	H	-0.016092	0.976860	0.066763
	O321	O	1.001080	0.964617	0.003309
	H322	H	1.001024	0.966548	0.002353
	H323	H	1.001951	0.967778	-0.007089
