data_Molecule from HDF5

_cell_length_a		16.293494
_cell_length_b		16.275740
_cell_length_c		16.274196
_cell_angle_alpha	90.033921
_cell_angle_beta	90.025090
_cell_angle_gamma	89.829167
_symmetry_space_group_name_H-M	'P 1'
_symmetry_Int_Tables_number		1

loop_
	_symmetry_equiv_pos_as_xyz
	x,y,z

loop_
	_atom_site_label
	_atom_site_type_symbol
	_atom_site_fract_x
	_atom_site_fract_y
	_atom_site_fract_z
	H0	H	0.403293	0.829269	0.705980
	H1	H	0.599889	0.156835	0.706716
	H2	H	0.599971	0.829850	0.277492
	H3	H	0.401105	0.156860	0.276481
	H4	H	0.718653	0.391752	0.828306
	H5	H	0.716327	0.591864	0.154584
	H6	H	0.287658	0.592212	0.827370
	H7	H	0.287504	0.393727	0.154209
	H8	H	0.839121	0.706850	0.392575
	H9	H	0.166245	0.706664	0.590681
	H10	H	0.837657	0.278888	0.589585
	H11	H	0.165607	0.277299	0.392800
	H12	H	0.838550	0.395060	0.705896
	H13	H	0.166049	0.589723	0.705664
	H14	H	0.839561	0.591699	0.276419
	H15	H	0.165336	0.392135	0.275797
	H16	H	0.402200	0.709167	0.828089
	H17	H	0.599991	0.705852	0.155161
	H18	H	0.601419	0.278055	0.828448
	H19	H	0.404940	0.280322	0.155685
	H20	H	0.715593	0.829416	0.392635
	H21	H	0.716529	0.156649	0.590365
	H22	H	0.289304	0.829201	0.589662
	H23	H	0.287013	0.156156	0.393227
	H24	H	0.904876	0.329493	0.205185
	H25	H	0.102042	0.655894	0.206542
	H26	H	0.100493	0.328971	0.777569
	H27	H	0.904391	0.656475	0.777685
	H28	H	0.217487	0.893940	0.326822
	H29	H	0.215636	0.090640	0.655052
	H30	H	0.786809	0.091545	0.326529
	H31	H	0.788500	0.894681	0.654154
	H32	H	0.339088	0.209486	0.892359
	H33	H	0.665995	0.207639	0.091304
	H34	H	0.338836	0.777712	0.091939
	H35	H	0.664598	0.777599	0.893207
	H36	H	0.338797	0.897254	0.205464
	H37	H	0.665179	0.092061	0.206613
	H38	H	0.338805	0.092723	0.777154
	H39	H	0.664444	0.891570	0.775083
	H40	H	0.903121	0.207362	0.326597
	H41	H	0.099237	0.206257	0.654835
	H42	H	0.101381	0.778200	0.327051
	H43	H	0.905686	0.779460	0.655059
	H44	H	0.218188	0.329594	0.891397
	H45	H	0.216674	0.656178	0.088894
	H46	H	0.789102	0.329668	0.090245
	H47	H	0.787584	0.656374	0.891775
	H48	H	0.399942	0.112480	0.584458
	H49	H	0.598808	0.877981	0.576387
	H50	H	0.595634	0.112752	0.393504
	H51	H	0.412395	0.879699	0.407335
	H52	H	0.595050	0.393904	0.109222
	H53	H	0.594990	0.593945	0.871691
	H54	H	0.407440	0.590332	0.109017
	H55	H	0.417141	0.395066	0.875082
	H56	H	0.120468	0.589718	0.396252
	H57	H	0.885753	0.585157	0.588977
	H58	H	0.118237	0.397777	0.582824
	H59	H	0.886232	0.401009	0.400251
	H60	H	0.118026	0.400139	0.584003
	H61	H	0.885376	0.591115	0.582457
	H62	H	0.118198	0.586088	0.403144
	H63	H	0.885195	0.401510	0.396018
	H64	H	0.405637	0.581162	0.107169
	H65	H	0.602648	0.581718	0.873067
	H66	H	0.602833	0.402933	0.109863
	H67	H	0.402768	0.399980	0.871660
	H68	H	0.589176	0.107653	0.400129
	H69	H	0.600089	0.873584	0.590344
	H70	H	0.414237	0.110435	0.590822
	H71	H	0.400416	0.872971	0.395501
	H72	H	0.908347	0.611816	0.089542
	H73	H	0.087522	0.376014	0.093523
	H74	H	0.095815	0.608769	0.898684
	H75	H	0.905860	0.372880	0.889171
	H76	H	0.094749	0.909330	0.604061
	H77	H	0.096256	0.082280	0.375050
	H78	H	0.909029	0.088735	0.607694
	H79	H	0.899823	0.903683	0.372848
	H80	H	0.617930	0.085257	0.901656
	H81	H	0.381205	0.097161	0.089019
	H82	H	0.619937	0.900634	0.091656
	H83	H	0.389188	0.907632	0.905815
	H84	H	0.619663	0.892625	0.081604
	H85	H	0.388845	0.087874	0.073506
	H86	H	0.618570	0.083372	0.897749
	H87	H	0.383190	0.904499	0.889341
	H88	H	0.906401	0.083245	0.607056
	H89	H	0.092274	0.086071	0.374950
	H90	H	0.088595	0.892042	0.606975
	H91	H	0.917259	0.902986	0.376815
	H92	H	0.094701	0.608497	0.898368
	H93	H	0.091145	0.380871	0.071774
	H94	H	0.914943	0.607594	0.082006
	H95	H	0.919775	0.379673	0.899005
	H96	H	0.411900	0.106138	0.576817
	H97	H	0.587160	0.879517	0.585207
	H98	H	0.598675	0.110123	0.403128
	H99	H	0.417235	0.875821	0.389910
	H100	H	0.591603	0.404997	0.105344
	H101	H	0.588770	0.581967	0.877640
	H102	H	0.414879	0.585426	0.105750
	H103	H	0.413594	0.408967	0.878271
	H104	H	0.119109	0.581619	0.395757
	H105	H	0.888002	0.582664	0.581060
	H106	H	0.118537	0.398021	0.586088
	H107	H	0.885409	0.397724	0.397876
	H108	H	0.904704	0.610328	0.080503
	H109	H	0.107739	0.372050	0.084758
	H110	H	0.094583	0.609283	0.899417
	H111	H	0.903766	0.376447	0.906923
	H112	H	0.105704	0.896095	0.610728
	H113	H	0.096933	0.087136	0.373612
	H114	H	0.912472	0.083510	0.605061
	H115	H	0.908592	0.888891	0.370559
	H116	H	0.619418	0.087995	0.897841
	H117	H	0.386247	0.077980	0.090536
	H118	H	0.615490	0.904591	0.080173
	H119	H	0.382999	0.891203	0.901214
	C120	C	0.380566	0.001246	0.613032
	C121	C	0.623755	0.984969	0.613045
	C122	C	0.623195	0.001916	0.369854
	C123	C	0.381251	0.984703	0.369544
	C124	C	0.625382	0.371101	0.000151
	C125	C	0.623842	0.614223	0.982659
	C126	C	0.380108	0.615153	-0.000499
	C127	C	0.382120	0.372189	0.983007
	C128	C	0.011349	0.614360	0.369584
	C129	C	0.994269	0.614519	0.612927
	C130	C	0.010201	0.370299	0.613165
	C131	C	0.993643	0.371009	0.369586
	C132	C	0.880872	0.501826	0.112867
	C133	C	0.124273	0.484173	0.112145
	C134	C	0.124074	0.501315	0.869485
	C135	C	0.881097	0.484525	0.869912
	C136	C	0.125099	0.870216	0.499227
	C137	C	0.123524	0.113980	0.482634
	C138	C	0.880291	0.114196	0.498815
	C139	C	0.880937	0.871138	0.482232
	C140	C	0.510564	0.114827	0.870300
	C141	C	0.493864	0.115476	0.113263
	C142	C	0.510424	0.871688	0.112992
	C143	C	0.493166	0.871685	0.870482
	C144	C	0.383282	0.878304	0.668374
	C145	C	0.620571	0.107967	0.668602
	C146	C	0.620748	0.878804	0.314862
	C147	C	0.382428	0.107910	0.314649
	C148	C	0.680617	0.372493	0.877381
	C149	C	0.678882	0.612099	0.105608
	C150	C	0.325465	0.612475	0.876381
	C151	C	0.325857	0.373799	0.105614
	C152	C	0.887971	0.669232	0.371974
	C153	C	0.117451	0.668759	0.610703
	C154	C	0.886861	0.316141	0.610194
	C155	C	0.116742	0.315205	0.372047
	C156	C	0.887334	0.373762	0.668308
	C157	C	0.117225	0.610715	0.668109
	C158	C	0.888333	0.611689	0.314446
	C159	C	0.116448	0.372271	0.313777
	C160	C	0.382212	0.670918	0.876861
	C161	C	0.620571	0.668722	0.106024
	C162	C	0.622587	0.315526	0.877345
	C163	C	0.384444	0.317447	0.106373
	C164	C	0.677971	0.878464	0.372211
	C165	C	0.678910	0.107860	0.611006
	C166	C	0.326529	0.878142	0.610417
	C167	C	0.325182	0.107594	0.372338
	C168	C	0.884101	0.378542	0.167692
	C169	C	0.122061	0.607225	0.168051
	C170	C	0.121330	0.377882	0.814698
	C171	C	0.883501	0.607563	0.814824
	C172	C	0.180063	0.873265	0.375905
	C173	C	0.178200	0.111285	0.605934
	C174	C	0.824858	0.112018	0.375427
	C175	C	0.826263	0.873971	0.605365
	C176	C	0.387868	0.171022	0.872335
	C177	C	0.617052	0.169998	0.111312
	C178	C	0.387241	0.816692	0.110927
	C179	C	0.615851	0.815468	0.872239
	C180	C	0.387201	0.875412	0.167914
	C181	C	0.616636	0.112629	0.168803
	C182	C	0.387749	0.113190	0.814762
	C183	C	0.615900	0.872497	0.814084
	C184	C	0.882754	0.169283	0.375398
	C185	C	0.120633	0.168948	0.605853
	C186	C	0.122079	0.815879	0.375833
	C187	C	0.884447	0.816707	0.605818
	C188	C	0.180235	0.378379	0.870652
	C189	C	0.178737	0.607469	0.109417
	C190	C	0.826556	0.378698	0.110370
	C191	C	0.825666	0.607527	0.871710
	C192	C	0.402372	0.087382	0.590673
	C193	C	0.601693	0.899229	0.590446
	C194	C	0.600924	0.087801	0.392275
	C195	C	0.403459	0.898491	0.391155
	C196	C	0.603092	0.393822	0.085949
	C197	C	0.601952	0.592328	0.896456
	C198	C	0.402669	0.592318	0.085355
	C199	C	0.404619	0.394828	0.897175
	C200	C	0.097165	0.592375	0.391957
	C201	C	0.908549	0.592903	0.590565
	C202	C	0.096339	0.392261	0.590977
	C203	C	0.907807	0.393347	0.391915
	C204	C	0.902870	0.587710	0.090650
	C205	C	0.102103	0.398488	0.089997
	C206	C	0.101564	0.586812	0.892034
	C207	C	0.903324	0.398560	0.891955
	C208	C	0.102996	0.892477	0.585113
	C209	C	0.101681	0.091649	0.396697
	C210	C	0.902617	0.091772	0.584435
	C211	C	0.902247	0.892201	0.395797
	C212	C	0.596488	0.092137	0.892541
	C213	C	0.407779	0.094050	0.090997
	C214	C	0.596134	0.893013	0.091004
	C215	C	0.407594	0.894371	0.892387
	Zn216	Zn	0.501280	-0.006879	0.741807
	Zn217	Zn	0.501974	-0.006001	0.241503
	Zn218	Zn	0.753026	0.493531	-0.008869
	Zn219	Zn	0.252965	0.492678	-0.009222
	Zn220	Zn	0.002847	0.742458	0.490899
	Zn221	Zn	0.001321	0.242335	0.491114
	Zn222	Zn	0.001976	0.492518	0.741426
	Zn223	Zn	0.002599	0.492666	0.241103
	Zn224	Zn	0.502082	0.742638	-0.008444
	Zn225	Zn	0.502837	0.243707	-0.008064
	Zn226	Zn	0.752171	-0.007117	0.490281
	Zn227	Zn	0.252863	-0.007874	0.490988
	N228	N	0.416155	0.956061	0.670008
	N229	N	0.587140	0.030493	0.670176
	N230	N	0.587330	0.956572	0.313201
	N231	N	0.416537	0.030411	0.312892
	N232	N	0.682484	0.406259	0.954774
	N233	N	0.680965	0.579043	0.027866
	N234	N	0.323835	0.578731	0.953970
	N235	N	0.324169	0.407091	0.027862
	N236	N	0.965470	0.670910	0.405674
	N237	N	0.039850	0.671344	0.577365
	N238	N	0.964516	0.313735	0.577007
	N239	N	0.039409	0.314301	0.406015
	N240	N	0.964980	0.406787	0.669924
	N241	N	0.039717	0.577546	0.669518
	N242	N	0.966018	0.578541	0.312614
	N243	N	0.039093	0.406466	0.312296
	N244	N	0.415397	0.672459	0.954457
	N245	N	0.587035	0.670409	0.028417
	N246	N	0.588974	0.314483	0.954827
	N247	N	0.418668	0.316562	0.029077
	N248	N	0.679457	0.955943	0.405834
	N249	N	0.680998	0.030291	0.577147
	N250	N	0.324971	0.955463	0.576554
	N251	N	0.324363	0.030089	0.405899
	N252	N	0.917343	0.456042	0.169322
	N253	N	0.088786	0.529665	0.169731
	N254	N	0.087347	0.455299	0.813652
	N255	N	0.917394	0.530093	0.813657
	N256	N	0.181848	0.906478	0.453784
	N257	N	0.180324	0.077781	0.528201
	N258	N	0.823312	0.078390	0.453021
	N259	N	0.823904	0.906958	0.527575
	N260	N	0.465324	0.172066	0.906091
	N261	N	0.539618	0.171907	0.077640
	N262	N	0.464823	0.814308	0.077469
	N263	N	0.538799	0.814956	0.906528
	N264	N	0.464429	0.908991	0.169170
	N265	N	0.538982	0.079555	0.170297
	N266	N	0.465031	0.079223	0.813221
	N267	N	0.538628	0.906919	0.812804
	N268	N	0.916215	0.170913	0.453086
	N269	N	0.087252	0.170578	0.528367
	N270	N	0.088706	0.813990	0.453377
	N271	N	0.917622	0.814877	0.528185
	N272	N	0.181842	0.455927	0.904275
	N273	N	0.180633	0.530089	0.075735
	N274	N	0.824667	0.456328	0.076759
	N275	N	0.823974	0.530033	0.905145
	O276	O	0.442790	0.490622	0.491464
	H277	H	0.435033	0.491329	0.497190
	H278	H	0.438010	0.490235	0.490764
	O279	O	0.454114	0.505809	0.507012
	H280	H	0.464020	0.494144	0.503685
	H281	H	0.457305	0.511384	0.505587
	O282	O	0.507763	0.537122	0.514833
	H283	H	0.511818	0.531306	0.511398
	H284	H	0.500865	0.539025	0.515925
	O285	O	-0.032259	0.967181	0.940581
	H286	H	-0.034090	0.968327	0.943098
	H287	H	-0.029722	0.970081	0.954622
	O288	O	0.422515	0.479089	0.525255
	H289	H	0.419449	0.476799	0.522060
	H290	H	0.421327	0.482724	0.527956
	O291	O	-0.014340	-0.018434	0.866319
	H292	H	-0.015061	-0.025148	0.868872
	H293	H	-0.018542	-0.028096	0.862869
	O294	O	0.502785	0.513624	0.505835
	H295	H	0.496229	0.509348	0.505471
	H296	H	0.496020	0.501888	0.510278
	O297	O	0.529197	0.387557	0.531647
	H298	H	0.532836	0.398164	0.534934
	H299	H	0.522981	0.389085	0.539148
	O300	O	1.011252	1.017482	0.934163
	H301	H	1.016291	1.024013	0.932952
	H302	H	1.010162	1.016451	0.933483
	O303	O	0.526897	0.537865	0.545634
	H304	H	0.528449	0.541436	0.546467
	H305	H	0.521550	0.552988	0.534038
	O306	O	0.939041	0.025837	0.912276
	H307	H	0.936385	0.027896	0.909708
	H308	H	0.936960	0.022524	0.916451
	O309	O	0.529433	0.488506	0.481872
	H310	H	0.533033	0.490788	0.488159
	H311	H	0.522479	0.479238	0.479366
	O312	O	-0.010240	0.997666	0.971467
	H313	H	-0.016874	1.003206	0.984960
	H314	H	-0.008606	0.989636	0.969611
	O315	O	0.969849	0.038741	0.922458
	H316	H	0.970933	0.039172	0.910505
	H317	H	0.968313	0.041717	0.908749
	O318	O	-0.005420	-0.036887	-0.037845
	H319	H	-0.002947	-0.035318	-0.039362
	H320	H	-0.016171	-0.024939	-0.046132
	O321	O	0.490649	0.484516	0.575429
	H322	H	0.486333	0.485269	0.591515
	H323	H	0.488713	0.472077	0.569720
	O324	O	0.586073	0.490096	0.443488
	H325	H	0.588301	0.481246	0.445933
	H326	H	0.596311	0.506665	0.446199
	O327	O	0.889910	1.010412	-0.026602
	H328	H	0.899345	1.009877	-0.028789
	H329	H	0.885492	1.020486	-0.024718
	O330	O	0.466146	0.507613	0.466062
	H331	H	0.468385	0.522014	0.474406
	H332	H	0.465494	0.513577	0.463573
	O333	O	0.498890	0.521865	0.511565
	H334	H	0.505816	0.509837	0.504347
	H335	H	0.499449	0.539509	0.509038
