data_Molecule from HDF5

_cell_length_a		16.479370
_cell_length_b		16.422912
_cell_length_c		16.472604
_cell_angle_alpha	90.059982
_cell_angle_beta	90.002280
_cell_angle_gamma	90.047327
_symmetry_space_group_name_H-M	'P 1'
_symmetry_Int_Tables_number		1

loop_
	_symmetry_equiv_pos_as_xyz
	x,y,z

loop_
	_atom_site_label
	_atom_site_type_symbol
	_atom_site_fract_x
	_atom_site_fract_y
	_atom_site_fract_z
	H0	H	0.378150	0.845622	0.718744
	H1	H	0.589128	0.161885	0.715782
	H2	H	0.589803	0.846158	0.272624
	H3	H	0.374053	0.159695	0.272401
	H4	H	0.709419	0.394782	0.839662
	H5	H	0.708166	0.609730	0.152812
	H6	H	0.261935	0.609990	0.839859
	H7	H	0.262261	0.394792	0.154160
	H8	H	0.826685	0.721674	0.392024
	H9	H	0.142298	0.724420	0.602293
	H10	H	0.828887	0.277171	0.603680
	H11	H	0.140977	0.275451	0.385391
	H12	H	0.829287	0.393101	0.720924
	H13	H	0.142906	0.607763	0.717813
	H14	H	0.829296	0.609013	0.271901
	H15	H	0.140702	0.390523	0.268812
	H16	H	0.379694	0.724733	0.838670
	H17	H	0.592615	0.726733	0.152050
	H18	H	0.591435	0.281000	0.837411
	H19	H	0.378198	0.278843	0.153729
	H20	H	0.706676	0.845720	0.388485
	H21	H	0.709368	0.159591	0.604215
	H22	H	0.261903	0.844475	0.602812
	H23	H	0.259683	0.159326	0.388661
	H24	H	0.877546	0.344270	0.219710
	H25	H	0.092544	0.658981	0.220765
	H26	H	0.092720	0.343522	0.774947
	H27	H	0.879199	0.658924	0.773898
	H28	H	0.206486	0.893651	0.338207
	H29	H	0.207645	0.110008	0.651643
	H30	H	0.761413	0.109453	0.338446
	H31	H	0.761756	0.897198	0.653890
	H32	H	0.326946	0.225348	0.890311
	H33	H	0.643704	0.223355	0.100952
	H34	H	0.328571	0.779075	0.101478
	H35	H	0.643243	0.780422	0.887388
	H36	H	0.327539	0.895370	0.218373
	H37	H	0.640995	0.112106	0.221140
	H38	H	0.326599	0.108567	0.774676
	H39	H	0.643077	0.897453	0.772025
	H40	H	0.874633	0.228446	0.339397
	H41	H	0.092555	0.226579	0.651450
	H42	H	0.086888	0.780394	0.337813
	H43	H	0.876210	0.779521	0.654621
	H44	H	0.206599	0.344020	0.892737
	H45	H	0.209977	0.658657	0.106983
	H46	H	0.759516	0.345634	0.106257
	H47	H	0.764949	0.660819	0.890993
	H48	H	0.393230	0.116700	0.584463
	H49	H	0.576629	0.889217	0.582151
	H50	H	0.565979	0.114780	0.403236
	H51	H	0.393549	0.888828	0.406420
	H52	H	0.573365	0.409616	0.110232
	H53	H	0.579484	0.590288	0.881067
	H54	H	0.394869	0.590785	0.109125
	H55	H	0.401107	0.414089	0.885632
	H56	H	0.099214	0.591315	0.405379
	H57	H	0.869079	0.592823	0.590960
	H58	H	0.098894	0.411202	0.585784
	H59	H	0.877289	0.416749	0.414868
	H60	H	0.096349	0.414240	0.581120
	H61	H	0.872503	0.592575	0.582226
	H62	H	0.096092	0.590983	0.413415
	H63	H	0.875422	0.421246	0.405267
	H64	H	0.399738	0.589175	0.107510
	H65	H	0.572479	0.585778	0.885762
	H66	H	0.577230	0.416692	0.108928
	H67	H	0.394997	0.414076	0.883575
	H68	H	0.571591	0.112613	0.416736
	H69	H	0.569780	0.890632	0.586909
	H70	H	0.396979	0.114725	0.585224
	H71	H	0.397646	0.890157	0.405517
	H72	H	0.903913	0.617767	0.099589
	H73	H	0.072517	0.391722	0.079166
	H74	H	0.074650	0.616510	0.902773
	H75	H	0.898388	0.389480	0.909437
	H76	H	0.071326	0.913640	0.607288
	H77	H	0.071276	0.087766	0.383557
	H78	H	0.898687	0.083226	0.604360
	H79	H	0.895910	0.911520	0.383725
	H80	H	0.599850	0.095920	0.902628
	H81	H	0.372396	0.090301	0.086356
	H82	H	0.596410	0.915937	0.081123
	H83	H	0.370893	0.911812	0.900818
	H84	H	0.595652	0.919191	0.085326
	H85	H	0.372052	0.093696	0.083575
	H86	H	0.596067	0.093765	0.909242
	H87	H	0.374750	0.910290	0.914577
	H88	H	0.902579	0.093488	0.606179
	H89	H	0.071025	0.086683	0.384295
	H90	H	0.074066	0.910873	0.610351
	H91	H	0.895234	0.911191	0.383053
	H92	H	0.070496	0.613615	0.908935
	H93	H	0.076585	0.388661	0.083436
	H94	H	0.908259	0.606539	0.073285
	H95	H	0.896587	0.389884	0.909980
	H96	H	0.395698	0.114469	0.581270
	H97	H	0.569920	0.892640	0.579508
	H98	H	0.580037	0.119165	0.406933
	H99	H	0.395997	0.890749	0.409502
	H100	H	0.570051	0.415677	0.106385
	H101	H	0.570877	0.594726	0.882918
	H102	H	0.398877	0.593977	0.108446
	H103	H	0.397234	0.418797	0.886217
	H104	H	0.095653	0.584757	0.407896
	H105	H	0.872961	0.585020	0.587651
	H106	H	0.097145	0.417556	0.586442
	H107	H	0.871970	0.411128	0.406951
	H108	H	0.882940	0.617788	0.079936
	H109	H	0.070032	0.390322	0.084792
	H110	H	0.078641	0.615663	0.909770
	H111	H	0.896916	0.388913	0.908325
	H112	H	0.075961	0.915424	0.608395
	H113	H	0.070070	0.087611	0.383905
	H114	H	0.892027	0.090257	0.609257
	H115	H	0.894688	0.912289	0.383876
	H116	H	0.597627	0.088402	0.903023
	H117	H	0.373358	0.089595	0.082466
	H118	H	0.597342	0.914673	0.085937
	H119	H	0.376681	0.922696	0.907632
	C120	C	0.362736	0.010912	0.616829
	C121	C	0.605538	0.994724	0.616379
	C122	C	0.605398	0.011589	0.375194
	C123	C	0.362093	0.993844	0.373998
	C124	C	0.606942	0.380964	0.004650
	C125	C	0.607171	0.624059	0.986938
	C126	C	0.364145	0.624750	0.005013
	C127	C	0.364544	0.381735	0.988728
	C128	C	-0.006455	0.622162	0.375570
	C129	C	0.976157	0.622969	0.618834
	C130	C	-0.006305	0.380568	0.617498
	C131	C	0.977240	0.380720	0.374201
	C132	C	0.864106	0.510336	0.117977
	C133	C	0.106787	0.493793	0.117462
	C134	C	0.107509	0.510610	0.875228
	C135	C	0.864352	0.493391	0.876161
	C136	C	0.105712	0.880089	0.504264
	C137	C	0.105081	0.122498	0.486878
	C138	C	0.863434	0.123516	0.503702
	C139	C	0.861906	0.879449	0.487761
	C140	C	0.493331	0.125105	0.873352
	C141	C	0.476590	0.124367	0.117536
	C142	C	0.492900	0.882239	0.117092
	C143	C	0.477867	0.881950	0.873831
	C144	C	0.360239	0.892435	0.678082
	C145	C	0.607904	0.114156	0.676321
	C146	C	0.608107	0.893120	0.313573
	C147	C	0.357347	0.112182	0.312591
	C148	C	0.668809	0.377149	0.886681
	C149	C	0.667993	0.627701	0.105521
	C150	C	0.302375	0.628285	0.887195
	C151	C	0.303043	0.377559	0.106918
	C152	C	0.874590	0.682330	0.372984
	C153	C	0.094876	0.683987	0.620654
	C154	C	0.876008	0.318120	0.621445
	C155	C	0.094024	0.316767	0.368561
	C156	C	0.876012	0.375824	0.679771
	C157	C	0.095404	0.625690	0.678090
	C158	C	0.875837	0.626236	0.313324
	C159	C	0.094129	0.374287	0.310445
	C160	C	0.361322	0.685029	0.886277
	C161	C	0.610318	0.685778	0.105082
	C162	C	0.609743	0.320570	0.885711
	C163	C	0.360958	0.319921	0.106887
	C164	C	0.666307	0.892891	0.370922
	C165	C	0.667715	0.112909	0.620698
	C166	C	0.302242	0.892237	0.620529
	C167	C	0.300210	0.111879	0.370530
	C168	C	0.859885	0.391774	0.179535
	C169	C	0.110574	0.611611	0.180213
	C170	C	0.110415	0.391353	0.815134
	C171	C	0.861483	0.611968	0.814698
	C172	C	0.165920	0.876436	0.385560
	C173	C	0.167155	0.127193	0.604534
	C174	C	0.801439	0.127814	0.385762
	C175	C	0.801582	0.878145	0.606379
	C176	C	0.374382	0.184990	0.872063
	C177	C	0.595565	0.184432	0.119780
	C178	C	0.375378	0.819955	0.119769
	C179	C	0.595966	0.820743	0.869836
	C180	C	0.374835	0.878335	0.177606
	C181	C	0.593989	0.129058	0.179932
	C182	C	0.373991	0.127010	0.814457
	C183	C	0.595798	0.879115	0.812270
	C184	C	0.858241	0.186746	0.386237
	C185	C	0.109839	0.185471	0.604357
	C186	C	0.106721	0.819793	0.385441
	C187	C	0.858820	0.819352	0.606625
	C188	C	0.167583	0.391609	0.873476
	C189	C	0.168648	0.611821	0.123146
	C190	C	0.801026	0.392639	0.122873
	C191	C	0.804475	0.612736	0.873013
	C192	C	0.388074	0.093729	0.591045
	C193	C	0.579497	0.912365	0.590322
	C194	C	0.579782	0.093937	0.401407
	C195	C	0.388363	0.911399	0.399576
	C196	C	0.580975	0.406512	0.086952
	C197	C	0.581613	0.597751	0.904652
	C198	C	0.390376	0.598764	0.086970
	C199	C	0.390372	0.407946	0.906615
	C200	C	0.075513	0.596244	0.401582
	C201	C	0.893316	0.597421	0.594156
	C202	C	0.075935	0.406869	0.591880
	C203	C	0.896063	0.408521	0.401558
	C204	C	0.890747	0.592601	0.091775
	C205	C	0.080533	0.411832	0.090242
	C206	C	0.082057	0.593760	0.899917
	C207	C	0.890011	0.410864	0.901905
	C208	C	0.080830	0.905832	0.587006
	C209	C	0.078209	0.095328	0.405139
	C210	C	0.890166	0.096745	0.585270
	C211	C	0.887701	0.904398	0.405167
	C212	C	0.576227	0.099876	0.897843
	C213	C	0.394171	0.098477	0.091731
	C214	C	0.575144	0.908925	0.091195
	C215	C	0.395448	0.907668	0.900050
	Zn216	Zn	0.484742	0.003472	0.744791
	Zn217	Zn	0.483776	0.003636	0.246574
	Zn218	Zn	0.735865	0.502527	-0.003374
	Zn219	Zn	0.235623	0.502695	-0.002785
	Zn220	Zn	-0.015744	0.751033	0.497103
	Zn221	Zn	-0.014864	0.251709	0.495113
	Zn222	Zn	-0.014505	0.501323	0.747351
	Zn223	Zn	-0.014423	0.501524	0.245743
	Zn224	Zn	0.486546	0.753140	-0.004985
	Zn225	Zn	0.485049	0.252642	-0.004198
	Zn226	Zn	0.734222	0.002481	0.495704
	Zn227	Zn	0.234325	0.001477	0.495192
	N228	N	0.397140	0.967434	0.675917
	N229	N	0.569903	0.039748	0.673812
	N230	N	0.570910	0.967912	0.315964
	N231	N	0.394995	0.037452	0.314333
	N232	N	0.667463	0.413704	0.961658
	N233	N	0.665957	0.589973	0.031089
	N234	N	0.303797	0.591615	0.962121
	N235	N	0.305350	0.415544	0.032694
	N236	N	0.948638	0.679951	0.411156
	N237	N	0.019523	0.682679	0.584847
	N238	N	0.950181	0.320947	0.583386
	N239	N	0.020430	0.320843	0.407657
	N240	N	0.950262	0.413890	0.677363
	N241	N	0.020533	0.588860	0.677422
	N242	N	0.950761	0.589688	0.314693
	N243	N	0.020346	0.413233	0.313754
	N244	N	0.398931	0.683179	0.960495
	N245	N	0.573236	0.683656	0.030392
	N246	N	0.572077	0.322691	0.960229
	N247	N	0.398573	0.322311	0.032529
	N248	N	0.664903	0.967696	0.408077
	N249	N	0.666309	0.037678	0.584023
	N250	N	0.303613	0.967016	0.583260
	N251	N	0.302876	0.037194	0.407822
	N252	N	0.898642	0.465966	0.176420
	N253	N	0.072756	0.537072	0.176687
	N254	N	0.073786	0.466487	0.815992
	N255	N	0.898143	0.536822	0.816408
	N256	N	0.165455	0.913188	0.460632
	N257	N	0.164380	0.088793	0.530486
	N258	N	0.804427	0.089332	0.459683
	N259	N	0.803327	0.914608	0.531332
	N260	N	0.449667	0.183960	0.907814
	N261	N	0.521395	0.181673	0.081626
	N262	N	0.449949	0.822553	0.082600
	N263	N	0.521639	0.822672	0.907640
	N264	N	0.449187	0.916185	0.176140
	N265	N	0.518815	0.092732	0.178873
	N266	N	0.449012	0.090443	0.815037
	N267	N	0.521195	0.916305	0.814723
	N268	N	0.896050	0.184260	0.460690
	N269	N	0.071984	0.182577	0.530083
	N270	N	0.070205	0.821771	0.460316
	N271	N	0.895620	0.820007	0.531747
	N272	N	0.166022	0.466886	0.909899
	N273	N	0.166406	0.537719	0.084686
	N274	N	0.803679	0.467166	0.085353
	N275	N	0.806125	0.538000	0.910415
	O276	O	0.624335	0.660629	0.320263
	H277	H	0.605323	0.659205	0.323096
	H278	H	0.613160	0.646329	0.330861
	O279	O	1.077056	0.060115	1.021377
	H280	H	1.081324	0.058505	0.993767
	H281	H	1.073548	0.058480	1.012092
	O282	O	0.343351	0.360143	0.463484
	H283	H	0.318941	0.347062	0.464727
	H284	H	0.335293	0.371470	0.446940
	O285	O	0.830050	1.164813	1.014717
	H286	H	0.822329	1.168709	1.034311
	H287	H	0.832204	1.156922	1.017739
	O288	O	1.176766	1.172867	0.026222
	H289	H	1.183819	1.168110	0.020842
	H290	H	1.173586	1.188523	0.043593
	O291	O	0.965348	0.211023	0.120893
	H292	H	0.966635	0.201744	0.094703
	H293	H	0.962217	0.226833	0.148159
	O294	O	0.447663	-0.637204	1.419345
	H295	H	0.441080	-0.635381	1.427077
	H296	H	0.440012	-0.645165	1.441711
	O297	O	0.572248	0.378808	0.638947
	H298	H	0.570691	0.356057	0.634638
	H299	H	0.548189	0.380115	0.619315
	O300	O	0.436478	0.537796	0.331063
	H301	H	0.418584	0.523478	0.342004
	H302	H	0.411946	0.538965	0.321751
	O303	O	0.286128	0.701658	0.414548
	H304	H	0.291617	0.684696	0.399857
	H305	H	0.271282	0.724659	0.434860
	O306	O	0.083028	1.188196	1.068653
	H307	H	0.086008	1.183475	1.060482
	H308	H	0.070486	1.173363	1.056058
	O309	O	0.662835	0.328622	0.320177
	H310	H	0.654561	0.361606	0.307548
	H311	H	0.651346	0.333979	0.336761
	O312	O	-0.085330	0.961477	0.916046
	H313	H	-0.067716	0.942527	0.929157
	H314	H	-0.095777	0.943972	0.925108
	O315	O	0.698536	0.529193	0.569060
	H316	H	0.676475	0.516194	0.576652
	H317	H	0.700874	0.528430	0.554262
	O318	O	1.658678	0.512894	0.596041
	H319	H	1.670957	0.518590	0.601493
	H320	H	1.667798	0.506139	0.573738
	O321	O	-0.145028	0.045279	0.042863
	H322	H	-0.143771	0.024618	0.029158
	H323	H	-0.141355	0.045793	0.034752
	O324	O	0.518971	0.314631	0.532042
	H325	H	0.541181	0.306934	0.533178
	H326	H	0.519842	0.316193	0.554336
	O327	O	0.362133	0.529808	0.569135
	H328	H	0.363967	0.521187	0.579233
	H329	H	0.378548	0.554589	0.576820
	O330	O	0.083044	0.831984	-0.083839
	H331	H	0.094779	0.801239	-0.091218
	H332	H	0.062944	0.819652	-0.065611
	O333	O	0.933723	0.931455	1.087378
	H334	H	0.941398	0.929479	1.061700
	H335	H	0.893842	0.922153	1.097918
	O336	O	-0.192512	-0.202944	-0.021070
	H337	H	-0.180807	-0.209079	0.002694
	H338	H	-0.203596	-0.220307	-0.000961
	O339	O	0.261863	0.482123	0.479475
	H340	H	0.252277	0.502263	0.462021
	H341	H	0.264066	0.502209	0.487635
	O342	O	0.102341	0.787569	1.010507
	H343	H	0.102118	0.779412	1.023011
	H344	H	0.082549	0.784735	1.009771
	O345	O	0.967413	1.212758	-0.219216
	H346	H	0.938530	1.226069	-0.228347
	H347	H	0.946064	1.220036	-0.223969
	O348	O	1.057847	1.055476	0.779919
	H349	H	1.038767	1.073955	0.765941
	H350	H	1.038148	1.058455	0.790890
	O351	O	-0.202389	1.040347	1.102076
	H352	H	-0.220136	1.013285	1.098591
	H353	H	-0.211622	1.054124	1.099319
	O354	O	-0.720058	0.493341	-0.653113
	H355	H	-0.735240	0.496675	-0.662422
	H356	H	-0.697464	0.480803	-0.648302
	O357	O	-0.065843	-0.145221	1.115221
	H358	H	-0.063590	-0.129722	1.105057
	H359	H	-0.067474	-0.147580	1.142442
	O360	O	0.445820	0.594996	0.616350
	H361	H	0.440662	0.602374	0.624659
	H362	H	0.427335	0.575720	0.630036
	O363	O	0.070534	0.197224	1.181134
	H364	H	0.068823	0.170258	1.199212
	H365	H	0.050150	0.207988	1.188237
	O366	O	0.596479	0.471393	0.552169
	H367	H	0.600649	0.493723	0.566308
	H368	H	0.589183	0.472290	0.568043
	O369	O	0.639338	0.679797	0.684677
	H370	H	0.638056	0.677965	0.669223
	H371	H	0.639873	0.645791	0.694694
	O372	O	1.084381	-0.199277	0.797141
	H373	H	1.091837	-0.221764	0.803627
	H374	H	1.116038	-0.165509	0.798435
	O375	O	0.423420	0.408010	0.313998
	H376	H	0.432829	0.388475	0.312262
	H377	H	0.428647	0.392725	0.319791
	O378	O	0.426149	0.376991	0.703509
	H379	H	0.415602	0.390443	0.722541
	H380	H	0.442433	0.393447	0.691695
	O381	O	1.072885	0.094182	0.961840
	H382	H	1.067337	0.102740	0.963198
	H383	H	1.084034	0.093017	0.957924
	O384	O	1.171978	1.011342	0.209298
	H385	H	1.203483	1.016950	0.235713
	H386	H	1.155099	1.003097	0.196584
	O387	O	0.132836	-0.070028	1.010735
	H388	H	0.145800	-0.064181	1.000899
	H389	H	0.124826	-0.065309	1.003861
	O390	O	0.191779	-0.011845	-0.200431
	H391	H	0.204176	0.006106	-0.207495
	H392	H	0.170783	0.006252	-0.222481
	O393	O	0.476851	0.622421	0.355232
	H394	H	0.475235	0.632609	0.345746
	H395	H	0.487147	0.625276	0.379458
	O396	O	1.059478	-0.137799	0.142262
	H397	H	1.073060	-0.149002	0.129289
	H398	H	1.062951	-0.151980	0.156692
	O399	O	0.977458	-0.134866	0.786413
	H400	H	0.992528	-0.152857	0.774223
	H401	H	1.006940	-0.140515	0.787356
	O402	O	1.688133	0.704501	1.552604
	H403	H	1.711940	0.718882	1.544762
	H404	H	1.682860	0.695954	1.560963
	O405	O	1.261011	0.771394	-0.275731
	H406	H	1.277514	0.764617	-0.249982
	H407	H	1.273857	0.805327	-0.265297
	O408	O	0.793209	0.201654	-0.094895
	H409	H	0.781214	0.169871	-0.089907
	H410	H	0.791786	0.215549	-0.061386
	O411	O	0.779963	1.118286	-0.213896
	H412	H	0.777032	1.113860	-0.195508
	H413	H	0.781932	1.092317	-0.222683
	O414	O	0.400621	0.471017	0.704248
	H415	H	0.393039	0.450497	0.695233
	H416	H	0.378579	0.446442	0.713269
	O417	O	0.795519	0.809976	0.184039
	H418	H	0.788730	0.805827	0.206911
	H419	H	0.811645	0.828442	0.196949
	O420	O	0.053724	0.003417	0.116929
	H421	H	0.053088	0.001614	0.101412
	H422	H	0.078673	0.001609	0.138644
	O423	O	0.532373	0.711863	0.464467
	H424	H	0.525746	0.717267	0.480818
	H425	H	0.550681	0.709496	0.469220
	O426	O	0.688547	0.490356	0.292261
	H427	H	0.687196	0.485507	0.265576
	H428	H	0.667431	0.504297	0.296392
	O429	O	0.367095	0.696531	0.300609
	H430	H	0.368355	0.682372	0.285978
	H431	H	0.375288	0.702014	0.316753
	O432	O	0.699920	0.292721	0.477175
	H433	H	0.713064	0.284030	0.471778
	H434	H	0.708804	0.290074	0.462175
	O435	O	0.507602	0.283596	0.276670
	H436	H	0.528187	0.261137	0.261669
	H437	H	0.496851	0.262548	0.293334
	O438	O	-0.085397	-0.073750	0.196390
	H439	H	-0.077316	-0.055474	0.188653
	H440	H	-0.098666	-0.079723	0.208382
	O441	O	0.781728	-0.030786	-0.087295
	H442	H	0.794464	-0.048262	-0.093973
	H443	H	0.780154	-0.046394	-0.089814
	O444	O	-0.623880	1.660811	1.564021
	H445	H	-0.614291	1.665065	1.577462
	H446	H	-0.645137	1.659679	1.571451
	O447	O	0.373059	0.297593	0.618690
	H448	H	0.386583	0.299495	0.623441
	H449	H	0.384757	0.283300	0.627287
	O450	O	0.501001	0.703211	0.666968
	H451	H	0.524469	0.707341	0.670401
	H452	H	0.499376	0.700741	0.677491
	O453	O	0.292367	0.412457	0.686940
	H454	H	0.274709	0.398644	0.670907
	H455	H	0.316496	0.415740	0.684656
