data_Molecule from HDF5

_cell_length_a		16.283349
_cell_length_b		16.315531
_cell_length_c		16.197322
_cell_angle_alpha	90.210831
_cell_angle_beta	89.885819
_cell_angle_gamma	89.837138
_symmetry_space_group_name_H-M	'P 1'
_symmetry_Int_Tables_number		1

loop_
	_symmetry_equiv_pos_as_xyz
	x,y,z

loop_
	_atom_site_label
	_atom_site_type_symbol
	_atom_site_fract_x
	_atom_site_fract_y
	_atom_site_fract_z
	H0	H	0.405736	0.833853	0.710957
	H1	H	0.600621	0.161028	0.711766
	H2	H	0.602605	0.833763	0.281698
	H3	H	0.404679	0.161362	0.283272
	H4	H	0.717342	0.396614	0.831784
	H5	H	0.714960	0.595224	0.161299
	H6	H	0.289462	0.595109	0.831796
	H7	H	0.288393	0.400546	0.161067
	H8	H	0.839536	0.711899	0.398859
	H9	H	0.166006	0.713102	0.597690
	H10	H	0.839485	0.282303	0.596609
	H11	H	0.166396	0.281166	0.396030
	H12	H	0.839226	0.400087	0.711485
	H13	H	0.167349	0.594704	0.710551
	H14	H	0.839338	0.595095	0.284436
	H15	H	0.166598	0.398707	0.281521
	H16	H	0.402465	0.712423	0.832666
	H17	H	0.599792	0.710877	0.160664
	H18	H	0.602551	0.279892	0.833406
	H19	H	0.402993	0.284225	0.161449
	H20	H	0.718258	0.833719	0.397125
	H21	H	0.719246	0.159615	0.598196
	H22	H	0.287122	0.834798	0.596986
	H23	H	0.287939	0.160900	0.399093
	H24	H	0.905993	0.333429	0.209958
	H25	H	0.100159	0.660813	0.212012
	H26	H	0.102996	0.334070	0.781000
	H27	H	0.904645	0.661073	0.784236
	H28	H	0.218447	0.897188	0.333058
	H29	H	0.215101	0.096216	0.661375
	H30	H	0.789412	0.094862	0.332036
	H31	H	0.788268	0.898432	0.660761
	H32	H	0.339527	0.212833	0.898670
	H33	H	0.665782	0.213788	0.098290
	H34	H	0.339059	0.784504	0.096665
	H35	H	0.665126	0.779419	0.895352
	H36	H	0.339783	0.900386	0.212110
	H37	H	0.667640	0.094397	0.210658
	H38	H	0.339100	0.096235	0.783724
	H39	H	0.666505	0.897409	0.781658
	H40	H	0.903403	0.211191	0.332495
	H41	H	0.101343	0.212805	0.660488
	H42	H	0.103637	0.780491	0.333390
	H43	H	0.903741	0.783445	0.661549
	H44	H	0.219622	0.334641	0.896122
	H45	H	0.216210	0.661660	0.095609
	H46	H	0.787881	0.334262	0.095696
	H47	H	0.785865	0.659385	0.897206
	H48	H	0.412273	0.112031	0.588648
	H49	H	0.602150	0.880550	0.584733
	H50	H	0.599100	0.113075	0.406149
	H51	H	0.400179	0.877066	0.397813
	H52	H	0.599460	0.404341	0.114900
	H53	H	0.600765	0.591279	0.877167
	H54	H	0.416260	0.596439	0.113526
	H55	H	0.398818	0.407947	0.877432
	H56	H	0.120612	0.591307	0.402837
	H57	H	0.884381	0.598515	0.589396
	H58	H	0.117133	0.402861	0.583670
	H59	H	0.885243	0.399394	0.403372
	H60	H	0.118071	0.409072	0.590736
	H61	H	0.888868	0.587789	0.585567
	H62	H	0.119627	0.590802	0.408473
	H63	H	0.887473	0.404884	0.406054
	H64	H	0.401510	0.594925	0.117193
	H65	H	0.594453	0.581835	0.881399
	H66	H	0.593977	0.409383	0.110883
	H67	H	0.420611	0.412694	0.885421
	H68	H	0.596916	0.114205	0.402325
	H69	H	0.596758	0.878301	0.596790
	H70	H	0.405497	0.114061	0.587802
	H71	H	0.422856	0.882920	0.398243
	H72	H	0.914025	0.612154	0.092995
	H73	H	0.096565	0.382321	0.086440
	H74	H	0.089862	0.612962	0.898603
	H75	H	0.917590	0.384674	0.908731
	H76	H	0.088307	0.907834	0.611432
	H77	H	0.097171	0.086000	0.379541
	H78	H	0.915119	0.087168	0.611379
	H79	H	0.905413	0.908737	0.379614
	H80	H	0.616495	0.087316	0.912050
	H81	H	0.389409	0.082944	0.090805
	H82	H	0.623199	0.899414	0.095408
	H83	H	0.387102	0.905521	0.907402
	H84	H	0.619077	0.898822	0.083025
	H85	H	0.383055	0.094633	0.098761
	H86	H	0.619297	0.085190	0.900834
	H87	H	0.385883	0.906306	0.902241
	H88	H	0.910597	0.095711	0.614845
	H89	H	0.091867	0.091463	0.380457
	H90	H	0.095540	0.897004	0.617310
	H91	H	0.918319	0.904709	0.382278
	H92	H	0.095809	0.611445	0.912346
	H93	H	0.097489	0.380542	0.089544
	H94	H	0.907285	0.612056	0.083964
	H95	H	0.901745	0.379333	0.907371
	H96	H	0.408544	0.115299	0.595142
	H97	H	0.589565	0.884361	0.586797
	H98	H	0.594277	0.112971	0.405830
	H99	H	0.408992	0.884947	0.417790
	H100	H	0.591881	0.402641	0.113975
	H101	H	0.589228	0.592306	0.879382
	H102	H	0.409187	0.583344	0.110829
	H103	H	0.414844	0.391466	0.877155
	H104	H	0.118643	0.585678	0.404698
	H105	H	0.885302	0.589006	0.597782
	H106	H	0.121898	0.399475	0.591694
	H107	H	0.885561	0.405065	0.400965
	H108	H	0.903234	0.616372	0.093594
	H109	H	0.094944	0.382314	0.089626
	H110	H	0.104137	0.616924	0.901035
	H111	H	0.911888	0.378514	0.894053
	H112	H	0.101520	0.908742	0.614779
	H113	H	0.098224	0.092569	0.377010
	H114	H	0.905844	0.086887	0.613487
	H115	H	0.908730	0.896134	0.377052
	H116	H	0.621179	0.095962	0.904842
	H117	H	0.386884	0.097455	0.084039
	H118	H	0.617750	0.909932	0.089772
	H119	H	0.386344	0.901319	0.904594
	C120	C	0.380547	0.005914	0.619541
	C121	C	0.625014	0.988927	0.618676
	C122	C	0.625404	0.005590	0.375160
	C123	C	0.381554	0.989081	0.375562
	C124	C	0.624543	0.375277	0.005107
	C125	C	0.623244	0.617335	0.988085
	C126	C	0.380335	0.619662	0.005194
	C127	C	0.381696	0.376138	0.988468
	C128	C	0.011601	0.618189	0.376667
	C129	C	0.994526	0.619681	0.619294
	C130	C	0.011023	0.375597	0.618078
	C131	C	0.994432	0.374531	0.374343
	C132	C	0.880493	0.505666	0.118602
	C133	C	0.124688	0.489315	0.117938
	C134	C	0.125440	0.505725	0.874609
	C135	C	0.881357	0.488690	0.875187
	C136	C	0.124673	0.875385	0.505925
	C137	C	0.123939	0.118903	0.487696
	C138	C	0.881632	0.118173	0.504805
	C139	C	0.882285	0.875548	0.488607
	C140	C	0.511004	0.118405	0.876952
	C141	C	0.494712	0.119664	0.119742
	C142	C	0.511576	0.875622	0.118318
	C143	C	0.494282	0.875335	0.875234
	C144	C	0.384207	0.882929	0.673989
	C145	C	0.621690	0.111894	0.674119
	C146	C	0.623012	0.882549	0.319701
	C147	C	0.384448	0.112373	0.321004
	C148	C	0.680115	0.376068	0.881356
	C149	C	0.677770	0.615303	0.111958
	C150	C	0.326294	0.616193	0.881259
	C151	C	0.325846	0.379326	0.112029
	C152	C	0.888467	0.673748	0.378754
	C153	C	0.117490	0.674933	0.617426
	C154	C	0.888233	0.320624	0.616441
	C155	C	0.117635	0.319380	0.376249
	C156	C	0.888215	0.378908	0.673656
	C157	C	0.118106	0.616003	0.673520
	C158	C	0.888366	0.615861	0.321660
	C159	C	0.117770	0.377675	0.319263
	C160	C	0.382607	0.674156	0.881529
	C161	C	0.620810	0.673030	0.111664
	C162	C	0.623099	0.318072	0.882218
	C163	C	0.383562	0.322208	0.112557
	C164	C	0.680479	0.882495	0.377204
	C165	C	0.680643	0.111252	0.617433
	C166	C	0.325331	0.883345	0.617442
	C167	C	0.326042	0.112183	0.378249
	C168	C	0.884313	0.382621	0.172946
	C169	C	0.121306	0.612210	0.173905
	C170	C	0.123461	0.382968	0.818841
	C171	C	0.883982	0.611941	0.821210
	C172	C	0.180613	0.876875	0.382221
	C173	C	0.178272	0.116829	0.611883
	C174	C	0.826360	0.115751	0.381304
	C175	C	0.826236	0.878055	0.611850
	C176	C	0.388167	0.174154	0.879084
	C177	C	0.617444	0.175289	0.118069
	C178	C	0.388527	0.821107	0.117134
	C179	C	0.616787	0.818295	0.875980
	C180	C	0.388574	0.879497	0.173978
	C181	C	0.618249	0.116209	0.174017
	C182	C	0.387938	0.116429	0.821571
	C183	C	0.617314	0.876512	0.819027
	C184	C	0.883151	0.173559	0.381436
	C185	C	0.121513	0.174551	0.611449
	C186	C	0.123330	0.819118	0.382347
	C187	C	0.883647	0.820919	0.612397
	C188	C	0.181270	0.383138	0.876117
	C189	C	0.179048	0.612472	0.116171
	C190	C	0.825982	0.382826	0.115945
	C191	C	0.824783	0.611132	0.877315
	C192	C	0.402331	0.091518	0.597210
	C193	C	0.602678	0.903080	0.596105
	C194	C	0.603157	0.091202	0.397989
	C195	C	0.404046	0.903861	0.398105
	C196	C	0.601762	0.398709	0.091225
	C197	C	0.601255	0.595069	0.901819
	C198	C	0.402388	0.597903	0.091540
	C199	C	0.404610	0.397528	0.902352
	C200	C	0.097371	0.595912	0.399004
	C201	C	0.908529	0.598136	0.597425
	C202	C	0.096926	0.397289	0.595320
	C203	C	0.908345	0.396589	0.396866
	C204	C	0.901831	0.591289	0.096646
	C205	C	0.102848	0.403841	0.095392
	C206	C	0.103057	0.591553	0.897315
	C207	C	0.903668	0.402968	0.896982
	C208	C	0.101989	0.897879	0.592178
	C209	C	0.102275	0.096409	0.401404
	C210	C	0.903918	0.096296	0.590989
	C211	C	0.904437	0.896803	0.401999
	C212	C	0.596732	0.095858	0.899164
	C213	C	0.408838	0.098007	0.097682
	C214	C	0.597723	0.896545	0.095975
	C215	C	0.408611	0.897974	0.898132
	Zn216	Zn	0.503000	-0.002733	0.747631
	Zn217	Zn	0.504107	-0.002620	0.246826
	Zn218	Zn	0.752148	0.496458	-0.003759
	Zn219	Zn	0.253579	0.497928	-0.003474
	Zn220	Zn	0.003007	0.747630	0.497531
	Zn221	Zn	0.002690	0.246544	0.496024
	Zn222	Zn	0.003232	0.497638	0.746914
	Zn223	Zn	0.002916	0.497018	0.247195
	Zn224	Zn	0.502326	0.746622	-0.003707
	Zn225	Zn	0.502901	0.247474	-0.001964
	Zn226	Zn	0.753792	-0.003332	0.496784
	Zn227	Zn	0.251838	-0.002399	0.496944
	N228	N	0.417720	0.960121	0.675247
	N229	N	0.587867	0.034661	0.675089
	N230	N	0.589217	0.959918	0.318468
	N231	N	0.418305	0.034802	0.319046
	N232	N	0.681038	0.410788	0.958929
	N233	N	0.679547	0.581388	0.033966
	N234	N	0.325083	0.582763	0.959121
	N235	N	0.324621	0.412258	0.034027
	N236	N	0.965974	0.675162	0.412328
	N237	N	0.039797	0.677080	0.584251
	N238	N	0.965834	0.318504	0.582517
	N239	N	0.039926	0.317365	0.409645
	N240	N	0.965484	0.412639	0.674476
	N241	N	0.040654	0.582459	0.674893
	N242	N	0.965795	0.581729	0.320205
	N243	N	0.040093	0.411040	0.317849
	N244	N	0.415643	0.676575	0.959602
	N245	N	0.587331	0.674394	0.033747
	N246	N	0.589400	0.317400	0.960262
	N247	N	0.417544	0.319945	0.034710
	N248	N	0.681949	0.959943	0.411134
	N249	N	0.682706	0.033840	0.583688
	N250	N	0.322958	0.960747	0.584050
	N251	N	0.324065	0.034792	0.411375
	N252	N	0.917492	0.460086	0.174844
	N253	N	0.088259	0.534768	0.175289
	N254	N	0.089478	0.460282	0.817918
	N255	N	0.918504	0.534936	0.819835
	N256	N	0.181498	0.911061	0.459968
	N257	N	0.179840	0.082753	0.534006
	N258	N	0.825134	0.082250	0.459189
	N259	N	0.825382	0.911358	0.533879
	N260	N	0.465660	0.175639	0.912687
	N261	N	0.539604	0.177734	0.085346
	N262	N	0.466017	0.818810	0.082915
	N263	N	0.539341	0.817453	0.910245
	N264	N	0.466132	0.912449	0.174855
	N265	N	0.540944	0.082306	0.174979
	N266	N	0.465148	0.082251	0.820404
	N267	N	0.540199	0.911283	0.818696
	N268	N	0.916738	0.175262	0.459282
	N269	N	0.088643	0.176090	0.533250
	N270	N	0.089106	0.818206	0.460139
	N271	N	0.917967	0.819466	0.534677
	N272	N	0.182513	0.460533	0.910183
	N273	N	0.181111	0.535137	0.081867
	N274	N	0.823348	0.460256	0.082904
	N275	N	0.823103	0.533477	0.910246
	O276	O	1.041260	1.067545	-0.100642
	H277	H	1.039173	1.064667	-0.090896
	H278	H	1.038942	1.061476	-0.110148
	O279	O	-0.027955	0.034262	1.008748
	H280	H	-0.014145	0.034893	1.004589
	H281	H	-0.026762	0.044992	1.004077
	O282	O	0.085024	-0.027793	-0.041706
	H283	H	0.077315	-0.032846	-0.043772
	H284	H	0.092905	-0.025213	-0.042932
	O285	O	0.526003	0.570040	0.469364
	H286	H	0.524083	0.572955	0.476924
	H287	H	0.518572	0.588066	0.470419
	O288	O	-0.047049	0.069717	0.007154
	H289	H	-0.054493	0.084015	0.005592
	H290	H	-0.034745	0.071937	0.016497
	O291	O	-0.027641	1.055966	0.002809
	H292	H	-0.032792	1.054551	0.000206
	H293	H	-0.041049	1.056987	0.012846
	O294	O	0.046005	1.002139	-0.002128
	H295	H	0.047859	1.006550	0.008827
	H296	H	0.037546	1.013846	-0.005148
	O297	O	0.487711	0.503511	0.447431
	H298	H	0.487384	0.499416	0.442999
	H299	H	0.489600	0.515269	0.447940
	O300	O	0.461427	0.498405	0.521614
	H301	H	0.455183	0.495290	0.518494
	H302	H	0.449805	0.498775	0.519889
	O303	O	1.022005	0.004346	1.084437
	H304	H	1.030505	0.001604	1.081628
	H305	H	1.028493	0.010693	1.084896
	O306	O	0.036260	0.929627	0.907609
	H307	H	0.037832	0.925810	0.907911
	H308	H	0.037677	0.939510	0.906522
	O309	O	0.044648	1.015061	0.977976
	H310	H	0.038281	1.011269	0.972864
	H311	H	0.049124	1.027641	0.975717
	O312	O	0.041379	0.002494	0.995594
	H313	H	0.047026	0.001746	0.992188
	H314	H	0.033811	0.003144	0.993570
	O315	O	0.495400	0.535685	0.524496
	H316	H	0.493834	0.534797	0.532210
	H317	H	0.479686	0.526818	0.524455
	O318	O	-0.022207	-0.016345	1.016644
	H319	H	-0.024531	-0.014962	1.024547
	H320	H	-0.014727	-0.022647	1.008689
	O321	O	0.446431	0.506263	0.485056
	H322	H	0.447905	0.507528	0.479879
	H323	H	0.446632	0.508598	0.472928
	O324	O	1.005087	0.023261	0.917358
	H325	H	0.994236	0.023923	0.914244
	H326	H	1.007645	0.012778	0.920578
	O327	O	1.010743	1.057783	0.968184
	H328	H	1.013223	1.054790	0.969877
	H329	H	1.012815	1.050035	0.963255
	O330	O	0.489421	0.500873	0.492909
	H331	H	0.492292	0.496512	0.486184
	H332	H	0.484535	0.502582	0.497186
	O333	O	0.508011	0.524428	0.484690
	H334	H	0.515520	0.525666	0.483959
	H335	H	0.504189	0.525670	0.475430
	O336	O	0.468961	0.460024	0.495403
	H337	H	0.476583	0.455505	0.497295
	H338	H	0.464082	0.463766	0.495548
	O339	O	0.439839	0.442253	0.518208
	H340	H	0.430877	0.444604	0.523312
	H341	H	0.445963	0.430916	0.515846
	O342	O	0.508043	0.383729	0.393357
	H343	H	0.523127	0.387338	0.388278
	H344	H	0.520270	0.377051	0.382085
	O345	O	0.543767	0.446394	0.480137
	H346	H	0.540021	0.457402	0.481151
	H347	H	0.547516	0.441266	0.482167
