data_Molecule from HDF5

_cell_length_a		16.240391
_cell_length_b		16.256318
_cell_length_c		16.273871
_cell_angle_alpha	90.002256
_cell_angle_beta	89.954757
_cell_angle_gamma	89.550322
_symmetry_space_group_name_H-M	'P 1'
_symmetry_Int_Tables_number		1

loop_
	_symmetry_equiv_pos_as_xyz
	x,y,z

loop_
	_atom_site_label
	_atom_site_type_symbol
	_atom_site_fract_x
	_atom_site_fract_y
	_atom_site_fract_z
	H0	H	0.399809	0.829635	0.712434
	H1	H	0.598423	0.155801	0.712612
	H2	H	0.599612	0.827519	0.283438
	H3	H	0.399775	0.156292	0.282067
	H4	H	0.716578	0.391590	0.833035
	H5	H	0.713917	0.588141	0.161501
	H6	H	0.284694	0.592874	0.833924
	H7	H	0.288089	0.395562	0.160815
	H8	H	0.835938	0.708105	0.398975
	H9	H	0.163550	0.706195	0.596540
	H10	H	0.835156	0.281054	0.594487
	H11	H	0.163546	0.276427	0.398389
	H12	H	0.836582	0.394295	0.713222
	H13	H	0.164262	0.589966	0.711043
	H14	H	0.835713	0.592383	0.282741
	H15	H	0.164213	0.392473	0.282583
	H16	H	0.399753	0.708666	0.834625
	H17	H	0.598469	0.705463	0.161885
	H18	H	0.601608	0.275312	0.833584
	H19	H	0.403741	0.278850	0.161303
	H20	H	0.716094	0.828683	0.398312
	H21	H	0.712460	0.156822	0.595526
	H22	H	0.288113	0.828400	0.594581
	H23	H	0.283418	0.156340	0.398210
	H24	H	0.903404	0.328466	0.211048
	H25	H	0.097813	0.656951	0.212202
	H26	H	0.103197	0.329992	0.780234
	H27	H	0.901084	0.656852	0.782867
	H28	H	0.215756	0.892030	0.333091
	H29	H	0.214191	0.090638	0.660601
	H30	H	0.784456	0.091908	0.333218
	H31	H	0.785692	0.895177	0.661466
	H32	H	0.337291	0.209142	0.897505
	H33	H	0.665213	0.203567	0.094550
	H34	H	0.335864	0.779918	0.094993
	H35	H	0.664053	0.776060	0.897867
	H36	H	0.336097	0.894379	0.210560
	H37	H	0.663887	0.089626	0.211753
	H38	H	0.335959	0.092650	0.782516
	H39	H	0.663692	0.890980	0.780688
	H40	H	0.901059	0.206993	0.332694
	H41	H	0.099059	0.207658	0.660244
	H42	H	0.099284	0.776708	0.333639
	H43	H	0.902188	0.779061	0.661216
	H44	H	0.216630	0.328753	0.898391
	H45	H	0.213914	0.657337	0.095566
	H46	H	0.789942	0.327390	0.094068
	H47	H	0.784377	0.655420	0.897094
	H48	H	0.401183	0.107611	0.578927
	H49	H	0.594169	0.877333	0.583067
	H50	H	0.592027	0.108276	0.407649
	H51	H	0.403766	0.871395	0.395720
	H52	H	0.590574	0.389494	0.114573
	H53	H	0.592184	0.588760	0.879478
	H54	H	0.413872	0.578631	0.110050
	H55	H	0.408988	0.396268	0.879415
	H56	H	0.120512	0.596148	0.401803
	H57	H	0.884616	0.588123	0.584452
	H58	H	0.116228	0.403818	0.595919
	H59	H	0.882747	0.399320	0.404750
	H60	H	0.119593	0.390261	0.589468
	H61	H	0.884050	0.580534	0.591858
	H62	H	0.112859	0.581170	0.415325
	H63	H	0.882851	0.401172	0.402617
	H64	H	0.410026	0.595993	0.116418
	H65	H	0.596530	0.581525	0.880771
	H66	H	0.604428	0.397388	0.116600
	H67	H	0.406674	0.402458	0.879935
	H68	H	0.594955	0.109965	0.401245
	H69	H	0.597959	0.873192	0.592546
	H70	H	0.399982	0.113920	0.598038
	H71	H	0.416127	0.878697	0.402959
	H72	H	0.903991	0.610467	0.091962
	H73	H	0.110468	0.371543	0.090460
	H74	H	0.088694	0.611734	0.892599
	H75	H	0.909752	0.377007	0.909453
	H76	H	0.091992	0.902791	0.611011
	H77	H	0.093599	0.090476	0.377956
	H78	H	0.900450	0.086957	0.615204
	H79	H	0.916302	0.896715	0.381899
	H80	H	0.612113	0.084855	0.918808
	H81	H	0.383790	0.085582	0.091006
	H82	H	0.618366	0.900616	0.097399
	H83	H	0.382050	0.904560	0.896012
	H84	H	0.618704	0.889843	0.089432
	H85	H	0.383580	0.087535	0.089838
	H86	H	0.615229	0.069231	0.895720
	H87	H	0.381894	0.891897	0.906127
	H88	H	0.908103	0.082755	0.611865
	H89	H	0.095842	0.078658	0.380601
	H90	H	0.091628	0.895718	0.613712
	H91	H	0.900563	0.893964	0.376023
	H92	H	0.085814	0.605289	0.912480
	H93	H	0.084905	0.375494	0.102822
	H94	H	0.909544	0.608845	0.091400
	H95	H	0.906412	0.374340	0.901562
	H96	H	0.417293	0.106502	0.590802
	H97	H	0.588130	0.876828	0.591982
	H98	H	0.587680	0.108289	0.401557
	H99	H	0.401719	0.876198	0.410847
	H100	H	0.591534	0.405028	0.110000
	H101	H	0.589009	0.581776	0.883819
	H102	H	0.396451	0.583203	0.116034
	H103	H	0.412592	0.400298	0.882209
	H104	H	0.117016	0.575613	0.394996
	H105	H	0.880595	0.590478	0.594127
	H106	H	0.113279	0.401639	0.581547
	H107	H	0.881515	0.398803	0.401557
	H108	H	0.906633	0.608590	0.086820
	H109	H	0.089485	0.382365	0.075614
	H110	H	0.104275	0.611905	0.906041
	H111	H	0.915750	0.376878	0.901957
	H112	H	0.097480	0.899058	0.614619
	H113	H	0.085181	0.083418	0.383273
	H114	H	0.907931	0.091376	0.614056
	H115	H	0.904741	0.909057	0.383331
	H116	H	0.623260	0.095710	0.896161
	H117	H	0.384003	0.085665	0.088258
	H118	H	0.613915	0.901759	0.083824
	H119	H	0.387261	0.905742	0.911412
	C120	C	0.378086	0.001352	0.618100
	C121	C	0.621269	0.984064	0.618368
	C122	C	0.621250	0.000506	0.375016
	C123	C	0.377784	0.983932	0.374607
	C124	C	0.623885	0.368858	0.005567
	C125	C	0.621445	0.612475	0.989407
	C126	C	0.378069	0.614601	0.005917
	C127	C	0.380421	0.371029	0.988744
	C128	C	0.008479	0.613734	0.375740
	C129	C	0.991366	0.614188	0.618604
	C130	C	0.008283	0.370696	0.618048
	C131	C	0.991020	0.370489	0.375016
	C132	C	0.879470	0.500590	0.118306
	C133	C	0.122558	0.484763	0.118610
	C134	C	0.123022	0.501517	0.874957
	C135	C	0.879863	0.484127	0.875175
	C136	C	0.122418	0.869967	0.505191
	C137	C	0.120566	0.113120	0.488667
	C138	C	0.876987	0.115059	0.505184
	C139	C	0.878515	0.871536	0.488815
	C140	C	0.508924	0.113303	0.874963
	C141	C	0.492147	0.113535	0.118223
	C142	C	0.508479	0.870107	0.118662
	C143	C	0.491845	0.870437	0.875098
	C144	C	0.380410	0.878313	0.673994
	C145	C	0.618380	0.107268	0.674065
	C146	C	0.619677	0.876960	0.320583
	C147	C	0.379458	0.107319	0.319724
	C148	C	0.679153	0.370749	0.882139
	C149	C	0.676391	0.609292	0.112627
	C150	C	0.322673	0.612772	0.882847
	C151	C	0.325421	0.374111	0.111946
	C152	C	0.885002	0.670077	0.378248
	C153	C	0.114662	0.668666	0.616713
	C154	C	0.884692	0.317086	0.616043
	C155	C	0.114592	0.314397	0.377528
	C156	C	0.885354	0.373777	0.674675
	C157	C	0.115074	0.610964	0.673462
	C158	C	0.884941	0.612903	0.320241
	C159	C	0.114971	0.372361	0.320239
	C160	C	0.379829	0.670399	0.883222
	C161	C	0.618375	0.667044	0.113000
	C162	C	0.621709	0.313200	0.882359
	C163	C	0.383218	0.316429	0.112106
	C164	C	0.677248	0.877219	0.378234
	C165	C	0.674885	0.107805	0.615664
	C166	C	0.324475	0.877741	0.615411
	C167	C	0.321586	0.107438	0.377287
	C168	C	0.882975	0.377226	0.173151
	C169	C	0.118752	0.608058	0.173923
	C170	C	0.122279	0.378369	0.819233
	C171	C	0.881110	0.607615	0.820351
	C172	C	0.177792	0.871842	0.382137
	C173	C	0.176217	0.111258	0.611887
	C174	C	0.822196	0.112593	0.382050
	C175	C	0.823498	0.874518	0.612298
	C176	C	0.385832	0.170478	0.877270
	C177	C	0.616100	0.166420	0.115192
	C178	C	0.384979	0.816618	0.115972
	C179	C	0.614944	0.814195	0.877429
	C180	C	0.385250	0.873731	0.173325
	C181	C	0.615437	0.110109	0.173635
	C182	C	0.385239	0.112773	0.819924
	C183	C	0.614854	0.871628	0.819320
	C184	C	0.879935	0.170051	0.381893
	C185	C	0.118952	0.169264	0.611584
	C186	C	0.119884	0.814698	0.382335
	C187	C	0.881386	0.816884	0.612313
	C188	C	0.179261	0.378056	0.877668
	C189	C	0.176279	0.608368	0.115914
	C190	C	0.826563	0.376767	0.114962
	C191	C	0.822833	0.606825	0.876996
	C192	C	0.399725	0.087211	0.595855
	C193	C	0.599695	0.898110	0.595932
	C194	C	0.598283	0.086700	0.397012
	C195	C	0.400459	0.897781	0.396751
	C196	C	0.602005	0.390667	0.091403
	C197	C	0.599025	0.590462	0.903614
	C198	C	0.400233	0.592335	0.091921
	C199	C	0.402640	0.393269	0.902676
	C200	C	0.094593	0.591079	0.397458
	C201	C	0.905312	0.592720	0.596494
	C202	C	0.094234	0.392207	0.595528
	C203	C	0.904740	0.393104	0.396758
	C204	C	0.900409	0.587013	0.096404
	C205	C	0.101364	0.398899	0.096268
	C206	C	0.099956	0.587407	0.897096
	C207	C	0.903650	0.398141	0.897859
	C208	C	0.100288	0.892657	0.590959
	C209	C	0.098045	0.090687	0.402949
	C210	C	0.898963	0.093393	0.591435
	C211	C	0.900698	0.893442	0.402606
	C212	C	0.594661	0.090072	0.897014
	C213	C	0.405932	0.092524	0.096168
	C214	C	0.594924	0.891071	0.096659
	C215	C	0.405874	0.893814	0.897748
	Zn216	Zn	0.499654	-0.007750	0.746200
	Zn217	Zn	0.500108	-0.007734	0.246359
	Zn218	Zn	0.751278	0.491358	-0.003309
	Zn219	Zn	0.251347	0.492665	-0.002809
	Zn220	Zn	0.000025	0.742223	0.497518
	Zn221	Zn	-0.000355	0.242178	0.496907
	Zn222	Zn	0.000635	0.492848	0.746969
	Zn223	Zn	0.000221	0.492699	0.246865
	Zn224	Zn	0.499802	0.742093	-0.002147
	Zn225	Zn	0.501226	0.241634	-0.003074
	Zn226	Zn	0.749614	-0.007100	0.496938
	Zn227	Zn	0.249649	-0.007582	0.496939
	N228	N	0.413177	0.956163	0.675723
	N229	N	0.585721	0.029420	0.675820
	N230	N	0.585410	0.954617	0.318685
	N231	N	0.413610	0.029629	0.317986
	N232	N	0.680693	0.404694	0.959558
	N233	N	0.678096	0.575955	0.034997
	N234	N	0.321516	0.578917	0.960179
	N235	N	0.323600	0.407246	0.034234
	N236	N	0.962638	0.670701	0.412172
	N237	N	0.036884	0.670738	0.583204
	N238	N	0.962092	0.315068	0.581735
	N239	N	0.036655	0.312944	0.410663
	N240	N	0.963293	0.406419	0.676252
	N241	N	0.037383	0.577640	0.674741
	N242	N	0.962420	0.578210	0.318780
	N243	N	0.037142	0.406413	0.318451
	N244	N	0.413698	0.671657	0.960750
	N245	N	0.585084	0.669429	0.035170
	N246	N	0.587969	0.311922	0.959929
	N247	N	0.416497	0.314389	0.034291
	N248	N	0.678561	0.955139	0.411146
	N249	N	0.676823	0.030299	0.581788
	N250	N	0.322878	0.955148	0.581246
	N251	N	0.320244	0.029633	0.410545
	N252	N	0.915056	0.455314	0.175391
	N253	N	0.086183	0.530263	0.175857
	N254	N	0.088319	0.456077	0.817171
	N255	N	0.915790	0.530094	0.819187
	N256	N	0.179366	0.905626	0.459585
	N257	N	0.177245	0.077013	0.534568
	N258	N	0.820479	0.079126	0.459546
	N259	N	0.821834	0.907701	0.534459
	N260	N	0.463455	0.170978	0.910957
	N261	N	0.538368	0.168798	0.081628
	N262	N	0.462689	0.814450	0.082456
	N263	N	0.537344	0.813287	0.911307
	N264	N	0.463251	0.906320	0.175168
	N265	N	0.537384	0.077905	0.175584
	N266	N	0.462652	0.077926	0.818429
	N267	N	0.537080	0.905757	0.817414
	N268	N	0.913349	0.171629	0.459646
	N269	N	0.085265	0.170541	0.533936
	N270	N	0.086120	0.813396	0.459835
	N271	N	0.915001	0.815098	0.534640
	N272	N	0.179545	0.455608	0.911761
	N273	N	0.178939	0.530703	0.082256
	N274	N	0.824314	0.454466	0.081481
	N275	N	0.822006	0.528944	0.910255
	O276	O	1.030736	1.028574	0.016693
	H277	H	1.032260	1.026163	0.013627
	H278	H	1.030138	1.026531	0.010663
	O279	O	0.460496	0.540036	0.491269
	H280	H	0.460263	0.549332	0.486198
	H281	H	0.454987	0.539540	0.491592
	O282	O	0.037721	0.020450	-0.000295
	H283	H	0.036695	0.013851	-0.009478
	H284	H	0.032351	0.026332	-0.007994
	O285	O	0.519065	0.440330	0.529367
	H286	H	0.529124	0.443721	0.534401
	H287	H	0.519881	0.441858	0.526580
	O288	O	-0.054578	0.068452	-0.042958
	H289	H	-0.054944	0.069135	-0.038186
	H290	H	-0.058697	0.071169	-0.030969
	O291	O	0.061678	1.012495	0.015867
	H292	H	0.070704	1.019372	0.020566
	H293	H	0.071168	1.008386	0.018004
	O294	O	0.000375	1.055031	-0.044780
	H295	H	-0.006556	1.047497	-0.044105
	H296	H	-0.002337	1.063606	-0.047446
	O297	O	0.436184	0.513853	0.513795
	H298	H	0.424415	0.524969	0.507940
	H299	H	0.437451	0.501245	0.510790
	O300	O	0.414952	0.526145	0.483462
	H301	H	0.418420	0.528752	0.490586
	H302	H	0.408966	0.526971	0.479329
	O303	O	0.993721	0.055655	0.964438
	H304	H	0.995936	0.058646	0.960427
	H305	H	0.990612	0.050285	0.979632
	O306	O	0.006882	1.032828	1.002074
	H307	H	-0.001720	1.038125	0.997381
	H308	H	0.012424	1.025037	1.000181
	O309	O	0.084979	1.037804	1.020814
	H310	H	0.090997	1.041126	1.022180
	H311	H	0.079907	1.046282	1.009332
	O312	O	-0.063772	0.046147	0.976710
	H313	H	-0.071867	0.042302	0.978320
	H314	H	-0.065214	0.054127	0.975857
	O315	O	0.539783	0.571423	0.513086
	H316	H	0.540320	0.577292	0.517324
	H317	H	0.541844	0.578219	0.509859
	O318	O	0.047133	-0.033368	0.989079
	H319	H	0.046794	-0.027364	0.992079
	H320	H	0.048280	-0.031242	0.989869
	O321	O	0.496847	0.421761	0.503943
	H322	H	0.489873	0.418670	0.506993
	H323	H	0.494562	0.420381	0.500052
	O324	O	1.025271	0.048369	1.016770
	H325	H	1.034875	0.043748	1.031477
	H326	H	1.025988	0.055834	1.018954
	O327	O	1.014870	0.993298	0.984827
	H328	H	1.020228	0.986921	0.973932
	H329	H	1.019471	0.998317	0.984607
	O330	O	0.470486	0.527099	0.524812
	H331	H	0.474192	0.526505	0.521413
	H332	H	0.467764	0.520407	0.533459
	O333	O	0.460256	0.535020	0.451129
	H334	H	0.463591	0.539033	0.450227
	H335	H	0.447792	0.537085	0.443541
	O336	O	0.432259	0.491240	0.509414
	H337	H	0.427752	0.480544	0.515925
	H338	H	0.432484	0.495844	0.513141
	O339	O	0.503267	0.457124	0.546344
	H340	H	0.511884	0.448934	0.545472
	H341	H	0.492240	0.462257	0.548903
	O342	O	0.544191	0.461222	0.553524
	H343	H	0.551571	0.460541	0.552378
	H344	H	0.549251	0.466247	0.555543
	O345	O	0.521538	0.477932	0.543064
	H346	H	0.526831	0.471583	0.542280
	H347	H	0.523684	0.479009	0.556565
