data_Molecule from HDF5

_cell_length_a		16.497492
_cell_length_b		16.570822
_cell_length_c		16.434092
_cell_angle_alpha	89.994356
_cell_angle_beta	90.003101
_cell_angle_gamma	89.941099
_symmetry_space_group_name_H-M	'P 1'
_symmetry_Int_Tables_number		1

loop_
	_symmetry_equiv_pos_as_xyz
	x,y,z

loop_
	_atom_site_label
	_atom_site_type_symbol
	_atom_site_fract_x
	_atom_site_fract_y
	_atom_site_fract_z
	H0	H	0.401348	0.847638	0.744816
	H1	H	0.614093	0.159292	0.744565
	H2	H	0.613036	0.846389	0.300652
	H3	H	0.403166	0.161753	0.300282
	H4	H	0.728406	0.400022	0.864374
	H5	H	0.729498	0.608223	0.181456
	H6	H	0.288170	0.609101	0.863763
	H7	H	0.286635	0.399264	0.180155
	H8	H	0.851908	0.729948	0.410956
	H9	H	0.165305	0.725200	0.625818
	H10	H	0.850194	0.283949	0.624295
	H11	H	0.163715	0.280600	0.412827
	H12	H	0.848768	0.402558	0.738879
	H13	H	0.165864	0.607632	0.740427
	H14	H	0.850086	0.611586	0.298445
	H15	H	0.164551	0.398417	0.298929
	H16	H	0.402664	0.726820	0.865845
	H17	H	0.613457	0.723974	0.183053
	H18	H	0.615096	0.281012	0.866230
	H19	H	0.401864	0.281911	0.180072
	H20	H	0.731125	0.847135	0.414528
	H21	H	0.729139	0.160014	0.627170
	H22	H	0.284339	0.848028	0.629114
	H23	H	0.285618	0.160757	0.414837
	H24	H	0.900361	0.348165	0.245226
	H25	H	0.112260	0.660288	0.243912
	H26	H	0.110926	0.346025	0.801647
	H27	H	0.904289	0.661878	0.801888
	H28	H	0.229762	0.898337	0.363495
	H29	H	0.228296	0.108601	0.679327
	H30	H	0.784602	0.110851	0.364002
	H31	H	0.786556	0.898969	0.678533
	H32	H	0.352925	0.228546	0.914160
	H33	H	0.665399	0.226639	0.130000
	H34	H	0.352831	0.781078	0.129762
	H35	H	0.665304	0.782127	0.917660
	H36	H	0.350414	0.900058	0.242491
	H37	H	0.666512	0.109009	0.243596
	H38	H	0.351880	0.111156	0.798927
	H39	H	0.665147	0.899384	0.801816
	H40	H	0.900971	0.226340	0.364047
	H41	H	0.111130	0.224149	0.679140
	H42	H	0.115204	0.780870	0.364586
	H43	H	0.901087	0.782116	0.677485
	H44	H	0.229256	0.347008	0.916742
	H45	H	0.228498	0.660358	0.125573
	H46	H	0.785582	0.347935	0.127879
	H47	H	0.787602	0.661434	0.917766
	H48	H	0.421843	0.113377	0.607395
	H49	H	0.597545	0.890616	0.609177
	H50	H	0.597745	0.115228	0.435017
	H51	H	0.417790	0.890448	0.429250
	H52	H	0.595953	0.407887	0.138594
	H53	H	0.600875	0.599627	0.907929
	H54	H	0.418554	0.598627	0.137480
	H55	H	0.422595	0.411492	0.909338
	H56	H	0.114194	0.587665	0.440449
	H57	H	0.892185	0.595449	0.617894
	H58	H	0.122161	0.407608	0.609280
	H59	H	0.895476	0.418095	0.431929
	H60	H	0.118496	0.417729	0.606998
	H61	H	0.893655	0.600403	0.606506
	H62	H	0.119249	0.588164	0.427950
	H63	H	0.893998	0.412773	0.434410
	H64	H	0.413648	0.588794	0.135644
	H65	H	0.600810	0.588107	0.911172
	H66	H	0.604066	0.420190	0.136122
	H67	H	0.416058	0.417873	0.909210
	H68	H	0.598862	0.116384	0.432270
	H69	H	0.597426	0.891026	0.611983
	H70	H	0.415706	0.116019	0.609509
	H71	H	0.423323	0.894020	0.432343
	H72	H	0.926036	0.616384	0.118102
	H73	H	0.101887	0.388219	0.113424
	H74	H	0.098892	0.615402	0.935813
	H75	H	0.923712	0.394801	0.935488
	H76	H	0.096015	0.910549	0.634974
	H77	H	0.097129	0.097344	0.405824
	H78	H	0.917050	0.088848	0.633478
	H79	H	0.917092	0.917334	0.407467
	H80	H	0.618538	0.091661	0.939650
	H81	H	0.396374	0.095418	0.111738
	H82	H	0.622451	0.916097	0.117693
	H83	H	0.393871	0.910365	0.935119
	H84	H	0.622659	0.907956	0.109002
	H85	H	0.396548	0.094243	0.109851
	H86	H	0.619110	0.088402	0.932129
	H87	H	0.397368	0.916574	0.938780
	H88	H	0.923801	0.093581	0.632380
	H89	H	0.100286	0.090035	0.407568
	H90	H	0.100174	0.917541	0.634796
	H91	H	0.922234	0.920641	0.409930
	H92	H	0.102403	0.618887	0.928712
	H93	H	0.090064	0.393241	0.113934
	H94	H	0.923732	0.610727	0.101276
	H95	H	0.911468	0.389959	0.934980
	H96	H	0.420864	0.116551	0.613681
	H97	H	0.595509	0.891400	0.610394
	H98	H	0.595806	0.115290	0.432497
	H99	H	0.416700	0.893161	0.436661
	H100	H	0.589398	0.419694	0.131701
	H101	H	0.591051	0.594847	0.911952
	H102	H	0.423700	0.590517	0.132926
	H103	H	0.424324	0.420152	0.912600
	H104	H	0.120616	0.598483	0.435882
	H105	H	0.897517	0.589072	0.607923
	H106	H	0.122645	0.415318	0.617016
	H107	H	0.897361	0.416489	0.437357
	H108	H	0.910396	0.619292	0.109918
	H109	H	0.096710	0.393994	0.103459
	H110	H	0.094278	0.616093	0.928535
	H111	H	0.919388	0.389239	0.924508
	H112	H	0.092631	0.917253	0.631422
	H113	H	0.092329	0.091555	0.409591
	H114	H	0.916718	0.096689	0.635310
	H115	H	0.923364	0.914473	0.407733
	H116	H	0.622200	0.095646	0.933727
	H117	H	0.395581	0.092789	0.111241
	H118	H	0.618436	0.919239	0.106662
	H119	H	0.395044	0.917302	0.930971
	C120	C	0.386291	0.012090	0.643143
	C121	C	0.629709	0.994314	0.643436
	C122	C	0.629781	0.012015	0.400317
	C123	C	0.386348	0.995930	0.399773
	C124	C	0.629198	0.383640	0.031013
	C125	C	0.629758	0.625473	1.015434
	C126	C	0.386736	0.625392	0.031119
	C127	C	0.387624	0.383234	1.014067
	C128	C	0.015251	0.625325	0.400352
	C129	C	0.998815	0.626217	0.642448
	C130	C	0.016277	0.382940	0.642086
	C131	C	0.998910	0.382639	0.400098
	C132	C	0.886487	0.512523	0.143091
	C133	C	0.128586	0.495397	0.143030
	C134	C	0.129895	0.512566	0.899383
	C135	C	0.886366	0.495594	0.900139
	C136	C	0.129349	0.883049	0.529588
	C137	C	0.128665	0.125278	0.512336
	C138	C	0.886227	0.125272	0.529554
	C139	C	0.887303	0.883845	0.512092
	C140	C	0.516627	0.125303	0.901444
	C141	C	0.500261	0.126040	0.143809
	C142	C	0.517281	0.882745	0.143622
	C143	C	0.499110	0.882184	0.901843
	C144	C	0.383287	0.894673	0.704556
	C145	C	0.632189	0.112139	0.704324
	C146	C	0.631694	0.893702	0.340300
	C147	C	0.384577	0.114195	0.339959
	C148	C	0.689054	0.381447	0.912095
	C149	C	0.689680	0.626983	0.134182
	C150	C	0.327306	0.627993	0.911971
	C151	C	0.326396	0.380544	0.132566
	C152	C	0.898497	0.688310	0.394641
	C153	C	0.117766	0.685448	0.644258
	C154	C	0.897172	0.324129	0.643012
	C155	C	0.116712	0.321352	0.395783
	C156	C	0.896515	0.382986	0.699916
	C157	C	0.118207	0.626781	0.701200
	C158	C	0.897662	0.629239	0.338303
	C159	C	0.117128	0.380321	0.339152
	C160	C	0.384390	0.686402	0.912854
	C161	C	0.631556	0.684501	0.134834
	C162	C	0.632647	0.322258	0.912921
	C163	C	0.384044	0.322538	0.132754
	C164	C	0.690441	0.893964	0.397228
	C165	C	0.689680	0.112508	0.645935
	C166	C	0.325077	0.894850	0.646689
	C167	C	0.325795	0.113723	0.396916
	C168	C	0.882769	0.395105	0.204508
	C169	C	0.131102	0.613332	0.203531
	C170	C	0.130623	0.393780	0.840393
	C171	C	0.885616	0.614488	0.841399
	C172	C	0.190235	0.879962	0.411235
	C173	C	0.188072	0.126783	0.631760
	C174	C	0.825112	0.128616	0.411406
	C175	C	0.826111	0.880499	0.630772
	C176	C	0.399617	0.187665	0.896888
	C177	C	0.618646	0.185906	0.146737
	C178	C	0.399225	0.821956	0.147275
	C179	C	0.617854	0.822076	0.899201
	C180	C	0.398397	0.881095	0.203403
	C181	C	0.618851	0.127262	0.203557
	C182	C	0.399041	0.129173	0.839452
	C183	C	0.617958	0.880380	0.841705
	C184	C	0.883142	0.185981	0.411169
	C185	C	0.130256	0.184667	0.631611
	C186	C	0.132729	0.821939	0.411482
	C187	C	0.883288	0.822512	0.630397
	C188	C	0.189613	0.394238	0.897488
	C189	C	0.189030	0.613222	0.145181
	C190	C	0.825797	0.394946	0.146034
	C191	C	0.827302	0.614221	0.898854
	C192	C	0.412031	0.094002	0.617413
	C193	C	0.604104	0.912466	0.617855
	C194	C	0.604746	0.094137	0.426114
	C195	C	0.411828	0.913931	0.425336
	C196	C	0.603647	0.408860	0.113834
	C197	C	0.604726	0.601357	0.931953
	C198	C	0.411746	0.600172	0.113695
	C199	C	0.413699	0.408970	0.931891
	C200	C	0.096812	0.598868	0.427014
	C201	C	0.915969	0.602150	0.617663
	C202	C	0.099377	0.406746	0.618027
	C203	C	0.916831	0.408509	0.426780
	C204	C	0.912560	0.594283	0.117077
	C205	C	0.103320	0.413185	0.117677
	C206	C	0.105538	0.595296	0.923826
	C207	C	0.910850	0.412988	0.924591
	C208	C	0.103781	0.908028	0.612207
	C209	C	0.103733	0.100185	0.429439
	C210	C	0.911919	0.100045	0.612287
	C211	C	0.913525	0.909933	0.429940
	C212	C	0.598794	0.099249	0.927712
	C213	C	0.417670	0.101344	0.118150
	C214	C	0.599765	0.907291	0.118297
	C215	C	0.417000	0.907453	0.927580
	Zn216	Zn	0.507958	0.003242	0.772589
	Zn217	Zn	0.508303	0.004206	0.271542
	Zn218	Zn	0.758012	0.504507	0.022091
	Zn219	Zn	0.258261	0.503819	0.021511
	Zn220	Zn	0.007318	0.754794	0.520670
	Zn221	Zn	0.007359	0.253694	0.520716
	Zn222	Zn	0.007600	0.504307	0.771151
	Zn223	Zn	0.006935	0.503917	0.271966
	Zn224	Zn	0.508463	0.753851	0.023734
	Zn225	Zn	0.508581	0.254510	0.022911
	Zn226	Zn	0.758463	0.004010	0.521383
	Zn227	Zn	0.257722	0.004125	0.521118
	N228	N	0.420624	0.968685	0.702525
	N229	N	0.595367	0.037806	0.702829
	N230	N	0.595134	0.968278	0.341658
	N231	N	0.421363	0.039842	0.341433
	N232	N	0.687008	0.418686	0.986640
	N233	N	0.688642	0.591239	0.058813
	N234	N	0.328358	0.590872	0.986520
	N235	N	0.328420	0.417554	0.057678
	N236	N	0.972421	0.685904	0.432841
	N237	N	0.042476	0.685391	0.608579
	N238	N	0.972643	0.323937	0.607923
	N239	N	0.042186	0.322670	0.432918
	N240	N	0.971555	0.418803	0.699719
	N241	N	0.043325	0.590678	0.700359
	N242	N	0.971190	0.590386	0.341990
	N243	N	0.042722	0.417592	0.341744
	N244	N	0.420549	0.685074	0.988077
	N245	N	0.595124	0.683815	0.059615
	N246	N	0.596063	0.323548	0.987941
	N247	N	0.421065	0.323619	0.057942
	N248	N	0.689537	0.968642	0.433718
	N249	N	0.688322	0.038289	0.608761
	N250	N	0.326855	0.968931	0.609280
	N251	N	0.326752	0.038992	0.433377
	N252	N	0.919764	0.469340	0.202745
	N253	N	0.094575	0.539028	0.202316
	N254	N	0.094417	0.468640	0.841327
	N255	N	0.921428	0.539657	0.841950
	N256	N	0.188214	0.917134	0.485794
	N257	N	0.187284	0.090600	0.556511
	N258	N	0.827146	0.091467	0.486040
	N259	N	0.828544	0.917780	0.556173
	N260	N	0.473900	0.185376	0.934742
	N261	N	0.543611	0.185428	0.110514
	N262	N	0.474092	0.822853	0.110879
	N263	N	0.543001	0.822889	0.935815
	N264	N	0.472762	0.918312	0.201248
	N265	N	0.544080	0.090890	0.201918
	N266	N	0.472933	0.091115	0.842137
	N267	N	0.543172	0.916890	0.843057
	N268	N	0.920546	0.184034	0.485868
	N269	N	0.094248	0.184013	0.556287
	N270	N	0.095727	0.823397	0.486362
	N271	N	0.920464	0.824224	0.555547
	N272	N	0.189355	0.469076	0.933271
	N273	N	0.187515	0.538793	0.108239
	N274	N	0.827973	0.469036	0.108692
	N275	N	0.827444	0.539251	0.934511
	O276	O	0.630216	0.306848	0.329738
	H277	H	0.646753	0.330238	0.319261
	H278	H	0.640932	0.302738	0.352230
	O279	O	0.533043	0.702939	0.400979
	H280	H	0.513056	0.712179	0.409745
	H281	H	0.533724	0.696978	0.402831
	O282	O	0.299433	0.717069	0.491672
	H283	H	0.293674	0.723159	0.488073
	H284	H	0.288984	0.723125	0.484344
	O285	O	0.273872	0.759031	0.259528
	H286	H	0.304992	0.765364	0.277584
	H287	H	0.268901	0.731330	0.252578
	O288	O	0.078214	-0.206369	-0.157757
	H289	H	0.103291	-0.198929	-0.147619
	H290	H	0.097098	-0.225057	-0.171008
	O291	O	1.210942	0.829595	0.016799
	H292	H	1.207679	0.827687	0.051734
	H293	H	1.212937	0.821666	0.024012
	O294	O	0.030630	1.219360	0.146985
	H295	H	0.038338	1.233009	0.151607
	H296	H	0.014238	1.226092	0.140274
	O297	O	1.167031	1.002535	-0.182139
	H298	H	1.175885	1.003503	-0.194268
	H299	H	1.163197	1.010260	-0.180981
	O300	O	0.716588	0.522740	0.390404
	H301	H	0.723024	0.531634	0.404942
	H302	H	0.709479	0.530965	0.411133
	O303	O	0.658493	0.415993	0.711269
	H304	H	0.644631	0.410268	0.713824
	H305	H	0.652807	0.422980	0.697081
	O306	O	-0.030394	1.040570	1.233357
	H307	H	-0.024488	1.051317	1.230982
	H308	H	-0.022118	1.043778	1.232315
	O309	O	0.403828	0.354006	0.537826
	H310	H	0.396275	0.355130	0.528717
	H311	H	0.386123	0.354360	0.529942
	O312	O	0.203131	0.202263	0.223895
	H313	H	0.185285	0.190635	0.221283
	H314	H	0.190497	0.198557	0.209230
	O315	O	-0.154439	-0.156131	1.065701
	H316	H	-0.147241	-0.147669	1.055699
	H317	H	-0.159227	-0.172982	1.053745
	O318	O	-0.281618	1.589789	0.734138
	H319	H	-0.298754	1.592043	0.737573
	H320	H	-0.251460	1.600612	0.760817
	O321	O	0.047730	1.105646	-0.054602
	H322	H	0.037955	1.111323	-0.045635
	H323	H	0.055576	1.096370	-0.049791
	O324	O	0.797994	0.220089	0.998973
	H325	H	0.778692	0.224233	0.978234
	H326	H	0.789730	0.221394	0.970117
	O327	O	0.872823	-0.205312	1.143140
	H328	H	0.862917	-0.214922	1.149591
	H329	H	0.880282	-0.210767	1.155195
	O330	O	1.034651	0.038396	-0.117110
	H331	H	1.033374	0.031739	-0.112116
	H332	H	1.042375	0.031116	-0.112917
	O333	O	0.541628	0.714393	0.543764
	H334	H	0.520750	0.721052	0.541670
	H335	H	0.527800	0.715068	0.540545
	O336	O	1.619779	-0.572717	0.693619
	H337	H	1.622303	-0.594366	0.690851
	H338	H	1.612359	-0.565352	0.685791
	O339	O	0.476429	-0.670331	-0.273888
	H340	H	0.472405	-0.698665	-0.256999
	H341	H	0.457217	-0.663373	-0.280084
	O342	O	0.303885	0.499329	0.713690
	H343	H	0.305417	0.493297	0.715892
	H344	H	0.297013	0.498938	0.736342
	O345	O	-0.221149	0.238206	-0.211184
	H346	H	-0.228790	0.237021	-0.237294
	H347	H	-0.222063	0.230670	-0.219786
	O348	O	1.011006	-0.083715	1.018999
	H349	H	1.001649	-0.080859	1.015642
	H350	H	1.019664	-0.084525	1.017703
	O351	O	0.810697	1.019536	-0.111330
	H352	H	0.810642	1.031742	-0.135982
	H353	H	0.825133	0.999210	-0.115031
	O354	O	0.480631	0.447823	0.362944
	H355	H	0.493180	0.444863	0.362859
	H356	H	0.490007	0.446059	0.359885
	O357	O	1.183359	1.056086	1.104120
	H358	H	1.188675	1.038219	1.099444
	H359	H	1.191421	1.057350	1.084467
	O360	O	0.319681	0.516446	0.371591
	H361	H	0.303400	0.510957	0.372806
	H362	H	0.327666	0.497492	0.379040
	O363	O	0.533198	0.716718	0.734013
	H364	H	0.548234	0.712262	0.742585
	H365	H	0.535993	0.730283	0.745200
	O366	O	1.118988	0.099259	0.959182
	H367	H	1.123668	0.109097	0.947688
	H368	H	1.102288	0.102166	0.966954
	O369	O	-0.114198	0.952557	-0.178323
	H370	H	-0.117980	0.956367	-0.174990
	H371	H	-0.118786	0.950837	-0.180970
	O372	O	0.201644	0.806492	-0.174860
	H373	H	0.208276	0.803091	-0.123134
	H374	H	0.205935	0.817466	-0.187035
	O375	O	-0.078782	0.829111	1.073037
	H376	H	-0.074045	0.833769	1.071550
	H377	H	-0.077314	0.822616	1.071969
	O378	O	0.415221	0.490817	0.391027
	H379	H	0.417768	0.491277	0.392117
	H380	H	0.434582	0.482851	0.384686
	O381	O	0.832625	0.055683	0.051735
	H382	H	0.829659	0.048848	0.060588
	H383	H	0.831339	0.060670	0.057155
	O384	O	-0.357327	0.301578	1.524160
	H385	H	-0.373138	0.307092	1.533947
	H386	H	-0.354720	0.286412	1.522453
	O387	O	-0.162931	1.105440	1.142574
	H388	H	-0.163194	1.097559	1.143306
	H389	H	-0.153082	1.107871	1.140232
	O390	O	0.792957	0.818586	0.781385
	H391	H	0.808609	0.815426	0.765274
	H392	H	0.784261	0.823034	0.790529
	O393	O	1.160883	1.005669	0.239253
	H394	H	1.168218	1.018212	0.252272
	H395	H	1.172579	1.003939	0.220454
	O396	O	0.396308	0.674657	0.604112
	H397	H	0.386843	0.675571	0.591024
	H398	H	0.403888	0.669576	0.612664
	O399	O	0.333783	0.466026	0.501424
	H400	H	0.343283	0.484727	0.513725
	H401	H	0.328825	0.456453	0.495230
	O402	O	-0.018006	0.211241	1.145560
	H403	H	-0.022714	0.209913	1.124747
	H404	H	-0.037911	0.216141	1.142357
	O405	O	0.182009	0.008189	-0.070378
	H406	H	0.182241	0.010839	-0.077948
	H407	H	0.187350	0.006782	-0.088204
	O408	O	0.442365	0.577876	0.723556
	H409	H	0.454759	0.572887	0.728721
	H410	H	0.446230	0.578905	0.721808
	O411	O	0.050684	1.205305	-0.183204
	H412	H	0.028530	1.196812	-0.172678
	H413	H	0.048365	1.202568	-0.190298
	O414	O	0.333061	0.449238	0.541160
	H415	H	0.328488	0.435213	0.553857
	H416	H	0.339681	0.451852	0.540622
	O417	O	0.796892	-0.027449	1.237238
	H418	H	0.790883	-0.032865	1.244578
	H419	H	0.793745	-0.030286	1.252506
	O420	O	0.711699	0.410806	0.540029
	H421	H	0.700832	0.408811	0.537337
	H422	H	0.718911	0.404976	0.544362
	O423	O	0.037016	0.982180	-0.037131
	H424	H	0.036960	0.981010	-0.031649
	H425	H	0.032296	0.968399	-0.042610
	O426	O	1.085694	0.796200	1.104996
	H427	H	1.087686	0.800891	1.106715
	H428	H	1.079419	0.791687	1.108478
	O429	O	0.480395	0.621150	0.323337
	H430	H	0.492215	0.636804	0.313965
	H431	H	0.474419	0.604759	0.321906
	O432	O	0.510633	0.533744	0.509303
	H433	H	0.523686	0.540378	0.512111
	H434	H	0.515816	0.530094	0.505708
	O435	O	-0.125206	-0.073033	-0.050395
	H436	H	-0.129979	-0.078190	-0.058141
	H437	H	-0.120326	-0.058859	-0.052961
	O438	O	1.695231	0.662946	0.465410
	H439	H	1.689727	0.663126	0.470366
	H440	H	1.706692	0.669677	0.460007
	O441	O	0.147973	-0.077394	0.143871
	H442	H	0.131040	-0.074432	0.137459
	H443	H	0.163175	-0.072642	0.156328
	O444	O	0.852066	-0.093476	0.065524
	H445	H	0.866513	-0.105103	0.077519
	H446	H	0.851710	-0.076912	0.079140
	O447	O	0.468860	0.299232	0.574679
	H448	H	0.443973	0.293710	0.558380
	H449	H	0.456438	0.294040	0.577048
	O450	O	0.551081	0.495911	0.310190
	H451	H	0.554676	0.511489	0.333416
	H452	H	0.558208	0.497896	0.291484
	O453	O	0.318165	0.312915	0.712095
	H454	H	0.315594	0.304061	0.666507
	H455	H	0.306696	0.332718	0.726859
	O456	O	0.586196	0.617015	0.555923
	H457	H	0.584143	0.628417	0.541472
	H458	H	0.591155	0.614985	0.558250
	O459	O	0.218758	0.214598	0.049365
	H460	H	0.206426	0.211889	0.056488
	H461	H	0.241534	0.227960	0.045036
	O462	O	0.605104	0.419630	0.461579
	H463	H	0.611540	0.445894	0.456553
	H464	H	0.614404	0.397555	0.451448
	O465	O	1.491610	-0.641170	-0.629433
	H466	H	1.508276	-0.649503	-0.643783
	H467	H	1.508281	-0.639405	-0.635817
