data_Molecule from HDF5

_cell_length_a		16.264024
_cell_length_b		16.250260
_cell_length_c		16.484597
_cell_angle_alpha	89.960906
_cell_angle_beta	90.403876
_cell_angle_gamma	89.777672
_symmetry_space_group_name_H-M	'P 1'
_symmetry_Int_Tables_number		1

loop_
	_symmetry_equiv_pos_as_xyz
	x,y,z

loop_
	_atom_site_label
	_atom_site_type_symbol
	_atom_site_fract_x
	_atom_site_fract_y
	_atom_site_fract_z
	H0	H	0.380113	0.824560	0.714848
	H1	H	0.583767	0.147056	0.714341
	H2	H	0.589000	0.824891	0.278393
	H3	H	0.375407	0.146356	0.275945
	H4	H	0.700668	0.385288	0.836898
	H5	H	0.704915	0.585646	0.159227
	H6	H	0.263039	0.587009	0.839551
	H7	H	0.268025	0.381219	0.159928
	H8	H	0.821800	0.704111	0.396652
	H9	H	0.147254	0.701915	0.598886
	H10	H	0.820172	0.273706	0.594726
	H11	H	0.147332	0.270517	0.401736
	H12	H	0.822546	0.385722	0.714831
	H13	H	0.146761	0.588757	0.716907
	H14	H	0.824478	0.592711	0.276169
	H15	H	0.146213	0.380926	0.282612
	H16	H	0.380996	0.703284	0.837756
	H17	H	0.591711	0.707140	0.156795
	H18	H	0.582414	0.268983	0.836806
	H19	H	0.387280	0.266566	0.159749
	H20	H	0.701762	0.823752	0.396817
	H21	H	0.695539	0.149639	0.594995
	H22	H	0.267569	0.823784	0.596512
	H23	H	0.266390	0.149371	0.395824
	H24	H	0.881620	0.325012	0.218943
	H25	H	0.093725	0.644809	0.220821
	H26	H	0.087402	0.323883	0.781778
	H27	H	0.879917	0.647794	0.780277
	H28	H	0.201896	0.883356	0.337330
	H29	H	0.203590	0.088332	0.657287
	H30	H	0.761709	0.089952	0.337111
	H31	H	0.767247	0.886236	0.658853
	H32	H	0.321457	0.201029	0.897955
	H33	H	0.649049	0.195881	0.095689
	H34	H	0.323166	0.767001	0.097335
	H35	H	0.645849	0.767369	0.895929
	H36	H	0.323294	0.880178	0.215672
	H37	H	0.643974	0.089777	0.218864
	H38	H	0.320815	0.087523	0.780383
	H39	H	0.644821	0.881488	0.779864
	H40	H	0.879972	0.207019	0.337113
	H41	H	0.082896	0.201246	0.659158
	H42	H	0.088099	0.764654	0.339302
	H43	H	0.883725	0.769214	0.658773
	H44	H	0.198460	0.320893	0.902854
	H45	H	0.205076	0.645596	0.103243
	H46	H	0.772321	0.321321	0.096963
	H47	H	0.765062	0.647221	0.895865
	H48	H	0.395296	0.101081	0.590041
	H49	H	0.571740	0.868723	0.591652
	H50	H	0.580471	0.100097	0.416892
	H51	H	0.386928	0.866732	0.400583
	H52	H	0.585942	0.390069	0.115477
	H53	H	0.567962	0.584776	0.884322
	H54	H	0.396005	0.576687	0.112234
	H55	H	0.394189	0.390813	0.885156
	H56	H	0.099577	0.572976	0.407398
	H57	H	0.870549	0.573501	0.588605
	H58	H	0.100625	0.391611	0.592806
	H59	H	0.867481	0.396693	0.402187
	H60	H	0.100447	0.395522	0.590688
	H61	H	0.867286	0.577657	0.593789
	H62	H	0.099808	0.577715	0.410974
	H63	H	0.869995	0.396830	0.411571
	H64	H	0.395647	0.573547	0.111192
	H65	H	0.586012	0.574233	0.881108
	H66	H	0.579167	0.394178	0.111066
	H67	H	0.388637	0.390765	0.883483
	H68	H	0.574863	0.106625	0.393787
	H69	H	0.575416	0.869961	0.586165
	H70	H	0.393139	0.101334	0.587222
	H71	H	0.404120	0.873107	0.402313
	H72	H	0.897534	0.599760	0.088250
	H73	H	0.073532	0.368968	0.093948
	H74	H	0.082343	0.601768	0.913843
	H75	H	0.892866	0.370000	0.907415
	H76	H	0.074928	0.893067	0.611195
	H77	H	0.078315	0.078651	0.382482
	H78	H	0.896854	0.081585	0.609873
	H79	H	0.889083	0.897872	0.384621
	H80	H	0.599617	0.068766	0.900621
	H81	H	0.364497	0.079887	0.096479
	H82	H	0.596945	0.904028	0.089170
	H83	H	0.364437	0.893050	0.895020
	H84	H	0.600870	0.895088	0.093390
	H85	H	0.368659	0.082197	0.079256
	H86	H	0.603389	0.080967	0.900140
	H87	H	0.367694	0.887004	0.912703
	H88	H	0.886553	0.086027	0.614462
	H89	H	0.071391	0.073550	0.384935
	H90	H	0.078426	0.896122	0.612055
	H91	H	0.895466	0.898091	0.386128
	H92	H	0.074573	0.603925	0.899558
	H93	H	0.074674	0.370545	0.088869
	H94	H	0.896589	0.600369	0.086797
	H95	H	0.893002	0.368594	0.902187
	H96	H	0.392027	0.102959	0.590160
	H97	H	0.578857	0.868028	0.592120
	H98	H	0.557571	0.095688	0.408664
	H99	H	0.392564	0.874512	0.416637
	H100	H	0.578303	0.385234	0.113806
	H101	H	0.569918	0.564735	0.890577
	H102	H	0.398647	0.575237	0.110319
	H103	H	0.390810	0.395889	0.885704
	H104	H	0.097392	0.572309	0.412546
	H105	H	0.869167	0.579850	0.587528
	H106	H	0.100672	0.395020	0.595448
	H107	H	0.870908	0.404733	0.406190
	H108	H	0.895814	0.599779	0.087720
	H109	H	0.078135	0.368938	0.092202
	H110	H	0.066423	0.597076	0.911899
	H111	H	0.897336	0.370469	0.905348
	H112	H	0.075041	0.897794	0.610685
	H113	H	0.070269	0.081940	0.382843
	H114	H	0.886935	0.074655	0.610622
	H115	H	0.892585	0.892641	0.383195
	H116	H	0.598039	0.076058	0.911025
	H117	H	0.372197	0.065862	0.087200
	H118	H	0.598002	0.894749	0.083208
	H119	H	0.372659	0.905701	0.907380
	C120	C	0.362367	-0.005213	0.618600
	C121	C	0.604579	0.976597	0.619255
	C122	C	0.603541	-0.005811	0.376236
	C123	C	0.362125	0.978086	0.375302
	C124	C	0.608769	0.361510	0.006688
	C125	C	0.607662	0.606816	0.989981
	C126	C	0.363719	0.606175	0.006449
	C127	C	0.363091	0.362226	0.991078
	C128	C	-0.007160	0.607323	0.377511
	C129	C	0.976038	0.607494	0.620391
	C130	C	-0.007470	0.364969	0.620753
	C131	C	0.976501	0.366607	0.377665
	C132	C	0.865862	0.493134	0.118416
	C133	C	0.107517	0.476199	0.122293
	C134	C	0.105079	0.493596	0.878916
	C135	C	0.862706	0.476803	0.875165
	C136	C	0.106325	0.864420	0.505879
	C137	C	0.104266	0.107708	0.489455
	C138	C	0.859294	0.110771	0.505881
	C139	C	0.862770	0.865629	0.490309
	C140	C	0.492424	0.106110	0.875280
	C141	C	0.475597	0.105782	0.118674
	C142	C	0.492485	0.865063	0.118702
	C143	C	0.475107	0.863703	0.875126
	C144	C	0.361706	0.872772	0.675774
	C145	C	0.603301	0.098952	0.675689
	C146	C	0.606475	0.872910	0.318060
	C147	C	0.358679	0.098565	0.315996
	C148	C	0.662551	0.364822	0.885012
	C149	C	0.665998	0.606086	0.110810
	C150	C	0.303297	0.606375	0.886780
	C151	C	0.306957	0.362278	0.111917
	C152	C	0.870736	0.665817	0.376708
	C153	C	0.098595	0.663636	0.619050
	C154	C	0.869568	0.310681	0.616549
	C155	C	0.098516	0.308286	0.380485
	C156	C	0.870632	0.366509	0.676134
	C157	C	0.098099	0.607656	0.678063
	C158	C	0.872242	0.610534	0.316709
	C159	C	0.098076	0.363822	0.321444
	C160	C	0.361914	0.664121	0.885998
	C161	C	0.609401	0.666372	0.109745
	C162	C	0.604230	0.306759	0.885252
	C163	C	0.366108	0.305070	0.111805
	C164	C	0.662538	0.872522	0.377150
	C165	C	0.658738	0.100047	0.616323
	C166	C	0.305908	0.872262	0.616810
	C167	C	0.304069	0.100072	0.375788
	C168	C	0.864501	0.372263	0.177723
	C169	C	0.110916	0.596858	0.181190
	C170	C	0.105604	0.371787	0.821665
	C171	C	0.860984	0.599048	0.818617
	C172	C	0.163463	0.863874	0.385576
	C173	C	0.163003	0.107056	0.609860
	C174	C	0.801074	0.109912	0.385082
	C175	C	0.806091	0.866676	0.611051
	C176	C	0.370236	0.163053	0.877424
	C177	C	0.599048	0.160111	0.117129
	C178	C	0.371183	0.806328	0.117490
	C179	C	0.596998	0.805870	0.876274
	C180	C	0.371385	0.862374	0.176351
	C181	C	0.596663	0.107295	0.178326
	C182	C	0.369982	0.106837	0.818553
	C183	C	0.596389	0.862677	0.818418
	C184	C	0.859816	0.168025	0.384955
	C185	C	0.103084	0.163227	0.610791
	C186	C	0.106827	0.804614	0.386560
	C187	C	0.863943	0.808299	0.611014
	C188	C	0.160936	0.370307	0.881843
	C189	C	0.166447	0.597128	0.122563
	C190	C	0.809774	0.370501	0.117385
	C191	C	0.803755	0.598760	0.876136
	C192	C	0.386351	0.079722	0.595575
	C193	C	0.581858	0.891121	0.596708
	C194	C	0.578231	0.078685	0.399607
	C195	C	0.387302	0.893392	0.399390
	C196	C	0.587527	0.383461	0.091685
	C197	C	0.582316	0.581993	0.906907
	C198	C	0.389378	0.582248	0.089631
	C199	C	0.384773	0.385681	0.906697
	C200	C	0.076966	0.581715	0.402930
	C201	C	0.890930	0.584007	0.596875
	C202	C	0.078538	0.387345	0.599045
	C203	C	0.891411	0.391998	0.400037
	C204	C	0.889750	0.577741	0.094633
	C205	C	0.082637	0.391440	0.098523
	C206	C	0.081400	0.578818	0.901862
	C207	C	0.887218	0.391875	0.898310
	C208	C	0.082958	0.888665	0.589676
	C209	C	0.080276	0.084603	0.405308
	C210	C	0.882930	0.087534	0.589745
	C211	C	0.885741	0.889166	0.406467
	C212	C	0.578167	0.082128	0.897384
	C213	C	0.390704	0.082681	0.094644
	C214	C	0.576542	0.890517	0.095429
	C215	C	0.390138	0.888143	0.898363
	Zn216	Zn	0.483137	-0.015189	0.747012
	Zn217	Zn	0.483014	-0.014087	0.247336
	Zn218	Zn	0.737110	0.484734	-0.001754
	Zn219	Zn	0.233859	0.484277	0.000148
	Zn220	Zn	-0.015955	0.735820	0.498898
	Zn221	Zn	-0.016236	0.238166	0.497369
	Zn222	Zn	-0.015199	0.486691	0.748885
	Zn223	Zn	-0.014449	0.486411	0.248535
	Zn224	Zn	0.485012	0.736879	-0.002594
	Zn225	Zn	0.485341	0.233265	-0.001846
	Zn226	Zn	0.731963	-0.013960	0.497721
	Zn227	Zn	0.234900	-0.013212	0.496765
	N228	N	0.396290	0.949909	0.676821
	N229	N	0.570533	0.021091	0.677686
	N230	N	0.570260	0.949677	0.317500
	N231	N	0.393988	0.021605	0.315651
	N232	N	0.665371	0.398120	0.961698
	N233	N	0.664997	0.569995	0.035485
	N234	N	0.304212	0.571192	0.962574
	N235	N	0.305115	0.397156	0.035915
	N236	N	0.946806	0.664103	0.413651
	N237	N	0.021812	0.663700	0.583845
	N238	N	0.946614	0.309715	0.582997
	N239	N	0.021634	0.309964	0.414547
	N240	N	0.948453	0.399278	0.678948
	N241	N	0.020752	0.573725	0.679100
	N242	N	0.949165	0.575202	0.316866
	N243	N	0.021191	0.399448	0.319659
	N244	N	0.399000	0.664112	0.961241
	N245	N	0.574029	0.667179	0.033598
	N246	N	0.571750	0.304412	0.961903
	N247	N	0.400287	0.305035	0.035725
	N248	N	0.660806	0.948915	0.412533
	N249	N	0.659911	0.022958	0.582266
	N250	N	0.306060	0.949226	0.582207
	N251	N	0.306048	0.023869	0.412004
	N252	N	0.898982	0.449415	0.178255
	N253	N	0.074872	0.520571	0.180989
	N254	N	0.071742	0.449548	0.819646
	N255	N	0.896896	0.522364	0.817882
	N256	N	0.163315	0.900228	0.460730
	N257	N	0.163866	0.073304	0.533447
	N258	N	0.800556	0.075290	0.461132
	N259	N	0.805344	0.901773	0.535051
	N260	N	0.447499	0.162720	0.912011
	N261	N	0.522718	0.159595	0.080808
	N262	N	0.447471	0.807820	0.082438
	N263	N	0.520348	0.806364	0.910699
	N264	N	0.447881	0.898188	0.177284
	N265	N	0.518983	0.074334	0.179429
	N266	N	0.447253	0.072242	0.817102
	N267	N	0.519297	0.897711	0.817417
	N268	N	0.895038	0.168984	0.461026
	N269	N	0.067120	0.163651	0.535055
	N270	N	0.071854	0.804860	0.462447
	N271	N	0.898294	0.807428	0.535109
	N272	N	0.160888	0.447177	0.916463
	N273	N	0.164489	0.520948	0.086569
	N274	N	0.810761	0.446574	0.080985
	N275	N	0.804663	0.521709	0.910620
	O276	O	0.435953	0.327081	0.549230
	H277	H	0.429116	0.330950	0.541972
	H278	H	0.420332	0.319516	0.555571
	O279	O	0.481268	0.565041	0.423074
	H280	H	0.477713	0.572960	0.431300
	H281	H	0.473167	0.572367	0.416653
	O282	O	0.857026	-0.146233	1.005138
	H283	H	0.856506	-0.144636	1.020641
	H284	H	0.851964	-0.147982	1.019439
	O285	O	0.626204	0.463181	0.435767
	H286	H	0.622068	0.475427	0.440474
	H287	H	0.629610	0.461553	0.451211
	O288	O	1.113238	0.949198	1.113370
	H289	H	1.108205	0.962552	1.099499
	H290	H	1.117932	0.950599	1.122542
	O291	O	0.124598	0.903618	-0.168538
	H292	H	0.131611	0.925385	-0.174198
	H293	H	0.112560	0.900581	-0.145152
	O294	O	0.565500	0.450699	0.586625
	H295	H	0.561563	0.458491	0.593179
	H296	H	0.540422	0.452528	0.578452
	O297	O	0.357073	0.578145	0.551907
	H298	H	0.356531	0.576819	0.559600
	H299	H	0.362308	0.569694	0.559363
	O300	O	0.386938	0.410282	0.456248
	H301	H	0.385589	0.414845	0.446800
	H302	H	0.387593	0.425024	0.453682
	O303	O	0.406549	0.576498	0.706441
	H304	H	0.402590	0.568885	0.697889
	H305	H	0.408082	0.584535	0.712537
	O306	O	0.333045	0.585418	0.495714
	H307	H	0.330872	0.591868	0.506997
	H308	H	0.336238	0.591110	0.505086
	O309	O	1.097820	0.877887	-0.083230
	H310	H	1.091893	0.886536	-0.084494
	H311	H	1.092939	0.889739	-0.088371
	O312	O	-0.057204	-0.074855	0.002226
	H313	H	-0.068271	-0.083109	-0.001203
	H314	H	-0.058708	-0.085994	-0.002587
	O315	O	0.494573	0.366607	0.593470
	H316	H	0.499070	0.379942	0.596851
	H317	H	0.485648	0.354946	0.573835
	O318	O	-0.058107	0.970794	0.822762
	H319	H	-0.065676	0.956507	0.814495
	H320	H	-0.052840	0.966668	0.820890
	O321	O	0.845649	0.029208	0.058648
	H322	H	0.842019	0.037369	0.053791
	H323	H	0.839212	0.030059	0.041108
	O324	O	0.101360	1.066048	-0.040241
	H325	H	0.099481	1.058855	-0.032026
	H326	H	0.094460	1.046445	-0.061678
	O327	O	0.497670	0.378230	0.446543
	H328	H	0.493688	0.384917	0.443543
	H329	H	0.497447	0.370838	0.436146
	O330	O	-1.039218	1.078694	1.828475
	H331	H	-1.038207	1.069899	1.815954
	H332	H	-1.056957	1.089710	1.834881
	O333	O	-0.602718	-0.393906	1.426102
	H334	H	-0.605523	-0.403780	1.430794
	H335	H	-0.586149	-0.395584	1.417277
	O336	O	0.429530	0.586309	0.579970
	H337	H	0.425430	0.587785	0.586203
	H338	H	0.434127	0.588636	0.577400
	O339	O	0.911229	-0.182804	0.181178
	H340	H	0.910721	-0.165113	0.185348
	H341	H	0.934210	-0.191039	0.195573
	O342	O	0.093564	0.126619	0.145763
	H343	H	0.093503	0.124018	0.133332
	H344	H	0.089825	0.128418	0.136801
	O345	O	1.401598	0.442249	0.596495
	H346	H	1.393707	0.430563	0.588511
	H347	H	1.400548	0.438550	0.601310
	O348	O	1.568940	1.612198	0.410285
	H349	H	1.557933	1.609627	0.403553
	H350	H	1.568150	1.612798	0.417984
	O351	O	0.510845	0.411734	0.404547
	H352	H	0.532599	0.395574	0.405742
	H353	H	0.503956	0.418317	0.402766
	O354	O	0.844892	0.007854	1.181863
	H355	H	0.847517	0.016515	1.178510
	H356	H	0.845442	0.009318	1.172705
	O357	O	0.805388	-0.104961	0.953567
	H358	H	0.802675	-0.096541	0.948949
	H359	H	0.789868	-0.093137	0.961174
	O360	O	0.615816	0.475103	0.571576
	H361	H	0.617510	0.467054	0.551878
	H362	H	0.622278	0.484914	0.572803
	O363	O	0.071457	0.821313	1.071990
	H364	H	0.093601	0.823993	1.066921
	H365	H	0.064358	0.798123	1.091071
	O366	O	0.991980	1.066008	0.115082
	H367	H	0.998963	1.052977	0.103605
	H368	H	0.992798	1.070772	0.125931
	O369	O	-0.069162	1.144497	-0.112933
	H370	H	-0.072118	1.144977	-0.108377
	H371	H	-0.075912	1.138864	-0.113781
	O372	O	0.833876	-0.078177	-0.074383
	H373	H	0.834988	-0.080680	-0.078757
	H374	H	0.848002	-0.103138	-0.073420
	O375	O	0.505133	0.554144	0.457445
	H376	H	0.512757	0.549813	0.453798
	H377	H	0.500688	0.557509	0.453857
	O378	O	1.488941	1.534511	0.422112
	H379	H	1.487708	1.551114	0.417922
	H380	H	1.487216	1.537002	0.416576
	O381	O	1.156914	0.141582	0.146652
	H382	H	1.155114	0.152642	0.141482
	H383	H	1.138589	0.155681	0.143112
	O384	O	0.831057	1.100908	0.011613
	H385	H	0.827487	1.119714	-0.000886
	H386	H	0.819315	1.088970	0.002714
	O387	O	0.055770	-0.009306	-0.026044
	H388	H	0.060126	-0.003486	-0.031974
	H389	H	0.060722	-0.009575	-0.023420
	O390	O	0.093412	1.028055	0.104502
	H391	H	0.097399	1.030874	0.107366
	H392	H	0.095695	1.036244	0.106915
	O393	O	1.014752	0.840031	0.963458
	H394	H	1.009864	0.832025	0.970310
	H395	H	1.009109	0.837341	0.960695
	O396	O	0.490704	0.397305	0.340927
	H397	H	0.502613	0.391536	0.329334
	H398	H	0.492447	0.387092	0.332526
	O399	O	-0.207258	1.129983	0.831864
	H400	H	-0.198946	1.139912	0.832525
	H401	H	-0.224174	1.141200	0.825397
	O402	O	0.534101	0.535756	0.633913
	H403	H	0.532036	0.531345	0.649139
	H404	H	0.531213	0.534702	0.628803
	O405	O	1.053644	1.004399	0.085070
	H406	H	1.051535	1.027452	0.087801
	H407	H	1.068770	1.005119	0.077622
	O408	O	1.606523	0.379291	0.318749
	H409	H	1.603075	0.373200	0.309727
	H410	H	1.612657	0.386962	0.326832
	O411	O	1.000218	-0.171766	0.788162
	H412	H	1.016266	-0.172285	0.782285
	H413	H	1.005721	-0.189895	0.784217
	O414	O	0.375079	0.380345	0.474105
	H415	H	0.369890	0.383221	0.461860
	H416	H	0.358473	0.386183	0.470042
	O417	O	0.572553	0.578065	0.642716
	H418	H	0.582233	0.591584	0.656483
	H419	H	0.587789	0.576457	0.626692
