data_Molecule from HDF5

_cell_length_a		16.373553
_cell_length_b		16.163391
_cell_length_c		16.255190
_cell_angle_alpha	89.790424
_cell_angle_beta	89.805168
_cell_angle_gamma	90.167461
_symmetry_space_group_name_H-M	'P 1'
_symmetry_Int_Tables_number		1

loop_
	_symmetry_equiv_pos_as_xyz
	x,y,z

loop_
	_atom_site_label
	_atom_site_type_symbol
	_atom_site_fract_x
	_atom_site_fract_y
	_atom_site_fract_z
	H0	H	0.410024	0.821540	0.721017
	H1	H	0.607233	0.151639	0.720048
	H2	H	0.606893	0.821658	0.294035
	H3	H	0.411762	0.151677	0.293833
	H4	H	0.723413	0.385637	0.842646
	H5	H	0.724071	0.585482	0.169299
	H6	H	0.293292	0.586198	0.842889
	H7	H	0.287614	0.381861	0.168134
	H8	H	0.844800	0.703821	0.406843
	H9	H	0.170747	0.702986	0.603662
	H10	H	0.846078	0.271596	0.604325
	H11	H	0.171383	0.274329	0.407723
	H12	H	0.845783	0.386258	0.721820
	H13	H	0.170157	0.588636	0.721496
	H14	H	0.845185	0.587622	0.290263
	H15	H	0.170328	0.388669	0.289598
	H16	H	0.409955	0.701377	0.843604
	H17	H	0.605180	0.697883	0.171371
	H18	H	0.603161	0.273629	0.842230
	H19	H	0.408951	0.272113	0.171140
	H20	H	0.724518	0.823514	0.407436
	H21	H	0.723371	0.151621	0.605811
	H22	H	0.289907	0.824701	0.610123
	H23	H	0.295701	0.152107	0.407228
	H24	H	0.908044	0.323189	0.222473
	H25	H	0.106960	0.651957	0.217682
	H26	H	0.105064	0.321363	0.791737
	H27	H	0.908952	0.650728	0.790772
	H28	H	0.226189	0.888301	0.344607
	H29	H	0.225502	0.091092	0.669326
	H30	H	0.792215	0.090743	0.344419
	H31	H	0.791284	0.885165	0.669566
	H32	H	0.344303	0.201349	0.908258
	H33	H	0.670046	0.200676	0.103828
	H34	H	0.345590	0.768912	0.108535
	H35	H	0.671499	0.771850	0.909043
	H36	H	0.345868	0.884686	0.225146
	H37	H	0.670656	0.085229	0.220296
	H38	H	0.345681	0.086701	0.790132
	H39	H	0.670630	0.886143	0.790276
	H40	H	0.913738	0.199545	0.341546
	H41	H	0.105964	0.201451	0.670618
	H42	H	0.106740	0.775942	0.341943
	H43	H	0.909240	0.772323	0.669552
	H44	H	0.222700	0.321988	0.905028
	H45	H	0.226000	0.649368	0.106804
	H46	H	0.793209	0.321879	0.106856
	H47	H	0.791994	0.649621	0.903946
	H48	H	0.426320	0.101759	0.600942
	H49	H	0.601621	0.868656	0.601110
	H50	H	0.597339	0.103836	0.412308
	H51	H	0.411498	0.867774	0.414011
	H52	H	0.602179	0.399246	0.121821
	H53	H	0.603578	0.575182	0.889805
	H54	H	0.415213	0.568923	0.119680
	H55	H	0.413868	0.396274	0.890222
	H56	H	0.124898	0.575122	0.401232
	H57	H	0.889658	0.584692	0.602320
	H58	H	0.127976	0.389868	0.604048
	H59	H	0.891422	0.385573	0.418274
	H60	H	0.123424	0.392723	0.592605
	H61	H	0.894165	0.580705	0.592000
	H62	H	0.126896	0.593959	0.411038
	H63	H	0.895930	0.402576	0.417732
	H64	H	0.419662	0.580842	0.123576
	H65	H	0.597806	0.578202	0.891432
	H66	H	0.596618	0.389823	0.123378
	H67	H	0.417100	0.392674	0.890211
	H68	H	0.603427	0.102819	0.418292
	H69	H	0.600132	0.870611	0.598708
	H70	H	0.411931	0.103014	0.591014
	H71	H	0.420642	0.870744	0.413970
	H72	H	0.908246	0.605493	0.095235
	H73	H	0.091409	0.370750	0.100424
	H74	H	0.101682	0.601576	0.919396
	H75	H	0.912885	0.366585	0.907405
	H76	H	0.103664	0.899397	0.623150
	H77	H	0.108182	0.076864	0.388952
	H78	H	0.906512	0.079612	0.625343
	H79	H	0.911742	0.899394	0.389849
	H80	H	0.624943	0.081150	0.906830
	H81	H	0.390983	0.081594	0.098474
	H82	H	0.623914	0.888430	0.096923
	H83	H	0.392610	0.897422	0.909449
	H84	H	0.622031	0.897361	0.099661
	H85	H	0.393010	0.072855	0.099512
	H86	H	0.623021	0.084457	0.919152
	H87	H	0.391962	0.887218	0.915584
	H88	H	0.918438	0.071833	0.620649
	H89	H	0.098721	0.078995	0.392059
	H90	H	0.095854	0.898742	0.621035
	H91	H	0.918694	0.899799	0.391648
	H92	H	0.105404	0.604744	0.911359
	H93	H	0.098787	0.371697	0.090187
	H94	H	0.917915	0.604869	0.102840
	H95	H	0.921428	0.370887	0.914350
	H96	H	0.411701	0.108224	0.607557
	H97	H	0.603172	0.869184	0.598142
	H98	H	0.605819	0.106740	0.409753
	H99	H	0.415300	0.871686	0.421863
	H100	H	0.607453	0.390499	0.125462
	H101	H	0.602672	0.581465	0.889513
	H102	H	0.407253	0.577636	0.126157
	H103	H	0.412036	0.392155	0.888629
	H104	H	0.118801	0.577221	0.421976
	H105	H	0.893500	0.573666	0.601148
	H106	H	0.122741	0.401719	0.602253
	H107	H	0.889377	0.394024	0.403247
	H108	H	0.918131	0.600944	0.091838
	H109	H	0.103022	0.367365	0.101186
	H110	H	0.095906	0.602634	0.911013
	H111	H	0.910841	0.368946	0.918530
	H112	H	0.099405	0.892693	0.623602
	H113	H	0.104856	0.086460	0.388420
	H114	H	0.919876	0.086720	0.623980
	H115	H	0.916642	0.893598	0.388960
	H116	H	0.620023	0.072572	0.915293
	H117	H	0.390290	0.077825	0.105978
	H118	H	0.625858	0.891262	0.105739
	H119	H	0.395612	0.897201	0.920577
	C120	C	0.387043	-0.004215	0.629057
	C121	C	0.630023	0.978449	0.627631
	C122	C	0.630835	-0.004498	0.385103
	C123	C	0.388074	0.978909	0.387136
	C124	C	0.629814	0.364570	0.014910
	C125	C	0.629997	0.606978	0.998298
	C126	C	0.385852	0.606304	0.015219
	C127	C	0.384932	0.363853	0.997776
	C128	C	0.016051	0.611068	0.382975
	C129	C	0.999733	0.609412	0.627682
	C130	C	0.017070	0.365932	0.627658
	C131	C	1.000102	0.366177	0.384318
	C132	C	0.885838	0.495223	0.127127
	C133	C	0.128340	0.478014	0.126179
	C134	C	0.129394	0.494613	0.884297
	C135	C	0.886476	0.477671	0.884272
	C136	C	0.129868	0.867216	0.515220
	C137	C	0.131687	0.109978	0.498042
	C138	C	0.886857	0.109136	0.515213
	C139	C	0.886456	0.866945	0.497839
	C140	C	0.515576	0.108410	0.884733
	C141	C	0.498956	0.107225	0.128998
	C142	C	0.516376	0.863143	0.130187
	C143	C	0.500404	0.864575	0.885732
	C144	C	0.388856	0.871327	0.684293
	C145	C	0.627633	0.102452	0.682633
	C146	C	0.628073	0.871379	0.330817
	C147	C	0.390919	0.102544	0.331456
	C148	C	0.685206	0.365878	0.891744
	C149	C	0.685677	0.605334	0.120814
	C150	C	0.331371	0.605739	0.891886
	C151	C	0.327316	0.363267	0.120065
	C152	C	0.893601	0.666404	0.385843
	C153	C	0.121985	0.665434	0.624757
	C154	C	0.894401	0.310121	0.624870
	C155	C	0.122496	0.311724	0.386981
	C156	C	0.894396	0.367032	0.683276
	C157	C	0.121742	0.608213	0.683312
	C158	C	0.893809	0.608693	0.327839
	C159	C	0.122087	0.368711	0.328406
	C160	C	0.388990	0.663080	0.892312
	C161	C	0.626369	0.660958	0.122070
	C162	C	0.625287	0.310373	0.891313
	C163	C	0.387673	0.308957	0.121540
	C164	C	0.686213	0.872205	0.387588
	C165	C	0.685289	0.102537	0.625799
	C166	C	0.329347	0.872902	0.629102
	C167	C	0.333649	0.102902	0.388321
	C168	C	0.888121	0.371886	0.183872
	C169	C	0.127333	0.602095	0.180785
	C170	C	0.126139	0.370748	0.829196
	C171	C	0.888366	0.601321	0.828213
	C172	C	0.187114	0.868584	0.392890
	C173	C	0.186608	0.109345	0.620897
	C174	C	0.831294	0.109003	0.392762
	C175	C	0.830018	0.866520	0.620865
	C176	C	0.393289	0.163786	0.887460
	C177	C	0.621512	0.162683	0.125066
	C178	C	0.394300	0.807057	0.128641
	C179	C	0.622513	0.809054	0.888188
	C180	C	0.394563	0.864487	0.186941
	C181	C	0.621744	0.105421	0.182987
	C182	C	0.393889	0.106498	0.828829
	C183	C	0.622447	0.866194	0.829554
	C184	C	0.891365	0.163488	0.391395
	C185	C	0.127267	0.164465	0.621468
	C186	C	0.127513	0.812917	0.391471
	C187	C	0.888759	0.810512	0.620872
	C188	C	0.184479	0.370983	0.885673
	C189	C	0.186183	0.600918	0.125123
	C190	C	0.831055	0.371249	0.126258
	C191	C	0.830486	0.600892	0.884890
	C192	C	0.409844	0.081951	0.606413
	C193	C	0.607957	0.891912	0.605635
	C194	C	0.608625	0.082143	0.406847
	C195	C	0.409613	0.892415	0.410013
	C196	C	0.608428	0.386607	0.101229
	C197	C	0.607786	0.584800	0.912350
	C198	C	0.407569	0.582797	0.101005
	C199	C	0.407609	0.386986	0.911898
	C200	C	0.101296	0.588728	0.404890
	C201	C	0.914490	0.586446	0.605152
	C202	C	0.102486	0.388267	0.605962
	C203	C	0.914381	0.387899	0.406525
	C204	C	0.908171	0.581521	0.103514
	C205	C	0.104751	0.392212	0.103709
	C206	C	0.107361	0.580745	0.907084
	C207	C	0.908569	0.391166	0.906912
	C208	C	0.106608	0.890099	0.600553
	C209	C	0.110327	0.087338	0.412058
	C210	C	0.908758	0.086164	0.601106
	C211	C	0.909056	0.890611	0.412309
	C212	C	0.600687	0.085889	0.907239
	C213	C	0.413686	0.084134	0.107799
	C214	C	0.601887	0.885772	0.107394
	C215	C	0.415312	0.887251	0.908518
	Zn216	Zn	0.508706	-0.013956	0.755828
	Zn217	Zn	0.508336	-0.013758	0.257877
	Zn218	Zn	0.758595	0.485820	0.005554
	Zn219	Zn	0.257198	0.485319	0.005691
	Zn220	Zn	0.007683	0.738844	0.506146
	Zn221	Zn	0.008867	0.236810	0.506193
	Zn222	Zn	0.008133	0.487062	0.756482
	Zn223	Zn	0.007837	0.487985	0.254839
	Zn224	Zn	0.507797	0.734661	0.007503
	Zn225	Zn	0.507079	0.236707	0.007776
	Zn226	Zn	0.758425	-0.012053	0.506797
	Zn227	Zn	0.258988	-0.011698	0.507569
	N228	N	0.424019	0.948513	0.684285
	N229	N	0.594284	0.024175	0.684217
	N230	N	0.594249	0.949189	0.329201
	N231	N	0.424152	0.024602	0.330607
	N232	N	0.687929	0.398772	0.969654
	N233	N	0.687984	0.572492	0.042886
	N234	N	0.329302	0.571320	0.969385
	N235	N	0.325603	0.396791	0.042217
	N236	N	0.970676	0.668145	0.419351
	N237	N	0.045043	0.666239	0.591014
	N238	N	0.971612	0.309145	0.591103
	N239	N	0.045533	0.310026	0.421057
	N240	N	0.971569	0.400988	0.685166
	N241	N	0.044564	0.574417	0.685350
	N242	N	0.970821	0.574855	0.326056
	N243	N	0.044781	0.401774	0.326749
	N244	N	0.422204	0.663506	0.969969
	N245	N	0.592360	0.661993	0.044834
	N246	N	0.591526	0.309471	0.968850
	N247	N	0.422648	0.309176	0.044501
	N248	N	0.688080	0.950591	0.420251
	N249	N	0.686835	0.024538	0.592302
	N250	N	0.327721	0.951290	0.595794
	N251	N	0.331845	0.024821	0.422531
	N252	N	0.921368	0.450157	0.184672
	N253	N	0.091949	0.524946	0.181537
	N254	N	0.092513	0.448690	0.828363
	N255	N	0.922551	0.523711	0.827882
	N256	N	0.188546	0.901632	0.470712
	N257	N	0.189418	0.076291	0.543250
	N258	N	0.828466	0.075849	0.470818
	N259	N	0.828388	0.900664	0.543142
	N260	N	0.470106	0.165018	0.921601
	N261	N	0.544204	0.164105	0.092402
	N262	N	0.471171	0.806044	0.094077
	N263	N	0.545690	0.808075	0.922619
	N264	N	0.471651	0.898403	0.188110
	N265	N	0.544501	0.071807	0.185699
	N266	N	0.471082	0.073054	0.826808
	N267	N	0.545510	0.900065	0.827951
	N268	N	0.925122	0.163976	0.468695
	N269	N	0.093863	0.165124	0.543900
	N270	N	0.092649	0.811646	0.468581
	N271	N	0.923260	0.810592	0.543554
	N272	N	0.186562	0.449040	0.919246
	N273	N	0.187000	0.522805	0.091851
	N274	N	0.829602	0.449072	0.091646
	N275	N	0.829165	0.522927	0.918994
	O276	O	-0.078849	0.046219	0.017827
	H277	H	-0.057842	0.050801	0.008914
	H278	H	-0.079912	0.045324	0.032571
	O279	O	0.521246	0.503539	0.466833
	H280	H	0.524262	0.508515	0.460445
	H281	H	0.517049	0.485253	0.461388
	O282	O	0.498261	0.444310	0.517548
	H283	H	0.488605	0.445496	0.508854
	H284	H	0.505657	0.440682	0.520149
	O285	O	1.025686	-0.028029	1.001176
	H286	H	1.023237	-0.022791	0.994654
	H287	H	1.035702	-0.019585	0.999167
	O288	O	0.998463	-0.035080	-0.136778
	H289	H	0.989998	-0.038500	-0.127898
	H290	H	1.005225	-0.016138	-0.130212
	O291	O	-0.004202	0.990059	0.032321
	H292	H	-0.017441	0.994812	0.036185
	H293	H	-0.008244	0.987394	0.048073
	O294	O	1.450420	0.522153	1.470032
	H295	H	1.461488	0.519524	1.474170
	H296	H	1.443978	0.525914	1.484036
	O297	O	0.058695	-0.102767	0.089676
	H298	H	0.045051	-0.098358	0.096328
	H299	H	0.057679	-0.101603	0.099707
	O300	O	0.010259	0.938557	-0.102491
	H301	H	0.011540	0.931801	-0.094812
	H302	H	0.021112	0.932919	-0.103854
	O303	O	0.571586	0.510687	0.459814
	H304	H	0.578606	0.519119	0.456138
	H305	H	0.566404	0.513766	0.451563
	O306	O	1.142565	-0.147041	-0.123601
	H307	H	1.152204	-0.153831	-0.126468
	H308	H	1.155034	-0.163552	-0.134041
	O309	O	0.020776	0.037261	0.960286
	H310	H	0.023163	0.034516	0.950201
	H311	H	0.035860	0.034338	0.960262
	O312	O	0.992915	1.075106	1.013712
	H313	H	0.989960	1.080833	1.017917
	H314	H	0.990949	1.062431	1.019480
	O315	O	0.454751	0.472341	0.493712
	H316	H	0.460530	0.469001	0.487453
	H317	H	0.452780	0.466151	0.483394
	O318	O	0.478349	0.448983	0.519166
	H319	H	0.480530	0.450373	0.517740
	H320	H	0.482281	0.458709	0.529841
	O321	O	-0.040307	0.944412	1.037475
	H322	H	-0.042676	0.940228	1.028802
	H323	H	-0.052647	0.941729	1.044163
	O324	O	0.519347	0.475383	0.500319
	H325	H	0.515079	0.476926	0.502014
	H326	H	0.517214	0.469607	0.502940
	O327	O	1.115320	1.058259	0.025146
	H328	H	1.112795	1.049200	0.031011
	H329	H	1.100378	1.047940	0.035910
	O330	O	0.010890	0.910476	0.020449
	H331	H	0.003310	0.925970	0.012513
	H332	H	0.006802	0.901829	0.001269
	O333	O	0.029295	1.007264	0.970528
	H334	H	0.034962	1.002409	0.956994
	H335	H	0.029174	1.008273	0.978136
	O336	O	0.482796	0.485547	0.480662
	H337	H	0.478334	0.487923	0.490537
	H338	H	0.488753	0.489818	0.476654
	O339	O	1.057749	1.027125	0.048114
	H340	H	1.061939	1.025741	0.049414
	H341	H	1.067790	1.020896	0.041511
	O342	O	0.889990	0.906636	0.136482
	H343	H	0.887881	0.893927	0.141929
	H344	H	0.882630	0.902703	0.130353
	O345	O	0.522000	0.469224	0.468067
	H346	H	0.531557	0.458981	0.472440
	H347	H	0.511205	0.460768	0.467271
	O348	O	0.026487	-0.050816	-0.042913
	H349	H	0.017237	-0.052572	-0.043659
	H350	H	0.021471	-0.053627	-0.052672
	O351	O	-0.061393	1.010854	1.009634
	H352	H	-0.063024	1.024102	1.011552
	H353	H	-0.060955	1.001090	1.008680
	O354	O	0.517193	0.440675	0.557619
	H355	H	0.522681	0.437602	0.558945
	H356	H	0.505502	0.433584	0.567491
	O357	O	-0.085291	0.958367	1.076144
	H358	H	-0.088828	0.952941	1.071143
	H359	H	-0.079757	0.962660	1.068077
