data_Molecule from HDF5

_cell_length_a		16.337740
_cell_length_b		16.326152
_cell_length_c		16.259828
_cell_angle_alpha	90.039739
_cell_angle_beta	90.133472
_cell_angle_gamma	89.850839
_symmetry_space_group_name_H-M	'P 1'
_symmetry_Int_Tables_number		1

loop_
	_symmetry_equiv_pos_as_xyz
	x,y,z

loop_
	_atom_site_label
	_atom_site_type_symbol
	_atom_site_fract_x
	_atom_site_fract_y
	_atom_site_fract_z
	H0	H	0.409907	0.841323	0.719386
	H1	H	0.603751	0.168536	0.719100
	H2	H	0.604590	0.841535	0.292330
	H3	H	0.408285	0.169100	0.291020
	H4	H	0.721106	0.407192	0.841317
	H5	H	0.721443	0.603802	0.169317
	H6	H	0.291801	0.604273	0.842006
	H7	H	0.294789	0.407686	0.170241
	H8	H	0.842931	0.719930	0.406655
	H9	H	0.170132	0.719917	0.604562
	H10	H	0.843891	0.291417	0.604932
	H11	H	0.170358	0.289732	0.406467
	H12	H	0.844475	0.408779	0.720062
	H13	H	0.170250	0.602401	0.719745
	H14	H	0.842691	0.602992	0.291136
	H15	H	0.171194	0.407632	0.292595
	H16	H	0.409407	0.718332	0.841163
	H17	H	0.606838	0.720876	0.168491
	H18	H	0.605345	0.290949	0.841689
	H19	H	0.410239	0.291283	0.169048
	H20	H	0.721005	0.841645	0.407849
	H21	H	0.722459	0.168325	0.605332
	H22	H	0.292299	0.842163	0.603756
	H23	H	0.290302	0.168186	0.404956
	H24	H	0.911272	0.341622	0.218169
	H25	H	0.104951	0.669548	0.219868
	H26	H	0.106148	0.342155	0.790490
	H27	H	0.909421	0.669526	0.792112
	H28	H	0.221364	0.905540	0.341351
	H29	H	0.221036	0.103789	0.669142
	H30	H	0.793067	0.102277	0.340889
	H31	H	0.793716	0.907170	0.669529
	H32	H	0.344795	0.220653	0.904996
	H33	H	0.670807	0.219804	0.105428
	H34	H	0.344589	0.791309	0.103272
	H35	H	0.670539	0.789204	0.905877
	H36	H	0.343865	0.907918	0.219253
	H37	H	0.670830	0.101892	0.220104
	H38	H	0.344083	0.103051	0.790793
	H39	H	0.670845	0.907878	0.792566
	H40	H	0.907722	0.220153	0.341544
	H41	H	0.106031	0.219848	0.668656
	H42	H	0.103981	0.790745	0.341046
	H43	H	0.909376	0.791331	0.669125
	H44	H	0.222177	0.342089	0.906706
	H45	H	0.222538	0.669252	0.104004
	H46	H	0.792366	0.342758	0.104538
	H47	H	0.790295	0.668065	0.905687
	H48	H	0.411502	0.124057	0.606077
	H49	H	0.599865	0.888453	0.599977
	H50	H	0.610577	0.123887	0.413842
	H51	H	0.408414	0.886789	0.406351
	H52	H	0.602783	0.417775	0.120552
	H53	H	0.607331	0.605535	0.884041
	H54	H	0.417150	0.601640	0.122135
	H55	H	0.421808	0.413211	0.891386
	H56	H	0.121633	0.594361	0.412965
	H57	H	0.893156	0.595221	0.593668
	H58	H	0.123356	0.414859	0.601407
	H59	H	0.890428	0.408900	0.413628
	H60	H	0.123762	0.407649	0.597499
	H61	H	0.889772	0.597647	0.605799
	H62	H	0.124278	0.600372	0.409580
	H63	H	0.892793	0.415439	0.413200
	H64	H	0.411109	0.598181	0.123219
	H65	H	0.603703	0.586931	0.891281
	H66	H	0.594648	0.409812	0.120776
	H67	H	0.411654	0.405649	0.885760
	H68	H	0.595927	0.122367	0.404603
	H69	H	0.601178	0.890224	0.596078
	H70	H	0.421422	0.117961	0.597324
	H71	H	0.421401	0.891550	0.410134
	H72	H	0.904179	0.623031	0.094350
	H73	H	0.094553	0.390435	0.104845
	H74	H	0.104466	0.621317	0.915882
	H75	H	0.913282	0.387879	0.907844
	H76	H	0.105984	0.911751	0.623453
	H77	H	0.096772	0.100086	0.388907
	H78	H	0.917115	0.100349	0.620651
	H79	H	0.919717	0.912275	0.390803
	H80	H	0.626295	0.103246	0.907582
	H81	H	0.392379	0.096224	0.098074
	H82	H	0.627423	0.907027	0.107707
	H83	H	0.390508	0.912958	0.908623
	H84	H	0.621861	0.906756	0.090358
	H85	H	0.390802	0.100594	0.101391
	H86	H	0.622089	0.100143	0.920165
	H87	H	0.389622	0.907823	0.912867
	H88	H	0.911689	0.100539	0.623066
	H89	H	0.102186	0.099506	0.386829
	H90	H	0.098253	0.916653	0.619018
	H91	H	0.911244	0.907704	0.386504
	H92	H	0.099804	0.622744	0.908425
	H93	H	0.101730	0.392716	0.090806
	H94	H	0.916992	0.623893	0.107813
	H95	H	0.918465	0.391583	0.914095
	H96	H	0.407676	0.120774	0.592236
	H97	H	0.604013	0.887604	0.598825
	H98	H	0.595996	0.117751	0.421167
	H99	H	0.410633	0.891165	0.420181
	H100	H	0.605788	0.407542	0.124337
	H101	H	0.589071	0.601103	0.891130
	H102	H	0.416400	0.594857	0.120154
	H103	H	0.409055	0.418542	0.889721
	H104	H	0.122122	0.600882	0.416337
	H105	H	0.888648	0.606839	0.597336
	H106	H	0.120908	0.414260	0.593590
	H107	H	0.890532	0.411892	0.407600
	H108	H	0.921047	0.617020	0.091952
	H109	H	0.109474	0.386483	0.102366
	H110	H	0.095879	0.619402	0.915546
	H111	H	0.909813	0.389191	0.915336
	H112	H	0.096999	0.907479	0.621945
	H113	H	0.099452	0.094972	0.389447
	H114	H	0.913930	0.095563	0.621084
	H115	H	0.910980	0.917063	0.389387
	H116	H	0.621736	0.090757	0.910155
	H117	H	0.391392	0.101330	0.095605
	H118	H	0.621019	0.921810	0.100079
	H119	H	0.392959	0.913951	0.914729
	C120	C	0.385799	0.012903	0.626679
	C121	C	0.629485	0.996782	0.627274
	C122	C	0.628619	0.013365	0.384497
	C123	C	0.384579	0.997511	0.383540
	C124	C	0.629000	0.383509	0.013718
	C125	C	0.628753	0.626377	0.996833
	C126	C	0.386028	0.626727	0.013656
	C127	C	0.386085	0.384010	0.997208
	C128	C	0.014437	0.627006	0.383591
	C129	C	0.998576	0.627581	0.627194
	C130	C	0.015226	0.384075	0.626770
	C131	C	0.999151	0.383492	0.383525
	C132	C	0.885746	0.513470	0.126584
	C133	C	0.129776	0.497752	0.127520
	C134	C	0.128930	0.513505	0.884263
	C135	C	0.885384	0.497639	0.883681
	C136	C	0.128677	0.883316	0.513449
	C137	C	0.128199	0.126769	0.496721
	C138	C	0.885383	0.126792	0.513386
	C139	C	0.885855	0.884021	0.496970
	C140	C	0.515700	0.126690	0.883563
	C141	C	0.499271	0.127297	0.127501
	C142	C	0.515705	0.883912	0.127425
	C143	C	0.499220	0.883562	0.884103
	C144	C	0.388851	0.890341	0.681863
	C145	C	0.625452	0.119773	0.681925
	C146	C	0.625222	0.890262	0.330010
	C147	C	0.387587	0.120147	0.328507
	C148	C	0.683789	0.386669	0.890294
	C149	C	0.683974	0.624437	0.120289
	C150	C	0.330538	0.624230	0.890531
	C151	C	0.331637	0.386666	0.120638
	C152	C	0.891624	0.682043	0.385927
	C153	C	0.121640	0.681812	0.624285
	C154	C	0.892618	0.329305	0.624963
	C155	C	0.121814	0.328080	0.386394
	C156	C	0.892771	0.387667	0.682113
	C157	C	0.121610	0.623865	0.682045
	C158	C	0.891484	0.623653	0.328857
	C159	C	0.122234	0.386677	0.329632
	C160	C	0.388840	0.681079	0.890193
	C161	C	0.626835	0.682288	0.119942
	C162	C	0.626210	0.328941	0.890334
	C163	C	0.389082	0.329001	0.120221
	C164	C	0.683408	0.890468	0.387321
	C165	C	0.683927	0.119704	0.625076
	C166	C	0.330461	0.890751	0.624311
	C167	C	0.329141	0.119817	0.385454
	C168	C	0.889847	0.390571	0.180926
	C169	C	0.126295	0.620792	0.182456
	C170	C	0.126500	0.390743	0.828660
	C171	C	0.888559	0.620623	0.829435
	C172	C	0.183099	0.885650	0.390097
	C173	C	0.183417	0.123992	0.620073
	C174	C	0.830544	0.123483	0.390076
	C175	C	0.831500	0.887023	0.620622
	C176	C	0.393144	0.182023	0.885802
	C177	C	0.622096	0.181900	0.125260
	C178	C	0.392915	0.829317	0.124163
	C179	C	0.621952	0.828045	0.886482
	C180	C	0.392615	0.887297	0.181608
	C181	C	0.622002	0.123741	0.182748
	C182	C	0.392909	0.123903	0.828644
	C183	C	0.622119	0.886647	0.829806
	C184	C	0.887833	0.181660	0.390143
	C185	C	0.126406	0.181881	0.619907
	C186	C	0.125240	0.828275	0.390034
	C187	C	0.889005	0.829512	0.620531
	C188	C	0.184062	0.390702	0.886550
	C189	C	0.184694	0.620604	0.124972
	C190	C	0.830666	0.391095	0.124510
	C191	C	0.829378	0.619900	0.885779
	C192	C	0.407226	0.098875	0.605034
	C193	C	0.607828	0.911034	0.605042
	C194	C	0.607020	0.099240	0.406569
	C195	C	0.406929	0.911715	0.405807
	C196	C	0.607385	0.405276	0.099727
	C197	C	0.606555	0.604300	0.911080
	C198	C	0.408337	0.604918	0.099584
	C199	C	0.407820	0.405819	0.911233
	C200	C	0.100439	0.605111	0.406286
	C201	C	0.912727	0.606158	0.605503
	C202	C	0.100575	0.405944	0.604239
	C203	C	0.913399	0.405499	0.405204
	C204	C	0.907622	0.599264	0.104452
	C205	C	0.108284	0.411959	0.105659
	C206	C	0.106599	0.599188	0.906637
	C207	C	0.907412	0.411508	0.905801
	C208	C	0.106880	0.905416	0.599255
	C209	C	0.105857	0.104736	0.410702
	C210	C	0.907726	0.105284	0.599452
	C211	C	0.907656	0.905902	0.411128
	C212	C	0.601384	0.104415	0.906013
	C213	C	0.413552	0.105906	0.104912
	C214	C	0.601273	0.905350	0.105734
	C215	C	0.413215	0.905212	0.905874
	Zn216	Zn	0.507510	0.004983	0.755458
	Zn217	Zn	0.507194	0.005517	0.255978
	Zn218	Zn	0.756858	0.505226	0.005592
	Zn219	Zn	0.258089	0.505252	0.005365
	Zn220	Zn	0.006555	0.755571	0.504999
	Zn221	Zn	0.006971	0.255104	0.505177
	Zn222	Zn	0.007474	0.505543	0.755735
	Zn223	Zn	0.007312	0.505643	0.255762
	Zn224	Zn	0.507392	0.754930	0.005493
	Zn225	Zn	0.507819	0.255348	0.005212
	Zn226	Zn	0.757433	0.005001	0.505638
	Zn227	Zn	0.256252	0.005555	0.504963
	N228	N	0.422653	0.967386	0.683256
	N229	N	0.592154	0.042323	0.683295
	N230	N	0.591918	0.967712	0.328232
	N231	N	0.421658	0.042916	0.327461
	N232	N	0.685388	0.420082	0.968159
	N233	N	0.685104	0.590313	0.042857
	N234	N	0.328504	0.591459	0.968250
	N235	N	0.329815	0.420344	0.043176
	N236	N	0.969140	0.684107	0.419278
	N237	N	0.044087	0.684189	0.590927
	N238	N	0.969737	0.326834	0.591452
	N239	N	0.044271	0.326002	0.419280
	N240	N	0.970087	0.421016	0.683317
	N241	N	0.044358	0.590813	0.683830
	N242	N	0.968951	0.590388	0.327397
	N243	N	0.045065	0.420489	0.327870
	N244	N	0.422657	0.682656	0.967903
	N245	N	0.593126	0.683671	0.042429
	N246	N	0.593192	0.326798	0.967878
	N247	N	0.422186	0.327162	0.042477
	N248	N	0.685546	0.968043	0.420429
	N249	N	0.686549	0.042291	0.591916
	N250	N	0.328581	0.968056	0.590738
	N251	N	0.327285	0.042524	0.418827
	N252	N	0.923449	0.467809	0.182225
	N253	N	0.093179	0.543544	0.184332
	N254	N	0.092870	0.468077	0.827224
	N255	N	0.922711	0.543384	0.828185
	N256	N	0.185376	0.919137	0.467754
	N257	N	0.184581	0.090256	0.542470
	N258	N	0.828963	0.090077	0.467717
	N259	N	0.829423	0.920203	0.542897
	N260	N	0.470672	0.183935	0.919143
	N261	N	0.544717	0.184242	0.091680
	N262	N	0.470287	0.826843	0.091243
	N263	N	0.544345	0.825991	0.919569
	N264	N	0.469906	0.920607	0.183595
	N265	N	0.544794	0.090493	0.184120
	N266	N	0.470162	0.090253	0.827193
	N267	N	0.544917	0.920427	0.828322
	N268	N	0.921156	0.183878	0.467920
	N269	N	0.092710	0.183590	0.542317
	N270	N	0.092026	0.826712	0.467636
	N271	N	0.922186	0.827625	0.542812
	N272	N	0.185652	0.468044	0.920245
	N273	N	0.186830	0.543116	0.091458
	N274	N	0.828357	0.468472	0.091378
	N275	N	0.827305	0.542292	0.918661
	O276	O	0.484557	0.497529	0.466038
	H277	H	0.492364	0.491773	0.457728
	H278	H	0.481828	0.502251	0.457710
	O279	O	0.007063	0.002748	-0.011313
	H280	H	0.012835	0.010797	-0.001277
	H281	H	0.013750	0.000021	-0.017251
	O282	O	0.412086	0.522256	0.380247
	H283	H	0.413089	0.532972	0.373199
	H284	H	0.405849	0.530083	0.381360
	O285	O	0.413691	0.494015	0.504345
	H286	H	0.410038	0.501113	0.512290
	H287	H	0.421766	0.485866	0.505764
	O288	O	1.019171	-0.011101	0.003872
	H289	H	1.015742	-0.014018	0.000807
	H290	H	1.012342	-0.011671	-0.003087
	O291	O	-0.525003	0.529066	-0.522662
	H292	H	-0.530550	0.536528	-0.522479
	H293	H	-0.534019	0.521570	-0.522268
	O294	O	0.443781	0.518345	0.419595
	H295	H	0.435222	0.527239	0.415379
	H296	H	0.440441	0.521709	0.428375
	O297	O	0.041372	1.005459	-0.033395
	H298	H	0.044598	1.011032	-0.026347
	H299	H	0.046986	1.005291	-0.035270
	O300	O	1.005471	0.001388	0.988827
	H301	H	1.006182	-0.003048	0.978855
	H302	H	0.994862	0.000586	0.981756
	O303	O	0.453463	0.504697	0.492480
	H304	H	0.451379	0.502110	0.485774
	H305	H	0.465429	0.500590	0.499704
	O306	O	0.032642	0.990776	0.968690
	H307	H	0.033714	0.988107	0.979902
	H308	H	0.030557	0.985923	0.970002
	O309	O	0.475511	0.508737	0.476290
	H310	H	0.473377	0.507286	0.479118
	H311	H	0.474714	0.496189	0.474308
