data_Molecule from HDF5

_cell_length_a		16.331656
_cell_length_b		16.424437
_cell_length_c		16.211207
_cell_angle_alpha	89.941195
_cell_angle_beta	90.043904
_cell_angle_gamma	89.989333
_symmetry_space_group_name_H-M	'P 1'
_symmetry_Int_Tables_number		1

loop_
	_symmetry_equiv_pos_as_xyz
	x,y,z

loop_
	_atom_site_label
	_atom_site_type_symbol
	_atom_site_fract_x
	_atom_site_fract_y
	_atom_site_fract_z
	H0	H	0.403513	0.840063	0.709930
	H1	H	0.604653	0.162713	0.712648
	H2	H	0.604221	0.841128	0.275760
	H3	H	0.401870	0.163040	0.275581
	H4	H	0.718231	0.401063	0.831233
	H5	H	0.718177	0.603072	0.156157
	H6	H	0.284106	0.602903	0.831024
	H7	H	0.285394	0.402270	0.158011
	H8	H	0.842813	0.722566	0.391867
	H9	H	0.164783	0.719312	0.598737
	H10	H	0.841861	0.282341	0.598884
	H11	H	0.163614	0.283528	0.391716
	H12	H	0.838537	0.403259	0.708476
	H13	H	0.165526	0.599377	0.709927
	H14	H	0.839764	0.602462	0.279960
	H15	H	0.164211	0.402936	0.278857
	H16	H	0.399627	0.719165	0.831026
	H17	H	0.603513	0.718583	0.155805
	H18	H	0.602948	0.284886	0.831725
	H19	H	0.398283	0.283722	0.157001
	H20	H	0.720870	0.841070	0.392765
	H21	H	0.722131	0.162798	0.597621
	H22	H	0.285923	0.840830	0.595680
	H23	H	0.283507	0.162180	0.389551
	H24	H	0.899106	0.340704	0.213990
	H25	H	0.102357	0.663151	0.212320
	H26	H	0.100855	0.339743	0.777892
	H27	H	0.901449	0.663195	0.777226
	H28	H	0.221455	0.898554	0.331810
	H29	H	0.220423	0.102033	0.657454
	H30	H	0.784322	0.106340	0.333037
	H31	H	0.785382	0.900126	0.656987
	H32	H	0.341025	0.219990	0.890074
	H33	H	0.661369	0.224173	0.099742
	H34	H	0.341741	0.783289	0.097082
	H35	H	0.661791	0.780795	0.887230
	H36	H	0.341068	0.901742	0.210501
	H37	H	0.664161	0.105459	0.211264
	H38	H	0.340556	0.102901	0.776193
	H39	H	0.665258	0.902858	0.778923
	H40	H	0.899214	0.221653	0.333597
	H41	H	0.104622	0.218293	0.657941
	H42	H	0.108528	0.781726	0.334285
	H43	H	0.903008	0.785806	0.658569
	H44	H	0.219999	0.340604	0.892821
	H45	H	0.219275	0.662103	0.097347
	H46	H	0.781477	0.341805	0.098747
	H47	H	0.783009	0.662599	0.890487
	H48	H	0.407886	0.117543	0.583629
	H49	H	0.597169	0.886295	0.590332
	H50	H	0.586995	0.111443	0.410213
	H51	H	0.412200	0.887890	0.404793
	H52	H	0.589680	0.412809	0.107804
	H53	H	0.592897	0.584560	0.879946
	H54	H	0.406044	0.595755	0.111680
	H55	H	0.406980	0.400585	0.874746
	H56	H	0.118074	0.591393	0.401510
	H57	H	0.886333	0.591979	0.594663
	H58	H	0.116179	0.412903	0.585943
	H59	H	0.882355	0.402215	0.398338
	H60	H	0.118809	0.408382	0.588765
	H61	H	0.885803	0.604724	0.583335
	H62	H	0.118671	0.597209	0.405865
	H63	H	0.890783	0.407449	0.418279
	H64	H	0.411336	0.587776	0.108055
	H65	H	0.584529	0.595689	0.879051
	H66	H	0.590735	0.411021	0.109844
	H67	H	0.403493	0.420534	0.879750
	H68	H	0.604006	0.118402	0.406225
	H69	H	0.591649	0.888739	0.585551
	H70	H	0.415048	0.116617	0.587132
	H71	H	0.410026	0.886497	0.401691
	H72	H	0.912331	0.617267	0.093343
	H73	H	0.093704	0.387365	0.084369
	H74	H	0.098102	0.616690	0.903622
	H75	H	0.911172	0.388015	0.903175
	H76	H	0.096235	0.906103	0.612545
	H77	H	0.089065	0.098212	0.379154
	H78	H	0.913978	0.087310	0.607661
	H79	H	0.909164	0.909241	0.377181
	H80	H	0.618419	0.098029	0.904286
	H81	H	0.389374	0.087098	0.082201
	H82	H	0.614303	0.910714	0.073399
	H83	H	0.388458	0.911552	0.907212
	H84	H	0.616742	0.918282	0.088386
	H85	H	0.385264	0.094264	0.088859
	H86	H	0.615725	0.092310	0.907332
	H87	H	0.386988	0.913392	0.897956
	H88	H	0.917004	0.094711	0.610064
	H89	H	0.098185	0.094584	0.377057
	H90	H	0.098266	0.916578	0.610191
	H91	H	0.912624	0.916182	0.381466
	H92	H	0.089852	0.615369	0.899441
	H93	H	0.094927	0.386202	0.087193
	H94	H	0.914916	0.612810	0.080375
	H95	H	0.908254	0.386826	0.903879
	H96	H	0.413928	0.114288	0.579391
	H97	H	0.598677	0.886656	0.582992
	H98	H	0.590833	0.118024	0.393229
	H99	H	0.413719	0.888461	0.400540
	H100	H	0.591990	0.413588	0.109188
	H101	H	0.598380	0.596561	0.873746
	H102	H	0.415721	0.597022	0.109021
	H103	H	0.422557	0.412323	0.883068
	H104	H	0.115208	0.591067	0.408091
	H105	H	0.890597	0.589759	0.578064
	H106	H	0.117451	0.407859	0.582868
	H107	H	0.889968	0.422177	0.401934
	H108	H	0.902480	0.617372	0.083830
	H109	H	0.092115	0.387837	0.086389
	H110	H	0.091291	0.612854	0.907683
	H111	H	0.909310	0.387047	0.901187
	H112	H	0.088379	0.911746	0.608329
	H113	H	0.090895	0.089271	0.380920
	H114	H	0.909244	0.092421	0.612603
	H115	H	0.917855	0.909404	0.380441
	H116	H	0.617539	0.092318	0.900456
	H117	H	0.387859	0.097684	0.078971
	H118	H	0.620700	0.902271	0.086379
	H119	H	0.384788	0.904470	0.901609
	C120	C	0.382060	0.009767	0.614610
	C121	C	0.625529	0.993650	0.616617
	C122	C	0.624949	0.010152	0.372052
	C123	C	0.381073	0.993672	0.371507
	C124	C	0.622323	0.380958	0.002390
	C125	C	0.622605	0.623012	0.984788
	C126	C	0.380309	0.623652	0.002260
	C127	C	0.380177	0.380491	0.986379
	C128	C	0.011085	0.623647	0.374471
	C129	C	0.994513	0.623888	0.616063
	C130	C	0.010550	0.380029	0.616235
	C131	C	0.993918	0.380569	0.374586
	C132	C	0.879120	0.509756	0.116830
	C133	C	0.123733	0.493301	0.116833
	C134	C	0.123320	0.508956	0.872896
	C135	C	0.879585	0.493873	0.872250
	C136	C	0.124914	0.880600	0.503337
	C137	C	0.123857	0.123491	0.486280
	C138	C	0.881886	0.123407	0.503419
	C139	C	0.882592	0.881015	0.486864
	C140	C	0.510598	0.124073	0.872534
	C141	C	0.493826	0.124022	0.115133
	C142	C	0.510965	0.880741	0.114347
	C143	C	0.493823	0.880137	0.872146
	C144	C	0.383911	0.888494	0.671321
	C145	C	0.624481	0.114641	0.673802
	C146	C	0.624236	0.889279	0.314600
	C147	C	0.381500	0.114655	0.313549
	C148	C	0.679811	0.380955	0.880185
	C149	C	0.679464	0.622259	0.107464
	C150	C	0.323147	0.622218	0.879646
	C151	C	0.323533	0.382107	0.109050
	C152	C	0.890447	0.682829	0.373073
	C153	C	0.116571	0.680042	0.616892
	C154	C	0.889348	0.322369	0.616932
	C155	C	0.115484	0.323029	0.373291
	C156	C	0.887979	0.381991	0.671976
	C157	C	0.116700	0.620594	0.672475
	C158	C	0.888985	0.623072	0.317441
	C159	C	0.115600	0.382141	0.316969
	C160	C	0.380304	0.680495	0.879690
	C161	C	0.623013	0.680280	0.107248
	C162	C	0.622465	0.323086	0.880522
	C163	C	0.379246	0.322675	0.108398
	C164	C	0.682354	0.889320	0.372528
	C165	C	0.683015	0.114597	0.616565
	C166	C	0.325024	0.888917	0.614698
	C167	C	0.322699	0.114225	0.370534
	C168	C	0.879314	0.389153	0.175152
	C169	C	0.122146	0.614544	0.173858
	C170	C	0.121594	0.388003	0.816018
	C171	C	0.881160	0.614913	0.815224
	C172	C	0.182804	0.880148	0.380665
	C173	C	0.181727	0.122076	0.608716
	C174	C	0.823382	0.124939	0.381765
	C175	C	0.824726	0.880964	0.608876
	C176	C	0.389434	0.181302	0.871394
	C177	C	0.613903	0.183986	0.117746
	C178	C	0.389832	0.822638	0.115653
	C179	C	0.614466	0.821210	0.869898
	C180	C	0.389597	0.881627	0.171930
	C181	C	0.615225	0.124521	0.173204
	C182	C	0.389279	0.123306	0.814241
	C183	C	0.615905	0.881765	0.815646
	C184	C	0.880720	0.182371	0.382144
	C185	C	0.124205	0.179888	0.608977
	C186	C	0.126573	0.821720	0.381869
	C187	C	0.882855	0.823884	0.609268
	C188	C	0.180808	0.388532	0.873187
	C189	C	0.180550	0.614358	0.116667
	C190	C	0.820546	0.389677	0.117579
	C191	C	0.822087	0.614426	0.871619
	C192	C	0.405461	0.094184	0.590388
	C193	C	0.602558	0.909220	0.593058
	C194	C	0.600972	0.094080	0.396172
	C195	C	0.404871	0.909632	0.395389
	C196	C	0.598020	0.405359	0.087119
	C197	C	0.598772	0.599210	0.899712
	C198	C	0.404155	0.600360	0.087497
	C199	C	0.404042	0.404071	0.901354
	C200	C	0.095353	0.600276	0.398282
	C201	C	0.909561	0.601869	0.592236
	C202	C	0.095461	0.403017	0.592763
	C203	C	0.909562	0.403881	0.399212
	C204	C	0.902908	0.593819	0.092693
	C205	C	0.100514	0.409038	0.092953
	C206	C	0.099888	0.593190	0.896701
	C207	C	0.902806	0.409176	0.895945
	C208	C	0.101130	0.904601	0.588136
	C209	C	0.099790	0.100522	0.401087
	C210	C	0.906511	0.098566	0.588298
	C211	C	0.906337	0.904712	0.401847
	C212	C	0.595269	0.100910	0.896813
	C213	C	0.409418	0.099854	0.090484
	C214	C	0.595286	0.903803	0.089866
	C215	C	0.408980	0.903062	0.895600
	Zn216	Zn	0.502298	0.001915	0.744608
	Zn217	Zn	0.503175	0.002123	0.242882
	Zn218	Zn	0.750728	0.502282	-0.006352
	Zn219	Zn	0.252201	0.501722	-0.005108
	Zn220	Zn	0.003922	0.752749	0.495447
	Zn221	Zn	0.002816	0.251672	0.495701
	Zn222	Zn	0.001366	0.501618	0.743396
	Zn223	Zn	0.001865	0.501716	0.245738
	Zn224	Zn	0.502379	0.751616	-0.006944
	Zn225	Zn	0.501275	0.252209	-0.005190
	Zn226	Zn	0.754494	0.002071	0.494301
	Zn227	Zn	0.252066	0.001703	0.493885
	N228	N	0.418584	0.964837	0.671416
	N229	N	0.589581	0.038485	0.674150
	N230	N	0.589377	0.965429	0.314198
	N231	N	0.417054	0.038758	0.314224
	N232	N	0.679721	0.416442	0.956790
	N233	N	0.679563	0.587553	0.030399
	N234	N	0.322870	0.587728	0.957044
	N235	N	0.323916	0.417202	0.032090
	N236	N	0.967190	0.683452	0.407730
	N237	N	0.039637	0.682249	0.582468
	N238	N	0.966511	0.321070	0.583047
	N239	N	0.038837	0.321784	0.408392
	N240	N	0.964430	0.417276	0.671526
	N241	N	0.039775	0.586553	0.672289
	N242	N	0.964792	0.587065	0.317969
	N243	N	0.039266	0.417285	0.317930
	N244	N	0.415235	0.681409	0.956769
	N245	N	0.588121	0.680756	0.029927
	N246	N	0.587461	0.323004	0.957686
	N247	N	0.414057	0.321836	0.031202
	N248	N	0.683152	0.965559	0.407366
	N249	N	0.683825	0.038235	0.581712
	N250	N	0.323826	0.965455	0.580181
	N251	N	0.321857	0.038028	0.405569
	N252	N	0.914938	0.464845	0.174826
	N253	N	0.087330	0.538382	0.173916
	N254	N	0.086514	0.464077	0.815814
	N255	N	0.916201	0.538696	0.815326
	N256	N	0.181816	0.916256	0.457326
	N257	N	0.181730	0.087725	0.531401
	N258	N	0.824309	0.088654	0.458245
	N259	N	0.824329	0.915787	0.531803
	N260	N	0.465995	0.182115	0.906733
	N261	N	0.537460	0.183691	0.082300
	N262	N	0.466487	0.821783	0.080397
	N263	N	0.537561	0.820107	0.904293
	N264	N	0.465685	0.917032	0.171047
	N265	N	0.539448	0.088039	0.171678
	N266	N	0.465769	0.088350	0.814840
	N267	N	0.539942	0.917865	0.816975
	N268	N	0.916584	0.181240	0.458810
	N269	N	0.089058	0.180856	0.531905
	N270	N	0.091415	0.821831	0.458747
	N271	N	0.918222	0.823980	0.532220
	N272	N	0.181880	0.464873	0.907661
	N273	N	0.181693	0.538020	0.081825
	N274	N	0.820495	0.465752	0.081900
	N275	N	0.821229	0.538079	0.906414
	O276	O	-0.143092	-0.173408	0.161024
	H277	H	-0.132584	-0.177953	0.173364
	H278	H	-0.152493	-0.173126	0.146633
	O279	O	-0.016183	-0.072517	-0.004755
	H280	H	-0.006707	-0.066990	0.001923
	H281	H	-0.008728	-0.082201	0.015195
	O282	O	0.864460	0.103091	0.013489
	H283	H	0.849657	0.119172	-0.000387
	H284	H	0.873052	0.099247	0.014157
	O285	O	-0.112774	0.994774	0.158526
	H286	H	-0.130472	0.991243	0.169901
	H287	H	-0.116534	0.969660	0.159511
	O288	O	0.487034	0.610405	0.564586
	H289	H	0.492002	0.630954	0.556239
	H290	H	0.484301	0.612196	0.571602
	O291	O	0.482874	0.415671	0.569672
	H292	H	0.481438	0.421620	0.570239
	H293	H	0.498713	0.422783	0.581639
	O294	O	1.131027	0.803137	0.905337
	H295	H	1.143393	0.785807	0.899587
	H296	H	1.128209	0.810658	0.899905
	O297	O	-0.158849	0.088071	-0.200804
	H298	H	-0.170581	0.082017	-0.211312
	H299	H	-0.150344	0.105933	-0.196081
	O300	O	0.463388	0.445123	0.481330
	H301	H	0.452159	0.431715	0.477213
	H302	H	0.462130	0.448575	0.495452
	O303	O	-0.148038	1.179441	1.001340
	H304	H	-0.155626	1.184604	0.987158
	H305	H	-0.158777	1.178522	0.999304
	O306	O	0.546461	0.492220	0.412222
	H307	H	0.545656	0.482037	0.401205
	H308	H	0.548680	0.503264	0.419224
	O309	O	1.113472	-0.001215	-0.037742
	H310	H	1.133645	-0.008348	-0.025346
	H311	H	1.096896	0.000383	-0.039055
	O312	O	0.159404	-0.067069	1.011084
	H313	H	0.166042	-0.065191	1.021489
	H314	H	0.150649	-0.077221	1.007113
	O315	O	0.160759	1.175253	1.053591
	H316	H	0.166177	1.178472	1.042562
	H317	H	0.149365	1.179596	1.066155
	O318	O	0.606789	0.480077	0.477414
	H319	H	0.615461	0.476527	0.463287
	H320	H	0.607948	0.473970	0.483453
	O321	O	0.411952	0.388455	0.517514
	H322	H	0.415065	0.380589	0.530272
	H323	H	0.398627	0.383170	0.509679
	O324	O	0.451868	0.483734	0.552628
	H325	H	0.452088	0.488310	0.558213
	H326	H	0.454897	0.480970	0.548096
	O327	O	-0.000328	0.863082	1.068404
	H328	H	0.009875	0.855638	1.081021
	H329	H	0.013110	0.871934	1.072937
	O330	O	0.540657	0.532698	0.464907
	H331	H	0.545693	0.547132	0.464608
	H332	H	0.542083	0.540131	0.467492
	O333	O	0.051979	1.071582	0.844327
	H334	H	0.070642	1.067461	0.845259
	H335	H	0.055642	1.071208	0.836904
	O336	O	1.086715	0.978539	1.088367
	H337	H	1.104674	0.989605	1.095768
	H338	H	1.086823	0.985030	1.090587
	O339	O	0.547435	0.394869	0.474058
	H340	H	0.534261	0.384023	0.469253
	H341	H	0.542077	0.393173	0.476022
	O342	O	0.881330	-0.004185	-0.092535
	H343	H	0.882885	-0.002490	-0.101916
	H344	H	0.881409	-0.011414	-0.085343
	O345	O	0.487771	0.502246	0.514859
	H346	H	0.493488	0.510028	0.523311
	H347	H	0.492721	0.497516	0.506086
	O348	O	1.155627	0.933159	0.883933
	H349	H	1.145749	0.929892	0.891396
	H350	H	1.137151	0.938977	0.872986
	O351	O	1.068499	1.020199	0.126740
	H352	H	1.057134	1.010986	0.121774
	H353	H	1.060768	1.023280	0.127415
	O354	O	1.106850	0.117812	0.998833
	H355	H	1.112302	0.131118	1.006894
	H356	H	1.100122	0.106978	1.011305
	O357	O	0.545842	0.460219	0.506650
	H358	H	0.549455	0.463429	0.503533
	H359	H	0.537591	0.470977	0.509370
	O360	O	-0.093374	0.075097	0.022156
	H361	H	-0.097402	0.085366	0.009828
	H362	H	-0.098995	0.085619	0.024147
	O363	O	0.548030	0.450760	0.589824
	H364	H	0.539964	0.451536	0.591348
	H365	H	0.539161	0.443636	0.577327
	O366	O	0.492353	0.463756	0.485282
	H367	H	0.499958	0.458370	0.497715
	H368	H	0.484917	0.460498	0.495749
	O369	O	0.529392	0.582088	0.571140
	H370	H	0.530194	0.580188	0.573650
	H371	H	0.531401	0.582501	0.565364
	O372	O	0.407481	0.554788	0.450300
	H373	H	0.401725	0.564296	0.446253
	H374	H	0.409661	0.554063	0.441684
	O375	O	0.482781	0.525346	0.561619
	H376	H	0.479535	0.538016	0.555324
	H377	H	0.495276	0.529156	0.564789
	O378	O	0.390810	0.584890	0.409884
	H379	H	0.385690	0.577604	0.414350
	H380	H	0.383350	0.577684	0.409728
	O381	O	0.430999	0.512331	0.430033
	H382	H	0.424077	0.513127	0.432194
	H383	H	0.431492	0.512846	0.418995
	O384	O	-0.086153	0.951187	-0.048532
	H385	H	-0.080820	0.955722	-0.028756
	H386	H	-0.094790	0.957954	-0.049242
	O387	O	1.123900	0.091010	1.138015
	H388	H	1.134788	0.088730	1.161599
	H389	H	1.109770	0.096645	1.131473
	O390	O	-0.119591	0.894059	-0.117957
	H391	H	-0.129187	0.895086	-0.113782
	H392	H	-0.114880	0.895864	-0.126675
	O393	O	0.802283	0.903278	0.101627
	H394	H	0.802470	0.908819	0.090047
	H395	H	0.787299	0.904160	0.097118
	O396	O	0.472793	0.471481	0.350556
	H397	H	0.482203	0.461335	0.347358
	H398	H	0.468848	0.457618	0.359050
	O399	O	0.049256	1.102375	0.984873
	H400	H	0.047619	1.105637	0.965752
	H401	H	0.055388	1.093493	0.992417
	O402	O	1.095052	0.932590	0.972538
	H403	H	1.089315	0.924316	0.991853
	H404	H	1.100067	0.937222	0.967247
	O405	O	0.597666	0.458298	0.532312
	H406	H	0.605825	0.454855	0.530150
	H407	H	0.596289	0.459367	0.531114
