data_Molecule from HDF5

_cell_length_a		16.541881
_cell_length_b		16.552160
_cell_length_c		16.566425
_cell_angle_alpha	90.041045
_cell_angle_beta	90.097595
_cell_angle_gamma	90.016959
_symmetry_space_group_name_H-M	'P 1'
_symmetry_Int_Tables_number		1

loop_
	_symmetry_equiv_pos_as_xyz
	x,y,z

loop_
	_atom_site_label
	_atom_site_type_symbol
	_atom_site_fract_x
	_atom_site_fract_y
	_atom_site_fract_z
	H0	H	0.415432	0.835116	0.716411
	H1	H	0.630492	0.145590	0.716349
	H2	H	0.626974	0.833618	0.273116
	H3	H	0.417809	0.146434	0.269918
	H4	H	0.746365	0.382188	0.835389
	H5	H	0.742757	0.590169	0.149524
	H6	H	0.301459	0.594014	0.837576
	H7	H	0.299561	0.380014	0.147397
	H8	H	0.866709	0.709081	0.389219
	H9	H	0.179707	0.713009	0.600419
	H10	H	0.866718	0.268700	0.596657
	H11	H	0.179434	0.265976	0.384996
	H12	H	0.866949	0.384084	0.712719
	H13	H	0.179711	0.596091	0.715315
	H14	H	0.866578	0.592178	0.272658
	H15	H	0.179575	0.381731	0.268717
	H16	H	0.418031	0.710162	0.837199
	H17	H	0.627956	0.708957	0.149054
	H18	H	0.631102	0.264781	0.836910
	H19	H	0.417744	0.265376	0.148291
	H20	H	0.744494	0.833886	0.389124
	H21	H	0.747429	0.145917	0.600443
	H22	H	0.300421	0.834076	0.598390
	H23	H	0.302736	0.147346	0.387353
	H24	H	0.916418	0.333590	0.215574
	H25	H	0.131038	0.645211	0.214477
	H26	H	0.132008	0.332759	0.768381
	H27	H	0.918560	0.645704	0.770640
	H28	H	0.244387	0.884436	0.334966
	H29	H	0.246261	0.095882	0.649062
	H30	H	0.801508	0.094985	0.337331
	H31	H	0.802837	0.883705	0.649461
	H32	H	0.368835	0.213973	0.884469
	H33	H	0.681106	0.211543	0.099924
	H34	H	0.368419	0.766329	0.098968
	H35	H	0.678920	0.766231	0.885488
	H36	H	0.367632	0.882759	0.214490
	H37	H	0.680162	0.096633	0.216931
	H38	H	0.368278	0.099385	0.767614
	H39	H	0.677292	0.879872	0.766805
	H40	H	0.917150	0.212374	0.337278
	H41	H	0.131441	0.212239	0.648579
	H42	H	0.127604	0.768476	0.335292
	H43	H	0.919188	0.767991	0.648687
	H44	H	0.247824	0.332915	0.884801
	H45	H	0.249158	0.643631	0.101255
	H46	H	0.803248	0.331431	0.097293
	H47	H	0.804784	0.646565	0.889506
	H48	H	0.440802	0.100945	0.582898
	H49	H	0.618691	0.877416	0.578062
	H50	H	0.609187	0.102053	0.401009
	H51	H	0.433260	0.878940	0.406345
	H52	H	0.611660	0.395120	0.104726
	H53	H	0.617512	0.577818	0.878196
	H54	H	0.445709	0.575731	0.101664
	H55	H	0.439618	0.403426	0.883153
	H56	H	0.135999	0.575924	0.404066
	H57	H	0.911680	0.581423	0.579369
	H58	H	0.133367	0.405962	0.579893
	H59	H	0.911146	0.396406	0.405980
	H60	H	0.137232	0.400559	0.583953
	H61	H	0.912969	0.576044	0.580478
	H62	H	0.137367	0.578884	0.402140
	H63	H	0.914334	0.404804	0.405757
	H64	H	0.433787	0.585987	0.109162
	H65	H	0.611458	0.577645	0.880267
	H66	H	0.618353	0.400964	0.105145
	H67	H	0.437857	0.398959	0.881285
	H68	H	0.610981	0.100636	0.409694
	H69	H	0.609751	0.876447	0.587994
	H70	H	0.435869	0.098805	0.574901
	H71	H	0.431246	0.876626	0.400542
	H72	H	0.930244	0.601310	0.077874
	H73	H	0.113684	0.376675	0.080381
	H74	H	0.118532	0.602364	0.905825
	H75	H	0.936865	0.379532	0.909562
	H76	H	0.106035	0.902393	0.601147
	H77	H	0.109926	0.083167	0.379585
	H78	H	0.941120	0.077552	0.602755
	H79	H	0.931692	0.897528	0.378756
	H80	H	0.632585	0.075059	0.908719
	H81	H	0.414095	0.079029	0.075156
	H82	H	0.633030	0.904513	0.078118
	H83	H	0.412295	0.903551	0.904644
	H84	H	0.636795	0.902876	0.088589
	H85	H	0.414875	0.071287	0.081328
	H86	H	0.634610	0.072704	0.902726
	H87	H	0.410664	0.899730	0.903245
	H88	H	0.934972	0.082479	0.606452
	H89	H	0.117619	0.077833	0.378380
	H90	H	0.114643	0.896582	0.605989
	H91	H	0.931680	0.902885	0.380490
	H92	H	0.108801	0.601055	0.897964
	H93	H	0.107843	0.377980	0.081896
	H94	H	0.933257	0.603173	0.087381
	H95	H	0.927736	0.374034	0.900120
	H96	H	0.431935	0.103821	0.581579
	H97	H	0.606642	0.881656	0.575781
	H98	H	0.617341	0.103833	0.404385
	H99	H	0.437699	0.878495	0.401274
	H100	H	0.610392	0.403322	0.101069
	H101	H	0.614041	0.582793	0.878479
	H102	H	0.429849	0.569794	0.105030
	H103	H	0.434743	0.402878	0.881828
	H104	H	0.136018	0.580149	0.406252
	H105	H	0.911088	0.579086	0.584343
	H106	H	0.135419	0.398951	0.576491
	H107	H	0.910606	0.400784	0.398370
	H108	H	0.939473	0.598888	0.080402
	H109	H	0.110090	0.379399	0.076249
	H110	H	0.108259	0.596111	0.909863
	H111	H	0.941087	0.376568	0.896177
	H112	H	0.116231	0.907517	0.603304
	H113	H	0.109823	0.074492	0.383313
	H114	H	0.933622	0.074205	0.604757
	H115	H	0.936240	0.899930	0.380658
	H116	H	0.635648	0.078667	0.904605
	H117	H	0.410968	0.080023	0.084545
	H118	H	0.638548	0.894698	0.080881
	H119	H	0.412531	0.900078	0.907489
	C120	C	0.402625	-0.001635	0.613206
	C121	C	0.645372	0.981564	0.614619
	C122	C	0.644251	-0.001234	0.372799
	C123	C	0.402190	0.981725	0.370626
	C124	C	0.646232	0.366994	0.000462
	C125	C	0.645515	0.610466	0.983304
	C126	C	0.403257	0.609583	0.002108
	C127	C	0.403554	0.367631	0.984468
	C128	C	0.032561	0.610062	0.372039
	C129	C	1.015148	0.611325	0.614212
	C130	C	0.032021	0.368863	0.612840
	C131	C	1.015113	0.367565	0.370388
	C132	C	0.902402	0.497384	0.113783
	C133	C	0.145023	0.480621	0.113691
	C134	C	0.145540	0.496890	0.870899
	C135	C	0.902827	0.480329	0.870230
	C136	C	0.144844	0.868956	0.500228
	C137	C	0.145335	0.111480	0.483809
	C138	C	0.903136	0.110630	0.501467
	C139	C	0.901462	0.867962	0.483786
	C140	C	0.531924	0.110152	0.871563
	C141	C	0.516231	0.110314	0.113856
	C142	C	0.532564	0.867699	0.114706
	C143	C	0.514726	0.868027	0.871496
	C144	C	0.398204	0.881459	0.675108
	C145	C	0.648916	0.098684	0.676401
	C146	C	0.645864	0.880595	0.313117
	C147	C	0.399757	0.099427	0.310147
	C148	C	0.706380	0.363925	0.882807
	C149	C	0.703829	0.610296	0.102203
	C150	C	0.342201	0.612227	0.884345
	C151	C	0.340901	0.362713	0.100965
	C152	C	0.913684	0.669034	0.370618
	C153	C	0.132873	0.672242	0.617585
	C154	C	0.914098	0.308327	0.615184
	C155	C	0.132652	0.306606	0.367178
	C156	C	0.913950	0.365981	0.672915
	C157	C	0.132746	0.614178	0.675073
	C158	C	0.913841	0.610966	0.312844
	C159	C	0.132724	0.364159	0.309362
	C160	C	0.400133	0.669904	0.884178
	C161	C	0.646839	0.669119	0.101943
	C162	C	0.649085	0.305530	0.883329
	C163	C	0.399543	0.305623	0.101335
	C164	C	0.704044	0.880662	0.370663
	C165	C	0.706649	0.098761	0.618448
	C166	C	0.341119	0.880951	0.616427
	C167	C	0.342738	0.100170	0.368838
	C168	C	0.899246	0.380165	0.174591
	C169	C	0.149321	0.597744	0.175092
	C170	C	0.149439	0.380021	0.808840
	C171	C	0.900658	0.598763	0.811090
	C172	C	0.204673	0.866207	0.382106
	C173	C	0.206251	0.114050	0.601573
	C174	C	0.841938	0.113371	0.384058
	C175	C	0.842128	0.865511	0.601821
	C176	C	0.415498	0.173369	0.866821
	C177	C	0.633922	0.171068	0.117287
	C178	C	0.415426	0.806471	0.117392
	C179	C	0.631712	0.806319	0.867319
	C180	C	0.415111	0.864697	0.174856
	C181	C	0.633352	0.114357	0.176019
	C182	C	0.415188	0.116006	0.808848
	C183	C	0.630960	0.863026	0.808482
	C184	C	0.899375	0.171518	0.383893
	C185	C	0.149124	0.172336	0.601422
	C186	C	0.146734	0.808407	0.382369
	C187	C	0.900072	0.807923	0.601680
	C188	C	0.207101	0.379785	0.867014
	C189	C	0.207759	0.597149	0.118330
	C190	C	0.842913	0.379061	0.115405
	C191	C	0.843674	0.598936	0.869610
	C192	C	0.428800	0.079844	0.587224
	C193	C	0.619013	0.899834	0.588311
	C194	C	0.619505	0.080727	0.397726
	C195	C	0.426821	0.899488	0.395796
	C196	C	0.620784	0.392593	0.082454
	C197	C	0.621249	0.586381	0.900504
	C198	C	0.429076	0.584391	0.083876
	C199	C	0.429747	0.394174	0.903316
	C200	C	0.114849	0.585515	0.396976
	C201	C	0.933200	0.586026	0.588640
	C202	C	0.113984	0.394355	0.587477
	C203	C	0.933322	0.393318	0.395842
	C204	C	0.927334	0.579766	0.089018
	C205	C	0.118244	0.399328	0.087059
	C206	C	0.119571	0.578465	0.896901
	C207	C	0.928034	0.398185	0.894802
	C208	C	0.119407	0.894620	0.582025
	C209	C	0.119730	0.086033	0.401901
	C210	C	0.929231	0.085363	0.583217
	C211	C	0.926160	0.892903	0.401395
	C212	C	0.613092	0.083080	0.897893
	C213	C	0.434547	0.084259	0.087730
	C214	C	0.614853	0.893351	0.089422
	C215	C	0.433169	0.893951	0.897664
	Zn216	Zn	0.523197	-0.010198	0.742542
	Zn217	Zn	0.524320	-0.010177	0.242718
	Zn218	Zn	0.774408	0.488835	-0.008097
	Zn219	Zn	0.274085	0.488645	-0.006974
	Zn220	Zn	0.024049	0.739967	0.492441
	Zn221	Zn	0.023886	0.239881	0.492665
	Zn222	Zn	0.024152	0.488963	0.741726
	Zn223	Zn	0.024294	0.489185	0.242289
	Zn224	Zn	0.523850	0.739227	-0.007058
	Zn225	Zn	0.524424	0.238790	-0.007217
	Zn226	Zn	0.774005	-0.009834	0.493509
	Zn227	Zn	0.273763	-0.009865	0.491860
	N228	N	0.435863	0.955398	0.673132
	N229	N	0.611399	0.024649	0.674026
	N230	N	0.609366	0.954966	0.314234
	N231	N	0.435677	0.024691	0.310888
	N232	N	0.704860	0.401345	0.956836
	N233	N	0.703398	0.574692	0.027317
	N234	N	0.343801	0.575367	0.958641
	N235	N	0.343085	0.400511	0.027234
	N236	N	0.988669	0.668933	0.406522
	N237	N	0.058562	0.670981	0.580513
	N238	N	0.988582	0.309977	0.578595
	N239	N	0.058568	0.308280	0.404237
	N240	N	0.988327	0.402828	0.671786
	N241	N	0.058587	0.577085	0.673112
	N242	N	0.988673	0.575283	0.313427
	N243	N	0.058467	0.401399	0.311183
	N244	N	0.437289	0.668395	0.958294
	N245	N	0.611811	0.669616	0.026823
	N246	N	0.612679	0.307138	0.957723
	N247	N	0.437739	0.308663	0.027925
	N248	N	0.703026	0.954962	0.407285
	N249	N	0.704894	0.024674	0.581261
	N250	N	0.343611	0.954812	0.578705
	N251	N	0.343790	0.025732	0.405408
	N252	N	0.935455	0.454788	0.173898
	N253	N	0.110687	0.524377	0.172223
	N254	N	0.111758	0.454006	0.811207
	N255	N	0.936358	0.523787	0.810847
	N256	N	0.203946	0.902870	0.456622
	N257	N	0.204350	0.077115	0.527146
	N258	N	0.844080	0.076257	0.458119
	N259	N	0.842762	0.901977	0.527321
	N260	N	0.489123	0.169921	0.905084
	N261	N	0.559969	0.168912	0.079558
	N262	N	0.489749	0.808161	0.080722
	N263	N	0.558402	0.809312	0.905941
	N264	N	0.489332	0.901875	0.173444
	N265	N	0.559082	0.077288	0.174024
	N266	N	0.488653	0.077201	0.811519
	N267	N	0.557139	0.900788	0.810897
	N268	N	0.936746	0.169949	0.457969
	N269	N	0.112123	0.171005	0.527137
	N270	N	0.110495	0.809789	0.456873
	N271	N	0.936206	0.809001	0.527134
	N272	N	0.205012	0.453518	0.904843
	N273	N	0.205333	0.523110	0.080886
	N274	N	0.844485	0.453332	0.078479
	N275	N	0.844619	0.524247	0.905400
	O276	O	0.853257	0.817936	-0.182219
	H277	H	0.878025	0.821769	-0.183406
	H278	H	0.852158	0.823734	-0.170842
	O279	O	-0.000341	0.146368	1.037989
	H280	H	-0.012068	0.149992	1.028583
	H281	H	0.008026	0.146829	1.057539
	O282	O	0.300066	0.712040	0.477942
	H283	H	0.270002	0.740234	0.475253
	H284	H	0.308437	0.700441	0.440672
	O285	O	0.690231	1.324475	0.545413
	H286	H	0.699920	1.330343	0.555810
	H287	H	0.674861	1.317435	0.555131
	O288	O	1.216410	-0.197707	1.011536
	H289	H	1.219861	-0.212079	1.011534
	H290	H	1.216018	-0.198577	1.014004
	O291	O	0.801417	1.019221	0.773509
	H292	H	0.790409	1.014155	0.757345
	H293	H	0.798935	1.020239	0.763217
	O294	O	-0.113748	-0.052398	0.203238
	H295	H	-0.117418	-0.065967	0.199659
	H296	H	-0.112444	-0.062676	0.204629
	O297	O	0.878119	0.099049	0.103255
	H298	H	0.892516	0.086273	0.106207
	H299	H	0.872778	0.096189	0.114303
	O300	O	-0.089762	-0.226724	-0.021298
	H301	H	-0.099009	-0.229131	-0.023043
	H302	H	-0.101454	-0.233407	-0.018864
	O303	O	-0.430588	0.485626	-0.321449
	H304	H	-0.436629	0.497290	-0.311412
	H305	H	-0.432041	0.482926	-0.323834
	O306	O	0.618066	-0.412427	0.308468
	H307	H	0.616127	-0.414249	0.313310
	H308	H	0.628687	-0.410093	0.313328
	O309	O	-0.185443	1.203211	0.966657
	H310	H	-0.213736	1.227308	0.973700
	H311	H	-0.181529	1.178099	0.985886
	O312	O	0.745237	0.520022	0.716072
	H313	H	0.779102	0.523214	0.744978
	H314	H	0.745978	0.543998	0.701563
	O315	O	0.145124	0.042986	-0.158333
	H316	H	0.150330	0.049680	-0.145515
	H317	H	0.149747	0.044326	-0.150153
	O318	O	1.225704	1.189671	0.186831
	H319	H	1.214702	1.174924	0.170450
	H320	H	1.218676	1.183769	0.157131
	O321	O	0.151282	0.793984	1.101262
	H322	H	0.128897	0.787240	1.107316
	H323	H	0.139776	0.793233	1.100467
	O324	O	1.177017	-0.219900	0.784597
	H325	H	1.178254	-0.211448	0.805181
	H326	H	1.189679	-0.225740	0.760316
	O327	O	0.719213	0.683153	0.688351
	H328	H	0.717310	0.682891	0.706866
	H329	H	0.702061	0.693251	0.661048
	O330	O	-0.033709	0.774383	0.201952
	H331	H	-0.028896	0.767449	0.204748
	H332	H	-0.053694	0.759619	0.211334
	O333	O	0.238095	0.198826	0.021188
	H334	H	0.235517	0.197740	-0.001150
	H335	H	0.247634	0.208152	0.004340
	O336	O	0.054543	1.214580	0.970318
	H337	H	0.049671	1.215966	0.969389
	H338	H	0.048673	1.217331	0.976461
	O339	O	0.332807	0.674761	0.304358
	H340	H	0.361815	0.672425	0.303633
	H341	H	0.344090	0.644698	0.299165
	O342	O	0.045033	1.210627	0.206053
	H343	H	0.051898	1.237677	0.237638
	H344	H	0.054642	1.187731	0.197948
	O345	O	0.315711	0.511941	0.287231
	H346	H	0.328446	0.499249	0.268923
	H347	H	0.312987	0.499937	0.273235
	O348	O	0.243598	1.020753	1.212223
	H349	H	0.272278	1.024193	1.233762
	H350	H	0.249062	1.021702	1.198002
	O351	O	0.740491	0.504225	1.350717
	H352	H	0.751372	0.484909	1.344674
	H353	H	0.742458	0.484263	1.363378
	O354	O	1.202764	0.067824	0.960673
	H355	H	1.193552	0.052038	0.963173
	H356	H	1.190373	0.063375	0.944680
	O357	O	0.302168	0.547729	0.549916
	H358	H	0.301953	0.543431	0.537754
	H359	H	0.302270	0.556689	0.531744
	O360	O	0.372433	0.660988	0.651165
	H361	H	0.375844	0.643906	0.629926
	H362	H	0.366829	0.651966	0.645846
	O363	O	0.544388	0.700385	0.701624
	H364	H	0.535138	0.705553	0.703512
	H365	H	0.541817	0.708901	0.707732
	O366	O	0.428506	0.277868	0.391462
	H367	H	0.419373	0.272514	0.400664
	H368	H	0.442111	0.280908	0.398288
	O369	O	-0.099802	0.102030	0.794290
	H370	H	-0.092696	0.107455	0.809226
	H371	H	-0.100119	0.096227	0.803246
	O372	O	0.086736	0.945357	0.810071
	H373	H	0.103032	0.940284	0.812124
	H374	H	0.090682	0.945543	0.808168
	O375	O	1.026071	-0.006271	0.144915
	H376	H	1.034425	-0.017628	0.136901
	H377	H	1.023805	-0.014793	0.141343
	O378	O	0.479685	0.657154	0.575501
	H379	H	0.454013	0.661356	0.574072
	H380	H	0.482158	0.653987	0.573130
	O381	O	-0.496734	1.283453	-0.305115
	H382	H	-0.500499	1.304395	-0.305387
	H383	H	-0.491869	1.279512	-0.278123
	O384	O	0.498155	0.538648	0.466877
	H385	H	0.494236	0.548724	0.458989
	H386	H	0.510749	0.537773	0.476979
	O387	O	0.329622	1.454647	1.441752
	H388	H	0.334950	1.455967	1.436671
	H389	H	0.336721	1.450418	1.417250
	O390	O	-0.759167	0.908298	0.823726
	H391	H	-0.752812	0.901264	0.826159
	H392	H	-0.752094	0.899753	0.816182
	O393	O	1.020271	-0.048935	-0.119283
	H394	H	1.025688	-0.042176	-0.117443
	H395	H	1.020545	-0.049570	-0.110401
	O396	O	1.075424	-0.123539	0.881060
	H397	H	1.073547	-0.119687	0.875319
	H398	H	1.085351	-0.132817	0.872140
	O399	O	0.472678	0.427105	0.283379
	H400	H	0.487633	0.406494	0.280957
	H401	H	0.484310	0.426935	0.287668
	O402	O	0.879699	0.013466	1.076183
	H403	H	0.878622	0.019500	1.072827
	H404	H	0.892479	0.028416	1.088327
	O405	O	-0.187838	-0.166467	-0.004955
	H406	H	-0.190000	-0.151276	-0.018345
	H407	H	-0.197556	-0.179237	0.000481
	O408	O	1.047488	1.060346	1.138558
	H409	H	1.045464	1.056498	1.133957
	H410	H	1.073792	1.050313	1.142203
	O411	O	1.503738	0.327067	-0.666518
	H412	H	1.522486	0.317000	-0.676996
	H413	H	1.511298	0.335129	-0.653823
	O414	O	0.380815	-0.705122	0.618397
	H415	H	0.369229	-0.714909	0.572594
	H416	H	0.391805	-0.697745	0.630555
	O417	O	0.408995	-0.506444	0.703909
	H418	H	0.395417	-0.511641	0.709958
	H419	H	0.401051	-0.519545	0.699779
	O420	O	1.185354	0.161891	0.758694
	H421	H	1.194923	0.176560	0.768752
	H422	H	1.191058	0.167582	0.748546
	O423	O	0.722323	1.373289	0.290483
	H424	H	0.738918	1.359836	0.305303
	H425	H	0.699001	1.367957	0.299468
	O426	O	0.126805	0.913649	0.055739
	H427	H	0.124078	0.908335	0.070066
	H428	H	0.130857	0.909791	0.049028
	O429	O	0.614681	0.419404	0.491101
	H430	H	0.621438	0.416159	0.487174
	H431	H	0.598739	0.423127	0.481243
	O432	O	1.009069	0.186855	0.777765
	H433	H	0.998851	0.201465	0.773985
	H434	H	0.998565	0.182450	0.772858
	O435	O	0.497912	0.693776	0.286874
	H436	H	0.522287	0.692664	0.294764
	H437	H	0.507421	0.699248	0.273065
	O438	O	0.675966	0.508683	0.432091
	H439	H	0.679232	0.505837	0.447639
	H440	H	0.685975	0.509834	0.434667
	O441	O	0.816367	0.790272	0.195335
	H442	H	0.803043	0.783365	0.207660
	H443	H	0.822725	0.790396	0.179436
	O444	O	0.306057	0.269651	0.525564
	H445	H	0.303215	0.275026	0.520198
	H446	H	0.277844	0.256592	0.514233
	O447	O	0.091553	-0.131505	0.921027
	H448	H	0.088500	-0.127662	0.919330
	H449	H	0.102216	-0.131662	0.924371
	O450	O	0.660104	0.676708	0.338254
	H451	H	0.667610	0.655942	0.354785
	H452	H	0.642454	0.674442	0.362907
	O453	O	0.547775	0.274026	0.273518
	H454	H	0.557930	0.244507	0.260317
	H455	H	0.552814	0.272508	0.291076
	O456	O	0.758012	1.258449	0.384495
	H457	H	0.763990	1.254073	0.403348
	H458	H	0.761202	1.245662	0.387369
	O459	O	0.540126	0.620203	0.488781
	H460	H	0.540729	0.624390	0.497194
	H461	H	0.538832	0.620381	0.489228
	O462	O	0.736676	0.705077	0.525642
	H463	H	0.762989	0.732850	0.523627
	H464	H	0.730193	0.683548	0.530578
	O465	O	0.634446	0.451753	0.517631
	H466	H	0.629224	0.458661	0.533757
	H467	H	0.622760	0.447467	0.507576
	O468	O	0.024185	0.864773	0.125129
	H469	H	0.024143	0.873377	0.130037
	H470	H	0.007073	0.852432	0.116353
	O471	O	0.726993	0.293152	0.754241
	H472	H	0.739943	0.307537	0.773913
	H473	H	0.731335	0.284652	0.758890
	O474	O	0.799529	0.955383	-0.028422
	H475	H	0.797123	0.961000	-0.041618
	H476	H	0.803778	0.962230	-0.014371
	O477	O	-0.596433	0.406759	1.654441
	H478	H	-0.616843	0.401310	1.672627
	H479	H	-0.598463	0.423174	1.650889
