data_Molecule from HDF5

_cell_length_a		16.328472
_cell_length_b		16.269165
_cell_length_c		16.350685
_cell_angle_alpha	90.020934
_cell_angle_beta	90.020623
_cell_angle_gamma	89.921245
_symmetry_space_group_name_H-M	'P 1'
_symmetry_Int_Tables_number		1

loop_
	_symmetry_equiv_pos_as_xyz
	x,y,z

loop_
	_atom_site_label
	_atom_site_type_symbol
	_atom_site_fract_x
	_atom_site_fract_y
	_atom_site_fract_z
	H0	H	0.405050	0.841185	0.710352
	H1	H	0.601532	0.167873	0.711011
	H2	H	0.602734	0.841136	0.281298
	H3	H	0.405014	0.167874	0.281456
	H4	H	0.719317	0.405114	0.831895
	H5	H	0.719443	0.603235	0.158317
	H6	H	0.288351	0.603681	0.832244
	H7	H	0.289057	0.406152	0.157827
	H8	H	0.839958	0.718980	0.398532
	H9	H	0.167330	0.719060	0.593610
	H10	H	0.839746	0.291049	0.592125
	H11	H	0.167018	0.291077	0.398489
	H12	H	0.840465	0.406430	0.710432
	H13	H	0.167169	0.603487	0.710391
	H14	H	0.840330	0.604146	0.280297
	H15	H	0.166784	0.405779	0.280682
	H16	H	0.405694	0.719309	0.831852
	H17	H	0.600244	0.717182	0.159440
	H18	H	0.602411	0.288622	0.832359
	H19	H	0.407155	0.291868	0.158767
	H20	H	0.716721	0.840666	0.398342
	H21	H	0.718518	0.168276	0.595275
	H22	H	0.290215	0.840865	0.593184
	H23	H	0.289697	0.168075	0.397592
	H24	H	0.905509	0.341240	0.209540
	H25	H	0.102813	0.668489	0.210000
	H26	H	0.102746	0.341317	0.780195
	H27	H	0.905047	0.668568	0.779947
	H28	H	0.219299	0.904753	0.332792
	H29	H	0.218214	0.103145	0.658351
	H30	H	0.787829	0.103243	0.332449
	H31	H	0.788199	0.904998	0.658264
	H32	H	0.340190	0.219088	0.897467
	H33	H	0.666615	0.219868	0.094935
	H34	H	0.340084	0.791633	0.092313
	H35	H	0.667927	0.790725	0.899115
	H36	H	0.340619	0.906878	0.209739
	H37	H	0.666822	0.103934	0.211426
	H38	H	0.341879	0.105425	0.778711
	H39	H	0.667784	0.906377	0.781941
	H40	H	0.905428	0.218560	0.331818
	H41	H	0.099984	0.218103	0.658502
	H42	H	0.101222	0.789857	0.332744
	H43	H	0.906806	0.790687	0.658900
	H44	H	0.218929	0.340801	0.895446
	H45	H	0.217625	0.668784	0.092685
	H46	H	0.791220	0.340768	0.092566
	H47	H	0.789114	0.669102	0.896325
	H48	H	0.415925	0.118341	0.583964
	H49	H	0.599230	0.888153	0.587582
	H50	H	0.601085	0.119317	0.415074
	H51	H	0.401797	0.885783	0.404705
	H52	H	0.600528	0.423053	0.108742
	H53	H	0.598223	0.598279	0.878283
	H54	H	0.407143	0.600172	0.111818
	H55	H	0.405997	0.413486	0.878340
	H56	H	0.121208	0.597912	0.396011
	H57	H	0.886028	0.599273	0.592795
	H58	H	0.119655	0.415926	0.593374
	H59	H	0.886082	0.407448	0.401635
	H60	H	0.121851	0.405297	0.590258
	H61	H	0.888125	0.600701	0.585201
	H62	H	0.119655	0.601960	0.405727
	H63	H	0.888462	0.413377	0.403906
	H64	H	0.409361	0.595441	0.110478
	H65	H	0.596996	0.596101	0.879507
	H66	H	0.587435	0.406685	0.109227
	H67	H	0.414105	0.414991	0.881364
	H68	H	0.604547	0.126155	0.393042
	H69	H	0.597362	0.887249	0.590892
	H70	H	0.404875	0.121925	0.586079
	H71	H	0.413520	0.885379	0.393182
	H72	H	0.916235	0.617637	0.081433
	H73	H	0.097965	0.386924	0.094410
	H74	H	0.097047	0.621982	0.900480
	H75	H	0.904794	0.385913	0.897874
	H76	H	0.103721	0.914194	0.612534
	H77	H	0.097416	0.086693	0.382616
	H78	H	0.908666	0.088478	0.608592
	H79	H	0.908129	0.917329	0.380394
	H80	H	0.619987	0.099612	0.903651
	H81	H	0.387994	0.091765	0.095280
	H82	H	0.624411	0.900889	0.093587
	H83	H	0.386264	0.904760	0.903512
	H84	H	0.616051	0.911957	0.078955
	H85	H	0.385172	0.105601	0.090895
	H86	H	0.618376	0.095293	0.907274
	H87	H	0.391280	0.916184	0.906914
	H88	H	0.919268	0.100308	0.608441
	H89	H	0.088385	0.102627	0.380450
	H90	H	0.093127	0.915107	0.609381
	H91	H	0.915881	0.911356	0.381251
	H92	H	0.093728	0.618992	0.903505
	H93	H	0.091535	0.390715	0.086018
	H94	H	0.903038	0.623231	0.086574
	H95	H	0.919062	0.390360	0.898701
	H96	H	0.412686	0.122229	0.594959
	H97	H	0.595485	0.889188	0.588022
	H98	H	0.583221	0.118671	0.399754
	H99	H	0.417228	0.890656	0.408516
	H100	H	0.607019	0.404024	0.115200
	H101	H	0.595904	0.598588	0.880399
	H102	H	0.412424	0.599609	0.110848
	H103	H	0.411597	0.407435	0.878046
	H104	H	0.117119	0.592062	0.403414
	H105	H	0.889326	0.593541	0.588419
	H106	H	0.116772	0.413147	0.583144
	H107	H	0.886444	0.412636	0.397185
	H108	H	0.915046	0.622170	0.096173
	H109	H	0.102106	0.387854	0.084551
	H110	H	0.098508	0.620930	0.904644
	H111	H	0.910542	0.391229	0.910866
	H112	H	0.097102	0.905121	0.612747
	H113	H	0.106113	0.101322	0.374983
	H114	H	0.904735	0.103197	0.614430
	H115	H	0.907330	0.907171	0.378008
	H116	H	0.619673	0.094416	0.901124
	H117	H	0.391176	0.095826	0.081619
	H118	H	0.619960	0.920216	0.096624
	H119	H	0.386982	0.914425	0.894764
	C120	C	0.382533	0.013059	0.617044
	C121	C	0.625593	0.996289	0.617501
	C122	C	0.625096	0.013102	0.374195
	C123	C	0.382684	0.995737	0.374120
	C124	C	0.626033	0.382517	0.003063
	C125	C	0.625241	0.625813	0.987308
	C126	C	0.381475	0.626701	0.003284
	C127	C	0.382471	0.383700	0.987162
	C128	C	0.011533	0.626151	0.373590
	C129	C	0.995777	0.626250	0.617186
	C130	C	0.011585	0.382822	0.617283
	C131	C	0.995187	0.382933	0.373030
	C132	C	0.882772	0.512925	0.116641
	C133	C	0.125468	0.496642	0.116722
	C134	C	0.125138	0.512623	0.873592
	C135	C	0.882440	0.497066	0.873617
	C136	C	0.126015	0.882774	0.503831
	C137	C	0.125676	0.126045	0.486799
	C138	C	0.882278	0.125926	0.503184
	C139	C	0.881944	0.883288	0.487550
	C140	C	0.511759	0.125779	0.874603
	C141	C	0.495866	0.126349	0.117661
	C142	C	0.512283	0.882841	0.117704
	C143	C	0.496110	0.883017	0.873926
	C144	C	0.385202	0.889692	0.671853
	C145	C	0.622589	0.119436	0.672587
	C146	C	0.622790	0.889921	0.319265
	C147	C	0.385201	0.119251	0.319819
	C148	C	0.680889	0.384846	0.880439
	C149	C	0.680924	0.623448	0.109949
	C150	C	0.326703	0.623965	0.880589
	C151	C	0.327737	0.386546	0.109528
	C152	C	0.888580	0.681379	0.377333
	C153	C	0.118630	0.681131	0.614256
	C154	C	0.888795	0.328167	0.613631
	C155	C	0.118213	0.328582	0.377077
	C156	C	0.889041	0.385395	0.672351
	C157	C	0.118566	0.623957	0.672293
	C158	C	0.888859	0.624350	0.318634
	C159	C	0.118127	0.385778	0.318880
	C160	C	0.384901	0.681538	0.880578
	C161	C	0.621908	0.680076	0.110574
	C162	C	0.623164	0.326817	0.880627
	C163	C	0.386218	0.329465	0.110033
	C164	C	0.679717	0.889737	0.377091
	C165	C	0.680616	0.119281	0.615314
	C166	C	0.327847	0.889667	0.614108
	C167	C	0.328019	0.119308	0.377499
	C168	C	0.885129	0.389889	0.171690
	C169	C	0.123026	0.619635	0.171997
	C170	C	0.122924	0.389730	0.818413
	C171	C	0.884883	0.620012	0.818335
	C172	C	0.180699	0.885110	0.381274
	C173	C	0.180395	0.123556	0.609584
	C174	C	0.826315	0.123768	0.380774
	C175	C	0.826662	0.885205	0.609914
	C176	C	0.389062	0.181375	0.876683
	C177	C	0.618077	0.181898	0.115422
	C178	C	0.388860	0.829010	0.113705
	C179	C	0.619186	0.828337	0.877832
	C180	C	0.389243	0.886145	0.172013
	C181	C	0.618133	0.124079	0.173294
	C182	C	0.389882	0.124796	0.817836
	C183	C	0.619197	0.885500	0.819430
	C184	C	0.884870	0.180731	0.380328
	C185	C	0.121921	0.180706	0.609640
	C186	C	0.122183	0.827952	0.381190
	C187	C	0.885723	0.828580	0.610275
	C188	C	0.180730	0.389683	0.875658
	C189	C	0.180096	0.619915	0.113719
	C190	C	0.828077	0.389797	0.113721
	C191	C	0.827062	0.620122	0.875720
	C192	C	0.404695	0.098646	0.594940
	C193	C	0.603618	0.910375	0.595492
	C194	C	0.602981	0.099309	0.396286
	C195	C	0.404423	0.909572	0.395634
	C196	C	0.604656	0.404738	0.088885
	C197	C	0.603600	0.604148	0.901529
	C198	C	0.403150	0.604734	0.088993
	C199	C	0.404219	0.405471	0.901364
	C200	C	0.097196	0.603820	0.395392
	C201	C	0.910070	0.604224	0.595380
	C202	C	0.097334	0.405037	0.595486
	C203	C	0.909148	0.404760	0.394574
	C204	C	0.904775	0.598885	0.094588
	C205	C	0.103695	0.410652	0.094780
	C206	C	0.102978	0.598566	0.896102
	C207	C	0.904918	0.411427	0.895795
	C208	C	0.104254	0.905021	0.589520
	C209	C	0.103965	0.103602	0.401318
	C210	C	0.904359	0.103879	0.588579
	C211	C	0.903812	0.905506	0.401982
	C212	C	0.597142	0.103008	0.897310
	C213	C	0.410170	0.104316	0.095598
	C214	C	0.598027	0.904560	0.096151
	C215	C	0.410416	0.905236	0.895402
	Zn216	Zn	0.504351	0.004353	0.745584
	Zn217	Zn	0.503962	0.004495	0.246495
	Zn218	Zn	0.754401	0.504785	-0.004979
	Zn219	Zn	0.253351	0.504912	-0.005059
	Zn220	Zn	0.003898	0.754634	0.495864
	Zn221	Zn	0.003859	0.254487	0.494966
	Zn222	Zn	0.004003	0.505097	0.745353
	Zn223	Zn	0.003407	0.504715	0.244923
	Zn224	Zn	0.503839	0.754656	-0.004149
	Zn225	Zn	0.503539	0.254448	-0.004540
	Zn226	Zn	0.753266	0.005017	0.495305
	Zn227	Zn	0.254580	0.004405	0.495164
	N228	N	0.418590	0.967372	0.673896
	N229	N	0.589444	0.041800	0.674184
	N230	N	0.589384	0.967555	0.317603
	N231	N	0.418322	0.041517	0.317624
	N232	N	0.682593	0.418809	0.957515
	N233	N	0.683082	0.590305	0.032416
	N234	N	0.324553	0.590588	0.957774
	N235	N	0.325250	0.419429	0.031944
	N236	N	0.965833	0.682686	0.410791
	N237	N	0.041344	0.682577	0.580628
	N238	N	0.966206	0.326503	0.580120
	N239	N	0.040884	0.326785	0.410146
	N240	N	0.966361	0.418575	0.674713
	N241	N	0.041002	0.590667	0.674215
	N242	N	0.966288	0.590844	0.316193
	N243	N	0.040427	0.418781	0.316180
	N244	N	0.418151	0.683377	0.957959
	N245	N	0.588043	0.681522	0.033518
	N246	N	0.589507	0.325419	0.957913
	N247	N	0.419622	0.327727	0.032809
	N248	N	0.681103	0.967356	0.410808
	N249	N	0.682268	0.041746	0.581601
	N250	N	0.326143	0.967085	0.580561
	N251	N	0.326229	0.041450	0.410487
	N252	N	0.918409	0.467445	0.173339
	N253	N	0.089491	0.542085	0.173604
	N254	N	0.089175	0.467266	0.817037
	N255	N	0.918763	0.542522	0.817069
	N256	N	0.183301	0.918367	0.458605
	N257	N	0.182977	0.090405	0.532062
	N258	N	0.824811	0.090212	0.457859
	N259	N	0.824500	0.918671	0.532642
	N260	N	0.465973	0.182094	0.911204
	N261	N	0.541072	0.183347	0.081443
	N262	N	0.466280	0.826783	0.080587
	N263	N	0.541783	0.826968	0.911117
	N264	N	0.466866	0.918721	0.174690
	N265	N	0.541005	0.090054	0.174493
	N266	N	0.467107	0.090741	0.816526
	N267	N	0.541592	0.918810	0.816816
	N268	N	0.918840	0.182357	0.457495
	N269	N	0.088573	0.182245	0.532402
	N270	N	0.088824	0.826567	0.458356
	N271	N	0.919420	0.827335	0.533206
	N272	N	0.182051	0.467225	0.909340
	N273	N	0.181674	0.542500	0.079870
	N274	N	0.826647	0.467218	0.079867
	N275	N	0.825527	0.542722	0.909632
	O276	O	0.995461	0.066012	0.973461
	H277	H	0.992347	0.069489	0.977365
	H278	H	0.997040	0.068605	0.965376
	O279	O	-0.040217	0.073841	0.958934
	H280	H	-0.045840	0.081352	0.953396
	H281	H	-0.040130	0.067748	0.963677
	O282	O	1.000771	1.062754	-0.053564
	H283	H	1.007509	1.060599	-0.050375
	H284	H	0.998004	1.064738	-0.049502
	O285	O	-0.031740	0.040956	0.958909
	H286	H	-0.021391	0.038639	0.958917
	H287	H	-0.037316	0.041756	0.953731
