data_Molecule from HDF5

_cell_length_a		16.248379
_cell_length_b		16.347834
_cell_length_c		16.308288
_cell_angle_alpha	89.926430
_cell_angle_beta	89.937996
_cell_angle_gamma	89.988987
_symmetry_space_group_name_H-M	'P 1'
_symmetry_Int_Tables_number		1

loop_
	_symmetry_equiv_pos_as_xyz
	x,y,z

loop_
	_atom_site_label
	_atom_site_type_symbol
	_atom_site_fract_x
	_atom_site_fract_y
	_atom_site_fract_z
	H0	H	0.399989	0.846321	0.718671
	H1	H	0.596494	0.172665	0.719014
	H2	H	0.596871	0.846455	0.289749
	H3	H	0.396971	0.171849	0.287183
	H4	H	0.711385	0.412111	0.840186
	H5	H	0.710387	0.605610	0.167437
	H6	H	0.284096	0.607357	0.839760
	H7	H	0.283977	0.412052	0.167654
	H8	H	0.835100	0.725171	0.404368
	H9	H	0.161701	0.724624	0.602030
	H10	H	0.834755	0.294203	0.602390
	H11	H	0.161279	0.294548	0.403764
	H12	H	0.833661	0.411076	0.717120
	H13	H	0.161350	0.608554	0.717797
	H14	H	0.833692	0.607028	0.290739
	H15	H	0.161872	0.411717	0.289163
	H16	H	0.397686	0.726356	0.841703
	H17	H	0.596500	0.723364	0.167233
	H18	H	0.598517	0.293325	0.841733
	H19	H	0.400014	0.295608	0.167973
	H20	H	0.713028	0.846158	0.406190
	H21	H	0.711750	0.173326	0.600782
	H22	H	0.284191	0.846177	0.601915
	H23	H	0.284494	0.172922	0.406480
	H24	H	0.899716	0.346609	0.217931
	H25	H	0.095882	0.673054	0.217950
	H26	H	0.096510	0.346422	0.788267
	H27	H	0.899132	0.672624	0.787959
	H28	H	0.212388	0.911673	0.340173
	H29	H	0.210362	0.106592	0.667429
	H30	H	0.783555	0.107834	0.340203
	H31	H	0.785056	0.911956	0.667493
	H32	H	0.333706	0.223080	0.906511
	H33	H	0.661432	0.224067	0.103489
	H34	H	0.334263	0.794770	0.102981
	H35	H	0.661730	0.794786	0.906338
	H36	H	0.334261	0.911907	0.217777
	H37	H	0.662556	0.105908	0.217219
	H38	H	0.333863	0.107062	0.790274
	H39	H	0.662032	0.911131	0.790126
	H40	H	0.899402	0.224592	0.340233
	H41	H	0.096788	0.224739	0.665789
	H42	H	0.097204	0.795060	0.340801
	H43	H	0.899305	0.794908	0.666650
	H44	H	0.211567	0.346180	0.905826
	H45	H	0.212153	0.673071	0.100084
	H46	H	0.784854	0.346158	0.100240
	H47	H	0.784264	0.673461	0.906211
	H48	H	0.412375	0.123397	0.597640
	H49	H	0.586546	0.895682	0.597292
	H50	H	0.589966	0.124529	0.409798
	H51	H	0.407065	0.895945	0.415840
	H52	H	0.590799	0.418237	0.119955
	H53	H	0.592431	0.603295	0.886536
	H54	H	0.406934	0.600845	0.119254
	H55	H	0.406132	0.422616	0.889925
	H56	H	0.116413	0.601558	0.403283
	H57	H	0.878824	0.608943	0.599426
	H58	H	0.111847	0.427060	0.595697
	H59	H	0.880016	0.408486	0.414762
	H60	H	0.118400	0.412294	0.604660
	H61	H	0.883574	0.604016	0.588751
	H62	H	0.116652	0.609934	0.413045
	H63	H	0.884092	0.423594	0.414593
	H64	H	0.404237	0.603360	0.120545
	H65	H	0.590474	0.600543	0.887895
	H66	H	0.589623	0.413200	0.120257
	H67	H	0.411650	0.410893	0.888357
	H68	H	0.590351	0.125143	0.410995
	H69	H	0.596047	0.893266	0.593824
	H70	H	0.400769	0.125136	0.590864
	H71	H	0.399845	0.892007	0.410727
	H72	H	0.908796	0.624315	0.096505
	H73	H	0.092655	0.393321	0.097807
	H74	H	0.079753	0.622394	0.909221
	H75	H	0.898553	0.391099	0.908196
	H76	H	0.093548	0.917408	0.620486
	H77	H	0.098537	0.114236	0.380895
	H78	H	0.904520	0.100841	0.619840
	H79	H	0.900717	0.913339	0.385101
	H80	H	0.614400	0.095883	0.906500
	H81	H	0.384278	0.097755	0.091044
	H82	H	0.617835	0.904000	0.096186
	H83	H	0.380486	0.915702	0.911103
	H84	H	0.610981	0.920751	0.089297
	H85	H	0.381042	0.098606	0.103752
	H86	H	0.617546	0.109483	0.909315
	H87	H	0.381412	0.916012	0.912388
	H88	H	0.907676	0.104423	0.619251
	H89	H	0.097786	0.091216	0.387848
	H90	H	0.088550	0.917348	0.618317
	H91	H	0.905009	0.923487	0.388930
	H92	H	0.096019	0.623129	0.919626
	H93	H	0.089720	0.393888	0.098210
	H94	H	0.899487	0.626004	0.093426
	H95	H	0.909189	0.394086	0.904770
	H96	H	0.401605	0.129124	0.603945
	H97	H	0.593556	0.891303	0.603763
	H98	H	0.591410	0.124955	0.410602
	H99	H	0.408825	0.893129	0.406621
	H100	H	0.594353	0.414408	0.121869
	H101	H	0.588970	0.603625	0.887533
	H102	H	0.403372	0.600207	0.119413
	H103	H	0.398138	0.412625	0.884645
	H104	H	0.112098	0.598192	0.414656
	H105	H	0.882004	0.596107	0.598737
	H106	H	0.112929	0.411137	0.586668
	H107	H	0.878425	0.416442	0.401285
	H108	H	0.902063	0.628391	0.102674
	H109	H	0.090697	0.394462	0.095222
	H110	H	0.096121	0.630237	0.901120
	H111	H	0.905985	0.396063	0.915954
	H112	H	0.090635	0.913053	0.620606
	H113	H	0.078495	0.104970	0.390619
	H114	H	0.902715	0.105420	0.620630
	H115	H	0.911912	0.913839	0.388816
	H116	H	0.611620	0.101354	0.919537
	H117	H	0.379376	0.109165	0.095795
	H118	H	0.616880	0.919335	0.107348
	H119	H	0.381333	0.917151	0.911363
	C120	C	0.376320	0.017808	0.625655
	C121	C	0.619981	1.001314	0.626012
	C122	C	0.619616	0.017372	0.382174
	C123	C	0.376500	1.001318	0.382197
	C124	C	0.619933	0.387373	0.012652
	C125	C	0.619160	0.630412	0.995276
	C126	C	0.376116	0.630779	0.011814
	C127	C	0.376369	0.387396	0.995634
	C128	C	0.006640	0.631275	0.382061
	C129	C	0.989834	0.631358	0.624361
	C130	C	0.005902	0.388359	0.624366
	C131	C	0.989455	0.388477	0.382225
	C132	C	0.875377	0.518201	0.125641
	C133	C	0.119557	0.501731	0.125352
	C134	C	0.119260	0.517809	0.881191
	C135	C	0.876146	0.501568	0.881278
	C136	C	0.119964	0.887356	0.512190
	C137	C	0.119919	0.131583	0.494645
	C138	C	0.876661	0.131432	0.511782
	C139	C	0.877155	0.888283	0.495483
	C140	C	0.506174	0.130520	0.883015
	C141	C	0.489923	0.130208	0.125325
	C142	C	0.506822	0.887128	0.125884
	C143	C	0.489373	0.887860	0.883242
	C144	C	0.379212	0.895122	0.680939
	C145	C	0.617533	0.123982	0.681326
	C146	C	0.617238	0.894989	0.327387
	C147	C	0.378017	0.123499	0.326115
	C148	C	0.674608	0.390466	0.889370
	C149	C	0.673201	0.626911	0.118508
	C150	C	0.321514	0.628293	0.888863
	C151	C	0.321418	0.390869	0.118787
	C152	C	0.883594	0.686711	0.384244
	C153	C	0.112795	0.686871	0.622442
	C154	C	0.883284	0.332579	0.622435
	C155	C	0.112727	0.333085	0.384100
	C156	C	0.882551	0.391041	0.679203
	C157	C	0.112669	0.629109	0.679736
	C158	C	0.882980	0.628425	0.327427
	C159	C	0.112982	0.391327	0.327207
	C160	C	0.378038	0.687116	0.889696
	C161	C	0.616538	0.685288	0.118390
	C162	C	0.618017	0.332051	0.889975
	C163	C	0.378987	0.332922	0.118851
	C164	C	0.674933	0.894863	0.385294
	C165	C	0.674271	0.124403	0.622267
	C166	C	0.321645	0.895066	0.622915
	C167	C	0.321646	0.123974	0.384960
	C168	C	0.878859	0.395369	0.180165
	C169	C	0.116467	0.624383	0.179938
	C170	C	0.116815	0.395124	0.826013
	C171	C	0.878604	0.624196	0.826206
	C172	C	0.174945	0.890741	0.389228
	C173	C	0.173351	0.127803	0.618248
	C174	C	0.821330	0.128733	0.388946
	C175	C	0.822632	0.891344	0.618641
	C176	C	0.382832	0.185424	0.885850
	C177	C	0.612850	0.185904	0.123755
	C178	C	0.383103	0.832718	0.123415
	C179	C	0.612897	0.832696	0.885791
	C180	C	0.383226	0.890863	0.180270
	C181	C	0.613418	0.127221	0.180158
	C182	C	0.382536	0.127467	0.828479
	C183	C	0.613215	0.890794	0.828474
	C184	C	0.878996	0.186494	0.388964
	C185	C	0.117266	0.186769	0.617140
	C186	C	0.117480	0.833050	0.389388
	C187	C	0.879317	0.832989	0.618111
	C188	C	0.174080	0.394834	0.884466
	C189	C	0.174076	0.624539	0.121421
	C190	C	0.822044	0.394953	0.121440
	C191	C	0.821312	0.624526	0.884709
	C192	C	0.398304	0.103503	0.603827
	C193	C	0.598301	0.915669	0.604750
	C194	C	0.597153	0.102950	0.404180
	C195	C	0.398711	0.915736	0.404343
	C196	C	0.598059	0.408974	0.098465
	C197	C	0.597220	0.608738	0.909483
	C198	C	0.398210	0.608080	0.097532
	C199	C	0.398607	0.409156	0.909839
	C200	C	0.092665	0.609604	0.403767
	C201	C	0.903752	0.609562	0.602031
	C202	C	0.092200	0.410458	0.602255
	C203	C	0.903291	0.409861	0.403792
	C204	C	0.896996	0.604152	0.103862
	C205	C	0.097654	0.415930	0.103468
	C206	C	0.097006	0.603274	0.903307
	C207	C	0.898038	0.416013	0.903140
	C208	C	0.097628	0.909550	0.597903
	C209	C	0.098239	0.109709	0.408698
	C210	C	0.898380	0.109766	0.597774
	C211	C	0.899410	0.910278	0.409586
	C212	C	0.592262	0.108575	0.905168
	C213	C	0.403808	0.108443	0.103286
	C214	C	0.593192	0.908410	0.104104
	C215	C	0.403214	0.909758	0.904981
	Zn216	Zn	0.498278	0.009289	0.754470
	Zn217	Zn	0.498015	0.009099	0.253446
	Zn218	Zn	0.747432	0.509416	0.003483
	Zn219	Zn	0.247816	0.509188	0.003021
	Zn220	Zn	-0.001909	0.759532	0.503601
	Zn221	Zn	-0.001812	0.260040	0.502852
	Zn222	Zn	-0.002558	0.509973	0.752527
	Zn223	Zn	-0.002016	0.509775	0.253968
	Zn224	Zn	0.497934	0.758861	0.004460
	Zn225	Zn	0.498411	0.258917	0.004223
	Zn226	Zn	0.748794	0.009549	0.503855
	Zn227	Zn	0.247646	0.009864	0.503650
	N228	N	0.412633	0.972387	0.682871
	N229	N	0.584297	0.046519	0.683556
	N230	N	0.583622	0.972181	0.325251
	N231	N	0.411411	0.046056	0.324338
	N232	N	0.675827	0.424165	0.966438
	N233	N	0.674788	0.593555	0.041108
	N234	N	0.320591	0.593655	0.965824
	N235	N	0.319517	0.423971	0.041138
	N236	N	0.961266	0.688565	0.417560
	N237	N	0.035259	0.688195	0.588735
	N238	N	0.961062	0.330919	0.589179
	N239	N	0.034970	0.331194	0.417515
	N240	N	0.960068	0.425183	0.680375
	N241	N	0.035196	0.595442	0.681300
	N242	N	0.960337	0.594475	0.326127
	N243	N	0.035591	0.425292	0.326069
	N244	N	0.410918	0.688982	0.967295
	N245	N	0.583560	0.687673	0.040779
	N246	N	0.584666	0.329931	0.967507
	N247	N	0.412218	0.330395	0.041299
	N248	N	0.676349	0.972077	0.418841
	N249	N	0.675846	0.047250	0.588631
	N250	N	0.319744	0.972318	0.589377
	N251	N	0.320734	0.047169	0.419446
	N252	N	0.911476	0.472994	0.182689
	N253	N	0.083497	0.546819	0.182353
	N254	N	0.083377	0.472587	0.824078
	N255	N	0.911591	0.546905	0.823827
	N256	N	0.176384	0.924036	0.466706
	N257	N	0.175280	0.094327	0.540869
	N258	N	0.819957	0.095035	0.466320
	N259	N	0.821135	0.925096	0.541325
	N260	N	0.460697	0.187263	0.919108
	N261	N	0.535237	0.187838	0.090368
	N262	N	0.461017	0.830119	0.090509
	N263	N	0.535043	0.830842	0.919157
	N264	N	0.460978	0.923747	0.181920
	N265	N	0.535995	0.093220	0.181065
	N266	N	0.460205	0.094187	0.826608
	N267	N	0.535508	0.924228	0.826552
	N268	N	0.912592	0.188236	0.466290
	N269	N	0.084740	0.188943	0.539460
	N270	N	0.084000	0.830980	0.466692
	N271	N	0.912553	0.831241	0.540557
	N272	N	0.175662	0.471848	0.917970
	N273	N	0.175898	0.547211	0.088113
	N274	N	0.819723	0.472475	0.088418
	N275	N	0.819768	0.547312	0.918430
	O276	O	-0.226269	-0.258032	1.263436
	H277	H	-0.226797	-0.248925	1.261230
	H278	H	-0.224412	-0.259811	1.263256
	O279	O	0.444703	0.502621	0.493319
	H280	H	0.439463	0.498103	0.494193
	H281	H	0.443796	0.507347	0.505736
	O282	O	0.442796	0.539843	0.521564
	H283	H	0.436256	0.542693	0.521181
	H284	H	0.450639	0.537921	0.519230
	O285	O	0.485559	0.491492	0.517179
	H286	H	0.488433	0.497488	0.515870
	H287	H	0.487437	0.488992	0.513485
	O288	O	0.487522	0.538081	0.483330
	H289	H	0.490597	0.535501	0.483279
	H290	H	0.481529	0.539662	0.473150
	O291	O	0.428520	0.510607	0.446909
	H292	H	0.434009	0.506974	0.448060
	H293	H	0.424259	0.517989	0.441630
	O294	O	0.470949	0.513876	0.492328
	H295	H	0.459354	0.504848	0.493288
	H296	H	0.470667	0.518705	0.495518
	O297	O	1.436519	-0.463916	-0.484297
	H298	H	1.425590	-0.464212	-0.482312
	H299	H	1.440434	-0.465287	-0.481220
