data_Molecule from HDF5

_cell_length_a		16.222469
_cell_length_b		16.278065
_cell_length_c		16.298227
_cell_angle_alpha	89.424385
_cell_angle_beta	90.304598
_cell_angle_gamma	89.586861
_symmetry_space_group_name_H-M	'P 1'
_symmetry_Int_Tables_number		1

loop_
	_symmetry_equiv_pos_as_xyz
	x,y,z

loop_
	_atom_site_label
	_atom_site_type_symbol
	_atom_site_fract_x
	_atom_site_fract_y
	_atom_site_fract_z
	H0	H	0.405913	0.840802	0.714740
	H1	H	0.604319	0.167131	0.710967
	H2	H	0.604417	0.839664	0.284509
	H3	H	0.402077	0.166110	0.277608
	H4	H	0.721520	0.405279	0.833790
	H5	H	0.721667	0.598033	0.160757
	H6	H	0.288393	0.606512	0.835356
	H7	H	0.293460	0.402579	0.161983
	H8	H	0.841075	0.718716	0.395976
	H9	H	0.169337	0.715418	0.595921
	H10	H	0.840865	0.289854	0.596780
	H11	H	0.168572	0.288138	0.400598
	H12	H	0.841702	0.404539	0.712811
	H13	H	0.169562	0.600923	0.712887
	H14	H	0.841965	0.604102	0.280414
	H15	H	0.169753	0.403245	0.286066
	H16	H	0.404739	0.721621	0.834840
	H17	H	0.608098	0.716850	0.161133
	H18	H	0.605874	0.289222	0.833754
	H19	H	0.409120	0.286022	0.160273
	H20	H	0.720205	0.839934	0.401312
	H21	H	0.720021	0.166500	0.596059
	H22	H	0.292869	0.839343	0.596788
	H23	H	0.287476	0.166634	0.395010
	H24	H	0.907858	0.340199	0.214102
	H25	H	0.105883	0.666537	0.213355
	H26	H	0.106775	0.338771	0.785741
	H27	H	0.905450	0.666563	0.780403
	H28	H	0.218601	0.906051	0.333269
	H29	H	0.219644	0.098007	0.660563
	H30	H	0.787804	0.104412	0.334354
	H31	H	0.793538	0.904963	0.661529
	H32	H	0.342728	0.222071	0.894938
	H33	H	0.670511	0.213485	0.095363
	H34	H	0.342340	0.787994	0.096892
	H35	H	0.669420	0.788545	0.900265
	H36	H	0.341313	0.903053	0.211302
	H37	H	0.668637	0.101784	0.214456
	H38	H	0.341220	0.106413	0.780074
	H39	H	0.669375	0.904000	0.783782
	H40	H	0.901522	0.222904	0.334558
	H41	H	0.104109	0.214592	0.661138
	H42	H	0.104250	0.789479	0.333144
	H43	H	0.906429	0.785490	0.660119
	H44	H	0.222077	0.340201	0.902801
	H45	H	0.219470	0.667384	0.095628
	H46	H	0.795030	0.339337	0.095973
	H47	H	0.789897	0.667103	0.895889
	H48	H	0.413567	0.118708	0.584133
	H49	H	0.592663	0.888815	0.591587
	H50	H	0.598796	0.120283	0.403032
	H51	H	0.405698	0.885581	0.405765
	H52	H	0.596779	0.411182	0.111118
	H53	H	0.590141	0.618778	0.876949
	H54	H	0.414551	0.598754	0.114866
	H55	H	0.408205	0.411352	0.880215
	H56	H	0.123409	0.590482	0.396504
	H57	H	0.887798	0.597814	0.589508
	H58	H	0.123255	0.413905	0.599198
	H59	H	0.887619	0.405788	0.411933
	H60	H	0.125397	0.399089	0.593970
	H61	H	0.890126	0.595114	0.585664
	H62	H	0.124888	0.604890	0.405774
	H63	H	0.891231	0.422562	0.406420
	H64	H	0.411278	0.594950	0.113925
	H65	H	0.617751	0.591157	0.877720
	H66	H	0.599929	0.401562	0.115099
	H67	H	0.413963	0.419615	0.884095
	H68	H	0.592109	0.119797	0.400679
	H69	H	0.603983	0.886988	0.588129
	H70	H	0.407674	0.121142	0.587479
	H71	H	0.414990	0.885840	0.398792
	H72	H	0.907315	0.623175	0.093754
	H73	H	0.099871	0.385474	0.100677
	H74	H	0.103893	0.622169	0.903771
	H75	H	0.921998	0.386096	0.897238
	H76	H	0.094552	0.903088	0.613862
	H77	H	0.094044	0.092251	0.383283
	H78	H	0.919489	0.099818	0.612082
	H79	H	0.900416	0.918576	0.379713
	H80	H	0.619800	0.090315	0.905005
	H81	H	0.387666	0.097237	0.089801
	H82	H	0.622340	0.909871	0.092488
	H83	H	0.389917	0.914573	0.907488
	H84	H	0.622836	0.909222	0.092495
	H85	H	0.389583	0.097563	0.083261
	H86	H	0.624482	0.096055	0.896565
	H87	H	0.388365	0.914986	0.902779
	H88	H	0.906067	0.100879	0.616743
	H89	H	0.091501	0.102553	0.380500
	H90	H	0.104737	0.907624	0.614657
	H91	H	0.921943	0.917655	0.386202
	H92	H	0.092704	0.620276	0.896949
	H93	H	0.094301	0.389917	0.087970
	H94	H	0.921157	0.618288	0.092392
	H95	H	0.916966	0.391309	0.915392
	H96	H	0.413212	0.120344	0.591077
	H97	H	0.600418	0.884455	0.599134
	H98	H	0.593760	0.118144	0.407150
	H99	H	0.416122	0.888894	0.409240
	H100	H	0.607263	0.408587	0.114984
	H101	H	0.582416	0.582167	0.890361
	H102	H	0.416289	0.593673	0.112631
	H103	H	0.419547	0.409608	0.881826
	H104	H	0.118223	0.590851	0.413491
	H105	H	0.889663	0.592323	0.590407
	H106	H	0.119600	0.410492	0.584016
	H107	H	0.885175	0.411188	0.395420
	H108	H	0.912132	0.617687	0.081420
	H109	H	0.108498	0.385569	0.089305
	H110	H	0.093283	0.616982	0.909778
	H111	H	0.902648	0.382791	0.903500
	H112	H	0.096226	0.913206	0.610384
	H113	H	0.102018	0.098800	0.378407
	H114	H	0.911129	0.088938	0.611889
	H115	H	0.911889	0.899632	0.376946
	H116	H	0.622842	0.100758	0.906254
	H117	H	0.390449	0.091475	0.086969
	H118	H	0.622943	0.909002	0.091081
	H119	H	0.387764	0.910340	0.904665
	C120	C	0.383548	0.012125	0.617915
	C121	C	0.626909	0.995081	0.620036
	C122	C	0.625297	0.011854	0.375957
	C123	C	0.382470	0.994622	0.374610
	C124	C	0.629140	0.380350	0.005661
	C125	C	0.627018	0.624716	0.989432
	C126	C	0.383978	0.626183	0.006234
	C127	C	0.385966	0.383005	0.989703
	C128	C	0.013973	0.625101	0.375113
	C129	C	0.997033	0.623859	0.618486
	C130	C	0.013966	0.380926	0.620189
	C131	C	0.996491	0.383060	0.376889
	C132	C	0.885393	0.511880	0.118720
	C133	C	0.128651	0.495152	0.120654
	C134	C	0.127162	0.511597	0.876449
	C135	C	0.884063	0.494611	0.875240
	C136	C	0.126822	0.880724	0.504976
	C137	C	0.125772	0.124682	0.488897
	C138	C	0.882104	0.126277	0.505903
	C139	C	0.883660	0.882209	0.488933
	C140	C	0.514109	0.125971	0.873743
	C141	C	0.497494	0.123354	0.116962
	C142	C	0.514246	0.880820	0.119988
	C143	C	0.497197	0.883374	0.876487
	C144	C	0.385815	0.889512	0.675832
	C145	C	0.623924	0.118369	0.673237
	C146	C	0.624491	0.888493	0.322223
	C147	C	0.382905	0.117539	0.317056
	C148	C	0.683501	0.384575	0.882469
	C149	C	0.683232	0.619586	0.112278
	C150	C	0.327179	0.625993	0.883829
	C151	C	0.331140	0.383231	0.112844
	C152	C	0.890378	0.681102	0.375822
	C153	C	0.120452	0.678241	0.616532
	C154	C	0.890201	0.327059	0.617267
	C155	C	0.119820	0.326381	0.380224
	C156	C	0.890705	0.383654	0.675495
	C157	C	0.120466	0.621346	0.674865
	C158	C	0.890919	0.624193	0.318078
	C159	C	0.120223	0.383701	0.323059
	C160	C	0.384900	0.683292	0.883720
	C161	C	0.626953	0.678921	0.112127
	C162	C	0.626289	0.326548	0.882489
	C163	C	0.388276	0.324854	0.111974
	C164	C	0.681603	0.888509	0.380411
	C165	C	0.681575	0.117975	0.616152
	C166	C	0.329705	0.888637	0.616980
	C167	C	0.325816	0.117645	0.375225
	C168	C	0.888204	0.388891	0.175267
	C169	C	0.125899	0.617765	0.175430
	C170	C	0.126030	0.388205	0.823251
	C171	C	0.885180	0.617722	0.818623
	C172	C	0.181147	0.884851	0.382157
	C173	C	0.181824	0.119518	0.611733
	C174	C	0.825385	0.125258	0.383239
	C175	C	0.830249	0.884032	0.612340
	C176	C	0.391384	0.183694	0.875128
	C177	C	0.621304	0.176646	0.115543
	C178	C	0.391252	0.825517	0.117158
	C179	C	0.620384	0.826839	0.879386
	C180	C	0.390558	0.883033	0.173870
	C181	C	0.620091	0.121357	0.175046
	C182	C	0.390723	0.126141	0.817845
	C183	C	0.620314	0.884597	0.821757
	C184	C	0.882337	0.183788	0.383371
	C185	C	0.124188	0.177483	0.612070
	C186	C	0.124390	0.826719	0.382232
	C187	C	0.886485	0.824767	0.611680
	C188	C	0.183731	0.388775	0.881095
	C189	C	0.182487	0.618250	0.116846
	C190	C	0.832187	0.388203	0.116436
	C191	C	0.828043	0.618113	0.876450
	C192	C	0.405206	0.097811	0.594397
	C193	C	0.605446	0.909070	0.599157
	C194	C	0.601666	0.097306	0.397328
	C195	C	0.405556	0.908990	0.397814
	C196	C	0.607788	0.401069	0.091385
	C197	C	0.603615	0.603568	0.903704
	C198	C	0.407213	0.602645	0.091838
	C199	C	0.407478	0.406766	0.904246
	C200	C	0.099934	0.602018	0.398371
	C201	C	0.911308	0.601657	0.595169
	C202	C	0.100354	0.401948	0.598790
	C203	C	0.910241	0.406261	0.398470
	C204	C	0.906955	0.597448	0.095710
	C205	C	0.107283	0.409171	0.099011
	C206	C	0.103580	0.597598	0.897389
	C207	C	0.907056	0.408878	0.898585
	C208	C	0.104961	0.901711	0.591027
	C209	C	0.102561	0.104044	0.402859
	C210	C	0.905369	0.103295	0.591427
	C211	C	0.905072	0.905121	0.403071
	C212	C	0.600336	0.102567	0.896163
	C213	C	0.411341	0.101651	0.093548
	C214	C	0.600546	0.903003	0.098504
	C215	C	0.410718	0.906630	0.898541
	Zn216	Zn	0.504778	0.004396	0.747116
	Zn217	Zn	0.504439	0.002799	0.246546
	Zn218	Zn	0.756663	0.502831	-0.002796
	Zn219	Zn	0.256602	0.504070	-0.001467
	Zn220	Zn	0.005450	0.752743	0.496560
	Zn221	Zn	0.004633	0.254203	0.497629
	Zn222	Zn	0.005423	0.502778	0.747643
	Zn223	Zn	0.006221	0.503504	0.248047
	Zn224	Zn	0.505585	0.754360	-0.001459
	Zn225	Zn	0.506928	0.252624	-0.003337
	Zn226	Zn	0.754075	0.003401	0.497686
	Zn227	Zn	0.254669	0.002482	0.496780
	N228	N	0.418703	0.967289	0.676534
	N229	N	0.590666	0.040892	0.675734
	N230	N	0.589978	0.965917	0.319589
	N231	N	0.417252	0.039989	0.316367
	N232	N	0.685387	0.417322	0.959840
	N233	N	0.683388	0.586546	0.034925
	N234	N	0.326495	0.591129	0.961071
	N235	N	0.329643	0.418823	0.035866
	N236	N	0.967885	0.681878	0.410587
	N237	N	0.042797	0.679799	0.582033
	N238	N	0.967729	0.325153	0.583733
	N239	N	0.041705	0.325769	0.412754
	N240	N	0.968605	0.416644	0.677319
	N241	N	0.042703	0.588130	0.676112
	N242	N	0.968631	0.589908	0.317662
	N243	N	0.042590	0.418284	0.320958
	N244	N	0.419695	0.683187	0.960882
	N245	N	0.592650	0.682060	0.034766
	N246	N	0.593141	0.323993	0.959927
	N247	N	0.421841	0.324778	0.034696
	N248	N	0.682440	0.966266	0.412989
	N249	N	0.683430	0.040316	0.583735
	N250	N	0.328104	0.965825	0.581777
	N251	N	0.325479	0.040379	0.410336
	N252	N	0.920709	0.466499	0.176473
	N253	N	0.093373	0.540042	0.177919
	N254	N	0.091561	0.465736	0.820157
	N255	N	0.919095	0.540060	0.817734
	N256	N	0.182492	0.917861	0.459511
	N257	N	0.182847	0.087524	0.533838
	N258	N	0.825241	0.090133	0.460435
	N259	N	0.828443	0.919066	0.535259
	N260	N	0.469346	0.183906	0.909029
	N261	N	0.544074	0.178034	0.080293
	N262	N	0.469233	0.824156	0.084297
	N263	N	0.542816	0.826170	0.912711
	N264	N	0.468198	0.916550	0.176049
	N265	N	0.542021	0.088755	0.175778
	N266	N	0.467985	0.091082	0.816980
	N267	N	0.542330	0.918943	0.819861
	N268	N	0.916981	0.184615	0.460507
	N269	N	0.089886	0.180602	0.534665
	N270	N	0.091185	0.824086	0.459757
	N271	N	0.918889	0.823429	0.533769
	N272	N	0.184435	0.466548	0.913431
	N273	N	0.184383	0.540842	0.083601
	N274	N	0.830381	0.465562	0.081666
	N275	N	0.827371	0.540505	0.911122
	O276	O	0.126627	0.000632	0.052767
	H277	H	0.135146	0.005377	0.061324
	H278	H	0.114475	0.009829	0.063171
	O279	O	0.546641	0.484335	0.384788
	H280	H	0.544675	0.479537	0.378840
	H281	H	0.555163	0.484393	0.396471
	O282	O	0.487710	0.424463	0.528255
	H283	H	0.485692	0.413905	0.524197
	H284	H	0.491251	0.429449	0.539969
	O285	O	1.002308	0.052350	0.873004
	H286	H	1.006700	0.056170	0.853373
	H287	H	0.987397	0.044595	0.876062
	O288	O	1.026030	0.009037	0.018558
	H289	H	1.024121	0.010403	0.027828
	H290	H	1.013310	0.002903	0.004867
	O291	O	0.471144	0.562474	0.508809
	H292	H	0.474954	0.566953	0.506171
	H293	H	0.465483	0.561766	0.500445
	O294	O	0.995996	0.016416	0.928486
	H295	H	1.000664	0.030527	0.949067
	H296	H	0.987646	0.020082	0.925207
	O297	O	-0.040345	0.091367	-0.059199
	H298	H	-0.045425	0.099324	-0.057250
	H299	H	-0.046226	0.078179	-0.067706
	O300	O	0.443766	0.460585	0.460290
	H301	H	0.451824	0.457670	0.464743
	H302	H	0.448805	0.448992	0.457907
	O303	O	0.489270	0.508746	0.488888
	H304	H	0.495129	0.512170	0.487585
	H305	H	0.476740	0.515314	0.493366
	O306	O	0.962445	0.037303	0.070468
	H307	H	0.957309	0.040904	0.071489
	H308	H	0.955231	0.030491	0.055830
	O309	O	-0.001796	0.105671	0.974338
	H310	H	0.009324	0.111363	0.970361
	H311	H	-0.011157	0.105318	0.984068
	O312	O	0.977645	1.014349	0.896933
	H313	H	0.974167	1.011686	0.894718
	H314	H	0.981168	1.016947	0.882389
	O315	O	0.480148	0.588748	0.467504
	H316	H	0.478890	0.579048	0.468157
	H317	H	0.486927	0.584445	0.470080
	O318	O	0.458204	0.516556	0.453419
	H319	H	0.462690	0.515427	0.448349
	H320	H	0.458305	0.519675	0.455921
	O321	O	0.015555	1.008719	1.067484
	H322	H	0.023567	1.009716	1.070311
	H323	H	0.011739	1.014540	1.076223
	O324	O	0.440371	0.424651	0.520698
	H325	H	0.433838	0.432803	0.516281
	H326	H	0.436713	0.415887	0.531555
	O327	O	0.465540	0.479259	0.525496
	H328	H	0.463263	0.480887	0.527195
	H329	H	0.472547	0.470946	0.530912
	O330	O	0.534835	0.541161	0.491262
	H331	H	0.524214	0.551552	0.484234
	H332	H	0.532734	0.540940	0.494599
	O333	O	0.610164	0.444924	0.537256
	H334	H	0.615723	0.446915	0.526038
	H335	H	0.609543	0.448129	0.540991
	O336	O	0.445219	0.457560	0.469379
	H337	H	0.439911	0.451632	0.461339
	H338	H	0.449830	0.452164	0.469076
	O339	O	0.930414	0.991419	-0.017094
	H340	H	0.933704	1.000880	-0.027272
	H341	H	0.939920	0.986289	-0.010599
	O342	O	0.439336	0.494997	0.553328
	H343	H	0.441572	0.486429	0.551450
	H344	H	0.438081	0.501048	0.553194
	O345	O	0.537572	0.578947	0.543004
	H346	H	0.530432	0.579742	0.533263
	H347	H	0.532073	0.582301	0.545556
	O348	O	0.015420	0.050185	0.083953
	H349	H	0.011264	0.049128	0.076031
	H350	H	0.014277	0.050940	0.086308
	O351	O	0.069648	0.936264	0.959613
	H352	H	0.081325	0.942248	0.960938
	H353	H	0.072025	0.933108	0.961818
	O354	O	0.582343	0.491879	0.578480
	H355	H	0.575035	0.500954	0.582781
	H356	H	0.577531	0.497004	0.576878
	O357	O	0.014760	1.039833	0.987808
	H358	H	0.016454	1.033612	0.983196
	H359	H	0.005054	1.026554	0.982426
