data_Molecule from HDF5

_cell_length_a		16.256982
_cell_length_b		16.176651
_cell_length_c		16.341720
_cell_angle_alpha	90.214951
_cell_angle_beta	90.118375
_cell_angle_gamma	90.287341
_symmetry_space_group_name_H-M	'P 1'
_symmetry_Int_Tables_number		1

loop_
	_symmetry_equiv_pos_as_xyz
	x,y,z

loop_
	_atom_site_label
	_atom_site_type_symbol
	_atom_site_fract_x
	_atom_site_fract_y
	_atom_site_fract_z
	H0	H	0.400587	0.836593	0.715357
	H1	H	0.601862	0.165022	0.715735
	H2	H	0.599623	0.837320	0.283702
	H3	H	0.400690	0.165642	0.285241
	H4	H	0.716533	0.403390	0.835832
	H5	H	0.720824	0.604302	0.161934
	H6	H	0.287514	0.598997	0.835763
	H7	H	0.285993	0.401665	0.162231
	H8	H	0.837482	0.711763	0.401535
	H9	H	0.165407	0.716409	0.597543
	H10	H	0.837304	0.286964	0.594237
	H11	H	0.165212	0.285902	0.400522
	H12	H	0.839237	0.398537	0.715424
	H13	H	0.166094	0.601773	0.714665
	H14	H	0.840149	0.600931	0.282015
	H15	H	0.166302	0.401182	0.285413
	H16	H	0.404939	0.714437	0.835337
	H17	H	0.601725	0.716946	0.162524
	H18	H	0.600726	0.285207	0.837104
	H19	H	0.404715	0.288821	0.164177
	H20	H	0.712887	0.835430	0.401305
	H21	H	0.717123	0.164517	0.600329
	H22	H	0.287145	0.835878	0.597970
	H23	H	0.288039	0.165900	0.403143
	H24	H	0.902375	0.335928	0.213199
	H25	H	0.104410	0.664671	0.216015
	H26	H	0.102477	0.335745	0.783923
	H27	H	0.903674	0.663890	0.783491
	H28	H	0.216750	0.900466	0.337499
	H29	H	0.217297	0.102262	0.663230
	H30	H	0.784202	0.099682	0.337603
	H31	H	0.785839	0.900270	0.663077
	H32	H	0.337062	0.211680	0.906186
	H33	H	0.666375	0.216473	0.099356
	H34	H	0.338143	0.785856	0.096527
	H35	H	0.666783	0.789735	0.902002
	H36	H	0.337533	0.901200	0.214676
	H37	H	0.664849	0.104074	0.218087
	H38	H	0.337619	0.099591	0.786579
	H39	H	0.664950	0.900265	0.783336
	H40	H	0.903024	0.213045	0.335956
	H41	H	0.099413	0.216248	0.662589
	H42	H	0.096629	0.788187	0.335827
	H43	H	0.902571	0.785473	0.662857
	H44	H	0.214489	0.335366	0.902769
	H45	H	0.217659	0.665945	0.098190
	H46	H	0.786770	0.337648	0.097430
	H47	H	0.791862	0.666275	0.901315
	H48	H	0.405507	0.120539	0.600055
	H49	H	0.588969	0.881721	0.602762
	H50	H	0.595591	0.119019	0.408133
	H51	H	0.412021	0.885564	0.407472
	H52	H	0.600760	0.413880	0.116321
	H53	H	0.592249	0.600631	0.882935
	H54	H	0.411370	0.593892	0.114208
	H55	H	0.402036	0.410829	0.884205
	H56	H	0.117807	0.595585	0.416025
	H57	H	0.890412	0.583105	0.584141
	H58	H	0.118373	0.403133	0.585434
	H59	H	0.886398	0.415413	0.400395
	H60	H	0.116517	0.416360	0.591883
	H61	H	0.883450	0.586738	0.603505
	H62	H	0.117788	0.585786	0.403463
	H63	H	0.881596	0.400263	0.399494
	H64	H	0.410286	0.595026	0.115068
	H65	H	0.605463	0.598407	0.880527
	H66	H	0.591052	0.413125	0.113284
	H67	H	0.415100	0.410281	0.886675
	H68	H	0.591137	0.117756	0.407939
	H69	H	0.585687	0.887728	0.585957
	H70	H	0.415816	0.116608	0.596230
	H71	H	0.406070	0.883595	0.408192
	H72	H	0.910059	0.620695	0.097635
	H73	H	0.096809	0.382688	0.093281
	H74	H	0.095637	0.617124	0.908579
	H75	H	0.917057	0.384799	0.904942
	H76	H	0.099893	0.910605	0.617430
	H77	H	0.093185	0.092547	0.384377
	H78	H	0.912416	0.090428	0.614347
	H79	H	0.909231	0.907371	0.385206
	H80	H	0.619520	0.096460	0.909590
	H81	H	0.385816	0.097877	0.088688
	H82	H	0.618393	0.906155	0.089634
	H83	H	0.386134	0.909458	0.905455
	H84	H	0.615774	0.916919	0.091318
	H85	H	0.386818	0.087046	0.094030
	H86	H	0.617312	0.090813	0.907869
	H87	H	0.385132	0.905903	0.907010
	H88	H	0.909271	0.097507	0.616634
	H89	H	0.096780	0.093776	0.382790
	H90	H	0.090215	0.912044	0.614188
	H91	H	0.905919	0.902428	0.382240
	H92	H	0.097850	0.618902	0.905307
	H93	H	0.093214	0.383741	0.094309
	H94	H	0.919684	0.616455	0.092846
	H95	H	0.906893	0.384571	0.913126
	H96	H	0.406656	0.117901	0.589157
	H97	H	0.601754	0.881134	0.589921
	H98	H	0.594231	0.116643	0.412078
	H99	H	0.408329	0.883085	0.403340
	H100	H	0.596110	0.404756	0.116869
	H101	H	0.597849	0.588271	0.885577
	H102	H	0.409126	0.594019	0.115169
	H103	H	0.408503	0.399015	0.880813
	H104	H	0.122725	0.600719	0.401869
	H105	H	0.882933	0.602033	0.589769
	H106	H	0.121844	0.404568	0.599704
	H107	H	0.887043	0.405580	0.412706
	H108	H	0.909755	0.617491	0.086626
	H109	H	0.095065	0.383998	0.090340
	H110	H	0.094214	0.617172	0.905020
	H111	H	0.905234	0.380512	0.900253
	H112	H	0.093740	0.902477	0.617354
	H113	H	0.096528	0.090149	0.384361
	H114	H	0.905081	0.090856	0.616170
	H115	H	0.903243	0.908095	0.383217
	H116	H	0.619856	0.094486	0.903270
	H117	H	0.382641	0.097039	0.100363
	H118	H	0.619453	0.910915	0.099617
	H119	H	0.386048	0.908855	0.909494
	C120	C	0.379948	0.009411	0.622769
	C121	C	0.622054	0.992153	0.622012
	C122	C	0.622128	0.009468	0.379293
	C123	C	0.379844	0.992694	0.378489
	C124	C	0.624572	0.381002	0.007840
	C125	C	0.626533	0.624615	0.990943
	C126	C	0.381491	0.622736	0.006945
	C127	C	0.380078	0.378608	0.991582
	C128	C	0.010996	0.621869	0.378136
	C129	C	0.993616	0.621366	0.621100
	C130	C	0.010632	0.378949	0.620479
	C131	C	0.993509	0.378299	0.376896
	C132	C	0.882644	0.509499	0.120672
	C133	C	0.124453	0.492254	0.121466
	C134	C	0.123921	0.508736	0.877933
	C135	C	0.881896	0.492171	0.877669
	C136	C	0.122854	0.879251	0.508407
	C137	C	0.123969	0.122212	0.491389
	C138	C	0.879585	0.121665	0.508082
	C139	C	0.878242	0.877427	0.491775
	C140	C	0.510299	0.122048	0.879411
	C141	C	0.493162	0.123757	0.123306
	C142	C	0.509944	0.880874	0.121573
	C143	C	0.493672	0.879552	0.878198
	C144	C	0.380774	0.885620	0.677554
	C145	C	0.621072	0.115790	0.677567
	C146	C	0.619977	0.886100	0.322320
	C147	C	0.381419	0.116781	0.323665
	C148	C	0.679159	0.382586	0.884820
	C149	C	0.682440	0.623760	0.113268
	C150	C	0.325588	0.620050	0.884294
	C151	C	0.324565	0.381628	0.113918
	C152	C	0.887088	0.675283	0.380672
	C153	C	0.116759	0.678137	0.618453
	C154	C	0.886393	0.324420	0.616032
	C155	C	0.116608	0.323563	0.380043
	C156	C	0.887494	0.379944	0.675785
	C157	C	0.116997	0.621123	0.676638
	C158	C	0.888385	0.620100	0.321363
	C159	C	0.116941	0.381033	0.322757
	C160	C	0.384282	0.677133	0.884130
	C161	C	0.623104	0.679905	0.113723
	C162	C	0.621414	0.324257	0.885400
	C163	C	0.383414	0.325171	0.115001
	C164	C	0.676119	0.885255	0.380933
	C165	C	0.678663	0.115484	0.620328
	C166	C	0.324517	0.885262	0.619121
	C167	C	0.325148	0.116760	0.381888
	C168	C	0.883120	0.385503	0.175275
	C169	C	0.123937	0.615782	0.177683
	C170	C	0.121833	0.384936	0.822346
	C171	C	0.883927	0.615341	0.822054
	C172	C	0.178291	0.880703	0.385975
	C173	C	0.178948	0.121218	0.614301
	C174	C	0.823117	0.119409	0.385799
	C175	C	0.823457	0.880136	0.614249
	C176	C	0.386127	0.175419	0.883875
	C177	C	0.616898	0.179661	0.120665
	C178	C	0.387021	0.823974	0.118156
	C179	C	0.617601	0.826123	0.880927
	C180	C	0.386668	0.881543	0.176514
	C181	C	0.616151	0.123563	0.179356
	C182	C	0.386779	0.119638	0.824562
	C183	C	0.616567	0.881098	0.821891
	C184	C	0.882255	0.175731	0.384994
	C185	C	0.120630	0.178250	0.614024
	C186	C	0.118490	0.824946	0.385107
	C187	C	0.881257	0.822724	0.614141
	C188	C	0.177762	0.384633	0.881152
	C189	C	0.180097	0.616353	0.118798
	C190	C	0.825336	0.386345	0.118110
	C191	C	0.828306	0.616434	0.880774
	C192	C	0.402526	0.096076	0.601585
	C193	C	0.598814	0.905645	0.599559
	C194	C	0.600068	0.095563	0.402442
	C195	C	0.402042	0.906620	0.400027
	C196	C	0.602622	0.403937	0.093338
	C197	C	0.604843	0.602310	0.905274
	C198	C	0.403543	0.600687	0.092471
	C199	C	0.402097	0.400275	0.905973
	C200	C	0.097137	0.600459	0.400473
	C201	C	0.907865	0.597720	0.598882
	C202	C	0.096575	0.401318	0.598772
	C203	C	0.907189	0.400324	0.398154
	C204	C	0.906285	0.595871	0.098793
	C205	C	0.101533	0.405779	0.099179
	C206	C	0.102236	0.595588	0.900001
	C207	C	0.903439	0.405570	0.899751
	C208	C	0.100990	0.901798	0.594169
	C209	C	0.101977	0.098928	0.406014
	C210	C	0.902410	0.099497	0.593469
	C211	C	0.899830	0.899602	0.405733
	C212	C	0.596534	0.100412	0.900706
	C213	C	0.407460	0.100859	0.101012
	C214	C	0.595727	0.904373	0.099933
	C215	C	0.407834	0.901634	0.900525
	Zn216	Zn	0.501432	0.000506	0.750651
	Zn217	Zn	0.501617	0.002390	0.251026
	Zn218	Zn	0.754362	0.502168	-0.000756
	Zn219	Zn	0.251889	0.500928	-0.000713
	Zn220	Zn	0.001057	0.749788	0.499794
	Zn221	Zn	0.001458	0.250289	0.498795
	Zn222	Zn	0.002859	0.499977	0.749578
	Zn223	Zn	0.002981	0.500632	0.249410
	Zn224	Zn	0.503313	0.752194	-0.000896
	Zn225	Zn	0.502463	0.250746	0.000708
	Zn226	Zn	0.749985	0.000066	0.500338
	Zn227	Zn	0.252777	0.000391	0.500602
	N228	N	0.414366	0.963784	0.680084
	N229	N	0.586636	0.037867	0.678684
	N230	N	0.587097	0.964323	0.321198
	N231	N	0.414708	0.038758	0.321144
	N232	N	0.681117	0.417197	0.961934
	N233	N	0.684715	0.590064	0.035992
	N234	N	0.323854	0.586653	0.961566
	N235	N	0.322568	0.414148	0.036348
	N236	N	0.964470	0.676686	0.415202
	N237	N	0.039211	0.678393	0.584605
	N238	N	0.963877	0.323735	0.582370
	N239	N	0.038800	0.321892	0.413097
	N240	N	0.965724	0.412802	0.678872
	N241	N	0.039499	0.586303	0.678135
	N242	N	0.966233	0.587221	0.319981
	N243	N	0.039272	0.414415	0.320685
	N244	N	0.418284	0.678819	0.961348
	N245	N	0.589040	0.680507	0.036643
	N246	N	0.588218	0.323097	0.962740
	N247	N	0.417190	0.323135	0.037838
	N248	N	0.677437	0.962849	0.415705
	N249	N	0.679285	0.037503	0.586507
	N250	N	0.324155	0.963186	0.585465
	N251	N	0.324261	0.038935	0.415599
	N252	N	0.918025	0.463196	0.176826
	N253	N	0.090049	0.537534	0.179351
	N254	N	0.089197	0.463262	0.820092
	N255	N	0.916413	0.536975	0.820007
	N256	N	0.181145	0.913666	0.463641
	N257	N	0.181319	0.087091	0.536958
	N258	N	0.821184	0.086601	0.463321
	N259	N	0.821474	0.913522	0.536816
	N260	N	0.463950	0.177053	0.917304
	N261	N	0.539601	0.179838	0.086252
	N262	N	0.464615	0.823635	0.084511
	N263	N	0.540303	0.824960	0.915128
	N264	N	0.464104	0.916135	0.178801
	N265	N	0.538441	0.089608	0.181121
	N266	N	0.464813	0.087152	0.821768
	N267	N	0.538532	0.913692	0.820099
	N268	N	0.916555	0.177324	0.462032
	N269	N	0.087049	0.178953	0.536599
	N270	N	0.084731	0.823952	0.462373
	N271	N	0.914687	0.820987	0.536958
	N272	N	0.178841	0.462448	0.915347
	N273	N	0.180664	0.538463	0.084715
	N274	N	0.825060	0.464403	0.084787
	N275	N	0.826946	0.538739	0.914765
	O276	O	-0.016890	-0.025350	0.007691
	H277	H	-0.019855	-0.029776	0.012039
	H278	H	-0.021219	-0.028926	0.003287
	O279	O	0.522524	0.532964	0.505373
	H280	H	0.530284	0.522855	0.505193
	H281	H	0.514490	0.535499	0.506984
	O282	O	0.448829	0.533476	0.501034
	H283	H	0.442683	0.538184	0.510766
	H284	H	0.454366	0.521468	0.505502
	O285	O	0.943368	-0.000665	1.000341
	H286	H	0.937567	0.000700	1.000161
	H287	H	0.945830	-0.003425	0.994547
	O288	O	0.931500	0.017503	0.049946
	H289	H	0.934655	0.010672	0.053458
	H290	H	0.934703	0.023687	0.052915
	O291	O	0.545205	0.399177	0.467409
	H292	H	0.540441	0.398969	0.460888
	H293	H	0.550758	0.388359	0.462500
	O294	O	1.110910	0.023604	1.016638
	H295	H	1.121838	0.028586	1.025409
	H296	H	1.106950	0.024908	1.014999
	O297	O	-0.050968	0.021609	0.059887
	H298	H	-0.052011	0.026140	0.048702
	H299	H	-0.038288	0.040260	0.057002
	O300	O	0.500679	0.525658	0.543380
	H301	H	0.507315	0.528129	0.548573
	H302	H	0.496744	0.535597	0.539938
	O303	O	0.536158	0.502933	0.500503
	H304	H	0.534963	0.507894	0.492534
	H305	H	0.535364	0.507168	0.499688
	O306	O	0.933053	0.059911	-0.025390
	H307	H	0.939008	0.065867	-0.035485
	H308	H	0.936196	0.055906	-0.018412
	O309	O	0.050770	-0.086250	1.007602
	H310	H	0.040318	-0.082047	1.009908
	H311	H	0.044266	-0.083374	1.018015
	O312	O	1.002277	0.991334	1.015393
	H313	H	1.008554	0.982003	1.015365
	H314	H	0.998205	0.975303	1.008120
	O315	O	0.547019	0.513455	0.447064
	H316	H	0.554920	0.510877	0.448835
	H317	H	0.535522	0.518918	0.447372
	O318	O	0.567275	0.555340	0.467789
	H319	H	0.566080	0.562810	0.471047
	H320	H	0.567371	0.560196	0.474336
	O321	O	0.070680	1.067236	1.035812
	H322	H	0.069291	1.068955	1.025733
	H323	H	0.083084	1.068568	1.032344
	O324	O	0.474047	0.483115	0.526572
	H325	H	0.481556	0.480941	0.517107
	H326	H	0.465643	0.472369	0.522753
	O327	O	1.061173	1.035491	-0.095691
	H328	H	1.056207	1.032317	-0.094291
	H329	H	1.060997	1.027868	-0.090769
	O330	O	0.454074	0.474105	0.558900
	H331	H	0.469689	0.467846	0.559035
	H332	H	0.458040	0.466288	0.566792
	O333	O	0.526476	0.539578	0.396441
	H334	H	0.532416	0.541423	0.381821
	H335	H	0.517396	0.531568	0.404975
	O336	O	0.456611	0.449320	0.450296
	H337	H	0.449705	0.440081	0.448339
	H338	H	0.458101	0.448822	0.449684
	O339	O	0.915658	0.996852	0.041496
	H340	H	0.912574	0.996242	0.043967
	H341	H	0.912354	0.996257	0.049863
	O342	O	0.534584	0.537759	0.626160
	H343	H	0.539945	0.532826	0.627385
	H344	H	0.532679	0.540196	0.625628
	O345	O	0.451498	0.526688	0.435509
	H346	H	0.449360	0.531342	0.431426
	H347	H	0.447021	0.518535	0.442176
	O348	O	-0.067177	-0.002280	0.056656
	H349	H	-0.056009	-0.009957	0.054462
	H350	H	-0.071856	0.005396	0.054405
	O351	O	0.021776	0.973392	1.003122
	H352	H	0.020402	0.976309	1.002707
	H353	H	0.014195	0.971409	1.008143
	O354	O	0.553212	0.484208	0.427046
	H355	H	0.547824	0.491258	0.420913
	H356	H	0.561938	0.487588	0.432744
	O357	O	0.015780	1.059982	0.951429
	H358	H	0.029129	1.053606	0.959145
	H359	H	0.020270	1.067258	0.945446
