data_Molecule from HDF5

_cell_length_a		16.308543
_cell_length_b		16.347451
_cell_length_c		16.164380
_cell_angle_alpha	90.384643
_cell_angle_beta	89.783967
_cell_angle_gamma	89.647536
_symmetry_space_group_name_H-M	'P 1'
_symmetry_Int_Tables_number		1

loop_
	_symmetry_equiv_pos_as_xyz
	x,y,z

loop_
	_atom_site_label
	_atom_site_type_symbol
	_atom_site_fract_x
	_atom_site_fract_y
	_atom_site_fract_z
	H0	H	0.394145	0.844781	0.715277
	H1	H	0.590287	0.169921	0.717900
	H2	H	0.595635	0.846075	0.283138
	H3	H	0.393965	0.170794	0.286880
	H4	H	0.714343	0.403112	0.837383
	H5	H	0.708772	0.607907	0.165029
	H6	H	0.279976	0.606253	0.837016
	H7	H	0.280484	0.408589	0.165006
	H8	H	0.834348	0.725450	0.401255
	H9	H	0.158201	0.726142	0.604469
	H10	H	0.832675	0.294548	0.602387
	H11	H	0.157441	0.287844	0.397422
	H12	H	0.833508	0.411743	0.716188
	H13	H	0.160489	0.605502	0.715272
	H14	H	0.834072	0.608294	0.286074
	H15	H	0.160412	0.406964	0.285396
	H16	H	0.395062	0.721923	0.836001
	H17	H	0.596837	0.726096	0.162778
	H18	H	0.599726	0.287114	0.837767
	H19	H	0.396125	0.294321	0.165273
	H20	H	0.714816	0.847117	0.396378
	H21	H	0.709656	0.170032	0.604864
	H22	H	0.278351	0.845210	0.600030
	H23	H	0.276003	0.169596	0.401656
	H24	H	0.901090	0.344165	0.214994
	H25	H	0.094815	0.669920	0.216536
	H26	H	0.097698	0.343861	0.784182
	H27	H	0.898239	0.671373	0.788940
	H28	H	0.210805	0.905780	0.337514
	H29	H	0.207554	0.107283	0.665199
	H30	H	0.778823	0.107933	0.336782
	H31	H	0.777375	0.909765	0.664197
	H32	H	0.333122	0.225540	0.901588
	H33	H	0.657560	0.224526	0.104414
	H34	H	0.332962	0.790320	0.102997
	H35	H	0.656627	0.788651	0.895645
	H36	H	0.331834	0.909926	0.217146
	H37	H	0.657451	0.107697	0.218181
	H38	H	0.329641	0.106155	0.789446
	H39	H	0.655749	0.905429	0.781502
	H40	H	0.893291	0.224529	0.336857
	H41	H	0.092477	0.223634	0.664864
	H42	H	0.098044	0.789341	0.338043
	H43	H	0.893424	0.793853	0.664965
	H44	H	0.215764	0.345210	0.898203
	H45	H	0.212198	0.668949	0.102530
	H46	H	0.779694	0.344442	0.102786
	H47	H	0.776711	0.668876	0.901352
	H48	H	0.407089	0.118468	0.585826
	H49	H	0.573269	0.894105	0.598301
	H50	H	0.582599	0.121859	0.412155
	H51	H	0.404140	0.893242	0.410188
	H52	H	0.581944	0.417796	0.115109
	H53	H	0.581457	0.598958	0.884929
	H54	H	0.399548	0.600035	0.117878
	H55	H	0.410459	0.417639	0.887353
	H56	H	0.110400	0.593336	0.411052
	H57	H	0.881693	0.602607	0.591252
	H58	H	0.111697	0.405566	0.582042
	H59	H	0.883865	0.421535	0.414789
	H60	H	0.108063	0.425900	0.589607
	H61	H	0.881020	0.599104	0.595788
	H62	H	0.114434	0.600376	0.404879
	H63	H	0.879838	0.419643	0.402244
	H64	H	0.407165	0.595918	0.114960
	H65	H	0.592048	0.601832	0.880564
	H66	H	0.588061	0.409700	0.119787
	H67	H	0.406337	0.410430	0.883131
	H68	H	0.590312	0.124543	0.412553
	H69	H	0.587205	0.897909	0.574273
	H70	H	0.386024	0.126936	0.591976
	H71	H	0.401633	0.891759	0.409336
	H72	H	0.901727	0.621979	0.092838
	H73	H	0.081556	0.391860	0.099518
	H74	H	0.078876	0.623181	0.898290
	H75	H	0.902623	0.392677	0.911545
	H76	H	0.090057	0.921615	0.616923
	H77	H	0.079082	0.099213	0.385030
	H78	H	0.896062	0.097880	0.618410
	H79	H	0.895515	0.915600	0.381694
	H80	H	0.609082	0.091495	0.908495
	H81	H	0.380643	0.106140	0.084158
	H82	H	0.612106	0.913712	0.095090
	H83	H	0.378400	0.920709	0.903555
	H84	H	0.608942	0.913490	0.084208
	H85	H	0.381365	0.092881	0.096038
	H86	H	0.611629	0.100205	0.905075
	H87	H	0.374684	0.905688	0.906177
	H88	H	0.907743	0.099356	0.614518
	H89	H	0.089031	0.103772	0.381267
	H90	H	0.079541	0.916483	0.616803
	H91	H	0.909749	0.925491	0.388880
	H92	H	0.084385	0.616667	0.923081
	H93	H	0.089100	0.395186	0.081745
	H94	H	0.900350	0.621896	0.093860
	H95	H	0.903376	0.390801	0.905433
	H96	H	0.403286	0.125799	0.607393
	H97	H	0.600136	0.886734	0.596198
	H98	H	0.586090	0.124724	0.406038
	H99	H	0.403723	0.892832	0.407396
	H100	H	0.591827	0.419901	0.117698
	H101	H	0.589433	0.591576	0.885058
	H102	H	0.406772	0.604098	0.118214
	H103	H	0.402247	0.418065	0.883786
	H104	H	0.111557	0.602923	0.414871
	H105	H	0.879376	0.604497	0.596254
	H106	H	0.116884	0.410209	0.602933
	H107	H	0.879267	0.409904	0.410908
	H108	H	0.901744	0.622912	0.094378
	H109	H	0.100014	0.386708	0.095541
	H110	H	0.103045	0.626424	0.907218
	H111	H	0.908422	0.393125	0.909208
	H112	H	0.089077	0.910670	0.621884
	H113	H	0.088914	0.092530	0.384921
	H114	H	0.901387	0.108664	0.619347
	H115	H	0.912209	0.907065	0.384292
	H116	H	0.608886	0.099128	0.914429
	H117	H	0.374851	0.108630	0.101152
	H118	H	0.608002	0.922658	0.090565
	H119	H	0.381383	0.914810	0.918008
	C120	C	0.370564	0.016159	0.623373
	C121	C	0.615657	0.999490	0.621856
	C122	C	0.616972	0.016898	0.378655
	C123	C	0.372755	0.999632	0.379702
	C124	C	0.618199	0.384286	0.009421
	C125	C	0.616303	0.627800	0.991783
	C126	C	0.374522	0.628898	0.009057
	C127	C	0.375953	0.387012	0.992814
	C128	C	0.005050	0.629313	0.380120
	C129	C	0.988123	0.630447	0.623886
	C130	C	0.004562	0.386301	0.621766
	C131	C	0.988405	0.386307	0.379147
	C132	C	0.873338	0.515131	0.123698
	C133	C	0.118302	0.498515	0.122167
	C134	C	0.119256	0.515136	0.878864
	C135	C	0.874870	0.499190	0.879469
	C136	C	0.116263	0.885810	0.510262
	C137	C	0.114436	0.128186	0.492356
	C138	C	0.872734	0.130703	0.509039
	C139	C	0.874717	0.887334	0.492706
	C140	C	0.502538	0.127698	0.880371
	C141	C	0.486670	0.130792	0.123633
	C142	C	0.502786	0.886537	0.121121
	C143	C	0.485617	0.884475	0.878109
	C144	C	0.373906	0.893556	0.677752
	C145	C	0.611523	0.121621	0.679339
	C146	C	0.616296	0.894822	0.321133
	C147	C	0.373795	0.122100	0.324508
	C148	C	0.675635	0.384064	0.886296
	C149	C	0.671557	0.627580	0.115544
	C150	C	0.318292	0.626354	0.885723
	C151	C	0.319183	0.389060	0.116157
	C152	C	0.882834	0.686670	0.381228
	C153	C	0.110050	0.686757	0.623228
	C154	C	0.881748	0.331816	0.621687
	C155	C	0.109549	0.327696	0.378821
	C156	C	0.882185	0.390066	0.678360
	C157	C	0.111140	0.626990	0.678564
	C158	C	0.882749	0.628465	0.323987
	C159	C	0.111154	0.387294	0.323189
	C160	C	0.375417	0.683980	0.885290
	C161	C	0.615688	0.686287	0.114379
	C162	C	0.618655	0.326212	0.886524
	C163	C	0.376543	0.331923	0.116288
	C164	C	0.675663	0.895458	0.377317
	C165	C	0.671170	0.121419	0.623285
	C166	C	0.315979	0.893791	0.620655
	C167	C	0.315048	0.121411	0.381424
	C168	C	0.878345	0.392877	0.178287
	C169	C	0.115546	0.621190	0.178564
	C170	C	0.117889	0.392784	0.822083
	C171	C	0.877129	0.622120	0.825502
	C172	C	0.172956	0.886125	0.386687
	C173	C	0.169703	0.127172	0.616138
	C174	C	0.817019	0.128422	0.385742
	C175	C	0.816912	0.889966	0.615544
	C176	C	0.380888	0.185928	0.882245
	C177	C	0.609124	0.186046	0.123015
	C178	C	0.381338	0.829286	0.121788
	C179	C	0.607691	0.827252	0.876914
	C180	C	0.380562	0.889041	0.178489
	C181	C	0.609030	0.127939	0.179828
	C182	C	0.379288	0.126590	0.826243
	C183	C	0.607583	0.885559	0.820284
	C184	C	0.873962	0.186389	0.385857
	C185	C	0.112465	0.185061	0.615868
	C186	C	0.116606	0.828232	0.386967
	C187	C	0.874477	0.832131	0.615892
	C188	C	0.176611	0.393440	0.878952
	C189	C	0.173852	0.620748	0.121848
	C190	C	0.818470	0.392933	0.122161
	C191	C	0.816747	0.620975	0.881367
	C192	C	0.392270	0.101721	0.601543
	C193	C	0.593356	0.914836	0.596986
	C194	C	0.593220	0.101485	0.403070
	C195	C	0.396299	0.914760	0.402461
	C196	C	0.594317	0.408585	0.095199
	C197	C	0.594319	0.604234	0.905755
	C198	C	0.397599	0.606602	0.094800
	C199	C	0.399365	0.408995	0.906797
	C200	C	0.089809	0.605775	0.403489
	C201	C	0.902806	0.608678	0.601226
	C202	C	0.090272	0.407782	0.598380
	C203	C	0.903069	0.410213	0.402454
	C204	C	0.894842	0.600195	0.100561
	C205	C	0.096463	0.413263	0.099063
	C206	C	0.095731	0.600257	0.902590
	C207	C	0.898094	0.414280	0.902081
	C208	C	0.093010	0.909431	0.596336
	C209	C	0.092337	0.105092	0.406144
	C210	C	0.895067	0.108310	0.595233
	C211	C	0.898694	0.909645	0.406912
	C212	C	0.587772	0.103850	0.902777
	C213	C	0.401241	0.109036	0.100574
	C214	C	0.587649	0.909846	0.097051
	C215	C	0.400146	0.907101	0.902219
	Zn216	Zn	0.492950	0.006799	0.750697
	Zn217	Zn	0.494563	0.008626	0.250998
	Zn218	Zn	0.744408	0.506594	0.001406
	Zn219	Zn	0.247161	0.507332	0.001404
	Zn220	Zn	-0.003587	0.758435	0.501762
	Zn221	Zn	-0.005546	0.257846	0.500380
	Zn222	Zn	-0.002589	0.507151	0.750552
	Zn223	Zn	-0.002884	0.507781	0.250897
	Zn224	Zn	0.495361	0.756467	-0.000435
	Zn225	Zn	0.496101	0.257622	0.001031
	Zn226	Zn	0.745622	0.008721	0.500263
	Zn227	Zn	0.242855	0.007024	0.501303
	N228	N	0.407031	0.970725	0.679544
	N229	N	0.577709	0.044746	0.678711
	N230	N	0.580544	0.971232	0.321854
	N231	N	0.408729	0.045429	0.323308
	N232	N	0.675455	0.419414	0.963731
	N233	N	0.672112	0.591789	0.038211
	N234	N	0.317643	0.592879	0.963556
	N235	N	0.318770	0.422372	0.038447
	N236	N	0.959779	0.687165	0.415449
	N237	N	0.032422	0.689260	0.590123
	N238	N	0.959071	0.329276	0.587222
	N239	N	0.032233	0.327080	0.412828
	N240	N	0.959431	0.423272	0.678291
	N241	N	0.034464	0.592565	0.679078
	N242	N	0.959580	0.593246	0.323290
	N243	N	0.034344	0.422889	0.323062
	N244	N	0.409736	0.685690	0.962976
	N245	N	0.582139	0.686535	0.036410
	N246	N	0.583656	0.326266	0.964128
	N247	N	0.411154	0.330334	0.038446
	N248	N	0.676447	0.972408	0.412049
	N249	N	0.673920	0.044608	0.588194
	N250	N	0.313604	0.971134	0.587839
	N251	N	0.314315	0.044250	0.415176
	N252	N	0.911634	0.469941	0.179291
	N253	N	0.081564	0.544361	0.178782
	N254	N	0.082874	0.469541	0.822048
	N255	N	0.912519	0.545478	0.824226
	N256	N	0.172739	0.921350	0.464258
	N257	N	0.171031	0.092388	0.538347
	N258	N	0.816083	0.094652	0.463297
	N259	N	0.817127	0.923656	0.537780
	N260	N	0.458717	0.186774	0.915074
	N261	N	0.532152	0.187878	0.088815
	N262	N	0.458357	0.827801	0.086961
	N263	N	0.530805	0.826591	0.912154
	N264	N	0.457034	0.924000	0.178134
	N265	N	0.531836	0.094322	0.180386
	N266	N	0.455960	0.091080	0.825054
	N267	N	0.530537	0.920174	0.820666
	N268	N	0.907812	0.187884	0.463630
	N269	N	0.078747	0.185524	0.538060
	N270	N	0.082260	0.828115	0.464759
	N271	N	0.909960	0.830565	0.538699
	N272	N	0.177482	0.470514	0.913492
	N273	N	0.175586	0.543591	0.087493
	N274	N	0.815269	0.470094	0.088996
	N275	N	0.814878	0.543599	0.914007
	O276	O	1.526475	0.355023	0.441310
	H277	H	1.521807	0.339880	0.434559
	H278	H	1.529343	0.349051	0.439012
	O279	O	0.477044	0.552900	0.554228
	H280	H	0.490203	0.562314	0.551267
	H281	H	0.476678	0.555867	0.551589
	O282	O	0.421528	0.507911	0.538284
	H283	H	0.421813	0.509409	0.542641
	H284	H	0.408395	0.508969	0.530798
	O285	O	0.546045	0.543071	0.357664
	H286	H	0.555975	0.532367	0.346212
	H287	H	0.547619	0.529693	0.365710
	O288	O	0.537794	0.388462	0.424083
	H289	H	0.534450	0.389395	0.442344
	H290	H	0.548304	0.382903	0.434101
	O291	O	0.027183	0.178434	1.029696
	H292	H	0.021114	0.180620	1.023748
	H293	H	0.034774	0.183235	1.039058
	O294	O	0.992341	0.989679	-0.053126
	H295	H	0.992181	0.975894	-0.041584
	H296	H	0.997851	0.967966	-0.050757
	O297	O	1.113718	0.860606	-0.076273
	H298	H	1.106651	0.861586	-0.084852
	H299	H	1.093160	0.865212	-0.069622
	O300	O	0.656481	0.373028	0.416546
	H301	H	0.653030	0.389057	0.416456
	H302	H	0.654193	0.373938	0.423975
	O303	O	0.493597	0.612693	0.417003
	H304	H	0.491998	0.607445	0.410698
	H305	H	0.493558	0.606414	0.415455
	O306	O	0.485961	0.545093	0.499613
	H307	H	0.481050	0.541453	0.509982
	H308	H	0.474673	0.548764	0.490510
	O309	O	0.431473	0.532625	0.411758
	H310	H	0.427525	0.515963	0.410875
	H311	H	0.433729	0.528604	0.420132
	O312	O	1.123440	0.936363	0.878855
	H313	H	1.124683	0.917499	0.878153
	H314	H	1.132617	0.929016	0.874487
	O315	O	1.022309	0.979808	-0.048445
	H316	H	1.023831	0.982884	-0.052145
	H317	H	1.022848	0.979760	-0.041899
	O318	O	0.447170	0.520187	0.382319
	H319	H	0.441562	0.528017	0.378706
	H320	H	0.453031	0.520599	0.372341
	O321	O	0.589538	0.476982	0.518618
	H322	H	0.590683	0.470984	0.514692
	H323	H	0.589442	0.480207	0.534472
	O324	O	-0.127220	0.980047	1.057562
	H325	H	-0.111842	0.982094	1.060225
	H326	H	-0.135873	0.995159	1.055220
	O327	O	-0.039534	1.014157	0.925948
	H328	H	-0.038609	1.011601	0.937040
	H329	H	-0.050239	1.015130	0.918892
	O330	O	0.085705	0.024526	0.092456
	H331	H	0.074237	0.026968	0.087380
	H332	H	0.085437	0.044705	0.098219
	O333	O	0.565641	0.560584	0.525667
	H334	H	0.568497	0.560781	0.520230
	H335	H	0.568240	0.560479	0.528667
	O336	O	-0.507555	-0.459049	-0.403374
	H337	H	-0.490451	-0.460814	-0.401867
	H338	H	-0.493507	-0.458844	-0.393951
	O339	O	-0.062451	0.120767	-0.000473
	H340	H	-0.073658	0.117440	-0.008210
	H341	H	-0.058901	0.130616	-0.006553
	O342	O	0.558756	0.531553	0.519029
	H343	H	0.560389	0.529186	0.518415
	H344	H	0.559565	0.547009	0.517050
	O345	O	0.084070	1.052692	1.000247
	H346	H	0.084922	1.057280	0.995816
	H347	H	0.083954	1.045780	1.002396
	O348	O	0.385360	0.453671	0.564321
	H349	H	0.390124	0.465723	0.566447
	H350	H	0.379076	0.451288	0.565124
	O351	O	0.543669	0.665107	0.493586
	H352	H	0.543242	0.666661	0.480495
	H353	H	0.534913	0.666878	0.489692
	O354	O	-0.122622	1.009814	0.129498
	H355	H	-0.134819	1.007919	0.130187
	H356	H	-0.110775	1.012282	0.141490
	O357	O	-0.021479	0.032364	1.088808
	H358	H	-0.025965	0.042264	1.085809
	H359	H	-0.013383	0.033085	1.075376
	O360	O	1.066543	0.026364	1.106290
	H361	H	1.068110	0.023884	1.102543
	H362	H	1.070753	0.041996	1.116252
	O363	O	0.541864	0.538935	0.639254
	H364	H	0.542873	0.539973	0.640216
	H365	H	0.552936	0.544115	0.632869
	O366	O	0.400580	0.579145	0.505536
	H367	H	0.402324	0.588282	0.512839
	H368	H	0.378627	0.582602	0.507515
	O369	O	0.926812	-0.030592	0.151321
	H370	H	0.939149	-0.032511	0.153322
	H371	H	0.920417	-0.046218	0.151653
	O372	O	0.409854	0.449814	0.540791
	H373	H	0.418132	0.452799	0.546235
	H374	H	0.420219	0.458605	0.543768
	O375	O	0.866799	0.000702	0.938020
	H376	H	0.867169	0.012740	0.946865
	H377	H	0.859453	-0.017466	0.936356
	O378	O	0.026190	0.941352	-0.100708
	H379	H	0.028671	0.943237	-0.095745
	H380	H	0.042863	0.936699	-0.108058
	O381	O	0.923790	-0.011803	0.968570
	H382	H	0.922215	-0.011773	0.963202
	H383	H	0.915849	-0.014013	0.958896
	O384	O	0.912309	0.975053	0.042513
	H385	H	0.911846	0.981556	0.039060
	H386	H	0.920527	0.989797	0.039740
	O387	O	0.932822	-0.050131	0.948945
	H388	H	0.920379	-0.061417	0.947563
	H389	H	0.935975	-0.060432	0.953419
	O390	O	1.045766	0.991572	-0.129647
	H391	H	1.042917	0.997882	-0.129603
	H392	H	1.053962	0.985352	-0.142828
	O393	O	0.575519	0.494813	0.606622
	H394	H	0.575090	0.502243	0.610603
	H395	H	0.566774	0.490122	0.591014
