data_Molecule from HDF5

_cell_length_a		16.170620
_cell_length_b		16.420926
_cell_length_c		16.166832
_cell_angle_alpha	89.862480
_cell_angle_beta	89.593835
_cell_angle_gamma	90.225550
_symmetry_space_group_name_H-M	'P 1'
_symmetry_Int_Tables_number		1

loop_
	_symmetry_equiv_pos_as_xyz
	x,y,z

loop_
	_atom_site_label
	_atom_site_type_symbol
	_atom_site_fract_x
	_atom_site_fract_y
	_atom_site_fract_z
	H0	H	0.398150	0.842048	0.711500
	H1	H	0.599613	0.167026	0.709890
	H2	H	0.599849	0.841149	0.280492
	H3	H	0.402789	0.165812	0.279586
	H4	H	0.714324	0.407227	0.829169
	H5	H	0.712974	0.598916	0.159686
	H6	H	0.291010	0.601569	0.828502
	H7	H	0.284516	0.405397	0.158721
	H8	H	0.836025	0.719638	0.390705
	H9	H	0.162658	0.721511	0.592179
	H10	H	0.836777	0.286198	0.594707
	H11	H	0.164497	0.288403	0.388609
	H12	H	0.835432	0.405061	0.707450
	H13	H	0.166147	0.600544	0.701659
	H14	H	0.834813	0.600293	0.280719
	H15	H	0.166003	0.409481	0.278292
	H16	H	0.400603	0.721024	0.831719
	H17	H	0.602122	0.718817	0.158792
	H18	H	0.603791	0.286612	0.831398
	H19	H	0.396080	0.286190	0.158184
	H20	H	0.714323	0.840959	0.396515
	H21	H	0.718415	0.165722	0.593929
	H22	H	0.282383	0.842097	0.595426
	H23	H	0.286448	0.166077	0.395655
	H24	H	0.901601	0.341883	0.208598
	H25	H	0.099160	0.667101	0.206628
	H26	H	0.101796	0.341196	0.775371
	H27	H	0.904708	0.666531	0.779280
	H28	H	0.214838	0.907787	0.329268
	H29	H	0.209777	0.100503	0.659199
	H30	H	0.788305	0.100430	0.328116
	H31	H	0.785937	0.905983	0.658654
	H32	H	0.338004	0.221475	0.894364
	H33	H	0.663468	0.221120	0.097377
	H34	H	0.337075	0.785738	0.098222
	H35	H	0.664537	0.789920	0.893501
	H36	H	0.335130	0.905568	0.209740
	H37	H	0.665912	0.099276	0.205476
	H38	H	0.334973	0.102621	0.782877
	H39	H	0.664078	0.906275	0.779591
	H40	H	0.899484	0.219246	0.328628
	H41	H	0.100625	0.221090	0.656062
	H42	H	0.100642	0.789267	0.329074
	H43	H	0.895615	0.786366	0.656297
	H44	H	0.219487	0.341708	0.891206
	H45	H	0.216089	0.666912	0.089476
	H46	H	0.784600	0.341382	0.094040
	H47	H	0.786394	0.666037	0.893446
	H48	H	0.407543	0.121005	0.593647
	H49	H	0.595640	0.887734	0.590406
	H50	H	0.583741	0.117235	0.397448
	H51	H	0.410518	0.891263	0.408220
	H52	H	0.594258	0.413028	0.111192
	H53	H	0.590865	0.586939	0.881367
	H54	H	0.405890	0.601540	0.114635
	H55	H	0.404608	0.417104	0.877687
	H56	H	0.115860	0.595480	0.402768
	H57	H	0.880907	0.596399	0.590343
	H58	H	0.115763	0.417154	0.583528
	H59	H	0.888048	0.414962	0.411850
	H60	H	0.120102	0.407720	0.587360
	H61	H	0.882517	0.598647	0.582107
	H62	H	0.117770	0.597182	0.396049
	H63	H	0.882096	0.415366	0.392517
	H64	H	0.404258	0.589006	0.111127
	H65	H	0.584751	0.607283	0.876696
	H66	H	0.588306	0.411130	0.111162
	H67	H	0.421629	0.413702	0.882240
	H68	H	0.599205	0.117774	0.411029
	H69	H	0.588263	0.889811	0.590088
	H70	H	0.408179	0.117656	0.586402
	H71	H	0.399953	0.886796	0.404624
	H72	H	0.903520	0.623016	0.093314
	H73	H	0.093082	0.389372	0.083841
	H74	H	0.091226	0.616936	0.899328
	H75	H	0.917269	0.393358	0.906236
	H76	H	0.085866	0.907905	0.609760
	H77	H	0.094762	0.097724	0.374365
	H78	H	0.895934	0.089236	0.612042
	H79	H	0.902576	0.900125	0.370419
	H80	H	0.614164	0.095430	0.911153
	H81	H	0.382968	0.090752	0.093335
	H82	H	0.620189	0.903293	0.085837
	H83	H	0.383613	0.905797	0.911413
	H84	H	0.615517	0.912974	0.083180
	H85	H	0.380366	0.102373	0.088866
	H86	H	0.617222	0.088974	0.896882
	H87	H	0.385978	0.916910	0.907469
	H88	H	0.921627	0.087819	0.603836
	H89	H	0.092568	0.095662	0.376571
	H90	H	0.091761	0.907939	0.612367
	H91	H	0.900788	0.919685	0.376854
	H92	H	0.101340	0.619461	0.900742
	H93	H	0.092748	0.389173	0.086201
	H94	H	0.915095	0.617065	0.087550
	H95	H	0.897687	0.386810	0.906695
	H96	H	0.401527	0.120776	0.588573
	H97	H	0.592263	0.891172	0.583546
	H98	H	0.601678	0.124396	0.392177
	H99	H	0.409663	0.887248	0.396863
	H100	H	0.592503	0.407129	0.113919
	H101	H	0.605133	0.600695	0.872699
	H102	H	0.415124	0.594630	0.109460
	H103	H	0.411503	0.401356	0.874312
	H104	H	0.117085	0.602252	0.402020
	H105	H	0.884220	0.591315	0.584503
	H106	H	0.116409	0.408287	0.576876
	H107	H	0.880510	0.398844	0.402581
	H108	H	0.903665	0.619065	0.079633
	H109	H	0.091570	0.389505	0.085001
	H110	H	0.096820	0.620744	0.891170
	H111	H	0.909329	0.384917	0.889494
	H112	H	0.089638	0.913309	0.609788
	H113	H	0.092076	0.098610	0.375744
	H114	H	0.911329	0.110255	0.613405
	H115	H	0.919434	0.909571	0.378717
	H116	H	0.620684	0.103920	0.900118
	H117	H	0.385705	0.093938	0.081383
	H118	H	0.619122	0.911481	0.093393
	H119	H	0.381237	0.908594	0.899729
	C120	C	0.376281	0.012745	0.618394
	C121	C	0.621829	0.996605	0.616496
	C122	C	0.623071	0.012282	0.372094
	C123	C	0.378725	0.995241	0.373726
	C124	C	0.621903	0.381917	0.003385
	C125	C	0.622763	0.625867	0.985755
	C126	C	0.380170	0.624594	0.003099
	C127	C	0.380188	0.381598	0.985969
	C128	C	0.008096	0.625652	0.371714
	C129	C	0.991354	0.624785	0.613568
	C130	C	0.008940	0.381741	0.613566
	C131	C	0.992259	0.382445	0.371333
	C132	C	0.878100	0.512439	0.115952
	C133	C	0.121838	0.496252	0.113501
	C134	C	0.125323	0.511866	0.868447
	C135	C	0.879251	0.495389	0.871274
	C136	C	0.119807	0.882252	0.501897
	C137	C	0.121395	0.125705	0.484148
	C138	C	0.879990	0.124911	0.501103
	C139	C	0.877628	0.881269	0.484344
	C140	C	0.508810	0.125024	0.874209
	C141	C	0.491690	0.124299	0.116418
	C142	C	0.509273	0.880968	0.117445
	C143	C	0.491736	0.882088	0.874982
	C144	C	0.377931	0.890686	0.673710
	C145	C	0.620092	0.118321	0.671904
	C146	C	0.620281	0.889963	0.317770
	C147	C	0.382172	0.117497	0.317842
	C148	C	0.677609	0.384917	0.878941
	C149	C	0.676374	0.620672	0.110125
	C150	C	0.327346	0.622282	0.878412
	C151	C	0.322380	0.384413	0.109519
	C152	C	0.884927	0.681097	0.372004
	C153	C	0.114371	0.681933	0.611471
	C154	C	0.885685	0.325103	0.613747
	C155	C	0.115640	0.326870	0.370080
	C156	C	0.885183	0.383961	0.670102
	C157	C	0.115986	0.621768	0.666030
	C158	C	0.884346	0.621812	0.317161
	C159	C	0.116393	0.387256	0.315426
	C160	C	0.381990	0.681613	0.880078
	C161	C	0.621232	0.680390	0.109712
	C162	C	0.622223	0.325366	0.880059
	C163	C	0.378024	0.325269	0.109314
	C164	C	0.677443	0.889844	0.375467
	C165	C	0.678931	0.117828	0.614060
	C166	C	0.319834	0.890826	0.616076
	C167	C	0.324003	0.117619	0.375150
	C168	C	0.880718	0.390419	0.171158
	C169	C	0.119482	0.618788	0.168300
	C170	C	0.122427	0.389778	0.813344
	C171	C	0.883013	0.617841	0.816289
	C172	C	0.176951	0.886181	0.378398
	C173	C	0.174097	0.122095	0.609176
	C174	C	0.825186	0.121410	0.377411
	C175	C	0.822940	0.884819	0.608817
	C176	C	0.386208	0.182027	0.875337
	C177	C	0.614870	0.181615	0.115955
	C178	C	0.385826	0.824562	0.117202
	C179	C	0.615223	0.827556	0.874405
	C180	C	0.384836	0.884197	0.172718
	C181	C	0.616139	0.120980	0.169795
	C182	C	0.384542	0.122622	0.820221
	C183	C	0.615002	0.885410	0.817611
	C184	C	0.880790	0.180480	0.377681
	C185	C	0.120357	0.182370	0.607368
	C186	C	0.119874	0.827468	0.378134
	C187	C	0.877645	0.825363	0.607808
	C188	C	0.181202	0.390052	0.870607
	C189	C	0.177403	0.618796	0.110084
	C190	C	0.822455	0.390199	0.114185
	C191	C	0.824325	0.617390	0.873368
	C192	C	0.399005	0.097725	0.596006
	C193	C	0.598850	0.911360	0.594492
	C194	C	0.601274	0.097688	0.393915
	C195	C	0.400471	0.910406	0.396515
	C196	C	0.598429	0.403947	0.089562
	C197	C	0.600223	0.604645	0.899268
	C198	C	0.402033	0.601718	0.089513
	C199	C	0.405191	0.404119	0.900343
	C200	C	0.094529	0.604587	0.394009
	C201	C	0.904813	0.602136	0.591955
	C202	C	0.095027	0.404472	0.589586
	C203	C	0.905973	0.403649	0.395263
	C204	C	0.900715	0.597721	0.093386
	C205	C	0.099234	0.411262	0.091445
	C206	C	0.103241	0.596876	0.890540
	C207	C	0.901419	0.410221	0.894109
	C208	C	0.096013	0.903494	0.588327
	C209	C	0.099721	0.103678	0.397888
	C210	C	0.902872	0.102383	0.587490
	C211	C	0.900706	0.903181	0.397635
	C212	C	0.594866	0.102652	0.896234
	C213	C	0.405364	0.102366	0.094300
	C214	C	0.595784	0.902873	0.094408
	C215	C	0.405797	0.903907	0.899165
	Zn216	Zn	0.499365	0.004051	0.746476
	Zn217	Zn	0.500888	0.003278	0.244479
	Zn218	Zn	0.749914	0.503485	-0.006232
	Zn219	Zn	0.252480	0.503695	-0.007292
	Zn220	Zn	-0.001566	0.753380	0.492703
	Zn221	Zn	0.000972	0.253531	0.491921
	Zn222	Zn	0.000774	0.503268	0.741651
	Zn223	Zn	0.000238	0.504992	0.244158
	Zn224	Zn	0.500882	0.752994	-0.004654
	Zn225	Zn	0.500944	0.252958	-0.004457
	Zn226	Zn	0.751772	0.003588	0.493306
	Zn227	Zn	0.248481	0.004466	0.494723
	N228	N	0.412131	0.967431	0.675464
	N229	N	0.585130	0.041821	0.673381
	N230	N	0.587276	0.967027	0.315591
	N231	N	0.415396	0.040424	0.316751
	N232	N	0.677650	0.419289	0.956458
	N233	N	0.677456	0.587558	0.031955
	N234	N	0.326193	0.587428	0.955752
	N235	N	0.323471	0.418917	0.031626
	N236	N	0.962929	0.683449	0.405472
	N237	N	0.035777	0.683725	0.579398
	N238	N	0.963605	0.323612	0.579423
	N239	N	0.037410	0.323822	0.404236
	N240	N	0.962986	0.418546	0.670117
	N241	N	0.038506	0.586936	0.667488
	N242	N	0.961970	0.588062	0.316819
	N243	N	0.038698	0.420913	0.316191
	N244	N	0.414292	0.683222	0.958721
	N245	N	0.588608	0.683781	0.031345
	N246	N	0.588609	0.323174	0.958540
	N247	N	0.413220	0.323432	0.031739
	N248	N	0.679152	0.966944	0.408839
	N249	N	0.680040	0.041010	0.580353
	N250	N	0.318639	0.967783	0.582364
	N251	N	0.321740	0.040919	0.409235
	N252	N	0.914481	0.467382	0.172275
	N253	N	0.085731	0.541733	0.170627
	N254	N	0.088662	0.466495	0.811610
	N255	N	0.916571	0.540884	0.814925
	N256	N	0.177179	0.919251	0.456379
	N257	N	0.175025	0.087513	0.531754
	N258	N	0.824620	0.087508	0.455321
	N259	N	0.823028	0.919110	0.531107
	N260	N	0.464363	0.183565	0.908126
	N261	N	0.536468	0.183669	0.083199
	N262	N	0.464162	0.822524	0.083505
	N263	N	0.537495	0.825257	0.909372
	N264	N	0.462595	0.918406	0.173080
	N265	N	0.538735	0.086073	0.170107
	N266	N	0.461905	0.087838	0.819357
	N267	N	0.537094	0.918690	0.817657
	N268	N	0.914391	0.182542	0.455681
	N269	N	0.088191	0.184591	0.528901
	N270	N	0.085143	0.824968	0.456066
	N271	N	0.910861	0.823027	0.529213
	N272	N	0.183250	0.466985	0.904131
	N273	N	0.178913	0.541888	0.076621
	N274	N	0.820937	0.467169	0.080182
	N275	N	0.821981	0.540329	0.906979
	O276	O	-0.096206	0.015887	0.031212
	H277	H	-0.100886	0.019146	0.029961
	H278	H	-0.094418	0.007191	0.033793
	O279	O	0.402914	0.463356	0.492636
	H280	H	0.405980	0.452268	0.483077
	H281	H	0.406582	0.463503	0.498586
	O282	O	0.490570	0.414284	0.556765
	H283	H	0.502235	0.422533	0.562282
	H284	H	0.504174	0.412761	0.553355
	O285	O	0.053475	0.923417	1.057590
	H286	H	0.052000	0.928863	1.061989
	H287	H	0.049712	0.917875	1.064466
	O288	O	0.507730	0.468728	0.430708
	H289	H	0.513968	0.463782	0.442763
	H290	H	0.508817	0.469211	0.435812
	O291	O	1.086647	1.002479	0.942510
	H292	H	1.081922	1.007093	0.940441
	H293	H	1.092999	0.998499	0.947178
	O294	O	0.981948	0.933751	1.073339
	H295	H	0.985333	0.942330	1.069662
	H296	H	0.990463	0.938831	1.076550
	O297	O	1.043044	0.004302	0.997105
	H298	H	1.037879	0.007345	1.009589
	H299	H	1.033182	-0.003221	0.996111
	O300	O	0.478427	0.555732	0.461043
	H301	H	0.475351	0.556479	0.445016
	H302	H	0.484861	0.565463	0.455958
	O303	O	0.971863	0.114763	0.034545
	H304	H	0.969686	0.117543	0.024319
	H305	H	0.977819	0.115040	0.030365
	O306	O	-0.088827	1.014590	0.960956
	H307	H	-0.099805	1.023618	0.953480
	H308	H	-0.077633	1.004313	0.959526
	O309	O	0.587750	0.447774	0.491395
	H310	H	0.584439	0.457864	0.488267
	H311	H	0.590818	0.455097	0.498283
	O312	O	1.056231	0.015867	0.959659
	H313	H	1.052531	0.013531	0.949308
	H314	H	1.050948	0.006303	0.949965
	O315	O	0.508246	0.563252	0.546100
	H316	H	0.508033	0.569388	0.553161
	H317	H	0.503608	0.567983	0.546980
	O318	O	0.547495	0.584647	0.488132
	H319	H	0.547040	0.581869	0.486735
	H320	H	0.550939	0.589536	0.473526
	O321	O	0.901412	1.079858	0.981221
	H322	H	0.895023	1.087598	0.965458
	H323	H	0.896343	1.078920	0.971621
	O324	O	0.415087	0.434104	0.515500
	H325	H	0.415606	0.434468	0.510219
	H326	H	0.405884	0.440389	0.522018
	O327	O	0.503191	0.414870	0.461200
	H328	H	0.493729	0.403686	0.469823
	H329	H	0.504176	0.418792	0.464592
	O330	O	0.971154	0.054081	0.932432
	H331	H	0.982276	0.047766	0.930375
	H332	H	0.967907	0.057057	0.940632
	O333	O	1.088664	0.957945	-0.008471
	H334	H	1.086381	0.952540	0.004043
	H335	H	1.094407	0.961696	-0.008302
	O336	O	0.370497	0.532664	0.486463
	H337	H	0.354114	0.529704	0.495181
	H338	H	0.364326	0.521953	0.487661
	O339	O	0.548669	0.486819	0.462767
	H340	H	0.549317	0.477632	0.459754
	H341	H	0.552190	0.492369	0.467217
	O342	O	0.056025	1.077461	-0.005033
	H343	H	0.065052	1.077403	-0.003510
	H344	H	0.061764	1.083675	-0.003428
	O345	O	0.054000	0.041899	-0.069871
	H346	H	0.060481	0.033476	-0.065710
	H347	H	0.047043	0.033450	-0.067872
	O348	O	0.460214	0.418159	0.611567
	H349	H	0.460470	0.423291	0.611843
	H350	H	0.460331	0.413610	0.620220
	O351	O	0.397801	0.560584	0.522418
	H352	H	0.397802	0.560767	0.529495
	H353	H	0.401664	0.555471	0.521649
	O354	O	0.577991	0.599041	0.423180
	H355	H	0.562409	0.589789	0.417718
	H356	H	0.576318	0.603940	0.421608
	O357	O	-0.052374	0.088642	0.896854
	H358	H	-0.043009	0.085439	0.895970
	H359	H	-0.052753	0.083771	0.885905
	O360	O	-0.051753	0.005833	0.014922
	H361	H	-0.048817	0.014608	0.016932
	H362	H	-0.046015	0.010260	0.011206
	O363	O	0.495093	0.526299	0.540238
	H364	H	0.485917	0.520799	0.539999
	H365	H	0.502030	0.521630	0.537333
	O366	O	0.052316	-0.050968	0.988197
	H367	H	0.053187	-0.034363	0.995482
	H368	H	0.043693	-0.051425	0.991170
	O369	O	0.587669	0.525440	0.527471
	H370	H	0.588735	0.527739	0.537741
	H371	H	0.588954	0.525620	0.519838
