data_Molecule from HDF5

_cell_length_a		16.428925
_cell_length_b		16.228075
_cell_length_c		16.457887
_cell_angle_alpha	90.199239
_cell_angle_beta	90.127222
_cell_angle_gamma	90.045831
_symmetry_space_group_name_H-M	'P 1'
_symmetry_Int_Tables_number		1

loop_
	_symmetry_equiv_pos_as_xyz
	x,y,z

loop_
	_atom_site_label
	_atom_site_type_symbol
	_atom_site_fract_x
	_atom_site_fract_y
	_atom_site_fract_z
	H0	H	0.401291	0.853972	0.716393
	H1	H	0.609217	0.176258	0.719724
	H2	H	0.607490	0.854469	0.279014
	H3	H	0.401234	0.177439	0.281269
	H4	H	0.724290	0.408752	0.842384
	H5	H	0.719657	0.618845	0.160322
	H6	H	0.278080	0.621735	0.843156
	H7	H	0.280332	0.407344	0.159037
	H8	H	0.841054	0.730352	0.402565
	H9	H	0.162802	0.733789	0.606742
	H10	H	0.842369	0.295817	0.601346
	H11	H	0.163023	0.294606	0.397417
	H12	H	0.842839	0.409847	0.720576
	H13	H	0.160489	0.620964	0.725877
	H14	H	0.842332	0.616592	0.283328
	H15	H	0.159322	0.403895	0.276257
	H16	H	0.400041	0.732144	0.838980
	H17	H	0.603594	0.735803	0.159320
	H18	H	0.602859	0.298058	0.839390
	H19	H	0.397414	0.293800	0.158225
	H20	H	0.721258	0.852760	0.396666
	H21	H	0.722731	0.176572	0.602184
	H22	H	0.285378	0.853843	0.601507
	H23	H	0.283282	0.176018	0.394203
	H24	H	0.897584	0.352629	0.219742
	H25	H	0.105589	0.675557	0.223134
	H26	H	0.106307	0.354145	0.780950
	H27	H	0.896484	0.675057	0.782439
	H28	H	0.225426	0.905234	0.341790
	H29	H	0.227366	0.121387	0.657366
	H30	H	0.782373	0.120239	0.341140
	H31	H	0.781075	0.908754	0.658327
	H32	H	0.343283	0.237091	0.893095
	H33	H	0.662539	0.236633	0.101923
	H34	H	0.342296	0.797700	0.101436
	H35	H	0.662221	0.796555	0.897040
	H36	H	0.345957	0.906278	0.223074
	H37	H	0.662455	0.121431	0.219798
	H38	H	0.345973	0.123658	0.773629
	H39	H	0.662095	0.909450	0.778535
	H40	H	0.899052	0.235195	0.341185
	H41	H	0.107791	0.234653	0.659945
	H42	H	0.105073	0.793001	0.341763
	H43	H	0.902439	0.798428	0.661638
	H44	H	0.222879	0.354683	0.895785
	H45	H	0.222280	0.676445	0.108781
	H46	H	0.778960	0.355762	0.106650
	H47	H	0.786213	0.677624	0.901047
	H48	H	0.420703	0.130726	0.592846
	H49	H	0.594996	0.897752	0.593072
	H50	H	0.590235	0.126673	0.417261
	H51	H	0.408607	0.898959	0.410015
	H52	H	0.590112	0.420106	0.115149
	H53	H	0.594898	0.608076	0.885474
	H54	H	0.415773	0.603524	0.111304
	H55	H	0.412690	0.437612	0.891970
	H56	H	0.115022	0.597762	0.411855
	H57	H	0.885908	0.608994	0.599236
	H58	H	0.115569	0.424321	0.588347
	H59	H	0.887293	0.420320	0.408336
	H60	H	0.114029	0.431139	0.590482
	H61	H	0.889865	0.608068	0.587606
	H62	H	0.118221	0.604771	0.407277
	H63	H	0.891531	0.425250	0.415598
	H64	H	0.413549	0.611068	0.114851
	H65	H	0.596869	0.605599	0.884841
	H66	H	0.598130	0.430692	0.114342
	H67	H	0.420781	0.423298	0.888373
	H68	H	0.603323	0.133101	0.409937
	H69	H	0.588909	0.901965	0.588527
	H70	H	0.420367	0.126743	0.580008
	H71	H	0.419623	0.899975	0.404020
	H72	H	0.909817	0.632472	0.097853
	H73	H	0.092645	0.399901	0.089560
	H74	H	0.093632	0.631597	0.908681
	H75	H	0.907835	0.396860	0.908038
	H76	H	0.097510	0.929150	0.613016
	H77	H	0.095155	0.106178	0.385464
	H78	H	0.917892	0.103377	0.611420
	H79	H	0.914035	0.926290	0.388307
	H80	H	0.616801	0.104884	0.906521
	H81	H	0.389839	0.105970	0.087172
	H82	H	0.615303	0.931922	0.092159
	H83	H	0.389031	0.924263	0.910428
	H84	H	0.618685	0.921564	0.092123
	H85	H	0.391739	0.100548	0.089343
	H86	H	0.615606	0.107355	0.912231
	H87	H	0.390101	0.930879	0.904609
	H88	H	0.911805	0.108458	0.615238
	H89	H	0.094456	0.098837	0.387949
	H90	H	0.091870	0.925639	0.613017
	H91	H	0.914512	0.920719	0.386841
	H92	H	0.082157	0.626504	0.913233
	H93	H	0.089083	0.400543	0.090958
	H94	H	0.917738	0.627953	0.093866
	H95	H	0.917590	0.400850	0.909767
	H96	H	0.408891	0.131196	0.585380
	H97	H	0.596200	0.900215	0.585036
	H98	H	0.589130	0.131739	0.401831
	H99	H	0.418252	0.903677	0.415174
	H100	H	0.586274	0.431490	0.109916
	H101	H	0.594177	0.604475	0.885476
	H102	H	0.407702	0.604618	0.114155
	H103	H	0.404033	0.425342	0.884060
	H104	H	0.115736	0.605839	0.416079
	H105	H	0.890275	0.598523	0.595039
	H106	H	0.116718	0.426424	0.595396
	H107	H	0.889687	0.429666	0.406907
	H108	H	0.909223	0.629233	0.088547
	H109	H	0.090706	0.401653	0.087099
	H110	H	0.092951	0.627538	0.921254
	H111	H	0.910261	0.400241	0.917671
	H112	H	0.097695	0.923701	0.615700
	H113	H	0.088875	0.103692	0.388512
	H114	H	0.910066	0.100283	0.613270
	H115	H	0.909690	0.923171	0.386059
	H116	H	0.613776	0.101175	0.911422
	H117	H	0.388220	0.105009	0.092911
	H118	H	0.614507	0.925915	0.083121
	H119	H	0.387428	0.923346	0.902225
	C120	C	0.384577	0.023508	0.618357
	C121	C	0.625386	1.006421	0.620542
	C122	C	0.624977	0.023581	0.378282
	C123	C	0.383075	1.006948	0.377608
	C124	C	0.623279	0.394842	0.008243
	C125	C	0.624697	0.637855	0.991240
	C126	C	0.380341	0.637333	0.008301
	C127	C	0.380399	0.395024	0.992209
	C128	C	0.010587	0.634614	0.381355
	C129	C	0.993910	0.636968	0.625331
	C130	C	0.010521	0.394372	0.622157
	C131	C	0.994206	0.391895	0.378281
	C132	C	0.880179	0.523570	0.123971
	C133	C	0.123342	0.506656	0.123130
	C134	C	0.122420	0.522927	0.881161
	C135	C	0.881073	0.506258	0.881010
	C136	C	0.126003	0.892853	0.508924
	C137	C	0.125336	0.135893	0.491957
	C138	C	0.882010	0.135960	0.508355
	C139	C	0.881811	0.892956	0.492538
	C140	C	0.510603	0.137067	0.877353
	C141	C	0.494808	0.137402	0.121035
	C142	C	0.511047	0.894323	0.120585
	C143	C	0.494299	0.894172	0.876126
	C144	C	0.382609	0.902207	0.677191
	C145	C	0.627221	0.127939	0.679969
	C146	C	0.625997	0.902483	0.318908
	C147	C	0.381985	0.128727	0.319726
	C148	C	0.683431	0.391691	0.889282
	C149	C	0.681396	0.638406	0.111941
	C150	C	0.319333	0.639010	0.889665
	C151	C	0.320519	0.390666	0.111365
	C152	C	0.889692	0.691976	0.382448
	C153	C	0.114402	0.695078	0.626045
	C154	C	0.890447	0.334794	0.621740
	C155	C	0.114502	0.333201	0.378111
	C156	C	0.890829	0.391286	0.681262
	C157	C	0.113126	0.639111	0.685726
	C158	C	0.890163	0.635391	0.323015
	C159	C	0.112718	0.387510	0.317478
	C160	C	0.379921	0.694138	0.887667
	C161	C	0.623459	0.696566	0.111323
	C162	C	0.623224	0.336338	0.887798
	C163	C	0.378545	0.333560	0.110956
	C164	C	0.682680	0.901593	0.377618
	C165	C	0.683863	0.128280	0.621614
	C166	C	0.325264	0.902109	0.619581
	C167	C	0.323351	0.128040	0.376191
	C168	C	0.878609	0.401857	0.181594
	C169	C	0.125056	0.627366	0.183993
	C170	C	0.124690	0.402503	0.820633
	C171	C	0.879102	0.627298	0.822247
	C172	C	0.185271	0.888198	0.389611
	C173	C	0.186757	0.139638	0.610380
	C174	C	0.822277	0.138178	0.388765
	C175	C	0.822032	0.891372	0.611484
	C176	C	0.391261	0.197399	0.874889
	C177	C	0.614541	0.197503	0.121612
	C178	C	0.390870	0.835838	0.121005
	C179	C	0.614197	0.835242	0.877026
	C180	C	0.392552	0.890158	0.181725
	C181	C	0.614699	0.140059	0.180147
	C182	C	0.392599	0.140869	0.815246
	C183	C	0.614315	0.891931	0.818142
	C184	C	0.880574	0.195430	0.388822
	C185	C	0.127295	0.195982	0.611685
	C186	C	0.125550	0.832067	0.389566
	C187	C	0.882486	0.836421	0.613241
	C188	C	0.182810	0.402752	0.877729
	C189	C	0.182831	0.627726	0.126618
	C190	C	0.819810	0.403089	0.124935
	C191	C	0.823974	0.628346	0.881354
	C192	C	0.409516	0.107659	0.593329
	C193	C	0.600721	0.922024	0.595943
	C194	C	0.601142	0.108555	0.402669
	C195	C	0.408315	0.922871	0.402277
	C196	C	0.598549	0.420094	0.091460
	C197	C	0.601891	0.613145	0.907092
	C198	C	0.405090	0.613316	0.091746
	C199	C	0.405123	0.421214	0.909719
	C200	C	0.094535	0.609894	0.404897
	C201	C	0.910173	0.612302	0.600913
	C202	C	0.093750	0.419969	0.598237
	C203	C	0.911017	0.417583	0.403020
	C204	C	0.905101	0.608000	0.100295
	C205	C	0.098164	0.422673	0.097010
	C206	C	0.096817	0.606968	0.906962
	C207	C	0.905006	0.421312	0.904907
	C208	C	0.102621	0.918917	0.592142
	C209	C	0.099969	0.110399	0.409056
	C210	C	0.906342	0.110898	0.591669
	C211	C	0.905795	0.916682	0.408814
	C212	C	0.593776	0.111746	0.902790
	C213	C	0.411439	0.111606	0.096749
	C214	C	0.594349	0.919348	0.096194
	C215	C	0.410604	0.919019	0.899175
	Zn216	Zn	0.503691	0.015931	0.747541
	Zn217	Zn	0.504021	0.015592	0.249449
	Zn218	Zn	0.753509	0.515326	0.000906
	Zn219	Zn	0.251184	0.515563	0.001898
	Zn220	Zn	0.003397	0.764326	0.502181
	Zn221	Zn	0.003405	0.264793	0.500849
	Zn222	Zn	0.001337	0.514667	0.753243
	Zn223	Zn	0.002368	0.514050	0.251025
	Zn224	Zn	0.501849	0.766080	-0.001254
	Zn225	Zn	0.502039	0.266013	-0.000713
	Zn226	Zn	0.753358	0.014853	0.499454
	Zn227	Zn	0.254705	0.015180	0.498732
	N228	N	0.418600	0.978691	0.676542
	N229	N	0.592035	0.051113	0.679621
	N230	N	0.591015	0.979289	0.319324
	N231	N	0.417984	0.052296	0.320353
	N232	N	0.683496	0.427249	0.965258
	N233	N	0.682491	0.602872	0.036080
	N234	N	0.319221	0.604686	0.965938
	N235	N	0.321556	0.428197	0.036624
	N236	N	0.965641	0.691591	0.417800
	N237	N	0.039120	0.694108	0.589507
	N238	N	0.965916	0.336460	0.585888
	N239	N	0.039463	0.335617	0.415120
	N240	N	0.966454	0.427677	0.681477
	N241	N	0.037241	0.603580	0.685290
	N242	N	0.966500	0.600495	0.322155
	N243	N	0.036950	0.423349	0.317552
	N244	N	0.417045	0.693135	0.962388
	N245	N	0.588770	0.695960	0.035275
	N246	N	0.586529	0.338251	0.962736
	N247	N	0.415069	0.335888	0.036043
	N248	N	0.682203	0.978149	0.413726
	N249	N	0.682929	0.051793	0.585448
	N250	N	0.326252	0.978575	0.583769
	N251	N	0.323686	0.051297	0.411361
	N252	N	0.915430	0.477934	0.180983
	N253	N	0.089031	0.550968	0.181967
	N254	N	0.087827	0.478594	0.822762
	N255	N	0.914226	0.550474	0.822214
	N256	N	0.185553	0.925454	0.464647
	N257	N	0.185699	0.103150	0.535011
	N258	N	0.823045	0.101743	0.464230
	N259	N	0.821490	0.925837	0.535252
	N260	N	0.465715	0.194903	0.912905
	N261	N	0.538949	0.195894	0.085622
	N262	N	0.465262	0.838543	0.083408
	N263	N	0.538541	0.836333	0.912459
	N264	N	0.468388	0.925978	0.181689
	N265	N	0.539235	0.103503	0.179884
	N266	N	0.467970	0.104168	0.816708
	N267	N	0.538658	0.927791	0.817415
	N268	N	0.916994	0.194082	0.463926
	N269	N	0.089585	0.193643	0.537033
	N270	N	0.089590	0.834582	0.464885
	N271	N	0.918915	0.837389	0.538251
	N272	N	0.181399	0.478667	0.914703
	N273	N	0.181901	0.551528	0.089598
	N274	N	0.820473	0.479640	0.089970
	N275	N	0.824999	0.551837	0.917140
	O276	O	1.156788	-0.099177	0.854366
	H277	H	1.180362	-0.111358	0.838546
	H278	H	1.141242	-0.109803	0.850438
	O279	O	0.444191	0.459376	0.627019
	H280	H	0.440288	0.454064	0.614677
	H281	H	0.461846	0.456128	0.638642
	O282	O	0.443051	0.364922	0.370424
	H283	H	0.449620	0.375654	0.359285
	H284	H	0.443315	0.368158	0.361281
	O285	O	0.810155	-0.017800	0.161037
	H286	H	0.809828	-0.030667	0.170889
	H287	H	0.811995	-0.023179	0.171604
	O288	O	0.204006	-0.140158	0.946695
	H289	H	0.209763	-0.149461	0.959678
	H290	H	0.198432	-0.158014	0.937955
	O291	O	0.525514	0.453677	0.513268
	H292	H	0.540222	0.456365	0.507679
	H293	H	0.532345	0.456096	0.511552
	O294	O	0.615065	0.556902	0.460394
	H295	H	0.600341	0.555335	0.461581
	H296	H	0.622502	0.550346	0.457186
	O297	O	1.210210	1.216548	1.023515
	H298	H	1.222289	1.209427	1.005919
	H299	H	1.217981	1.224170	1.011935
	O300	O	0.002933	0.047378	-0.190033
	H301	H	-0.016019	0.035450	-0.183197
	H302	H	0.001402	0.047023	-0.198924
	O303	O	0.291163	0.553497	0.349884
	H304	H	0.278019	0.547350	0.351420
	H305	H	0.282142	0.553894	0.348217
	O306	O	1.369344	-0.309555	0.350675
	H307	H	1.372741	-0.326223	0.350014
	H308	H	1.386760	-0.311401	0.359769
	O309	O	0.377674	0.559832	0.572542
	H310	H	0.373187	0.570494	0.557477
	H311	H	0.388228	0.562695	0.557243
	O312	O	0.908787	0.972112	-0.047431
	H313	H	0.911615	0.982545	-0.043458
	H314	H	0.922227	0.977564	-0.037999
	O315	O	0.655627	0.426754	0.326889
	H316	H	0.673523	0.424576	0.312929
	H317	H	0.656396	0.440513	0.318159
	O318	O	0.548656	0.659766	0.505451
	H319	H	0.539671	0.667641	0.503465
	H320	H	0.547204	0.654835	0.515672
	O321	O	1.028988	0.099461	0.819049
	H322	H	1.021745	0.110605	0.826867
	H323	H	1.043714	0.102204	0.830538
	O324	O	0.054337	0.021324	1.200251
	H325	H	0.061109	0.012730	1.215674
	H326	H	0.057504	0.033391	1.210470
	O327	O	0.566600	0.458952	0.560204
	H328	H	0.562368	0.461621	0.565114
	H329	H	0.567654	0.447244	0.572083
	O330	O	0.653282	0.658759	0.624541
	H331	H	0.660004	0.636530	0.627993
	H332	H	0.647569	0.658390	0.621857
	O333	O	0.623315	0.619805	0.344216
	H334	H	0.621638	0.609703	0.360769
	H335	H	0.614080	0.630195	0.352932
	O336	O	0.560816	0.341837	0.439153
	H337	H	0.564440	0.337642	0.442212
	H338	H	0.554079	0.343989	0.426508
	O339	O	1.218620	0.033789	1.220739
	H340	H	1.209416	0.084986	1.211036
	H341	H	1.250920	0.040170	1.249729
	O342	O	-0.527202	0.657427	0.643444
	H343	H	-0.533775	0.651571	0.658378
	H344	H	-0.533674	0.650325	0.626844
	O345	O	-0.028987	0.895145	1.154216
	H346	H	-0.018566	0.890485	1.154516
	H347	H	-0.034873	0.890665	1.159064
	O348	O	-0.799185	0.941530	-1.000387
	H349	H	-0.815483	0.943235	-0.975358
	H350	H	-0.784862	0.918802	-1.003589
	O351	O	0.026921	-0.061526	0.075059
	H352	H	0.031336	-0.068415	0.065311
	H353	H	0.038756	-0.061346	0.087745
	O354	O	1.322529	1.378650	0.581063
	H355	H	1.320097	1.384511	0.573608
	H356	H	1.315930	1.391210	0.572681
	O357	O	-0.396268	1.247058	-0.260960
	H358	H	-0.401859	1.237848	-0.256267
	H359	H	-0.407535	1.253988	-0.266235
	O360	O	0.396413	0.508240	0.679053
	H361	H	0.383662	0.507959	0.688376
	H362	H	0.404255	0.495293	0.682371
	O363	O	0.515930	0.621821	0.387035
	H364	H	0.498219	0.628263	0.410554
	H365	H	0.508992	0.625644	0.368190
	O366	O	0.629684	0.490113	0.519856
	H367	H	0.616416	0.491480	0.512600
	H368	H	0.635886	0.481622	0.523556
	O369	O	0.632564	0.489830	0.483754
	H370	H	0.637000	0.487619	0.485315
	H371	H	0.631840	0.486219	0.472106
	O372	O	0.486950	0.434011	0.585159
	H373	H	0.492832	0.435046	0.594778
	H374	H	0.468696	0.413381	0.581208
	O375	O	0.625571	0.603160	0.554216
	H376	H	0.633969	0.608052	0.559806
	H377	H	0.627652	0.610929	0.563633
	O378	O	0.970184	1.037282	0.931992
	H379	H	0.970376	1.049783	0.929149
	H380	H	0.977488	1.032423	0.943965
	O381	O	-0.052383	0.159031	1.009165
	H382	H	-0.046436	0.156706	1.004960
	H383	H	-0.049245	0.164792	0.994676
	O384	O	-0.093390	0.908211	0.927988
	H385	H	-0.105054	0.914710	0.934496
	H386	H	-0.091371	0.899225	0.917211
	O387	O	0.925316	0.947142	0.050998
	H388	H	0.938910	0.947687	0.052374
	H389	H	0.928648	0.958861	0.051579
	O390	O	0.399197	0.562815	0.465478
	H391	H	0.390123	0.559483	0.466392
	H392	H	0.400096	0.563747	0.461747
	O393	O	0.861001	-0.159551	1.175141
	H394	H	0.849057	-0.187615	1.182303
	H395	H	0.864055	-0.163758	1.167817
	O396	O	-0.104250	0.126801	0.105724
	H397	H	-0.098432	0.119208	0.096628
	H398	H	-0.099669	0.109734	0.110895
	O399	O	0.805598	0.210990	-0.063349
	H400	H	0.790070	0.213470	-0.075244
	H401	H	0.807254	0.201010	-0.047925
	O402	O	0.538719	0.424365	1.488475
	H403	H	0.530812	0.421370	1.490813
	H404	H	0.540706	0.423714	1.494910
	O405	O	-0.147397	-0.178518	0.027210
	H406	H	-0.151246	-0.168243	0.041315
	H407	H	-0.157653	-0.180032	0.023829
	O408	O	0.941227	1.139420	0.905048
	H409	H	0.928079	1.122934	0.904044
	H410	H	0.934609	1.149486	0.901098
	O411	O	1.375641	0.482198	-0.568867
	H412	H	1.389134	0.484169	-0.570032
	H413	H	1.385213	0.482110	-0.577022
	O414	O	0.006333	0.214613	1.141785
	H415	H	0.000139	0.209188	1.116424
	H416	H	0.006161	0.228877	1.163258
	O417	O	1.148062	0.101135	0.939865
	H418	H	1.152360	0.082616	0.929296
	H419	H	1.142626	0.084539	0.933139
	O420	O	-0.131761	0.924566	-0.144387
	H421	H	-0.135913	0.909319	-0.125715
	H422	H	-0.141413	0.939367	-0.144823
	O423	O	1.181387	0.190953	0.184402
	H424	H	1.129639	0.202666	0.193054
	H425	H	1.191941	0.202649	0.131560
	O426	O	0.068214	0.061706	0.891019
	H427	H	0.058755	0.059546	0.892120
	H428	H	0.067413	0.070037	0.888975
	O429	O	0.086337	-0.183137	0.797786
	H430	H	0.073812	-0.202524	0.778015
	H431	H	0.076813	-0.175872	0.809979
