data_Molecule from HDF5

_cell_length_a		16.315468
_cell_length_b		16.360650
_cell_length_c		16.429080
_cell_angle_alpha	89.975566
_cell_angle_beta	90.008027
_cell_angle_gamma	89.949075
_symmetry_space_group_name_H-M	'P 1'
_symmetry_Int_Tables_number		1

loop_
	_symmetry_equiv_pos_as_xyz
	x,y,z

loop_
	_atom_site_label
	_atom_site_type_symbol
	_atom_site_fract_x
	_atom_site_fract_y
	_atom_site_fract_z
	H0	H	0.395897	0.854682	0.725334
	H1	H	0.605970	0.174174	0.724695
	H2	H	0.610115	0.855334	0.279948
	H3	H	0.394136	0.172031	0.281256
	H4	H	0.720413	0.410762	0.843146
	H5	H	0.724553	0.618804	0.162340
	H6	H	0.282461	0.617705	0.843684
	H7	H	0.281479	0.409295	0.162603
	H8	H	0.842115	0.734083	0.397461
	H9	H	0.162800	0.732736	0.606681
	H10	H	0.841900	0.293598	0.605594
	H11	H	0.163276	0.294587	0.400960
	H12	H	0.842512	0.406873	0.722965
	H13	H	0.163782	0.615135	0.721135
	H14	H	0.842909	0.620059	0.280276
	H15	H	0.162640	0.408687	0.283617
	H16	H	0.398126	0.733782	0.843842
	H17	H	0.606698	0.733968	0.162960
	H18	H	0.605343	0.293546	0.844675
	H19	H	0.395154	0.291769	0.162464
	H20	H	0.722607	0.853695	0.399258
	H21	H	0.724438	0.172932	0.610338
	H22	H	0.282750	0.854219	0.608751
	H23	H	0.285111	0.174228	0.403702
	H24	H	0.897938	0.353704	0.222838
	H25	H	0.109483	0.671765	0.225824
	H26	H	0.107748	0.352494	0.782406
	H27	H	0.900462	0.672893	0.782860
	H28	H	0.223759	0.909569	0.343423
	H29	H	0.221451	0.116801	0.662960
	H30	H	0.780602	0.118187	0.344834
	H31	H	0.781555	0.907766	0.661963
	H32	H	0.341924	0.234163	0.900863
	H33	H	0.661891	0.234530	0.109938
	H34	H	0.342369	0.792037	0.109873
	H35	H	0.662044	0.793767	0.899194
	H36	H	0.342157	0.907545	0.225218
	H37	H	0.661010	0.119535	0.225963
	H38	H	0.341572	0.118602	0.785321
	H39	H	0.662122	0.909686	0.784457
	H40	H	0.898213	0.231660	0.343464
	H41	H	0.106275	0.232611	0.661978
	H42	H	0.107685	0.793162	0.343083
	H43	H	0.897603	0.791695	0.661925
	H44	H	0.222563	0.352272	0.900058
	H45	H	0.222166	0.673293	0.107297
	H46	H	0.783767	0.352874	0.105861
	H47	H	0.785262	0.673613	0.899507
	H48	H	0.415011	0.125302	0.589745
	H49	H	0.585998	0.901239	0.598349
	H50	H	0.593931	0.126967	0.418721
	H51	H	0.413806	0.899357	0.414221
	H52	H	0.595765	0.428053	0.117756
	H53	H	0.585179	0.601801	0.892650
	H54	H	0.410483	0.594162	0.114743
	H55	H	0.414197	0.433372	0.893924
	H56	H	0.113986	0.600579	0.416782
	H57	H	0.887260	0.603045	0.593292
	H58	H	0.117353	0.425347	0.595644
	H59	H	0.887902	0.426706	0.409113
	H60	H	0.118979	0.417938	0.594233
	H61	H	0.889313	0.601462	0.589675
	H62	H	0.116009	0.599335	0.412083
	H63	H	0.885122	0.418337	0.410880
	H64	H	0.420013	0.607315	0.115351
	H65	H	0.593921	0.610999	0.887431
	H66	H	0.587765	0.425038	0.116221
	H67	H	0.421120	0.417067	0.890561
	H68	H	0.589433	0.128273	0.409244
	H69	H	0.589082	0.902984	0.588465
	H70	H	0.406212	0.130649	0.595158
	H71	H	0.413518	0.899573	0.414052
	H72	H	0.908504	0.630261	0.094817
	H73	H	0.087757	0.401381	0.088392
	H74	H	0.097590	0.631235	0.902413
	H75	H	0.908754	0.395231	0.906116
	H76	H	0.094824	0.918831	0.618535
	H77	H	0.096969	0.102960	0.387630
	H78	H	0.921383	0.101188	0.613979
	H79	H	0.902803	0.920097	0.385074
	H80	H	0.616802	0.105465	0.916662
	H81	H	0.388287	0.100421	0.094898
	H82	H	0.615348	0.923560	0.090071
	H83	H	0.390618	0.927382	0.920296
	H84	H	0.614489	0.927332	0.090526
	H85	H	0.387228	0.105435	0.093723
	H86	H	0.615299	0.100636	0.915499
	H87	H	0.386502	0.927519	0.908908
	H88	H	0.910106	0.111434	0.620141
	H89	H	0.091735	0.100756	0.390343
	H90	H	0.094731	0.928215	0.615609
	H91	H	0.912641	0.935636	0.393692
	H92	H	0.080278	0.622995	0.910895
	H93	H	0.095584	0.399052	0.091350
	H94	H	0.920584	0.626355	0.095614
	H95	H	0.919052	0.399862	0.910024
	H96	H	0.416261	0.129438	0.600872
	H97	H	0.595691	0.898341	0.595027
	H98	H	0.583710	0.123847	0.417834
	H99	H	0.414271	0.899558	0.414211
	H100	H	0.593729	0.419386	0.118901
	H101	H	0.597978	0.598305	0.890005
	H102	H	0.405492	0.607367	0.121118
	H103	H	0.404233	0.420617	0.886367
	H104	H	0.117105	0.603709	0.413681
	H105	H	0.888949	0.599384	0.593693
	H106	H	0.116153	0.422662	0.588737
	H107	H	0.889371	0.422697	0.417463
	H108	H	0.914177	0.624988	0.084889
	H109	H	0.088623	0.398681	0.096546
	H110	H	0.097652	0.625193	0.922293
	H111	H	0.909809	0.398402	0.917184
	H112	H	0.086488	0.921917	0.613695
	H113	H	0.092447	0.106086	0.388229
	H114	H	0.906440	0.096170	0.617004
	H115	H	0.922069	0.917908	0.391243
	H116	H	0.618415	0.103721	0.912137
	H117	H	0.388907	0.102114	0.089882
	H118	H	0.616285	0.925215	0.093696
	H119	H	0.385705	0.917474	0.915231
	C120	C	0.380273	0.022927	0.626781
	C121	C	0.623315	1.005756	0.626289
	C122	C	0.622253	0.021613	0.382562
	C123	C	0.381523	1.004772	0.382932
	C124	C	0.623774	0.392028	0.012226
	C125	C	0.624423	0.635745	0.995106
	C126	C	0.380795	0.634738	0.011702
	C127	C	0.380764	0.391965	0.995362
	C128	C	0.010475	0.634151	0.381262
	C129	C	0.994305	0.633319	0.623623
	C130	C	0.011410	0.390589	0.624122
	C131	C	0.993732	0.391813	0.381836
	C132	C	0.881672	0.521845	0.124241
	C133	C	0.123451	0.504802	0.124393
	C134	C	0.123877	0.520544	0.881042
	C135	C	0.881059	0.503897	0.880169
	C136	C	0.124716	0.891591	0.510910
	C137	C	0.124156	0.134278	0.494593
	C138	C	0.880702	0.134381	0.511744
	C139	C	0.880473	0.891504	0.494692
	C140	C	0.510610	0.135058	0.883417
	C141	C	0.493156	0.135331	0.125515
	C142	C	0.510243	0.892500	0.124652
	C143	C	0.493418	0.892114	0.882587
	C144	C	0.377902	0.902621	0.685781
	C145	C	0.624911	0.126060	0.685503
	C146	C	0.626902	0.902584	0.321077
	C147	C	0.377874	0.124601	0.322576
	C148	C	0.681478	0.391298	0.891560
	C149	C	0.684543	0.637422	0.114655
	C150	C	0.321957	0.636392	0.891427
	C151	C	0.320916	0.390406	0.115011
	C152	C	0.890249	0.694296	0.379287
	C153	C	0.114854	0.692676	0.625125
	C154	C	0.890235	0.332074	0.624750
	C155	C	0.115018	0.333458	0.381559
	C156	C	0.890465	0.388652	0.683155
	C157	C	0.115400	0.634257	0.682094
	C158	C	0.890506	0.637196	0.320978
	C159	C	0.114388	0.390064	0.322966
	C160	C	0.379495	0.694313	0.891860
	C161	C	0.625820	0.694745	0.115067
	C162	C	0.624183	0.333146	0.892234
	C163	C	0.377660	0.332010	0.114926
	C164	C	0.682790	0.901637	0.380896
	C165	C	0.683708	0.125452	0.628547
	C166	C	0.321619	0.902371	0.627311
	C167	C	0.323268	0.125944	0.382993
	C168	C	0.879198	0.401590	0.183627
	C169	C	0.126605	0.624271	0.184941
	C170	C	0.126174	0.400440	0.822230
	C171	C	0.881195	0.624753	0.822148
	C172	C	0.184425	0.890476	0.391371
	C173	C	0.182523	0.135530	0.614888
	C174	C	0.820445	0.136426	0.392322
	C175	C	0.821287	0.889458	0.614435
	C176	C	0.389973	0.194496	0.882337
	C177	C	0.613517	0.195283	0.128269
	C178	C	0.390275	0.832049	0.127686
	C179	C	0.613895	0.832962	0.880992
	C180	C	0.390141	0.889517	0.185278
	C181	C	0.613336	0.137742	0.185808
	C182	C	0.389719	0.136958	0.824796
	C183	C	0.613923	0.890654	0.823723
	C184	C	0.879142	0.192900	0.391644
	C185	C	0.124814	0.193011	0.614529
	C186	C	0.126387	0.832511	0.391025
	C187	C	0.878976	0.831408	0.614091
	C188	C	0.183314	0.400357	0.880788
	C189	C	0.182765	0.625175	0.125885
	C190	C	0.822730	0.401127	0.124816
	C191	C	0.823805	0.625092	0.880361
	C192	C	0.405281	0.106774	0.602442
	C193	C	0.597826	0.922670	0.601125
	C194	C	0.596501	0.104581	0.407909
	C195	C	0.406563	0.921355	0.407297
	C196	C	0.599521	0.416845	0.095802
	C197	C	0.599495	0.610951	0.911563
	C198	C	0.404927	0.610003	0.095201
	C199	C	0.406064	0.416559	0.912142
	C200	C	0.094092	0.608557	0.406761
	C201	C	0.910339	0.608584	0.599145
	C202	C	0.095449	0.414997	0.599890
	C203	C	0.909444	0.415813	0.405600
	C204	C	0.907118	0.605373	0.099183
	C205	C	0.098115	0.421487	0.099248
	C206	C	0.099079	0.604617	0.905051
	C207	C	0.905315	0.419729	0.904239
	C208	C	0.099455	0.916008	0.594396
	C209	C	0.100458	0.110132	0.410588
	C210	C	0.905499	0.110100	0.595309
	C211	C	0.905313	0.917175	0.411546
	C212	C	0.594799	0.110347	0.907627
	C213	C	0.409895	0.110153	0.100212
	C214	C	0.593492	0.918160	0.098948
	C215	C	0.409431	0.917038	0.907602
	Zn216	Zn	0.501396	0.014092	0.754784
	Zn217	Zn	0.501660	0.013217	0.253094
	Zn218	Zn	0.753168	0.513430	0.003122
	Zn219	Zn	0.252202	0.513072	0.003221
	Zn220	Zn	0.002397	0.762806	0.502361
	Zn221	Zn	0.002466	0.262632	0.502352
	Zn222	Zn	0.002796	0.511898	0.751812
	Zn223	Zn	0.002360	0.512908	0.253039
	Zn224	Zn	0.502065	0.763928	0.003859
	Zn225	Zn	0.502100	0.263478	0.004476
	Zn226	Zn	0.751728	0.013799	0.503963
	Zn227	Zn	0.253368	0.013517	0.503798
	N228	N	0.413579	0.978585	0.685579
	N229	N	0.588301	0.050422	0.684429
	N230	N	0.589922	0.977959	0.322133
	N231	N	0.413268	0.048234	0.322127
	N232	N	0.681445	0.427167	0.967127
	N233	N	0.683624	0.601385	0.039053
	N234	N	0.322241	0.600355	0.966935
	N235	N	0.322580	0.427064	0.039635
	N236	N	0.965841	0.692421	0.416166
	N237	N	0.038578	0.692384	0.589443
	N238	N	0.966312	0.332988	0.588791
	N239	N	0.038797	0.334014	0.417297
	N240	N	0.966795	0.424208	0.683121
	N241	N	0.039485	0.597899	0.681216
	N242	N	0.966273	0.600403	0.322146
	N243	N	0.038224	0.425670	0.323148
	N244	N	0.415061	0.693526	0.967728
	N245	N	0.589290	0.693700	0.039734
	N246	N	0.589096	0.333391	0.968419
	N247	N	0.414123	0.332768	0.039546
	N248	N	0.680040	0.976624	0.418670
	N249	N	0.682910	0.049744	0.592340
	N250	N	0.322687	0.978332	0.591403
	N251	N	0.325498	0.050642	0.419939
	N252	N	0.914906	0.477749	0.183511
	N253	N	0.090271	0.548462	0.183980
	N254	N	0.089993	0.476233	0.822362
	N255	N	0.916178	0.548288	0.821959
	N256	N	0.183673	0.926278	0.467109
	N257	N	0.182074	0.099575	0.539334
	N258	N	0.821384	0.100799	0.468023
	N259	N	0.821849	0.926040	0.539036
	N260	N	0.466163	0.193385	0.918085
	N261	N	0.537879	0.193902	0.091456
	N262	N	0.465935	0.833399	0.091037
	N263	N	0.537659	0.833620	0.916738
	N264	N	0.465710	0.926623	0.183340
	N265	N	0.537612	0.101102	0.184434
	N266	N	0.465704	0.100608	0.825371
	N267	N	0.537847	0.926781	0.824495
	N268	N	0.915883	0.191791	0.466891
	N269	N	0.089221	0.192358	0.538716
	N270	N	0.090052	0.833051	0.466452
	N271	N	0.914995	0.832706	0.538648
	N272	N	0.182009	0.476307	0.916590
	N273	N	0.180962	0.549845	0.088851
	N274	N	0.823939	0.477010	0.088841
	N275	N	0.823524	0.548902	0.915633
	O276	O	1.219325	-0.206467	0.973541
	H277	H	1.226181	-0.212941	0.938100
	H278	H	1.239867	-0.225797	0.952315
	O279	O	0.341372	0.634984	0.379841
	H280	H	0.326581	0.646819	0.404131
	H281	H	0.365299	0.640099	0.375067
	O282	O	0.472941	0.334136	0.316227
	H283	H	0.505187	0.335360	0.324227
	H284	H	0.472154	0.316632	0.295534
	O285	O	0.871337	-0.040130	-0.030413
	H286	H	0.888792	-0.045745	-0.037260
	H287	H	0.866338	-0.052306	-0.025469
	O288	O	-0.130198	0.151436	1.002294
	H289	H	-0.144540	0.160496	1.001304
	H290	H	-0.128311	0.147525	0.983464
	O291	O	0.604133	0.690923	0.653900
	H292	H	0.609150	0.689924	0.671228
	H293	H	0.608705	0.692106	0.669477
	O294	O	0.498815	0.421020	0.489679
	H295	H	0.480690	0.427379	0.471224
	H296	H	0.510435	0.411119	0.464175
	O297	O	1.084090	0.973202	1.097113
	H298	H	1.080881	0.958224	1.090882
	H299	H	1.089195	0.974165	1.100483
	O300	O	-0.002740	-0.083257	-0.191389
	H301	H	-0.016384	-0.092766	-0.191380
	H302	H	-0.019564	-0.077407	-0.189031
	O303	O	0.312520	0.516875	0.368482
	H304	H	0.312185	0.533360	0.367793
	H305	H	0.305615	0.517185	0.363666
	O306	O	1.341638	-0.448008	0.584113
	H307	H	1.341251	-0.450218	0.568267
	H308	H	1.330090	-0.454302	0.598053
	O309	O	0.465668	0.678478	0.345216
	H310	H	0.463005	0.679793	0.331188
	H311	H	0.480765	0.671379	0.334968
	O312	O	1.061045	0.811281	0.041690
	H313	H	1.074165	0.816841	0.036024
	H314	H	1.083392	0.803105	0.031846
	O315	O	0.684989	0.379171	0.521373
	H316	H	0.679514	0.354823	0.517433
	H317	H	0.679573	0.408053	0.503849
	O318	O	0.710029	0.495508	0.304014
	H319	H	0.710951	0.517990	0.324880
	H320	H	0.731279	0.501315	0.287825
	O321	O	1.137232	0.110210	0.918659
	H322	H	1.137998	0.105991	0.932687
	H323	H	1.134979	0.120917	0.912306
	O324	O	0.165772	0.198057	1.092462
	H325	H	0.158633	0.204839	1.107587
	H326	H	0.167473	0.196118	1.102206
	O327	O	0.398678	0.408311	0.612296
	H328	H	0.393899	0.410092	0.596646
	H329	H	0.387888	0.402373	0.628497
	O330	O	0.455214	0.454795	0.356284
	H331	H	0.459368	0.436989	0.356456
	H332	H	0.459226	0.459414	0.344228
	O333	O	0.537517	0.683978	0.502781
	H334	H	0.542009	0.692860	0.516246
	H335	H	0.536213	0.693719	0.492476
	O336	O	0.658333	0.336910	0.427284
	H337	H	0.654730	0.332478	0.430682
	H338	H	0.659566	0.323814	0.442419
	O339	O	1.014651	-0.114279	0.968437
	H340	H	1.027465	-0.110076	0.977884
	H341	H	1.005602	-0.107245	0.980152
	O342	O	-0.621904	0.506578	0.651840
	H343	H	-0.621565	0.508273	0.641742
	H344	H	-0.633213	0.506916	0.646780
	O345	O	-0.030733	1.147006	1.121878
	H346	H	-0.021230	1.131440	1.126337
	H347	H	-0.049628	1.141225	1.126464
	O348	O	-0.811581	1.067364	-1.185778
	H349	H	-0.819931	1.064430	-1.191601
	H350	H	-0.809949	1.076581	-1.197616
	O351	O	-0.134883	-0.173685	0.188756
	H352	H	-0.145170	-0.139521	0.194211
	H353	H	-0.111699	-0.179949	0.201364
	O354	O	1.371729	1.326692	0.679751
	H355	H	1.364648	1.317950	0.671919
	H356	H	1.378691	1.330612	0.674071
	O357	O	-0.582035	1.423699	-0.420948
	H358	H	-0.587036	1.415953	-0.426723
	H359	H	-0.583375	1.412974	-0.422393
	O360	O	0.641439	0.645538	0.620657
	H361	H	0.658927	0.630784	0.636162
	H362	H	0.631954	0.662539	0.635482
	O363	O	0.632180	0.364160	0.362540
	H364	H	0.641925	0.380139	0.363449
	H365	H	0.642803	0.370566	0.384315
	O366	O	0.687922	0.579153	0.623164
	H367	H	0.696585	0.583715	0.623748
	H368	H	0.685920	0.576074	0.623360
	O369	O	0.626050	0.581235	0.693882
	H370	H	0.626763	0.582734	0.688223
	H371	H	0.628211	0.551705	0.685188
	O372	O	0.570338	0.604424	0.456472
	H373	H	0.576433	0.619112	0.468611
	H374	H	0.582090	0.609248	0.455391
	O375	O	0.538757	0.672965	0.542345
	H376	H	0.531867	0.682210	0.536291
	H377	H	0.534957	0.677159	0.547959
	O378	O	0.986032	1.091562	1.027803
	H379	H	0.974871	1.098713	1.015453
	H380	H	1.003308	1.090295	1.020646
	O381	O	-0.192880	0.053985	0.891814
	H382	H	-0.183800	0.042382	0.883304
	H383	H	-0.187005	0.068069	0.879292
	O384	O	-0.074125	1.022970	0.807348
	H385	H	-0.068524	1.022924	0.817959
	H386	H	-0.075165	1.020035	0.813656
	O387	O	0.931592	0.942892	0.189002
	H388	H	0.930699	0.950094	0.189554
	H389	H	0.932417	0.943077	0.189985
	O390	O	0.549148	0.492626	0.409326
	H391	H	0.547401	0.486270	0.410391
	H392	H	0.560184	0.496275	0.421037
	O393	O	0.824629	-0.037745	1.132916
	H394	H	0.819428	-0.029441	1.111363
	H395	H	0.818695	-0.023852	1.133410
	O396	O	-0.025963	0.127603	0.052773
	H397	H	-0.026430	0.126807	0.039600
	H398	H	-0.019459	0.122788	0.054957
	O399	O	0.825227	0.195529	-0.150856
	H400	H	0.818739	0.170726	-0.156854
	H401	H	0.848684	0.205004	-0.141861
	O402	O	0.338703	0.705303	1.429154
	H403	H	0.324038	0.713355	1.433070
	H404	H	0.336802	0.703205	1.444526
	O405	O	-0.195228	-0.189967	-0.022308
	H406	H	-0.221011	-0.211822	-0.006315
	H407	H	-0.172340	-0.177868	0.012475
	O408	O	1.037001	1.164422	1.036259
	H409	H	1.035293	1.161322	1.037070
	H410	H	1.031731	1.159203	1.032066
	O411	O	1.474540	0.403260	-0.452342
	H412	H	1.478606	0.408060	-0.448537
	H413	H	1.486877	0.399702	-0.467271
	O414	O	0.005188	0.202941	0.895501
	H415	H	0.012568	0.216124	0.889647
	H416	H	0.012882	0.197328	0.911859
	O417	O	1.009402	-0.119147	1.162570
	H418	H	1.019042	-0.128283	1.153382
	H419	H	1.027058	-0.123754	1.163276
	O420	O	0.192986	1.249269	-0.241049
	H421	H	0.184038	1.256176	-0.239240
	H422	H	0.191774	1.249087	-0.240748
	O423	O	1.169573	0.124570	0.183580
	H424	H	1.157577	0.126881	0.194625
	H425	H	1.175913	0.124893	0.178299
	O426	O	0.182218	-0.169402	0.817823
	H427	H	0.153188	-0.179838	0.799279
	H428	H	0.180173	-0.128714	0.809795
	O429	O	0.175691	-0.005772	0.998576
	H430	H	0.173934	-0.009720	0.983502
	H431	H	0.170555	-0.012586	1.011042
