data_Molecule from HDF5

_cell_length_a		16.502199
_cell_length_b		16.582200
_cell_length_c		16.559633
_cell_angle_alpha	90.063623
_cell_angle_beta	89.932087
_cell_angle_gamma	90.172761
_symmetry_space_group_name_H-M	'P 1'
_symmetry_Int_Tables_number		1

loop_
	_symmetry_equiv_pos_as_xyz
	x,y,z

loop_
	_atom_site_label
	_atom_site_type_symbol
	_atom_site_fract_x
	_atom_site_fract_y
	_atom_site_fract_z
	H0	H	0.405298	0.830559	0.722150
	H1	H	0.620091	0.140435	0.722268
	H2	H	0.618343	0.828202	0.277696
	H3	H	0.408056	0.141391	0.276711
	H4	H	0.734587	0.380412	0.841199
	H5	H	0.737304	0.591465	0.154884
	H6	H	0.292196	0.590601	0.843150
	H7	H	0.293317	0.381719	0.156115
	H8	H	0.856572	0.705217	0.395142
	H9	H	0.170090	0.709339	0.604096
	H10	H	0.856468	0.264869	0.602055
	H11	H	0.169447	0.262642	0.390884
	H12	H	0.856200	0.381419	0.718037
	H13	H	0.170915	0.592440	0.720417
	H14	H	0.857400	0.590258	0.277763
	H15	H	0.170825	0.380712	0.276313
	H16	H	0.409085	0.706949	0.843254
	H17	H	0.621705	0.708392	0.155235
	H18	H	0.621460	0.260546	0.844076
	H19	H	0.409053	0.265385	0.156520
	H20	H	0.733724	0.827468	0.395508
	H21	H	0.736744	0.140555	0.605009
	H22	H	0.290119	0.830516	0.603889
	H23	H	0.290961	0.140582	0.391444
	H24	H	0.907647	0.330131	0.220500
	H25	H	0.121950	0.641786	0.221215
	H26	H	0.117909	0.328641	0.777553
	H27	H	0.910365	0.643308	0.777407
	H28	H	0.234722	0.882360	0.341322
	H29	H	0.235723	0.092343	0.655400
	H30	H	0.794966	0.085712	0.341126
	H31	H	0.794859	0.882230	0.656956
	H32	H	0.356759	0.206262	0.895107
	H33	H	0.672198	0.203417	0.102117
	H34	H	0.355443	0.764667	0.103809
	H35	H	0.671908	0.766562	0.895583
	H36	H	0.355439	0.880482	0.220363
	H37	H	0.672202	0.085518	0.216456
	H38	H	0.355607	0.088716	0.779209
	H39	H	0.671383	0.881994	0.778506
	H40	H	0.911892	0.202283	0.340725
	H41	H	0.120169	0.208841	0.654401
	H42	H	0.120769	0.763498	0.342139
	H43	H	0.909658	0.764671	0.655817
	H44	H	0.233257	0.328359	0.895798
	H45	H	0.236580	0.642328	0.103780
	H46	H	0.792020	0.329489	0.103085
	H47	H	0.794388	0.643407	0.894546
	H48	H	0.429817	0.097458	0.592565
	H49	H	0.595468	0.877063	0.584200
	H50	H	0.599599	0.097031	0.404487
	H51	H	0.427345	0.875727	0.413159
	H52	H	0.605455	0.398025	0.111404
	H53	H	0.599600	0.573969	0.889199
	H54	H	0.423427	0.572092	0.111398
	H55	H	0.426837	0.395945	0.888376
	H56	H	0.130369	0.587936	0.413350
	H57	H	0.900988	0.579198	0.587095
	H58	H	0.126085	0.394020	0.584568
	H59	H	0.905198	0.398505	0.414952
	H60	H	0.124811	0.400978	0.584828
	H61	H	0.904346	0.572169	0.584849
	H62	H	0.120629	0.566571	0.419022
	H63	H	0.900769	0.399052	0.402059
	H64	H	0.428552	0.572226	0.109285
	H65	H	0.604020	0.580683	0.885262
	H66	H	0.600629	0.399868	0.108246
	H67	H	0.425400	0.392169	0.886306
	H68	H	0.603793	0.094335	0.414788
	H69	H	0.610294	0.872286	0.584855
	H70	H	0.426937	0.095604	0.583537
	H71	H	0.423320	0.873923	0.413327
	H72	H	0.923248	0.599990	0.090425
	H73	H	0.095627	0.375868	0.088883
	H74	H	0.099047	0.596122	0.908323
	H75	H	0.924006	0.372492	0.903875
	H76	H	0.102361	0.898821	0.609827
	H77	H	0.103621	0.074282	0.386785
	H78	H	0.923080	0.078165	0.613445
	H79	H	0.928332	0.895906	0.388230
	H80	H	0.625284	0.069460	0.908095
	H81	H	0.399328	0.078445	0.087716
	H82	H	0.627044	0.893095	0.088786
	H83	H	0.400745	0.896452	0.909733
	H84	H	0.624119	0.898574	0.085436
	H85	H	0.401432	0.072397	0.087823
	H86	H	0.626442	0.077971	0.909979
	H87	H	0.401538	0.894106	0.911644
	H88	H	0.922809	0.073222	0.611579
	H89	H	0.102347	0.072912	0.387482
	H90	H	0.100373	0.897486	0.608867
	H91	H	0.922352	0.888652	0.383844
	H92	H	0.104797	0.596447	0.914132
	H93	H	0.106467	0.374689	0.082247
	H94	H	0.931209	0.596291	0.089263
	H95	H	0.928292	0.375811	0.909726
	H96	H	0.421011	0.099696	0.589873
	H97	H	0.600935	0.870809	0.597092
	H98	H	0.610705	0.099713	0.406689
	H99	H	0.426233	0.873834	0.409433
	H100	H	0.601159	0.394144	0.110089
	H101	H	0.607695	0.573078	0.886676
	H102	H	0.426693	0.577004	0.111778
	H103	H	0.422659	0.395864	0.886612
	H104	H	0.129217	0.570795	0.396981
	H105	H	0.900617	0.573166	0.592211
	H106	H	0.127223	0.397488	0.590609
	H107	H	0.899034	0.388365	0.409525
	H108	H	0.924922	0.596042	0.082944
	H109	H	0.105726	0.370787	0.093970
	H110	H	0.106401	0.599369	0.906283
	H111	H	0.920333	0.373892	0.911077
	H112	H	0.101701	0.896332	0.610636
	H113	H	0.101575	0.074500	0.387021
	H114	H	0.926838	0.075567	0.610790
	H115	H	0.918803	0.897770	0.385008
	H116	H	0.623224	0.072656	0.916055
	H117	H	0.398280	0.074933	0.092895
	H118	H	0.625694	0.898932	0.092316
	H119	H	0.401676	0.897274	0.911875
	C120	C	0.392220	-0.005473	0.620773
	C121	C	0.635165	0.976464	0.621166
	C122	C	0.635915	-0.006850	0.377026
	C123	C	0.393422	0.977331	0.378867
	C124	C	0.634754	0.364555	0.006733
	C125	C	0.636313	0.608099	0.990449
	C126	C	0.393755	0.606207	0.007662
	C127	C	0.392776	0.363587	0.990649
	C128	C	0.022521	0.606669	0.377897
	C129	C	1.005801	0.607465	0.620157
	C130	C	0.021816	0.365253	0.618279
	C131	C	1.005413	0.364076	0.376662
	C132	C	0.893016	0.494243	0.119551
	C133	C	0.136063	0.477217	0.120554
	C134	C	0.135335	0.493777	0.877339
	C135	C	0.892360	0.477816	0.876265
	C136	C	0.134063	0.865555	0.506273
	C137	C	0.135729	0.107495	0.490194
	C138	C	0.892879	0.106032	0.507591
	C139	C	0.892145	0.863154	0.490192
	C140	C	0.521624	0.106215	0.878592
	C141	C	0.504779	0.105940	0.120646
	C142	C	0.521582	0.864082	0.120967
	C143	C	0.505435	0.864440	0.878436
	C144	C	0.387998	0.877091	0.681263
	C145	C	0.638204	0.093900	0.681678
	C146	C	0.637135	0.875271	0.317647
	C147	C	0.390462	0.094522	0.317422
	C148	C	0.694928	0.361948	0.888820
	C149	C	0.697038	0.610061	0.107982
	C150	C	0.332890	0.608764	0.889965
	C151	C	0.333254	0.362900	0.109075
	C152	C	0.904108	0.665932	0.375912
	C153	C	0.123620	0.668427	0.622630
	C154	C	0.903554	0.304994	0.620327
	C155	C	0.123002	0.303484	0.373361
	C156	C	0.903573	0.362938	0.678023
	C157	C	0.123831	0.610317	0.680078
	C158	C	0.904426	0.608570	0.317841
	C159	C	0.123672	0.362067	0.316436
	C160	C	0.390779	0.666718	0.890058
	C161	C	0.639460	0.668145	0.108143
	C162	C	0.638647	0.302170	0.890153
	C163	C	0.390716	0.304877	0.109024
	C164	C	0.694487	0.874832	0.376306
	C165	C	0.696067	0.093878	0.623513
	C166	C	0.330721	0.877118	0.622680
	C167	C	0.332214	0.094499	0.374487
	C168	C	0.889477	0.377027	0.180238
	C169	C	0.139601	0.594729	0.181009
	C170	C	0.136543	0.375712	0.817528
	C171	C	0.891034	0.595904	0.816882
	C172	C	0.194829	0.863320	0.388489
	C173	C	0.195647	0.110148	0.608086
	C174	C	0.834465	0.105388	0.388531
	C175	C	0.833865	0.862682	0.609425
	C176	C	0.403563	0.166211	0.876295
	C177	C	0.624595	0.163735	0.120762
	C178	C	0.402929	0.804069	0.122801
	C179	C	0.624412	0.805914	0.876804
	C180	C	0.402794	0.861791	0.180522
	C181	C	0.624411	0.105351	0.177904
	C182	C	0.403063	0.107862	0.818938
	C183	C	0.624069	0.863105	0.818458
	C184	C	0.892514	0.163193	0.388215
	C185	C	0.138092	0.168291	0.607703
	C186	C	0.137932	0.804384	0.388773
	C187	C	0.891114	0.804455	0.608855
	C188	C	0.193976	0.375483	0.876073
	C189	C	0.196725	0.595024	0.122529
	C190	C	0.831943	0.376690	0.121830
	C191	C	0.833355	0.596018	0.875116
	C192	C	0.418560	0.076170	0.595953
	C193	C	0.609463	0.894603	0.595938
	C194	C	0.611759	0.075597	0.401586
	C195	C	0.418690	0.895855	0.404711
	C196	C	0.609466	0.390181	0.088658
	C197	C	0.611073	0.583178	0.908389
	C198	C	0.419215	0.581100	0.089503
	C199	C	0.417598	0.387915	0.908440
	C200	C	0.105222	0.582076	0.402761
	C201	C	0.923522	0.582035	0.595088
	C202	C	0.104568	0.390279	0.593672
	C203	C	0.923059	0.388586	0.401722
	C204	C	0.918986	0.575978	0.094523
	C205	C	0.110166	0.395145	0.095472
	C206	C	0.110524	0.575822	0.902358
	C207	C	0.917039	0.395642	0.900950
	C208	C	0.108770	0.890375	0.588281
	C209	C	0.109910	0.081444	0.408360
	C210	C	0.917044	0.082469	0.590351
	C211	C	0.916106	0.887180	0.407512
	C212	C	0.603711	0.080721	0.904065
	C213	C	0.421391	0.082317	0.096432
	C214	C	0.603952	0.889760	0.096046
	C215	C	0.422966	0.889047	0.903726
	Zn216	Zn	0.513305	-0.014553	0.749733
	Zn217	Zn	0.512953	-0.015081	0.249479
	Zn218	Zn	0.764181	0.486112	-0.001836
	Zn219	Zn	0.264112	0.485080	-0.000705
	Zn220	Zn	0.014296	0.735395	0.498501
	Zn221	Zn	0.013980	0.235411	0.497931
	Zn222	Zn	0.014531	0.485760	0.747995
	Zn223	Zn	0.014175	0.486029	0.248523
	Zn224	Zn	0.513882	0.736018	-0.000102
	Zn225	Zn	0.513600	0.234744	-0.000363
	Zn226	Zn	0.763984	-0.015508	0.499412
	Zn227	Zn	0.263708	-0.013995	0.498577
	N228	N	0.425415	0.951018	0.680160
	N229	N	0.600916	0.019901	0.680140
	N230	N	0.601482	0.949911	0.318059
	N231	N	0.427898	0.020707	0.319962
	N232	N	0.692742	0.400174	0.962462
	N233	N	0.695056	0.573290	0.033742
	N234	N	0.334556	0.571759	0.964055
	N235	N	0.334311	0.398749	0.034471
	N236	N	0.978698	0.664888	0.412460
	N237	N	0.049130	0.666817	0.586058
	N238	N	0.978294	0.306232	0.583974
	N239	N	0.048510	0.304558	0.410285
	N240	N	0.978062	0.399989	0.676769
	N241	N	0.049416	0.573226	0.678743
	N242	N	0.979256	0.572673	0.318694
	N243	N	0.049529	0.399116	0.318409
	N244	N	0.428030	0.665090	0.964049
	N245	N	0.602449	0.667118	0.033956
	N246	N	0.601990	0.303585	0.964482
	N247	N	0.427147	0.305092	0.034406
	N248	N	0.693751	0.949246	0.412799
	N249	N	0.694265	0.019865	0.586576
	N250	N	0.332947	0.951240	0.585834
	N251	N	0.334134	0.020940	0.412322
	N252	N	0.926489	0.451237	0.179145
	N253	N	0.102628	0.520342	0.180039
	N254	N	0.100946	0.450522	0.817926
	N255	N	0.926702	0.521201	0.817222
	N256	N	0.192407	0.900663	0.462435
	N257	N	0.194356	0.073275	0.533761
	N258	N	0.834292	0.070733	0.463953
	N259	N	0.834111	0.898248	0.534530
	N260	N	0.478509	0.165542	0.912333
	N261	N	0.548958	0.164578	0.086223
	N262	N	0.478013	0.805114	0.086863
	N263	N	0.549574	0.806255	0.913074
	N264	N	0.477650	0.898143	0.179748
	N265	N	0.548719	0.070586	0.178198
	N266	N	0.477602	0.071426	0.820201
	N267	N	0.548788	0.898330	0.818881
	N268	N	0.927746	0.164085	0.463255
	N269	N	0.101594	0.166794	0.533271
	N270	N	0.100540	0.805703	0.462938
	N271	N	0.926664	0.804636	0.533760
	N272	N	0.193404	0.449916	0.912261
	N273	N	0.194467	0.520767	0.085586
	N274	N	0.833895	0.450761	0.084929
	N275	N	0.833864	0.521428	0.911057
	O276	O	1.290491	1.459503	-0.280213
	H277	H	1.304464	1.416635	-0.294181
	H278	H	1.253653	1.449731	-0.245312
	O279	O	-0.193947	0.019415	0.801267
	H280	H	-0.202891	0.021067	0.789869
	H281	H	-0.183752	0.021860	0.798182
	O282	O	0.455801	0.530876	0.713907
	H283	H	0.439896	0.540797	0.722194
	H284	H	0.434614	0.545490	0.720016
	O285	O	0.705589	1.316256	0.666168
	H286	H	0.684023	1.325422	0.662919
	H287	H	0.692624	1.315619	0.648434
	O288	O	0.825334	-0.204640	0.997958
	H289	H	0.809166	-0.221790	1.017190
	H290	H	0.828806	-0.214590	1.000954
	O291	O	0.813457	1.191651	0.790045
	H292	H	0.790656	1.212846	0.779090
	H293	H	0.825712	1.170694	0.796330
	O294	O	0.093689	0.010500	-0.114708
	H295	H	0.096500	-0.003122	-0.111483
	H296	H	0.100830	-0.002852	-0.110944
	O297	O	0.817001	-0.154403	0.197862
	H298	H	0.820733	-0.128899	0.206923
	H299	H	0.802613	-0.151054	0.213314
	O300	O	-0.124237	-0.033657	0.008214
	H301	H	-0.121575	-0.053363	0.002027
	H302	H	-0.137822	-0.021241	0.000389
	O303	O	-0.400571	0.432669	-0.555178
	H304	H	-0.385724	0.441810	-0.548114
	H305	H	-0.396559	0.437189	-0.557819
	O306	O	1.112220	0.139384	0.089199
	H307	H	1.119444	0.155584	0.106429
	H308	H	1.085741	0.150103	0.091464
	O309	O	0.216206	0.782545	0.795207
	H310	H	0.236554	0.781619	0.780645
	H311	H	0.219324	0.772200	0.833565
	O312	O	0.715425	0.687269	0.602917
	H313	H	0.690690	0.681700	0.584049
	H314	H	0.733426	0.690797	0.593605
	O315	O	0.308989	0.359520	0.370038
	H316	H	0.323996	0.369297	0.380852
	H317	H	0.315411	0.369301	0.382639
	O318	O	1.004717	0.895632	0.149107
	H319	H	1.013726	0.883721	0.149343
	H320	H	0.996644	0.895081	0.154131
	O321	O	-0.056624	1.197203	0.945644
	H322	H	-0.056410	1.208107	0.933229
	H323	H	-0.042578	1.179134	0.942123
	O324	O	0.899760	0.046633	1.129993
	H325	H	0.905094	0.027711	1.119249
	H326	H	0.912323	0.049557	1.132022
	O327	O	0.506091	0.642356	0.652674
	H328	H	0.519125	0.651591	0.666598
	H329	H	0.518954	0.646220	0.669762
	O330	O	0.193147	1.166486	-0.165105
	H331	H	0.173095	1.151128	-0.151221
	H332	H	0.189560	1.145636	-0.143332
	O333	O	0.244581	0.211945	0.230460
	H334	H	0.266291	0.223065	0.248607
	H335	H	0.245925	0.221157	0.218973
	O336	O	0.040785	0.930058	0.853240
	H337	H	0.021349	0.936041	0.869151
	H338	H	0.035263	0.922754	0.850331
	O339	O	0.320071	0.291342	0.695662
	H340	H	0.295207	0.262929	0.707144
	H341	H	0.367459	0.293138	0.695036
	O342	O	-0.116340	1.057303	0.197174
	H343	H	-0.116742	1.037950	0.188244
	H344	H	-0.103313	1.046187	0.182528
	O345	O	0.523668	0.469646	0.395296
	H346	H	0.527225	0.474352	0.390622
	H347	H	0.519867	0.459140	0.402979
	O348	O	0.035440	0.782221	0.785086
	H349	H	0.048976	0.758428	0.759653
	H350	H	0.065766	0.790129	0.797568
	O351	O	0.318685	0.682571	1.308998
	H352	H	0.316686	0.656126	1.318496
	H353	H	0.321002	0.668362	1.309053
	O354	O	0.833635	0.017424	1.199907
	H355	H	0.836506	0.033330	1.191286
	H356	H	0.844005	0.024355	1.202002
	O357	O	0.731315	0.520081	0.718123
	H358	H	0.738983	0.522823	0.737760
	H359	H	0.744364	0.531336	0.724818
	O360	O	0.586598	0.413121	0.714367
	H361	H	0.585321	0.428677	0.717024
	H362	H	0.572541	0.424864	0.711450
	O363	O	0.683467	0.469436	0.299330
	H364	H	0.687391	0.466594	0.288683
	H365	H	0.680384	0.457411	0.293821
	O366	O	0.293851	0.265651	0.520545
	H367	H	0.272877	0.250165	0.523392
	H368	H	0.297297	0.259020	0.543360
	O369	O	0.172582	-0.083975	1.063744
	H370	H	0.157560	-0.105388	1.067555
	H371	H	0.168062	-0.066539	1.064207
	O372	O	-0.063342	0.958108	0.898174
	H373	H	-0.075929	0.934904	0.908058
	H374	H	-0.063054	0.974410	0.908873
	O375	O	0.878173	0.117310	0.049741
	H376	H	0.863133	0.130313	0.042586
	H377	H	0.891560	0.113509	0.033744
	O378	O	0.575426	0.376510	0.525641
	H379	H	0.553179	0.379298	0.526176
	H380	H	0.562322	0.382546	0.519891
	O381	O	-0.534752	1.520264	-0.670664
	H382	H	-0.533811	1.512746	-0.665880
	H383	H	-0.515739	1.506401	-0.670328
	O384	O	0.442111	0.397634	0.545371
	H385	H	0.433419	0.400394	0.533854
	H386	H	0.450025	0.401375	0.549679
	O387	O	0.734842	1.475065	1.520024
	H388	H	0.743795	1.472800	1.527611
	H389	H	0.735058	1.492078	1.542392
	O390	O	-0.664205	0.676976	0.678417
	H391	H	-0.645684	0.672893	0.662968
	H392	H	-0.663893	0.669913	0.658467
	O393	O	0.963639	-0.019642	-0.176237
	H394	H	0.976673	-0.033441	-0.186343
	H395	H	0.960030	-0.025365	-0.176675
	O396	O	0.514861	0.263156	0.488321
	H397	H	0.514294	0.258537	0.470384
	H398	H	0.504594	0.270106	0.496081
	O399	O	0.638249	0.693157	0.709429
	H400	H	0.656717	0.710550	0.712562
	H401	H	0.639094	0.698803	0.689221
	O402	O	1.228737	-0.186512	0.979696
	H403	H	1.226400	-0.187277	1.005595
	H404	H	1.231362	-0.198190	0.997499
	O405	O	0.011254	0.199405	0.025139
	H406	H	-0.005378	0.203412	0.017347
	H407	H	0.018855	0.188061	0.001880
	O408	O	0.995185	0.790245	0.946922
	H409	H	0.994874	0.791906	0.939356
	H410	H	0.997897	0.786594	0.942506
	O411	O	1.697663	0.632455	-0.693992
	H412	H	1.690386	0.613431	-0.690727
	H413	H	1.681508	0.621054	-0.668529
	O414	O	0.305278	-0.302550	0.475013
	H415	H	0.306358	-0.315236	0.469598
	H416	H	0.289423	-0.300301	0.477030
	O417	O	0.042149	0.172705	1.194504
	H418	H	0.044632	0.179193	1.183465
	H419	H	0.044996	0.182302	1.203838
	O420	O	1.220151	0.179540	1.025952
	H421	H	1.235382	0.177283	1.032712
	H422	H	1.217041	0.176986	1.031884
	O423	O	1.189462	0.916896	0.005947
	H424	H	1.187180	0.929494	0.003373
	H425	H	1.182917	0.923686	0.012669
	O426	O	0.693535	0.648918	0.477757
	H427	H	0.697953	0.650551	0.474791
	H428	H	0.688041	0.643398	0.476442
	O429	O	0.620608	0.634535	0.417110
	H430	H	0.617967	0.640131	0.402957
	H431	H	0.610486	0.634709	0.423188
	O432	O	0.898269	-0.128476	0.911397
	H433	H	0.906530	-0.131966	0.923535
	H434	H	0.908814	-0.120073	0.911158
	O435	O	0.487883	0.704534	0.280689
	H436	H	0.467755	0.717616	0.258839
	H437	H	0.478854	0.702114	0.270868
	O438	O	0.484536	0.277435	0.712763
	H439	H	0.491036	0.280391	0.725959
	H440	H	0.484896	0.289323	0.714113
	O441	O	0.864106	0.767401	0.149775
	H442	H	0.842551	0.751850	0.172005
	H443	H	0.844070	0.771603	0.158414
	O444	O	0.290243	0.530863	0.545545
	H445	H	0.296073	0.523829	0.544997
	H446	H	0.284444	0.522499	0.565037
	O447	O	0.139355	-0.015014	0.900631
	H448	H	0.152559	-0.027440	0.888912
	H449	H	0.143061	-0.032457	0.891899
	O450	O	0.732507	0.265923	0.459402
	H451	H	0.713664	0.265670	0.480477
	H452	H	0.746316	0.240555	0.464937
	O453	O	0.718197	0.282031	0.293898
	H454	H	0.743554	0.281326	0.271326
	H455	H	0.725511	0.274095	0.340250
	O456	O	0.379097	1.504985	0.426928
	H457	H	0.374166	1.497132	0.425927
	H458	H	0.389170	1.494167	0.421968
	O459	O	0.551973	0.262628	0.273109
	H460	H	0.598828	0.269273	0.283480
	H461	H	0.552245	0.225359	0.238519
	O462	O	0.465316	0.546421	0.377407
	H463	H	0.470917	0.537538	0.384531
	H464	H	0.466823	0.549952	0.369308
	O465	O	0.423685	0.382940	0.334907
	H466	H	0.431718	0.363290	0.350565
	H467	H	0.438723	0.385343	0.322989
	O468	O	0.199935	0.986412	0.164575
	H469	H	0.202627	0.994128	0.176194
	H470	H	0.196365	0.993632	0.166799
	O471	O	0.466442	0.698495	0.562430
	H472	H	0.474548	0.700697	0.570492
	H473	H	0.465998	0.691373	0.558329
	O474	O	0.977245	1.161273	-0.157867
	H475	H	0.959793	1.168116	-0.165977
	H476	H	0.964703	1.169119	-0.163185
	O477	O	0.128559	-0.156115	1.056973
	H478	H	0.128510	-0.161477	1.063076
	H479	H	0.123827	-0.162551	1.052140
