data_Molecule from HDF5

_cell_length_a		16.233407
_cell_length_b		16.278051
_cell_length_c		16.285257
_cell_angle_alpha	89.899381
_cell_angle_beta	90.314705
_cell_angle_gamma	90.185089
_symmetry_space_group_name_H-M	'P 1'
_symmetry_Int_Tables_number		1

loop_
	_symmetry_equiv_pos_as_xyz
	x,y,z

loop_
	_atom_site_label
	_atom_site_type_symbol
	_atom_site_fract_x
	_atom_site_fract_y
	_atom_site_fract_z
	H0	H	0.403077	0.833672	0.706753
	H1	H	0.603642	0.159973	0.708477
	H2	H	0.598624	0.833293	0.278634
	H3	H	0.400832	0.160093	0.274558
	H4	H	0.714751	0.399969	0.828092
	H5	H	0.718440	0.595341	0.155360
	H6	H	0.287156	0.595925	0.828576
	H7	H	0.288039	0.397868	0.155893
	H8	H	0.838720	0.711508	0.391791
	H9	H	0.166691	0.711508	0.590378
	H10	H	0.838416	0.282434	0.591093
	H11	H	0.166959	0.282567	0.394399
	H12	H	0.838057	0.398988	0.704300
	H13	H	0.165853	0.597311	0.707184
	H14	H	0.839157	0.596611	0.275987
	H15	H	0.167243	0.398446	0.277761
	H16	H	0.404633	0.710767	0.828063
	H17	H	0.603786	0.711943	0.155853
	H18	H	0.601342	0.282708	0.828966
	H19	H	0.403702	0.281180	0.155679
	H20	H	0.714411	0.832825	0.395154
	H21	H	0.717529	0.160920	0.591686
	H22	H	0.288054	0.833055	0.588646
	H23	H	0.287212	0.160824	0.392614
	H24	H	0.902623	0.335087	0.207551
	H25	H	0.103806	0.661168	0.208074
	H26	H	0.099406	0.334047	0.777885
	H27	H	0.904232	0.661387	0.776726
	H28	H	0.213432	0.900562	0.327908
	H29	H	0.219137	0.096995	0.655640
	H30	H	0.787439	0.094928	0.329049
	H31	H	0.789037	0.898793	0.656556
	H32	H	0.339064	0.212657	0.889506
	H33	H	0.666484	0.211561	0.091860
	H34	H	0.339166	0.780281	0.091039
	H35	H	0.666835	0.784051	0.894162
	H36	H	0.338084	0.897647	0.204820
	H37	H	0.665557	0.096752	0.208254
	H38	H	0.338659	0.095984	0.775925
	H39	H	0.666570	0.898920	0.778531
	H40	H	0.901349	0.212687	0.329228
	H41	H	0.102902	0.212216	0.655962
	H42	H	0.101537	0.782492	0.328710
	H43	H	0.904453	0.781129	0.655870
	H44	H	0.215540	0.334066	0.893632
	H45	H	0.219067	0.661211	0.092284
	H46	H	0.789070	0.333865	0.089550
	H47	H	0.789395	0.662071	0.893454
	H48	H	0.412799	0.111009	0.578006
	H49	H	0.600984	0.880598	0.578510
	H50	H	0.594211	0.112630	0.401112
	H51	H	0.409683	0.878212	0.388180
	H52	H	0.586954	0.400176	0.107789
	H53	H	0.597354	0.588344	0.875814
	H54	H	0.421022	0.592956	0.106747
	H55	H	0.408883	0.403793	0.876024
	H56	H	0.119072	0.590493	0.403272
	H57	H	0.882684	0.599726	0.580404
	H58	H	0.121770	0.398906	0.588344
	H59	H	0.888376	0.409291	0.400580
	H60	H	0.117203	0.405693	0.578816
	H61	H	0.888290	0.583298	0.578006
	H62	H	0.119100	0.588379	0.397509
	H63	H	0.885674	0.404859	0.395547
	H64	H	0.404999	0.594630	0.112062
	H65	H	0.592110	0.591361	0.875947
	H66	H	0.603480	0.397006	0.112761
	H67	H	0.408190	0.404515	0.875442
	H68	H	0.596793	0.114854	0.398825
	H69	H	0.599306	0.877128	0.594657
	H70	H	0.403685	0.115197	0.584164
	H71	H	0.414950	0.884010	0.403874
	H72	H	0.908815	0.613155	0.076704
	H73	H	0.096784	0.379216	0.089179
	H74	H	0.100033	0.615987	0.896587
	H75	H	0.908846	0.381094	0.896588
	H76	H	0.092272	0.896902	0.609542
	H77	H	0.091438	0.092627	0.376520
	H78	H	0.908444	0.080540	0.607280
	H79	H	0.909400	0.906067	0.377130
	H80	H	0.619031	0.090636	0.898680
	H81	H	0.381959	0.095645	0.088121
	H82	H	0.619006	0.908992	0.089571
	H83	H	0.385025	0.900565	0.898896
	H84	H	0.621741	0.900126	0.087767
	H85	H	0.387266	0.090124	0.073875
	H86	H	0.619121	0.091088	0.900834
	H87	H	0.386279	0.905316	0.900353
	H88	H	0.919644	0.093926	0.607695
	H89	H	0.095637	0.090609	0.376076
	H90	H	0.103345	0.905220	0.610946
	H91	H	0.909071	0.900977	0.375371
	H92	H	0.089510	0.614020	0.895736
	H93	H	0.088551	0.383725	0.085137
	H94	H	0.904408	0.617433	0.089040
	H95	H	0.907989	0.380290	0.898545
	H96	H	0.414076	0.113909	0.589320
	H97	H	0.586241	0.882892	0.586040
	H98	H	0.593901	0.114106	0.397286
	H99	H	0.398192	0.878932	0.400369
	H100	H	0.598521	0.413740	0.105928
	H101	H	0.596381	0.594618	0.873857
	H102	H	0.409554	0.580060	0.105865
	H103	H	0.409500	0.404977	0.876468
	H104	H	0.121114	0.594327	0.399154
	H105	H	0.883117	0.587967	0.594714
	H106	H	0.119367	0.410866	0.589367
	H107	H	0.886691	0.401852	0.402121
	H108	H	0.917843	0.613241	0.087979
	H109	H	0.096881	0.382798	0.079188
	H110	H	0.094951	0.612872	0.904610
	H111	H	0.906652	0.380691	0.897253
	H112	H	0.090838	0.909943	0.605987
	H113	H	0.091559	0.087944	0.377674
	H114	H	0.902809	0.096147	0.612502
	H115	H	0.904121	0.903781	0.375766
	H116	H	0.618865	0.089312	0.900950
	H117	H	0.387193	0.080866	0.086469
	H118	H	0.617560	0.905337	0.081121
	H119	H	0.385326	0.905429	0.895620
	C120	C	0.381182	0.005574	0.612396
	C121	C	0.624257	0.988807	0.614613
	C122	C	0.622649	0.005281	0.371158
	C123	C	0.379226	0.988451	0.368993
	C124	C	0.624141	0.375972	0.000517
	C125	C	0.625106	0.619659	0.983459
	C126	C	0.381831	0.618218	0.000439
	C127	C	0.380511	0.375290	0.983913
	C128	C	0.011503	0.619760	0.370147
	C129	C	0.993503	0.619107	0.612901
	C130	C	0.010765	0.376345	0.613672
	C131	C	0.994968	0.376067	0.370645
	C132	C	0.881449	0.506242	0.113240
	C133	C	0.124244	0.489655	0.113658
	C134	C	0.123263	0.506065	0.870528
	C135	C	0.880028	0.489062	0.869242
	C136	C	0.123145	0.876001	0.500450
	C137	C	0.123439	0.119349	0.484379
	C138	C	0.880524	0.118971	0.501179
	C139	C	0.879986	0.875032	0.484061
	C140	C	0.510677	0.119242	0.870224
	C141	C	0.493978	0.118193	0.112938
	C142	C	0.511073	0.875731	0.113667
	C143	C	0.494026	0.875616	0.870389
	C144	C	0.383105	0.882292	0.668277
	C145	C	0.623077	0.111425	0.670232
	C146	C	0.619434	0.882015	0.316456
	C147	C	0.380998	0.111497	0.312844
	C148	C	0.677699	0.379160	0.877190
	C149	C	0.680659	0.616416	0.106522
	C150	C	0.325580	0.616039	0.877256
	C151	C	0.325480	0.377254	0.106911
	C152	C	0.887900	0.674091	0.371628
	C153	C	0.117495	0.673723	0.610544
	C154	C	0.887445	0.320628	0.610890
	C155	C	0.117882	0.320391	0.373313
	C156	C	0.887243	0.378574	0.667269
	C157	C	0.117077	0.617216	0.668839
	C158	C	0.888124	0.617074	0.314055
	C159	C	0.118194	0.378467	0.315861
	C160	C	0.383872	0.673195	0.876997
	C161	C	0.623547	0.674345	0.106625
	C162	C	0.621487	0.320734	0.877647
	C163	C	0.382789	0.319052	0.106672
	C164	C	0.676811	0.881757	0.374581
	C165	C	0.679563	0.111902	0.611902
	C166	C	0.326200	0.881792	0.609393
	C167	C	0.324274	0.111903	0.371121
	C168	C	0.883145	0.383489	0.168894
	C169	C	0.123572	0.612470	0.169734
	C170	C	0.120458	0.382903	0.815401
	C171	C	0.883065	0.612393	0.814289
	C172	C	0.176886	0.879429	0.376900
	C173	C	0.180405	0.116975	0.606932
	C174	C	0.824798	0.116322	0.377967
	C175	C	0.825985	0.877496	0.607517
	C176	C	0.388006	0.174950	0.870362
	C177	C	0.617349	0.173750	0.111964
	C178	C	0.387859	0.819156	0.111199
	C179	C	0.617773	0.821627	0.873741
	C180	C	0.387231	0.877608	0.167439
	C181	C	0.616874	0.116788	0.169861
	C182	C	0.387697	0.116763	0.813974
	C183	C	0.617605	0.878779	0.816130
	C184	C	0.881687	0.174694	0.378189
	C185	C	0.122624	0.174283	0.607123
	C186	C	0.120651	0.821054	0.377375
	C187	C	0.883532	0.819570	0.607202
	C188	C	0.177797	0.382823	0.873157
	C189	C	0.180936	0.612357	0.112171
	C190	C	0.826466	0.383019	0.110440
	C191	C	0.826377	0.612835	0.872671
	C192	C	0.403528	0.091268	0.590315
	C193	C	0.602000	0.902520	0.592887
	C194	C	0.601216	0.091388	0.392704
	C195	C	0.401144	0.902834	0.391011
	C196	C	0.602671	0.397395	0.086575
	C197	C	0.602157	0.597908	0.897491
	C198	C	0.404936	0.595752	0.086019
	C199	C	0.402310	0.397882	0.898121
	C200	C	0.097512	0.597625	0.393205
	C201	C	0.907029	0.596892	0.590700
	C202	C	0.097204	0.398672	0.591911
	C203	C	0.909199	0.398597	0.392860
	C204	C	0.903879	0.592343	0.091148
	C205	C	0.100823	0.404091	0.091075
	C206	C	0.101450	0.591888	0.892521
	C207	C	0.901480	0.403080	0.890913
	C208	C	0.101790	0.897691	0.586601
	C209	C	0.099949	0.096951	0.398916
	C210	C	0.903473	0.096693	0.587034
	C211	C	0.901247	0.897024	0.398234
	C212	C	0.596889	0.096968	0.893443
	C213	C	0.407835	0.095570	0.089551
	C214	C	0.597034	0.898389	0.092485
	C215	C	0.407830	0.897389	0.891814
	Zn216	Zn	0.502558	-0.002685	0.742475
	Zn217	Zn	0.501754	-0.002524	0.241853
	Zn218	Zn	0.752598	0.497395	-0.008337
	Zn219	Zn	0.252140	0.497679	-0.007707
	Zn220	Zn	0.002520	0.747235	0.491970
	Zn221	Zn	0.002111	0.247584	0.493276
	Zn222	Zn	0.002194	0.497790	0.741221
	Zn223	Zn	0.003366	0.498200	0.242289
	Zn224	Zn	0.502836	0.747626	-0.007809
	Zn225	Zn	0.502612	0.246696	-0.008183
	Zn226	Zn	0.751876	-0.002750	0.492764
	Zn227	Zn	0.251736	-0.002702	0.491338
	N228	N	0.416457	0.960191	0.670332
	N229	N	0.589344	0.033747	0.671916
	N230	N	0.586496	0.959561	0.314386
	N231	N	0.414321	0.033937	0.311406
	N232	N	0.679500	0.412852	0.954613
	N233	N	0.681672	0.583122	0.028927
	N234	N	0.324319	0.582719	0.954948
	N235	N	0.323951	0.411397	0.029617
	N236	N	0.965505	0.675830	0.405720
	N237	N	0.039629	0.675011	0.576824
	N238	N	0.965381	0.319334	0.578154
	N239	N	0.040196	0.318605	0.406559
	N240	N	0.964863	0.412603	0.669010
	N241	N	0.038875	0.583982	0.670485
	N242	N	0.966007	0.583918	0.313001
	N243	N	0.040588	0.412163	0.313957
	N244	N	0.418041	0.674840	0.954477
	N245	N	0.589627	0.676420	0.029010
	N246	N	0.588718	0.318676	0.955398
	N247	N	0.416668	0.317889	0.029347
	N248	N	0.679050	0.959630	0.407980
	N249	N	0.680447	0.034501	0.578221
	N250	N	0.324699	0.959227	0.575492
	N251	N	0.323007	0.034669	0.405366
	N252	N	0.916710	0.461278	0.170804
	N253	N	0.088723	0.535272	0.170505
	N254	N	0.087281	0.460589	0.813505
	N255	N	0.915795	0.534718	0.812157
	N256	N	0.178451	0.913179	0.454324
	N257	N	0.180866	0.083274	0.529407
	N258	N	0.824126	0.082495	0.455333
	N259	N	0.823904	0.911592	0.530135
	N260	N	0.465651	0.176408	0.904770
	N261	N	0.539854	0.174625	0.077291
	N262	N	0.465875	0.817606	0.078693
	N263	N	0.539947	0.819615	0.906904
	N264	N	0.464861	0.911968	0.169227
	N265	N	0.539146	0.082942	0.170433
	N266	N	0.465263	0.083041	0.813612
	N267	N	0.539693	0.911660	0.813950
	N268	N	0.915740	0.176450	0.455864
	N269	N	0.087866	0.175753	0.529986
	N270	N	0.087998	0.818966	0.455062
	N271	N	0.916234	0.817792	0.529425
	N272	N	0.179579	0.460269	0.906841
	N273	N	0.181454	0.534957	0.078227
	N274	N	0.825258	0.460435	0.076693
	N275	N	0.824002	0.535110	0.905940
	O276	O	1.122791	1.031648	0.051898
	H277	H	1.126728	1.041698	0.054630
	H278	H	1.132272	1.022551	0.046870
	O279	O	0.029160	0.061410	1.062802
	H280	H	0.021113	0.054674	1.062344
	H281	H	0.039672	0.059443	1.065395
	O282	O	-0.034861	0.058672	-0.042699
	H283	H	-0.038354	0.054339	-0.049326
	H284	H	-0.034215	0.055720	-0.049427
	O285	O	0.568518	0.492690	0.527427
	H286	H	0.575764	0.482715	0.536751
	H287	H	0.568748	0.497858	0.528354
	O288	O	-0.046514	-0.024232	0.054689
	H289	H	-0.045095	-0.022589	0.050471
	H290	H	-0.044300	-0.016989	0.052136
	O291	O	0.039136	1.095886	0.050249
	H292	H	0.041132	1.113546	0.051911
	H293	H	0.046055	1.091773	0.053656
	O294	O	0.001415	0.972076	-0.046236
	H295	H	-0.008209	0.962641	-0.035347
	H296	H	0.007155	0.967251	-0.038409
	O297	O	0.447310	0.467972	0.454637
	H298	H	0.442553	0.468632	0.450360
	H299	H	0.449264	0.469087	0.443183
	O300	O	0.570009	0.493775	0.494643
	H301	H	0.561094	0.485957	0.496438
	H302	H	0.569102	0.484693	0.491402
	O303	O	0.936414	-0.080435	0.978893
	H304	H	0.947729	-0.081834	0.986814
	H305	H	0.931423	-0.085073	0.974817
	O306	O	-0.043016	0.969182	1.122326
	H307	H	-0.039241	0.970070	1.128365
	H308	H	-0.053061	0.969647	1.124213
	O309	O	-0.018850	1.076184	0.941046
	H310	H	-0.014406	1.092141	0.934518
	H311	H	-0.024087	1.071937	0.946922
	O312	O	-0.024795	0.060528	1.042525
	H313	H	-0.026605	0.065347	1.037482
	H314	H	-0.020368	0.067958	1.039019
	O315	O	0.524354	0.485935	0.494223
	H316	H	0.522509	0.484569	0.494032
	H317	H	0.531343	0.490490	0.490377
	O318	O	-0.045482	0.010985	1.004256
	H319	H	-0.052172	0.011448	0.993867
	H320	H	-0.049052	0.003337	1.007297
	O321	O	0.547557	0.458623	0.487509
	H322	H	0.541591	0.456768	0.491034
	H323	H	0.561082	0.460560	0.484203
	O324	O	1.086759	-0.024560	1.022775
	H325	H	1.082241	-0.025368	1.012797
	H326	H	1.089338	-0.027847	1.028588
	O327	O	0.912733	0.895277	1.058450
	H328	H	0.900778	0.885008	1.067664
	H329	H	0.910961	0.902386	1.063292
	O330	O	0.515640	0.477362	0.549837
	H331	H	0.511696	0.482368	0.560053
	H332	H	0.519168	0.481588	0.541844
	O333	O	0.499154	0.516249	0.491329
	H334	H	0.506657	0.523457	0.486801
	H335	H	0.501205	0.515251	0.496568
	O336	O	0.523209	0.545634	0.482022
	H337	H	0.518228	0.544655	0.474797
	H338	H	0.521064	0.533162	0.485375
	O339	O	0.517614	0.508235	0.502834
	H340	H	0.516641	0.509486	0.503795
	H341	H	0.523922	0.508779	0.507979
	O342	O	0.576981	0.491362	0.498965
	H343	H	0.571413	0.500699	0.504544
	H344	H	0.586433	0.488310	0.500701
	O345	O	0.465098	0.517728	0.523020
	H346	H	0.458924	0.513368	0.529980
	H347	H	0.459250	0.521712	0.508003
