data_Molecule from HDF5

_cell_length_a		16.387629
_cell_length_b		16.275997
_cell_length_c		16.259699
_cell_angle_alpha	89.891367
_cell_angle_beta	89.975487
_cell_angle_gamma	90.047074
_symmetry_space_group_name_H-M	'P 1'
_symmetry_Int_Tables_number		1

loop_
	_symmetry_equiv_pos_as_xyz
	x,y,z

loop_
	_atom_site_label
	_atom_site_type_symbol
	_atom_site_fract_x
	_atom_site_fract_y
	_atom_site_fract_z
	H0	H	0.397496	0.846217	0.716377
	H1	H	0.594486	0.173680	0.715135
	H2	H	0.591796	0.845724	0.289721
	H3	H	0.399041	0.174328	0.288613
	H4	H	0.710032	0.412189	0.838043
	H5	H	0.710811	0.610469	0.165321
	H6	H	0.279739	0.610663	0.838682
	H7	H	0.279783	0.411443	0.166086
	H8	H	0.832644	0.725750	0.402014
	H9	H	0.158263	0.726113	0.598851
	H10	H	0.833099	0.294372	0.600947
	H11	H	0.158819	0.295936	0.402119
	H12	H	0.832322	0.410774	0.717149
	H13	H	0.157981	0.610285	0.717441
	H14	H	0.833277	0.609313	0.286049
	H15	H	0.158526	0.413409	0.286149
	H16	H	0.397610	0.724267	0.837758
	H17	H	0.592057	0.724281	0.166808
	H18	H	0.592902	0.297469	0.837616
	H19	H	0.396270	0.295802	0.165910
	H20	H	0.711152	0.847136	0.401618
	H21	H	0.710607	0.173126	0.600434
	H22	H	0.279601	0.846900	0.601642
	H23	H	0.280837	0.173834	0.402026
	H24	H	0.896041	0.347634	0.216995
	H25	H	0.091576	0.675325	0.212916
	H26	H	0.091955	0.345764	0.788962
	H27	H	0.898270	0.674413	0.787053
	H28	H	0.210027	0.912220	0.338247
	H29	H	0.210107	0.108998	0.666090
	H30	H	0.781104	0.109321	0.338349
	H31	H	0.779912	0.909195	0.665077
	H32	H	0.331780	0.225153	0.902958
	H33	H	0.657499	0.226006	0.100493
	H34	H	0.331932	0.796314	0.099537
	H35	H	0.657804	0.794796	0.903280
	H36	H	0.332649	0.911069	0.218003
	H37	H	0.658041	0.108379	0.216782
	H38	H	0.332308	0.108239	0.786601
	H39	H	0.658365	0.913021	0.788578
	H40	H	0.898329	0.224872	0.338672
	H41	H	0.092807	0.224000	0.666628
	H42	H	0.091367	0.798927	0.336822
	H43	H	0.897941	0.796052	0.665058
	H44	H	0.210672	0.347491	0.902837
	H45	H	0.209887	0.674311	0.100663
	H46	H	0.778996	0.348136	0.101922
	H47	H	0.779148	0.673776	0.900547
	H48	H	0.395639	0.129673	0.597416
	H49	H	0.588288	0.890412	0.604432
	H50	H	0.589716	0.129294	0.400356
	H51	H	0.406706	0.893902	0.405027
	H52	H	0.585235	0.424555	0.115062
	H53	H	0.582253	0.599895	0.888564
	H54	H	0.395679	0.605113	0.121211
	H55	H	0.403208	0.420580	0.887120
	H56	H	0.108428	0.598898	0.412120
	H57	H	0.876789	0.613246	0.596591
	H58	H	0.107528	0.424034	0.591220
	H59	H	0.883286	0.423876	0.412542
	H60	H	0.112412	0.418541	0.601967
	H61	H	0.883969	0.600808	0.582997
	H62	H	0.113045	0.604310	0.398785
	H63	H	0.878657	0.417777	0.401730
	H64	H	0.402404	0.597209	0.116276
	H65	H	0.587247	0.609952	0.884003
	H66	H	0.583340	0.412869	0.118783
	H67	H	0.403071	0.418072	0.886384
	H68	H	0.579625	0.122984	0.412917
	H69	H	0.580870	0.897313	0.590570
	H70	H	0.408469	0.125638	0.598595
	H71	H	0.403285	0.896723	0.417072
	H72	H	0.901879	0.626107	0.089859
	H73	H	0.093498	0.390539	0.100938
	H74	H	0.089014	0.629437	0.903612
	H75	H	0.902359	0.392532	0.904851
	H76	H	0.088690	0.917047	0.618983
	H77	H	0.086159	0.098515	0.388361
	H78	H	0.900144	0.101452	0.618973
	H79	H	0.898665	0.918793	0.383953
	H80	H	0.611681	0.112509	0.911510
	H81	H	0.378465	0.111168	0.091089
	H82	H	0.612671	0.905820	0.091123
	H83	H	0.379821	0.919131	0.907688
	H84	H	0.606493	0.925246	0.087746
	H85	H	0.383190	0.095872	0.090955
	H86	H	0.607021	0.098918	0.913949
	H87	H	0.377979	0.915013	0.907139
	H88	H	0.904593	0.098926	0.617166
	H89	H	0.085965	0.109739	0.385245
	H90	H	0.089649	0.918898	0.618458
	H91	H	0.902881	0.921449	0.385785
	H92	H	0.083821	0.625066	0.909127
	H93	H	0.080018	0.396494	0.096615
	H94	H	0.898897	0.628655	0.094674
	H95	H	0.905024	0.396063	0.912649
	H96	H	0.402616	0.124521	0.586356
	H97	H	0.596917	0.891872	0.590026
	H98	H	0.595711	0.126439	0.416124
	H99	H	0.394887	0.891075	0.408461
	H100	H	0.594553	0.418221	0.120375
	H101	H	0.593877	0.600305	0.885053
	H102	H	0.406162	0.607814	0.118683
	H103	H	0.401138	0.419688	0.885793
	H104	H	0.112852	0.613557	0.410687
	H105	H	0.880849	0.594977	0.601200
	H106	H	0.111391	0.411709	0.591274
	H107	H	0.880293	0.411408	0.412992
	H108	H	0.904501	0.627496	0.095356
	H109	H	0.091453	0.395641	0.086744
	H110	H	0.091072	0.626675	0.912105
	H111	H	0.896642	0.394182	0.911887
	H112	H	0.087602	0.918437	0.617870
	H113	H	0.095564	0.103344	0.383872
	H114	H	0.904469	0.104040	0.618233
	H115	H	0.903486	0.915225	0.384547
	H116	H	0.612060	0.102188	0.900963
	H117	H	0.377093	0.102032	0.104579
	H118	H	0.613427	0.919540	0.106302
	H119	H	0.380572	0.916876	0.910948
	C120	C	0.373822	0.018423	0.622984
	C121	C	0.617473	1.001402	0.623539
	C122	C	0.617033	0.018319	0.380674
	C123	C	0.373988	1.002119	0.381143
	C124	C	0.616567	0.389613	0.010073
	C125	C	0.615985	0.631820	0.993970
	C126	C	0.373183	0.632354	0.010355
	C127	C	0.373346	0.389951	0.994251
	C128	C	0.003493	0.633082	0.379358
	C129	C	0.987614	0.632386	0.622989
	C130	C	0.003478	0.388766	0.623784
	C131	C	0.987916	0.389224	0.379790
	C132	C	0.873152	0.519394	0.123121
	C133	C	0.116442	0.502501	0.122630
	C134	C	0.116729	0.518999	0.879665
	C135	C	0.873248	0.502417	0.880289
	C136	C	0.116672	0.889768	0.509908
	C137	C	0.117782	0.132546	0.494034
	C138	C	0.874371	0.130997	0.510303
	C139	C	0.873431	0.889041	0.493176
	C140	C	0.502948	0.132933	0.879448
	C141	C	0.486923	0.131859	0.123810
	C142	C	0.503279	0.888337	0.123815
	C143	C	0.487161	0.888656	0.880440
	C144	C	0.376525	0.895129	0.678508
	C145	C	0.615105	0.124525	0.677925
	C146	C	0.613400	0.895079	0.326252
	C147	C	0.377852	0.125308	0.325960
	C148	C	0.671855	0.392000	0.886819
	C149	C	0.671914	0.630260	0.117090
	C150	C	0.317835	0.630506	0.887349
	C151	C	0.317740	0.391340	0.117214
	C152	C	0.881261	0.687721	0.382173
	C153	C	0.109851	0.687724	0.619843
	C154	C	0.881286	0.332657	0.621361
	C155	C	0.110319	0.334204	0.382121
	C156	C	0.880886	0.390587	0.679060
	C157	C	0.109679	0.630379	0.678706
	C158	C	0.881384	0.629670	0.324461
	C159	C	0.110367	0.392463	0.324522
	C160	C	0.376675	0.686827	0.886765
	C161	C	0.613102	0.686987	0.117581
	C162	C	0.613895	0.334694	0.886777
	C163	C	0.375691	0.333879	0.117125
	C164	C	0.672336	0.895682	0.382345
	C165	C	0.672805	0.124267	0.620869
	C166	C	0.318024	0.895460	0.621498
	C167	C	0.319254	0.125250	0.382456
	C168	C	0.875714	0.396504	0.178739
	C169	C	0.112737	0.626207	0.176255
	C170	C	0.113409	0.395225	0.825670
	C171	C	0.876601	0.625396	0.824484
	C172	C	0.171655	0.892168	0.386765
	C173	C	0.172691	0.129884	0.617142
	C174	C	0.818826	0.129698	0.387342
	C175	C	0.818416	0.890115	0.616273
	C176	C	0.380663	0.187840	0.881986
	C177	C	0.609265	0.187547	0.120868
	C178	C	0.380540	0.833963	0.120617
	C179	C	0.609585	0.833669	0.883312
	C180	C	0.381013	0.890903	0.179404
	C181	C	0.609457	0.129316	0.178877
	C182	C	0.380788	0.129804	0.824152
	C183	C	0.609741	0.891936	0.826038
	C184	C	0.876933	0.187185	0.387471
	C185	C	0.114482	0.187037	0.617451
	C186	C	0.112984	0.835848	0.386033
	C187	C	0.876847	0.833728	0.616358
	C188	C	0.172547	0.396182	0.881904
	C189	C	0.171392	0.625723	0.120089
	C190	C	0.817305	0.396810	0.121817
	C191	C	0.817576	0.625201	0.880837
	C192	C	0.395864	0.104363	0.600705
	C193	C	0.595162	0.915512	0.601600
	C194	C	0.594792	0.104233	0.403171
	C195	C	0.395520	0.916088	0.403540
	C196	C	0.594230	0.411994	0.095954
	C197	C	0.594257	0.609956	0.908297
	C198	C	0.394966	0.609964	0.096569
	C199	C	0.395823	0.412842	0.908688
	C200	C	0.089418	0.611879	0.400780
	C201	C	0.902625	0.609669	0.600411
	C202	C	0.088453	0.411417	0.601348
	C203	C	0.902887	0.411186	0.402475
	C204	C	0.895380	0.605370	0.100030
	C205	C	0.094676	0.416422	0.100982
	C206	C	0.094568	0.604712	0.901671
	C207	C	0.895057	0.416576	0.903062
	C208	C	0.095063	0.911685	0.596100
	C209	C	0.095883	0.110423	0.408020
	C210	C	0.896538	0.108095	0.596006
	C211	C	0.895280	0.911701	0.406953
	C212	C	0.588246	0.110879	0.901906
	C213	C	0.401571	0.109604	0.101851
	C214	C	0.588823	0.910249	0.101596
	C215	C	0.401498	0.910586	0.902236
	Zn216	Zn	0.495627	0.010185	0.751123
	Zn217	Zn	0.495404	0.009831	0.252929
	Zn218	Zn	0.744862	0.511246	0.001742
	Zn219	Zn	0.244570	0.511386	0.001995
	Zn220	Zn	-0.004728	0.761924	0.501230
	Zn221	Zn	-0.004150	0.260238	0.502103
	Zn222	Zn	-0.004677	0.510331	0.752271
	Zn223	Zn	-0.004326	0.511036	0.250875
	Zn224	Zn	0.495086	0.760039	0.002094
	Zn225	Zn	0.494787	0.261099	0.002039
	Zn226	Zn	0.745197	0.009918	0.502028
	Zn227	Zn	0.245363	0.010646	0.501793
	N228	N	0.410693	0.972453	0.679284
	N229	N	0.581221	0.047228	0.679603
	N230	N	0.579686	0.972480	0.325249
	N231	N	0.411146	0.047709	0.325043
	N232	N	0.673580	0.425318	0.964498
	N233	N	0.674003	0.596870	0.039349
	N234	N	0.315737	0.597259	0.965199
	N235	N	0.316113	0.425570	0.039679
	N236	N	0.958291	0.689814	0.415628
	N237	N	0.033123	0.688811	0.585773
	N238	N	0.958281	0.331547	0.587655
	N239	N	0.033140	0.331914	0.415782
	N240	N	0.957688	0.424768	0.680714
	N241	N	0.032704	0.596505	0.680648
	N242	N	0.958404	0.596392	0.322794
	N243	N	0.033471	0.426104	0.323134
	N244	N	0.410169	0.688192	0.964310
	N245	N	0.578830	0.687785	0.040401
	N246	N	0.580083	0.333153	0.964261
	N247	N	0.409705	0.333091	0.039893
	N248	N	0.674521	0.973321	0.415649
	N249	N	0.674460	0.046553	0.587881
	N250	N	0.316285	0.972996	0.587738
	N251	N	0.316352	0.047555	0.415624
	N252	N	0.909459	0.473789	0.179847
	N253	N	0.079027	0.548786	0.177608
	N254	N	0.079778	0.472676	0.824093
	N255	N	0.910647	0.548109	0.824265
	N256	N	0.174112	0.924898	0.464745
	N257	N	0.174665	0.096805	0.539390
	N258	N	0.817055	0.095738	0.464985
	N259	N	0.816233	0.923779	0.538540
	N260	N	0.457620	0.189933	0.915648
	N261	N	0.531963	0.189253	0.087448
	N262	N	0.457623	0.832308	0.086807
	N263	N	0.532331	0.831694	0.916411
	N264	N	0.458189	0.924247	0.181192
	N265	N	0.532624	0.095444	0.180662
	N266	N	0.457845	0.096356	0.822566
	N267	N	0.532723	0.925582	0.824211
	N268	N	0.910760	0.188312	0.464769
	N269	N	0.080968	0.188613	0.539899
	N270	N	0.079427	0.834395	0.463604
	N271	N	0.910369	0.833088	0.538839
	N272	N	0.174720	0.473951	0.914849
	N273	N	0.173787	0.547858	0.087549
	N274	N	0.815781	0.474400	0.087894
	N275	N	0.815318	0.547715	0.914597
	O276	O	-0.044670	0.062157	1.014236
	H277	H	-0.042433	0.065145	1.015024
	H278	H	-0.049011	0.062410	1.011792
	O279	O	0.498209	0.420883	0.563240
	H280	H	0.497104	0.418665	0.568025
	H281	H	0.501156	0.422134	0.572688
	O282	O	0.451265	0.468090	0.568507
	H283	H	0.449415	0.468112	0.564216
	H284	H	0.440146	0.466477	0.569925
	O285	O	0.531942	0.464136	0.541473
	H286	H	0.535933	0.463363	0.538920
	H287	H	0.539426	0.458366	0.541182
	O288	O	0.483422	0.396247	0.635455
	H289	H	0.487805	0.399433	0.641132
	H290	H	0.477489	0.407248	0.639966
	O291	O	0.509447	0.461008	0.581943
	H292	H	0.508372	0.453384	0.578852
	H293	H	0.506875	0.466197	0.581087
	O294	O	0.479411	0.440058	0.544014
	H295	H	0.482236	0.435202	0.547510
	H296	H	0.469689	0.432469	0.542950
	O297	O	1.477526	-0.513781	-0.428298
	H298	H	1.486342	-0.519366	-0.425820
	H299	H	1.477559	-0.511679	-0.433078
