data_Molecule from HDF5

_cell_length_a		16.420931
_cell_length_b		16.453451
_cell_length_c		16.479959
_cell_angle_alpha	89.941900
_cell_angle_beta	90.150355
_cell_angle_gamma	90.110594
_symmetry_space_group_name_H-M	'P 1'
_symmetry_Int_Tables_number		1

loop_
	_symmetry_equiv_pos_as_xyz
	x,y,z

loop_
	_atom_site_label
	_atom_site_type_symbol
	_atom_site_fract_x
	_atom_site_fract_y
	_atom_site_fract_z
	H0	H	0.383410	0.850294	0.722182
	H1	H	0.607185	0.159895	0.721938
	H2	H	0.604230	0.850691	0.268467
	H3	H	0.385260	0.162191	0.270700
	H4	H	0.719707	0.397594	0.837808
	H5	H	0.721448	0.612805	0.151362
	H6	H	0.269904	0.616505	0.839628
	H7	H	0.272365	0.396774	0.151195
	H8	H	0.838690	0.727786	0.384746
	H9	H	0.150086	0.732996	0.606964
	H10	H	0.838365	0.281599	0.600049
	H11	H	0.153346	0.281351	0.387840
	H12	H	0.839149	0.394394	0.718678
	H13	H	0.151195	0.615361	0.720743
	H14	H	0.839375	0.611842	0.269925
	H15	H	0.153613	0.396011	0.271106
	H16	H	0.386835	0.731924	0.839312
	H17	H	0.607052	0.730265	0.151523
	H18	H	0.604769	0.280676	0.838245
	H19	H	0.387553	0.280811	0.150574
	H20	H	0.720137	0.849730	0.384143
	H21	H	0.719599	0.161256	0.602917
	H22	H	0.269661	0.849070	0.604168
	H23	H	0.272426	0.162890	0.388453
	H24	H	0.889389	0.348150	0.217425
	H25	H	0.107125	0.661361	0.220976
	H26	H	0.106133	0.349319	0.769719
	H27	H	0.887784	0.661665	0.769004
	H28	H	0.219570	0.895952	0.338594
	H29	H	0.220338	0.112707	0.651638
	H30	H	0.771017	0.112796	0.338596
	H31	H	0.770871	0.896369	0.650940
	H32	H	0.339117	0.230218	0.884376
	H33	H	0.652958	0.227289	0.101684
	H34	H	0.340173	0.778680	0.104852
	H35	H	0.653116	0.783004	0.887966
	H36	H	0.337364	0.897064	0.217145
	H37	H	0.650854	0.114373	0.220016
	H38	H	0.339492	0.114682	0.768995
	H39	H	0.650465	0.893641	0.767728
	H40	H	0.887556	0.228071	0.338655
	H41	H	0.106209	0.229550	0.650845
	H42	H	0.104660	0.779263	0.338922
	H43	H	0.885762	0.779207	0.650269
	H44	H	0.222401	0.349539	0.885295
	H45	H	0.222410	0.661521	0.104140
	H46	H	0.773074	0.348577	0.100862
	H47	H	0.774338	0.663347	0.886316
	H48	H	0.418510	0.114137	0.584278
	H49	H	0.573833	0.897338	0.577782
	H50	H	0.582334	0.117501	0.409322
	H51	H	0.412517	0.895144	0.405828
	H52	H	0.589345	0.416059	0.108750
	H53	H	0.584856	0.589162	0.883874
	H54	H	0.410150	0.590597	0.106185
	H55	H	0.407574	0.415856	0.881468
	H56	H	0.106674	0.587178	0.407554
	H57	H	0.882586	0.588731	0.584637
	H58	H	0.106706	0.418076	0.578752
	H59	H	0.883735	0.417371	0.405325
	H60	H	0.108633	0.419956	0.584762
	H61	H	0.882760	0.594302	0.579401
	H62	H	0.110100	0.594987	0.405680
	H63	H	0.883064	0.415089	0.405436
	H64	H	0.412088	0.591845	0.105482
	H65	H	0.578561	0.596553	0.883859
	H66	H	0.583912	0.421883	0.104865
	H67	H	0.407207	0.421913	0.883532
	H68	H	0.581972	0.117408	0.407266
	H69	H	0.587447	0.893036	0.577074
	H70	H	0.404784	0.114700	0.572310
	H71	H	0.404809	0.894161	0.411644
	H72	H	0.906265	0.617305	0.076777
	H73	H	0.096470	0.389343	0.082142
	H74	H	0.080955	0.617022	0.906100
	H75	H	0.912884	0.394004	0.904609
	H76	H	0.078627	0.918712	0.604675
	H77	H	0.085742	0.091077	0.382801
	H78	H	0.907514	0.093050	0.607610
	H79	H	0.907383	0.914132	0.381407
	H80	H	0.609000	0.094624	0.905116
	H81	H	0.384504	0.090844	0.077911
	H82	H	0.608864	0.920197	0.089034
	H83	H	0.383827	0.920634	0.907774
	H84	H	0.608941	0.914109	0.080550
	H85	H	0.381132	0.091105	0.086919
	H86	H	0.607115	0.092834	0.911303
	H87	H	0.383532	0.917333	0.909830
	H88	H	0.907379	0.091278	0.606901
	H89	H	0.081275	0.091913	0.384004
	H90	H	0.082761	0.915339	0.607404
	H91	H	0.904685	0.919560	0.382473
	H92	H	0.079511	0.615048	0.909391
	H93	H	0.077105	0.392178	0.093441
	H94	H	0.905959	0.621126	0.087780
	H95	H	0.907474	0.394798	0.911837
	H96	H	0.402956	0.121857	0.588453
	H97	H	0.579406	0.890370	0.588431
	H98	H	0.580118	0.117054	0.408624
	H99	H	0.404691	0.890657	0.402742
	H100	H	0.581024	0.413348	0.106691
	H101	H	0.587158	0.597726	0.880189
	H102	H	0.410249	0.593063	0.106216
	H103	H	0.412884	0.418413	0.883953
	H104	H	0.107146	0.592915	0.413615
	H105	H	0.885686	0.587342	0.578025
	H106	H	0.109787	0.414163	0.582934
	H107	H	0.883887	0.416286	0.407123
	H108	H	0.916104	0.615747	0.083981
	H109	H	0.078512	0.399162	0.071775
	H110	H	0.083849	0.616592	0.909776
	H111	H	0.904013	0.391479	0.904206
	H112	H	0.083583	0.920985	0.605352
	H113	H	0.083782	0.095238	0.382348
	H114	H	0.908613	0.092003	0.607651
	H115	H	0.910346	0.918224	0.384324
	H116	H	0.607102	0.088870	0.906412
	H117	H	0.380162	0.099190	0.080769
	H118	H	0.604953	0.924083	0.079922
	H119	H	0.385314	0.920370	0.911226
	C120	C	0.373848	0.013867	0.616468
	C121	C	0.615924	0.996313	0.616101
	C122	C	0.615681	0.014261	0.373726
	C123	C	0.373026	0.996882	0.373196
	C124	C	0.618177	0.383481	0.003207
	C125	C	0.617783	0.627695	0.986355
	C126	C	0.375436	0.627283	0.003344
	C127	C	0.374866	0.384307	0.986112
	C128	C	0.004457	0.625477	0.373739
	C129	C	0.986653	0.625766	0.615518
	C130	C	0.004848	0.382975	0.616509
	C131	C	0.987314	0.382769	0.372674
	C132	C	0.875847	0.513912	0.115598
	C133	C	0.118514	0.496772	0.117000
	C134	C	0.117008	0.513567	0.873707
	C135	C	0.874460	0.496930	0.872526
	C136	C	0.116507	0.882949	0.503281
	C137	C	0.117735	0.126268	0.486498
	C138	C	0.874362	0.125844	0.503771
	C139	C	0.873091	0.883084	0.485710
	C140	C	0.504189	0.126582	0.873201
	C141	C	0.486020	0.127097	0.115906
	C142	C	0.504175	0.884325	0.116921
	C143	C	0.487208	0.884616	0.874478
	C144	C	0.367378	0.897064	0.680432
	C145	C	0.622748	0.113288	0.679818
	C146	C	0.620817	0.897212	0.310039
	C147	C	0.368641	0.114999	0.311496
	C148	C	0.679406	0.380172	0.885071
	C149	C	0.680400	0.630762	0.104303
	C150	C	0.311334	0.633348	0.886409
	C151	C	0.313113	0.379869	0.103959
	C152	C	0.886169	0.687310	0.368234
	C153	C	0.103349	0.690739	0.622562
	C154	C	0.886267	0.321102	0.619457
	C155	C	0.105839	0.321441	0.369711
	C156	C	0.886848	0.377661	0.678358
	C157	C	0.104169	0.632060	0.679404
	C158	C	0.886570	0.629560	0.310651
	C159	C	0.106010	0.378885	0.311630
	C160	C	0.369689	0.690973	0.886329
	C161	C	0.623325	0.689315	0.104423
	C162	C	0.622083	0.321723	0.885377
	C163	C	0.370405	0.321728	0.103470
	C164	C	0.678735	0.896850	0.367717
	C165	C	0.679190	0.113886	0.620623
	C166	C	0.310778	0.896215	0.621296
	C167	C	0.312412	0.115382	0.370434
	C168	C	0.871632	0.395604	0.176951
	C169	C	0.123598	0.614317	0.179726
	C170	C	0.122681	0.396340	0.810793
	C171	C	0.870199	0.614624	0.809803
	C172	C	0.179312	0.878321	0.386029
	C173	C	0.179851	0.130420	0.604196
	C174	C	0.811916	0.130143	0.385988
	C175	C	0.811141	0.878313	0.603486
	C176	C	0.386432	0.189322	0.867877
	C177	C	0.605250	0.187568	0.119509
	C178	C	0.386935	0.820234	0.121617
	C179	C	0.605381	0.822753	0.869646
	C180	C	0.385310	0.879562	0.177522
	C181	C	0.603938	0.131132	0.178533
	C182	C	0.386522	0.131846	0.810037
	C183	C	0.603936	0.878145	0.809812
	C184	C	0.870345	0.187562	0.385689
	C185	C	0.122659	0.188481	0.603882
	C186	C	0.121858	0.820146	0.386025
	C187	C	0.868538	0.820109	0.603179
	C188	C	0.180744	0.396549	0.868644
	C189	C	0.181186	0.614491	0.121639
	C190	C	0.813970	0.395727	0.118683
	C191	C	0.813632	0.615450	0.868514
	C192	C	0.400931	0.095560	0.589422
	C193	C	0.588062	0.914887	0.588948
	C194	C	0.589182	0.095936	0.400657
	C195	C	0.399662	0.914592	0.399117
	C196	C	0.592273	0.409547	0.085311
	C197	C	0.591239	0.601967	0.904338
	C198	C	0.402904	0.599819	0.084592
	C199	C	0.401370	0.411172	0.904326
	C200	C	0.086535	0.599175	0.401132
	C201	C	0.904987	0.598062	0.588214
	C202	C	0.086835	0.409772	0.589852
	C203	C	0.905088	0.408859	0.398480
	C204	C	0.902052	0.596490	0.090118
	C205	C	0.091635	0.414829	0.090145
	C206	C	0.089520	0.595006	0.900649
	C207	C	0.900692	0.414956	0.899197
	C208	C	0.089408	0.910303	0.584476
	C209	C	0.091212	0.100074	0.404339
	C210	C	0.900483	0.099589	0.586067
	C211	C	0.899884	0.909689	0.404040
	C212	C	0.586281	0.099924	0.900037
	C213	C	0.403558	0.101294	0.089429
	C214	C	0.586046	0.911756	0.090853
	C215	C	0.405676	0.911743	0.901618
	Zn216	Zn	0.495177	0.005068	0.745350
	Zn217	Zn	0.493738	0.005833	0.244807
	Zn218	Zn	0.746357	0.505843	-0.005913
	Zn219	Zn	0.246528	0.506000	-0.005150
	Zn220	Zn	-0.005235	0.754190	0.494279
	Zn221	Zn	-0.003816	0.254468	0.495015
	Zn222	Zn	-0.004377	0.505124	0.744247
	Zn223	Zn	-0.003040	0.505283	0.245239
	Zn224	Zn	0.496648	0.756493	-0.004318
	Zn225	Zn	0.495872	0.255354	-0.005955
	Zn226	Zn	0.744713	0.004835	0.495102
	Zn227	Zn	0.245421	0.004926	0.494917
	N228	N	0.405850	0.971208	0.677345
	N229	N	0.584124	0.039199	0.677169
	N230	N	0.582254	0.971141	0.313526
	N231	N	0.405526	0.040110	0.313086
	N232	N	0.677160	0.417878	0.959449
	N233	N	0.677504	0.593456	0.029761
	N234	N	0.314822	0.594426	0.960149
	N235	N	0.315810	0.418127	0.029808
	N236	N	0.960576	0.684903	0.406659
	N237	N	0.029411	0.686760	0.583495
	N238	N	0.960761	0.324004	0.581797
	N239	N	0.031025	0.323451	0.406912
	N240	N	0.961763	0.415132	0.676741
	N241	N	0.030708	0.592154	0.674968
	N242	N	0.961201	0.591893	0.313940
	N243	N	0.031302	0.416255	0.313271
	N244	N	0.408711	0.687400	0.960137
	N245	N	0.585096	0.687492	0.030191
	N246	N	0.584748	0.323709	0.959848
	N247	N	0.408036	0.324278	0.029155
	N248	N	0.675462	0.970512	0.406881
	N249	N	0.675140	0.040104	0.581777
	N250	N	0.314585	0.969919	0.582250
	N251	N	0.315149	0.040818	0.408111
	N252	N	0.909605	0.470073	0.174844
	N253	N	0.085573	0.539905	0.176897
	N254	N	0.083730	0.470117	0.813761
	N255	N	0.906932	0.539726	0.811871
	N256	N	0.176280	0.916712	0.460084
	N257	N	0.176826	0.092482	0.530045
	N258	N	0.814274	0.092385	0.460336
	N259	N	0.813566	0.916456	0.529439
	N260	N	0.460741	0.186378	0.906310
	N261	N	0.530862	0.185383	0.081354
	N262	N	0.462016	0.822795	0.085132
	N263	N	0.531827	0.826576	0.909040
	N264	N	0.459375	0.918476	0.174994
	N265	N	0.528689	0.094447	0.176571
	N266	N	0.460811	0.093562	0.813319
	N267	N	0.529233	0.915751	0.812555
	N268	N	0.908585	0.184933	0.459937
	N269	N	0.084553	0.186000	0.529538
	N270	N	0.083867	0.822669	0.460049
	N271	N	0.906062	0.822641	0.528704
	N272	N	0.177509	0.470625	0.906995
	N273	N	0.178267	0.540435	0.083278
	N274	N	0.816587	0.470254	0.081017
	N275	N	0.816098	0.541290	0.906936
	O276	O	0.517636	0.286133	0.274602
	H277	H	0.542883	0.267696	0.260984
	H278	H	0.548926	0.277713	0.265734
	O279	O	1.171881	0.031660	1.122253
	H280	H	1.200154	0.024657	1.139057
	H281	H	1.162631	0.009003	1.093559
	O282	O	0.559435	0.302576	0.565440
	H283	H	0.545519	0.308005	0.550480
	H284	H	0.558883	0.302921	0.579296
	O285	O	0.687785	0.627284	0.683665
	H286	H	0.652112	0.629965	0.699717
	H287	H	0.699291	0.605475	0.674241
	O288	O	1.081219	1.190283	0.199196
	H289	H	1.069871	1.204896	0.216691
	H290	H	1.064347	1.170718	0.192021
	O291	O	1.204441	-0.040905	0.123647
	H292	H	1.202990	-0.035901	0.118835
	H293	H	1.206340	-0.035315	0.109641
	O294	O	-0.156902	0.191226	1.014254
	H295	H	-0.161364	0.199866	1.037354
	H296	H	-0.166185	0.190882	1.029030
	O297	O	0.524530	0.481515	0.569051
	H298	H	0.520183	0.461920	0.555324
	H299	H	0.510249	0.479802	0.589820
	O300	O	0.708587	0.489764	0.509547
	H301	H	0.699426	0.489916	0.486035
	H302	H	0.702926	0.510469	0.515185
	O303	O	0.323625	0.335702	0.669687
	H304	H	0.333983	0.364235	0.678767
	H305	H	0.315369	0.321893	0.621427
	O306	O	-0.005221	0.801647	0.871397
	H307	H	-0.005006	0.798754	0.851594
	H308	H	-0.012923	0.813407	0.866727
	O309	O	0.445014	0.451515	0.280582
	H310	H	0.435719	0.437327	0.277421
	H311	H	0.449931	0.435443	0.280341
	O312	O	0.008914	1.229036	0.975697
	H313	H	0.032201	1.219605	0.979534
	H314	H	0.006789	1.241884	1.000093
	O315	O	0.272310	0.568698	0.548137
	H316	H	0.281762	0.566249	0.571070
	H317	H	0.265741	0.550587	0.550281
	O318	O	1.317845	0.682982	0.314044
	H319	H	1.346988	0.679865	0.308415
	H320	H	1.305866	0.690844	0.363262
	O321	O	0.171705	0.203590	-0.027227
	H322	H	0.186932	0.229889	-0.026784
	H323	H	0.177032	0.197136	0.002165
	O324	O	0.286909	0.448187	0.436051
	H325	H	0.281963	0.465161	0.395595
	H326	H	0.295793	0.448956	0.455800
	O327	O	0.706233	0.496350	0.654586
	H328	H	0.712771	0.508691	0.640791
	H329	H	0.717033	0.502450	0.662136
	O330	O	0.198011	0.817669	-0.070494
	H331	H	0.216181	0.796471	-0.062888
	H332	H	0.188123	0.828148	-0.089177
	O333	O	0.784949	0.795929	1.018836
	H334	H	0.801465	0.811275	1.010514
	H335	H	0.762220	0.762268	1.017886
	O336	O	0.171410	-0.184762	-0.117347
	H337	H	0.183760	-0.178422	-0.116828
	H338	H	0.137972	-0.186153	-0.114376
	O339	O	-0.163427	0.944170	1.178606
	H340	H	-0.174813	0.944651	1.202427
	H341	H	-0.150320	0.915904	1.170765
	O342	O	0.202788	1.044133	0.956395
	H343	H	0.202343	1.057070	0.966813
	H344	H	0.196837	1.040901	0.960870
	O345	O	0.976647	1.221957	-0.224908
	H346	H	0.968117	1.253365	-0.250959
	H347	H	0.974529	1.226899	-0.200219
	O348	O	1.205634	0.998284	0.807308
	H349	H	1.207274	0.998527	0.798077
	H350	H	1.212867	0.999475	0.803133
	O351	O	0.183079	1.195593	1.119090
	H352	H	0.192325	1.162745	1.125597
	H353	H	0.160265	1.194801	1.127118
	O354	O	-0.321161	0.316505	-0.690889
	H355	H	-0.312831	0.308045	-0.637067
	H356	H	-0.311126	0.370926	-0.700475
	O357	O	-0.180261	-0.082000	0.924590
	H358	H	-0.165904	-0.074002	0.917490
	H359	H	-0.182447	-0.089676	0.938333
	O360	O	0.556962	0.727135	0.435714
	H361	H	0.581686	0.730609	0.431723
	H362	H	0.545377	0.722233	0.413008
	O363	O	0.040240	-0.174091	1.032722
	H364	H	0.032430	-0.169151	1.021759
	H365	H	0.039003	-0.177165	1.027530
	O366	O	0.433547	0.725247	0.559852
	H367	H	0.427696	0.722061	0.548880
	H368	H	0.437796	0.721608	0.537516
	O369	O	0.705110	0.479005	0.284518
	H370	H	0.699424	0.501505	0.278374
	H371	H	0.720160	0.495971	0.284214
	O372	O	1.058103	-0.065673	0.798768
	H373	H	1.055615	-0.056543	0.792638
	H374	H	1.053384	-0.056190	0.790132
	O375	O	0.278662	0.722379	0.474531
	H376	H	0.238081	0.758954	0.472687
	H377	H	0.285823	0.693140	0.502555
	O378	O	0.595241	0.464921	0.442142
	H379	H	0.579684	0.479883	0.445014
	H380	H	0.583052	0.478709	0.442806
	O381	O	0.797737	0.105667	0.794589
	H382	H	0.803518	0.114231	0.773422
	H383	H	0.788453	0.100112	0.843513
	O384	O	0.283863	0.523609	0.281147
	H385	H	0.308052	0.548379	0.286169
	H386	H	0.247098	0.524306	0.251946
	O387	O	-0.190457	0.019120	0.966664
	H388	H	-0.204328	0.026103	0.963078
	H389	H	-0.178549	0.040490	0.963125
	O390	O	-0.185817	-0.170124	0.179372
	H391	H	-0.162576	-0.160661	0.181704
	H392	H	-0.176872	-0.181518	0.153305
	O393	O	0.582661	0.717646	0.640068
	H394	H	0.578344	0.735245	0.648006
	H395	H	0.571897	0.735614	0.638299
	O396	O	0.808851	0.087502	0.088526
	H397	H	0.811994	0.089082	0.091672
	H398	H	0.805224	0.084819	0.100195
	O399	O	1.032244	-0.013342	1.191550
	H400	H	1.049034	-0.006328	1.181829
	H401	H	1.028168	-0.039139	1.193812
	O402	O	1.476466	0.725197	1.278513
	H403	H	1.476565	0.752428	1.241157
	H404	H	1.471941	0.696691	1.273361
	O405	O	1.002507	0.835670	0.204839
	H406	H	1.009424	0.829360	0.197639
	H407	H	1.014410	0.828141	0.203027
	O408	O	0.970426	0.059227	-0.088658
	H409	H	0.963734	0.087922	-0.091513
	H410	H	0.989709	0.071642	-0.080388
	O411	O	0.970711	1.123983	0.205062
	H412	H	0.958835	1.111440	0.208463
	H413	H	0.964904	1.110933	0.194302
	O414	O	0.472855	0.583132	0.648589
	H415	H	0.474167	0.596690	0.647265
	H416	H	0.482730	0.578823	0.663126
	O417	O	0.659636	0.656184	0.510576
	H418	H	0.640675	0.655263	0.535715
	H419	H	0.673862	0.681133	0.513655
	O420	O	-0.069206	-0.032227	-0.207417
	H421	H	-0.084539	-0.007401	-0.213056
	H422	H	-0.062066	-0.002722	-0.208999
	O423	O	0.699473	0.296513	0.472344
	H424	H	0.712614	0.300315	0.487017
	H425	H	0.690529	0.287628	0.491443
	O426	O	0.291014	0.297176	0.511282
	H427	H	0.289332	0.276148	0.499820
	H428	H	0.286343	0.312679	0.493367
	O429	O	0.477838	0.289998	0.709639
	H430	H	0.469835	0.283826	0.706789
	H431	H	0.462460	0.270156	0.722395
	O432	O	0.555092	0.573143	0.287092
	H433	H	0.548435	0.558208	0.294158
	H434	H	0.541871	0.575742	0.299933
	O435	O	0.447548	0.382566	0.516851
	H436	H	0.451597	0.375208	0.492279
	H437	H	0.450447	0.387324	0.526294
	O438	O	-0.037838	-0.082264	-0.048384
	H439	H	-0.040291	-0.077762	-0.036821
	H440	H	-0.034841	-0.085476	-0.070454
	O441	O	0.802941	0.200946	-0.102208
	H442	H	0.785097	0.178402	-0.098669
	H443	H	0.797657	0.207870	-0.069253
	O444	O	-0.024784	0.981059	0.995638
	H445	H	-0.040109	0.986820	0.988360
	H446	H	-0.015703	0.989315	0.995478
	O447	O	0.589585	0.539078	0.695383
	H448	H	0.601380	0.507340	0.700697
	H449	H	0.594217	0.534462	0.697805
	O450	O	0.432226	0.563492	0.569477
	H451	H	0.435640	0.566063	0.572002
	H452	H	0.434893	0.571984	0.572698
	O453	O	0.275305	0.489763	0.709948
	H454	H	0.258010	0.471112	0.735467
	H455	H	0.292600	0.498986	0.725014
