data_Molecule from HDF5

_cell_length_a		16.410872
_cell_length_b		16.135990
_cell_length_c		16.260494
_cell_angle_alpha	90.282167
_cell_angle_beta	89.955807
_cell_angle_gamma	89.768371
_symmetry_space_group_name_H-M	'P 1'
_symmetry_Int_Tables_number		1

loop_
	_symmetry_equiv_pos_as_xyz
	x,y,z

loop_
	_atom_site_label
	_atom_site_type_symbol
	_atom_site_fract_x
	_atom_site_fract_y
	_atom_site_fract_z
	H0	H	0.409109	0.821608	0.721991
	H1	H	0.601924	0.153133	0.722089
	H2	H	0.605489	0.824146	0.293243
	H3	H	0.406767	0.152444	0.298691
	H4	H	0.720249	0.385060	0.845839
	H5	H	0.720127	0.590362	0.171542
	H6	H	0.284944	0.590286	0.846306
	H7	H	0.287422	0.387168	0.170975
	H8	H	0.841740	0.700849	0.413206
	H9	H	0.168436	0.699894	0.608401
	H10	H	0.843233	0.271096	0.607210
	H11	H	0.167846	0.269856	0.409835
	H12	H	0.843083	0.385649	0.726064
	H13	H	0.166785	0.585855	0.727646
	H14	H	0.841994	0.585619	0.294769
	H15	H	0.166109	0.384240	0.290943
	H16	H	0.406455	0.701429	0.844395
	H17	H	0.598416	0.699755	0.174197
	H18	H	0.601025	0.273482	0.844736
	H19	H	0.408474	0.277391	0.173400
	H20	H	0.720752	0.822611	0.407687
	H21	H	0.720167	0.151233	0.609994
	H22	H	0.291635	0.821715	0.608613
	H23	H	0.287934	0.149428	0.408115
	H24	H	0.905260	0.320796	0.221542
	H25	H	0.099773	0.651205	0.223212
	H26	H	0.102909	0.321451	0.796707
	H27	H	0.904337	0.650783	0.795251
	H28	H	0.225042	0.879957	0.347525
	H29	H	0.221523	0.087588	0.672015
	H30	H	0.789119	0.087373	0.346747
	H31	H	0.787888	0.884335	0.671978
	H32	H	0.341704	0.200800	0.914347
	H33	H	0.667838	0.203633	0.108264
	H34	H	0.341493	0.773281	0.109742
	H35	H	0.667745	0.771364	0.911506
	H36	H	0.343829	0.888182	0.228310
	H37	H	0.667722	0.088423	0.226080
	H38	H	0.343123	0.088321	0.793426
	H39	H	0.667945	0.885998	0.793270
	H40	H	0.908395	0.197843	0.344894
	H41	H	0.102025	0.199947	0.673371
	H42	H	0.102485	0.771086	0.345283
	H43	H	0.908815	0.774358	0.674715
	H44	H	0.222101	0.324019	0.906257
	H45	H	0.218171	0.650649	0.111802
	H46	H	0.787743	0.322910	0.108572
	H47	H	0.788282	0.650453	0.908473
	H48	H	0.415526	0.102990	0.601849
	H49	H	0.604991	0.869786	0.594741
	H50	H	0.605856	0.104448	0.428539
	H51	H	0.420114	0.874789	0.429556
	H52	H	0.612717	0.396825	0.130385
	H53	H	0.598813	0.574178	0.893513
	H54	H	0.407064	0.585047	0.127857
	H55	H	0.412267	0.393809	0.891224
	H56	H	0.120430	0.569687	0.406185
	H57	H	0.890937	0.574159	0.605128
	H58	H	0.121192	0.380192	0.593040
	H59	H	0.888339	0.388493	0.418558
	H60	H	0.114585	0.407712	0.597296
	H61	H	0.887154	0.583849	0.607650
	H62	H	0.123211	0.588797	0.414760
	H63	H	0.890792	0.396198	0.415412
	H64	H	0.407541	0.574580	0.124315
	H65	H	0.592696	0.580271	0.893184
	H66	H	0.591531	0.411299	0.118831
	H67	H	0.408403	0.395953	0.891365
	H68	H	0.602908	0.108991	0.409136
	H69	H	0.600546	0.866820	0.609410
	H70	H	0.410054	0.103840	0.597421
	H71	H	0.404363	0.865511	0.417299
	H72	H	0.901588	0.608946	0.111117
	H73	H	0.101609	0.369374	0.092367
	H74	H	0.090974	0.603874	0.917158
	H75	H	0.918198	0.369260	0.913176
	H76	H	0.094470	0.896433	0.623473
	H77	H	0.102250	0.080236	0.390273
	H78	H	0.914038	0.077453	0.625195
	H79	H	0.907433	0.901588	0.394457
	H80	H	0.622629	0.081657	0.910413
	H81	H	0.391272	0.083977	0.100270
	H82	H	0.618352	0.901028	0.104815
	H83	H	0.390107	0.892534	0.918040
	H84	H	0.621961	0.890095	0.105079
	H85	H	0.390922	0.077588	0.106353
	H86	H	0.621557	0.084323	0.918770
	H87	H	0.391565	0.899675	0.916601
	H88	H	0.910933	0.080008	0.626461
	H89	H	0.101487	0.069294	0.393675
	H90	H	0.101336	0.889278	0.627646
	H91	H	0.921168	0.893969	0.396281
	H92	H	0.094140	0.602534	0.923848
	H93	H	0.100953	0.365687	0.106062
	H94	H	0.922997	0.601601	0.107140
	H95	H	0.911555	0.371451	0.925464
	H96	H	0.409621	0.105913	0.604215
	H97	H	0.590150	0.872614	0.599222
	H98	H	0.588124	0.101923	0.420561
	H99	H	0.422979	0.869025	0.408775
	H100	H	0.588241	0.384215	0.126203
	H101	H	0.600886	0.582065	0.891063
	H102	H	0.415834	0.580811	0.123234
	H103	H	0.412803	0.397596	0.892368
	H104	H	0.115856	0.573063	0.426380
	H105	H	0.891197	0.581470	0.598170
	H106	H	0.124886	0.392528	0.618536
	H107	H	0.887613	0.390119	0.409940
	H108	H	0.907052	0.600784	0.089556
	H109	H	0.090009	0.370776	0.099421
	H110	H	0.098565	0.605890	0.917341
	H111	H	0.904206	0.366498	0.914381
	H112	H	0.104397	0.898894	0.626010
	H113	H	0.093167	0.076683	0.394136
	H114	H	0.909841	0.076319	0.626344
	H115	H	0.908558	0.885992	0.389535
	H116	H	0.618971	0.075893	0.916728
	H117	H	0.387076	0.085777	0.108556
	H118	H	0.617793	0.894446	0.095457
	H119	H	0.388556	0.895378	0.911810
	C120	C	0.384128	-0.004876	0.630066
	C121	C	0.627033	0.978605	0.630414
	C122	C	0.627766	-0.003700	0.388909
	C123	C	0.385510	0.978008	0.389165
	C124	C	0.626063	0.367018	0.017252
	C125	C	0.625709	0.608960	1.000316
	C126	C	0.381191	0.609828	0.017267
	C127	C	0.382731	0.367234	1.000039
	C128	C	0.012533	0.607151	0.387927
	C129	C	0.996872	0.608262	0.632664
	C130	C	0.013351	0.364290	0.631573
	C131	C	0.996544	0.362749	0.386034
	C132	C	0.881713	0.494942	0.130849
	C133	C	0.125199	0.477529	0.129693
	C134	C	0.124824	0.495466	0.889203
	C135	C	0.882481	0.477815	0.888314
	C136	C	0.128384	0.863943	0.517865
	C137	C	0.126964	0.106034	0.500712
	C138	C	0.883404	0.107446	0.517988
	C139	C	0.883868	0.864878	0.501563
	C140	C	0.513690	0.109641	0.887522
	C141	C	0.497205	0.111409	0.133238
	C142	C	0.512686	0.866409	0.131685
	C143	C	0.497127	0.865566	0.886873
	C144	C	0.387982	0.870869	0.684785
	C145	C	0.623319	0.103268	0.685101
	C146	C	0.625616	0.872856	0.331686
	C147	C	0.386650	0.102727	0.335311
	C148	C	0.682068	0.366292	0.894415
	C149	C	0.681778	0.609585	0.122879
	C150	C	0.324301	0.609361	0.894783
	C151	C	0.326625	0.368437	0.122723
	C152	C	0.890259	0.663005	0.391664
	C153	C	0.119478	0.663103	0.629706
	C154	C	0.891512	0.308968	0.628154
	C155	C	0.118879	0.307609	0.388879
	C156	C	0.891385	0.366081	0.687225
	C157	C	0.118697	0.606394	0.689001
	C158	C	0.890362	0.605690	0.333000
	C159	C	0.117936	0.364120	0.329404
	C160	C	0.384407	0.664869	0.893895
	C161	C	0.621322	0.663775	0.124432
	C162	C	0.622883	0.311016	0.893776
	C163	C	0.386333	0.313312	0.123753
	C164	C	0.682708	0.872118	0.388808
	C165	C	0.682023	0.102293	0.629514
	C166	C	0.329702	0.870973	0.628366
	C167	C	0.327414	0.101103	0.389729
	C168	C	0.884562	0.370614	0.184807
	C169	C	0.121299	0.601694	0.185846
	C170	C	0.123631	0.371221	0.833380
	C171	C	0.884579	0.601616	0.832941
	C172	C	0.185561	0.862103	0.395837
	C173	C	0.182818	0.106438	0.623511
	C174	C	0.827989	0.105917	0.395109
	C175	C	0.827398	0.865796	0.623867
	C176	C	0.390618	0.164040	0.892163
	C177	C	0.619205	0.166254	0.129372
	C178	C	0.390430	0.811418	0.129715
	C179	C	0.619214	0.809440	0.890150
	C180	C	0.391563	0.868432	0.188935
	C181	C	0.619067	0.109109	0.188253
	C182	C	0.391304	0.107974	0.832160
	C183	C	0.619200	0.866223	0.831164
	C184	C	0.887129	0.161347	0.394212
	C185	C	0.123631	0.162540	0.624073
	C186	C	0.124615	0.807866	0.394757
	C187	C	0.887495	0.810932	0.625193
	C188	C	0.182700	0.372444	0.888165
	C189	C	0.180044	0.601623	0.130213
	C190	C	0.825938	0.371723	0.128682
	C191	C	0.826737	0.601473	0.889372
	C192	C	0.405564	0.081773	0.607818
	C193	C	0.605100	0.892035	0.607707
	C194	C	0.605392	0.082785	0.412558
	C195	C	0.408953	0.892090	0.411821
	C196	C	0.604172	0.390540	0.102917
	C197	C	0.603953	0.585631	0.914746
	C198	C	0.403472	0.587075	0.102961
	C199	C	0.404842	0.389395	0.913892
	C200	C	0.097694	0.584027	0.409372
	C201	C	0.911876	0.586374	0.610139
	C202	C	0.098437	0.386947	0.609534
	C203	C	0.910984	0.385164	0.408178
	C204	C	0.903966	0.581427	0.109005
	C205	C	0.103783	0.390957	0.106193
	C206	C	0.101596	0.581680	0.912689
	C207	C	0.904846	0.391302	0.910898
	C208	C	0.106438	0.887906	0.603630
	C209	C	0.105157	0.082475	0.414970
	C210	C	0.905273	0.084772	0.603833
	C211	C	0.905871	0.887303	0.415566
	C212	C	0.598985	0.087315	0.909047
	C213	C	0.411832	0.088886	0.111473
	C214	C	0.597485	0.888678	0.108534
	C215	C	0.412131	0.888943	0.909024
	Zn216	Zn	0.505590	-0.012361	0.757932
	Zn217	Zn	0.505707	-0.011289	0.261916
	Zn218	Zn	0.754199	0.487258	0.008711
	Zn219	Zn	0.252913	0.487223	0.008890
	Zn220	Zn	0.005487	0.736753	0.510068
	Zn221	Zn	0.005283	0.234407	0.508803
	Zn222	Zn	0.004712	0.486049	0.761881
	Zn223	Zn	0.004110	0.485312	0.257580
	Zn224	Zn	0.504109	0.736868	0.009169
	Zn225	Zn	0.504944	0.239198	0.009489
	Zn226	Zn	0.755395	-0.013596	0.509520
	Zn227	Zn	0.256716	-0.014155	0.508770
	N228	N	0.420955	0.949135	0.686061
	N229	N	0.589897	0.025319	0.685891
	N230	N	0.592186	0.951108	0.331507
	N231	N	0.422039	0.025229	0.334649
	N232	N	0.684178	0.400377	0.972244
	N233	N	0.684498	0.575963	0.044973
	N234	N	0.322077	0.576040	0.972645
	N235	N	0.324336	0.401174	0.044695
	N236	N	0.967318	0.664148	0.425062
	N237	N	0.042742	0.664552	0.595600
	N238	N	0.968230	0.307809	0.593945
	N239	N	0.042280	0.306773	0.423299
	N240	N	0.968310	0.399630	0.689549
	N241	N	0.041606	0.573277	0.691126
	N242	N	0.967351	0.571746	0.330411
	N243	N	0.040725	0.397685	0.327611
	N244	N	0.419159	0.665117	0.970928
	N245	N	0.587046	0.663628	0.047266
	N246	N	0.588638	0.311398	0.970876
	N247	N	0.420545	0.312587	0.046481
	N248	N	0.684114	0.949910	0.423594
	N249	N	0.684512	0.023783	0.596181
	N250	N	0.327261	0.949132	0.595023
	N251	N	0.326648	0.022679	0.422546
	N252	N	0.918576	0.448419	0.186252
	N253	N	0.087739	0.523632	0.185568
	N254	N	0.088276	0.448641	0.834105
	N255	N	0.918470	0.523536	0.832263
	N256	N	0.188053	0.896251	0.473518
	N257	N	0.185110	0.072118	0.545892
	N258	N	0.825472	0.073233	0.473153
	N259	N	0.825056	0.898617	0.545880
	N260	N	0.467533	0.165292	0.925724
	N261	N	0.542193	0.167924	0.095955
	N262	N	0.466697	0.810089	0.094681
	N263	N	0.542255	0.808852	0.924045
	N264	N	0.468530	0.902130	0.190134
	N265	N	0.542107	0.075834	0.190844
	N266	N	0.468644	0.074713	0.829127
	N267	N	0.542390	0.900567	0.829181
	N268	N	0.920993	0.162177	0.471537
	N269	N	0.089343	0.162112	0.546879
	N270	N	0.089845	0.808775	0.471736
	N271	N	0.921944	0.810488	0.548195
	N272	N	0.183316	0.450702	0.922267
	N273	N	0.182639	0.523399	0.096188
	N274	N	0.824061	0.450137	0.096017
	N275	N	0.825492	0.523504	0.923177
	O276	O	0.064281	-0.062981	0.052887
	H277	H	0.065945	-0.063784	0.059894
	H278	H	0.071860	-0.070189	0.050942
	O279	O	0.550891	0.471682	0.465491
	H280	H	0.557366	0.471116	0.465833
	H281	H	0.550118	0.477168	0.468209
	O282	O	0.457546	0.537362	0.453912
	H283	H	0.455858	0.539743	0.447463
	H284	H	0.460123	0.528391	0.457729
	O285	O	0.952995	-0.027113	1.003859
	H286	H	0.947862	-0.030352	0.993143
	H287	H	0.946583	-0.034421	1.021460
	O288	O	1.107136	-0.012159	0.025588
	H289	H	1.107785	-0.019754	0.025347
	H290	H	1.101235	-0.005047	0.022732
	O291	O	0.004688	0.954574	0.043344
	H292	H	-0.000537	0.953927	0.035570
	H293	H	0.010856	0.942949	0.036527
	O294	O	1.612813	0.486921	1.406087
	H295	H	1.610872	0.484841	1.405633
	H296	H	1.620051	0.481834	1.386575
	O297	O	-0.122589	-0.010666	-0.048958
	H298	H	-0.131078	-0.007923	-0.047713
	H299	H	-0.124083	-0.008273	-0.060456
	O300	O	-0.098429	0.949956	0.019147
	H301	H	-0.092809	0.945534	0.013294
	H302	H	-0.102568	0.943901	0.020198
	O303	O	0.459545	0.527652	0.495736
	H304	H	0.456298	0.523792	0.501196
	H305	H	0.465667	0.532260	0.498808
	O306	O	1.056360	-0.034901	-0.110650
	H307	H	1.047080	-0.041244	-0.115436
	H308	H	1.065996	-0.034979	-0.107228
	O309	O	0.095722	0.027173	1.029313
	H310	H	0.102917	0.036195	1.042724
	H311	H	0.111140	0.040973	1.021397
	O312	O	1.010598	0.915080	1.091247
	H313	H	1.011148	0.906714	1.095699
	H314	H	1.025754	0.920862	1.091161
	O315	O	0.508672	0.522448	0.500653
	H316	H	0.494853	0.526783	0.492499
	H317	H	0.503842	0.527988	0.503685
	O318	O	0.540639	0.491606	0.415832
	H319	H	0.542364	0.488761	0.416410
	H320	H	0.544717	0.488557	0.416565
	O321	O	0.055216	0.946660	1.005373
	H322	H	0.035030	0.945052	1.015439
	H323	H	0.060860	0.945839	1.005477
	O324	O	0.531595	0.462637	0.492307
	H325	H	0.541273	0.458729	0.486654
	H326	H	0.541270	0.465581	0.491349
	O327	O	0.937408	0.976971	0.059313
	H328	H	0.933299	0.972414	0.068742
	H329	H	0.938810	0.977551	0.048013
	O330	O	-0.042927	1.024590	0.030771
	H331	H	-0.034857	1.006229	0.043240
	H332	H	-0.043424	1.030837	0.024806
	O333	O	-0.056877	1.022934	1.035866
	H334	H	-0.070267	1.018593	1.030712
	H335	H	-0.040294	1.020186	1.032410
	O336	O	0.570095	0.504682	0.479721
	H337	H	0.572924	0.499266	0.485150
	H338	H	0.567151	0.514955	0.478294
	O339	O	1.039070	1.036671	-0.069238
	H340	H	1.030568	1.032187	-0.071474
	H341	H	1.035669	1.039387	-0.059003
	O342	O	1.062505	0.957944	0.011697
	H343	H	1.067423	0.962800	0.011407
	H344	H	1.059512	0.954293	-0.004622
	O345	O	0.463286	0.513506	0.395445
	H346	H	0.457377	0.512470	0.393683
	H347	H	0.455562	0.506741	0.396375
	O348	O	0.344243	-0.272496	-0.262914
	H349	H	0.353392	-0.272312	-0.261971
	H350	H	0.337718	-0.261240	-0.260022
	O351	O	0.007415	1.008489	1.019903
	H352	H	-0.006176	1.016452	1.016871
	H353	H	0.015037	1.008349	1.013368
	O354	O	0.476868	0.481799	0.504619
	H355	H	0.470583	0.493415	0.504177
	H356	H	0.475215	0.472371	0.502367
	O357	O	0.030199	0.918238	0.978699
	H358	H	0.034031	0.919789	0.976398
	H359	H	0.029871	0.911666	0.993956
