data_Molecule from HDF5

_cell_length_a		16.303422
_cell_length_b		16.326877
_cell_length_c		16.326854
_cell_angle_alpha	90.070166
_cell_angle_beta	89.980045
_cell_angle_gamma	90.061026
_symmetry_space_group_name_H-M	'P 1'
_symmetry_Int_Tables_number		1

loop_
	_symmetry_equiv_pos_as_xyz
	x,y,z

loop_
	_atom_site_label
	_atom_site_type_symbol
	_atom_site_fract_x
	_atom_site_fract_y
	_atom_site_fract_z
	H0	H	0.401198	0.836768	0.714873
	H1	H	0.598387	0.162894	0.714663
	H2	H	0.597326	0.836317	0.286191
	H3	H	0.402505	0.162912	0.285469
	H4	H	0.713076	0.402312	0.836731
	H5	H	0.714362	0.598711	0.163531
	H6	H	0.287220	0.596785	0.836430
	H7	H	0.285465	0.402174	0.163821
	H8	H	0.836661	0.714986	0.401767
	H9	H	0.163797	0.714669	0.597496
	H10	H	0.836184	0.285025	0.598433
	H11	H	0.163622	0.286110	0.402158
	H12	H	0.835866	0.401905	0.714120
	H13	H	0.163240	0.597691	0.714334
	H14	H	0.836215	0.598131	0.285597
	H15	H	0.163491	0.402015	0.285767
	H16	H	0.402583	0.713707	0.836316
	H17	H	0.598443	0.715447	0.162762
	H18	H	0.597864	0.284759	0.837204
	H19	H	0.402278	0.285499	0.163283
	H20	H	0.713262	0.836663	0.402117
	H21	H	0.713678	0.163380	0.597045
	H22	H	0.285880	0.836585	0.597534
	H23	H	0.286580	0.164114	0.402844
	H24	H	0.901242	0.336771	0.215158
	H25	H	0.097831	0.662713	0.214646
	H26	H	0.097842	0.336890	0.785209
	H27	H	0.901947	0.663328	0.786030
	H28	H	0.214449	0.902385	0.336108
	H29	H	0.214624	0.097643	0.663552
	H30	H	0.786287	0.097580	0.336471
	H31	H	0.786454	0.903085	0.663295
	H32	H	0.336554	0.213314	0.902123
	H33	H	0.664083	0.213696	0.097252
	H34	H	0.336241	0.786313	0.097093
	H35	H	0.663161	0.785557	0.901710
	H36	H	0.336693	0.901963	0.214428
	H37	H	0.664006	0.097801	0.214242
	H38	H	0.337270	0.097794	0.785041
	H39	H	0.663899	0.901989	0.785760
	H40	H	0.902124	0.214451	0.336789
	H41	H	0.098486	0.214842	0.663580
	H42	H	0.099247	0.784810	0.336597
	H43	H	0.902383	0.786121	0.662672
	H44	H	0.213503	0.336227	0.902698
	H45	H	0.214121	0.663418	0.098203
	H46	H	0.785293	0.336584	0.097880
	H47	H	0.786519	0.662821	0.902527
	H48	H	0.398916	0.117131	0.589733
	H49	H	0.602762	0.879447	0.598018
	H50	H	0.598193	0.117078	0.409373
	H51	H	0.405750	0.882502	0.403131
	H52	H	0.601046	0.409985	0.118314
	H53	H	0.585481	0.599252	0.883875
	H54	H	0.398665	0.589089	0.117505
	H55	H	0.411768	0.405361	0.884985
	H56	H	0.117514	0.599154	0.407118
	H57	H	0.879753	0.595495	0.606127
	H58	H	0.115046	0.408465	0.592868
	H59	H	0.883134	0.398737	0.411682
	H60	H	0.117033	0.406784	0.594775
	H61	H	0.882310	0.603940	0.584522
	H62	H	0.113818	0.589830	0.411678
	H63	H	0.886885	0.413552	0.410960
	H64	H	0.414064	0.590834	0.112637
	H65	H	0.603173	0.595994	0.880616
	H66	H	0.587149	0.411562	0.113370
	H67	H	0.402955	0.401380	0.881007
	H68	H	0.592865	0.118167	0.401683
	H69	H	0.584575	0.884191	0.599024
	H70	H	0.408159	0.118738	0.601973
	H71	H	0.410549	0.885532	0.407850
	H72	H	0.911550	0.615581	0.095161
	H73	H	0.102896	0.381411	0.090650
	H74	H	0.088152	0.612579	0.914705
	H75	H	0.905042	0.382605	0.907216
	H76	H	0.087024	0.903136	0.615549
	H77	H	0.097974	0.089285	0.383873
	H78	H	0.906120	0.092065	0.615857
	H79	H	0.904643	0.913776	0.384565
	H80	H	0.616338	0.098250	0.913562
	H81	H	0.382640	0.089337	0.101534
	H82	H	0.616606	0.906854	0.092727
	H83	H	0.385133	0.909271	0.908742
	H84	H	0.616362	0.907257	0.093254
	H85	H	0.381901	0.101126	0.091656
	H86	H	0.614675	0.085720	0.906786
	H87	H	0.382833	0.907145	0.902584
	H88	H	0.908304	0.092535	0.615239
	H89	H	0.088330	0.091843	0.385807
	H90	H	0.099540	0.903805	0.618187
	H91	H	0.913028	0.904729	0.385086
	H92	H	0.104088	0.618448	0.907533
	H93	H	0.090158	0.381745	0.103437
	H94	H	0.906136	0.614354	0.088503
	H95	H	0.906359	0.382991	0.904853
	H96	H	0.413622	0.112430	0.589187
	H97	H	0.594103	0.886167	0.582901
	H98	H	0.589287	0.114471	0.409276
	H99	H	0.403708	0.883961	0.409797
	H100	H	0.591484	0.398152	0.118464
	H101	H	0.591795	0.583151	0.887800
	H102	H	0.406236	0.603349	0.119521
	H103	H	0.403743	0.411465	0.884971
	H104	H	0.116971	0.590058	0.401598
	H105	H	0.888251	0.581985	0.589215
	H106	H	0.115828	0.405795	0.592188
	H107	H	0.881078	0.406534	0.398569
	H108	H	0.903198	0.616776	0.095736
	H109	H	0.086381	0.387518	0.086578
	H110	H	0.088717	0.618177	0.897514
	H111	H	0.907365	0.384173	0.906479
	H112	H	0.093399	0.914182	0.614109
	H113	H	0.094678	0.098693	0.382573
	H114	H	0.906706	0.094182	0.616457
	H115	H	0.901995	0.902251	0.380453
	H116	H	0.619928	0.096955	0.899696
	H117	H	0.387258	0.087436	0.086444
	H118	H	0.616650	0.906441	0.093311
	H119	H	0.383219	0.902737	0.908012
	C120	C	0.378749	0.008001	0.621340
	C121	C	0.621707	0.991548	0.621583
	C122	C	0.621559	0.008261	0.378488
	C123	C	0.378411	0.991844	0.378541
	C124	C	0.621018	0.378509	0.008626
	C125	C	0.621707	0.621671	0.991998
	C126	C	0.378431	0.621951	0.008387
	C127	C	0.378162	0.378176	0.991971
	C128	C	0.008162	0.621696	0.378579
	C129	C	0.991551	0.621882	0.621436
	C130	C	0.007591	0.378891	0.621332
	C131	C	0.991874	0.378070	0.378540
	C132	C	0.878250	0.507981	0.121715
	C133	C	0.121320	0.491469	0.121570
	C134	C	0.121489	0.508241	0.878437
	C135	C	0.878032	0.491350	0.878300
	C136	C	0.121822	0.878651	0.507925
	C137	C	0.121528	0.121621	0.491977
	C138	C	0.878549	0.121550	0.508058
	C139	C	0.878299	0.878710	0.491294
	C140	C	0.508462	0.121372	0.878709
	C141	C	0.492103	0.121538	0.121466
	C142	C	0.508356	0.878419	0.121303
	C143	C	0.491822	0.878072	0.878252
	C144	C	0.381093	0.885262	0.676445
	C145	C	0.618819	0.114468	0.676372
	C146	C	0.618506	0.885252	0.323796
	C147	C	0.381322	0.114566	0.323248
	C148	C	0.675498	0.381496	0.885510
	C149	C	0.676578	0.619154	0.114752
	C150	C	0.324238	0.618359	0.885103
	C151	C	0.323699	0.381338	0.114807
	C152	C	0.885137	0.676729	0.381341
	C153	C	0.115041	0.676482	0.618180
	C154	C	0.884774	0.323376	0.618967
	C155	C	0.114786	0.323715	0.381401
	C156	C	0.884607	0.381540	0.676213
	C157	C	0.114653	0.618705	0.676215
	C158	C	0.884998	0.618820	0.323730
	C159	C	0.114923	0.381448	0.323812
	C160	C	0.381738	0.676225	0.885442
	C161	C	0.619350	0.677509	0.114319
	C162	C	0.618188	0.323416	0.885595
	C163	C	0.381284	0.323241	0.114830
	C164	C	0.675744	0.885222	0.381692
	C165	C	0.676425	0.114403	0.618426
	C166	C	0.323699	0.885139	0.618137
	C167	C	0.323873	0.114943	0.381611
	C168	C	0.880633	0.385329	0.177148
	C169	C	0.118460	0.614420	0.176544
	C170	C	0.118296	0.385276	0.823563
	C171	C	0.881297	0.614169	0.823709
	C172	C	0.176396	0.881562	0.384697
	C173	C	0.176474	0.118737	0.614997
	C174	C	0.823656	0.118656	0.385322
	C175	C	0.824313	0.882368	0.614571
	C176	C	0.385384	0.175858	0.881522
	C177	C	0.615306	0.176237	0.118436
	C178	C	0.385220	0.823758	0.118176
	C179	C	0.614691	0.823297	0.881174
	C180	C	0.385335	0.880963	0.176467
	C181	C	0.615206	0.118484	0.176166
	C182	C	0.385619	0.118269	0.823540
	C183	C	0.615037	0.881218	0.823820
	C184	C	0.881266	0.176625	0.385560
	C185	C	0.119133	0.176909	0.614872
	C186	C	0.119346	0.823218	0.384907
	C187	C	0.881895	0.824500	0.614346
	C188	C	0.176029	0.385220	0.881600
	C189	C	0.176036	0.614596	0.118805
	C190	C	0.823392	0.385091	0.118689
	C191	C	0.823881	0.614253	0.881529
	C192	C	0.400466	0.093895	0.599941
	C193	C	0.600083	0.905520	0.599900
	C194	C	0.599810	0.094358	0.400288
	C195	C	0.400264	0.906050	0.400514
	C196	C	0.599526	0.400059	0.094466
	C197	C	0.599787	0.599323	0.906170
	C198	C	0.399827	0.600604	0.094479
	C199	C	0.399911	0.399684	0.905988
	C200	C	0.093950	0.599586	0.400281
	C201	C	0.905818	0.600169	0.599607
	C202	C	0.093699	0.400693	0.599483
	C203	C	0.905857	0.399849	0.400519
	C204	C	0.900504	0.593533	0.099695
	C205	C	0.099656	0.405846	0.099727
	C206	C	0.099939	0.594075	0.900196
	C207	C	0.899773	0.405393	0.899908
	C208	C	0.099889	0.900431	0.593629
	C209	C	0.100008	0.099949	0.406100
	C210	C	0.900520	0.099542	0.593718
	C211	C	0.900086	0.900333	0.405499
	C212	C	0.594720	0.099903	0.900211
	C213	C	0.406274	0.099275	0.099609
	C214	C	0.594296	0.900501	0.099618
	C215	C	0.405866	0.899934	0.899899
	Zn216	Zn	0.500303	-0.000253	0.750269
	Zn217	Zn	0.500055	-0.000319	0.249903
	Zn218	Zn	0.749847	0.499813	-0.000173
	Zn219	Zn	0.249966	0.500293	0.000086
	Zn220	Zn	0.000315	0.750158	0.499659
	Zn221	Zn	0.000194	0.250184	0.500215
	Zn222	Zn	-0.000351	0.500223	0.749870
	Zn223	Zn	-0.000164	0.499874	0.250322
	Zn224	Zn	0.500065	0.750304	-0.000036
	Zn225	Zn	0.499944	0.249917	0.000213
	Zn226	Zn	0.749899	-0.000015	0.499689
	Zn227	Zn	0.249907	0.000359	0.499873
	N228	N	0.414626	0.962656	0.678707
	N229	N	0.585562	0.036922	0.678640
	N230	N	0.585426	0.962839	0.321801
	N231	N	0.414602	0.037148	0.321418
	N232	N	0.677247	0.415209	0.962711
	N233	N	0.678176	0.585163	0.037479
	N234	N	0.321942	0.585329	0.962737
	N235	N	0.321866	0.414805	0.037472
	N236	N	0.962656	0.678522	0.414692
	N237	N	0.037437	0.678750	0.585001
	N238	N	0.962378	0.321704	0.585464
	N239	N	0.037269	0.321457	0.414668
	N240	N	0.962004	0.415234	0.677760
	N241	N	0.037101	0.585487	0.678284
	N242	N	0.962429	0.585292	0.321831
	N243	N	0.037307	0.414625	0.322018
	N244	N	0.414723	0.678582	0.963035
	N245	N	0.585898	0.678972	0.037013
	N246	N	0.584835	0.321685	0.963133
	N247	N	0.414487	0.321195	0.037286
	N248	N	0.677730	0.962720	0.414875
	N249	N	0.678026	0.037098	0.584970
	N250	N	0.321986	0.962590	0.584872
	N251	N	0.321829	0.037536	0.415062
	N252	N	0.914247	0.462705	0.178962
	N253	N	0.085216	0.536931	0.178581
	N254	N	0.085335	0.462760	0.821382
	N255	N	0.914485	0.536768	0.821865
	N256	N	0.178004	0.915163	0.462031
	N257	N	0.178059	0.085034	0.537667
	N258	N	0.821792	0.085180	0.462599
	N259	N	0.821992	0.915219	0.536946
	N260	N	0.462783	0.177637	0.915310
	N261	N	0.537893	0.178025	0.085006
	N262	N	0.462599	0.822441	0.084498
	N263	N	0.537147	0.821623	0.914376
	N264	N	0.462901	0.914391	0.178436
	N265	N	0.537547	0.085067	0.178215
	N266	N	0.463189	0.085159	0.821907
	N267	N	0.537619	0.914838	0.821993
	N268	N	0.914896	0.178285	0.462762
	N269	N	0.085419	0.178465	0.537459
	N270	N	0.085859	0.821402	0.462529
	N271	N	0.914828	0.822154	0.536809
	N272	N	0.177992	0.462660	0.915202
	N273	N	0.177867	0.537189	0.085346
	N274	N	0.821783	0.462408	0.085166
	N275	N	0.821974	0.536839	0.915042
