data_Molecule from HDF5

_cell_length_a		16.120757
_cell_length_b		16.389049
_cell_length_c		16.272205
_cell_angle_alpha	90.118177
_cell_angle_beta	90.390827
_cell_angle_gamma	90.086778
_symmetry_space_group_name_H-M	'P 1'
_symmetry_Int_Tables_number		1

loop_
	_symmetry_equiv_pos_as_xyz
	x,y,z

loop_
	_atom_site_label
	_atom_site_type_symbol
	_atom_site_fract_x
	_atom_site_fract_y
	_atom_site_fract_z
	H0	H	0.390192	0.839111	0.717758
	H1	H	0.590971	0.163259	0.719992
	H2	H	0.590233	0.838828	0.286754
	H3	H	0.387408	0.162774	0.283922
	H4	H	0.702095	0.405346	0.836979
	H5	H	0.706588	0.600397	0.165242
	H6	H	0.277548	0.596976	0.837224
	H7	H	0.277681	0.405225	0.166172
	H8	H	0.827124	0.717055	0.399121
	H9	H	0.155140	0.716695	0.602783
	H10	H	0.826010	0.287045	0.600049
	H11	H	0.155004	0.284478	0.401158
	H12	H	0.825886	0.402860	0.713683
	H13	H	0.156037	0.599002	0.715527
	H14	H	0.826445	0.599754	0.285945
	H15	H	0.156617	0.403219	0.289371
	H16	H	0.388014	0.718110	0.839681
	H17	H	0.593691	0.718926	0.164545
	H18	H	0.591275	0.284016	0.839181
	H19	H	0.389284	0.284642	0.164721
	H20	H	0.703201	0.837589	0.405990
	H21	H	0.706909	0.163339	0.604269
	H22	H	0.276274	0.837805	0.599141
	H23	H	0.273401	0.163995	0.403136
	H24	H	0.891756	0.338777	0.215759
	H25	H	0.094387	0.662696	0.219617
	H26	H	0.089513	0.339422	0.785579
	H27	H	0.888196	0.663714	0.783493
	H28	H	0.202466	0.903897	0.338795
	H29	H	0.203859	0.098358	0.666588
	H30	H	0.774886	0.096186	0.338240
	H31	H	0.778480	0.904398	0.668161
	H32	H	0.325964	0.216016	0.900509
	H33	H	0.654197	0.219357	0.106010
	H34	H	0.326033	0.785568	0.101382
	H35	H	0.654921	0.786002	0.902253
	H36	H	0.325442	0.902188	0.215195
	H37	H	0.654987	0.101555	0.219060
	H38	H	0.325549	0.099084	0.788293
	H39	H	0.655780	0.903767	0.789642
	H40	H	0.884655	0.218833	0.340017
	H41	H	0.092650	0.218062	0.665080
	H42	H	0.090502	0.785417	0.339385
	H43	H	0.888693	0.782649	0.665057
	H44	H	0.203028	0.338070	0.904588
	H45	H	0.205450	0.664596	0.099984
	H46	H	0.776460	0.338566	0.098124
	H47	H	0.775199	0.664872	0.902657
	H48	H	0.402286	0.115135	0.594135
	H49	H	0.580977	0.884224	0.602241
	H50	H	0.585997	0.119052	0.405644
	H51	H	0.395390	0.887730	0.414272
	H52	H	0.589986	0.408439	0.120512
	H53	H	0.588532	0.601477	0.880235
	H54	H	0.403862	0.589376	0.115085
	H55	H	0.397907	0.403627	0.884372
	H56	H	0.108530	0.592039	0.410756
	H57	H	0.876421	0.592328	0.584649
	H58	H	0.111341	0.403509	0.598272
	H59	H	0.876533	0.410398	0.416674
	H60	H	0.107623	0.406539	0.587778
	H61	H	0.874275	0.586787	0.596408
	H62	H	0.109425	0.596126	0.407918
	H63	H	0.874389	0.415847	0.404168
	H64	H	0.402671	0.603539	0.120189
	H65	H	0.582720	0.584480	0.888403
	H66	H	0.580766	0.416176	0.116022
	H67	H	0.394264	0.410085	0.885270
	H68	H	0.574899	0.114855	0.408769
	H69	H	0.579764	0.887839	0.592607
	H70	H	0.391563	0.118244	0.594243
	H71	H	0.392830	0.883940	0.404742
	H72	H	0.907842	0.615762	0.098346
	H73	H	0.089316	0.382863	0.100486
	H74	H	0.084165	0.617368	0.910563
	H75	H	0.889385	0.384819	0.909717
	H76	H	0.082799	0.910938	0.618405
	H77	H	0.076706	0.091009	0.387465
	H78	H	0.887237	0.094661	0.622382
	H79	H	0.888790	0.912936	0.386385
	H80	H	0.606976	0.090779	0.910331
	H81	H	0.372859	0.091959	0.095163
	H82	H	0.606207	0.914901	0.095973
	H83	H	0.372391	0.909066	0.910161
	H84	H	0.609852	0.906462	0.098176
	H85	H	0.373143	0.096436	0.092940
	H86	H	0.609376	0.096401	0.909855
	H87	H	0.373524	0.908525	0.909491
	H88	H	0.905931	0.084819	0.613659
	H89	H	0.079106	0.097370	0.385855
	H90	H	0.078751	0.905025	0.618205
	H91	H	0.905050	0.910672	0.389773
	H92	H	0.085230	0.618457	0.905192
	H93	H	0.076917	0.386503	0.098380
	H94	H	0.898443	0.614711	0.085394
	H95	H	0.899658	0.384284	0.898975
	H96	H	0.397192	0.119007	0.603485
	H97	H	0.588671	0.883781	0.594999
	H98	H	0.584099	0.114333	0.416925
	H99	H	0.401855	0.887420	0.406311
	H100	H	0.577494	0.403820	0.117872
	H101	H	0.570367	0.599511	0.887598
	H102	H	0.390971	0.593133	0.121266
	H103	H	0.402100	0.408515	0.886876
	H104	H	0.108840	0.596667	0.412834
	H105	H	0.870122	0.599704	0.593564
	H106	H	0.107390	0.414237	0.597024
	H107	H	0.871381	0.401697	0.406163
	H108	H	0.892889	0.620324	0.099168
	H109	H	0.085628	0.386552	0.089162
	H110	H	0.080095	0.616748	0.906712
	H111	H	0.903784	0.390040	0.912424
	H112	H	0.085458	0.905102	0.620509
	H113	H	0.083569	0.091873	0.384826
	H114	H	0.906678	0.106309	0.619496
	H115	H	0.896049	0.897908	0.383898
	H116	H	0.607425	0.095117	0.915636
	H117	H	0.375149	0.093080	0.090823
	H118	H	0.606303	0.908349	0.090269
	H119	H	0.372727	0.907740	0.909586
	C120	C	0.368325	0.009550	0.624753
	C121	C	0.612243	0.992742	0.625683
	C122	C	0.610954	0.008694	0.381698
	C123	C	0.367112	0.993277	0.379518
	C124	C	0.611570	0.380118	0.010129
	C125	C	0.611704	0.623958	0.993260
	C126	C	0.369241	0.623038	0.010648
	C127	C	0.368836	0.379440	0.993444
	C128	C	0.000133	0.623347	0.380200
	C129	C	0.982108	0.622158	0.621932
	C130	C	-0.000286	0.379812	0.622605
	C131	C	0.982517	0.379705	0.380107
	C132	C	0.870285	0.509482	0.122455
	C133	C	0.113343	0.492955	0.124295
	C134	C	0.111771	0.509763	0.879650
	C135	C	0.867594	0.493619	0.877913
	C136	C	0.111411	0.878938	0.511224
	C137	C	0.110521	0.122706	0.493991
	C138	C	0.868585	0.123269	0.510714
	C139	C	0.868088	0.878571	0.494567
	C140	C	0.499025	0.122275	0.882065
	C141	C	0.482063	0.123352	0.123642
	C142	C	0.498783	0.880392	0.122893
	C143	C	0.481978	0.879810	0.880985
	C144	C	0.370083	0.887556	0.679742
	C145	C	0.610957	0.114891	0.681830
	C146	C	0.609721	0.887044	0.325494
	C147	C	0.368224	0.114757	0.323255
	C148	C	0.665413	0.383606	0.886305
	C149	C	0.669011	0.621449	0.116118
	C150	C	0.314181	0.618866	0.886762
	C151	C	0.314481	0.383224	0.116919
	C152	C	0.875983	0.678509	0.380331
	C153	C	0.105920	0.678636	0.622140
	C154	C	0.875261	0.324973	0.619882
	C155	C	0.105934	0.322851	0.381572
	C156	C	0.875322	0.382156	0.676952
	C157	C	0.106409	0.620038	0.678073
	C158	C	0.875832	0.620462	0.323914
	C159	C	0.106777	0.382066	0.326098
	C160	C	0.369439	0.678783	0.887805
	C161	C	0.612458	0.680067	0.116015
	C162	C	0.610505	0.323370	0.887645
	C163	C	0.369987	0.323337	0.116178
	C164	C	0.666105	0.886486	0.384871
	C165	C	0.668635	0.114857	0.624287
	C166	C	0.313607	0.886817	0.620468
	C167	C	0.311457	0.115403	0.382575
	C168	C	0.871590	0.387427	0.177728
	C169	C	0.112960	0.614687	0.180667
	C170	C	0.109522	0.387614	0.824238
	C171	C	0.868663	0.615340	0.821768
	C172	C	0.165449	0.882762	0.387751
	C173	C	0.166338	0.119507	0.617374
	C174	C	0.811832	0.118706	0.387662
	C175	C	0.815040	0.882686	0.618475
	C176	C	0.375055	0.177686	0.881992
	C177	C	0.605371	0.180304	0.124507
	C178	C	0.374838	0.824210	0.120842
	C179	C	0.605644	0.824169	0.882764
	C180	C	0.374711	0.881947	0.177632
	C181	C	0.605602	0.121847	0.180938
	C182	C	0.374903	0.119514	0.826128
	C183	C	0.606229	0.882731	0.826633
	C184	C	0.867017	0.179139	0.388311
	C185	C	0.111195	0.179204	0.616461
	C186	C	0.109517	0.824080	0.387968
	C187	C	0.869657	0.822077	0.616875
	C188	C	0.166052	0.387165	0.883407
	C189	C	0.168509	0.615583	0.121192
	C190	C	0.814282	0.387188	0.118939
	C191	C	0.812230	0.615987	0.880899
	C192	C	0.390616	0.095232	0.603600
	C193	C	0.589760	0.907447	0.603247
	C194	C	0.588308	0.094039	0.403914
	C195	C	0.389910	0.908238	0.401923
	C196	C	0.589288	0.402643	0.095919
	C197	C	0.587716	0.601787	0.907642
	C198	C	0.392505	0.601802	0.096478
	C199	C	0.391317	0.401224	0.907806
	C200	C	0.086432	0.601424	0.403672
	C201	C	0.896011	0.599511	0.598536
	C202	C	0.086263	0.401759	0.600944
	C203	C	0.896431	0.402503	0.402426
	C204	C	0.892970	0.594793	0.100612
	C205	C	0.090742	0.407474	0.102333
	C206	C	0.089655	0.595433	0.901050
	C207	C	0.890628	0.408545	0.900502
	C208	C	0.088927	0.900665	0.596950
	C209	C	0.086810	0.099970	0.408080
	C210	C	0.892908	0.101634	0.596478
	C211	C	0.890132	0.900486	0.408850
	C212	C	0.585646	0.100436	0.905226
	C213	C	0.395877	0.100428	0.099952
	C214	C	0.585038	0.903134	0.101017
	C215	C	0.395199	0.901937	0.903234
	Zn216	Zn	0.490600	0.001758	0.753913
	Zn217	Zn	0.490112	0.000945	0.251132
	Zn218	Zn	0.739965	0.501820	0.000899
	Zn219	Zn	0.240995	0.501638	0.001877
	Zn220	Zn	-0.009473	0.750562	0.501791
	Zn221	Zn	-0.009519	0.252020	0.501707
	Zn222	Zn	-0.009746	0.501583	0.750059
	Zn223	Zn	-0.008246	0.501354	0.252865
	Zn224	Zn	0.490106	0.752057	0.002608
	Zn225	Zn	0.490425	0.250662	0.002034
	Zn226	Zn	0.740344	0.001100	0.503855
	Zn227	Zn	0.238831	0.001212	0.502403
	N228	N	0.403425	0.964875	0.682539
	N229	N	0.576682	0.037996	0.682776
	N230	N	0.576255	0.964109	0.323494
	N231	N	0.401972	0.037835	0.321100
	N232	N	0.666466	0.418175	0.963483
	N233	N	0.668876	0.587413	0.038755
	N234	N	0.313907	0.584954	0.963997
	N235	N	0.313596	0.417245	0.039698
	N236	N	0.954207	0.680347	0.414694
	N237	N	0.027528	0.680117	0.588083
	N238	N	0.953452	0.323303	0.586792
	N239	N	0.027477	0.321142	0.414466
	N240	N	0.953551	0.415637	0.678702
	N241	N	0.028472	0.585637	0.678105
	N242	N	0.953987	0.586991	0.323615
	N243	N	0.029115	0.416593	0.324911
	N244	N	0.402941	0.681661	0.965827
	N245	N	0.577678	0.681848	0.038639
	N246	N	0.577832	0.321273	0.965590
	N247	N	0.402976	0.320712	0.038434
	N248	N	0.666732	0.963184	0.419368
	N249	N	0.669698	0.037915	0.590236
	N250	N	0.312454	0.963633	0.586901
	N251	N	0.310570	0.038772	0.416710
	N252	N	0.905488	0.464486	0.180181
	N253	N	0.079155	0.537438	0.182679
	N254	N	0.076487	0.464941	0.821704
	N255	N	0.902293	0.538249	0.819608
	N256	N	0.166730	0.916230	0.465431
	N257	N	0.166057	0.085120	0.540182
	N258	N	0.812906	0.084473	0.464703
	N259	N	0.813821	0.917017	0.541428
	N260	N	0.453339	0.179389	0.916366
	N261	N	0.527424	0.181610	0.089947
	N262	N	0.453120	0.823123	0.087610
	N263	N	0.527384	0.822406	0.916079
	N264	N	0.452566	0.916067	0.179254
	N265	N	0.527858	0.087067	0.180645
	N266	N	0.452941	0.085792	0.825887
	N267	N	0.528201	0.916534	0.825383
	N268	N	0.901379	0.182208	0.465868
	N269	N	0.077031	0.181146	0.538579
	N270	N	0.076644	0.821566	0.465644
	N271	N	0.901972	0.819309	0.538749
	N272	N	0.167254	0.464101	0.917169
	N273	N	0.168921	0.538821	0.086943
	N274	N	0.813357	0.464075	0.085219
	N275	N	0.811544	0.539266	0.915031
	O276	O	0.010697	-0.017417	0.042195
	H277	H	0.011634	-0.016296	0.050731
	H278	H	0.006005	-0.013401	0.035634
	O279	O	0.498329	0.469821	0.493098
	H280	H	0.497130	0.477961	0.491854
	H281	H	0.494371	0.472096	0.486090
	O282	O	0.492104	0.564075	0.477204
	H283	H	0.493067	0.572201	0.475483
	H284	H	0.493518	0.556556	0.473133
	O285	O	-0.069842	1.062543	0.951587
	H286	H	-0.061394	1.070591	0.959908
	H287	H	-0.068848	1.058626	0.945534
	O288	O	0.526057	0.474991	0.472254
	H289	H	0.527344	0.479769	0.471567
	H290	H	0.534879	0.476186	0.466994
	O291	O	0.995198	0.993705	1.108009
	H292	H	0.991403	0.982119	1.112590
	H293	H	0.994010	1.001359	1.112008
	O294	O	1.005755	0.902639	0.987147
	H295	H	1.006523	0.901290	0.979152
	H296	H	1.003377	0.912283	0.983903
	O297	O	0.927068	-0.101584	1.076419
	H298	H	0.928420	-0.100698	1.072074
	H299	H	0.915763	-0.115583	1.083361
	O300	O	0.523911	0.416225	0.499994
	H301	H	0.526418	0.409134	0.493868
	H302	H	0.525655	0.404723	0.502874
	O303	O	0.966346	0.110738	-0.028024
	H304	H	0.956632	0.117798	-0.031424
	H305	H	0.972315	0.109341	-0.031072
	O306	O	-0.054690	0.949806	1.034965
	H307	H	-0.060934	0.955446	1.049359
	H308	H	-0.044515	0.953938	1.039696
	O309	O	0.494834	0.486582	0.569076
	H310	H	0.491044	0.503736	0.566697
	H311	H	0.494664	0.482769	0.581625
	O312	O	1.008302	-0.055142	0.963828
	H313	H	1.001006	-0.060122	0.960221
	H314	H	1.017423	-0.050015	0.966818
	O315	O	0.572533	0.452953	0.523886
	H316	H	0.573206	0.449742	0.524572
	H317	H	0.571309	0.449344	0.522978
	O318	O	0.547892	0.588933	0.465804
	H319	H	0.555663	0.580139	0.469264
	H320	H	0.547267	0.594615	0.461618
	O321	O	1.014752	1.082768	1.017776
	H322	H	1.013226	1.081640	1.010464
	H323	H	1.009996	1.076859	1.019275
	O324	O	0.500031	0.535353	0.419261
	H325	H	0.487220	0.538799	0.414831
	H326	H	0.501175	0.528089	0.410698
	O327	O	0.497178	0.531152	0.534142
	H328	H	0.499931	0.522926	0.523023
	H329	H	0.504313	0.527882	0.539397
	O330	O	1.032812	-0.015198	1.029456
	H331	H	1.036234	-0.018989	1.032224
	H332	H	1.038733	0.004047	1.030132
	O333	O	0.879351	1.054862	-0.048868
	H334	H	0.880682	1.047784	-0.050533
	H335	H	0.880513	1.060926	-0.052525
	O336	O	0.475780	0.586671	0.443477
	H337	H	0.486371	0.593152	0.446492
	H338	H	0.476304	0.581488	0.454086
	O339	O	0.472654	0.426495	0.508713
	H340	H	0.471737	0.427407	0.510974
	H341	H	0.469476	0.426313	0.517700
	O342	O	0.054066	1.011163	0.076128
	H343	H	0.062198	1.011728	0.072086
	H344	H	0.057544	1.003922	0.083943
	O345	O	-0.016963	0.040160	-0.061074
	H346	H	-0.017314	0.035302	-0.066539
	H347	H	-0.018398	0.036831	-0.070528
	O348	O	0.457248	0.518572	0.537947
	H349	H	0.458768	0.519202	0.547360
	H350	H	0.464931	0.516394	0.531788
	O351	O	0.538779	0.446836	0.438724
	H352	H	0.526085	0.442687	0.446987
	H353	H	0.550755	0.444528	0.434289
	O354	O	1.032871	1.109913	0.034259
	H355	H	1.044244	1.102939	0.038865
	H356	H	1.029115	1.105045	0.038349
	O357	O	-0.013499	-0.069382	0.971544
	H358	H	-0.011242	-0.072267	0.976804
	H359	H	-0.020923	-0.062715	0.969472
	O360	O	-0.005380	-0.030151	-0.030241
	H361	H	-0.002674	-0.033684	-0.028455
	H362	H	-0.013111	-0.018824	-0.038963
	O363	O	0.541645	0.513996	0.536451
	H364	H	0.535011	0.513438	0.538672
	H365	H	0.542754	0.526967	0.531333
	O366	O	0.005354	0.053627	1.049029
	H367	H	0.002286	0.049228	1.053355
	H368	H	0.006047	0.053203	1.053892
	O369	O	1.529772	0.535612	-0.533019
	H370	H	1.531998	0.540664	-0.527622
	H371	H	1.526003	0.542935	-0.534117
