data_Molecule from HDF5

_cell_length_a		16.276468
_cell_length_b		16.362408
_cell_length_c		16.264947
_cell_angle_alpha	90.105910
_cell_angle_beta	90.015315
_cell_angle_gamma	89.820842
_symmetry_space_group_name_H-M	'P 1'
_symmetry_Int_Tables_number		1

loop_
	_symmetry_equiv_pos_as_xyz
	x,y,z

loop_
	_atom_site_label
	_atom_site_type_symbol
	_atom_site_fract_x
	_atom_site_fract_y
	_atom_site_fract_z
	H0	H	0.399849	0.848548	0.717104
	H1	H	0.595895	0.174290	0.719592
	H2	H	0.596357	0.848984	0.286782
	H3	H	0.396936	0.174798	0.287348
	H4	H	0.710861	0.413562	0.839020
	H5	H	0.711288	0.611313	0.166213
	H6	H	0.281885	0.611049	0.839354
	H7	H	0.282196	0.415060	0.166425
	H8	H	0.834025	0.728065	0.402930
	H9	H	0.160661	0.726769	0.603187
	H10	H	0.833058	0.297174	0.602238
	H11	H	0.159588	0.295182	0.402682
	H12	H	0.832413	0.415353	0.716072
	H13	H	0.161365	0.608823	0.716937
	H14	H	0.832612	0.609338	0.289470
	H15	H	0.160304	0.412010	0.287407
	H16	H	0.396912	0.727632	0.839879
	H17	H	0.594599	0.725288	0.166726
	H18	H	0.597041	0.295245	0.839801
	H19	H	0.396918	0.297427	0.166068
	H20	H	0.712216	0.849138	0.403912
	H21	H	0.710763	0.174949	0.601982
	H22	H	0.283216	0.848109	0.601063
	H23	H	0.280202	0.174525	0.404135
	H24	H	0.898653	0.348224	0.216835
	H25	H	0.094461	0.674524	0.218238
	H26	H	0.095021	0.348566	0.788476
	H27	H	0.897219	0.674895	0.787385
	H28	H	0.210779	0.913794	0.338147
	H29	H	0.211131	0.110067	0.666853
	H30	H	0.781088	0.111455	0.339406
	H31	H	0.784375	0.915993	0.666841
	H32	H	0.333617	0.227560	0.903841
	H33	H	0.660176	0.228054	0.103064
	H34	H	0.333332	0.798001	0.101400
	H35	H	0.659652	0.795515	0.903568
	H36	H	0.332453	0.916206	0.215387
	H37	H	0.661119	0.108286	0.215661
	H38	H	0.333203	0.109762	0.790089
	H39	H	0.660894	0.912980	0.789613
	H40	H	0.896452	0.227090	0.339518
	H41	H	0.095636	0.226923	0.666221
	H42	H	0.097566	0.795464	0.339536
	H43	H	0.899212	0.797829	0.666855
	H44	H	0.212254	0.349507	0.903985
	H45	H	0.210725	0.674869	0.101569
	H46	H	0.782567	0.349017	0.099694
	H47	H	0.781398	0.675458	0.904951
	H48	H	0.411228	0.121742	0.585515
	H49	H	0.585208	0.898516	0.592124
	H50	H	0.586567	0.130261	0.398203
	H51	H	0.398881	0.893205	0.403846
	H52	H	0.588614	0.421008	0.118827
	H53	H	0.580098	0.605374	0.888211
	H54	H	0.410550	0.603512	0.116719
	H55	H	0.404522	0.412364	0.884182
	H56	H	0.111114	0.602574	0.415821
	H57	H	0.882011	0.607247	0.589797
	H58	H	0.116206	0.411525	0.600649
	H59	H	0.883327	0.420349	0.417883
	H60	H	0.110728	0.415927	0.585891
	H61	H	0.881666	0.601053	0.598016
	H62	H	0.112965	0.599379	0.407660
	H63	H	0.880871	0.424941	0.404869
	H64	H	0.402568	0.612270	0.121664
	H65	H	0.593027	0.611313	0.882978
	H66	H	0.588600	0.418956	0.118811
	H67	H	0.397748	0.421958	0.885559
	H68	H	0.580157	0.122631	0.417484
	H69	H	0.597482	0.895354	0.593400
	H70	H	0.389963	0.130585	0.594477
	H71	H	0.411858	0.897740	0.406818
	H72	H	0.897498	0.624679	0.083686
	H73	H	0.090436	0.395353	0.096950
	H74	H	0.086638	0.627036	0.910269
	H75	H	0.896044	0.396058	0.915809
	H76	H	0.081763	0.913024	0.617801
	H77	H	0.084342	0.104112	0.388364
	H78	H	0.894114	0.106547	0.622650
	H79	H	0.897553	0.909512	0.381414
	H80	H	0.618445	0.105675	0.896217
	H81	H	0.379036	0.103975	0.103597
	H82	H	0.613087	0.908582	0.084714
	H83	H	0.377981	0.919649	0.903360
	H84	H	0.608574	0.931348	0.092624
	H85	H	0.378283	0.114548	0.093822
	H86	H	0.614381	0.118007	0.920256
	H87	H	0.378768	0.912629	0.912340
	H88	H	0.907664	0.095369	0.614476
	H89	H	0.090922	0.107028	0.385192
	H90	H	0.098994	0.913912	0.623653
	H91	H	0.899977	0.929855	0.388474
	H92	H	0.091541	0.628268	0.911441
	H93	H	0.087312	0.396823	0.094358
	H94	H	0.894891	0.633223	0.106483
	H95	H	0.900723	0.392787	0.899432
	H96	H	0.409323	0.129035	0.609177
	H97	H	0.589911	0.894614	0.603010
	H98	H	0.600284	0.129843	0.414280
	H99	H	0.401973	0.897829	0.417276
	H100	H	0.590357	0.419791	0.118965
	H101	H	0.592717	0.597143	0.887377
	H102	H	0.398325	0.600112	0.119869
	H103	H	0.409764	0.422329	0.888377
	H104	H	0.114720	0.607763	0.409755
	H105	H	0.878204	0.610240	0.598447
	H106	H	0.111133	0.426539	0.598518
	H107	H	0.877991	0.411855	0.408736
	H108	H	0.916898	0.624802	0.098814
	H109	H	0.091119	0.396236	0.093182
	H110	H	0.090001	0.629312	0.906987
	H111	H	0.912259	0.399593	0.909778
	H112	H	0.090802	0.928420	0.615753
	H113	H	0.090614	0.099529	0.386891
	H114	H	0.911673	0.113284	0.619370
	H115	H	0.916672	0.916547	0.389262
	H116	H	0.607959	0.091432	0.917153
	H117	H	0.383102	0.101577	0.089749
	H118	H	0.617412	0.914974	0.107355
	H119	H	0.382476	0.923488	0.913338
	C120	C	0.375321	0.019560	0.624723
	C121	C	0.619216	1.003803	0.625267
	C122	C	0.618261	0.019864	0.381222
	C123	C	0.375220	1.003855	0.381043
	C124	C	0.618034	0.390677	0.011072
	C125	C	0.617640	0.633329	0.994233
	C126	C	0.374741	0.633977	0.011631
	C127	C	0.375284	0.390813	0.994171
	C128	C	0.004952	0.632677	0.381746
	C129	C	0.989030	0.633662	0.624279
	C130	C	0.004605	0.390172	0.623947
	C131	C	0.988559	0.389968	0.381255
	C132	C	0.874632	0.520146	0.124734
	C133	C	0.118124	0.503789	0.124279
	C134	C	0.118060	0.520250	0.881046
	C135	C	0.874349	0.503905	0.880398
	C136	C	0.119192	0.889848	0.510925
	C137	C	0.117853	0.132779	0.494927
	C138	C	0.874763	0.134028	0.511029
	C139	C	0.876157	0.890864	0.494607
	C140	C	0.505487	0.133252	0.882392
	C141	C	0.488351	0.134643	0.124605
	C142	C	0.504891	0.890815	0.123460
	C143	C	0.488495	0.890116	0.881731
	C144	C	0.378704	0.897185	0.679636
	C145	C	0.616469	0.125870	0.681220
	C146	C	0.616603	0.897661	0.325190
	C147	C	0.376696	0.126326	0.325463
	C148	C	0.673405	0.392635	0.888105
	C149	C	0.673102	0.631000	0.117464
	C150	C	0.319626	0.631738	0.888233
	C151	C	0.320077	0.393827	0.117390
	C152	C	0.882632	0.689264	0.383337
	C153	C	0.112061	0.688418	0.622717
	C154	C	0.881606	0.335494	0.622059
	C155	C	0.111082	0.333388	0.382461
	C156	C	0.881417	0.393955	0.678754
	C157	C	0.112263	0.629844	0.679339
	C158	C	0.881857	0.630512	0.326616
	C159	C	0.111446	0.391524	0.325326
	C160	C	0.376878	0.689425	0.888578
	C161	C	0.615404	0.688232	0.117558
	C162	C	0.616323	0.334497	0.888315
	C163	C	0.377352	0.335770	0.117367
	C164	C	0.674258	0.897723	0.383385
	C165	C	0.673488	0.126190	0.622654
	C166	C	0.320967	0.896850	0.621598
	C167	C	0.318814	0.126138	0.383362
	C168	C	0.877506	0.397207	0.179523
	C169	C	0.115352	0.626045	0.179952
	C170	C	0.115456	0.397396	0.826151
	C171	C	0.876935	0.626601	0.825766
	C172	C	0.173750	0.892521	0.387349
	C173	C	0.172739	0.130038	0.618023
	C174	C	0.819064	0.131657	0.388189
	C175	C	0.821654	0.894390	0.618078
	C176	C	0.382171	0.188761	0.884305
	C177	C	0.611469	0.189599	0.122661
	C178	C	0.381789	0.836047	0.121759
	C179	C	0.610993	0.833906	0.883396
	C180	C	0.381369	0.894813	0.178270
	C181	C	0.611975	0.130462	0.178892
	C182	C	0.382177	0.130676	0.827346
	C183	C	0.611551	0.892319	0.826782
	C184	C	0.876498	0.188874	0.388105
	C185	C	0.115897	0.188575	0.617632
	C186	C	0.117482	0.833944	0.388019
	C187	C	0.878969	0.836246	0.617992
	C188	C	0.173850	0.397913	0.883283
	C189	C	0.172922	0.626257	0.121995
	C190	C	0.820208	0.397447	0.121062
	C191	C	0.818926	0.626698	0.883730
	C192	C	0.396941	0.104948	0.602859
	C193	C	0.597241	0.918167	0.602669
	C194	C	0.595596	0.105438	0.403612
	C195	C	0.397614	0.918470	0.402899
	C196	C	0.595654	0.413223	0.096880
	C197	C	0.595110	0.610950	0.908371
	C198	C	0.397159	0.611692	0.097325
	C199	C	0.397425	0.412536	0.908172
	C200	C	0.090745	0.609906	0.404338
	C201	C	0.902887	0.612492	0.602005
	C202	C	0.090494	0.411677	0.601742
	C203	C	0.902847	0.412429	0.403918
	C204	C	0.896738	0.605438	0.102773
	C205	C	0.096075	0.418146	0.101585
	C206	C	0.095824	0.605990	0.903107
	C207	C	0.896301	0.418346	0.902030
	C208	C	0.097067	0.912183	0.596925
	C209	C	0.095127	0.110303	0.409028
	C210	C	0.897763	0.111650	0.596759
	C211	C	0.898134	0.912356	0.408592
	C212	C	0.591289	0.111357	0.904538
	C213	C	0.402430	0.113137	0.102299
	C214	C	0.590781	0.912080	0.101477
	C215	C	0.402187	0.912102	0.903468
	Zn216	Zn	0.497105	0.011592	0.753744
	Zn217	Zn	0.496988	0.012173	0.252108
	Zn218	Zn	0.745869	0.512353	0.002697
	Zn219	Zn	0.247063	0.512435	0.002495
	Zn220	Zn	-0.002362	0.761984	0.502978
	Zn221	Zn	-0.003734	0.261291	0.502418
	Zn222	Zn	-0.003005	0.512129	0.751955
	Zn223	Zn	-0.003271	0.511555	0.253315
	Zn224	Zn	0.496701	0.761398	0.003002
	Zn225	Zn	0.496963	0.262438	0.002894
	Zn226	Zn	0.747538	0.012191	0.502855
	Zn227	Zn	0.246685	0.011271	0.502633
	N228	N	0.411894	0.974407	0.681670
	N229	N	0.583333	0.048671	0.682826
	N230	N	0.582827	0.974735	0.323578
	N231	N	0.411272	0.049442	0.324060
	N232	N	0.674284	0.427059	0.965317
	N233	N	0.674603	0.597699	0.039647
	N234	N	0.318443	0.597681	0.965468
	N235	N	0.319087	0.427552	0.039925
	N236	N	0.960197	0.690423	0.417171
	N237	N	0.034473	0.690831	0.589197
	N238	N	0.959191	0.332940	0.588545
	N239	N	0.033608	0.332231	0.416461
	N240	N	0.958955	0.427341	0.679930
	N241	N	0.034797	0.596286	0.680149
	N242	N	0.958994	0.596105	0.325541
	N243	N	0.034349	0.426082	0.324653
	N244	N	0.410354	0.690975	0.966270
	N245	N	0.581631	0.689512	0.040030
	N246	N	0.582653	0.333172	0.965781
	N247	N	0.410829	0.333706	0.039741
	N248	N	0.675212	0.974752	0.417688
	N249	N	0.675251	0.049129	0.588638
	N250	N	0.318702	0.974049	0.588232
	N251	N	0.317791	0.049072	0.417018
	N252	N	0.910655	0.474475	0.181822
	N253	N	0.082052	0.548895	0.181398
	N254	N	0.081499	0.474731	0.824779
	N255	N	0.910579	0.549399	0.823459
	N256	N	0.174824	0.926635	0.464752
	N257	N	0.174161	0.096187	0.540576
	N258	N	0.817969	0.098275	0.465639
	N259	N	0.819876	0.927596	0.540413
	N260	N	0.459637	0.190668	0.917615
	N261	N	0.533624	0.192329	0.089754
	N262	N	0.459289	0.833667	0.088151
	N263	N	0.533398	0.832374	0.916794
	N264	N	0.458858	0.928168	0.179503
	N265	N	0.534554	0.097106	0.180163
	N266	N	0.459726	0.096654	0.826152
	N267	N	0.534419	0.926844	0.826064
	N268	N	0.910297	0.190641	0.465573
	N269	N	0.082124	0.190009	0.540014
	N270	N	0.084148	0.832347	0.465793
	N271	N	0.912178	0.834084	0.540157
	N272	N	0.175495	0.475148	0.916709
	N273	N	0.174897	0.548951	0.088300
	N274	N	0.818332	0.474706	0.087845
	N275	N	0.817345	0.549532	0.917040
	O276	O	-0.500916	-0.538214	1.472036
	H277	H	-0.506366	-0.542764	1.468021
	H278	H	-0.500924	-0.536681	1.470994
	O279	O	0.563068	0.446344	0.467827
	H280	H	0.564627	0.443634	0.469195
	H281	H	0.566467	0.439523	0.463435
	O282	O	0.491556	0.503171	0.466747
	H283	H	0.500050	0.510917	0.473171
	H284	H	0.493805	0.496899	0.461438
	O285	O	0.441064	0.509321	0.516682
	H286	H	0.432800	0.514489	0.509747
	H287	H	0.448626	0.504493	0.512809
	O288	O	0.535353	0.541201	0.488040
	H289	H	0.542031	0.535917	0.496049
	H290	H	0.539478	0.543488	0.479620
	O291	O	0.544196	0.508506	0.498156
	H292	H	0.534749	0.514024	0.495302
	H293	H	0.540763	0.502195	0.509713
	O294	O	0.512872	0.498150	0.482695
	H295	H	0.510825	0.497144	0.482346
	H296	H	0.505353	0.496200	0.483769
	O297	O	1.567675	-0.462714	-0.521096
	H298	H	1.563692	-0.457708	-0.517771
	H299	H	1.581887	-0.460422	-0.513128
