data_Molecule from HDF5

_cell_length_a		16.299834
_cell_length_b		16.343032
_cell_length_c		16.304310
_cell_angle_alpha	89.928314
_cell_angle_beta	90.002827
_cell_angle_gamma	89.937682
_symmetry_space_group_name_H-M	'P 1'
_symmetry_Int_Tables_number		1

loop_
	_symmetry_equiv_pos_as_xyz
	x,y,z

loop_
	_atom_site_label
	_atom_site_type_symbol
	_atom_site_fract_x
	_atom_site_fract_y
	_atom_site_fract_z
	H0	H	0.401804	0.837276	0.716232
	H1	H	0.597819	0.163599	0.714209
	H2	H	0.597205	0.836228	0.285800
	H3	H	0.401472	0.163397	0.285279
	H4	H	0.713643	0.402065	0.836433
	H5	H	0.714395	0.597658	0.163277
	H6	H	0.287245	0.597444	0.836128
	H7	H	0.285973	0.401889	0.163521
	H8	H	0.836608	0.715324	0.401527
	H9	H	0.163190	0.715121	0.598479
	H10	H	0.836440	0.286072	0.597605
	H11	H	0.163503	0.284664	0.401298
	H12	H	0.836219	0.403220	0.713127
	H13	H	0.163782	0.597287	0.712939
	H14	H	0.836114	0.597859	0.286580
	H15	H	0.163946	0.402679	0.285971
	H16	H	0.402630	0.714062	0.835897
	H17	H	0.598424	0.714076	0.163507
	H18	H	0.597453	0.286014	0.836072
	H19	H	0.403592	0.287362	0.164141
	H20	H	0.713958	0.836252	0.402391
	H21	H	0.713446	0.163440	0.596681
	H22	H	0.287465	0.836493	0.597751
	H23	H	0.286478	0.163603	0.402845
	H24	H	0.901623	0.337056	0.215336
	H25	H	0.097046	0.663484	0.213340
	H26	H	0.096540	0.336675	0.785883
	H27	H	0.902152	0.663718	0.785682
	H28	H	0.213404	0.903295	0.335929
	H29	H	0.213973	0.096889	0.663668
	H30	H	0.784734	0.098277	0.336451
	H31	H	0.786989	0.903750	0.664358
	H32	H	0.336577	0.214319	0.902944
	H33	H	0.663515	0.214614	0.099067
	H34	H	0.336051	0.785074	0.098853
	H35	H	0.663013	0.784135	0.901938
	H36	H	0.336704	0.901942	0.214460
	H37	H	0.664162	0.095552	0.212778
	H38	H	0.336416	0.096991	0.787319
	H39	H	0.663773	0.901148	0.786542
	H40	H	0.902391	0.213826	0.336356
	H41	H	0.099178	0.214415	0.663850
	H42	H	0.099124	0.785102	0.336858
	H43	H	0.902320	0.786201	0.663627
	H44	H	0.213623	0.336289	0.902653
	H45	H	0.214634	0.663401	0.097426
	H46	H	0.786211	0.336347	0.097125
	H47	H	0.784746	0.663239	0.901269
	H48	H	0.414429	0.115051	0.596630
	H49	H	0.595096	0.883145	0.595533
	H50	H	0.590663	0.113512	0.410286
	H51	H	0.407104	0.884927	0.407823
	H52	H	0.598979	0.406010	0.118334
	H53	H	0.588810	0.591103	0.885138
	H54	H	0.409238	0.592473	0.115492
	H55	H	0.409131	0.403571	0.883664
	H56	H	0.120053	0.592977	0.395170
	H57	H	0.884260	0.594375	0.592427
	H58	H	0.114548	0.409104	0.588953
	H59	H	0.882317	0.403444	0.403090
	H60	H	0.117871	0.408513	0.598030
	H61	H	0.882947	0.594025	0.594173
	H62	H	0.117053	0.603445	0.413863
	H63	H	0.884709	0.404386	0.412217
	H64	H	0.406619	0.596285	0.117361
	H65	H	0.592871	0.597544	0.883173
	H66	H	0.591379	0.411905	0.114888
	H67	H	0.402374	0.405274	0.881695
	H68	H	0.598613	0.117141	0.406137
	H69	H	0.591661	0.884688	0.594832
	H70	H	0.403878	0.114037	0.585439
	H71	H	0.405435	0.883382	0.406584
	H72	H	0.900863	0.616335	0.087521
	H73	H	0.092232	0.384472	0.093612
	H74	H	0.093364	0.618236	0.898588
	H75	H	0.907854	0.384427	0.904454
	H76	H	0.096303	0.910498	0.615398
	H77	H	0.080484	0.088188	0.388885
	H78	H	0.907372	0.090401	0.615030
	H79	H	0.907006	0.909850	0.385053
	H80	H	0.618751	0.094167	0.900721
	H81	H	0.382364	0.101289	0.090718
	H82	H	0.614566	0.908177	0.089850
	H83	H	0.385929	0.915075	0.905956
	H84	H	0.616907	0.906957	0.097146
	H85	H	0.386468	0.087976	0.088504
	H86	H	0.617216	0.099774	0.911450
	H87	H	0.380279	0.901752	0.900564
	H88	H	0.908986	0.097518	0.616861
	H89	H	0.094268	0.107129	0.379634
	H90	H	0.088890	0.906716	0.614429
	H91	H	0.908649	0.905196	0.383511
	H92	H	0.087657	0.613101	0.909577
	H93	H	0.093580	0.384300	0.091707
	H94	H	0.903725	0.618521	0.100915
	H95	H	0.906887	0.384861	0.907452
	H96	H	0.399992	0.119047	0.599762
	H97	H	0.594525	0.884152	0.592194
	H98	H	0.590232	0.116538	0.401281
	H99	H	0.407516	0.883741	0.405183
	H100	H	0.589872	0.401878	0.116007
	H101	H	0.596775	0.590457	0.883165
	H102	H	0.404098	0.591916	0.116125
	H103	H	0.407240	0.409956	0.884655
	H104	H	0.111329	0.582866	0.412123
	H105	H	0.882613	0.595995	0.593056
	H106	H	0.117305	0.400712	0.592588
	H107	H	0.884881	0.411885	0.406073
	H108	H	0.913631	0.613190	0.092076
	H109	H	0.094794	0.383618	0.093489
	H110	H	0.100842	0.617150	0.909342
	H111	H	0.904870	0.383676	0.905209
	H112	H	0.095401	0.903188	0.618265
	H113	H	0.104877	0.084421	0.382950
	H114	H	0.901512	0.094705	0.617897
	H115	H	0.904029	0.906822	0.382773
	H116	H	0.614237	0.087652	0.910200
	H117	H	0.381815	0.092419	0.101465
	H118	H	0.617454	0.901536	0.092511
	H119	H	0.384661	0.903158	0.915607
	C120	C	0.378273	0.008227	0.622340
	C121	C	0.621426	0.992061	0.621830
	C122	C	0.621397	0.007979	0.378154
	C123	C	0.378367	0.991874	0.378369
	C124	C	0.621634	0.378022	0.008576
	C125	C	0.621262	0.621245	0.991857
	C126	C	0.378716	0.621396	0.007838
	C127	C	0.378343	0.378234	0.991561
	C128	C	0.008117	0.621767	0.378361
	C129	C	0.991773	0.621720	0.620973
	C130	C	0.008006	0.378426	0.621343
	C131	C	0.991766	0.378193	0.378509
	C132	C	0.878020	0.507969	0.121521
	C133	C	0.121759	0.491822	0.121568
	C134	C	0.121844	0.508189	0.877989
	C135	C	0.878139	0.492158	0.877898
	C136	C	0.121942	0.878443	0.508039
	C137	C	0.121630	0.121332	0.492059
	C138	C	0.878179	0.121604	0.508157
	C139	C	0.878726	0.879420	0.492119
	C140	C	0.508622	0.121938	0.879099
	C141	C	0.491659	0.121414	0.121553
	C142	C	0.508105	0.877816	0.121316
	C143	C	0.491817	0.878208	0.878918
	C144	C	0.381845	0.885651	0.677408
	C145	C	0.617974	0.114933	0.676056
	C146	C	0.617898	0.884955	0.323791
	C147	C	0.381059	0.114612	0.323440
	C148	C	0.675909	0.381527	0.884961
	C149	C	0.676457	0.618390	0.114752
	C150	C	0.324614	0.618058	0.884778
	C151	C	0.323923	0.381461	0.114767
	C152	C	0.885227	0.677147	0.380987
	C153	C	0.114646	0.676973	0.618603
	C154	C	0.885118	0.323915	0.618280
	C155	C	0.114817	0.322633	0.380569
	C156	C	0.884861	0.382384	0.675444
	C157	C	0.114852	0.618686	0.675697
	C158	C	0.885003	0.618981	0.323733
	C159	C	0.115128	0.381438	0.323793
	C160	C	0.381847	0.676031	0.884840
	C161	C	0.619102	0.676346	0.114743
	C162	C	0.618532	0.323654	0.885126
	C163	C	0.381739	0.324138	0.115035
	C164	C	0.675900	0.884832	0.381690
	C165	C	0.675395	0.115108	0.617825
	C166	C	0.324532	0.885284	0.619018
	C167	C	0.323789	0.114824	0.381682
	C168	C	0.880843	0.385562	0.177126
	C169	C	0.118395	0.614816	0.175952
	C170	C	0.117932	0.385101	0.823656
	C171	C	0.881165	0.615007	0.823527
	C172	C	0.176444	0.882067	0.384865
	C173	C	0.176439	0.118066	0.614999
	C174	C	0.823395	0.118737	0.385053
	C175	C	0.824211	0.882503	0.615265
	C176	C	0.385218	0.176393	0.882171
	C177	C	0.615066	0.175922	0.119058
	C178	C	0.385012	0.823130	0.119110
	C179	C	0.614475	0.822523	0.881407
	C180	C	0.385074	0.881202	0.176347
	C181	C	0.615303	0.116932	0.175527
	C182	C	0.385271	0.118497	0.824610
	C183	C	0.614913	0.880963	0.824316
	C184	C	0.881306	0.176427	0.385072
	C185	C	0.118871	0.175914	0.615081
	C186	C	0.119390	0.823777	0.385228
	C187	C	0.881783	0.824431	0.615037
	C188	C	0.175995	0.385124	0.881241
	C189	C	0.176371	0.614702	0.118066
	C190	C	0.823597	0.385171	0.118573
	C191	C	0.823063	0.614772	0.881040
	C192	C	0.399741	0.094178	0.600364
	C193	C	0.600146	0.906095	0.600516
	C194	C	0.599679	0.093595	0.399590
	C195	C	0.400230	0.906078	0.400137
	C196	C	0.599830	0.399981	0.094117
	C197	C	0.599294	0.599472	0.906063
	C198	C	0.400462	0.600033	0.094230
	C199	C	0.400093	0.399782	0.905494
	C200	C	0.093977	0.599712	0.400471
	C201	C	0.905594	0.600897	0.599345
	C202	C	0.094363	0.400052	0.599652
	C203	C	0.906096	0.400060	0.400532
	C204	C	0.899740	0.593798	0.099848
	C205	C	0.099930	0.406020	0.099426
	C206	C	0.100236	0.594065	0.899464
	C207	C	0.900167	0.406400	0.899336
	C208	C	0.100016	0.900181	0.593886
	C209	C	0.099728	0.099685	0.406131
	C210	C	0.899536	0.100309	0.594357
	C211	C	0.900141	0.900879	0.406001
	C212	C	0.594573	0.100327	0.900940
	C213	C	0.405777	0.100189	0.099880
	C214	C	0.594012	0.899288	0.099525
	C215	C	0.405753	0.900244	0.901007
	Zn216	Zn	0.500362	0.000165	0.750719
	Zn217	Zn	0.499678	-0.000192	0.249453
	Zn218	Zn	0.749554	0.499919	-0.000255
	Zn219	Zn	0.250662	0.499811	-0.000218
	Zn220	Zn	0.000250	0.750200	0.499555
	Zn221	Zn	0.000442	0.249716	0.500470
	Zn222	Zn	0.000119	0.500464	0.749194
	Zn223	Zn	-0.000126	0.499967	0.250188
	Zn224	Zn	0.499739	0.749690	0.000312
	Zn225	Zn	0.499917	0.249920	0.000504
	Zn226	Zn	0.749544	0.000225	0.500063
	Zn227	Zn	0.250112	-0.000044	0.499945
	N228	N	0.414525	0.963131	0.679436
	N229	N	0.585159	0.037439	0.678527
	N230	N	0.584751	0.962365	0.321646
	N231	N	0.414049	0.037055	0.321037
	N232	N	0.677890	0.414889	0.962444
	N233	N	0.677843	0.584797	0.037350
	N234	N	0.322644	0.584877	0.962352
	N235	N	0.321700	0.414163	0.037003
	N236	N	0.962810	0.678909	0.414393
	N237	N	0.037103	0.678903	0.585230
	N238	N	0.962846	0.321678	0.585259
	N239	N	0.037262	0.320580	0.413946
	N240	N	0.962445	0.415429	0.677478
	N241	N	0.037588	0.585021	0.677064
	N242	N	0.962332	0.585200	0.322214
	N243	N	0.037918	0.415598	0.322559
	N244	N	0.414691	0.678258	0.962630
	N245	N	0.585416	0.678192	0.037492
	N246	N	0.585404	0.321356	0.962698
	N247	N	0.415169	0.322281	0.037463
	N248	N	0.678260	0.962285	0.414750
	N249	N	0.677513	0.037725	0.584741
	N250	N	0.322180	0.962605	0.585510
	N251	N	0.322383	0.037548	0.415196
	N252	N	0.914134	0.462984	0.178831
	N253	N	0.085447	0.537331	0.178381
	N254	N	0.085028	0.462738	0.821415
	N255	N	0.914626	0.537751	0.821319
	N256	N	0.178116	0.915410	0.462318
	N257	N	0.178146	0.084694	0.537580
	N258	N	0.821289	0.085575	0.462700
	N259	N	0.822285	0.915834	0.537798
	N260	N	0.462896	0.178681	0.915447
	N261	N	0.537320	0.178849	0.086328
	N262	N	0.462439	0.821054	0.085496
	N263	N	0.537012	0.820989	0.914720
	N264	N	0.462560	0.914460	0.178103
	N265	N	0.537672	0.083774	0.177216
	N266	N	0.462752	0.085225	0.822906
	N267	N	0.537469	0.914718	0.822572
	N268	N	0.914565	0.178407	0.462584
	N269	N	0.085692	0.177993	0.537490
	N270	N	0.086127	0.821637	0.462765
	N271	N	0.914998	0.822363	0.537513
	N272	N	0.178389	0.462490	0.914422
	N273	N	0.178555	0.537208	0.085029
	N274	N	0.821893	0.462137	0.084705
	N275	N	0.821166	0.537387	0.914326
