data_Molecule from HDF5

_cell_length_a		16.385722
_cell_length_b		16.258506
_cell_length_c		16.198862
_cell_angle_alpha	89.934768
_cell_angle_beta	89.772392
_cell_angle_gamma	90.066743
_symmetry_space_group_name_H-M	'P 1'
_symmetry_Int_Tables_number		1

loop_
	_symmetry_equiv_pos_as_xyz
	x,y,z

loop_
	_atom_site_label
	_atom_site_type_symbol
	_atom_site_fract_x
	_atom_site_fract_y
	_atom_site_fract_z
	H0	H	0.395006	0.833103	0.708147
	H1	H	0.590831	0.161301	0.703584
	H2	H	0.591686	0.832462	0.279937
	H3	H	0.398440	0.161756	0.278833
	H4	H	0.711776	0.397255	0.828687
	H5	H	0.711414	0.597634	0.155604
	H6	H	0.280991	0.598919	0.828398
	H7	H	0.279518	0.395508	0.155786
	H8	H	0.832714	0.710952	0.395497
	H9	H	0.158955	0.713547	0.590674
	H10	H	0.832949	0.281565	0.591724
	H11	H	0.158069	0.280892	0.391732
	H12	H	0.833119	0.398330	0.707340
	H13	H	0.159892	0.595508	0.706167
	H14	H	0.832806	0.595893	0.277916
	H15	H	0.159131	0.399634	0.277099
	H16	H	0.399733	0.711553	0.828216
	H17	H	0.594104	0.710734	0.157326
	H18	H	0.597014	0.282785	0.828429
	H19	H	0.397037	0.282258	0.156467
	H20	H	0.711142	0.833945	0.391488
	H21	H	0.710966	0.159925	0.592688
	H22	H	0.278004	0.833864	0.593097
	H23	H	0.279540	0.160089	0.392186
	H24	H	0.898922	0.333231	0.205623
	H25	H	0.093152	0.661695	0.203892
	H26	H	0.094949	0.332065	0.777532
	H27	H	0.900678	0.661172	0.779492
	H28	H	0.211270	0.896976	0.328572
	H29	H	0.209496	0.098530	0.655705
	H30	H	0.781388	0.096095	0.327775
	H31	H	0.779636	0.898755	0.656246
	H32	H	0.334201	0.214224	0.894421
	H33	H	0.659749	0.212503	0.090519
	H34	H	0.334017	0.780486	0.092327
	H35	H	0.659637	0.781379	0.891378
	H36	H	0.333227	0.897942	0.208117
	H37	H	0.659209	0.094676	0.205909
	H38	H	0.332553	0.096148	0.779161
	H39	H	0.658722	0.899010	0.775420
	H40	H	0.897888	0.209881	0.327303
	H41	H	0.090388	0.209200	0.657114
	H42	H	0.092398	0.784875	0.326914
	H43	H	0.895705	0.783462	0.657229
	H44	H	0.214539	0.333691	0.889727
	H45	H	0.212962	0.659312	0.092080
	H46	H	0.780982	0.333568	0.091693
	H47	H	0.781321	0.660178	0.891708
	H48	H	0.398950	0.111672	0.576929
	H49	H	0.582006	0.882698	0.580770
	H50	H	0.595401	0.113094	0.404838
	H51	H	0.392856	0.878120	0.401606
	H52	H	0.592906	0.401825	0.111487
	H53	H	0.585213	0.577509	0.880437
	H54	H	0.404859	0.588891	0.108116
	H55	H	0.401334	0.413490	0.876967
	H56	H	0.112166	0.591585	0.396431
	H57	H	0.886155	0.584205	0.573243
	H58	H	0.112269	0.399805	0.584433
	H59	H	0.882254	0.410835	0.400848
	H60	H	0.109839	0.403855	0.579862
	H61	H	0.880197	0.581236	0.599328
	H62	H	0.112148	0.593279	0.399415
	H63	H	0.878545	0.402298	0.393821
	H64	H	0.401362	0.591248	0.110509
	H65	H	0.582277	0.600419	0.873607
	H66	H	0.589826	0.409768	0.108904
	H67	H	0.413022	0.405384	0.878617
	H68	H	0.590870	0.117330	0.391317
	H69	H	0.592271	0.880396	0.580009
	H70	H	0.394097	0.116867	0.590437
	H71	H	0.406202	0.879192	0.393086
	H72	H	0.899244	0.612966	0.079339
	H73	H	0.080365	0.381806	0.087242
	H74	H	0.089768	0.615460	0.889766
	H75	H	0.905541	0.382128	0.904054
	H76	H	0.096093	0.909939	0.610780
	H77	H	0.088137	0.091203	0.374762
	H78	H	0.902126	0.089354	0.609190
	H79	H	0.905355	0.908026	0.377118
	H80	H	0.611083	0.091596	0.898496
	H81	H	0.381892	0.089716	0.083537
	H82	H	0.618190	0.894636	0.099346
	H83	H	0.382573	0.901125	0.906518
	H84	H	0.609522	0.895246	0.071168
	H85	H	0.381322	0.089376	0.086588
	H86	H	0.612089	0.088901	0.897078
	H87	H	0.382959	0.909392	0.900696
	H88	H	0.900357	0.091108	0.610078
	H89	H	0.090853	0.088547	0.374594
	H90	H	0.078094	0.912607	0.604744
	H91	H	0.902749	0.898122	0.373051
	H92	H	0.079617	0.607427	0.905177
	H93	H	0.090863	0.381811	0.075062
	H94	H	0.898392	0.617041	0.090139
	H95	H	0.899186	0.379441	0.902114
	H96	H	0.408638	0.111739	0.588416
	H97	H	0.587540	0.878295	0.589295
	H98	H	0.581726	0.111299	0.402082
	H99	H	0.405765	0.884389	0.408448
	H100	H	0.584211	0.402940	0.109334
	H101	H	0.602762	0.590654	0.870935
	H102	H	0.400566	0.586687	0.109343
	H103	H	0.401026	0.399927	0.872350
	H104	H	0.110643	0.589959	0.398553
	H105	H	0.876080	0.604975	0.587612
	H106	H	0.111058	0.406371	0.586463
	H107	H	0.880641	0.399469	0.405173
	H108	H	0.907929	0.612891	0.086148
	H109	H	0.095695	0.376617	0.089502
	H110	H	0.098591	0.613007	0.906591
	H111	H	0.904481	0.379587	0.896728
	H112	H	0.084092	0.895413	0.610465
	H113	H	0.087152	0.087645	0.375972
	H114	H	0.899583	0.088200	0.609376
	H115	H	0.895304	0.905220	0.373611
	H116	H	0.612734	0.091595	0.896268
	H117	H	0.380632	0.091806	0.084754
	H118	H	0.607798	0.919498	0.087443
	H119	H	0.379228	0.901116	0.896980
	C120	C	0.371940	0.005622	0.614851
	C121	C	0.615586	0.988549	0.612424
	C122	C	0.617279	0.005490	0.370765
	C123	C	0.374212	0.989054	0.371955
	C124	C	0.617955	0.376063	0.001277
	C125	C	0.617914	0.618496	0.983631
	C126	C	0.374294	0.618644	0.000916
	C127	C	0.375887	0.376522	0.984395
	C128	C	0.003896	0.619338	0.370535
	C129	C	0.988174	0.619259	0.614836
	C130	C	0.004021	0.374772	0.613790
	C131	C	0.987582	0.375110	0.370074
	C132	C	0.873625	0.506138	0.114151
	C133	C	0.117149	0.488361	0.112543
	C134	C	0.118629	0.504294	0.870493
	C135	C	0.875158	0.488644	0.871688
	C136	C	0.115959	0.876470	0.500489
	C137	C	0.116422	0.118300	0.483775
	C138	C	0.872942	0.118317	0.500697
	C139	C	0.872591	0.875694	0.483458
	C140	C	0.504288	0.119587	0.870231
	C141	C	0.488461	0.119186	0.113826
	C142	C	0.504560	0.874240	0.115117
	C143	C	0.489013	0.875328	0.870966
	C144	C	0.374372	0.882218	0.670534
	C145	C	0.612000	0.112192	0.666821
	C146	C	0.613627	0.881952	0.316583
	C147	C	0.377233	0.112380	0.316294
	C148	C	0.673930	0.377439	0.877676
	C149	C	0.673267	0.617155	0.106950
	C150	C	0.319325	0.617822	0.877506
	C151	C	0.318948	0.376903	0.107331
	C152	C	0.881426	0.673507	0.374370
	C153	C	0.110545	0.675196	0.611451
	C154	C	0.881546	0.319596	0.612042
	C155	C	0.109694	0.319508	0.371767
	C156	C	0.881899	0.377535	0.669959
	C157	C	0.111125	0.616514	0.668819
	C158	C	0.881386	0.616314	0.315888
	C159	C	0.110068	0.378582	0.314683
	C160	C	0.378382	0.673688	0.877179
	C161	C	0.615020	0.673447	0.107784
	C162	C	0.616689	0.320556	0.877588
	C163	C	0.377242	0.320226	0.107457
	C164	C	0.672935	0.882712	0.372061
	C165	C	0.671938	0.111335	0.612011
	C166	C	0.315988	0.882637	0.613603
	C167	C	0.318336	0.111775	0.372732
	C168	C	0.877378	0.382223	0.168472
	C169	C	0.114168	0.612219	0.167270
	C170	C	0.116204	0.381522	0.814488
	C171	C	0.878902	0.611933	0.816671
	C172	C	0.172179	0.877999	0.377103
	C173	C	0.171690	0.117969	0.606789
	C174	C	0.818965	0.116127	0.376873
	C175	C	0.817267	0.877615	0.607408
	C176	C	0.382529	0.175602	0.873573
	C177	C	0.611015	0.174417	0.111254
	C178	C	0.382607	0.818285	0.113239
	C179	C	0.611041	0.819853	0.871812
	C180	C	0.381999	0.876971	0.170362
	C181	C	0.610866	0.115810	0.168276
	C182	C	0.381601	0.116865	0.816331
	C183	C	0.610452	0.877898	0.813770
	C184	C	0.876883	0.172965	0.376670
	C185	C	0.112202	0.172676	0.607573
	C186	C	0.113144	0.822455	0.376245
	C187	C	0.875231	0.820710	0.607753
	C188	C	0.175430	0.382105	0.870543
	C189	C	0.173621	0.611245	0.111438
	C190	C	0.818980	0.382474	0.111819
	C191	C	0.819719	0.611548	0.872700
	C192	C	0.394117	0.091227	0.592049
	C193	C	0.593732	0.902639	0.589780
	C194	C	0.595752	0.091680	0.392897
	C195	C	0.395430	0.902941	0.394502
	C196	C	0.595552	0.398306	0.087647
	C197	C	0.596474	0.596178	0.897353
	C198	C	0.395967	0.595610	0.087172
	C199	C	0.398555	0.399580	0.898217
	C200	C	0.089528	0.597897	0.391855
	C201	C	0.903002	0.596781	0.593193
	C202	C	0.089183	0.396820	0.590415
	C203	C	0.902440	0.397496	0.393099
	C204	C	0.895415	0.592080	0.091812
	C205	C	0.095397	0.402581	0.090373
	C206	C	0.096069	0.589840	0.893905
	C207	C	0.896716	0.402470	0.894336
	C208	C	0.092979	0.899342	0.586428
	C209	C	0.094931	0.095836	0.397272
	C210	C	0.894273	0.095998	0.587210
	C211	C	0.894720	0.897435	0.397214
	C212	C	0.589915	0.097177	0.891164
	C213	C	0.403401	0.096767	0.091565
	C214	C	0.589986	0.896649	0.092564
	C215	C	0.403552	0.897297	0.894549
	Zn216	Zn	0.495350	-0.003100	0.741511
	Zn217	Zn	0.495526	-0.002765	0.242934
	Zn218	Zn	0.745629	0.496894	-0.007605
	Zn219	Zn	0.246806	0.496169	-0.007782
	Zn220	Zn	-0.004540	0.748560	0.492489
	Zn221	Zn	-0.004969	0.245517	0.492076
	Zn222	Zn	-0.003493	0.496289	0.742989
	Zn223	Zn	-0.004118	0.497603	0.241245
	Zn224	Zn	0.497027	0.745807	-0.007188
	Zn225	Zn	0.497460	0.248813	-0.007550
	Zn226	Zn	0.745052	-0.002830	0.492171
	Zn227	Zn	0.244115	-0.002891	0.492530
	N228	N	0.408367	0.959635	0.671544
	N229	N	0.577495	0.034956	0.667039
	N230	N	0.579723	0.959335	0.315550
	N231	N	0.411218	0.035016	0.315751
	N232	N	0.674857	0.411237	0.955596
	N233	N	0.675526	0.583916	0.028760
	N234	N	0.316708	0.584169	0.955496
	N235	N	0.318057	0.410987	0.029564
	N236	N	0.958450	0.675350	0.407753
	N237	N	0.033113	0.677088	0.578677
	N238	N	0.958511	0.317672	0.577862
	N239	N	0.032440	0.317032	0.405409
	N240	N	0.958934	0.411290	0.670793
	N241	N	0.034137	0.582466	0.671019
	N242	N	0.958670	0.583244	0.313369
	N243	N	0.033141	0.412338	0.313523
	N244	N	0.411608	0.674608	0.954977
	N245	N	0.581321	0.674170	0.030207
	N246	N	0.582408	0.319902	0.955246
	N247	N	0.411982	0.320073	0.029922
	N248	N	0.675132	0.960604	0.405186
	N249	N	0.674134	0.033590	0.578689
	N250	N	0.314086	0.960315	0.579907
	N251	N	0.316322	0.034140	0.406604
	N252	N	0.910773	0.459910	0.169781
	N253	N	0.079588	0.534985	0.167987
	N254	N	0.081637	0.458621	0.814444
	N255	N	0.912563	0.534484	0.815966
	N256	N	0.173742	0.911179	0.455296
	N257	N	0.174144	0.084565	0.528878
	N258	N	0.816535	0.082977	0.454984
	N259	N	0.815415	0.910994	0.529494
	N260	N	0.459802	0.177457	0.906213
	N261	N	0.533978	0.176624	0.077957
	N262	N	0.459868	0.816578	0.079677
	N263	N	0.534163	0.818022	0.906550
	N264	N	0.458842	0.910747	0.171781
	N265	N	0.533661	0.082273	0.170230
	N266	N	0.458527	0.082806	0.814062
	N267	N	0.533478	0.911547	0.813392
	N268	N	0.909719	0.174530	0.454770
	N269	N	0.078605	0.172984	0.529894
	N270	N	0.078993	0.821286	0.454035
	N271	N	0.908894	0.819199	0.529725
	N272	N	0.176991	0.459490	0.904694
	N273	N	0.175515	0.533467	0.078211
	N274	N	0.816345	0.460442	0.078907
	N275	N	0.817320	0.533666	0.906223
	O276	O	0.595305	0.509030	0.493217
	H277	H	0.597349	0.504176	0.501167
	H278	H	0.594425	0.515331	0.495006
	O279	O	0.520851	0.432959	0.451946
	H280	H	0.516022	0.427364	0.459100
	H281	H	0.522579	0.430500	0.442555
	O282	O	0.547920	0.520500	0.538152
	H283	H	0.553521	0.521564	0.531987
	H284	H	0.549290	0.510847	0.539878
	O285	O	0.049711	0.966342	0.908533
	H286	H	0.061470	0.964086	0.903568
	H287	H	0.048000	0.960589	0.915908
	O288	O	0.486363	0.571000	0.508779
	H289	H	0.479728	0.564054	0.510213
	H290	H	0.484810	0.571216	0.508935
	O291	O	0.018246	-0.050589	0.997775
	H292	H	0.010651	-0.060285	0.999660
	H293	H	0.024122	-0.052508	0.999864
	O294	O	0.417131	0.519832	0.526986
	H295	H	0.408668	0.524177	0.527447
	H296	H	0.406482	0.521299	0.530655
	O297	O	0.476384	0.524134	0.515088
	H298	H	0.469851	0.529592	0.518827
	H299	H	0.476063	0.519238	0.512557
	O300	O	1.063044	0.952403	0.963198
	H301	H	1.064892	0.951874	0.963559
	H302	H	1.067211	0.964994	0.963123
	O303	O	0.510207	0.493822	0.529183
	H304	H	0.512099	0.492483	0.518629
	H305	H	0.512436	0.487185	0.532805
	O306	O	1.085928	-0.058396	0.971418
	H307	H	1.080836	-0.062369	0.969889
	H308	H	1.084641	-0.050832	0.971268
	O309	O	0.533831	0.497550	0.500175
	H310	H	0.533845	0.509138	0.502713
	H311	H	0.529750	0.497179	0.500557
	O312	O	0.257028	0.755257	0.725925
	H313	H	0.254489	0.760524	0.724504
	H314	H	0.266014	0.747324	0.730438
	O315	O	1.024945	-0.137711	0.948302
	H316	H	1.039241	-0.129721	0.951250
	H317	H	1.022805	-0.141915	0.934450
	O318	O	0.016862	-0.041016	-0.028561
	H319	H	0.013486	-0.045953	-0.036563
	H320	H	0.019670	-0.043721	-0.029736
	O321	O	0.569501	0.456310	0.436588
	H322	H	0.567641	0.464452	0.432275
	H323	H	0.575530	0.453091	0.431946
	O324	O	0.431367	0.491324	0.500978
	H325	H	0.436130	0.486264	0.508548
	H326	H	0.441245	0.471021	0.506168
	O327	O	1.016046	0.949233	-0.057995
	H328	H	1.012025	0.937681	-0.063192
	H329	H	1.017145	0.938515	-0.067291
	O330	O	0.586198	0.473822	0.427080
	H331	H	0.585798	0.480602	0.424866
	H332	H	0.591414	0.472604	0.421070
	O333	O	0.491815	0.493271	0.563886
	H334	H	0.497892	0.491314	0.575744
	H335	H	0.498199	0.494033	0.556058
