data_Molecule from HDF5

_cell_length_a		16.115337
_cell_length_b		16.536344
_cell_length_c		16.275489
_cell_angle_alpha	90.060818
_cell_angle_beta	90.365842
_cell_angle_gamma	89.607832
_symmetry_space_group_name_H-M	'P 1'
_symmetry_Int_Tables_number		1

loop_
	_symmetry_equiv_pos_as_xyz
	x,y,z

loop_
	_atom_site_label
	_atom_site_type_symbol
	_atom_site_fract_x
	_atom_site_fract_y
	_atom_site_fract_z
	H0	H	0.401289	0.843832	0.718865
	H1	H	0.604835	0.163162	0.718471
	H2	H	0.608298	0.843496	0.280558
	H3	H	0.398023	0.162116	0.279514
	H4	H	0.716801	0.403365	0.835164
	H5	H	0.718070	0.597697	0.162817
	H6	H	0.287688	0.600412	0.834944
	H7	H	0.291352	0.405537	0.162646
	H8	H	0.840813	0.722264	0.393491
	H9	H	0.166610	0.720886	0.603448
	H10	H	0.840249	0.287840	0.599652
	H11	H	0.165270	0.283388	0.394856
	H12	H	0.839655	0.406150	0.710869
	H13	H	0.167542	0.601531	0.715319
	H14	H	0.839390	0.603341	0.282471
	H15	H	0.169199	0.403851	0.286024
	H16	H	0.396256	0.723611	0.837921
	H17	H	0.611407	0.722234	0.159049
	H18	H	0.607644	0.282142	0.837806
	H19	H	0.399627	0.282995	0.159600
	H20	H	0.721764	0.842528	0.400557
	H21	H	0.719114	0.164612	0.600639
	H22	H	0.287316	0.842786	0.598945
	H23	H	0.284602	0.162766	0.397387
	H24	H	0.904820	0.343206	0.217023
	H25	H	0.107854	0.662608	0.219253
	H26	H	0.107118	0.343482	0.779600
	H27	H	0.897656	0.662118	0.778703
	H28	H	0.219026	0.903209	0.335379
	H29	H	0.218889	0.101717	0.661912
	H30	H	0.786243	0.101821	0.335994
	H31	H	0.793300	0.907778	0.663500
	H32	H	0.341736	0.221924	0.893846
	H33	H	0.666538	0.219077	0.104048
	H34	H	0.341696	0.784734	0.101576
	H35	H	0.665232	0.781793	0.894339
	H36	H	0.339712	0.903844	0.212777
	H37	H	0.667714	0.100131	0.215181
	H38	H	0.339936	0.103433	0.783387
	H39	H	0.667876	0.902589	0.785135
	H40	H	0.896009	0.223851	0.337475
	H41	H	0.108444	0.223020	0.659493
	H42	H	0.109951	0.782269	0.337991
	H43	H	0.898794	0.783077	0.658519
	H44	H	0.221351	0.342449	0.898802
	H45	H	0.221259	0.663473	0.099845
	H46	H	0.790383	0.341021	0.097855
	H47	H	0.783380	0.662223	0.897290
	H48	H	0.412684	0.115518	0.587622
	H49	H	0.606759	0.886946	0.592272
	H50	H	0.596343	0.118614	0.404730
	H51	H	0.414635	0.887020	0.398467
	H52	H	0.592676	0.415183	0.112363
	H53	H	0.591244	0.591780	0.883891
	H54	H	0.418751	0.593679	0.111849
	H55	H	0.412444	0.408818	0.882572
	H56	H	0.119602	0.596799	0.416239
	H57	H	0.887861	0.599223	0.581444
	H58	H	0.124735	0.400769	0.590379
	H59	H	0.891744	0.419491	0.416295
	H60	H	0.116892	0.413789	0.578362
	H61	H	0.889703	0.589768	0.586069
	H62	H	0.118788	0.587917	0.408451
	H63	H	0.883932	0.418053	0.395184
	H64	H	0.414959	0.599569	0.114964
	H65	H	0.590044	0.594828	0.883627
	H66	H	0.591208	0.402261	0.115468
	H67	H	0.414036	0.411033	0.883856
	H68	H	0.588810	0.115153	0.405628
	H69	H	0.592734	0.888386	0.601271
	H70	H	0.408273	0.118743	0.592362
	H71	H	0.418732	0.891825	0.410604
	H72	H	0.912361	0.616778	0.092277
	H73	H	0.104471	0.386307	0.094387
	H74	H	0.091504	0.615600	0.908343
	H75	H	0.924110	0.390993	0.900153
	H76	H	0.095541	0.908172	0.615549
	H77	H	0.093519	0.096741	0.381330
	H78	H	0.912717	0.090502	0.612286
	H79	H	0.913134	0.907549	0.381120
	H80	H	0.623620	0.093636	0.902949
	H81	H	0.387710	0.095472	0.086651
	H82	H	0.622250	0.916618	0.101333
	H83	H	0.384986	0.906720	0.908534
	H84	H	0.624081	0.897461	0.087808
	H85	H	0.387182	0.093440	0.089011
	H86	H	0.621899	0.100118	0.913188
	H87	H	0.389814	0.914773	0.914750
	H88	H	0.922291	0.103721	0.613654
	H89	H	0.091459	0.091734	0.384031
	H90	H	0.095874	0.915455	0.613094
	H91	H	0.909239	0.914435	0.383513
	H92	H	0.094847	0.616489	0.908587
	H93	H	0.090949	0.390294	0.097219
	H94	H	0.912722	0.615243	0.088155
	H95	H	0.907211	0.390201	0.915394
	H96	H	0.414914	0.115844	0.594290
	H97	H	0.592703	0.893023	0.585684
	H98	H	0.594354	0.115838	0.412480
	H99	H	0.405803	0.887601	0.408988
	H100	H	0.603430	0.408301	0.117620
	H101	H	0.592986	0.594255	0.882839
	H102	H	0.411436	0.593121	0.114405
	H103	H	0.415190	0.408742	0.882722
	H104	H	0.123201	0.598181	0.404676
	H105	H	0.885053	0.597544	0.591808
	H106	H	0.121045	0.417686	0.596985
	H107	H	0.883368	0.400733	0.408374
	H108	H	0.909158	0.616655	0.089891
	H109	H	0.096169	0.392079	0.083925
	H110	H	0.093038	0.616716	0.905272
	H111	H	0.903870	0.383328	0.893932
	H112	H	0.089348	0.911158	0.611677
	H113	H	0.087931	0.096300	0.383724
	H114	H	0.906071	0.103745	0.618636
	H115	H	0.917667	0.913549	0.384756
	H116	H	0.618183	0.088768	0.913338
	H117	H	0.385910	0.095953	0.088703
	H118	H	0.615346	0.917476	0.078305
	H119	H	0.386673	0.916657	0.903795
	C120	C	0.381849	0.011088	0.620984
	C121	C	0.626699	0.995025	0.623147
	C122	C	0.625126	0.011266	0.377817
	C123	C	0.381146	0.994338	0.376050
	C124	C	0.625186	0.379630	0.007671
	C125	C	0.624173	0.623321	0.990210
	C126	C	0.382658	0.624907	0.006782
	C127	C	0.383290	0.380480	0.990286
	C128	C	0.012336	0.624868	0.377757
	C129	C	0.995194	0.624974	0.618697
	C130	C	0.012559	0.382667	0.618166
	C131	C	0.994817	0.382579	0.376992
	C132	C	0.882778	0.510540	0.120028
	C133	C	0.127141	0.494970	0.121980
	C134	C	0.124615	0.510891	0.877126
	C135	C	0.880494	0.494094	0.874329
	C136	C	0.124682	0.881314	0.506664
	C137	C	0.123381	0.124811	0.490153
	C138	C	0.881328	0.127467	0.507533
	C139	C	0.883481	0.882747	0.490304
	C140	C	0.512919	0.124018	0.878695
	C141	C	0.494910	0.123796	0.119987
	C142	C	0.512776	0.881063	0.119553
	C143	C	0.494689	0.881764	0.878287
	C144	C	0.382291	0.891333	0.679131
	C145	C	0.625085	0.115378	0.680171
	C146	C	0.626390	0.891037	0.320238
	C147	C	0.379753	0.114336	0.318554
	C148	C	0.680090	0.382380	0.884561
	C149	C	0.681637	0.620201	0.112911
	C150	C	0.325236	0.621943	0.884369
	C151	C	0.327827	0.383762	0.113188
	C152	C	0.889613	0.683076	0.375526
	C153	C	0.117875	0.681857	0.621410
	C154	C	0.889077	0.326924	0.617900
	C155	C	0.117060	0.323399	0.376366
	C156	C	0.888738	0.385348	0.673649
	C157	C	0.118388	0.622480	0.677003
	C158	C	0.889000	0.623851	0.320088
	C159	C	0.119025	0.383668	0.322462
	C160	C	0.379584	0.682918	0.885673
	C161	C	0.628063	0.681702	0.111343
	C162	C	0.625311	0.322417	0.885732
	C163	C	0.382164	0.323208	0.111800
	C164	C	0.682879	0.890733	0.380118
	C165	C	0.681840	0.116055	0.621188
	C166	C	0.325406	0.890823	0.619465
	C167	C	0.322855	0.114559	0.376976
	C168	C	0.884801	0.390516	0.177541
	C169	C	0.126906	0.614850	0.179683
	C170	C	0.125354	0.391029	0.819177
	C171	C	0.879287	0.614257	0.817736
	C172	C	0.181691	0.882677	0.384476
	C173	C	0.181122	0.122671	0.612643
	C174	C	0.823934	0.123839	0.384906
	C175	C	0.829247	0.885991	0.613783
	C176	C	0.390201	0.182038	0.876736
	C177	C	0.617716	0.180197	0.121937
	C178	C	0.390242	0.823815	0.120375
	C179	C	0.617217	0.822324	0.876577
	C180	C	0.389153	0.883252	0.175476
	C181	C	0.618424	0.121152	0.177468
	C182	C	0.389406	0.123260	0.821585
	C183	C	0.618263	0.882553	0.822345
	C184	C	0.878845	0.184260	0.385639
	C185	C	0.126187	0.183072	0.611404
	C186	C	0.127309	0.822415	0.385822
	C187	C	0.881925	0.823887	0.611323
	C188	C	0.182425	0.390445	0.878433
	C189	C	0.183419	0.615434	0.120333
	C190	C	0.827911	0.389477	0.118202
	C191	C	0.822413	0.614349	0.876881
	C192	C	0.405066	0.095043	0.598146
	C193	C	0.604052	0.911076	0.599940
	C194	C	0.600310	0.094939	0.400937
	C195	C	0.405853	0.910576	0.399226
	C196	C	0.602280	0.401850	0.092969
	C197	C	0.598839	0.600264	0.905347
	C198	C	0.407749	0.602160	0.091973
	C199	C	0.406942	0.402999	0.905135
	C200	C	0.098399	0.601160	0.402699
	C201	C	0.909605	0.602191	0.593690
	C202	C	0.098556	0.404407	0.595352
	C203	C	0.908640	0.406011	0.399761
	C204	C	0.905000	0.594453	0.097037
	C205	C	0.103962	0.411413	0.098748
	C206	C	0.100123	0.594482	0.900722
	C207	C	0.904755	0.410016	0.896734
	C208	C	0.100452	0.904763	0.591390
	C209	C	0.098183	0.101640	0.405085
	C210	C	0.906227	0.105587	0.592792
	C211	C	0.906571	0.905312	0.405434
	C212	C	0.598960	0.100945	0.902961
	C213	C	0.409127	0.101548	0.095412
	C214	C	0.598362	0.903857	0.095902
	C215	C	0.409160	0.905589	0.902252
	Zn216	Zn	0.503923	0.003601	0.751266
	Zn217	Zn	0.503360	0.002472	0.247361
	Zn218	Zn	0.752305	0.501274	-0.001560
	Zn219	Zn	0.255289	0.502702	-0.000921
	Zn220	Zn	0.003741	0.753222	0.498288
	Zn221	Zn	0.003321	0.255023	0.497744
	Zn222	Zn	0.003329	0.503182	0.745818
	Zn223	Zn	0.004591	0.503592	0.250501
	Zn224	Zn	0.504225	0.753530	-0.001503
	Zn225	Zn	0.504060	0.251491	-0.000654
	Zn226	Zn	0.754862	0.003930	0.500260
	Zn227	Zn	0.252354	0.002994	0.498025
	N228	N	0.416665	0.967277	0.680175
	N229	N	0.591617	0.039151	0.681364
	N230	N	0.590811	0.967028	0.318872
	N231	N	0.415633	0.038544	0.317860
	N232	N	0.680184	0.417318	0.961299
	N233	N	0.679320	0.584519	0.036568
	N234	N	0.327291	0.586482	0.960705
	N235	N	0.328225	0.418692	0.036487
	N236	N	0.967595	0.683833	0.410472
	N237	N	0.040162	0.683516	0.586203
	N238	N	0.966947	0.325157	0.583955
	N239	N	0.038710	0.322746	0.409596
	N240	N	0.966345	0.419327	0.674016
	N241	N	0.040887	0.588135	0.675730
	N242	N	0.966548	0.588504	0.321394
	N243	N	0.041877	0.419526	0.322646
	N244	N	0.414849	0.684688	0.963022
	N245	N	0.593254	0.683986	0.034029
	N246	N	0.592195	0.320333	0.963350
	N247	N	0.415835	0.321039	0.034400
	N248	N	0.682046	0.966374	0.415194
	N249	N	0.682949	0.040318	0.586234
	N250	N	0.325084	0.966217	0.584061
	N251	N	0.323744	0.039030	0.412021
	N252	N	0.918017	0.466811	0.178893
	N253	N	0.092733	0.539065	0.180879
	N254	N	0.090037	0.467073	0.818130
	N255	N	0.914587	0.538514	0.815992
	N256	N	0.180304	0.918813	0.460547
	N257	N	0.179665	0.087116	0.535979
	N258	N	0.825208	0.089328	0.461663
	N259	N	0.830051	0.921954	0.537721
	N260	N	0.468129	0.182500	0.911762
	N261	N	0.539886	0.181995	0.087004
	N262	N	0.468274	0.822156	0.086606
	N263	N	0.539429	0.821787	0.910626
	N264	N	0.466408	0.917896	0.175514
	N265	N	0.541022	0.086914	0.176456
	N266	N	0.466701	0.087864	0.822644
	N267	N	0.541054	0.918642	0.822960
	N268	N	0.913776	0.186551	0.462932
	N269	N	0.091011	0.184410	0.534190
	N270	N	0.092736	0.821384	0.462892
	N271	N	0.914768	0.821598	0.533439
	N272	N	0.182360	0.465976	0.913512
	N273	N	0.183896	0.539827	0.085112
	N274	N	0.826510	0.465104	0.083100
	N275	N	0.822801	0.538436	0.911231
	O276	O	-0.080523	-0.092083	0.021035
	H277	H	-0.092053	-0.095217	0.025342
	H278	H	-0.064479	-0.072331	0.027739
	O279	O	-0.170550	0.143835	-0.014905
	H280	H	-0.178047	0.158467	-0.014049
	H281	H	-0.160480	0.147064	-0.030099
	O282	O	0.964333	0.113925	0.111295
	H283	H	0.976372	0.109918	0.100113
	H284	H	0.964665	0.100136	0.109060
	O285	O	-0.077054	1.036398	0.047030
	H286	H	-0.073915	1.021038	0.039599
	H287	H	-0.080434	1.035552	0.044343
	O288	O	0.453705	0.654259	0.631177
	H289	H	0.479323	0.668408	0.638752
	H290	H	0.468241	0.654013	0.624914
	O291	O	0.523093	0.555242	0.393038
	H292	H	0.519595	0.541476	0.389020
	H293	H	0.522832	0.542695	0.391754
	O294	O	1.025630	1.077271	1.076668
	H295	H	1.035042	1.074706	1.074644
	H296	H	1.037660	1.082942	1.073597
	O297	O	0.058534	0.114019	0.019267
	H298	H	0.059609	0.104277	0.018904
	H299	H	0.049631	0.114223	0.017811
	O300	O	0.469921	0.610578	0.337145
	H301	H	0.474180	0.614958	0.327053
	H302	H	0.472469	0.597223	0.341610
	O303	O	-0.642742	0.456683	1.633125
	H304	H	-0.648009	0.466050	1.626688
	H305	H	-0.645278	0.470235	1.636455
	O306	O	0.363919	0.429604	0.521735
	H307	H	0.357888	0.444328	0.526490
	H308	H	0.353425	0.428903	0.534535
	O309	O	1.139543	0.149323	0.051510
	H310	H	1.154108	0.157136	0.054524
	H311	H	1.138796	0.137493	0.051312
	O312	O	0.013341	-0.152380	0.833019
	H313	H	0.017675	-0.168359	0.828709
	H314	H	0.001472	-0.150590	0.832149
	O315	O	-0.137636	0.999442	0.951618
	H316	H	-0.121479	1.000151	0.960914
	H317	H	-0.141126	1.016526	0.943136
	O318	O	0.489398	0.462712	0.472050
	H319	H	0.501643	0.468731	0.486260
	H320	H	0.481820	0.458316	0.468024
	O321	O	0.564312	0.381678	0.512307
	H322	H	0.553828	0.379237	0.520578
	H323	H	0.555556	0.376710	0.500577
	O324	O	0.614030	0.482275	0.603663
	H325	H	0.624123	0.482177	0.611280
	H326	H	0.608191	0.470252	0.597351
	O327	O	-0.487695	1.354138	1.341106
	H328	H	-0.486793	1.355462	1.343669
	H329	H	-0.495141	1.352234	1.340209
	O330	O	0.449243	0.550004	0.434045
	H331	H	0.462985	0.553513	0.441074
	H332	H	0.459637	0.550603	0.417610
	O333	O	0.085237	0.856890	1.103748
	H334	H	0.080923	0.862319	1.123607
	H335	H	0.088370	0.859316	1.109802
	O336	O	0.887773	0.848962	0.829188
	H337	H	0.899684	0.862199	0.823788
	H338	H	0.889362	0.837406	0.849120
	O339	O	0.934342	0.917125	0.150318
	H340	H	0.924262	0.922767	0.149307
	H341	H	0.934924	0.902657	0.146384
	O342	O	0.982020	0.074184	-0.039629
	H343	H	0.998151	0.082704	-0.047357
	H344	H	0.984084	0.046012	-0.039575
	O345	O	0.650313	0.450000	0.408640
	H346	H	0.641849	0.432797	0.413679
	H347	H	0.659082	0.449590	0.411976
	O348	O	0.438020	0.543488	0.601338
	H349	H	0.436116	0.560557	0.595404
	H350	H	0.444220	0.545472	0.607073
	O351	O	0.977956	1.132392	0.108202
	H352	H	0.964752	1.143187	0.110077
	H353	H	0.966122	1.138744	0.114901
	O354	O	0.971346	0.134935	0.846490
	H355	H	0.973813	0.124067	0.856269
	H356	H	0.986466	0.145776	0.854210
	O357	O	0.529314	0.675362	0.427822
	H358	H	0.526508	0.685129	0.413376
	H359	H	0.525450	0.667893	0.414493
	O360	O	0.125604	-0.014477	-0.034521
	H361	H	0.124909	-0.008565	-0.031074
	H362	H	0.127416	-0.019475	-0.023668
	O363	O	0.479101	0.551595	0.533466
	H364	H	0.472308	0.554819	0.533142
	H365	H	0.476623	0.541340	0.546248
	O366	O	0.426357	0.651848	0.494420
	H367	H	0.458808	0.657497	0.484027
	H368	H	0.433527	0.637879	0.503981
	O369	O	0.937693	0.033493	-0.052880
	H370	H	0.941018	0.024433	-0.060190
	H371	H	0.939160	0.037673	-0.040805
	O372	O	0.499323	0.504974	0.633778
	H373	H	0.520233	0.500584	0.636791
	H374	H	0.501943	0.503072	0.639271
	O375	O	0.608907	0.561801	0.476265
	H376	H	0.624294	0.574699	0.487064
	H377	H	0.612747	0.561158	0.459527
	O378	O	0.615086	0.613295	0.542083
	H379	H	0.626441	0.615246	0.533685
	H380	H	0.613883	0.623007	0.534441
	O381	O	0.381260	0.385754	0.482418
	H382	H	0.372970	0.391061	0.491557
	H383	H	0.377370	0.391976	0.485081
	O384	O	0.188479	0.931709	0.074499
	H385	H	0.184019	0.932378	0.074349
	H386	H	0.202720	0.926396	0.092325
	O387	O	1.041673	-0.049217	1.088477
	H388	H	1.036978	-0.036867	1.084254
	H389	H	1.039074	-0.054233	1.079981
	O390	O	-0.022799	1.011616	-0.080345
	H391	H	-0.030667	1.009088	-0.096404
	H392	H	-0.009988	1.008906	-0.082528
	O393	O	0.992708	0.826971	0.109684
	H394	H	0.980180	0.828855	0.106803
	H395	H	0.989593	0.822573	0.110439
	O396	O	0.602434	0.374502	0.464234
	H397	H	0.591151	0.368680	0.459914
	H398	H	0.590988	0.357511	0.464119
	O399	O	0.166813	0.880392	0.871544
	H400	H	0.165324	0.875610	0.879487
	H401	H	0.155512	0.865310	0.857239
	O402	O	1.145475	0.909305	0.823843
	H403	H	1.145486	0.911943	0.819003
	H404	H	1.156477	0.901509	0.810163
	O405	O	0.504872	0.480100	0.450136
	H406	H	0.510521	0.472422	0.449714
	H407	H	0.503666	0.477524	0.447673
