data_Molecule from HDF5

_cell_length_a		16.270244
_cell_length_b		16.267658
_cell_length_c		16.354093
_cell_angle_alpha	90.122282
_cell_angle_beta	89.789622
_cell_angle_gamma	89.977521
_symmetry_space_group_name_H-M	'P 1'
_symmetry_Int_Tables_number		1

loop_
	_symmetry_equiv_pos_as_xyz
	x,y,z

loop_
	_atom_site_label
	_atom_site_type_symbol
	_atom_site_fract_x
	_atom_site_fract_y
	_atom_site_fract_z
	H0	H	0.402110	0.847239	0.710452
	H1	H	0.602019	0.173456	0.714216
	H2	H	0.602309	0.846821	0.281104
	H3	H	0.404997	0.174571	0.283018
	H4	H	0.719125	0.409239	0.834546
	H5	H	0.716004	0.609549	0.159701
	H6	H	0.287446	0.607493	0.833933
	H7	H	0.286749	0.413337	0.160393
	H8	H	0.838859	0.726555	0.400313
	H9	H	0.166475	0.725184	0.594981
	H10	H	0.838533	0.297513	0.596292
	H11	H	0.166662	0.299072	0.398588
	H12	H	0.838709	0.412430	0.712948
	H13	H	0.164644	0.611966	0.713370
	H14	H	0.837512	0.610487	0.284451
	H15	H	0.164705	0.412269	0.280124
	H16	H	0.402609	0.724257	0.833523
	H17	H	0.598541	0.725311	0.159603
	H18	H	0.600754	0.294669	0.833710
	H19	H	0.401915	0.295259	0.159721
	H20	H	0.719153	0.848244	0.396004
	H21	H	0.714214	0.175615	0.593951
	H22	H	0.288307	0.847309	0.594308
	H23	H	0.288970	0.175329	0.399105
	H24	H	0.902260	0.347475	0.211722
	H25	H	0.100527	0.674131	0.212044
	H26	H	0.102462	0.347968	0.780126
	H27	H	0.901686	0.673746	0.782930
	H28	H	0.216757	0.913547	0.333606
	H29	H	0.216799	0.111099	0.659798
	H30	H	0.788097	0.111856	0.333465
	H31	H	0.786470	0.913919	0.659312
	H32	H	0.337217	0.224463	0.898510
	H33	H	0.665093	0.225179	0.094579
	H34	H	0.337338	0.798480	0.093124
	H35	H	0.664995	0.794020	0.896928
	H36	H	0.338854	0.910671	0.212185
	H37	H	0.665565	0.109548	0.210649
	H38	H	0.337704	0.108776	0.781986
	H39	H	0.665613	0.911189	0.780670
	H40	H	0.905785	0.226524	0.333468
	H41	H	0.100030	0.226851	0.660143
	H42	H	0.101260	0.795587	0.334227
	H43	H	0.903975	0.798444	0.660891
	H44	H	0.216753	0.346626	0.897640
	H45	H	0.215640	0.674303	0.095045
	H46	H	0.788368	0.346288	0.094373
	H47	H	0.786987	0.673954	0.899053
	H48	H	0.420381	0.125998	0.593639
	H49	H	0.598431	0.894588	0.584124
	H50	H	0.598273	0.127612	0.404695
	H51	H	0.405179	0.891628	0.396928
	H52	H	0.601826	0.410741	0.116930
	H53	H	0.590276	0.598554	0.883451
	H54	H	0.409036	0.599885	0.110817
	H55	H	0.416402	0.419647	0.884756
	H56	H	0.119494	0.607044	0.402949
	H57	H	0.883359	0.604728	0.598521
	H58	H	0.121607	0.413009	0.590715
	H59	H	0.881181	0.408093	0.400321
	H60	H	0.115476	0.422018	0.582037
	H61	H	0.885157	0.611881	0.585745
	H62	H	0.117107	0.602520	0.406836
	H63	H	0.889112	0.419713	0.415999
	H64	H	0.411091	0.609563	0.113592
	H65	H	0.592712	0.607439	0.880440
	H66	H	0.596497	0.427853	0.110500
	H67	H	0.408145	0.408680	0.878070
	H68	H	0.595654	0.128696	0.399650
	H69	H	0.596283	0.892625	0.593497
	H70	H	0.407950	0.125058	0.579329
	H71	H	0.416925	0.896087	0.401680
	H72	H	0.912024	0.626453	0.090872
	H73	H	0.091200	0.394849	0.089004
	H74	H	0.094971	0.631936	0.889850
	H75	H	0.917173	0.396675	0.905405
	H76	H	0.101207	0.913978	0.616159
	H77	H	0.105760	0.106209	0.378050
	H78	H	0.909911	0.098582	0.610161
	H79	H	0.915322	0.921888	0.383994
	H80	H	0.616142	0.099792	0.906217
	H81	H	0.386658	0.095481	0.093238
	H82	H	0.618624	0.919961	0.091030
	H83	H	0.381766	0.913551	0.895614
	H84	H	0.619342	0.914852	0.089429
	H85	H	0.382038	0.107660	0.094955
	H86	H	0.617734	0.100513	0.901111
	H87	H	0.386029	0.913259	0.909293
	H88	H	0.913788	0.109777	0.613085
	H89	H	0.093653	0.096243	0.384752
	H90	H	0.097360	0.926202	0.611029
	H91	H	0.912677	0.912978	0.380432
	H92	H	0.080839	0.620960	0.910096
	H93	H	0.095049	0.394746	0.088686
	H94	H	0.905968	0.627062	0.087973
	H95	H	0.905693	0.394278	0.909776
	H96	H	0.402770	0.130926	0.596422
	H97	H	0.589532	0.896627	0.587656
	H98	H	0.592593	0.125733	0.403916
	H99	H	0.406466	0.895542	0.409206
	H100	H	0.583454	0.413390	0.110242
	H101	H	0.599804	0.599902	0.880207
	H102	H	0.401951	0.605646	0.115269
	H103	H	0.402570	0.422739	0.880758
	H104	H	0.118412	0.601265	0.400357
	H105	H	0.889450	0.597378	0.586863
	H106	H	0.117946	0.425723	0.594580
	H107	H	0.886250	0.428463	0.397058
	H108	H	0.907109	0.628574	0.094679
	H109	H	0.093553	0.393653	0.091430
	H110	H	0.106657	0.627860	0.913367
	H111	H	0.908042	0.391483	0.897665
	H112	H	0.088333	0.915825	0.612469
	H113	H	0.090129	0.112206	0.380678
	H114	H	0.902021	0.106387	0.613741
	H115	H	0.906544	0.920773	0.380655
	H116	H	0.617735	0.104467	0.903859
	H117	H	0.387171	0.104119	0.083145
	H118	H	0.617145	0.918189	0.086008
	H119	H	0.387293	0.925752	0.901484
	C120	C	0.381226	0.019267	0.618014
	C121	C	0.623063	1.002716	0.617628
	C122	C	0.624566	0.019359	0.374054
	C123	C	0.381179	1.002787	0.375164
	C124	C	0.623432	0.388246	0.005081
	C125	C	0.622774	0.631392	0.988699
	C126	C	0.378985	0.632759	0.005225
	C127	C	0.379744	0.388681	0.988778
	C128	C	0.010116	0.632789	0.375698
	C129	C	0.993821	0.633310	0.619138
	C130	C	0.010391	0.390977	0.618469
	C131	C	0.993613	0.389785	0.375409
	C132	C	0.879601	0.519301	0.119377
	C133	C	0.121957	0.502577	0.118096
	C134	C	0.123615	0.518863	0.875245
	C135	C	0.880527	0.501941	0.875908
	C136	C	0.124431	0.889883	0.505321
	C137	C	0.124596	0.133860	0.488823
	C138	C	0.880750	0.133672	0.504701
	C139	C	0.881579	0.890011	0.489095
	C140	C	0.509478	0.130732	0.875195
	C141	C	0.493172	0.131817	0.118478
	C142	C	0.510144	0.889317	0.117578
	C143	C	0.493351	0.888365	0.873908
	C144	C	0.382934	0.895869	0.672447
	C145	C	0.621366	0.125268	0.674680
	C146	C	0.622297	0.895928	0.319153
	C147	C	0.384262	0.126010	0.320785
	C148	C	0.679912	0.389751	0.882798
	C149	C	0.677856	0.629906	0.111098
	C150	C	0.325050	0.628536	0.882557
	C151	C	0.324261	0.391771	0.111519
	C152	C	0.887324	0.688522	0.379249
	C153	C	0.117286	0.687759	0.615937
	C154	C	0.887427	0.335302	0.616937
	C155	C	0.117339	0.335711	0.377687
	C156	C	0.887486	0.392519	0.674633
	C157	C	0.116303	0.631855	0.674943
	C158	C	0.886962	0.630742	0.321731
	C159	C	0.116402	0.392137	0.319159
	C160	C	0.382087	0.686922	0.882509
	C161	C	0.619670	0.687327	0.111077
	C162	C	0.621325	0.332498	0.882612
	C163	C	0.381683	0.333482	0.111296
	C164	C	0.680287	0.896612	0.376254
	C165	C	0.677523	0.126248	0.615296
	C166	C	0.325922	0.895999	0.614779
	C167	C	0.326803	0.126435	0.378643
	C168	C	0.881610	0.396287	0.174354
	C169	C	0.120358	0.625403	0.173582
	C170	C	0.122185	0.396354	0.819068
	C171	C	0.881818	0.625039	0.820855
	C172	C	0.179106	0.892535	0.382472
	C173	C	0.178946	0.131331	0.611362
	C174	C	0.826243	0.131464	0.382150
	C175	C	0.824953	0.892888	0.611091
	C176	C	0.386147	0.186487	0.877989
	C177	C	0.616231	0.187449	0.115236
	C178	C	0.386533	0.835375	0.114281
	C179	C	0.616399	0.832445	0.876369
	C180	C	0.387473	0.891393	0.173389
	C181	C	0.616520	0.130124	0.173164
	C182	C	0.386283	0.129190	0.820000
	C183	C	0.616693	0.890460	0.818620
	C184	C	0.884360	0.188860	0.382175
	C185	C	0.121111	0.189074	0.611566
	C186	C	0.121877	0.834006	0.382792
	C187	C	0.883225	0.835577	0.611964
	C188	C	0.178848	0.395792	0.877604
	C189	C	0.177423	0.625688	0.115436
	C190	C	0.825286	0.395584	0.115754
	C191	C	0.824554	0.624891	0.878296
	C192	C	0.403814	0.105078	0.596294
	C193	C	0.601092	0.916947	0.595111
	C194	C	0.602092	0.105238	0.396109
	C195	C	0.402995	0.916828	0.396454
	C196	C	0.600741	0.410819	0.090432
	C197	C	0.600810	0.608628	0.903413
	C198	C	0.400842	0.611285	0.091062
	C199	C	0.402276	0.410627	0.903342
	C200	C	0.096285	0.610341	0.397096
	C201	C	0.907999	0.611177	0.596861
	C202	C	0.096110	0.413669	0.595762
	C203	C	0.907771	0.411977	0.398196
	C204	C	0.901704	0.605139	0.097582
	C205	C	0.099702	0.416626	0.096089
	C206	C	0.100788	0.604818	0.897739
	C207	C	0.903562	0.416360	0.897929
	C208	C	0.102209	0.912110	0.591176
	C209	C	0.102753	0.111468	0.403209
	C210	C	0.902320	0.111420	0.590303
	C211	C	0.904928	0.912087	0.403876
	C212	C	0.595002	0.108094	0.897190
	C213	C	0.407435	0.109079	0.096808
	C214	C	0.596203	0.911139	0.095299
	C215	C	0.407258	0.910803	0.895800
	Zn216	Zn	0.501636	0.010136	0.746027
	Zn217	Zn	0.502746	0.010357	0.246651
	Zn218	Zn	0.752070	0.510169	-0.003128
	Zn219	Zn	0.250968	0.510581	-0.002930
	Zn220	Zn	0.002629	0.761067	0.497848
	Zn221	Zn	0.002689	0.262321	0.497224
	Zn222	Zn	0.001872	0.511525	0.747375
	Zn223	Zn	0.000976	0.511396	0.246999
	Zn224	Zn	0.501198	0.760845	-0.003570
	Zn225	Zn	0.501100	0.259704	-0.003402
	Zn226	Zn	0.752425	0.011544	0.496074
	Zn227	Zn	0.253141	0.011743	0.497035
	N228	N	0.416639	0.973474	0.674486
	N229	N	0.588302	0.047562	0.676159
	N230	N	0.588520	0.973391	0.317509
	N231	N	0.417230	0.048219	0.318416
	N232	N	0.681092	0.423808	0.959864
	N233	N	0.679636	0.595703	0.034208
	N234	N	0.323027	0.595807	0.960007
	N235	N	0.322996	0.425471	0.034357
	N236	N	0.964981	0.689874	0.412034
	N237	N	0.040112	0.688802	0.582112
	N238	N	0.964761	0.334096	0.582756
	N239	N	0.039946	0.334301	0.412116
	N240	N	0.964863	0.426672	0.675467
	N241	N	0.038577	0.598601	0.676983
	N242	N	0.964510	0.596857	0.319390
	N243	N	0.038553	0.425055	0.317545
	N244	N	0.415250	0.689434	0.959857
	N245	N	0.586157	0.688483	0.033882
	N246	N	0.586853	0.331559	0.959440
	N247	N	0.415560	0.331600	0.034090
	N248	N	0.681829	0.974238	0.409589
	N249	N	0.678380	0.049186	0.580178
	N250	N	0.324503	0.973710	0.581879
	N251	N	0.324956	0.048863	0.411921
	N252	N	0.914741	0.473948	0.176422
	N253	N	0.086543	0.547896	0.175175
	N254	N	0.088574	0.474033	0.817560
	N255	N	0.915884	0.547714	0.819014
	N256	N	0.180718	0.926419	0.459619
	N257	N	0.181126	0.097757	0.534159
	N258	N	0.823819	0.097908	0.459328
	N259	N	0.823701	0.925799	0.533825
	N260	N	0.463624	0.187705	0.911491
	N261	N	0.538584	0.188520	0.081992
	N262	N	0.463878	0.834045	0.080223
	N263	N	0.538706	0.831040	0.909944
	N264	N	0.465341	0.924187	0.175564
	N265	N	0.539216	0.096030	0.175095
	N266	N	0.463850	0.095334	0.818069
	N267	N	0.539178	0.924142	0.816896
	N268	N	0.917421	0.190497	0.459414
	N269	N	0.088332	0.190905	0.534167
	N270	N	0.088404	0.832293	0.460271
	N271	N	0.917728	0.833676	0.534912
	N272	N	0.179805	0.473159	0.911602
	N273	N	0.178504	0.548282	0.081590
	N274	N	0.823644	0.473141	0.082246
	N275	N	0.823906	0.547494	0.912055
	O276	O	0.519120	0.532449	0.581868
	H277	H	0.527250	0.533470	0.581247
	H278	H	0.521601	0.532701	0.582287
	O279	O	-0.002685	-0.067419	0.044000
	H280	H	0.007243	-0.070371	0.043068
	H281	H	0.002728	-0.070614	0.034010
	O282	O	0.969257	-0.079406	0.992046
	H283	H	0.970462	-0.087544	0.993960
	H284	H	0.968590	-0.081573	0.993951
	O285	O	0.489614	0.496114	0.516378
	H286	H	0.489057	0.492735	0.519344
	H287	H	0.483075	0.499479	0.509783
	O288	O	1.004142	-0.053090	0.013048
	H289	H	1.000426	-0.043015	0.012291
	H290	H	1.001292	-0.055109	0.013510
	O291	O	-0.462307	0.523626	-0.414862
	H292	H	-0.461268	0.513781	-0.414742
	H293	H	-0.456407	0.529577	-0.402264
	O294	O	0.495511	0.521646	0.511191
	H295	H	0.490641	0.527200	0.508499
	H296	H	0.501147	0.525602	0.514685
	O297	O	-0.015588	0.944450	0.072951
	H298	H	-0.019395	0.943736	0.079656
	H299	H	-0.005002	0.933110	0.068633
	O300	O	1.004142	-0.017976	1.010137
	H301	H	1.007534	-0.014058	1.008667
	H302	H	0.998329	-0.025680	1.017994
	O303	O	0.512003	0.453998	0.556501
	H304	H	0.504644	0.451274	0.549052
	H305	H	0.515512	0.449072	0.563779
	O306	O	0.048809	0.994316	1.032146
	H307	H	0.039402	0.999456	1.027270
	H308	H	0.049046	1.003588	1.034696
	O309	O	0.503548	0.464093	0.523857
	H310	H	0.502598	0.459699	0.523076
	H311	H	0.504667	0.465014	0.528433
