data_Molecule from HDF5

_cell_length_a		16.450412
_cell_length_b		16.319575
_cell_length_c		16.073005
_cell_angle_alpha	89.728461
_cell_angle_beta	90.500566
_cell_angle_gamma	89.586931
_symmetry_space_group_name_H-M	'P 1'
_symmetry_Int_Tables_number		1

loop_
	_symmetry_equiv_pos_as_xyz
	x,y,z

loop_
	_atom_site_label
	_atom_site_type_symbol
	_atom_site_fract_x
	_atom_site_fract_y
	_atom_site_fract_z
	H0	H	0.403812	0.840917	0.716486
	H1	H	0.593624	0.168743	0.716722
	H2	H	0.596846	0.840614	0.292666
	H3	H	0.397534	0.167461	0.286606
	H4	H	0.711058	0.403429	0.837299
	H5	H	0.714339	0.602638	0.166118
	H6	H	0.278690	0.607105	0.838672
	H7	H	0.283386	0.401841	0.166858
	H8	H	0.837118	0.726847	0.396758
	H9	H	0.158150	0.721519	0.607521
	H10	H	0.834834	0.287314	0.603736
	H11	H	0.156844	0.284633	0.400902
	H12	H	0.833955	0.407055	0.715985
	H13	H	0.159314	0.599627	0.718693
	H14	H	0.835356	0.606131	0.284779
	H15	H	0.159400	0.406390	0.289598
	H16	H	0.395402	0.720415	0.838260
	H17	H	0.597132	0.714600	0.168966
	H18	H	0.594388	0.290544	0.836981
	H19	H	0.400449	0.289982	0.167731
	H20	H	0.717819	0.844246	0.401598
	H21	H	0.715460	0.167118	0.607242
	H22	H	0.278680	0.844480	0.610108
	H23	H	0.276959	0.166136	0.397901
	H24	H	0.902524	0.341478	0.216567
	H25	H	0.093800	0.668227	0.216134
	H26	H	0.093922	0.339770	0.790777
	H27	H	0.897546	0.667741	0.786642
	H28	H	0.214267	0.903738	0.338360
	H29	H	0.213748	0.105539	0.666998
	H30	H	0.776506	0.110215	0.339606
	H31	H	0.785145	0.905051	0.667422
	H32	H	0.335972	0.223176	0.899843
	H33	H	0.658594	0.221140	0.107484
	H34	H	0.335424	0.786975	0.104434
	H35	H	0.658141	0.785352	0.903411
	H36	H	0.334837	0.907114	0.217635
	H37	H	0.660612	0.098840	0.219043
	H38	H	0.335051	0.104495	0.785066
	H39	H	0.660929	0.907790	0.792642
	H40	H	0.894666	0.220509	0.337219
	H41	H	0.096211	0.217563	0.667299
	H42	H	0.097142	0.789793	0.337497
	H43	H	0.901347	0.790787	0.667304
	H44	H	0.216219	0.342829	0.900273
	H45	H	0.214925	0.666150	0.105444
	H46	H	0.781518	0.342330	0.105667
	H47	H	0.775936	0.665559	0.896162
	H48	H	0.405274	0.120615	0.595647
	H49	H	0.587871	0.888648	0.603826
	H50	H	0.584161	0.120654	0.407863
	H51	H	0.403108	0.888497	0.411255
	H52	H	0.600334	0.405061	0.125177
	H53	H	0.580146	0.590350	0.888934
	H54	H	0.409174	0.597603	0.120206
	H55	H	0.397489	0.416466	0.883336
	H56	H	0.108776	0.594291	0.417129
	H57	H	0.878966	0.604298	0.597857
	H58	H	0.112233	0.405303	0.598010
	H59	H	0.880119	0.405133	0.409914
	H60	H	0.110234	0.408976	0.591678
	H61	H	0.884434	0.603067	0.583323
	H62	H	0.112065	0.593604	0.405727
	H63	H	0.884602	0.416500	0.416066
	H64	H	0.400584	0.598356	0.122795
	H65	H	0.584389	0.603724	0.882742
	H66	H	0.592778	0.424795	0.116205
	H67	H	0.409327	0.420163	0.888619
	H68	H	0.586605	0.118132	0.418013
	H69	H	0.591827	0.891537	0.586887
	H70	H	0.406972	0.118545	0.589952
	H71	H	0.407959	0.889658	0.413498
	H72	H	0.900507	0.620544	0.089414
	H73	H	0.098788	0.387865	0.091034
	H74	H	0.091415	0.618887	0.915843
	H75	H	0.886565	0.386531	0.922202
	H76	H	0.082036	0.913327	0.617220
	H77	H	0.086810	0.106404	0.381411
	H78	H	0.916368	0.101506	0.618721
	H79	H	0.909429	0.914380	0.385604
	H80	H	0.609345	0.088248	0.911059
	H81	H	0.384807	0.095471	0.091573
	H82	H	0.613102	0.906501	0.097696
	H83	H	0.382327	0.907585	0.914937
	H84	H	0.611070	0.907745	0.096148
	H85	H	0.383001	0.097741	0.095601
	H86	H	0.616391	0.103158	0.903253
	H87	H	0.385144	0.917802	0.913158
	H88	H	0.896189	0.104016	0.626211
	H89	H	0.096557	0.089113	0.384402
	H90	H	0.094011	0.907131	0.622157
	H91	H	0.901890	0.915050	0.382824
	H92	H	0.090074	0.620920	0.907364
	H93	H	0.091303	0.386504	0.102354
	H94	H	0.903357	0.620629	0.093472
	H95	H	0.901714	0.381913	0.891011
	H96	H	0.401377	0.120931	0.590898
	H97	H	0.603657	0.886072	0.598475
	H98	H	0.594406	0.122251	0.411526
	H99	H	0.403415	0.890061	0.416757
	H100	H	0.578754	0.407470	0.117751
	H101	H	0.594449	0.591820	0.883075
	H102	H	0.403782	0.590148	0.119692
	H103	H	0.407272	0.407942	0.883551
	H104	H	0.114058	0.603454	0.412230
	H105	H	0.884973	0.590588	0.592852
	H106	H	0.111175	0.412327	0.597313
	H107	H	0.880713	0.416693	0.402857
	H108	H	0.905305	0.618777	0.089237
	H109	H	0.086066	0.391286	0.091180
	H110	H	0.083221	0.618023	0.912552
	H111	H	0.919336	0.395675	0.918001
	H112	H	0.093234	0.920626	0.618363
	H113	H	0.077479	0.090625	0.389578
	H114	H	0.903319	0.085289	0.616371
	H115	H	0.905219	0.921022	0.386595
	H116	H	0.610910	0.103317	0.920929
	H117	H	0.382531	0.099581	0.091453
	H118	H	0.611809	0.908265	0.099517
	H119	H	0.380969	0.911797	0.905561
	C120	C	0.376450	0.013024	0.623532
	C121	C	0.621591	0.996626	0.625927
	C122	C	0.618750	0.013255	0.383077
	C123	C	0.374756	0.996262	0.381830
	C124	C	0.618649	0.382641	0.010920
	C125	C	0.617242	0.624086	0.993978
	C126	C	0.374622	0.625829	0.012129
	C127	C	0.376372	0.384138	0.993816
	C128	C	0.005443	0.627953	0.380118
	C129	C	0.989246	0.626783	0.623672
	C130	C	0.004539	0.381048	0.624549
	C131	C	0.988414	0.382705	0.380749
	C132	C	0.875273	0.513007	0.122546
	C133	C	0.120349	0.496061	0.124660
	C134	C	0.117845	0.512193	0.882126
	C135	C	0.873461	0.495841	0.879845
	C136	C	0.119495	0.883640	0.511014
	C137	C	0.117222	0.125098	0.493644
	C138	C	0.874415	0.127261	0.511574
	C139	C	0.877436	0.885822	0.493835
	C140	C	0.505643	0.127509	0.880624
	C141	C	0.490008	0.125716	0.124396
	C142	C	0.505253	0.880087	0.126755
	C143	C	0.489439	0.882330	0.882067
	C144	C	0.380916	0.890225	0.680088
	C145	C	0.616313	0.119500	0.680377
	C146	C	0.617377	0.890066	0.329111
	C147	C	0.376547	0.118421	0.324157
	C148	C	0.673363	0.383773	0.886657
	C149	C	0.675380	0.622476	0.117275
	C150	C	0.317387	0.626066	0.888078
	C151	C	0.321266	0.383366	0.117627
	C152	C	0.884918	0.686672	0.378532
	C153	C	0.110240	0.682456	0.625402
	C154	C	0.882878	0.326136	0.622813
	C155	C	0.109241	0.324645	0.381839
	C156	C	0.882670	0.385461	0.679081
	C157	C	0.110667	0.621826	0.681065
	C158	C	0.884169	0.626985	0.322465
	C159	C	0.110581	0.385377	0.326609
	C160	C	0.375357	0.682531	0.887828
	C161	C	0.616788	0.678173	0.118638
	C162	C	0.615262	0.327663	0.886529
	C163	C	0.379649	0.327701	0.118124
	C164	C	0.677509	0.891893	0.383298
	C165	C	0.676875	0.118513	0.625904
	C166	C	0.319143	0.891990	0.626452
	C167	C	0.316520	0.117701	0.379408
	C168	C	0.880055	0.390334	0.179160
	C169	C	0.116049	0.619112	0.179529
	C170	C	0.114927	0.389034	0.827787
	C171	C	0.875996	0.618417	0.823355
	C172	C	0.175894	0.884190	0.387480
	C173	C	0.174837	0.124519	0.617677
	C174	C	0.816307	0.128248	0.388234
	C175	C	0.822852	0.886016	0.617937
	C176	C	0.384091	0.184224	0.880602
	C177	C	0.610913	0.181885	0.125604
	C178	C	0.383653	0.825481	0.124398
	C179	C	0.610404	0.824934	0.883862
	C180	C	0.383454	0.885018	0.180751
	C181	C	0.611754	0.120995	0.181284
	C182	C	0.383644	0.125376	0.823508
	C183	C	0.611903	0.885725	0.828637
	C184	C	0.874910	0.183394	0.387231
	C185	C	0.116349	0.180219	0.617950
	C186	C	0.118063	0.827371	0.386944
	C187	C	0.880524	0.829021	0.618051
	C188	C	0.176219	0.390770	0.881629
	C189	C	0.175894	0.617991	0.123939
	C190	C	0.820106	0.390666	0.123607
	C191	C	0.815584	0.617341	0.878152
	C192	C	0.398192	0.098215	0.599154
	C193	C	0.600516	0.910919	0.603250
	C194	C	0.595259	0.098245	0.405853
	C195	C	0.398187	0.911321	0.406481
	C196	C	0.597103	0.405623	0.097383
	C197	C	0.593282	0.601901	0.907427
	C198	C	0.397708	0.602241	0.098485
	C199	C	0.398338	0.407823	0.907441
	C200	C	0.089833	0.604116	0.404684
	C201	C	0.904620	0.605554	0.598537
	C202	C	0.089057	0.402476	0.602296
	C203	C	0.903856	0.406059	0.403052
	C204	C	0.896817	0.598016	0.098148
	C205	C	0.098495	0.410776	0.101663
	C206	C	0.094891	0.597396	0.905109
	C207	C	0.896003	0.410289	0.903464
	C208	C	0.096592	0.906890	0.596793
	C209	C	0.093841	0.101946	0.407498
	C210	C	0.898374	0.103841	0.598116
	C211	C	0.899417	0.909586	0.407493
	C212	C	0.590434	0.104806	0.904498
	C213	C	0.405347	0.104015	0.100022
	C214	C	0.589976	0.901209	0.104419
	C215	C	0.404835	0.905620	0.904493
	Zn216	Zn	0.498019	0.004498	0.752436
	Zn217	Zn	0.497733	0.003665	0.254789
	Zn218	Zn	0.745485	0.503820	0.001384
	Zn219	Zn	0.248332	0.503804	0.002788
	Zn220	Zn	-0.002256	0.757004	0.501752
	Zn221	Zn	-0.004250	0.252570	0.502236
	Zn222	Zn	-0.003660	0.503978	0.752666
	Zn223	Zn	-0.002996	0.505077	0.251694
	Zn224	Zn	0.496794	0.751931	0.003892
	Zn225	Zn	0.497353	0.256280	0.002701
	Zn226	Zn	0.748389	0.005816	0.502911
	Zn227	Zn	0.246355	0.005135	0.502865
	N228	N	0.416082	0.966423	0.678160
	N229	N	0.582461	0.042709	0.680522
	N230	N	0.581110	0.966196	0.329017
	N231	N	0.412058	0.041655	0.325365
	N232	N	0.675595	0.417319	0.964911
	N233	N	0.675794	0.589711	0.038784
	N234	N	0.316800	0.591657	0.966378
	N235	N	0.319179	0.417776	0.039412
	N236	N	0.961446	0.687290	0.413764
	N237	N	0.033789	0.685572	0.590245
	N238	N	0.959696	0.322931	0.589723
	N239	N	0.032385	0.322997	0.414870
	N240	N	0.959117	0.418887	0.680521
	N241	N	0.034229	0.588210	0.680016
	N242	N	0.960098	0.591049	0.323269
	N243	N	0.034448	0.420625	0.325696
	N244	N	0.410164	0.682894	0.966025
	N245	N	0.581017	0.679084	0.040858
	N246	N	0.582068	0.326681	0.964858
	N247	N	0.413273	0.328069	0.040012
	N248	N	0.678544	0.969553	0.416024
	N249	N	0.680097	0.040988	0.592682
	N250	N	0.316281	0.969343	0.592133
	N251	N	0.315358	0.040773	0.414293
	N252	N	0.913775	0.467210	0.178364
	N253	N	0.082138	0.542205	0.180317
	N254	N	0.079296	0.465746	0.827750
	N255	N	0.911257	0.541741	0.824350
	N256	N	0.177212	0.918120	0.465694
	N257	N	0.175494	0.090896	0.539264
	N258	N	0.815840	0.094209	0.466490
	N259	N	0.820921	0.920630	0.539791
	N260	N	0.460875	0.185504	0.915424
	N261	N	0.534175	0.184928	0.091114
	N262	N	0.460574	0.821949	0.091908
	N263	N	0.533238	0.822605	0.916246
	N264	N	0.460015	0.918194	0.182404
	N265	N	0.535624	0.086675	0.180478
	N266	N	0.460087	0.090697	0.823547
	N267	N	0.535672	0.920838	0.827520
	N268	N	0.910358	0.182781	0.465323
	N269	N	0.081135	0.180762	0.540140
	N270	N	0.083922	0.826619	0.464739
	N271	N	0.913689	0.828825	0.539782
	N272	N	0.177952	0.468133	0.914748
	N273	N	0.178646	0.540650	0.090793
	N274	N	0.817238	0.467798	0.088714
	N275	N	0.813914	0.540025	0.912376
	O276	O	1.593877	0.488731	0.520872
	H277	H	1.593491	0.468512	0.520771
	H278	H	1.584142	0.494077	0.513469
	O279	O	0.458995	0.522672	0.554326
	H280	H	0.450862	0.527710	0.565533
	H281	H	0.448155	0.513742	0.552948
	O282	O	0.481824	0.586998	0.442197
	H283	H	0.476264	0.590927	0.435077
	H284	H	0.480835	0.581956	0.444886
	O285	O	0.331704	0.618506	0.390542
	H286	H	0.325261	0.623971	0.387253
	H287	H	0.339940	0.597043	0.402546
	O288	O	0.599342	0.568499	0.622691
	H289	H	0.610323	0.582550	0.640046
	H290	H	0.610031	0.571432	0.606643
	O291	O	-0.004018	0.022877	0.926141
	H292	H	0.006679	0.015081	0.923569
	H293	H	0.007573	0.011410	0.934113
	O294	O	1.061030	1.070734	-0.028349
	H295	H	1.054794	1.073625	-0.025395
	H296	H	1.053703	1.064907	-0.034335
	O297	O	1.030316	1.032125	0.017475
	H298	H	1.028813	1.019344	0.016328
	H299	H	1.025090	1.039372	0.008686
	O300	O	0.375287	0.411595	0.581527
	H301	H	0.380251	0.400361	0.597384
	H302	H	0.382430	0.403933	0.595154
	O303	O	0.646639	0.396419	0.362057
	H304	H	0.637268	0.411881	0.356288
	H305	H	0.642888	0.404455	0.359493
	O306	O	0.466914	0.456102	0.553193
	H307	H	0.466643	0.463363	0.543365
	H308	H	0.476513	0.460275	0.556929
	O309	O	0.424363	0.561774	0.384068
	H310	H	0.424004	0.560323	0.384786
	H311	H	0.415639	0.562804	0.384476
	O312	O	1.166461	0.935715	0.993199
	H313	H	1.165020	0.939155	1.013293
	H314	H	1.172575	0.932583	0.992653
	O315	O	1.023937	1.067817	0.006561
	H316	H	1.016599	1.079622	0.009632
	H317	H	1.023318	1.066226	0.003131
	O318	O	0.391002	0.381308	0.637890
	H319	H	0.392802	0.372643	0.647151
	H320	H	0.418476	0.387197	0.636081
	O321	O	0.472681	0.520501	0.452760
	H322	H	0.477870	0.516154	0.460327
	H323	H	0.465137	0.506111	0.453395
	O324	O	-0.270825	1.243431	0.658582
	H325	H	-0.277795	1.254085	0.665314
	H326	H	-0.277451	1.256271	0.652345
	O327	O	0.024597	0.988902	0.939990
	H328	H	0.022682	0.982218	0.936661
	H329	H	0.030093	0.992512	0.933787
	O330	O	0.010121	0.104081	0.081121
	H331	H	0.035095	0.106891	0.085459
	H332	H	0.010675	0.084913	0.066985
	O333	O	0.583777	0.655290	0.622808
	H334	H	0.590407	0.657395	0.626779
	H335	H	0.591324	0.652404	0.613545
	O336	O	-0.353437	-0.672569	-0.553699
	H337	H	-0.352223	-0.656513	-0.573551
	H338	H	-0.338920	-0.687560	-0.569004
	O339	O	0.008501	-0.061852	0.021503
	H340	H	0.009111	-0.071024	0.024434
	H341	H	0.004974	-0.055397	0.027014
	O342	O	0.541624	0.509805	0.548385
	H343	H	0.525561	0.513419	0.544509
	H344	H	0.548509	0.499277	0.544468
	O345	O	0.109292	1.053905	1.091293
	H346	H	0.110065	1.053785	1.092972
	H347	H	0.108941	1.054203	1.088650
	O348	O	0.527319	0.655607	0.476495
	H349	H	0.526129	0.662313	0.481003
	H350	H	0.509805	0.658079	0.473522
	O351	O	0.357106	0.698131	0.424786
	H352	H	0.340993	0.707731	0.419024
	H353	H	0.346407	0.702011	0.417847
	O354	O	-0.038283	1.065633	0.010564
	H355	H	-0.041055	1.065700	0.002485
	H356	H	-0.047058	1.055935	0.003526
	O357	O	-0.110328	0.090914	1.001900
	H358	H	-0.112621	0.106400	0.989602
	H359	H	-0.108573	0.095230	1.013425
	O360	O	1.053483	-0.014648	1.007324
	H361	H	1.060901	-0.005996	0.999145
	H362	H	1.051044	-0.020063	1.021579
	O363	O	0.464253	0.608575	0.416520
	H364	H	0.468364	0.616569	0.409750
	H365	H	0.446676	0.609522	0.419130
	O366	O	0.559258	0.556032	0.479036
	H367	H	0.548494	0.564395	0.477297
	H368	H	0.554564	0.566123	0.492361
	O369	O	0.933823	0.059680	-0.000981
	H370	H	0.923459	0.060947	0.005572
	H371	H	0.940185	0.066321	-0.011158
	O372	O	0.380475	0.386581	0.511027
	H373	H	0.375138	0.389747	0.528801
	H374	H	0.387193	0.387587	0.513778
	O375	O	0.901474	-0.075713	0.962015
	H376	H	0.892627	-0.068675	0.940819
	H377	H	0.890804	-0.069075	0.961790
	O378	O	-0.063513	1.043538	-0.073726
	H379	H	-0.059128	1.045856	-0.064269
	H380	H	-0.060831	1.048714	-0.072154
	O381	O	0.953758	-0.053440	0.920039
	H382	H	0.957164	-0.066776	0.908627
	H383	H	0.941545	-0.050669	0.920644
	O384	O	0.919639	1.006763	0.008310
	H385	H	0.924691	1.011677	0.001801
	H386	H	0.932227	1.003005	0.007500
	O387	O	1.036960	-0.081054	1.014179
	H388	H	1.033366	-0.088784	1.003145
	H389	H	1.042412	-0.065712	1.020269
	O390	O	1.046480	0.921818	0.057058
	H391	H	1.045752	0.919041	0.051265
	H392	H	1.047900	0.921043	0.057948
	O393	O	0.498837	0.374160	0.587517
	H394	H	0.511486	0.378802	0.578978
	H395	H	0.514917	0.373898	0.586621
