data_Molecule from HDF5

_cell_length_a		16.268698
_cell_length_b		16.393488
_cell_length_c		16.226951
_cell_angle_alpha	90.111849
_cell_angle_beta	90.218816
_cell_angle_gamma	89.798980
_symmetry_space_group_name_H-M	'P 1'
_symmetry_Int_Tables_number		1

loop_
	_symmetry_equiv_pos_as_xyz
	x,y,z

loop_
	_atom_site_label
	_atom_site_type_symbol
	_atom_site_fract_x
	_atom_site_fract_y
	_atom_site_fract_z
	H0	H	0.402342	0.835410	0.714068
	H1	H	0.599347	0.160637	0.715580
	H2	H	0.598352	0.835508	0.284468
	H3	H	0.400060	0.160775	0.282764
	H4	H	0.714511	0.400295	0.835252
	H5	H	0.714096	0.595735	0.164147
	H6	H	0.285196	0.595911	0.836482
	H7	H	0.289524	0.401714	0.164915
	H8	H	0.837370	0.714263	0.401377
	H9	H	0.163396	0.715001	0.602812
	H10	H	0.836856	0.284243	0.600834
	H11	H	0.163085	0.281618	0.401577
	H12	H	0.835541	0.404478	0.712279
	H13	H	0.163806	0.596971	0.716560
	H14	H	0.836642	0.596134	0.287073
	H15	H	0.163937	0.398936	0.286829
	H16	H	0.397935	0.714484	0.836411
	H17	H	0.600731	0.713699	0.162790
	H18	H	0.600960	0.282213	0.835736
	H19	H	0.403931	0.284554	0.163388
	H20	H	0.717001	0.836502	0.398922
	H21	H	0.715618	0.161284	0.599486
	H22	H	0.285505	0.835939	0.597822
	H23	H	0.283116	0.160906	0.398182
	H24	H	0.902804	0.336503	0.214626
	H25	H	0.099356	0.661233	0.217217
	H26	H	0.099230	0.336383	0.784573
	H27	H	0.901750	0.661790	0.785909
	H28	H	0.212525	0.900409	0.335469
	H29	H	0.216504	0.097190	0.663910
	H30	H	0.786232	0.096916	0.335471
	H31	H	0.787338	0.901964	0.663358
	H32	H	0.338109	0.215365	0.897557
	H33	H	0.664941	0.212585	0.098374
	H34	H	0.338179	0.782707	0.098749
	H35	H	0.664051	0.781273	0.898709
	H36	H	0.335968	0.901744	0.211454
	H37	H	0.665210	0.094862	0.213494
	H38	H	0.336635	0.095362	0.785333
	H39	H	0.665279	0.899836	0.785362
	H40	H	0.898321	0.215447	0.337056
	H41	H	0.101169	0.213951	0.664187
	H42	H	0.101205	0.782073	0.337664
	H43	H	0.901996	0.786029	0.664327
	H44	H	0.216330	0.336389	0.901321
	H45	H	0.216590	0.661375	0.101206
	H46	H	0.786910	0.336230	0.097712
	H47	H	0.784424	0.661653	0.901278
	H48	H	0.402694	0.111775	0.583274
	H49	H	0.592919	0.882331	0.597831
	H50	H	0.592010	0.113857	0.405449
	H51	H	0.414235	0.888216	0.413520
	H52	H	0.594665	0.412064	0.114557
	H53	H	0.588473	0.581341	0.887118
	H54	H	0.416862	0.589220	0.113345
	H55	H	0.412930	0.407877	0.885016
	H56	H	0.116760	0.594505	0.413285
	H57	H	0.882227	0.600082	0.590456
	H58	H	0.117017	0.402728	0.593068
	H59	H	0.884220	0.405594	0.409335
	H60	H	0.114803	0.406309	0.589505
	H61	H	0.886262	0.589393	0.589204
	H62	H	0.115533	0.586589	0.411389
	H63	H	0.882758	0.407175	0.405646
	H64	H	0.410274	0.600353	0.118394
	H65	H	0.585503	0.598531	0.881788
	H66	H	0.587297	0.400456	0.115099
	H67	H	0.407226	0.400980	0.881307
	H68	H	0.594466	0.114117	0.407522
	H69	H	0.589627	0.886183	0.586529
	H70	H	0.403910	0.116969	0.599242
	H71	H	0.395240	0.880808	0.407346
	H72	H	0.903051	0.616299	0.096974
	H73	H	0.096316	0.383271	0.092574
	H74	H	0.091752	0.612798	0.913493
	H75	H	0.907590	0.383886	0.906837
	H76	H	0.082021	0.897458	0.616486
	H77	H	0.088975	0.087374	0.385891
	H78	H	0.911025	0.091856	0.615214
	H79	H	0.914375	0.898945	0.382396
	H80	H	0.620436	0.094327	0.899548
	H81	H	0.386358	0.093022	0.086336
	H82	H	0.621944	0.894139	0.098720
	H83	H	0.384223	0.907002	0.903019
	H84	H	0.614050	0.903902	0.079008
	H85	H	0.384255	0.089683	0.092560
	H86	H	0.617168	0.096596	0.912788
	H87	H	0.384169	0.901566	0.908348
	H88	H	0.907448	0.095558	0.618244
	H89	H	0.088375	0.094914	0.384002
	H90	H	0.106797	0.902744	0.622692
	H91	H	0.900727	0.904052	0.380742
	H92	H	0.096594	0.615240	0.908189
	H93	H	0.096563	0.383019	0.095217
	H94	H	0.910943	0.614314	0.096489
	H95	H	0.906614	0.383429	0.907609
	H96	H	0.417556	0.111013	0.591777
	H97	H	0.601045	0.881628	0.588755
	H98	H	0.594704	0.115365	0.404973
	H99	H	0.411831	0.881493	0.393596
	H100	H	0.600684	0.400072	0.119469
	H101	H	0.602573	0.591235	0.879047
	H102	H	0.403958	0.587882	0.117186
	H103	H	0.404038	0.409901	0.883362
	H104	H	0.118890	0.592335	0.405890
	H105	H	0.882376	0.593248	0.599703
	H106	H	0.117343	0.407368	0.594599
	H107	H	0.883060	0.403731	0.406499
	H108	H	0.905797	0.613270	0.089528
	H109	H	0.094300	0.383573	0.094055
	H110	H	0.089062	0.613689	0.906264
	H111	H	0.907287	0.383167	0.906135
	H112	H	0.091461	0.921109	0.612050
	H113	H	0.095576	0.091264	0.382484
	H114	H	0.905267	0.090176	0.616815
	H115	H	0.911421	0.913241	0.386427
	H116	H	0.615658	0.084204	0.907183
	H117	H	0.383156	0.096742	0.091656
	H118	H	0.616052	0.916971	0.098094
	H119	H	0.386793	0.908248	0.909632
	C120	C	0.379286	0.006023	0.620480
	C121	C	0.622768	0.990603	0.620978
	C122	C	0.622247	0.006713	0.377471
	C123	C	0.377704	0.990265	0.376054
	C124	C	0.622800	0.376126	0.007849
	C125	C	0.621497	0.619306	0.991098
	C126	C	0.379523	0.620833	0.008403
	C127	C	0.379792	0.377609	0.991541
	C128	C	0.008990	0.620166	0.380367
	C129	C	0.991741	0.621873	0.622764
	C130	C	0.008519	0.377435	0.621669
	C131	C	0.991680	0.376569	0.378985
	C132	C	0.878798	0.507062	0.122109
	C133	C	0.124151	0.490312	0.123864
	C134	C	0.121930	0.506943	0.879409
	C135	C	0.878312	0.490801	0.878572
	C136	C	0.122204	0.877468	0.509113
	C137	C	0.121303	0.120059	0.492181
	C138	C	0.878771	0.120669	0.508347
	C139	C	0.879678	0.877607	0.491204
	C140	C	0.509352	0.120138	0.877625
	C141	C	0.492621	0.120755	0.120156
	C142	C	0.509008	0.877123	0.120233
	C143	C	0.493026	0.876512	0.877767
	C144	C	0.381908	0.883914	0.676186
	C145	C	0.619996	0.112358	0.677318
	C146	C	0.619062	0.884110	0.322526
	C147	C	0.379736	0.112619	0.321020
	C148	C	0.677641	0.379036	0.884336
	C149	C	0.676452	0.616563	0.114925
	C150	C	0.322601	0.617493	0.885471
	C151	C	0.326536	0.380628	0.115494
	C152	C	0.886098	0.676065	0.381448
	C153	C	0.114698	0.676813	0.622179
	C154	C	0.885471	0.322519	0.620342
	C155	C	0.114425	0.320349	0.381469
	C156	C	0.884830	0.382085	0.675691
	C157	C	0.114941	0.618307	0.678864
	C158	C	0.885633	0.617166	0.324783
	C159	C	0.114984	0.378535	0.324492
	C160	C	0.379010	0.676071	0.885175
	C161	C	0.620231	0.675259	0.114205
	C162	C	0.620828	0.320829	0.884489
	C163	C	0.383084	0.322321	0.114611
	C164	C	0.678137	0.884727	0.379223
	C165	C	0.677625	0.112738	0.619421
	C166	C	0.323945	0.884192	0.618116
	C167	C	0.321485	0.112357	0.378336
	C168	C	0.882399	0.384853	0.176506
	C169	C	0.120697	0.612650	0.179493
	C170	C	0.119970	0.384825	0.822959
	C171	C	0.881056	0.613246	0.823743
	C172	C	0.176087	0.879538	0.385119
	C173	C	0.178100	0.117906	0.615050
	C174	C	0.823435	0.118036	0.384874
	C175	C	0.824734	0.881314	0.614657
	C176	C	0.386662	0.176352	0.878334
	C177	C	0.616121	0.174742	0.118436
	C178	C	0.386502	0.821417	0.118326
	C179	C	0.615399	0.819678	0.878500
	C180	C	0.385394	0.880775	0.174214
	C181	C	0.616219	0.116598	0.175669
	C182	C	0.385836	0.116861	0.822479
	C183	C	0.616099	0.878862	0.822622
	C184	C	0.879480	0.176500	0.385548
	C185	C	0.120914	0.175979	0.615170
	C186	C	0.120455	0.820700	0.386246
	C187	C	0.881892	0.823389	0.615144
	C188	C	0.177971	0.384888	0.881113
	C189	C	0.179034	0.612609	0.121945
	C190	C	0.824543	0.384772	0.118593
	C191	C	0.822833	0.613050	0.881070
	C192	C	0.401573	0.091291	0.598179
	C193	C	0.600887	0.905297	0.597866
	C194	C	0.600032	0.092188	0.399442
	C195	C	0.400339	0.905527	0.398388
	C196	C	0.600801	0.397952	0.094156
	C197	C	0.598853	0.597029	0.904949
	C198	C	0.403407	0.598995	0.094193
	C199	C	0.401513	0.399739	0.905375
	C200	C	0.094875	0.597751	0.403445
	C201	C	0.905791	0.600378	0.599960
	C202	C	0.094260	0.399234	0.599180
	C203	C	0.905588	0.399033	0.400626
	C204	C	0.900369	0.592579	0.100673
	C205	C	0.102082	0.405194	0.100909
	C206	C	0.099065	0.591900	0.902407
	C207	C	0.900738	0.405443	0.900487
	C208	C	0.100000	0.900385	0.594874
	C209	C	0.097943	0.097755	0.406352
	C210	C	0.901278	0.098818	0.594552
	C211	C	0.902298	0.899017	0.405292
	C212	C	0.595548	0.098118	0.899923
	C213	C	0.406878	0.099352	0.097247
	C214	C	0.595045	0.898724	0.098396
	C215	C	0.407248	0.899095	0.900556
	Zn216	Zn	0.501091	-0.002066	0.749905
	Zn217	Zn	0.500586	-0.001156	0.248167
	Zn218	Zn	0.749793	0.498428	-0.000099
	Zn219	Zn	0.251727	0.498963	0.001061
	Zn220	Zn	0.000877	0.749646	0.501151
	Zn221	Zn	-0.000232	0.248744	0.500821
	Zn222	Zn	0.000247	0.499266	0.749716
	Zn223	Zn	0.000962	0.498821	0.251403
	Zn224	Zn	0.500957	0.748381	-0.001155
	Zn225	Zn	0.500956	0.248936	-0.001118
	Zn226	Zn	0.751604	-0.001042	0.499228
	Zn227	Zn	0.249665	-0.001404	0.499148
	N228	N	0.415688	0.960800	0.677628
	N229	N	0.586424	0.035484	0.678150
	N230	N	0.585078	0.961084	0.321062
	N231	N	0.413995	0.035922	0.319365
	N232	N	0.678869	0.412945	0.962058
	N233	N	0.677204	0.582506	0.037414
	N234	N	0.322921	0.584029	0.963112
	N235	N	0.324631	0.414491	0.038093
	N236	N	0.963853	0.677973	0.415180
	N237	N	0.037101	0.679068	0.587970
	N238	N	0.963261	0.319544	0.587427
	N239	N	0.036706	0.319096	0.414539
	N240	N	0.962495	0.415260	0.676996
	N241	N	0.037562	0.584880	0.679314
	N242	N	0.963089	0.583147	0.324074
	N243	N	0.037579	0.412840	0.322858
	N244	N	0.413776	0.678222	0.962531
	N245	N	0.586627	0.677104	0.036149
	N246	N	0.587703	0.318872	0.962233
	N247	N	0.415580	0.320255	0.036422
	N248	N	0.679827	0.961764	0.412964
	N249	N	0.679417	0.035795	0.585034
	N250	N	0.322581	0.960953	0.584149
	N251	N	0.319953	0.035235	0.411711
	N252	N	0.915554	0.461855	0.178613
	N253	N	0.087336	0.535664	0.180643
	N254	N	0.085677	0.461657	0.821940
	N255	N	0.914974	0.536212	0.822070
	N256	N	0.177343	0.914072	0.462357
	N257	N	0.178726	0.084114	0.537410
	N258	N	0.822890	0.084134	0.462207
	N259	N	0.823422	0.914357	0.536810
	N260	N	0.464556	0.178661	0.911505
	N261	N	0.538464	0.177430	0.084703
	N262	N	0.464313	0.819134	0.085450
	N263	N	0.537806	0.818107	0.912055
	N264	N	0.462636	0.914703	0.175585
	N265	N	0.538423	0.083810	0.176877
	N266	N	0.463115	0.082518	0.821973
	N267	N	0.538862	0.913293	0.822057
	N268	N	0.913218	0.178393	0.463493
	N269	N	0.085984	0.177191	0.537916
	N270	N	0.087724	0.819107	0.464395
	N271	N	0.915393	0.820937	0.537416
	N272	N	0.179068	0.461698	0.915510
	N273	N	0.181116	0.535650	0.087776
	N274	N	0.822142	0.461862	0.085544
	N275	N	0.821047	0.535936	0.914289
	O276	O	1.026360	0.972438	-0.021247
	H277	H	1.022377	0.965688	-0.018504
	H278	H	1.021561	0.971327	-0.019744
	O279	O	0.039400	-0.024305	0.010839
	H280	H	0.042058	-0.017485	0.002275
	H281	H	0.038549	-0.022791	0.013924
	O282	O	0.029453	-0.027689	1.053588
	H283	H	0.030154	-0.027889	1.053635
	H284	H	0.034784	-0.029238	1.058597
	O285	O	0.510437	0.526110	0.501252
	H286	H	0.513042	0.525242	0.507534
	H287	H	0.502992	0.517949	0.510510
	O288	O	0.443722	0.508854	0.442266
	H289	H	0.437284	0.511329	0.447759
	H290	H	0.446284	0.507888	0.439232
	O291	O	0.505545	0.451320	0.496345
	H292	H	0.506607	0.456327	0.493772
	H293	H	0.487803	0.448568	0.492779
	O294	O	0.011188	0.018164	0.019780
	H295	H	0.023644	0.013454	0.018942
	H296	H	0.012104	0.018998	0.026432
	O297	O	0.471496	0.503640	0.552073
	H298	H	0.474331	0.494649	0.563536
	H299	H	0.470213	0.501075	0.555598
	O300	O	0.031695	0.956512	0.963275
	H301	H	0.026739	0.962325	0.963819
	H302	H	0.030371	0.952783	0.959324
	O303	O	0.420756	0.504267	0.496172
	H304	H	0.419326	0.508642	0.500367
	H305	H	0.416007	0.507353	0.492933
	O306	O	0.037049	-0.008422	0.981229
	H307	H	0.032178	-0.006038	0.988413
	H308	H	0.042830	-0.007707	0.989652
	O309	O	1.033880	1.004932	1.034518
	H310	H	1.033826	1.010586	1.028128
	H311	H	1.034300	1.002818	1.034129
	O312	O	0.448614	0.472007	0.480422
	H313	H	0.451360	0.474606	0.464595
	H314	H	0.454867	0.478306	0.477982
	O315	O	0.499945	0.483847	0.508680
	H316	H	0.498816	0.491342	0.498977
	H317	H	0.512776	0.479405	0.515606
	O318	O	-0.029069	1.022352	0.003594
	H319	H	-0.027796	1.024208	0.021742
	H320	H	-0.034907	1.032215	-0.002231
	O321	O	1.080185	0.971587	-0.055972
	H322	H	1.087573	0.966614	-0.062965
	H323	H	1.077325	0.971356	-0.072933
