data_Molecule from HDF5

_cell_length_a		16.628779
_cell_length_b		16.716546
_cell_length_c		16.622961
_cell_angle_alpha	89.951136
_cell_angle_beta	90.065675
_cell_angle_gamma	90.021294
_symmetry_space_group_name_H-M	'P 1'
_symmetry_Int_Tables_number		1

loop_
	_symmetry_equiv_pos_as_xyz
	x,y,z

loop_
	_atom_site_label
	_atom_site_type_symbol
	_atom_site_fract_x
	_atom_site_fract_y
	_atom_site_fract_z
	H0	H	0.391593	0.845721	0.709888
	H1	H	0.603582	0.154278	0.713853
	H2	H	0.603787	0.848335	0.268002
	H3	H	0.392968	0.156877	0.268526
	H4	H	0.717656	0.396432	0.833618
	H5	H	0.717696	0.604998	0.145067
	H6	H	0.273850	0.608012	0.834851
	H7	H	0.272945	0.393399	0.142174
	H8	H	0.841839	0.723346	0.384192
	H9	H	0.151907	0.723918	0.594464
	H10	H	0.842981	0.279612	0.596437
	H11	H	0.150623	0.279023	0.381844
	H12	H	0.840998	0.399058	0.708588
	H13	H	0.151501	0.608791	0.711018
	H14	H	0.840314	0.605441	0.270556
	H15	H	0.150922	0.394996	0.266202
	H16	H	0.389894	0.723585	0.834352
	H17	H	0.601439	0.720965	0.145377
	H18	H	0.603257	0.278572	0.834506
	H19	H	0.387809	0.276979	0.142119
	H20	H	0.719858	0.848452	0.384996
	H21	H	0.722177	0.152760	0.600172
	H22	H	0.275295	0.847134	0.593725
	H23	H	0.276250	0.156498	0.384026
	H24	H	0.892057	0.345758	0.209043
	H25	H	0.099115	0.656054	0.208327
	H26	H	0.103405	0.347852	0.765097
	H27	H	0.892579	0.656985	0.767822
	H28	H	0.215889	0.900285	0.332685
	H29	H	0.218031	0.107048	0.645155
	H30	H	0.774018	0.108791	0.335903
	H31	H	0.774618	0.893328	0.643819
	H32	H	0.342337	0.223238	0.883355
	H33	H	0.652381	0.222109	0.094550
	H34	H	0.340369	0.781948	0.094367
	H35	H	0.652869	0.781852	0.887811
	H36	H	0.340961	0.897756	0.210393
	H37	H	0.652913	0.105489	0.209716
	H38	H	0.340727	0.105398	0.769436
	H39	H	0.652618	0.898937	0.772411
	H40	H	0.889595	0.225113	0.335458
	H41	H	0.103578	0.224325	0.644820
	H42	H	0.101611	0.782145	0.333151
	H43	H	0.889228	0.777567	0.642686
	H44	H	0.220319	0.348245	0.881707
	H45	H	0.216101	0.655656	0.092114
	H46	H	0.778144	0.345555	0.089696
	H47	H	0.777707	0.657570	0.885260
	H48	H	0.415691	0.111776	0.584602
	H49	H	0.587295	0.890182	0.578812
	H50	H	0.589837	0.112756	0.406318
	H51	H	0.408709	0.892977	0.403019
	H52	H	0.588349	0.414141	0.100345
	H53	H	0.584754	0.595837	0.875977
	H54	H	0.408724	0.582140	0.097889
	H55	H	0.408424	0.414861	0.878436
	H56	H	0.106973	0.590414	0.401583
	H57	H	0.886021	0.593298	0.573415
	H58	H	0.107004	0.414233	0.575116
	H59	H	0.886460	0.410013	0.405874
	H60	H	0.107772	0.415613	0.577209
	H61	H	0.887730	0.588048	0.576626
	H62	H	0.110409	0.591716	0.393818
	H63	H	0.886424	0.418131	0.399709
	H64	H	0.413414	0.596760	0.100800
	H65	H	0.590155	0.590827	0.876351
	H66	H	0.583471	0.411799	0.099726
	H67	H	0.411313	0.413495	0.879205
	H68	H	0.586521	0.113883	0.396515
	H69	H	0.583402	0.890422	0.579271
	H70	H	0.406736	0.110275	0.571114
	H71	H	0.403585	0.889727	0.401278
	H72	H	0.901902	0.614525	0.080709
	H73	H	0.082966	0.390792	0.078964
	H74	H	0.085033	0.612776	0.895227
	H75	H	0.911263	0.395771	0.909019
	H76	H	0.083524	0.908940	0.600920
	H77	H	0.085765	0.090865	0.378600
	H78	H	0.913212	0.080671	0.596442
	H79	H	0.907952	0.914726	0.378708
	H80	H	0.607482	0.089663	0.902817
	H81	H	0.389841	0.081055	0.075217
	H82	H	0.609653	0.907840	0.079361
	H83	H	0.384263	0.909668	0.902343
	H84	H	0.607737	0.911785	0.078320
	H85	H	0.383060	0.090983	0.085789
	H86	H	0.608242	0.089284	0.899879
	H87	H	0.384244	0.912596	0.899196
	H88	H	0.916732	0.098685	0.600645
	H89	H	0.084488	0.091815	0.379064
	H90	H	0.090455	0.912165	0.602060
	H91	H	0.910068	0.916630	0.379702
	H92	H	0.078488	0.608958	0.902652
	H93	H	0.084483	0.389276	0.075745
	H94	H	0.909656	0.613337	0.083409
	H95	H	0.896839	0.386867	0.898581
	H96	H	0.400184	0.116725	0.584483
	H97	H	0.585024	0.891467	0.575942
	H98	H	0.580345	0.109197	0.403558
	H99	H	0.408888	0.889894	0.397213
	H100	H	0.587241	0.409461	0.101882
	H101	H	0.583806	0.589168	0.879151
	H102	H	0.398483	0.592591	0.103856
	H103	H	0.409264	0.412133	0.876915
	H104	H	0.110269	0.597576	0.399414
	H105	H	0.883879	0.591989	0.579864
	H106	H	0.108766	0.413125	0.576633
	H107	H	0.883260	0.409467	0.396361
	H108	H	0.907460	0.611527	0.075719
	H109	H	0.086171	0.388709	0.078778
	H110	H	0.088364	0.611768	0.905158
	H111	H	0.914825	0.390399	0.890057
	H112	H	0.084947	0.915757	0.599131
	H113	H	0.086135	0.092458	0.378560
	H114	H	0.900137	0.091755	0.604912
	H115	H	0.910086	0.913860	0.378609
	H116	H	0.608892	0.091702	0.901095
	H117	H	0.385635	0.096097	0.070604
	H118	H	0.609562	0.911417	0.082522
	H119	H	0.382023	0.908632	0.898332
	C120	C	0.375324	0.010209	0.611425
	C121	C	0.618308	0.992095	0.611611
	C122	C	0.618406	0.010234	0.369272
	C123	C	0.375780	0.993684	0.368354
	C124	C	0.618385	0.379905	-0.002536
	C125	C	0.617839	0.622561	0.980866
	C126	C	0.374513	0.623071	-0.001798
	C127	C	0.375687	0.379882	0.979910
	C128	C	0.005629	0.623911	0.367195
	C129	C	0.988342	0.623851	0.609667
	C130	C	0.005672	0.381172	0.610004
	C131	C	0.988020	0.380607	0.368159
	C132	C	0.874828	0.509923	0.110632
	C133	C	0.117139	0.491997	0.110126
	C134	C	0.117470	0.509645	0.867617
	C135	C	0.875863	0.493704	0.867495
	C136	C	0.118053	0.881238	0.497390
	C137	C	0.118000	0.123817	0.481578
	C138	C	0.876143	0.123304	0.498721
	C139	C	0.876446	0.881169	0.481093
	C140	C	0.505096	0.121989	0.868425
	C141	C	0.488652	0.121852	0.109978
	C142	C	0.505357	0.879452	0.111908
	C143	C	0.487293	0.879503	0.868980
	C144	C	0.373356	0.892973	0.670484
	C145	C	0.621887	0.107809	0.673422
	C146	C	0.621595	0.894402	0.308743
	C147	C	0.374463	0.110391	0.308644
	C148	C	0.677882	0.377902	0.880246
	C149	C	0.677370	0.623536	0.098217
	C150	C	0.314245	0.625931	0.881138
	C151	C	0.313800	0.375961	0.095835
	C152	C	0.888460	0.683148	0.365715
	C153	C	0.105148	0.684018	0.612679
	C154	C	0.889087	0.320634	0.613597
	C155	C	0.104319	0.319558	0.364305
	C156	C	0.888253	0.379850	0.669423
	C157	C	0.105059	0.626598	0.670436
	C158	C	0.887682	0.624535	0.309243
	C159	C	0.104541	0.377416	0.307002
	C160	C	0.371926	0.683380	0.881414
	C161	C	0.619510	0.680966	0.098603
	C162	C	0.621118	0.319349	0.880786
	C163	C	0.370855	0.317959	0.095759
	C164	C	0.679317	0.894608	0.366717
	C165	C	0.680585	0.107304	0.616784
	C166	C	0.315456	0.893493	0.612771
	C167	C	0.316396	0.110130	0.366017
	C168	C	0.873698	0.392477	0.168949
	C169	C	0.118634	0.609054	0.169167
	C170	C	0.121099	0.393859	0.806106
	C171	C	0.874514	0.610590	0.808095
	C172	C	0.176842	0.880682	0.379460
	C173	C	0.178073	0.125523	0.598414
	C174	C	0.814451	0.126724	0.382474
	C175	C	0.815322	0.876521	0.597315
	C176	C	0.388453	0.182345	0.865522
	C177	C	0.605752	0.181885	0.112628
	C178	C	0.387621	0.821179	0.113075
	C179	C	0.605570	0.821316	0.868531
	C180	C	0.387848	0.878817	0.170721
	C181	C	0.606017	0.123774	0.169774
	C182	C	0.387914	0.123824	0.808831
	C183	C	0.605858	0.879454	0.811429
	C184	C	0.872062	0.184440	0.382276
	C185	C	0.120971	0.183676	0.598199
	C186	C	0.120076	0.822152	0.379939
	C187	C	0.872400	0.818822	0.596570
	C188	C	0.179149	0.393856	0.863813
	C189	C	0.176360	0.608980	0.111249
	C190	C	0.817060	0.392268	0.109959
	C191	C	0.817175	0.610871	0.866341
	C192	C	0.400180	0.091595	0.586945
	C193	C	0.592470	0.911598	0.585501
	C194	C	0.592705	0.091002	0.394759
	C195	C	0.400078	0.912146	0.393321
	C196	C	0.593328	0.404528	0.079294
	C197	C	0.593140	0.598861	0.898587
	C198	C	0.399682	0.597503	0.079641
	C199	C	0.402111	0.405929	0.899099
	C200	C	0.087925	0.599882	0.391231
	C201	C	0.907027	0.598479	0.584001
	C202	C	0.086845	0.406803	0.583904
	C203	C	0.906662	0.405633	0.393449
	C204	C	0.899179	0.591791	0.086829
	C205	C	0.091979	0.410808	0.084930
	C206	C	0.091468	0.590170	0.893642
	C207	C	0.900629	0.412276	0.892184
	C208	C	0.093422	0.905470	0.579220
	C209	C	0.092728	0.098804	0.399979
	C210	C	0.902464	0.097670	0.579573
	C211	C	0.902170	0.907726	0.400053
	C212	C	0.586963	0.097327	0.893983
	C213	C	0.407392	0.096576	0.084448
	C214	C	0.587543	0.903553	0.087196
	C215	C	0.405048	0.903372	0.892878
	Zn216	Zn	0.496881	0.000622	0.739964
	Zn217	Zn	0.497195	0.001485	0.239472
	Zn218	Zn	0.746333	0.501747	-0.011658
	Zn219	Zn	0.246955	0.500816	-0.011518
	Zn220	Zn	-0.003029	0.752283	0.488309
	Zn221	Zn	-0.002972	0.252500	0.489858
	Zn222	Zn	-0.002924	0.502356	0.738011
	Zn223	Zn	-0.003954	0.501240	0.239674
	Zn224	Zn	0.496166	0.750763	-0.009594
	Zn225	Zn	0.497274	0.251363	-0.010971
	Zn226	Zn	0.747446	0.001556	0.490886
	Zn227	Zn	0.246682	0.002132	0.489576
	N228	N	0.409759	0.966758	0.670040
	N229	N	0.583975	0.035097	0.670556
	N230	N	0.584413	0.967606	0.310021
	N231	N	0.410381	0.036614	0.309557
	N232	N	0.676208	0.414956	0.953853
	N233	N	0.676618	0.588087	0.023841
	N234	N	0.315684	0.588858	0.954949
	N235	N	0.316540	0.413901	0.022624
	N236	N	0.963010	0.683059	0.400878
	N237	N	0.031454	0.682700	0.575631
	N238	N	0.963454	0.321044	0.577716
	N239	N	0.030781	0.321222	0.401663
	N240	N	0.961905	0.416819	0.667453
	N241	N	0.031340	0.589880	0.668839
	N242	N	0.961783	0.588357	0.309762
	N243	N	0.031256	0.414786	0.309284
	N244	N	0.408663	0.681887	0.955266
	N245	N	0.583440	0.680904	0.024333
	N246	N	0.584831	0.320419	0.954819
	N247	N	0.408869	0.320179	0.022645
	N248	N	0.677659	0.967886	0.403484
	N249	N	0.678644	0.034367	0.579055
	N250	N	0.316215	0.967582	0.576987
	N251	N	0.316825	0.036369	0.402304
	N252	N	0.908759	0.466764	0.169672
	N253	N	0.082611	0.535204	0.168800
	N254	N	0.083680	0.466936	0.808135
	N255	N	0.910064	0.536472	0.808220
	N256	N	0.175874	0.916673	0.453680
	N257	N	0.176554	0.088986	0.524672
	N258	N	0.816684	0.089393	0.455920
	N259	N	0.817913	0.914952	0.524364
	N260	N	0.462526	0.181562	0.901810
	N261	N	0.531657	0.181251	0.076260
	N262	N	0.461852	0.821497	0.077122
	N263	N	0.530724	0.820701	0.903293
	N264	N	0.462318	0.914387	0.170181
	N265	N	0.532152	0.087178	0.168460
	N266	N	0.461605	0.087030	0.810462
	N267	N	0.531205	0.914581	0.811174
	N268	N	0.909736	0.182677	0.455632
	N269	N	0.084168	0.182645	0.524354
	N270	N	0.084225	0.822218	0.454175
	N271	N	0.909885	0.821541	0.523126
	N272	N	0.176851	0.466748	0.901462
	N273	N	0.175914	0.534976	0.075450
	N274	N	0.817393	0.466515	0.074512
	N275	N	0.817721	0.537095	0.902362
	O276	O	-0.178779	0.991809	-0.022844
	H277	H	-0.180494	0.983346	-0.015423
	H278	H	-0.174538	0.977371	-0.030609
	O279	O	0.776141	0.780370	1.020766
	H280	H	0.765082	0.761862	1.038131
	H281	H	0.766709	0.773989	1.054937
	O282	O	0.869829	0.022031	1.208982
	H283	H	0.847466	0.012558	1.218995
	H284	H	0.883959	0.008447	1.192225
	O285	O	0.683399	0.528508	0.433503
	H286	H	0.673060	0.519973	0.441665
	H287	H	0.674219	0.516022	0.431916
	O288	O	0.678699	0.522466	0.577100
	H289	H	0.669462	0.513793	0.577412
	H290	H	0.682335	0.504730	0.574488
	O291	O	0.297589	0.717034	0.387110
	H292	H	0.297757	0.694992	0.374905
	H293	H	0.285832	0.726160	0.414577
	O294	O	0.861023	0.050918	1.021540
	H295	H	0.858333	0.051556	1.021465
	H296	H	0.847202	0.052507	1.016406
	O297	O	0.688763	0.695329	0.302394
	H298	H	0.662418	0.692723	0.325767
	H299	H	0.678446	0.670309	0.322579
	O300	O	0.027673	0.212717	1.205548
	H301	H	0.013805	0.202491	1.214293
	H302	H	0.013367	0.218374	1.209327
	O303	O	0.352878	0.358252	0.423996
	H304	H	0.346904	0.355168	0.433990
	H305	H	0.340951	0.349094	0.426329
	O306	O	0.431845	0.554053	0.354796
	H307	H	0.429524	0.549566	0.352158
	H308	H	0.432276	0.561758	0.362938
	O309	O	0.470686	0.728792	0.266364
	H310	H	0.456948	0.758389	0.247214
	H311	H	0.448097	0.733038	0.277545
	O312	O	0.454629	0.584064	0.718723
	H313	H	0.442343	0.575011	0.722557
	H314	H	0.445021	0.583399	0.706866
	O315	O	0.710730	0.478960	1.269613
	H316	H	0.703983	0.486563	1.262890
	H317	H	0.733064	0.477662	1.265325
	O318	O	0.510013	0.514620	0.429909
	H319	H	0.498030	0.525342	0.430513
	H320	H	0.503266	0.507978	0.418300
	O321	O	-0.548441	0.356240	0.476040
	H322	H	-0.551213	0.350935	0.475053
	H323	H	-0.565444	0.359656	0.477436
	O324	O	1.216264	0.964513	-0.233716
	H325	H	1.230139	0.968744	-0.226239
	H326	H	1.238750	0.945342	-0.251177
	O327	O	-0.018801	-0.007294	1.217685
	H328	H	0.008951	-0.011435	1.205317
	H329	H	-0.029445	0.005329	1.214591
	O330	O	0.559982	0.554265	0.261517
	H331	H	0.565743	0.557464	0.265570
	H332	H	0.548194	0.564421	0.254901
	O333	O	0.274272	0.281023	0.516372
	H334	H	0.256374	0.261754	0.537472
	H335	H	0.270596	0.283270	0.548107
	O336	O	0.325115	0.686850	0.657017
	H337	H	0.323880	0.680952	0.640063
	H338	H	0.302762	0.698070	0.665757
	O339	O	1.060563	0.073605	0.770621
	H340	H	1.068830	0.059544	0.759602
	H341	H	1.067181	0.047991	0.778791
	O342	O	0.246226	-0.257758	0.245176
	H343	H	0.256993	-0.255723	0.254574
	H344	H	0.243570	-0.277362	0.241145
	O345	O	-0.219028	1.028817	0.770147
	H346	H	-0.229966	1.035099	0.782623
	H347	H	-0.235579	1.028318	0.756557
	O348	O	-0.005166	-0.190713	0.096724
	H349	H	0.007267	-0.190343	0.104394
	H350	H	-0.014263	-0.192401	0.089270
	O351	O	-0.001374	0.124397	1.014598
	H352	H	-0.003171	0.111212	1.006335
	H353	H	0.010330	0.133538	1.008467
	O354	O	-0.305257	0.302710	0.687500
	H355	H	-0.304323	0.296615	0.677128
	H356	H	-0.290761	0.279620	0.695721
	O357	O	0.555273	0.723633	0.418318
	H358	H	0.553251	0.725886	0.418584
	H359	H	0.529045	0.720225	0.437493
	O360	O	0.709389	0.531323	0.712021
	H361	H	0.725393	0.529192	0.723830
	H362	H	0.718352	0.549208	0.707871
	O363	O	0.204938	-0.213550	-0.046868
	H364	H	0.200792	-0.218187	-0.046188
	H365	H	0.216196	-0.219247	-0.037143
	O366	O	0.534169	0.729879	0.715127
	H367	H	0.529717	0.764415	0.753796
	H368	H	0.511996	0.699500	0.708770
	O369	O	0.774067	0.007568	0.112093
	H370	H	0.763831	-0.004705	0.130237
	H371	H	0.780993	-0.018770	0.121265
	O372	O	1.226392	1.235281	-0.240045
	H373	H	1.250610	1.232564	-0.241369
	H374	H	1.212089	1.214129	-0.209133
	O375	O	1.031701	-0.212645	-0.231211
	H376	H	1.012880	-0.215397	-0.231178
	H377	H	1.025898	-0.219538	-0.245950
	O378	O	0.540211	0.280834	0.280947
	H379	H	0.529885	0.268859	0.274988
	H380	H	0.520952	0.290054	0.268428
	O381	O	0.019687	0.804904	0.997171
	H382	H	0.032644	0.804761	1.005927
	H383	H	0.000919	0.799023	0.994420
	O384	O	0.907996	-0.190415	1.032221
	H385	H	0.917233	-0.174225	1.034087
	H386	H	0.907418	-0.206957	1.041393
	O387	O	1.437088	1.411906	0.265063
	H388	H	1.423536	1.405939	0.260186
	H389	H	1.432091	1.434092	0.267618
	O390	O	0.280733	0.541044	0.269155
	H391	H	0.279399	0.525413	0.296578
	H392	H	0.253303	0.536320	0.249770
	O393	O	0.716512	0.276424	0.469451
	H394	H	0.712542	0.279721	0.445636
	H395	H	0.734711	0.258088	0.452448
	O396	O	0.470131	0.279339	0.601743
	H397	H	0.465342	0.294290	0.589689
	H398	H	0.499918	0.274664	0.596812
	O399	O	0.161170	-0.010588	1.047854
	H400	H	0.168187	0.005239	1.065035
	H401	H	0.156553	-0.021201	1.040511
	O402	O	-0.042393	1.103440	0.049655
	H403	H	-0.061771	1.100918	0.049737
	H404	H	-0.039281	1.101727	0.050078
	O405	O	0.579919	-0.569650	1.703834
	H406	H	0.606222	-0.573636	1.704465
	H407	H	0.587569	-0.546826	1.696278
	O408	O	-0.057899	-0.041564	-0.227931
	H409	H	-0.082624	-0.030169	-0.228579
	H410	H	-0.063139	-0.069518	-0.228642
	O411	O	0.445359	0.577014	0.450758
	H412	H	0.444372	0.552083	0.441166
	H413	H	0.438336	0.573282	0.453145
	O414	O	1.196210	0.203965	1.026432
	H415	H	1.170146	0.205328	1.009021
	H416	H	1.211996	0.222213	1.018399
	O417	O	0.196577	0.796649	0.785729
	H418	H	0.202550	0.816548	0.812451
	H419	H	0.151701	0.792063	0.790997
	O420	O	0.437492	0.450100	0.624170
	H421	H	0.439268	0.435121	0.629916
	H422	H	0.454274	0.456357	0.624327
	O423	O	-0.435720	-0.393981	1.541741
	H424	H	-0.441716	-0.387618	1.538449
	H425	H	-0.432600	-0.410571	1.552738
	O426	O	0.787442	0.794407	0.195961
	H427	H	0.759428	0.763635	0.230752
	H428	H	0.826533	0.801587	0.205016
	O429	O	0.924044	0.826755	0.932766
	H430	H	0.920296	0.821950	0.917368
	H431	H	0.903646	0.816352	0.948432
	O432	O	0.273546	0.573361	0.565943
	H433	H	0.273519	0.562047	0.585062
	H434	H	0.274964	0.562857	0.561498
	O435	O	0.194740	1.208109	0.193619
	H436	H	0.141503	1.208601	0.200949
	H437	H	0.200272	1.203015	0.144423
	O438	O	0.116221	-0.047752	0.060866
	H439	H	0.121881	-0.044519	0.072629
	H440	H	0.113474	-0.039970	0.059154
	O441	O	0.188762	-0.145452	0.118871
	H442	H	0.181937	-0.119017	0.111982
	H443	H	0.188263	-0.159154	0.124562
	O444	O	0.316195	0.439460	0.440272
	H445	H	0.304944	0.414315	0.451352
	H446	H	0.322182	0.444545	0.443441
	O447	O	0.217950	1.035119	1.208235
	H448	H	0.205656	1.066343	1.207927
	H449	H	0.241356	1.048100	1.237597
	O450	O	-0.198738	1.198448	0.783347
	H451	H	-0.176337	1.186960	0.795637
	H452	H	-0.190027	1.183850	0.797492
	O453	O	0.426427	0.338873	0.585407
	H454	H	0.452041	0.331593	0.590404
	H455	H	0.408568	0.322112	0.597460
	O456	O	0.198298	0.078371	0.962039
	H457	H	0.199361	0.071608	0.967201
	H458	H	0.204290	0.067547	0.966384
	O459	O	0.706616	0.679615	0.501184
	H460	H	0.703877	0.665974	0.501348
	H461	H	0.706117	0.680508	0.498343
	O462	O	0.787678	0.129509	1.028743
	H463	H	0.784471	0.122259	1.028605
	H464	H	0.767794	0.121890	1.044710
	O465	O	1.464560	-0.266946	0.542201
	H466	H	1.452722	-0.275427	0.546828
	H467	H	1.470493	-0.274743	0.559200
	O468	O	0.710763	0.284443	0.272127
	H469	H	0.706978	0.280450	0.260751
	H470	H	0.689162	0.305393	0.270577
	O471	O	0.709958	0.723437	0.706504
	H472	H	0.661821	0.731364	0.712821
	H473	H	0.711602	0.700633	0.671491
	O474	O	-0.011138	1.159854	-0.063640
	H475	H	-0.025848	1.165869	-0.071198
	H476	H	-0.019733	1.150356	-0.057950
	O477	O	0.284554	0.478193	1.710615
	H478	H	0.271176	0.479934	1.730854
	H479	H	0.289946	0.457168	1.718239
	O480	O	0.816784	0.188557	0.165851
	H481	H	0.824437	0.159823	0.157645
	H482	H	0.810204	0.203299	0.173731
	O483	O	-0.053818	1.050801	-0.057735
	H484	H	-0.056185	1.043674	-0.080860
	H485	H	-0.069646	1.046231	-0.059378
	O486	O	1.679683	-0.581010	0.459432
	H487	H	1.683124	-0.594500	0.436469
	H488	H	1.670498	-0.592519	0.470321
	O489	O	1.304137	1.310325	0.294088
	H490	H	1.276618	1.288314	0.271851
	H491	H	1.304927	1.320858	0.313555
	O492	O	0.456979	0.284922	-0.292933
	H493	H	0.473369	0.270977	-0.282227
	H494	H	0.481295	0.292576	-0.293465
	O495	O	0.153756	1.137665	0.906409
	H496	H	0.139770	1.129487	0.910244
	H497	H	0.132078	1.128860	0.911415
	O498	O	0.962187	1.222892	0.770788
	H499	H	0.967605	1.232465	0.756787
	H500	H	0.975983	1.212841	0.753751
	O501	O	0.888433	0.868525	0.841028
	H502	H	0.879779	0.871502	0.838212
	H503	H	0.871822	0.852659	0.825483
