data_Molecule from HDF5

_cell_length_a		16.276212
_cell_length_b		16.305276
_cell_length_c		16.164047
_cell_angle_alpha	89.485459
_cell_angle_beta	90.256964
_cell_angle_gamma	89.754904
_symmetry_space_group_name_H-M	'P 1'
_symmetry_Int_Tables_number		1

loop_
	_symmetry_equiv_pos_as_xyz
	x,y,z

loop_
	_atom_site_label
	_atom_site_type_symbol
	_atom_site_fract_x
	_atom_site_fract_y
	_atom_site_fract_z
	H0	H	0.400774	0.837588	0.712307
	H1	H	0.597075	0.165644	0.708994
	H2	H	0.595840	0.837136	0.283594
	H3	H	0.397786	0.164931	0.280708
	H4	H	0.707108	0.407219	0.830626
	H5	H	0.711021	0.599099	0.159872
	H6	H	0.279985	0.604455	0.830077
	H7	H	0.281776	0.402023	0.158432
	H8	H	0.833446	0.718821	0.392637
	H9	H	0.160238	0.712398	0.594887
	H10	H	0.833393	0.283695	0.596959
	H11	H	0.159460	0.285957	0.396459
	H12	H	0.830845	0.402178	0.708833
	H13	H	0.159412	0.595128	0.709966
	H14	H	0.832338	0.600914	0.278433
	H15	H	0.158950	0.400658	0.281490
	H16	H	0.395332	0.720509	0.832001
	H17	H	0.593514	0.711693	0.162251
	H18	H	0.597193	0.288238	0.832062
	H19	H	0.395702	0.285283	0.157998
	H20	H	0.714292	0.837408	0.397080
	H21	H	0.713877	0.163870	0.594700
	H22	H	0.282833	0.837741	0.597930
	H23	H	0.279170	0.163540	0.393256
	H24	H	0.896786	0.337432	0.212269
	H25	H	0.093391	0.664257	0.208964
	H26	H	0.090066	0.336272	0.787287
	H27	H	0.895951	0.664258	0.779172
	H28	H	0.210837	0.903598	0.330119
	H29	H	0.211826	0.097482	0.660195
	H30	H	0.782252	0.101468	0.331102
	H31	H	0.786007	0.901052	0.660477
	H32	H	0.333581	0.219883	0.892385
	H33	H	0.660283	0.215732	0.094642
	H34	H	0.333036	0.786117	0.097238
	H35	H	0.658935	0.786417	0.898515
	H36	H	0.332120	0.904050	0.209876
	H37	H	0.660648	0.097733	0.209921
	H38	H	0.333657	0.102343	0.778788
	H39	H	0.661299	0.905404	0.786559
	H40	H	0.896279	0.218347	0.331091
	H41	H	0.096671	0.213902	0.660384
	H42	H	0.096334	0.786234	0.330669
	H43	H	0.898950	0.784299	0.658916
	H44	H	0.214475	0.340157	0.893391
	H45	H	0.209972	0.664692	0.093746
	H46	H	0.780102	0.338086	0.095506
	H47	H	0.779176	0.665066	0.893524
	H48	H	0.403310	0.116597	0.586279
	H49	H	0.584616	0.884233	0.600084
	H50	H	0.598012	0.120484	0.398306
	H51	H	0.406204	0.883475	0.396898
	H52	H	0.593042	0.410569	0.114595
	H53	H	0.586313	0.592766	0.880167
	H54	H	0.400459	0.592535	0.112980
	H55	H	0.416391	0.408425	0.879566
	H56	H	0.110375	0.589401	0.408840
	H57	H	0.882566	0.591865	0.578430
	H58	H	0.112786	0.406774	0.594976
	H59	H	0.876920	0.398713	0.405396
	H60	H	0.113606	0.402640	0.590792
	H61	H	0.879318	0.588087	0.592661
	H62	H	0.113981	0.590048	0.396381
	H63	H	0.883880	0.415097	0.412263
	H64	H	0.403756	0.593508	0.112130
	H65	H	0.582546	0.600728	0.878041
	H66	H	0.584227	0.411809	0.111829
	H67	H	0.395677	0.403735	0.872135
	H68	H	0.581894	0.116580	0.397990
	H69	H	0.589499	0.888901	0.581236
	H70	H	0.405355	0.116801	0.585863
	H71	H	0.407878	0.887541	0.410098
	H72	H	0.914130	0.611266	0.081382
	H73	H	0.081320	0.388329	0.083587
	H74	H	0.083200	0.618628	0.899212
	H75	H	0.899212	0.383069	0.899600
	H76	H	0.095216	0.902722	0.614819
	H77	H	0.088567	0.091030	0.380273
	H78	H	0.898135	0.089476	0.614680
	H79	H	0.914663	0.907551	0.379241
	H80	H	0.617348	0.101203	0.894470
	H81	H	0.381166	0.097569	0.082339
	H82	H	0.614690	0.909395	0.098414
	H83	H	0.379394	0.915127	0.901131
	H84	H	0.614618	0.898486	0.089510
	H85	H	0.381158	0.090994	0.088676
	H86	H	0.613009	0.102284	0.911665
	H87	H	0.378633	0.908197	0.903265
	H88	H	0.911989	0.087384	0.609348
	H89	H	0.083994	0.096503	0.379262
	H90	H	0.091146	0.909324	0.611537
	H91	H	0.897897	0.902929	0.373567
	H92	H	0.088142	0.617204	0.906024
	H93	H	0.098144	0.384588	0.082741
	H94	H	0.891386	0.618253	0.076551
	H95	H	0.901308	0.385307	0.904881
	H96	H	0.403778	0.116070	0.584469
	H97	H	0.602774	0.880900	0.594095
	H98	H	0.591222	0.113884	0.412269
	H99	H	0.396013	0.882409	0.405740
	H100	H	0.587073	0.403446	0.113820
	H101	H	0.591289	0.598552	0.876291
	H102	H	0.401958	0.596485	0.113454
	H103	H	0.399926	0.424065	0.879901
	H104	H	0.113527	0.600149	0.404032
	H105	H	0.875990	0.601877	0.587796
	H106	H	0.111052	0.407566	0.589607
	H107	H	0.877877	0.413540	0.394149
	H108	H	0.901104	0.621005	0.098747
	H109	H	0.089838	0.382912	0.097329
	H110	H	0.091405	0.619890	0.898207
	H111	H	0.895930	0.384074	0.904523
	H112	H	0.087190	0.901931	0.612664
	H113	H	0.090892	0.096634	0.377120
	H114	H	0.906936	0.100084	0.614976
	H115	H	0.901066	0.919920	0.379703
	H116	H	0.610318	0.087178	0.903682
	H117	H	0.378180	0.098814	0.090588
	H118	H	0.610700	0.911057	0.084353
	H119	H	0.381184	0.913228	0.907536
	C120	C	0.375668	0.009159	0.617120
	C121	C	0.620205	0.992922	0.618735
	C122	C	0.619057	0.008779	0.374801
	C123	C	0.374394	0.992455	0.374086
	C124	C	0.616733	0.381336	0.004594
	C125	C	0.616377	0.624191	0.987081
	C126	C	0.373229	0.624516	0.004181
	C127	C	0.374813	0.381769	0.985480
	C128	C	0.004568	0.623074	0.372609
	C129	C	0.987497	0.621190	0.616205
	C130	C	0.004254	0.377491	0.619465
	C131	C	0.987648	0.379824	0.374698
	C132	C	0.873722	0.509198	0.116048
	C133	C	0.117880	0.492922	0.116599
	C134	C	0.116389	0.510162	0.873731
	C135	C	0.871139	0.492224	0.872981
	C136	C	0.119307	0.877849	0.504063
	C137	C	0.117779	0.122254	0.487267
	C138	C	0.875724	0.122772	0.504396
	C139	C	0.876696	0.879939	0.486527
	C140	C	0.505388	0.125773	0.872892
	C141	C	0.488212	0.123642	0.117045
	C142	C	0.505012	0.878626	0.119248
	C143	C	0.487949	0.882448	0.876141
	C144	C	0.379631	0.886506	0.674360
	C145	C	0.617177	0.116417	0.671963
	C146	C	0.616048	0.885779	0.321003
	C147	C	0.376730	0.115662	0.317955
	C148	C	0.670586	0.385636	0.880006
	C149	C	0.672761	0.620136	0.110909
	C150	C	0.317831	0.624117	0.879806
	C151	C	0.319522	0.382477	0.109191
	C152	C	0.882165	0.680192	0.372951
	C153	C	0.111257	0.674540	0.614507
	C154	C	0.881748	0.321967	0.616954
	C155	C	0.110472	0.323752	0.376755
	C156	C	0.880446	0.381016	0.672596
	C157	C	0.110719	0.616531	0.671942
	C158	C	0.881473	0.621474	0.316334
	C159	C	0.110344	0.380834	0.319407
	C160	C	0.374679	0.682385	0.880872
	C161	C	0.614438	0.676390	0.111992
	C162	C	0.615785	0.326643	0.880845
	C163	C	0.375946	0.324126	0.109013
	C164	C	0.675042	0.885935	0.377720
	C165	C	0.675674	0.115509	0.615278
	C166	C	0.320784	0.886542	0.617327
	C167	C	0.317769	0.115059	0.374105
	C168	C	0.876747	0.386129	0.172947
	C169	C	0.114214	0.615422	0.171519
	C170	C	0.112441	0.385933	0.822280
	C171	C	0.874554	0.615389	0.816752
	C172	C	0.173540	0.882154	0.379569
	C173	C	0.173592	0.118030	0.611206
	C174	C	0.819755	0.121706	0.380513
	C175	C	0.822631	0.880886	0.610853
	C176	C	0.382653	0.181664	0.873066
	C177	C	0.611308	0.177795	0.114772
	C178	C	0.381596	0.824350	0.116785
	C179	C	0.610432	0.825265	0.878695
	C180	C	0.381167	0.882767	0.172971
	C181	C	0.611433	0.119283	0.172362
	C182	C	0.382617	0.123200	0.816561
	C183	C	0.611865	0.884502	0.823079
	C184	C	0.876839	0.179525	0.380392
	C185	C	0.116802	0.176163	0.611283
	C186	C	0.116874	0.823661	0.379954
	C187	C	0.879013	0.823036	0.610044
	C188	C	0.174148	0.388012	0.875143
	C189	C	0.172510	0.615574	0.114418
	C190	C	0.818204	0.386555	0.115564
	C191	C	0.816732	0.615974	0.873891
	C192	C	0.397609	0.094296	0.592656
	C193	C	0.598757	0.906993	0.598067
	C194	C	0.596815	0.094753	0.396406
	C195	C	0.396817	0.906650	0.397461
	C196	C	0.594595	0.402448	0.091068
	C197	C	0.593369	0.603508	0.900727
	C198	C	0.395504	0.601003	0.090358
	C199	C	0.397347	0.405240	0.899378
	C200	C	0.090456	0.599801	0.396020
	C201	C	0.901635	0.600249	0.593040
	C202	C	0.090375	0.399220	0.597950
	C203	C	0.901727	0.402424	0.397271
	C204	C	0.895636	0.594735	0.092421
	C205	C	0.096125	0.407256	0.094324
	C206	C	0.094139	0.596156	0.894700
	C207	C	0.892495	0.406402	0.896173
	C208	C	0.097650	0.898612	0.590721
	C209	C	0.094620	0.101055	0.401294
	C210	C	0.898975	0.099268	0.590769
	C211	C	0.898306	0.903275	0.400104
	C212	C	0.591531	0.103522	0.896301
	C213	C	0.402216	0.102175	0.093884
	C214	C	0.591131	0.899958	0.097429
	C215	C	0.402054	0.905411	0.897705
	Zn216	Zn	0.497743	0.002342	0.746374
	Zn217	Zn	0.496279	0.000682	0.246437
	Zn218	Zn	0.743744	0.501991	-0.004821
	Zn219	Zn	0.245898	0.502427	-0.005944
	Zn220	Zn	-0.003187	0.750658	0.494899
	Zn221	Zn	-0.003602	0.251034	0.496125
	Zn222	Zn	-0.005557	0.500027	0.746260
	Zn223	Zn	-0.003897	0.500113	0.245348
	Zn224	Zn	0.495679	0.752588	-0.003022
	Zn225	Zn	0.496647	0.253671	-0.005008
	Zn226	Zn	0.748541	0.000843	0.496081
	Zn227	Zn	0.246099	0.000477	0.495474
	N228	N	0.413165	0.963791	0.674290
	N229	N	0.583407	0.039206	0.674254
	N230	N	0.581908	0.963155	0.319128
	N231	N	0.411117	0.038340	0.317656
	N232	N	0.671308	0.418855	0.957906
	N233	N	0.674292	0.588476	0.032332
	N234	N	0.316444	0.589279	0.957558
	N235	N	0.318557	0.417482	0.031354
	N236	N	0.959722	0.681307	0.407097
	N237	N	0.033602	0.677605	0.580606
	N238	N	0.959797	0.319586	0.584609
	N239	N	0.032924	0.322923	0.410552
	N240	N	0.957701	0.414786	0.674292
	N241	N	0.032912	0.584121	0.673154
	N242	N	0.958758	0.586691	0.315980
	N243	N	0.033000	0.414985	0.318267
	N244	N	0.408529	0.682801	0.959071
	N245	N	0.579904	0.678947	0.034133
	N246	N	0.582973	0.323873	0.959183
	N247	N	0.409692	0.323583	0.031223
	N248	N	0.677177	0.963604	0.410222
	N249	N	0.677642	0.037863	0.582654
	N250	N	0.318301	0.963770	0.582374
	N251	N	0.316146	0.037423	0.408043
	N252	N	0.910536	0.463294	0.173380
	N253	N	0.081242	0.537791	0.173241
	N254	N	0.077071	0.462746	0.821315
	N255	N	0.907846	0.537700	0.816170
	N256	N	0.175249	0.915064	0.457683
	N257	N	0.174458	0.085370	0.533023
	N258	N	0.819258	0.086895	0.458421
	N259	N	0.821061	0.915796	0.532996
	N260	N	0.460227	0.183271	0.907342
	N261	N	0.533455	0.180792	0.081357
	N262	N	0.459556	0.821655	0.084288
	N263	N	0.532380	0.823994	0.910933
	N264	N	0.458861	0.915591	0.174748
	N265	N	0.533803	0.086092	0.173633
	N266	N	0.460119	0.089305	0.816100
	N267	N	0.534786	0.919384	0.821341
	N268	N	0.910774	0.180526	0.458540
	N269	N	0.082830	0.179014	0.533395
	N270	N	0.083766	0.821029	0.458152
	N271	N	0.911725	0.822321	0.531840
	N272	N	0.176624	0.466307	0.906447
	N273	N	0.174605	0.538463	0.080887
	N274	N	0.816200	0.464066	0.080930
	N275	N	0.814459	0.538511	0.908183
	O276	O	0.006005	0.031443	-0.003930
	H277	H	0.009854	0.038839	0.000114
	H278	H	-0.001277	0.033175	0.001965
	O279	O	0.567150	0.447289	0.462874
	H280	H	0.574659	0.467814	0.455426
	H281	H	0.575891	0.439331	0.472337
	O282	O	0.375306	0.518017	0.420584
	H283	H	0.363115	0.505655	0.424979
	H284	H	0.378847	0.513501	0.417719
	O285	O	0.082103	0.996067	0.983122
	H286	H	0.080676	1.003410	0.976173
	H287	H	0.090153	0.993086	0.978382
	O288	O	0.594443	0.641538	0.503988
	H289	H	0.601387	0.653737	0.506751
	H290	H	0.588646	0.645263	0.512846
	O291	O	1.090247	0.972520	0.970393
	H292	H	1.093518	0.962700	0.969286
	H293	H	1.091483	0.964251	0.963820
	O294	O	0.962019	0.931406	0.986945
	H295	H	0.962931	0.932680	0.971856
	H296	H	0.963296	0.930926	0.984802
	O297	O	0.966732	-0.011311	0.999394
	H298	H	0.958940	-0.017078	0.992092
	H299	H	0.973500	-0.002679	0.996045
	O300	O	0.501485	0.437641	0.563018
	H301	H	0.481950	0.431363	0.554457
	H302	H	0.500539	0.435365	0.579881
	O303	O	1.016341	-0.034027	-0.002201
	H304	H	1.022939	-0.043341	0.000549
	H305	H	1.021047	-0.031877	-0.001383
	O306	O	-0.027375	1.025007	0.936930
	H307	H	-0.030959	1.021610	0.932363
	H308	H	-0.016890	1.032090	0.949127
	O309	O	0.444398	0.480856	0.497301
	H310	H	0.442989	0.477166	0.495879
	H311	H	0.444361	0.481394	0.503714
	O312	O	1.019353	0.128067	1.130935
	H313	H	1.028531	0.129028	1.134042
	H314	H	1.014002	0.133640	1.134513
	O315	O	0.458880	0.407015	0.522966
	H316	H	0.457547	0.419901	0.522345
	H317	H	0.458222	0.400095	0.517738
	O318	O	0.424443	0.491063	0.533151
	H319	H	0.426922	0.494544	0.539832
	H320	H	0.407731	0.481115	0.524815
	O321	O	0.988647	0.955239	1.005074
	H322	H	0.987707	0.955008	1.008423
	H323	H	0.984147	0.960566	1.005680
	O324	O	0.447228	0.399373	0.588071
	H325	H	0.460928	0.407198	0.588762
	H326	H	0.448962	0.403854	0.590267
	O327	O	0.359858	0.472827	0.554802
	H328	H	0.358437	0.478768	0.549621
	H329	H	0.362712	0.477600	0.547653
	O330	O	1.098660	0.068806	1.082749
	H331	H	1.096575	0.070991	1.084090
	H332	H	1.101194	0.068109	1.073737
	O333	O	0.956619	1.069326	-0.018555
	H334	H	0.952292	1.078112	-0.020280
	H335	H	0.952181	1.064492	-0.012898
	O336	O	0.532438	0.486472	0.537108
	H337	H	0.524852	0.471300	0.531508
	H338	H	0.527019	0.480211	0.532722
	O339	O	0.434427	0.565300	0.451995
	H340	H	0.439605	0.558684	0.450215
	H341	H	0.429693	0.567779	0.439607
	O342	O	0.028018	0.966999	-0.036232
	H343	H	0.038128	0.978232	-0.035705
	H344	H	0.023496	0.961941	-0.030808
	O345	O	-0.055064	0.091291	-0.022244
	H346	H	-0.063017	0.090905	-0.039966
	H347	H	-0.062255	0.086660	-0.015415
	O348	O	0.545830	0.479070	0.428897
	H349	H	0.554163	0.472428	0.420254
	H350	H	0.538255	0.488510	0.420308
	O351	O	0.498885	0.469161	0.427677
	H352	H	0.509263	0.457213	0.428914
	H353	H	0.496109	0.478060	0.438921
	O354	O	0.578890	0.547230	0.459387
	H355	H	0.578319	0.543592	0.447619
	H356	H	0.574263	0.551111	0.459847
	O357	O	0.611128	0.562312	0.539288
	H358	H	0.603660	0.569594	0.541166
	H359	H	0.618923	0.560584	0.532695
	O360	O	0.048430	-0.061323	0.074208
	H361	H	0.045877	-0.056544	0.073068
	H362	H	0.049781	-0.067359	0.085448
	O363	O	0.571567	0.468972	0.555481
	H364	H	0.571266	0.474730	0.556768
	H365	H	0.574591	0.467071	0.564407
	O366	O	-0.007518	-0.027067	0.942227
	H367	H	-0.016489	-0.023166	0.936457
	H368	H	-0.009499	-0.022141	0.938353
	O369	O	0.428417	0.644073	0.459811
	H370	H	0.425625	0.639614	0.460307
	H371	H	0.427204	0.656241	0.461377
