data_Molecule from HDF5

_cell_length_a		16.341518
_cell_length_b		16.281133
_cell_length_c		16.197614
_cell_angle_alpha	90.070833
_cell_angle_beta	90.222125
_cell_angle_gamma	90.213408
_symmetry_space_group_name_H-M	'P 1'
_symmetry_Int_Tables_number		1

loop_
	_symmetry_equiv_pos_as_xyz
	x,y,z

loop_
	_atom_site_label
	_atom_site_type_symbol
	_atom_site_fract_x
	_atom_site_fract_y
	_atom_site_fract_z
	H0	H	0.407110	0.822874	0.715615
	H1	H	0.604780	0.150379	0.718038
	H2	H	0.601617	0.822539	0.291104
	H3	H	0.408826	0.151469	0.288696
	H4	H	0.721380	0.387684	0.839247
	H5	H	0.722847	0.585709	0.167993
	H6	H	0.292060	0.585801	0.840494
	H7	H	0.293467	0.386701	0.168163
	H8	H	0.842330	0.701059	0.405224
	H9	H	0.168412	0.705398	0.605740
	H10	H	0.843694	0.270549	0.605217
	H11	H	0.168938	0.272040	0.405763
	H12	H	0.843335	0.389120	0.719273
	H13	H	0.170037	0.587593	0.719449
	H14	H	0.844392	0.585072	0.287820
	H15	H	0.170517	0.390533	0.291736
	H16	H	0.409014	0.698891	0.838521
	H17	H	0.608580	0.702646	0.167079
	H18	H	0.605113	0.273113	0.839046
	H19	H	0.409789	0.271920	0.167957
	H20	H	0.721530	0.824802	0.402682
	H21	H	0.723320	0.148680	0.605481
	H22	H	0.289919	0.824526	0.601721
	H23	H	0.289333	0.150508	0.402186
	H24	H	0.911020	0.322850	0.217072
	H25	H	0.107303	0.651147	0.218709
	H26	H	0.104961	0.323655	0.789321
	H27	H	0.909455	0.651578	0.790698
	H28	H	0.218167	0.887342	0.339610
	H29	H	0.222865	0.089347	0.666952
	H30	H	0.789603	0.087984	0.340082
	H31	H	0.790608	0.887304	0.667211
	H32	H	0.344174	0.201904	0.903504
	H33	H	0.670233	0.202579	0.103989
	H34	H	0.344856	0.769218	0.101759
	H35	H	0.670083	0.771763	0.903257
	H36	H	0.342716	0.887086	0.216598
	H37	H	0.670242	0.084942	0.219188
	H38	H	0.343360	0.085191	0.788188
	H39	H	0.668743	0.887726	0.786600
	H40	H	0.906342	0.202055	0.339608
	H41	H	0.104489	0.201828	0.668362
	H42	H	0.103399	0.772379	0.341149
	H43	H	0.906543	0.773502	0.668465
	H44	H	0.220939	0.322885	0.905667
	H45	H	0.225165	0.649894	0.105216
	H46	H	0.790753	0.324728	0.105426
	H47	H	0.791063	0.649858	0.903726
	H48	H	0.411731	0.103710	0.593175
	H49	H	0.602538	0.870051	0.590394
	H50	H	0.596807	0.101878	0.413731
	H51	H	0.404873	0.870209	0.413354
	H52	H	0.594950	0.392258	0.119254
	H53	H	0.603545	0.578937	0.885032
	H54	H	0.423395	0.573042	0.117750
	H55	H	0.414058	0.392876	0.887114
	H56	H	0.120090	0.578378	0.415186
	H57	H	0.890706	0.578575	0.597301
	H58	H	0.121154	0.390448	0.590603
	H59	H	0.889139	0.389313	0.410946
	H60	H	0.119575	0.402636	0.597403
	H61	H	0.889324	0.581521	0.599727
	H62	H	0.123588	0.582139	0.407782
	H63	H	0.893355	0.396937	0.416386
	H64	H	0.418298	0.588339	0.123346
	H65	H	0.599494	0.576502	0.887627
	H66	H	0.604315	0.391414	0.122724
	H67	H	0.413250	0.393554	0.886330
	H68	H	0.600153	0.103083	0.413064
	H69	H	0.600473	0.868504	0.599537
	H70	H	0.412820	0.104829	0.598137
	H71	H	0.410627	0.869175	0.403863
	H72	H	0.914398	0.602509	0.094276
	H73	H	0.102098	0.371239	0.094356
	H74	H	0.102049	0.602180	0.917469
	H75	H	0.912427	0.369984	0.911754
	H76	H	0.102288	0.892294	0.623393
	H77	H	0.092038	0.079691	0.388993
	H78	H	0.919914	0.082010	0.619276
	H79	H	0.922366	0.898329	0.390444
	H80	H	0.619879	0.073018	0.914520
	H81	H	0.392213	0.072104	0.099102
	H82	H	0.622748	0.887043	0.090233
	H83	H	0.393144	0.890854	0.916861
	H84	H	0.618426	0.904230	0.093609
	H85	H	0.387684	0.086946	0.099687
	H86	H	0.624859	0.079467	0.903422
	H87	H	0.391874	0.898971	0.907849
	H88	H	0.909740	0.083453	0.622970
	H89	H	0.099790	0.086578	0.384070
	H90	H	0.101104	0.904334	0.620460
	H91	H	0.910858	0.884980	0.383607
	H92	H	0.106257	0.604848	0.910673
	H93	H	0.104022	0.369131	0.099820
	H94	H	0.914552	0.603720	0.097376
	H95	H	0.916002	0.371958	0.910963
	H96	H	0.416074	0.102851	0.595203
	H97	H	0.593591	0.872177	0.593919
	H98	H	0.597861	0.103956	0.410302
	H99	H	0.415512	0.873674	0.413380
	H100	H	0.602294	0.400447	0.119467
	H101	H	0.599255	0.581129	0.886418
	H102	H	0.406923	0.575816	0.121907
	H103	H	0.413996	0.394571	0.886471
	H104	H	0.123399	0.586441	0.415321
	H105	H	0.890387	0.582742	0.595598
	H106	H	0.125359	0.391447	0.604343
	H107	H	0.890337	0.398750	0.406533
	H108	H	0.916871	0.603637	0.095431
	H109	H	0.098397	0.371271	0.098999
	H110	H	0.097799	0.602993	0.909663
	H111	H	0.914610	0.372019	0.913946
	H112	H	0.091769	0.896118	0.618964
	H113	H	0.102326	0.075491	0.387105
	H114	H	0.912617	0.073474	0.619448
	H115	H	0.904397	0.902036	0.386821
	H116	H	0.622951	0.086924	0.915422
	H117	H	0.394363	0.080200	0.086529
	H118	H	0.625557	0.894015	0.106845
	H119	H	0.388488	0.887281	0.906512
	C120	C	0.384519	-0.004320	0.623813
	C121	C	0.627912	0.978132	0.624717
	C122	C	0.627017	-0.004831	0.382925
	C123	C	0.382754	0.979050	0.381051
	C124	C	0.629096	0.365563	0.011872
	C125	C	0.629691	0.607926	0.994943
	C126	C	0.387129	0.607361	0.012198
	C127	C	0.385642	0.364535	0.995358
	C128	C	0.014765	0.610412	0.382922
	C129	C	0.998015	0.610048	0.626747
	C130	C	0.014333	0.365874	0.626262
	C131	C	0.998275	0.365914	0.382957
	C132	C	0.886324	0.495452	0.125315
	C133	C	0.130628	0.478417	0.126454
	C134	C	0.129842	0.495355	0.882960
	C135	C	0.886033	0.479103	0.883055
	C136	C	0.126703	0.867089	0.512788
	C137	C	0.127569	0.109672	0.495225
	C138	C	0.884694	0.108766	0.512253
	C139	C	0.884052	0.865950	0.495405
	C140	C	0.515116	0.108740	0.881323
	C141	C	0.498836	0.108758	0.125204
	C142	C	0.515212	0.864587	0.125539
	C143	C	0.498435	0.864203	0.881015
	C144	C	0.386573	0.872094	0.678417
	C145	C	0.625830	0.101155	0.680524
	C146	C	0.623218	0.871896	0.327894
	C147	C	0.386913	0.102431	0.325985
	C148	C	0.683752	0.367618	0.888384
	C149	C	0.685154	0.606143	0.118696
	C150	C	0.330757	0.605474	0.889036
	C151	C	0.330857	0.366217	0.118943
	C152	C	0.891648	0.664311	0.384418
	C153	C	0.120201	0.666695	0.625448
	C154	C	0.891999	0.309672	0.624629
	C155	C	0.120612	0.310450	0.385595
	C156	C	0.892152	0.368420	0.681669
	C157	C	0.121001	0.607924	0.681862
	C158	C	0.892702	0.606895	0.325956
	C159	C	0.121613	0.369450	0.328976
	C160	C	0.389263	0.661459	0.888101
	C161	C	0.628495	0.664150	0.118343
	C162	C	0.625737	0.310846	0.888063
	C163	C	0.389026	0.309490	0.118866
	C164	C	0.682648	0.872921	0.383625
	C165	C	0.684664	0.100408	0.624667
	C166	C	0.328240	0.872881	0.621886
	C167	C	0.327924	0.101942	0.382572
	C168	C	0.889431	0.372295	0.180331
	C169	C	0.127969	0.602076	0.181118
	C170	C	0.126037	0.372560	0.827211
	C171	C	0.888912	0.602488	0.828132
	C172	C	0.180905	0.868134	0.389191
	C173	C	0.184430	0.108779	0.618183
	C174	C	0.828331	0.107497	0.388827
	C175	C	0.828601	0.867571	0.618457
	C176	C	0.392600	0.163912	0.883516
	C177	C	0.621598	0.164443	0.124060
	C178	C	0.393010	0.807855	0.122310
	C179	C	0.621176	0.809549	0.883325
	C180	C	0.392186	0.866345	0.179603
	C181	C	0.621411	0.106313	0.181585
	C182	C	0.392281	0.105910	0.825949
	C183	C	0.620552	0.867182	0.825089
	C184	C	0.886185	0.164316	0.388665
	C185	C	0.125645	0.164761	0.619100
	C186	C	0.123815	0.810773	0.389754
	C187	C	0.886205	0.810873	0.619138
	C188	C	0.183761	0.372098	0.885015
	C189	C	0.186797	0.601211	0.125035
	C190	C	0.829934	0.373013	0.124401
	C191	C	0.829944	0.601674	0.884095
	C192	C	0.406959	0.081443	0.601922
	C193	C	0.605349	0.892376	0.601620
	C194	C	0.604713	0.080873	0.405771
	C195	C	0.404284	0.893272	0.403572
	C196	C	0.607045	0.388197	0.098287
	C197	C	0.607230	0.585617	0.908743
	C198	C	0.409574	0.585623	0.098640
	C199	C	0.407253	0.387059	0.908933
	C200	C	0.100167	0.588738	0.406217
	C201	C	0.912374	0.587527	0.604145
	C202	C	0.099897	0.388268	0.603877
	C203	C	0.913004	0.388488	0.404818
	C204	C	0.908888	0.581223	0.102499
	C205	C	0.108214	0.392595	0.104338
	C206	C	0.108287	0.581312	0.905574
	C207	C	0.908059	0.393610	0.905723
	C208	C	0.104836	0.890781	0.598717
	C209	C	0.104604	0.087295	0.409151
	C210	C	0.907344	0.086220	0.598141
	C211	C	0.906072	0.888427	0.409325
	C212	C	0.600374	0.086554	0.904465
	C213	C	0.413667	0.086493	0.101833
	C214	C	0.600191	0.888201	0.103361
	C215	C	0.413073	0.885992	0.903640
	Zn216	Zn	0.505864	-0.013313	0.752303
	Zn217	Zn	0.505931	-0.012954	0.254107
	Zn218	Zn	0.757455	0.487047	0.004008
	Zn219	Zn	0.258851	0.486634	0.004724
	Zn220	Zn	0.005332	0.739199	0.505347
	Zn221	Zn	0.005584	0.236830	0.504206
	Zn222	Zn	0.007260	0.487673	0.754748
	Zn223	Zn	0.008297	0.487940	0.254013
	Zn224	Zn	0.507757	0.735699	0.003207
	Zn225	Zn	0.507683	0.237365	0.003124
	Zn226	Zn	0.756637	-0.012836	0.503722
	Zn227	Zn	0.254908	-0.012217	0.503691
	N228	N	0.420871	0.949472	0.679701
	N229	N	0.591433	0.024025	0.680872
	N230	N	0.589381	0.949119	0.327338
	N231	N	0.419995	0.024931	0.324751
	N232	N	0.686010	0.400746	0.966631
	N233	N	0.686060	0.571998	0.041013
	N234	N	0.329387	0.572448	0.967064
	N235	N	0.328736	0.399845	0.040888
	N236	N	0.968564	0.666506	0.419189
	N237	N	0.042751	0.668026	0.591741
	N238	N	0.969061	0.307997	0.590830
	N239	N	0.043084	0.308376	0.418484
	N240	N	0.969257	0.402592	0.682722
	N241	N	0.044028	0.573487	0.682955
	N242	N	0.970346	0.574348	0.324606
	N243	N	0.044633	0.403319	0.327095
	N244	N	0.423714	0.662640	0.965773
	N245	N	0.594679	0.665527	0.040459
	N246	N	0.592720	0.309327	0.966020
	N247	N	0.422410	0.308521	0.041117
	N248	N	0.685030	0.950568	0.417330
	N249	N	0.686233	0.022842	0.590719
	N250	N	0.326579	0.950710	0.588953
	N251	N	0.325132	0.024266	0.416005
	N252	N	0.923819	0.449567	0.181059
	N253	N	0.093654	0.524943	0.182181
	N254	N	0.093161	0.450257	0.825916
	N255	N	0.923158	0.525340	0.827344
	N256	N	0.182858	0.902402	0.466795
	N257	N	0.185723	0.075441	0.540061
	N258	N	0.827278	0.073543	0.466665
	N259	N	0.827232	0.901303	0.540694
	N260	N	0.470078	0.165779	0.917431
	N261	N	0.544259	0.166373	0.089867
	N262	N	0.470502	0.806506	0.089439
	N263	N	0.544232	0.807712	0.917374
	N264	N	0.469020	0.900936	0.181688
	N265	N	0.544210	0.072441	0.182397
	N266	N	0.469272	0.072214	0.824648
	N267	N	0.543448	0.900705	0.823758
	N268	N	0.920479	0.165281	0.466268
	N269	N	0.090945	0.165529	0.541676
	N270	N	0.090599	0.810116	0.467655
	N271	N	0.920042	0.809871	0.541645
	N272	N	0.186217	0.449589	0.918979
	N273	N	0.188452	0.523321	0.091656
	N274	N	0.827983	0.450600	0.091046
	N275	N	0.827950	0.524126	0.917638
	O276	O	-0.026391	-0.033047	0.055691
	H277	H	-0.026222	-0.030420	0.054995
	H278	H	-0.024587	-0.029285	0.061713
	O279	O	0.535794	0.448214	0.448394
	H280	H	0.536667	0.443164	0.451896
	H281	H	0.533506	0.449574	0.447784
	O282	O	0.518060	0.492156	0.504432
	H283	H	0.511387	0.491896	0.514659
	H284	H	0.515647	0.495259	0.496189
	O285	O	1.081787	-0.017565	0.999659
	H286	H	1.097220	-0.007209	1.004871
	H287	H	1.074242	-0.023805	0.996031
	O288	O	1.065008	0.043528	0.039019
	H289	H	1.063712	0.036406	0.037288
	H290	H	1.058291	0.047110	0.030267
	O291	O	0.005818	0.935843	0.029227
	H292	H	-0.001843	0.935078	0.023997
	H293	H	0.001068	0.935182	0.041926
	O294	O	1.518541	0.478124	1.526710
	H295	H	1.526387	0.483533	1.525025
	H296	H	1.518694	0.474899	1.517016
	O297	O	-0.041890	-0.022826	-0.082807
	H298	H	-0.037315	-0.028811	-0.091582
	H299	H	-0.033353	-0.023163	-0.071236
	O300	O	0.347549	0.622269	0.352925
	H301	H	0.349834	0.616452	0.360074
	H302	H	0.353638	0.625936	0.343607
	O303	O	0.423658	0.410774	0.574718
	H304	H	0.417745	0.409585	0.577466
	H305	H	0.420833	0.402087	0.552853
	O306	O	1.064527	-0.112595	0.000831
	H307	H	1.066526	-0.119136	0.007154
	H308	H	1.079068	-0.113784	0.013522
	O309	O	-0.027555	0.039040	1.003242
	H310	H	-0.036549	0.039425	1.000761
	H311	H	-0.030563	0.042619	0.996726
	O312	O	0.919529	0.954635	1.037650
	H313	H	0.914336	0.951830	1.033167
	H314	H	0.913322	0.951291	1.033826
	O315	O	0.506417	0.474185	0.454087
	H316	H	0.501578	0.466177	0.461329
	H317	H	0.511499	0.476149	0.455115
	O318	O	0.457125	0.498002	0.548224
	H319	H	0.453374	0.503013	0.551925
	H320	H	0.447238	0.495617	0.543607
	O321	O	-0.012412	1.007929	0.899246
	H322	H	-0.010302	0.995513	0.901489
	H323	H	-0.012404	1.017965	0.897205
	O324	O	0.470895	0.533716	0.454318
	H325	H	0.469338	0.533684	0.452863
	H326	H	0.482345	0.531392	0.447842
	O327	O	1.053585	1.019647	-0.062460
	H328	H	1.050158	1.017406	-0.062496
	H329	H	1.058711	1.016541	-0.059188
	O330	O	0.025800	1.013739	0.050151
	H331	H	0.018376	1.007579	0.058353
	H332	H	0.014418	1.018150	0.051590
	O333	O	-0.054039	1.029257	1.066386
	H334	H	-0.061777	1.037369	1.068459
	H335	H	-0.054998	1.021202	1.048018
	O336	O	0.487271	0.505868	0.477612
	H337	H	0.493345	0.499224	0.480321
	H338	H	0.486094	0.512711	0.476040
	O339	O	1.118740	0.977431	0.134135
	H340	H	1.129764	0.981407	0.153923
	H341	H	1.118316	0.986668	0.131990
	O342	O	0.922993	0.934529	-0.014009
	H343	H	0.918653	0.937247	-0.010901
	H344	H	0.913962	0.937980	-0.015052
	O345	O	0.461617	0.545577	0.518324
	H346	H	0.463733	0.549423	0.517547
	H347	H	0.459293	0.544495	0.529270
	O348	O	0.030980	0.098960	-0.049721
	H349	H	0.048134	0.085665	-0.057378
	H350	H	0.026221	0.101970	-0.049660
	O351	O	0.008662	0.930046	0.874821
	H352	H	0.021182	0.914124	0.880349
	H353	H	0.002687	0.931924	0.866470
	O354	O	0.489680	0.476682	0.495042
	H355	H	0.495917	0.473466	0.507842
	H356	H	0.489297	0.471168	0.499203
	O357	O	-0.019715	0.976859	1.027796
	H358	H	-0.017470	0.977195	1.035244
	H359	H	-0.016741	0.987728	1.028340
