data_Molecule from HDF5

_cell_length_a		16.252603
_cell_length_b		16.315984
_cell_length_c		16.286607
_cell_angle_alpha	90.094111
_cell_angle_beta	89.908712
_cell_angle_gamma	90.019805
_symmetry_space_group_name_H-M	'P 1'
_symmetry_Int_Tables_number		1

loop_
	_symmetry_equiv_pos_as_xyz
	x,y,z

loop_
	_atom_site_label
	_atom_site_type_symbol
	_atom_site_fract_x
	_atom_site_fract_y
	_atom_site_fract_z
	H0	H	0.397430	0.839927	0.717060
	H1	H	0.597495	0.165511	0.716882
	H2	H	0.598846	0.840486	0.283225
	H3	H	0.397041	0.165873	0.286470
	H4	H	0.711092	0.404323	0.836560
	H5	H	0.713891	0.603259	0.163022
	H6	H	0.283279	0.601977	0.835662
	H7	H	0.280785	0.402874	0.162180
	H8	H	0.832611	0.716930	0.402343
	H9	H	0.159797	0.719668	0.602095
	H10	H	0.832548	0.287853	0.600592
	H11	H	0.159686	0.285206	0.399288
	H12	H	0.833166	0.404283	0.715712
	H13	H	0.161227	0.602121	0.714678
	H14	H	0.833667	0.602066	0.284962
	H15	H	0.159560	0.399746	0.282293
	H16	H	0.398061	0.719278	0.836789
	H17	H	0.599690	0.721047	0.162672
	H18	H	0.598070	0.285957	0.837818
	H19	H	0.396916	0.288824	0.163495
	H20	H	0.712215	0.838447	0.402351
	H21	H	0.712882	0.165172	0.601001
	H22	H	0.281816	0.838956	0.601291
	H23	H	0.280969	0.164721	0.402096
	H24	H	0.895593	0.340209	0.216624
	H25	H	0.099129	0.665149	0.217361
	H26	H	0.096668	0.339027	0.785322
	H27	H	0.898842	0.666131	0.785329
	H28	H	0.212633	0.901139	0.338162
	H29	H	0.209604	0.099629	0.665526
	H30	H	0.782033	0.100968	0.338585
	H31	H	0.780980	0.902276	0.664477
	H32	H	0.333359	0.217741	0.901699
	H33	H	0.660307	0.218713	0.100943
	H34	H	0.334264	0.786738	0.100422
	H35	H	0.660971	0.786928	0.899075
	H36	H	0.333744	0.902273	0.217196
	H37	H	0.660224	0.102391	0.216464
	H38	H	0.333679	0.102418	0.785406
	H39	H	0.660369	0.901815	0.783530
	H40	H	0.896563	0.216976	0.338138
	H41	H	0.096486	0.218696	0.663273
	H42	H	0.097327	0.785276	0.338761
	H43	H	0.895933	0.786247	0.664644
	H44	H	0.212347	0.338876	0.901230
	H45	H	0.212878	0.665792	0.098240
	H46	H	0.781419	0.340540	0.098828
	H47	H	0.780522	0.665100	0.898600
	H48	H	0.411116	0.115426	0.592100
	H49	H	0.587378	0.885719	0.598158
	H50	H	0.580952	0.112872	0.414479
	H51	H	0.406257	0.885095	0.402409
	H52	H	0.584679	0.413202	0.114022
	H53	H	0.596965	0.594259	0.882842
	H54	H	0.405386	0.589789	0.114819
	H55	H	0.417608	0.415769	0.889735
	H56	H	0.112001	0.595070	0.414527
	H57	H	0.882268	0.600959	0.582814
	H58	H	0.113672	0.411190	0.595004
	H59	H	0.880075	0.400650	0.414846
	H60	H	0.113936	0.406514	0.592459
	H61	H	0.884813	0.581861	0.594606
	H62	H	0.111071	0.588822	0.407618
	H63	H	0.885246	0.419662	0.412782
	H64	H	0.409814	0.596992	0.114118
	H65	H	0.585636	0.588070	0.887792
	H66	H	0.589954	0.404972	0.118681
	H67	H	0.406793	0.395195	0.878992
	H68	H	0.599263	0.118598	0.414236
	H69	H	0.584025	0.889151	0.588868
	H70	H	0.397233	0.118713	0.588685
	H71	H	0.410498	0.889482	0.412246
	H72	H	0.914639	0.617956	0.098027
	H73	H	0.086807	0.388603	0.089864
	H74	H	0.091280	0.618934	0.906885
	H75	H	0.901913	0.385592	0.906913
	H76	H	0.086955	0.915532	0.615035
	H77	H	0.087866	0.088494	0.387398
	H78	H	0.915881	0.098616	0.615416
	H79	H	0.907229	0.909188	0.385376
	H80	H	0.613673	0.105982	0.917225
	H81	H	0.378707	0.100666	0.094699
	H82	H	0.615071	0.906922	0.095589
	H83	H	0.382216	0.915598	0.907916
	H84	H	0.611701	0.910477	0.086516
	H85	H	0.382661	0.094082	0.088385
	H86	H	0.607229	0.082943	0.913567
	H87	H	0.380299	0.907765	0.906450
	H88	H	0.897014	0.102649	0.621460
	H89	H	0.085904	0.100262	0.384347
	H90	H	0.084236	0.906324	0.617272
	H91	H	0.903323	0.909142	0.384676
	H92	H	0.091231	0.618850	0.906313
	H93	H	0.093150	0.386955	0.089736
	H94	H	0.906863	0.615387	0.082771
	H95	H	0.906668	0.387592	0.903468
	H96	H	0.402262	0.121668	0.601863
	H97	H	0.593854	0.885665	0.591037
	H98	H	0.588384	0.120759	0.398682
	H99	H	0.399760	0.885573	0.411971
	H100	H	0.594475	0.414139	0.116545
	H101	H	0.585127	0.601369	0.884085
	H102	H	0.402152	0.597814	0.117172
	H103	H	0.393448	0.416735	0.882392
	H104	H	0.114454	0.597217	0.405775
	H105	H	0.875429	0.600913	0.603896
	H106	H	0.112140	0.410511	0.589289
	H107	H	0.877889	0.410116	0.397806
	H108	H	0.898566	0.621748	0.096063
	H109	H	0.089693	0.386378	0.095149
	H110	H	0.091186	0.618406	0.907618
	H111	H	0.907269	0.388052	0.909826
	H112	H	0.093789	0.909156	0.618839
	H113	H	0.096802	0.095011	0.382573
	H114	H	0.901752	0.084841	0.615300
	H115	H	0.905276	0.911600	0.386988
	H116	H	0.617706	0.095194	0.895201
	H117	H	0.380226	0.091649	0.098237
	H118	H	0.612288	0.916898	0.094707
	H119	H	0.382283	0.910544	0.914232
	C120	C	0.374850	0.010819	0.623212
	C121	C	0.617918	0.994388	0.622262
	C122	C	0.619445	0.010308	0.379295
	C123	C	0.375950	0.994341	0.379936
	C124	C	0.619308	0.381091	0.008871
	C125	C	0.619418	0.624630	0.992095
	C126	C	0.376623	0.624096	0.007667
	C127	C	0.376195	0.381083	0.991439
	C128	C	0.004836	0.623458	0.379735
	C129	C	0.988525	0.624411	0.622878
	C130	C	0.004986	0.380936	0.621749
	C131	C	0.988531	0.379960	0.378400
	C132	C	0.876479	0.511109	0.121304
	C133	C	0.119849	0.494526	0.121627
	C134	C	0.120145	0.510891	0.877690
	C135	C	0.876045	0.494748	0.878008
	C136	C	0.118630	0.880255	0.509823
	C137	C	0.118680	0.123728	0.492581
	C138	C	0.875344	0.123744	0.509848
	C139	C	0.875474	0.880883	0.493297
	C140	C	0.505284	0.124519	0.878998
	C141	C	0.488528	0.124613	0.122651
	C142	C	0.505558	0.881404	0.122176
	C143	C	0.489393	0.881686	0.879196
	C144	C	0.376838	0.888636	0.679248
	C145	C	0.617152	0.116664	0.678721
	C146	C	0.618228	0.888429	0.322561
	C147	C	0.377623	0.116864	0.324649
	C148	C	0.674218	0.383424	0.885684
	C149	C	0.675770	0.623519	0.114374
	C150	C	0.321079	0.622328	0.884883
	C151	C	0.319706	0.383481	0.113895
	C152	C	0.881961	0.679359	0.381614
	C153	C	0.111313	0.680810	0.621464
	C154	C	0.881662	0.325905	0.620206
	C155	C	0.110997	0.323820	0.379960
	C156	C	0.881977	0.384132	0.677306
	C157	C	0.111835	0.622697	0.677834
	C158	C	0.882402	0.622278	0.322992
	C159	C	0.110992	0.380825	0.321645
	C160	C	0.377802	0.680904	0.885470
	C161	C	0.619260	0.682261	0.114019
	C162	C	0.617928	0.324436	0.886456
	C163	C	0.376957	0.326189	0.114460
	C164	C	0.674694	0.887696	0.381785
	C165	C	0.674794	0.116577	0.621358
	C166	C	0.319064	0.888268	0.621706
	C167	C	0.319542	0.116358	0.381934
	C168	C	0.876942	0.388577	0.177481
	C169	C	0.118652	0.616549	0.178460
	C170	C	0.117592	0.388038	0.822490
	C171	C	0.878233	0.617222	0.822783
	C172	C	0.174623	0.881320	0.387076
	C173	C	0.173079	0.120995	0.615880
	C174	C	0.819907	0.121200	0.387135
	C175	C	0.818913	0.882022	0.615793
	C176	C	0.382273	0.180056	0.881146
	C177	C	0.611595	0.180492	0.121276
	C178	C	0.382905	0.825028	0.120877
	C179	C	0.611867	0.824911	0.879541
	C180	C	0.382728	0.882530	0.178734
	C181	C	0.611424	0.122515	0.178543
	C182	C	0.382532	0.122814	0.823193
	C183	C	0.611810	0.882374	0.822144
	C184	C	0.877060	0.178711	0.386802
	C185	C	0.116469	0.179873	0.615054
	C186	C	0.117167	0.823873	0.387305
	C187	C	0.876307	0.824461	0.615766
	C188	C	0.175213	0.387924	0.880054
	C189	C	0.175451	0.616977	0.119395
	C190	C	0.819945	0.389039	0.119118
	C191	C	0.819411	0.616863	0.879249
	C192	C	0.397116	0.096418	0.600707
	C193	C	0.595089	0.908998	0.599344
	C194	C	0.596293	0.095276	0.402453
	C195	C	0.398868	0.908906	0.402439
	C196	C	0.596415	0.404009	0.094200
	C197	C	0.596070	0.601231	0.906933
	C198	C	0.399200	0.601398	0.093227
	C199	C	0.399123	0.402953	0.905831
	C200	C	0.090266	0.600469	0.402516
	C201	C	0.903017	0.601458	0.600196
	C202	C	0.090994	0.402783	0.598926
	C203	C	0.903075	0.403443	0.401631
	C204	C	0.899995	0.596315	0.098890
	C205	C	0.096680	0.409303	0.098456
	C206	C	0.097827	0.596494	0.900260
	C207	C	0.898476	0.409169	0.900291
	C208	C	0.095169	0.903445	0.595039
	C209	C	0.096570	0.101326	0.406986
	C210	C	0.898211	0.101770	0.595296
	C211	C	0.898617	0.903396	0.407975
	C212	C	0.590654	0.101540	0.902091
	C213	C	0.402775	0.102152	0.100153
	C214	C	0.590954	0.904777	0.099158
	C215	C	0.403838	0.904660	0.902541
	Zn216	Zn	0.497347	0.002845	0.751108
	Zn217	Zn	0.496958	0.002613	0.251074
	Zn218	Zn	0.747764	0.503138	0.000111
	Zn219	Zn	0.248343	0.502552	-0.001047
	Zn220	Zn	-0.003462	0.752324	0.501558
	Zn221	Zn	-0.004086	0.252167	0.500983
	Zn222	Zn	-0.001959	0.502696	0.749917
	Zn223	Zn	-0.002503	0.502606	0.250238
	Zn224	Zn	0.497424	0.753345	0.000125
	Zn225	Zn	0.497194	0.252878	0.000831
	Zn226	Zn	0.747169	0.002298	0.501816
	Zn227	Zn	0.246559	0.001204	0.501144
	N228	N	0.410734	0.965919	0.680267
	N229	N	0.582885	0.039558	0.679692
	N230	N	0.584698	0.965727	0.320777
	N231	N	0.411942	0.039739	0.323309
	N232	N	0.675308	0.417819	0.962825
	N233	N	0.676149	0.588716	0.037529
	N234	N	0.320242	0.587822	0.961985
	N235	N	0.319066	0.416827	0.036358
	N236	N	0.959126	0.680181	0.416205
	N237	N	0.033672	0.682075	0.588007
	N238	N	0.959323	0.323795	0.586405
	N239	N	0.033696	0.323344	0.414673
	N240	N	0.959682	0.417572	0.678395
	N241	N	0.034581	0.588357	0.678772
	N242	N	0.959892	0.588091	0.321882
	N243	N	0.033799	0.415099	0.320523
	N244	N	0.411509	0.682177	0.962930
	N245	N	0.584766	0.683033	0.036948
	N246	N	0.584346	0.323084	0.963946
	N247	N	0.411478	0.324581	0.037299
	N248	N	0.675650	0.964652	0.416202
	N249	N	0.675459	0.039674	0.586943
	N250	N	0.317707	0.965329	0.587517
	N251	N	0.318369	0.039125	0.415621
	N252	N	0.911437	0.465506	0.178907
	N253	N	0.084989	0.539281	0.180087
	N254	N	0.084175	0.465393	0.820985
	N255	N	0.912673	0.540377	0.822076
	N256	N	0.175395	0.915716	0.464272
	N257	N	0.174550	0.086808	0.538724
	N258	N	0.818729	0.087684	0.464531
	N259	N	0.818407	0.916431	0.538719
	N260	N	0.459715	0.181329	0.915144
	N261	N	0.534199	0.181972	0.087447
	N262	N	0.460235	0.824118	0.086429
	N263	N	0.534950	0.824702	0.914543
	N264	N	0.460118	0.916531	0.179903
	N265	N	0.533972	0.088379	0.179469
	N266	N	0.459988	0.089007	0.822057
	N267	N	0.534536	0.917022	0.821840
	N268	N	0.910712	0.180455	0.464042
	N269	N	0.083377	0.181834	0.537421
	N270	N	0.083199	0.822835	0.464596
	N271	N	0.910823	0.823610	0.538630
	N272	N	0.176961	0.465497	0.913642
	N273	N	0.176325	0.540032	0.084786
	N274	N	0.819531	0.466163	0.085064
	N275	N	0.818115	0.539628	0.913089
	O276	O	1.071054	0.062259	1.160445
	H277	H	1.076732	0.069139	1.173972
	H278	H	1.076838	0.062609	1.151619
	O279	O	0.451440	0.466381	0.445123
	H280	H	0.443518	0.471237	0.439573
	H281	H	0.463189	0.459186	0.445094
	O282	O	0.571276	0.489678	0.453014
	H283	H	0.576732	0.481852	0.449849
	H284	H	0.554583	0.498478	0.441603
	O285	O	0.565181	0.556236	0.479982
	H286	H	0.568857	0.557606	0.481358
	H287	H	0.569530	0.568790	0.494582
	O288	O	0.423407	0.591694	0.504315
	H289	H	0.416867	0.580393	0.505784
	H290	H	0.420091	0.601760	0.496445
	O291	O	0.022599	-0.001573	1.016147
	H292	H	0.021040	-0.007803	1.007452
	H293	H	0.026576	-0.007540	1.008287
	O294	O	0.859079	0.973555	0.054216
	H295	H	0.853163	0.976830	0.041589
	H296	H	0.848497	0.972202	0.044415
	O297	O	1.087731	1.024667	0.077058
	H298	H	1.084182	1.022498	0.087632
	H299	H	1.099710	1.030210	0.071508
	O300	O	0.514918	0.373584	0.449941
	H301	H	0.530125	0.379082	0.463956
	H302	H	0.514738	0.380135	0.455911
	O303	O	0.512913	0.432143	0.451599
	H304	H	0.522354	0.425560	0.455852
	H305	H	0.518787	0.421131	0.444920
	O306	O	0.478306	0.447823	0.607437
	H307	H	0.482899	0.444305	0.609806
	H308	H	0.479443	0.445753	0.611204
	O309	O	0.610927	0.495292	0.540535
	H310	H	0.622744	0.504732	0.529794
	H311	H	0.609876	0.483899	0.530871
	O312	O	1.045269	0.900949	0.941505
	H313	H	1.046571	0.893830	0.935830
	H314	H	1.039543	0.896339	0.942141
	O315	O	0.928754	1.028801	0.009292
	H316	H	0.924595	1.028967	0.008024
	H317	H	0.923450	1.029277	0.004573
	O318	O	0.606609	0.379294	0.481581
	H319	H	0.596801	0.371030	0.474904
	H320	H	0.609118	0.381690	0.468012
	O321	O	0.340257	0.398350	0.560447
	H322	H	0.335336	0.407758	0.560025
	H323	H	0.339560	0.398272	0.553563
	O324	O	-0.014378	0.834552	1.009692
	H325	H	-0.013637	0.835612	1.012165
	H326	H	-0.026677	0.830391	1.010326
	O327	O	-0.063655	1.123231	1.048468
	H328	H	-0.058090	1.137981	1.044139
	H329	H	-0.057996	1.115898	1.054110
	O330	O	0.038747	0.026491	0.011764
	H331	H	0.032657	0.023017	0.019198
	H332	H	0.038016	0.014719	0.019789
	O333	O	0.643241	0.477535	0.485522
	H334	H	0.640261	0.476285	0.477763
	H335	H	0.648196	0.479568	0.488961
	O336	O	-0.009043	-0.088709	0.126793
	H337	H	-0.014031	-0.086125	0.120493
	H338	H	-0.024096	-0.089333	0.134805
	O339	O	0.071216	-0.003463	-0.070479
	H340	H	0.068700	-0.003605	-0.057293
	H341	H	0.067814	-0.008989	-0.074255
	O342	O	0.523337	0.391850	0.393417
	H343	H	0.520522	0.398501	0.382912
	H344	H	0.522520	0.390419	0.393562
	O345	O	-0.055921	1.054849	0.915776
	H346	H	-0.046609	1.050685	0.918758
	H347	H	-0.051326	1.059532	0.926938
	O348	O	0.374751	0.449635	0.626819
	H349	H	0.369107	0.442713	0.654610
	H350	H	0.359735	0.454659	0.624136
	O351	O	0.462443	0.560465	0.410013
	H352	H	0.465018	0.532728	0.407419
	H353	H	0.436314	0.562549	0.407538
	O354	O	0.016765	1.017508	0.031057
	H355	H	0.031582	1.022997	0.041581
	H356	H	0.010193	1.019515	0.019717
	O357	O	0.387550	0.504389	0.361833
	H358	H	0.394530	0.516483	0.370450
	H359	H	0.384754	0.487969	0.364868
	O360	O	1.114280	0.111409	0.995139
	H361	H	1.114181	0.113034	0.998594
	H362	H	1.112610	0.119740	0.993351
	O363	O	0.454957	0.546912	0.443471
	H364	H	0.456915	0.558798	0.449694
	H365	H	0.442968	0.549747	0.444701
	O366	O	0.398268	0.627012	0.500307
	H367	H	0.392755	0.620488	0.509195
	H368	H	0.391286	0.622591	0.492793
	O369	O	0.939692	0.151957	0.001603
	H370	H	0.933373	0.159181	0.016772
	H371	H	0.932019	0.148865	0.000583
	O372	O	0.461200	0.603713	0.533505
	H373	H	0.460082	0.612645	0.543278
	H374	H	0.459564	0.608473	0.535658
	O375	O	0.825623	-0.011621	1.078722
	H376	H	0.826858	-0.014882	1.064030
	H377	H	0.822605	-0.010819	1.076267
	O378	O	-0.072809	0.980675	-0.157824
	H379	H	-0.064571	0.991689	-0.150103
	H380	H	-0.083593	0.979362	-0.156420
	O381	O	0.528935	0.613880	0.474377
	H382	H	0.520754	0.626429	0.470850
	H383	H	0.537584	0.616306	0.470917
	O384	O	1.068838	0.980185	-0.032390
	H385	H	1.079110	0.977380	-0.033008
	H386	H	1.059924	0.972010	-0.016716
	O387	O	0.915363	-0.015522	0.986963
	H388	H	0.918739	-0.011544	0.991232
	H389	H	0.927317	-0.013583	0.989019
	O390	O	0.956962	0.911375	-0.018101
	H391	H	0.968743	0.923057	-0.036893
	H392	H	0.946071	0.908653	-0.025740
	O393	O	0.524003	0.540107	0.558912
	H394	H	0.530254	0.532996	0.545350
	H395	H	0.525458	0.538050	0.565757
