data_Molecule from HDF5

_cell_length_a		16.230463
_cell_length_b		16.323909
_cell_length_c		16.238145
_cell_angle_alpha	90.503634
_cell_angle_beta	90.319303
_cell_angle_gamma	89.708648
_symmetry_space_group_name_H-M	'P 1'
_symmetry_Int_Tables_number		1

loop_
	_symmetry_equiv_pos_as_xyz
	x,y,z

loop_
	_atom_site_label
	_atom_site_type_symbol
	_atom_site_fract_x
	_atom_site_fract_y
	_atom_site_fract_z
	H0	H	0.406246	0.825397	0.721413
	H1	H	0.603538	0.150916	0.726018
	H2	H	0.601179	0.825662	0.291715
	H3	H	0.402058	0.152875	0.295291
	H4	H	0.714977	0.389626	0.843463
	H5	H	0.718127	0.589845	0.171706
	H6	H	0.286504	0.588020	0.843996
	H7	H	0.291075	0.394577	0.172028
	H8	H	0.838848	0.703135	0.407450
	H9	H	0.165693	0.705084	0.610424
	H10	H	0.838908	0.274873	0.604138
	H11	H	0.166739	0.269563	0.406045
	H12	H	0.837926	0.391353	0.719276
	H13	H	0.166186	0.587723	0.724951
	H14	H	0.838619	0.585164	0.293020
	H15	H	0.167654	0.387403	0.292653
	H16	H	0.401053	0.703900	0.844331
	H17	H	0.602570	0.705991	0.171197
	H18	H	0.604229	0.270886	0.845674
	H19	H	0.404485	0.276605	0.171566
	H20	H	0.717840	0.825430	0.407528
	H21	H	0.718547	0.151147	0.609331
	H22	H	0.290418	0.824337	0.603366
	H23	H	0.284064	0.150767	0.407922
	H24	H	0.906244	0.324777	0.218607
	H25	H	0.102416	0.650820	0.225992
	H26	H	0.103210	0.326006	0.790223
	H27	H	0.901520	0.651869	0.791937
	H28	H	0.217542	0.885735	0.344039
	H29	H	0.218284	0.087981	0.671020
	H30	H	0.787506	0.084938	0.343257
	H31	H	0.790359	0.891766	0.670828
	H32	H	0.339252	0.204516	0.909084
	H33	H	0.666522	0.206658	0.112161
	H34	H	0.338145	0.777267	0.105823
	H35	H	0.665790	0.771011	0.907533
	H36	H	0.338141	0.894786	0.219207
	H37	H	0.666884	0.088650	0.225812
	H38	H	0.340363	0.088522	0.792069
	H39	H	0.668061	0.889274	0.794682
	H40	H	0.901684	0.201115	0.342970
	H41	H	0.104842	0.206350	0.669885
	H42	H	0.103009	0.769691	0.344701
	H43	H	0.903573	0.774970	0.671015
	H44	H	0.220430	0.327071	0.905821
	H45	H	0.216874	0.652759	0.109327
	H46	H	0.788406	0.326246	0.104557
	H47	H	0.786298	0.652722	0.908773
	H48	H	0.417538	0.101990	0.599787
	H49	H	0.604136	0.868519	0.606122
	H50	H	0.595920	0.106270	0.413486
	H51	H	0.412024	0.870994	0.403528
	H52	H	0.587103	0.403482	0.120589
	H53	H	0.590167	0.580035	0.893499
	H54	H	0.410807	0.581000	0.123703
	H55	H	0.413285	0.394464	0.891240
	H56	H	0.120982	0.575863	0.410285
	H57	H	0.881462	0.597833	0.599774
	H58	H	0.117824	0.398233	0.595118
	H59	H	0.884192	0.393950	0.406276
	H60	H	0.118694	0.398994	0.602096
	H61	H	0.891725	0.577062	0.586104
	H62	H	0.120957	0.586365	0.418271
	H63	H	0.885604	0.389768	0.414514
	H64	H	0.413103	0.588449	0.124624
	H65	H	0.594530	0.583699	0.889543
	H66	H	0.596245	0.387085	0.128357
	H67	H	0.408702	0.394714	0.889496
	H68	H	0.591351	0.103492	0.417819
	H69	H	0.588825	0.873889	0.603427
	H70	H	0.405948	0.103686	0.594984
	H71	H	0.416591	0.876004	0.417644
	H72	H	0.909771	0.605304	0.101380
	H73	H	0.098682	0.371175	0.102808
	H74	H	0.087650	0.603543	0.913190
	H75	H	0.919454	0.375094	0.910496
	H76	H	0.095206	0.893081	0.624403
	H77	H	0.091929	0.072766	0.393200
	H78	H	0.909278	0.085943	0.625424
	H79	H	0.920946	0.892899	0.392682
	H80	H	0.621527	0.088846	0.917781
	H81	H	0.389334	0.082325	0.094855
	H82	H	0.622953	0.884857	0.100714
	H83	H	0.385395	0.896985	0.908701
	H84	H	0.614801	0.901074	0.089365
	H85	H	0.386174	0.080389	0.104614
	H86	H	0.617605	0.078075	0.924539
	H87	H	0.385839	0.893483	0.916424
	H88	H	0.910011	0.079761	0.623002
	H89	H	0.089062	0.082365	0.390859
	H90	H	0.099862	0.896834	0.625069
	H91	H	0.904490	0.886763	0.386430
	H92	H	0.092460	0.602168	0.923306
	H93	H	0.094614	0.373205	0.098104
	H94	H	0.910980	0.604542	0.100435
	H95	H	0.905338	0.374840	0.922103
	H96	H	0.408037	0.106584	0.606995
	H97	H	0.600119	0.873914	0.591840
	H98	H	0.597139	0.105081	0.419371
	H99	H	0.401821	0.870703	0.415576
	H100	H	0.606189	0.404588	0.126251
	H101	H	0.595763	0.577515	0.891750
	H102	H	0.406724	0.586455	0.126853
	H103	H	0.409835	0.399119	0.891500
	H104	H	0.116212	0.575095	0.423348
	H105	H	0.884612	0.574143	0.611370
	H106	H	0.119979	0.392954	0.598851
	H107	H	0.888097	0.398634	0.413760
	H108	H	0.909347	0.605033	0.100807
	H109	H	0.101074	0.372481	0.096207
	H110	H	0.098187	0.607078	0.914585
	H111	H	0.903676	0.368478	0.904656
	H112	H	0.094145	0.899103	0.623553
	H113	H	0.098572	0.079267	0.389561
	H114	H	0.915533	0.083805	0.623330
	H115	H	0.906416	0.904710	0.391958
	H116	H	0.620326	0.077432	0.911712
	H117	H	0.384982	0.089793	0.100971
	H118	H	0.620207	0.904710	0.109951
	H119	H	0.388094	0.901694	0.915153
	C120	C	0.382245	-0.003755	0.628780
	C121	C	0.626404	0.979667	0.630232
	C122	C	0.623861	-0.002906	0.386699
	C123	C	0.380452	0.980513	0.384843
	C124	C	0.624853	0.368372	0.016898
	C125	C	0.623831	0.610881	0.999146
	C126	C	0.380559	0.612646	0.016405
	C127	C	0.382430	0.368949	0.999327
	C128	C	0.011428	0.608428	0.387171
	C129	C	0.993956	0.611470	0.629659
	C130	C	0.010822	0.367994	0.627273
	C131	C	0.994531	0.365079	0.383831
	C132	C	0.881929	0.497005	0.128257
	C133	C	0.125966	0.480133	0.129759
	C134	C	0.123678	0.497109	0.886090
	C135	C	0.880121	0.480760	0.884666
	C136	C	0.124849	0.866240	0.516156
	C137	C	0.123550	0.108597	0.498872
	C138	C	0.881124	0.110477	0.515754
	C139	C	0.882148	0.867205	0.498935
	C140	C	0.511894	0.110479	0.887854
	C141	C	0.494927	0.112899	0.130619
	C142	C	0.510862	0.869099	0.128225
	C143	C	0.494751	0.867330	0.885269
	C144	C	0.385107	0.873826	0.683443
	C145	C	0.624014	0.102334	0.687371
	C146	C	0.622154	0.874459	0.329802
	C147	C	0.381730	0.103507	0.331460
	C148	C	0.678931	0.368937	0.893013
	C149	C	0.679978	0.609768	0.122672
	C150	C	0.324292	0.609068	0.893319
	C151	C	0.327936	0.372969	0.122907
	C152	C	0.887935	0.664717	0.387795
	C153	C	0.117104	0.666741	0.629581
	C154	C	0.887617	0.312793	0.624653
	C155	C	0.117992	0.308684	0.386563
	C156	C	0.887243	0.370510	0.682076
	C157	C	0.117310	0.608377	0.686370
	C158	C	0.887702	0.606053	0.331042
	C159	C	0.118484	0.367035	0.329927
	C160	C	0.381292	0.666652	0.893306
	C161	C	0.622493	0.667397	0.122479
	C162	C	0.623252	0.310460	0.893980
	C163	C	0.384271	0.314424	0.122771
	C164	C	0.679842	0.874358	0.387704
	C165	C	0.680963	0.102532	0.629257
	C166	C	0.327540	0.873423	0.624840
	C167	C	0.323130	0.102555	0.387679
	C168	C	0.885382	0.373697	0.181581
	C169	C	0.123067	0.602505	0.187379
	C170	C	0.122870	0.374692	0.828980
	C171	C	0.881319	0.603309	0.829740
	C172	C	0.179889	0.866209	0.393057
	C173	C	0.180299	0.108197	0.622212
	C174	C	0.825175	0.106223	0.392299
	C175	C	0.828015	0.871125	0.622081
	C176	C	0.388539	0.166271	0.889067
	C177	C	0.617890	0.168247	0.131091
	C178	C	0.387283	0.814958	0.125299
	C179	C	0.617154	0.809832	0.887169
	C180	C	0.387093	0.873333	0.181984
	C181	C	0.618118	0.109540	0.187696
	C182	C	0.389046	0.108742	0.830846
	C183	C	0.618200	0.868623	0.830941
	C184	C	0.882060	0.164117	0.392091
	C185	C	0.124084	0.167121	0.621452
	C186	C	0.123076	0.808316	0.393538
	C187	C	0.884189	0.812929	0.622013
	C188	C	0.181370	0.375313	0.886243
	C189	C	0.179811	0.603449	0.129220
	C190	C	0.826773	0.374604	0.124878
	C191	C	0.824290	0.603573	0.888030
	C192	C	0.404054	0.082079	0.606996
	C193	C	0.604271	0.894184	0.607177
	C194	C	0.601351	0.082745	0.410032
	C195	C	0.403561	0.894692	0.405885
	C196	C	0.602893	0.391642	0.102795
	C197	C	0.600481	0.587230	0.913640
	C198	C	0.403550	0.591563	0.102816
	C199	C	0.404214	0.389947	0.913199
	C200	C	0.097150	0.585721	0.410402
	C201	C	0.908100	0.589381	0.606071
	C202	C	0.096600	0.390240	0.605253
	C203	C	0.908349	0.387542	0.405199
	C204	C	0.903799	0.582825	0.107208
	C205	C	0.104454	0.394560	0.106059
	C206	C	0.099791	0.582275	0.910031
	C207	C	0.902818	0.394935	0.906018
	C208	C	0.103010	0.889641	0.602062
	C209	C	0.100095	0.085193	0.413444
	C210	C	0.904541	0.089394	0.601769
	C211	C	0.904245	0.888506	0.412554
	C212	C	0.597646	0.088026	0.911231
	C213	C	0.409211	0.090684	0.107043
	C214	C	0.597167	0.890400	0.106443
	C215	C	0.408599	0.890526	0.907094
	Zn216	Zn	0.504336	-0.011251	0.758022
	Zn217	Zn	0.502647	-0.010023	0.257118
	Zn218	Zn	0.752539	0.489129	0.007423
	Zn219	Zn	0.253539	0.489854	0.007627
	Zn220	Zn	0.002697	0.738514	0.507677
	Zn221	Zn	0.002681	0.238266	0.506483
	Zn222	Zn	0.001926	0.488599	0.756505
	Zn223	Zn	0.003270	0.487854	0.257331
	Zn224	Zn	0.501945	0.739912	0.007599
	Zn225	Zn	0.503652	0.240661	0.008624
	Zn226	Zn	0.753763	-0.011331	0.508026
	Zn227	Zn	0.252496	-0.012104	0.506968
	N228	N	0.418435	0.951025	0.685803
	N229	N	0.590725	0.025027	0.687946
	N230	N	0.588177	0.951898	0.328881
	N231	N	0.416747	0.026431	0.329616
	N232	N	0.679953	0.404445	0.970150
	N233	N	0.680981	0.575369	0.045018
	N234	N	0.323608	0.576379	0.971117
	N235	N	0.326610	0.406153	0.045175
	N236	N	0.965761	0.666404	0.421894
	N237	N	0.039505	0.668589	0.595007
	N238	N	0.965375	0.311135	0.591325
	N239	N	0.039915	0.307116	0.419301
	N240	N	0.964680	0.404421	0.683580
	N241	N	0.039715	0.574624	0.686448
	N242	N	0.965300	0.571628	0.330570
	N243	N	0.040781	0.401101	0.327812
	N244	N	0.415494	0.668853	0.970907
	N245	N	0.588242	0.668396	0.044796
	N246	N	0.590640	0.309618	0.972054
	N247	N	0.417301	0.311805	0.045029
	N248	N	0.681054	0.951625	0.422250
	N249	N	0.682653	0.025363	0.594526
	N250	N	0.325740	0.950835	0.591667
	N251	N	0.322133	0.025113	0.420087
	N252	N	0.918914	0.450958	0.183754
	N253	N	0.090212	0.524873	0.187825
	N254	N	0.087720	0.451566	0.828695
	N255	N	0.915284	0.525906	0.827369
	N256	N	0.180876	0.901787	0.470114
	N257	N	0.180329	0.072839	0.545083
	N258	N	0.824611	0.073590	0.470265
	N259	N	0.826620	0.904094	0.544451
	N260	N	0.465950	0.167541	0.923647
	N261	N	0.540437	0.170435	0.096452
	N262	N	0.465299	0.812382	0.092367
	N263	N	0.539293	0.809010	0.920229
	N264	N	0.464758	0.906459	0.183795
	N265	N	0.540394	0.075983	0.187710
	N266	N	0.466824	0.074685	0.829952
	N267	N	0.540936	0.903802	0.829914
	N268	N	0.916060	0.166998	0.469803
	N269	N	0.089254	0.167491	0.543980
	N270	N	0.089448	0.808170	0.471206
	N271	N	0.917181	0.810376	0.544112
	N272	N	0.182003	0.452450	0.920973
	N273	N	0.181649	0.526595	0.093863
	N274	N	0.824513	0.452318	0.092648
	N275	N	0.823350	0.526145	0.921271
	O276	O	-0.068427	0.061433	-0.066074
	H277	H	-0.077376	0.076562	-0.071443
	H278	H	-0.056819	0.055259	-0.062248
	O279	O	0.543484	0.437177	0.553505
	H280	H	0.534929	0.431048	0.550973
	H281	H	0.550440	0.436470	0.567056
	O282	O	0.569895	0.534795	0.553070
	H283	H	0.567309	0.533329	0.559639
	H284	H	0.569295	0.539115	0.557730
	O285	O	1.035046	-0.121776	1.027536
	H286	H	1.035619	-0.113701	1.024960
	H287	H	1.035454	-0.137763	1.020544
	O288	O	0.953649	-0.025327	0.000424
	H289	H	0.950289	-0.016695	-0.010453
	H290	H	0.966828	-0.021214	0.007290
	O291	O	0.125984	0.932882	-0.030683
	H292	H	0.117548	0.937207	-0.035196
	H293	H	0.120131	0.928836	-0.040229
	O294	O	1.477382	0.361366	1.508275
	H295	H	1.476335	0.364722	1.503456
	H296	H	1.473371	0.353195	1.495617
	O297	O	-0.032335	0.011429	0.040672
	H298	H	-0.030257	0.011038	0.034344
	H299	H	-0.017010	0.018642	0.046735
	O300	O	-0.066773	0.978173	0.068286
	H301	H	-0.072088	0.969178	0.061945
	H302	H	-0.075655	0.976713	0.062873
	O303	O	0.544716	0.412371	0.575880
	H304	H	0.548170	0.419255	0.575844
	H305	H	0.544819	0.406181	0.583826
	O306	O	1.043799	-0.055700	-0.011581
	H307	H	1.035614	-0.061056	-0.011123
	H308	H	1.029755	-0.055666	-0.001596
	O309	O	0.025604	0.020662	1.065994
	H310	H	0.030771	0.019841	1.067270
	H311	H	0.021931	0.013225	1.062720
	O312	O	1.007023	1.094280	1.046026
	H313	H	1.003376	1.095418	1.062402
	H314	H	1.013912	1.098715	1.043608
	O315	O	0.539408	0.509866	0.523625
	H316	H	0.544802	0.507507	0.538068
	H317	H	0.532730	0.511738	0.530250
	O318	O	0.460203	0.502951	0.516280
	H319	H	0.459937	0.507049	0.514703
	H320	H	0.464409	0.507387	0.509130
	O321	O	0.041281	0.971720	0.950496
	H322	H	0.044405	0.975559	0.951876
	H323	H	0.055516	0.969771	0.946872
	O324	O	0.502464	0.435975	0.486708
	H325	H	0.501270	0.447463	0.483259
	H326	H	0.504850	0.428196	0.477726
	O327	O	1.075418	0.974096	-0.036065
	H328	H	1.074972	0.986451	-0.037909
	H329	H	1.077158	0.974794	-0.032414
	O330	O	-0.048560	1.071684	0.035027
	H331	H	-0.050053	1.059090	0.033824
	H332	H	-0.053327	1.079799	0.039068
	O333	O	0.013042	1.058567	0.966716
	H334	H	0.026275	1.058660	0.973938
	H335	H	0.013227	1.048526	0.972920
	O336	O	0.515807	0.466756	0.558044
	H337	H	0.508514	0.469466	0.563092
	H338	H	0.520845	0.472168	0.566473
	O339	O	1.082980	0.979288	0.001890
	H340	H	1.082605	0.983411	0.020457
	H341	H	1.081966	0.972587	0.004051
	O342	O	1.095724	1.056627	0.032572
	H343	H	1.103665	1.053715	0.023344
	H344	H	1.086892	1.056964	0.034026
	O345	O	0.533541	0.489944	0.536421
	H346	H	0.534529	0.485075	0.533247
	H347	H	0.537909	0.491216	0.538318
	O348	O	0.527220	-0.501819	-0.531654
	H349	H	0.528811	-0.494741	-0.530949
	H350	H	0.528681	-0.501383	-0.538016
	O351	O	-0.120434	1.048710	0.967803
	H352	H	-0.126990	1.058151	0.967574
	H353	H	-0.129646	1.050857	0.962593
	O354	O	0.488390	0.465337	0.495782
	H355	H	0.495780	0.465340	0.491814
	H356	H	0.491414	0.459186	0.492895
	O357	O	0.042327	0.824193	0.979871
	H358	H	0.038529	0.813300	0.980759
	H359	H	0.050542	0.825949	0.977058
