data_Molecule from HDF5

_cell_length_a		16.597385
_cell_length_b		16.467040
_cell_length_c		16.578855
_cell_angle_alpha	90.135878
_cell_angle_beta	90.011035
_cell_angle_gamma	90.049163
_symmetry_space_group_name_H-M	'P 1'
_symmetry_Int_Tables_number		1

loop_
	_symmetry_equiv_pos_as_xyz
	x,y,z

loop_
	_atom_site_label
	_atom_site_type_symbol
	_atom_site_fract_x
	_atom_site_fract_y
	_atom_site_fract_z
	H0	H	0.397744	0.836648	0.720290
	H1	H	0.613655	0.149610	0.722856
	H2	H	0.609375	0.836055	0.276798
	H3	H	0.398180	0.149437	0.276183
	H4	H	0.729489	0.380849	0.841824
	H5	H	0.724454	0.594850	0.153187
	H6	H	0.281591	0.599879	0.841193
	H7	H	0.279868	0.385527	0.151552
	H8	H	0.847724	0.711845	0.395768
	H9	H	0.159738	0.716743	0.604480
	H10	H	0.849136	0.270369	0.603035
	H11	H	0.160442	0.270600	0.390499
	H12	H	0.849040	0.384774	0.720573
	H13	H	0.158757	0.601386	0.722035
	H14	H	0.848804	0.597445	0.276090
	H15	H	0.158900	0.386136	0.272511
	H16	H	0.399077	0.714560	0.841138
	H17	H	0.607409	0.710966	0.154695
	H18	H	0.611383	0.267227	0.840766
	H19	H	0.398508	0.271148	0.152777
	H20	H	0.727214	0.837441	0.391883
	H21	H	0.730446	0.149431	0.607964
	H22	H	0.281287	0.836960	0.604943
	H23	H	0.284411	0.150383	0.394058
	H24	H	0.901702	0.335164	0.215777
	H25	H	0.111134	0.650846	0.218515
	H26	H	0.111036	0.335635	0.774072
	H27	H	0.897799	0.648879	0.774849
	H28	H	0.225996	0.887333	0.340690
	H29	H	0.227635	0.100923	0.653821
	H30	H	0.785017	0.098177	0.340873
	H31	H	0.782165	0.888360	0.652995
	H32	H	0.347117	0.214436	0.891131
	H33	H	0.659949	0.215097	0.102345
	H34	H	0.347551	0.771576	0.101954
	H35	H	0.662796	0.773270	0.893266
	H36	H	0.347708	0.887633	0.219012
	H37	H	0.659901	0.099304	0.219262
	H38	H	0.348876	0.101281	0.772756
	H39	H	0.661765	0.888297	0.775381
	H40	H	0.903512	0.211756	0.340310
	H41	H	0.111901	0.216893	0.653776
	H42	H	0.108998	0.772211	0.340049
	H43	H	0.901923	0.774463	0.655026
	H44	H	0.226743	0.335842	0.889701
	H45	H	0.227319	0.650222	0.103091
	H46	H	0.784492	0.335055	0.100974
	H47	H	0.779913	0.648218	0.888614
	H48	H	0.417080	0.103777	0.584161
	H49	H	0.591345	0.885853	0.577778
	H50	H	0.596930	0.107246	0.410109
	H51	H	0.411273	0.878406	0.407304
	H52	H	0.587640	0.407640	0.104591
	H53	H	0.593310	0.580696	0.884585
	H54	H	0.409818	0.582982	0.111229
	H55	H	0.412319	0.402967	0.883308
	H56	H	0.115020	0.578053	0.409820
	H57	H	0.894080	0.580762	0.584335
	H58	H	0.116304	0.405735	0.587555
	H59	H	0.891940	0.403673	0.407388
	H60	H	0.115051	0.404668	0.583009
	H61	H	0.892475	0.580406	0.588658
	H62	H	0.118373	0.582399	0.402220
	H63	H	0.893588	0.403812	0.408252
	H64	H	0.415915	0.576299	0.106825
	H65	H	0.592108	0.583901	0.883906
	H66	H	0.592497	0.399685	0.109435
	H67	H	0.415612	0.409626	0.886754
	H68	H	0.593650	0.107125	0.406042
	H69	H	0.597173	0.880521	0.584851
	H70	H	0.416283	0.105776	0.585174
	H71	H	0.417577	0.879974	0.405012
	H72	H	0.918112	0.605635	0.088555
	H73	H	0.095542	0.382054	0.079293
	H74	H	0.090112	0.601877	0.915190
	H75	H	0.913974	0.378968	0.906110
	H76	H	0.095633	0.901804	0.610829
	H77	H	0.094776	0.082987	0.385449
	H78	H	0.918872	0.083135	0.609195
	H79	H	0.914007	0.903898	0.384933
	H80	H	0.612658	0.078301	0.912175
	H81	H	0.393527	0.079593	0.084684
	H82	H	0.615551	0.905504	0.087695
	H83	H	0.392904	0.904309	0.905440
	H84	H	0.617914	0.902468	0.090953
	H85	H	0.390850	0.079771	0.090168
	H86	H	0.615025	0.078481	0.907770
	H87	H	0.394328	0.902626	0.911103
	H88	H	0.914756	0.082843	0.610594
	H89	H	0.095430	0.079638	0.386190
	H90	H	0.095665	0.909325	0.607681
	H91	H	0.915858	0.903937	0.385470
	H92	H	0.097810	0.606784	0.908475
	H93	H	0.094612	0.378172	0.089769
	H94	H	0.914157	0.605258	0.082042
	H95	H	0.921951	0.381571	0.907690
	H96	H	0.417629	0.104684	0.586167
	H97	H	0.587051	0.883747	0.587427
	H98	H	0.591826	0.105206	0.410729
	H99	H	0.416117	0.881081	0.411575
	H100	H	0.597574	0.407824	0.107199
	H101	H	0.595462	0.582897	0.883122
	H102	H	0.419139	0.585591	0.108607
	H103	H	0.420435	0.402884	0.886160
	H104	H	0.117635	0.586865	0.410041
	H105	H	0.892056	0.584031	0.586082
	H106	H	0.114425	0.409339	0.584774
	H107	H	0.893767	0.404491	0.407206
	H108	H	0.911010	0.607564	0.088148
	H109	H	0.086134	0.383557	0.085299
	H110	H	0.087793	0.604425	0.904425
	H111	H	0.915895	0.382182	0.913795
	H112	H	0.088884	0.904479	0.608163
	H113	H	0.092477	0.081112	0.386688
	H114	H	0.916897	0.079312	0.609025
	H115	H	0.915284	0.902245	0.384989
	H116	H	0.615044	0.082393	0.910476
	H117	H	0.391354	0.084722	0.086713
	H118	H	0.617518	0.900680	0.086385
	H119	H	0.394412	0.908353	0.908847
	C120	C	0.383655	0.001446	0.618518
	C121	C	0.625903	0.986178	0.618214
	C122	C	0.626180	0.002609	0.376385
	C123	C	0.383484	0.984180	0.376454
	C124	C	0.625827	0.370675	0.004559
	C125	C	0.625464	0.613567	0.987679
	C126	C	0.382596	0.614552	0.005674
	C127	C	0.383225	0.372084	0.988569
	C128	C	0.013394	0.614168	0.375995
	C129	C	0.995661	0.614795	0.619169
	C130	C	0.012835	0.372496	0.618248
	C131	C	0.996302	0.371907	0.375254
	C132	C	0.883117	0.501702	0.117688
	C133	C	0.125928	0.484540	0.118097
	C134	C	0.125250	0.501069	0.875640
	C135	C	0.883315	0.483900	0.875573
	C136	C	0.126246	0.871781	0.505712
	C137	C	0.126808	0.114673	0.489425
	C138	C	0.884359	0.114426	0.506243
	C139	C	0.883142	0.871869	0.488838
	C140	C	0.511781	0.113701	0.876149
	C141	C	0.495014	0.114757	0.119460
	C142	C	0.513135	0.871057	0.119969
	C143	C	0.497288	0.872124	0.876025
	C144	C	0.380360	0.883562	0.679515
	C145	C	0.630560	0.103094	0.681327
	C146	C	0.628213	0.883743	0.316395
	C147	C	0.380778	0.102515	0.316560
	C148	C	0.688327	0.364698	0.888216
	C149	C	0.684643	0.614050	0.106231
	C150	C	0.322250	0.617691	0.888185
	C151	C	0.321196	0.367892	0.105120
	C152	C	0.894966	0.672840	0.375479
	C153	C	0.112858	0.676149	0.622448
	C154	C	0.895823	0.310643	0.621254
	C155	C	0.113636	0.311252	0.372461
	C156	C	0.895818	0.367880	0.679678
	C157	C	0.112544	0.618698	0.680830
	C158	C	0.895524	0.615981	0.316324
	C159	C	0.112995	0.368563	0.313860
	C160	C	0.380550	0.675094	0.888267
	C161	C	0.626552	0.671718	0.107025
	C162	C	0.629370	0.308048	0.887695
	C163	C	0.380208	0.311121	0.105812
	C164	C	0.686737	0.884473	0.373510
	C165	C	0.688810	0.102940	0.624173
	C166	C	0.322180	0.883818	0.622446
	C167	C	0.324175	0.102913	0.375240
	C168	C	0.882151	0.383042	0.176956
	C169	C	0.128961	0.603346	0.178486
	C170	C	0.128815	0.383083	0.814306
	C171	C	0.879649	0.601660	0.814801
	C172	C	0.186058	0.869266	0.387874
	C173	C	0.187562	0.118595	0.606778
	C174	C	0.824654	0.116386	0.388246
	C175	C	0.822913	0.869854	0.606576
	C176	C	0.394280	0.174266	0.873257
	C177	C	0.612836	0.175075	0.120949
	C178	C	0.394945	0.810982	0.121244
	C179	C	0.615462	0.812723	0.874524
	C180	C	0.394992	0.868640	0.179440
	C181	C	0.612857	0.117414	0.179196
	C182	C	0.395202	0.117755	0.814284
	C183	C	0.614765	0.869702	0.815597
	C184	C	0.883464	0.172963	0.387667
	C185	C	0.129476	0.176095	0.606817
	C186	C	0.127762	0.811926	0.387519
	C187	C	0.882252	0.813426	0.607496
	C188	C	0.186358	0.383124	0.872135
	C189	C	0.186812	0.603019	0.120954
	C190	C	0.824229	0.382621	0.119484
	C191	C	0.821005	0.601173	0.871442
	C192	C	0.409627	0.083298	0.592577
	C193	C	0.599149	0.904762	0.591076
	C194	C	0.601187	0.085116	0.401697
	C195	C	0.408112	0.901381	0.400921
	C196	C	0.599897	0.397560	0.085898
	C197	C	0.600762	0.589298	0.905378
	C198	C	0.407667	0.588769	0.087617
	C199	C	0.408912	0.398078	0.906861
	C200	C	0.095783	0.589469	0.400350
	C201	C	0.914101	0.589004	0.593695
	C202	C	0.094242	0.398971	0.592293
	C203	C	0.914373	0.397046	0.400580
	C204	C	0.907301	0.584582	0.093293
	C205	C	0.099868	0.402683	0.092098
	C206	C	0.099199	0.582972	0.901931
	C207	C	0.909736	0.402164	0.901739
	C208	C	0.100953	0.897640	0.587616
	C209	C	0.101562	0.088710	0.407578
	C210	C	0.909617	0.089169	0.588349
	C211	C	0.907826	0.896347	0.406464
	C212	C	0.593058	0.087376	0.902604
	C213	C	0.413356	0.088770	0.094558
	C214	C	0.595307	0.895813	0.095560
	C215	C	0.415285	0.897687	0.901215
	Zn216	Zn	0.505130	-0.006514	0.746785
	Zn217	Zn	0.504381	-0.007205	0.248309
	Zn218	Zn	0.754696	0.491867	-0.003868
	Zn219	Zn	0.253731	0.492928	-0.003323
	Zn220	Zn	0.004344	0.743363	0.497629
	Zn221	Zn	0.005382	0.243398	0.497066
	Zn222	Zn	0.004438	0.492687	0.747397
	Zn223	Zn	0.004577	0.493375	0.246070
	Zn224	Zn	0.505040	0.743139	-0.002584
	Zn225	Zn	0.503533	0.242376	-0.003407
	Zn226	Zn	0.754961	-0.006008	0.497978
	Zn227	Zn	0.254923	-0.006942	0.497674
	N228	N	0.418122	0.957649	0.677130
	N229	N	0.591987	0.029493	0.677603
	N230	N	0.591354	0.958317	0.317879
	N231	N	0.417019	0.027700	0.317302
	N232	N	0.686177	0.402934	0.961798
	N233	N	0.684372	0.578766	0.031018
	N234	N	0.323110	0.580858	0.962565
	N235	N	0.322944	0.405019	0.031102
	N236	N	0.969334	0.672115	0.411713
	N237	N	0.039330	0.673614	0.584577
	N238	N	0.969464	0.313421	0.583579
	N239	N	0.040034	0.313329	0.410073
	N240	N	0.969652	0.405581	0.677940
	N241	N	0.038646	0.581271	0.678926
	N242	N	0.970224	0.580525	0.316452
	N243	N	0.038987	0.405754	0.315559
	N244	N	0.417349	0.673275	0.962394
	N245	N	0.590720	0.671772	0.032345
	N246	N	0.591303	0.311251	0.961234
	N247	N	0.417945	0.313647	0.032193
	N248	N	0.685541	0.959304	0.410203
	N249	N	0.685952	0.029297	0.585306
	N250	N	0.324208	0.958086	0.585069
	N251	N	0.325636	0.028251	0.411858
	N252	N	0.918195	0.458164	0.175880
	N253	N	0.091775	0.528737	0.176866
	N254	N	0.091606	0.457481	0.816309
	N255	N	0.917665	0.527748	0.817357
	N256	N	0.185444	0.905665	0.462629
	N257	N	0.186091	0.081115	0.532657
	N258	N	0.824914	0.080967	0.463223
	N259	N	0.823488	0.905426	0.531854
	N260	N	0.467866	0.171669	0.911202
	N261	N	0.538438	0.173721	0.084798
	N262	N	0.469525	0.812055	0.085139
	N263	N	0.541147	0.813971	0.911188
	N264	N	0.469478	0.905055	0.178959
	N265	N	0.538532	0.080741	0.178653
	N266	N	0.469388	0.080891	0.815920
	N267	N	0.540077	0.905736	0.816253
	N268	N	0.919649	0.172158	0.462189
	N269	N	0.092602	0.174093	0.532646
	N270	N	0.091488	0.813195	0.461869
	N271	N	0.918877	0.814443	0.533170
	N272	N	0.184440	0.457622	0.909657
	N273	N	0.185275	0.528111	0.084258
	N274	N	0.824425	0.457560	0.083426
	N275	N	0.822809	0.526593	0.908372
	O276	O	1.291174	1.463443	-0.288836
	H277	H	1.281301	1.474506	-0.271920
	H278	H	1.293458	1.484861	-0.290954
	O279	O	-0.221050	0.011065	1.021665
	H280	H	-0.224728	-0.005577	1.034786
	H281	H	-0.221186	-0.016153	1.018811
	O282	O	0.569336	0.704197	0.427803
	H283	H	0.552137	0.706934	0.449355
	H284	H	0.559089	0.697865	0.439213
	O285	O	1.121636	1.177896	1.061757
	H286	H	1.101444	1.178760	1.079189
	H287	H	1.120854	1.165752	1.073688
	O288	O	0.965768	-0.223343	1.212976
	H289	H	0.973263	-0.250796	1.238486
	H290	H	0.986189	-0.219143	1.186255
	O291	O	1.193362	1.008913	1.206555
	H292	H	1.211734	0.997549	1.213599
	H293	H	1.196023	1.001444	1.189196
	O294	O	-0.013069	-0.222882	-0.010177
	H295	H	-0.022039	-0.224536	-0.000370
	H296	H	-0.026434	-0.225291	-0.033755
	O297	O	0.797263	-0.211371	0.200726
	H298	H	0.815125	-0.210359	0.215720
	H299	H	0.797132	-0.234109	0.227160
	O300	O	-0.201237	0.012527	-0.202836
	H301	H	-0.187230	0.030562	-0.202157
	H302	H	-0.213834	0.034096	-0.212821
	O303	O	-0.188148	0.180276	-0.199135
	H304	H	-0.160377	0.198307	-0.216685
	H305	H	-0.180698	0.180645	-0.169320
	O306	O	0.953612	-0.111584	-0.008946
	H307	H	0.936369	-0.108994	-0.011822
	H308	H	0.942062	-0.109961	-0.013062
	O309	O	0.418309	0.581725	0.706600
	H310	H	0.436312	0.570950	0.700433
	H311	H	0.430533	0.588369	0.699762
	O312	O	0.658552	0.452410	0.346133
	H313	H	0.673015	0.434915	0.330134
	H314	H	0.650107	0.439486	0.347967
	O315	O	0.293519	0.285172	0.520031
	H316	H	0.298718	0.281722	0.503898
	H317	H	0.279756	0.283692	0.513457
	O318	O	0.780814	0.768887	0.032267
	H319	H	0.774684	0.765250	0.070020
	H320	H	0.760723	0.744500	0.048042
	O321	O	0.031016	1.021183	0.778963
	H322	H	0.032847	1.012594	0.772572
	H323	H	0.043777	1.014584	0.781511
	O324	O	0.931993	0.186103	1.196656
	H325	H	0.951625	0.179092	1.192601
	H326	H	0.936228	0.169422	1.181491
	O327	O	0.285157	0.714984	0.477218
	H328	H	0.258229	0.739554	0.461243
	H329	H	0.293435	0.712215	0.436916
	O330	O	0.055448	0.985619	0.167899
	H331	H	0.061486	0.977446	0.145515
	H332	H	0.041777	0.959043	0.173994
	O333	O	0.526059	0.302102	0.568148
	H334	H	0.529565	0.293961	0.579837
	H335	H	0.531634	0.294685	0.564581
	O336	O	0.295152	0.699645	0.705461
	H337	H	0.300322	0.686832	0.681803
	H338	H	0.299348	0.687280	0.696594
	O339	O	0.319746	0.301725	0.685507
	H340	H	0.309033	0.327207	0.668570
	H341	H	0.302171	0.311882	0.673511
	O342	O	0.113254	1.119697	-0.085037
	H343	H	0.110335	1.104732	-0.090466
	H344	H	0.123504	1.118974	-0.067427
	O345	O	0.625452	0.331870	0.404713
	H346	H	0.631008	0.317593	0.398646
	H347	H	0.620548	0.321455	0.411089
	O348	O	0.038300	0.793459	0.788714
	H349	H	0.039158	0.789036	0.795412
	H350	H	0.037430	0.784268	0.788659
	O351	O	0.314123	0.681711	1.310142
	H352	H	0.344642	0.676933	1.300083
	H353	H	0.322872	0.647918	1.297642
	O354	O	0.789487	-0.036008	1.212572
	H355	H	0.778889	-0.051874	1.217171
	H356	H	0.785492	-0.046534	1.223473
	O357	O	0.705273	0.697099	0.687358
	H358	H	0.725451	0.693579	0.686806
	H359	H	0.700081	0.686118	0.656764
	O360	O	0.514014	0.680741	0.718436
	H361	H	0.540979	0.667902	0.719347
	H362	H	0.532312	0.707534	0.738577
	O363	O	0.557639	0.447590	0.622929
	H364	H	0.557712	0.426352	0.611080
	H365	H	0.565265	0.441263	0.618211
	O366	O	0.403719	0.480292	0.444101
	H367	H	0.417846	0.488181	0.450629
	H368	H	0.407054	0.484355	0.437421
	O369	O	0.012282	-0.051879	1.168493
	H370	H	0.010658	-0.060416	1.147786
	H371	H	0.035268	-0.062411	1.173218
	O372	O	-0.198955	0.886260	0.899387
	H373	H	-0.201502	0.885308	0.900315
	H374	H	-0.188866	0.875431	0.892529
	O375	O	0.967773	0.155257	-0.015552
	H376	H	0.977650	0.156382	-0.018134
	H377	H	0.970354	0.155242	-0.011571
	O378	O	0.673261	0.541071	0.478608
	H379	H	0.670206	0.524132	0.485408
	H380	H	0.685234	0.521827	0.466558
	O381	O	-0.455639	1.458610	-0.557033
	H382	H	-0.474903	1.456094	-0.557065
	H383	H	-0.462889	1.466717	-0.541964
	O384	O	0.429220	0.351779	0.470939
	H385	H	0.425808	0.354214	0.478412
	H386	H	0.430545	0.350579	0.493188
	O387	O	0.450403	1.416938	1.472156
	H388	H	0.455458	1.408725	1.464852
	H389	H	0.451124	1.415270	1.476388
	O390	O	-0.342224	0.675703	0.688846
	H391	H	-0.352961	0.677636	0.679789
	H392	H	-0.331074	0.685833	0.684813
	O393	O	0.965991	-0.056501	-0.165626
	H394	H	0.951621	-0.049536	-0.164730
	H395	H	0.963699	-0.060108	-0.169292
	O396	O	0.662056	0.442795	0.477453
	H397	H	0.653564	0.443698	0.465802
	H398	H	0.670531	0.431118	0.494409
	O399	O	0.718420	0.513554	0.715702
	H400	H	0.703630	0.499234	0.729256
	H401	H	0.734556	0.523545	0.731895
	O402	O	1.011316	-0.102076	1.043225
	H403	H	0.986939	-0.107448	1.019051
	H404	H	1.024325	-0.086534	1.045313
	O405	O	-0.008364	0.182537	0.129148
	H406	H	-0.021374	0.165283	0.126861
	H407	H	-0.011104	0.180192	0.130133
	O408	O	1.090482	0.949060	1.038939
	H409	H	1.086308	0.951249	1.032146
	H410	H	1.077403	0.946685	1.040265
	O411	O	1.412843	0.403352	-0.708095
	H412	H	1.413552	0.391487	-0.721421
	H413	H	1.426826	0.403704	-0.697429
	O414	O	0.266896	-0.743294	0.259479
	H415	H	0.259181	-0.753203	0.260819
	H416	H	0.274708	-0.745351	0.269668
	O417	O	-0.209251	0.204362	0.968048
	H418	H	-0.234401	0.222814	0.960895
	H419	H	-0.212857	0.189374	0.973979
	O420	O	1.177075	-0.172668	0.834132
	H421	H	1.181316	-0.152344	0.842972
	H422	H	1.183162	-0.187253	0.816573
	O423	O	1.217581	0.965372	-0.215278
	H424	H	1.237000	0.967601	-0.230046
	H425	H	1.224774	0.954419	-0.203628
	O426	O	0.464930	0.716868	0.544117
	H427	H	0.439318	0.729264	0.549609
	H428	H	0.471231	0.713396	0.573550
	O429	O	0.707423	0.703416	0.516735
	H430	H	0.710670	0.694979	0.506111
	H431	H	0.708608	0.709390	0.508853
	O432	O	0.975406	0.198672	0.788299
	H433	H	0.993545	0.206688	0.784663
	H434	H	0.993339	0.199707	0.787734
	O435	O	0.690579	0.676162	0.305367
	H436	H	0.675573	0.662451	0.328794
	H437	H	0.671536	0.656543	0.317597
	O438	O	0.479149	0.274416	0.719096
	H439	H	0.466848	0.241188	0.749229
	H440	H	0.434976	0.283084	0.708549
	O441	O	0.942557	1.093759	0.012291
	H442	H	0.948238	1.100158	0.002986
	H443	H	0.935241	1.099737	0.007125
	O444	O	0.280709	0.528436	0.536172
	H445	H	0.277160	0.538996	0.525663
	H446	H	0.282523	0.540130	0.533583
	O447	O	0.188377	0.182082	1.043183
	H448	H	0.186908	0.172441	1.076425
	H449	H	0.215844	0.207999	1.049186
	O450	O	0.701253	0.296537	0.296855
	H451	H	0.702062	0.296127	0.336160
	H452	H	0.717927	0.273886	0.270224
	O453	O	0.610850	0.529263	0.290724
	H454	H	0.611949	0.515592	0.288816
	H455	H	0.599097	0.514708	0.288184
	O456	O	0.289485	1.517791	0.281981
	H457	H	0.284334	1.505020	0.262018
	H458	H	0.290416	1.507142	0.286283
	O459	O	0.531969	0.275207	0.277030
	H460	H	0.548718	0.252390	0.257063
	H461	H	0.544823	0.269666	0.282359
	O462	O	0.475468	0.709342	0.280893
	H463	H	0.481747	0.734683	0.273291
	H464	H	0.496187	0.700465	0.280469
	O465	O	0.715377	0.316719	0.571245
	H466	H	0.709569	0.304021	0.565464
	H467	H	0.720618	0.329748	0.585872
	O468	O	0.214695	1.101322	-0.015115
	H469	H	0.208819	1.121214	-0.009667
	H470	H	0.202654	1.100875	-0.006998
	O471	O	0.501863	0.462895	0.588968
	H472	H	0.485936	0.465470	0.590996
	H473	H	0.489688	0.472929	0.587019
	O474	O	1.199323	0.932431	0.054894
	H475	H	1.202613	0.924365	0.040132
	H476	H	1.199690	0.935463	0.034845
	O477	O	0.223546	-0.221999	0.967933
	H478	H	0.243659	-0.251517	0.957694
	H479	H	0.214264	-0.221604	0.948535
