data_Molecule from HDF5

_cell_length_a		16.439027
_cell_length_b		16.408329
_cell_length_c		16.526302
_cell_angle_alpha	89.931701
_cell_angle_beta	89.940481
_cell_angle_gamma	90.071109
_symmetry_space_group_name_H-M	'P 1'
_symmetry_Int_Tables_number		1

loop_
	_symmetry_equiv_pos_as_xyz
	x,y,z

loop_
	_atom_site_label
	_atom_site_type_symbol
	_atom_site_fract_x
	_atom_site_fract_y
	_atom_site_fract_z
	H0	H	0.382096	0.849473	0.720117
	H1	H	0.600296	0.162208	0.716623
	H2	H	0.606353	0.849867	0.268108
	H3	H	0.388927	0.164238	0.271178
	H4	H	0.717626	0.401853	0.838753
	H5	H	0.720882	0.616508	0.151153
	H6	H	0.270155	0.616128	0.839449
	H7	H	0.272086	0.399253	0.151894
	H8	H	0.838487	0.731549	0.385019
	H9	H	0.152069	0.730696	0.600469
	H10	H	0.837703	0.285929	0.599425
	H11	H	0.153935	0.285052	0.388687
	H12	H	0.839068	0.400881	0.717417
	H13	H	0.152643	0.615145	0.716403
	H14	H	0.838892	0.615956	0.268666
	H15	H	0.152517	0.398356	0.270291
	H16	H	0.387684	0.730907	0.839030
	H17	H	0.603862	0.730975	0.151375
	H18	H	0.598753	0.287015	0.837693
	H19	H	0.386307	0.281602	0.150787
	H20	H	0.722005	0.850577	0.383647
	H21	H	0.715254	0.164028	0.599725
	H22	H	0.268940	0.848484	0.602070
	H23	H	0.273777	0.164647	0.386803
	H24	H	0.887969	0.349920	0.218494
	H25	H	0.107193	0.661537	0.221950
	H26	H	0.101040	0.349167	0.774488
	H27	H	0.885882	0.663134	0.769354
	H28	H	0.221192	0.896619	0.337836
	H29	H	0.219067	0.112312	0.649462
	H30	H	0.769157	0.118398	0.338409
	H31	H	0.770082	0.899304	0.649985
	H32	H	0.337107	0.228441	0.889302
	H33	H	0.652947	0.228480	0.098293
	H34	H	0.338474	0.782255	0.102859
	H35	H	0.652364	0.783061	0.886198
	H36	H	0.338479	0.896319	0.219748
	H37	H	0.652221	0.115089	0.216453
	H38	H	0.336860	0.110784	0.773176
	H39	H	0.650357	0.896580	0.768087
	H40	H	0.887823	0.232289	0.338353
	H41	H	0.099895	0.225816	0.651849
	H42	H	0.105697	0.779719	0.338931
	H43	H	0.885491	0.782563	0.650277
	H44	H	0.215424	0.348827	0.892398
	H45	H	0.219728	0.663742	0.103884
	H46	H	0.772858	0.349105	0.101244
	H47	H	0.770943	0.664378	0.886335
	H48	H	0.411391	0.117467	0.587135
	H49	H	0.582215	0.892483	0.580818
	H50	H	0.579283	0.117399	0.405788
	H51	H	0.401825	0.892625	0.410678
	H52	H	0.584700	0.415032	0.108893
	H53	H	0.585807	0.597596	0.881178
	H54	H	0.416779	0.600772	0.105945
	H55	H	0.401759	0.412974	0.879147
	H56	H	0.106282	0.594360	0.407920
	H57	H	0.882652	0.587098	0.589295
	H58	H	0.109465	0.418866	0.584591
	H59	H	0.884874	0.423960	0.407214
	H60	H	0.110417	0.417553	0.586838
	H61	H	0.879520	0.601597	0.584910
	H62	H	0.105153	0.591783	0.410255
	H63	H	0.881308	0.418849	0.402612
	H64	H	0.398713	0.597202	0.110175
	H65	H	0.585555	0.589840	0.884431
	H66	H	0.585614	0.419569	0.108588
	H67	H	0.402764	0.426921	0.884773
	H68	H	0.584438	0.118449	0.407778
	H69	H	0.580946	0.892441	0.581516
	H70	H	0.408956	0.116175	0.577851
	H71	H	0.410997	0.892519	0.399615
	H72	H	0.913527	0.620150	0.087356
	H73	H	0.084000	0.395040	0.078424
	H74	H	0.080862	0.618962	0.907930
	H75	H	0.909001	0.396139	0.909489
	H76	H	0.078246	0.917364	0.604266
	H77	H	0.079199	0.093681	0.383409
	H78	H	0.904610	0.098373	0.607351
	H79	H	0.915626	0.925136	0.387276
	H80	H	0.608393	0.101326	0.909512
	H81	H	0.382374	0.092217	0.084239
	H82	H	0.605590	0.917036	0.076121
	H83	H	0.381199	0.914303	0.908034
	H84	H	0.605021	0.926711	0.082055
	H85	H	0.382277	0.094651	0.082626
	H86	H	0.604582	0.088507	0.906504
	H87	H	0.385858	0.921328	0.912891
	H88	H	0.903377	0.093601	0.606168
	H89	H	0.084227	0.101813	0.379754
	H90	H	0.085805	0.919490	0.605734
	H91	H	0.910313	0.912800	0.380913
	H92	H	0.087064	0.621850	0.907900
	H93	H	0.085437	0.391285	0.085098
	H94	H	0.912759	0.615925	0.075840
	H95	H	0.903871	0.393130	0.906262
	H96	H	0.402746	0.119986	0.583397
	H97	H	0.581327	0.892980	0.580123
	H98	H	0.583169	0.119708	0.402094
	H99	H	0.414960	0.898809	0.411784
	H100	H	0.581461	0.418266	0.107701
	H101	H	0.578914	0.595147	0.885638
	H102	H	0.409279	0.583498	0.102790
	H103	H	0.414356	0.417515	0.885575
	H104	H	0.105999	0.590670	0.406861
	H105	H	0.886260	0.591713	0.574772
	H106	H	0.110464	0.416232	0.584631
	H107	H	0.883939	0.416478	0.409810
	H108	H	0.902570	0.620528	0.080991
	H109	H	0.078804	0.395841	0.083953
	H110	H	0.082998	0.621651	0.902009
	H111	H	0.909659	0.395300	0.903331
	H112	H	0.080927	0.924797	0.602241
	H113	H	0.089008	0.092725	0.380348
	H114	H	0.908010	0.095251	0.605243
	H115	H	0.901381	0.925028	0.381796
	H116	H	0.610749	0.095999	0.896878
	H117	H	0.383644	0.092453	0.081914
	H118	H	0.610195	0.917168	0.085778
	H119	H	0.383012	0.922275	0.903341
	C120	C	0.372647	0.014181	0.616069
	C121	C	0.614335	0.997252	0.614023
	C122	C	0.617780	0.015444	0.371062
	C123	C	0.375486	0.998461	0.373333
	C124	C	0.616237	0.385827	0.004143
	C125	C	0.617374	0.628522	0.986799
	C126	C	0.374163	0.628052	0.003662
	C127	C	0.373271	0.385102	0.986632
	C128	C	0.003115	0.627390	0.373534
	C129	C	0.986616	0.627960	0.615597
	C130	C	0.004799	0.385718	0.616453
	C131	C	0.987308	0.385966	0.373382
	C132	C	0.875517	0.515037	0.115347
	C133	C	0.117195	0.497665	0.116858
	C134	C	0.116454	0.516203	0.873993
	C135	C	0.873516	0.498519	0.872918
	C136	C	0.117046	0.885012	0.501975
	C137	C	0.117146	0.128133	0.484945
	C138	C	0.872371	0.129861	0.502931
	C139	C	0.873513	0.885853	0.485656
	C140	C	0.503512	0.127809	0.872045
	C141	C	0.486843	0.127028	0.114958
	C142	C	0.503368	0.885392	0.115852
	C143	C	0.486549	0.884932	0.873291
	C144	C	0.366103	0.896293	0.678678
	C145	C	0.618244	0.115086	0.676169
	C146	C	0.623203	0.897466	0.308667
	C147	C	0.371724	0.116992	0.311822
	C148	C	0.677209	0.383540	0.885950
	C149	C	0.679572	0.633262	0.104371
	C150	C	0.311326	0.633182	0.886352
	C151	C	0.312291	0.381405	0.104606
	C152	C	0.885303	0.690254	0.368198
	C153	C	0.105027	0.689838	0.618032
	C154	C	0.885523	0.325791	0.618142
	C155	C	0.106101	0.325014	0.370551
	C156	C	0.886034	0.382887	0.676810
	C157	C	0.104993	0.632749	0.676384
	C158	C	0.885859	0.632821	0.310061
	C159	C	0.105474	0.381298	0.311418
	C160	C	0.369871	0.690263	0.885914
	C161	C	0.621138	0.690567	0.104357
	C162	C	0.618160	0.326446	0.885163
	C163	C	0.369197	0.322769	0.104110
	C164	C	0.680911	0.897616	0.366463
	C165	C	0.674910	0.116252	0.617317
	C166	C	0.309596	0.896016	0.619977
	C167	C	0.314143	0.117165	0.369467
	C168	C	0.870728	0.396920	0.177501
	C169	C	0.123224	0.614877	0.180190
	C170	C	0.119506	0.396921	0.814151
	C171	C	0.869066	0.616427	0.810795
	C172	C	0.180122	0.879455	0.384965
	C173	C	0.177959	0.130048	0.602825
	C174	C	0.810617	0.134688	0.385358
	C175	C	0.810848	0.881429	0.602892
	C176	C	0.384495	0.188026	0.870315
	C177	C	0.605436	0.188602	0.117279
	C178	C	0.385496	0.822935	0.120163
	C179	C	0.604786	0.823425	0.868749
	C180	C	0.385838	0.879722	0.178673
	C181	C	0.605116	0.131891	0.175854
	C182	C	0.384419	0.129840	0.812553
	C183	C	0.603756	0.879915	0.809693
	C184	C	0.869417	0.191721	0.385264
	C185	C	0.118833	0.186831	0.603800
	C186	C	0.122626	0.821027	0.385407
	C187	C	0.868562	0.823350	0.603099
	C188	C	0.176221	0.396576	0.872969
	C189	C	0.179591	0.615877	0.121384
	C190	C	0.813779	0.396381	0.119177
	C191	C	0.811760	0.616632	0.869148
	C192	C	0.399785	0.096341	0.589918
	C193	C	0.588751	0.914389	0.588073
	C194	C	0.590457	0.097312	0.397681
	C195	C	0.401787	0.916129	0.399674
	C196	C	0.590979	0.410593	0.086588
	C197	C	0.591092	0.602068	0.904933
	C198	C	0.400691	0.601421	0.084868
	C199	C	0.398996	0.411436	0.904678
	C200	C	0.084446	0.600273	0.400663
	C201	C	0.904227	0.601151	0.590098
	C202	C	0.088252	0.410444	0.592181
	C203	C	0.905075	0.412235	0.399137
	C204	C	0.902012	0.597541	0.089070
	C205	C	0.090278	0.415603	0.090066
	C206	C	0.091025	0.599246	0.898788
	C207	C	0.900015	0.416090	0.898919
	C208	C	0.089508	0.912564	0.582901
	C209	C	0.091517	0.103279	0.402548
	C210	C	0.897921	0.103371	0.584765
	C211	C	0.901176	0.913095	0.404521
	C212	C	0.586191	0.102706	0.897148
	C213	C	0.404162	0.100778	0.090036
	C214	C	0.585529	0.912345	0.088886
	C215	C	0.404573	0.911608	0.900358
	Zn216	Zn	0.493780	0.004989	0.743763
	Zn217	Zn	0.495262	0.006700	0.243917
	Zn218	Zn	0.745912	0.507109	-0.003974
	Zn219	Zn	0.245214	0.506976	-0.004461
	Zn220	Zn	-0.005521	0.756743	0.494082
	Zn221	Zn	-0.004311	0.257329	0.494351
	Zn222	Zn	-0.003782	0.507217	0.745026
	Zn223	Zn	-0.004668	0.506620	0.244338
	Zn224	Zn	0.495748	0.756807	-0.005082
	Zn225	Zn	0.494421	0.256078	-0.005133
	Zn226	Zn	0.744466	0.006995	0.493671
	Zn227	Zn	0.246141	0.006142	0.492885
	N228	N	0.404557	0.970631	0.676385
	N229	N	0.581201	0.040015	0.674049
	N230	N	0.584732	0.971793	0.311349
	N231	N	0.409008	0.042028	0.314007
	N232	N	0.676170	0.419593	0.961007
	N233	N	0.677631	0.595830	0.030144
	N234	N	0.313750	0.595294	0.960528
	N235	N	0.314731	0.419538	0.030680
	N236	N	0.959159	0.687187	0.406938
	N237	N	0.030166	0.687165	0.581163
	N238	N	0.960529	0.327273	0.581645
	N239	N	0.031656	0.327586	0.408308
	N240	N	0.961454	0.419175	0.676097
	N241	N	0.030285	0.595025	0.674979
	N242	N	0.960080	0.594607	0.313120
	N243	N	0.030557	0.418419	0.312986
	N244	N	0.408361	0.687302	0.959624
	N245	N	0.583244	0.687764	0.030168
	N246	N	0.581047	0.327511	0.959614
	N247	N	0.406366	0.324883	0.029598
	N248	N	0.677858	0.972046	0.404376
	N249	N	0.672871	0.041707	0.579554
	N250	N	0.313328	0.970473	0.581712
	N251	N	0.316142	0.042398	0.406848
	N252	N	0.908424	0.471637	0.175012
	N253	N	0.085312	0.540335	0.177597
	N254	N	0.083446	0.472417	0.814478
	N255	N	0.907179	0.541943	0.813071
	N256	N	0.176825	0.918376	0.458432
	N257	N	0.177013	0.094408	0.527884
	N258	N	0.812239	0.096833	0.459667
	N259	N	0.813738	0.919600	0.528831
	N260	N	0.459611	0.187123	0.906435
	N261	N	0.530725	0.185661	0.080190
	N262	N	0.459863	0.826134	0.082015
	N263	N	0.530819	0.826386	0.907539
	N264	N	0.460317	0.917781	0.176196
	N265	N	0.530335	0.094369	0.174521
	N266	N	0.459348	0.093034	0.813666
	N267	N	0.529040	0.917216	0.812411
	N268	N	0.907306	0.188702	0.459245
	N269	N	0.081714	0.185817	0.529383
	N270	N	0.083912	0.824436	0.459184
	N271	N	0.906483	0.825862	0.528951
	N272	N	0.174796	0.471923	0.909109
	N273	N	0.175961	0.541912	0.082639
	N274	N	0.816705	0.470892	0.081117
	N275	N	0.814518	0.542207	0.907106
	O276	O	0.540253	0.407217	0.553546
	H277	H	0.542215	0.403955	0.554688
	H278	H	0.550482	0.426097	0.552867
	O279	O	0.983363	-0.092696	0.792683
	H280	H	0.979896	-0.094065	0.800551
	H281	H	0.974915	-0.111487	0.783934
	O282	O	0.473192	0.536109	0.710542
	H283	H	0.465757	0.554343	0.712329
	H284	H	0.468590	0.549108	0.712841
	O285	O	0.698846	0.299319	0.474468
	H286	H	0.711463	0.282558	0.446023
	H287	H	0.691560	0.289371	0.477278
	O288	O	1.158636	0.973904	0.114340
	H289	H	1.163654	0.973217	0.121119
	H290	H	1.150633	0.956371	0.119367
	O291	O	1.071114	-0.048525	0.196054
	H292	H	1.066809	-0.077553	0.201387
	H293	H	1.072850	-0.037735	0.188127
	O294	O	-0.198870	0.020859	0.957142
	H295	H	-0.178812	0.015946	0.970816
	H296	H	-0.204945	0.009468	0.958045
	O297	O	0.694286	0.305929	0.709037
	H298	H	0.669710	0.316037	0.704264
	H299	H	0.684387	0.311313	0.696063
	O300	O	0.687174	0.500103	0.619419
	H301	H	0.697568	0.489924	0.603525
	H302	H	0.687685	0.483387	0.615509
	O303	O	0.302288	0.395231	0.685213
	H304	H	0.286799	0.394013	0.695237
	H305	H	0.332415	0.376506	0.681017
	O306	O	-0.019847	0.834885	0.778327
	H307	H	-0.016550	0.818343	0.752932
	H308	H	0.017345	0.849130	0.789147
	O309	O	0.295758	0.550537	0.304432
	H310	H	0.279053	0.545673	0.319842
	H311	H	0.287138	0.537698	0.301490
	O312	O	-0.210488	1.208792	0.967867
	H313	H	-0.216106	1.217987	0.974685
	H314	H	-0.207336	1.209338	0.973590
	O315	O	0.319015	0.465361	0.482323
	H316	H	0.313393	0.462773	0.510881
	H317	H	0.319196	0.447647	0.481632
	O318	O	1.373234	0.428755	0.292392
	H319	H	1.355728	0.430574	0.317435
	H320	H	1.376844	0.434305	0.278931
	O321	O	0.165686	0.188498	0.164821
	H322	H	0.181909	0.198375	0.126960
	H323	H	0.162401	0.159543	0.164568
	O324	O	0.661092	0.449507	0.501466
	H325	H	0.673829	0.444634	0.482183
	H326	H	0.653193	0.447187	0.500951
	O327	O	0.351786	0.645004	0.350898
	H328	H	0.356520	0.620272	0.345135
	H329	H	0.346884	0.657743	0.392942
	O330	O	-0.184956	1.029276	-0.180219
	H331	H	-0.188836	1.031310	-0.172935
	H332	H	-0.199593	1.021683	-0.192520
	O333	O	1.000550	0.801830	0.979102
	H334	H	0.992873	0.796991	0.952386
	H335	H	1.011690	0.801961	0.989588
	O336	O	0.194780	-0.004923	-0.178966
	H337	H	0.169980	0.001257	-0.182691
	H338	H	0.213424	-0.005618	-0.198796
	O339	O	-0.001838	0.796770	0.996688
	H340	H	0.001954	0.812589	0.989386
	H341	H	-0.014606	0.794921	0.992879
	O342	O	0.191624	1.200344	1.007860
	H343	H	0.189979	1.182918	0.995084
	H344	H	0.189371	1.207656	1.000184
	O345	O	1.125784	1.132564	-0.208289
	H346	H	1.103214	1.140427	-0.190294
	H347	H	1.099379	1.115915	-0.206804
	O348	O	0.997553	1.189312	1.203116
	H349	H	1.026607	1.191234	1.196338
	H350	H	1.006237	1.196985	1.216502
	O351	O	0.050481	1.183236	0.979131
	H352	H	0.035697	1.184442	0.984068
	H353	H	0.043652	1.171383	0.973785
	O354	O	-0.305841	0.433646	-0.706740
	H355	H	-0.324873	0.418690	-0.718289
	H356	H	-0.306411	0.454733	-0.713296
	O357	O	-0.062277	0.043244	0.897087
	H358	H	-0.063590	0.051111	0.900367
	H359	H	-0.072556	0.036430	0.912516
	O360	O	0.667726	0.686340	0.676721
	H361	H	0.681771	0.647588	0.683436
	H362	H	0.684464	0.693522	0.632339
	O363	O	-0.217654	-0.206913	1.015487
	H364	H	-0.246357	-0.228737	1.020495
	H365	H	-0.208649	-0.200932	0.993551
	O366	O	0.591312	0.524051	0.280882
	H367	H	0.592031	0.526208	0.280049
	H368	H	0.587907	0.546250	0.271447
	O369	O	0.552963	0.555269	0.472186
	H370	H	0.528862	0.559253	0.469274
	H371	H	0.524640	0.553849	0.468475
	O372	O	1.187776	-0.205436	0.980010
	H373	H	1.193219	-0.213490	0.999935
	H374	H	1.196793	-0.210500	0.994548
	O375	O	0.446769	0.488968	0.502249
	H376	H	0.451999	0.486879	0.487086
	H377	H	0.442836	0.490210	0.496697
	O378	O	0.500045	0.365322	0.291764
	H379	H	0.483161	0.389636	0.290864
	H380	H	0.499918	0.362912	0.291489
	O381	O	1.057170	-0.003918	0.959242
	H382	H	1.054741	-0.003462	0.964805
	H383	H	1.057621	-0.010705	0.945378
	O384	O	0.428080	0.368201	0.478037
	H385	H	0.433439	0.382367	0.484059
	H386	H	0.418399	0.363343	0.484715
	O387	O	-0.154317	0.192293	0.860579
	H388	H	-0.175624	0.181875	0.875178
	H389	H	-0.173297	0.209651	0.859063
	O390	O	-0.173793	-0.167609	0.170695
	H391	H	-0.171916	-0.134268	0.173836
	H392	H	-0.175372	-0.181652	0.133884
	O393	O	0.710576	0.724182	0.518077
	H394	H	0.727577	0.751399	0.514947
	H395	H	0.703903	0.724431	0.496783
	O396	O	1.208965	-0.015186	0.108115
	H397	H	1.208059	0.010638	0.089106
	H398	H	1.216329	-0.010868	0.129164
	O399	O	0.956073	0.072471	1.215305
	H400	H	0.965970	0.102565	1.220313
	H401	H	0.966554	0.051461	1.216889
	O402	O	1.479010	0.723671	1.280278
	H403	H	1.438892	0.724405	1.284707
	H404	H	1.479430	0.751802	1.265459
	O405	O	0.980450	0.790983	0.210752
	H406	H	0.970872	0.797204	0.197956
	H407	H	0.965975	0.761795	0.235894
	O408	O	0.780024	-0.012301	0.209186
	H409	H	0.754293	-0.019292	0.240776
	H410	H	0.800847	-0.007561	0.215178
	O411	O	0.963249	0.977517	-0.012570
	H412	H	0.974714	0.978032	-0.011485
	H413	H	0.946676	0.999659	-0.012432
	O414	O	0.438150	0.681147	0.520243
	H415	H	0.444122	0.676407	0.537826
	H416	H	0.440884	0.666557	0.522195
	O417	O	0.278601	0.288658	0.522664
	H418	H	0.285225	0.282531	0.537787
	H419	H	0.255925	0.263868	0.542274
	O420	O	-0.099396	0.129036	0.031692
	H421	H	-0.114502	0.134380	0.062651
	H422	H	-0.110373	0.126504	0.016272
	O423	O	0.618009	0.317168	0.302577
	H424	H	0.616830	0.313708	0.306046
	H425	H	0.592028	0.322347	0.299319
	O426	O	0.568911	0.599586	0.451143
	H427	H	0.565324	0.609101	0.445686
	H428	H	0.577602	0.614037	0.467652
	O429	O	0.405027	0.315924	0.707007
	H430	H	0.395141	0.283727	0.740645
	H431	H	0.432657	0.330496	0.701092
	O432	O	0.403675	0.587732	0.548098
	H433	H	0.386133	0.590469	0.558626
	H434	H	0.409816	0.602125	0.567345
	O435	O	0.284341	0.714127	0.474935
	H436	H	0.286505	0.708091	0.497245
	H437	H	0.260010	0.726946	0.486653
	O438	O	0.173260	-0.150349	-0.186611
	H439	H	0.187586	-0.122924	-0.183839
	H440	H	0.168968	-0.157098	-0.153818
	O441	O	0.968188	0.219923	-0.221778
	H442	H	0.923978	0.216575	-0.217893
	H443	H	0.969657	0.249705	-0.243855
	O444	O	-0.099952	1.116653	0.954474
	H445	H	-0.093674	1.112040	0.956392
	H446	H	-0.111961	1.126125	0.957395
	O447	O	0.641665	0.499561	0.617615
	H448	H	0.649359	0.501301	0.602839
	H449	H	0.638161	0.490958	0.610664
	O450	O	0.358154	0.485063	0.685153
	H451	H	0.373387	0.480660	0.681521
	H452	H	0.343549	0.487318	0.701615
	O453	O	0.511351	0.723107	0.712329
	H454	H	0.551881	0.721896	0.710509
	H455	H	0.529342	0.747402	0.737687
